data_PCOD9371363
_publ_section_title
;
Structure prediction by ZEFSAII (Michael W. Deem and Ramdas Pophale) SiO2 
 PCOD9371363
Probable space group: F D D 2
;
_chemical_formula_sum "Si O2"
_cell_formula_units_Z 88
_cell_length_a 17.262593
_cell_length_b 7.330484
_cell_length_c 31.361802
_cell_angle_alpha 90.000000
_cell_angle_beta 90.000000
_cell_angle_gamma 90.000000
_cell_volume 3968.621584
_symmetry_space_group_name_H-M "F D D 2"
_symmetry_group_IT_number 43
_symmetry_cell_setting 'orthorhombic'
loop_
_space_group_symop_operation_xyz
x,y,z
-x,-y,z
1/4-x,1/4+y,1/4+z
1/4+x,1/4-y,1/4+z
x,1/2+y,1/2+z
-x,1/2-y,1/2+z
1/4-x,3/4+y,3/4+z
1/4+x,3/4-y,3/4+z
1/2+x,y,1/2+z
1/2-x,-y,1/2+z
3/4-x,1/4+y,3/4+z
3/4+x,1/4-y,3/4+z
1/2+x,1/2+y,z
1/2-x,1/2-y,z
3/4-x,3/4+y,1/4+z
3/4+x,3/4-y,1/4+z
loop_
_atom_site_type_symbol
_atom_site_label
_atom_site_fract_x
_atom_site_fract_y
_atom_site_fract_z
Si Si1 0.750000 0.250000 0.643400
Si Si2 0.114020 0.210792 0.367257
Si Si3 0.116978 0.640595 0.056477
Si Si4 0.133826 0.378432 0.711095
Si Si5 0.312800 0.010637 0.306112
Si Si6 0.062418 0.229085 0.962182
O O1 0.714521 0.080598 0.618691
O O2 0.684126 0.332657 0.674904
O O3 0.145939 0.191370 0.415272
O O4 0.170148 0.336965 0.340073
O O5 0.099610 0.018841 0.343486
O O6 0.114475 0.421835 0.063131
O O7 0.025890 0.696276 0.056247
O O8 0.147936 0.675592 0.008164
O O9 0.136908 0.159192 0.707429
O O10 0.223231 0.449699 0.711617
O O11 0.328716 0.093774 0.259283
#
# Coordination Sequence:
#
# PCOD9371363 Si02
#       6
#     8  16  16  16  16  16
#     4  10  22  32  52  90 116 146 192 228 288 352
#     4  11  21  31  56  83 114 148 184 228 291 339
#     4   9  19  37  55  81 112 144 190 243 282 335
#     4   8  17  33  53  80 105 140 184 235 283 325
#     4   9  19  34  59  85 105 139 191 241 292 328
#     4   8  16  33  54  77 109 135 182 240 273 324
#
# _framework density 22.173946000000001
#
# number of rings (size 3 to 8) (size 9 to 14) (size 15 to 20)
#    0.000    2.909    0.000    2.727   10.182    0.000 
#    0.000    0.000    0.000   10.909    0.000    0.000 
#    0.000    0.000    0.000    0.000    0.000    0.000 
#
# Total GULP energy -122709.243488 kJ/mol
# GULP energy per Si atom -5577.692886 kJ/mol
# Density = 2.212348 g / cm^3
# Si number density = 22.173946 Si / 1000 Ang^3
#
#
#
# Elastic Constant Matrix: (Units=GPa)
#
#
# Indices 1 2 3 4 5 6 
#
# 1 20.5357 16.7410 24.7149 0.0000 0.0000 0.0000
# 2 16.7410 105.9505 60.3596 0.0000 0.0000 0.0000
# 3 24.7149 60.3596 147.9387 0.0000 0.0000 0.0000
# 4 0.0000 0.0000 0.0000 63.0609 0.0000 0.0000
# 5 0.0000 0.0000 0.0000 0.0000 21.1488 0.0000
# 6 0.0000 0.0000 0.0000 0.0000 0.0000 30.3227
#
#
#
# Elastic Compliance Matrix: (Units=1/GPa)
#
#
# Indices 1 2 3 4 5 6 
#
# 1 0.063044 -0.005161 -0.008427 0.000000 0.000000 0.000000
# 2 -0.005161 0.012719 -0.004327 0.000000 0.000000 0.000000
# 3 -0.008427 -0.004327 0.009933 0.000000 0.000000 0.000000
# 4 0.000000 0.000000 0.000000 0.015858 0.000000 0.000000
# 5 0.000000 0.000000 0.000000 0.000000 0.047284 0.000000
# 6 0.000000 0.000000 0.000000 0.000000 0.000000 0.032979
#
#
# Mechanical properties :
#
#
# Convention : Reuss Voigt Hill
#
# Bulk Modulus (GPa) = 20.05343 53.11732 36.58537
# Shear Modulus (GPa) = 21.34305 34.41379 27.87842
#
# Velocity S-wave (km/s) = 3.10583 3.94381 3.54963
# Velocity P-wave (km/s) = 4.68240 6.68917 5.77364
#
# Compressibility (1/GPa) = 0.04986678
#
# Stress axis : x y z
#
# Youngs Moduli (GPa) = 15.86183 78.62230 100.67591
#
# Poissons Ratio (x) = 0.40576 0.84836
# Poissons Ratio (y) = 0.08186 0.43565
# Poissons Ratio (z) = 0.13366 0.34022
#
# Static dielectric constant tensor:
#      x y z
#    x 1.856370 0.000000 0.000000 
#    y 0.000000 1.828230 0.000000 
#    z 0.000000 0.000000 1.870090 
# 
# From -- ./inp_files/29634.got.cif
#   From: 2010.05.17/outbox.cif.g08.bks.cpg/sg43_15_cif.got.tgz:29634.got - 2010.06.03 19:21:55.
