data_PCOD9371923
_publ_section_title
;
Structure prediction by ZEFSAII (Michael W. Deem and Ramdas Pophale) SiO2 
 PCOD9371923
Probable space group: F D D 2
;
_chemical_formula_sum "Si O2"
_cell_formula_units_Z 80
_cell_length_a 16.194898
_cell_length_b 19.714974
_cell_length_c 10.712298
_cell_angle_alpha 90.000000
_cell_angle_beta 90.000000
_cell_angle_gamma 90.000000
_cell_volume 3420.243855
_symmetry_space_group_name_H-M "F D D 2"
_symmetry_group_IT_number 43
_symmetry_cell_setting 'orthorhombic'
loop_
_space_group_symop_operation_xyz
x,y,z
-x,-y,z
1/4-x,1/4+y,1/4+z
1/4+x,1/4-y,1/4+z
x,1/2+y,1/2+z
-x,1/2-y,1/2+z
1/4-x,3/4+y,3/4+z
1/4+x,3/4-y,3/4+z
1/2+x,y,1/2+z
1/2-x,-y,1/2+z
3/4-x,1/4+y,3/4+z
3/4+x,1/4-y,3/4+z
1/2+x,1/2+y,z
1/2-x,1/2-y,z
3/4-x,3/4+y,1/4+z
3/4+x,3/4-y,1/4+z
loop_
_atom_site_type_symbol
_atom_site_label
_atom_site_fract_x
_atom_site_fract_y
_atom_site_fract_z
Si Si1 0.579083 0.599501 0.823920
Si Si2 0.916533 0.396691 0.604612
Si Si3 0.927490 0.757699 0.212979
Si Si4 0.250000 0.250000 0.921657
Si Si5 0.750000 0.750000 0.501464
Si Si6 0.119052 0.237653 0.713943
O O1 0.643077 0.538272 0.848710
O O2 0.499234 0.565730 0.760148
O O3 0.613744 0.656999 0.736017
O O4 0.563173 0.627380 0.963255
O O5 0.893949 0.333476 0.691957
O O6 0.853844 0.460230 0.577703
O O7 0.994918 0.434102 0.665258
O O8 0.025775 0.762766 0.212776
O O9 0.172865 0.262070 0.831457
O O10 0.829107 0.746830 0.591202
#
# Coordination Sequence:
#
# PCOD9371923 Si02
#       6
#    16  16  16   8   8  16
#     4  10  23  44  76  98 144 195 255 309 368 475
#     4  10  25  49  75 110 147 204 254 331 375 481
#     4  10  25  46  77 104 148 193 264 304 400 453
#     4  11  23  42  70 108 141 193 250 306 378 465
#     4  11  27  46  68 110 155 189 248 320 398 449
#     4  11  25  44  69 108 150 191 242 319 390 464
#
# _framework density 23.390145
#
# number of rings (size 3 to 8) (size 9 to 14) (size 15 to 20)
#    1.200    0.400    0.000    3.000    5.600    4.800 
#    3.600    0.000    0.000    0.000    0.000    0.000 
#    0.000    0.000    0.000    0.000    0.000    0.000 
#
# Total GULP energy -111637.647381 kJ/mol
# GULP energy per Si atom -5581.882369 kJ/mol
# Density = 2.333691 g / cm^3
# Si number density = 23.390145 Si / 1000 Ang^3
#
#
#
# Elastic Constant Matrix: (Units=GPa)
#
#
# Indices 1 2 3 4 5 6 
#
# 1 127.2373 18.0262 50.2227 0.0000 0.0000 0.0000
# 2 18.0262 133.4042 28.0050 0.0000 0.0000 0.0000
# 3 50.2227 28.0050 90.0154 0.0000 0.0000 0.0000
# 4 0.0000 0.0000 0.0000 84.9303 0.0000 0.0000
# 5 0.0000 0.0000 0.0000 0.0000 24.5578 0.0000
# 6 0.0000 0.0000 0.0000 0.0000 0.0000 38.3936
#
#
#
# Elastic Compliance Matrix: (Units=1/GPa)
#
#
# Indices 1 2 3 4 5 6 
#
# 1 0.010084 -0.000194 -0.005566 0.000000 0.000000 0.000000
# 2 -0.000194 0.008024 -0.002388 0.000000 0.000000 0.000000
# 3 -0.005566 -0.002388 0.014957 0.000000 0.000000 0.000000
# 4 0.000000 0.000000 0.000000 0.011774 0.000000 0.000000
# 5 0.000000 0.000000 0.000000 0.000000 0.040720 0.000000
# 6 0.000000 0.000000 0.000000 0.000000 0.000000 0.026046
#
#
# Mechanical properties :
#
#
# Convention : Reuss Voigt Hill
#
# Bulk Modulus (GPa) = 59.63314 60.35163 59.99239
# Shear Modulus (GPa) = 37.45592 46.53656 41.99624
#
# Velocity S-wave (km/s) = 4.00603 4.46531 4.24189
# Velocity P-wave (km/s) = 6.85187 7.24179 7.04952
#
# Compressibility (1/GPa) = 0.01676920
#
# Stress axis : x y z
#
# Youngs Moduli (GPa) = 99.17007 124.63337 66.85672
#
# Poissons Ratio (x) = 0.02420 0.37210
# Poissons Ratio (y) = 0.01926 0.15965
# Poissons Ratio (z) = 0.55194 0.29761
#
# Static dielectric constant tensor:
#      x y z
#    x 1.947920 0.000000 0.000000 
#    y 0.000000 0.911470 0.000000 
#    z 0.000000 0.000000 1.858170 
# 
# From -- ./inp_files/6589.got.cif
#   From: 2010.05.17/outbox.cif.g08.bks.cpg/sg43_4_cif.got.tgz:6589.got - 2010.06.03 19:21:55.
