data_PCOD9371505
_publ_section_title
;
Structure prediction by ZEFSAII (Michael W. Deem and Ramdas Pophale) SiO2 
 PCOD9371505
Probable space group: F D D 2
;
_chemical_formula_sum "Si O2"
_cell_formula_units_Z 104
_cell_length_a 26.110057
_cell_length_b 20.444644
_cell_length_c 8.118568
_cell_angle_alpha 90.000000
_cell_angle_beta 90.000000
_cell_angle_gamma 90.000000
_cell_volume 4333.779443
_symmetry_space_group_name_H-M "F D D 2"
_symmetry_group_IT_number 43
_symmetry_cell_setting 'orthorhombic'
loop_
_space_group_symop_operation_xyz
x,y,z
-x,-y,z
1/4-x,1/4+y,1/4+z
1/4+x,1/4-y,1/4+z
x,1/2+y,1/2+z
-x,1/2-y,1/2+z
1/4-x,3/4+y,3/4+z
1/4+x,3/4-y,3/4+z
1/2+x,y,1/2+z
1/2-x,-y,1/2+z
3/4-x,1/4+y,3/4+z
3/4+x,1/4-y,3/4+z
1/2+x,1/2+y,z
1/2-x,1/2-y,z
3/4-x,3/4+y,1/4+z
3/4+x,3/4-y,1/4+z
loop_
_atom_site_type_symbol
_atom_site_label
_atom_site_fract_x
_atom_site_fract_y
_atom_site_fract_z
Si Si1 0.330341 0.819188 0.172550
Si Si2 0.492381 0.777347 0.106100
Si Si3 0.683925 0.369658 0.566576
Si Si4 0.892333 0.239398 0.922355
Si Si5 0.747789 0.097577 0.064332
Si Si6 0.000000 0.500000 0.173920
Si Si7 0.349075 0.105012 0.437425
O O1 0.377911 0.864851 0.234343
O O2 0.295759 0.850954 0.027172
O O3 0.290276 0.791576 0.309530
O O4 0.357583 0.760491 0.075688
O O5 0.471508 0.825969 0.241759
O O6 0.505666 0.710059 0.186765
O O7 0.447835 0.760656 0.979136
O O8 0.527267 0.818151 0.982732
O O9 0.713025 0.301006 0.525042
O O10 0.675855 0.387514 0.756843
O O11 0.882113 0.284566 0.759087
O O12 0.891219 0.161433 0.916289
O O13 0.804522 0.128123 0.067455
#
# Coordination Sequence:
#
# PCOD9371505 Si02
#       7
#    16  16  16  16  16   8  16
#     4  11  25  43  79 101 152 194 263 321 403 468
#     4  10  22  41  65  98 141 190 251 305 392 472
#     4  11  27  45  72 108 153 205 258 326 407 476
#     4  10  24  43  70 100 142 195 254 316 403 478
#     4  11  22  42  67 103 138 197 245 323 385 474
#     4  12  26  50  76 118 156 206 278 332 404 502
#     4  11  25  45  68 106 148 195 257 328 401 480
#
# _framework density 23.997530999999999
#
# number of rings (size 3 to 8) (size 9 to 14) (size 15 to 20)
#    0.000    1.231    1.538    2.769   10.769    3.692 
#    2.769    0.000    0.000    0.000    0.000    0.000 
#    0.000    0.000    0.000    0.000    0.000    0.000 
#
# Total GULP energy -144780.067455 kJ/mol
# GULP energy per Si atom -5568.464133 kJ/mol
# Density = 2.394291 g / cm^3
# Si number density = 23.997531 Si / 1000 Ang^3
#
#
#
# Elastic Constant Matrix: (Units=GPa)
#
#
# Indices 1 2 3 4 5 6 
#
# 1 66.1044 35.5445 15.7412 0.0000 0.0000 0.0000
# 2 35.5445 111.8091 32.7421 -0.0005 0.0002 0.0001
# 3 15.7412 32.7421 96.3837 -0.0013 0.0006 0.0004
# 4 0.0000 -0.0005 -0.0013 36.4302 0.0004 0.0002
# 5 0.0000 0.0002 0.0006 0.0004 15.1002 -0.0001
# 6 0.0000 0.0001 0.0004 0.0002 -0.0001 36.3449
#
#
#
# Elastic Compliance Matrix: (Units=1/GPa)
#
#
# Indices 1 2 3 4 5 6 
#
# 1 0.018356 -0.005505 -0.001128 0.000000 0.000000 0.000000
# 2 -0.005505 0.011583 -0.003036 0.000000 0.000000 0.000000
# 3 -0.001128 -0.003036 0.011591 0.000000 0.000000 0.000000
# 4 0.000000 0.000000 0.000000 0.027450 -0.000001 0.000000
# 5 0.000000 0.000000 0.000000 -0.000001 0.066224 0.000000
# 6 0.000000 0.000000 0.000000 0.000000 0.000000 0.027514
#
#
# Mechanical properties :
#
#
# Convention : Reuss Voigt Hill
#
# Bulk Modulus (GPa) = 45.06034 49.15030 47.10532
# Shear Modulus (GPa) = 26.39180 30.25971 28.32576
#
# Velocity S-wave (km/s) = 3.31988 3.55484 3.43937
# Velocity P-wave (km/s) = 5.78907 6.11351 5.95350
#
# Compressibility (1/GPa) = 0.02219246
#
# Stress axis : x y z
#
# Youngs Moduli (GPa) = 54.47713 86.33395 86.27672
#
# Poissons Ratio (x) = 0.47529 0.09730
# Poissons Ratio (y) = 0.29991 0.26191
# Poissons Ratio (z) = 0.06144 0.26208
#
# Static dielectric constant tensor:
#      x y z
#    x 2.008200 0.000000 0.000000 
#    y 0.000000 2.069490 0.000000 
#    z 0.000000 0.000000 2.071400 
# 
# From -- ./inp_files/4770.got.cif
#   From: 2010.05.17/outbox.cif.g08.bks.cpg/sg43_3_cif.got.tgz:4770.got - 2010.06.03 19:21:55.
