data_PCOD9371565
_publ_section_title
;
Structure prediction by ZEFSAII (Michael W. Deem and Ramdas Pophale) SiO2 
 PCOD9371565
Probable space group: F D D 2
;
_chemical_formula_sum "Si O2"
_cell_formula_units_Z 120
_cell_length_a 24.524370
_cell_length_b 22.647028
_cell_length_c 9.101472
_cell_angle_alpha 90.000000
_cell_angle_beta 90.000000
_cell_angle_gamma 90.000000
_cell_volume 5054.994811
_symmetry_space_group_name_H-M "F D D 2"
_symmetry_group_IT_number 43
_symmetry_cell_setting 'orthorhombic'
loop_
_space_group_symop_operation_xyz
x,y,z
-x,-y,z
1/4-x,1/4+y,1/4+z
1/4+x,1/4-y,1/4+z
x,1/2+y,1/2+z
-x,1/2-y,1/2+z
1/4-x,3/4+y,3/4+z
1/4+x,3/4-y,3/4+z
1/2+x,y,1/2+z
1/2-x,-y,1/2+z
3/4-x,1/4+y,3/4+z
3/4+x,1/4-y,3/4+z
1/2+x,1/2+y,z
1/2-x,1/2-y,z
3/4-x,3/4+y,1/4+z
3/4+x,3/4-y,1/4+z
loop_
_atom_site_type_symbol
_atom_site_label
_atom_site_fract_x
_atom_site_fract_y
_atom_site_fract_z
Si Si1 0.062653 0.262430 0.768330
Si Si2 0.358484 0.836203 0.317567
Si Si3 0.184962 0.307538 0.045908
Si Si4 0.293554 0.875782 0.599229
Si Si5 0.176962 0.277906 0.719089
Si Si6 0.711962 0.988205 0.688025
Si Si7 0.901487 0.539448 0.535228
Si Si8 0.500000 0.000000 0.736919
O O1 0.114911 0.300796 0.716823
O O2 0.039268 0.236184 0.615059
O O3 0.015299 0.290993 0.864489
O O4 0.093581 0.211145 0.863759
O O5 0.390963 0.892184 0.264445
O O6 0.317585 0.859912 0.439826
O O7 0.329785 0.793529 0.201143
O O8 0.238501 0.337351 0.115205
O O9 0.159163 0.259496 0.155153
O O10 0.198651 0.284438 0.883802
O O11 0.283220 0.943701 0.634008
O O12 0.339765 0.851827 0.708072
O O13 0.217113 0.295814 0.591612
O O14 0.655138 0.966000 0.620717
O O15 0.953158 0.528034 0.638349
#
# Coordination Sequence:
#
# PCOD9371565 Si02
#       8
#    16  16  16  16  16  16  16   8
#     4  10  25  46  65  94 139 182 221 278 348 407
#     4  10  22  42  67 100 131 175 233 273 338 416
#     4  12  22  41  73 101 125 185 231 277 342 411
#     4  12  23  41  72 104 130 179 237 279 337 424
#     4  10  23  43  65  95 136 172 223 290 333 402
#     4  12  26  46  68  99 142 182 228 290 341 416
#     4  12  24  41  71  98 137 178 228 288 349 399
#     4  12  22  44  62  96 142 168 220 290 348 384
#
# _framework density 23.738897000000001
#
# number of rings (size 3 to 8) (size 9 to 14) (size 15 to 20)
#    0.800    0.000    6.667    0.800    3.733    0.000 
#    4.800    1.333    0.000    0.000    0.000    0.000 
#    0.000    0.000    0.000    0.000    0.000    0.000 
#
# Total GULP energy -167501.701647 kJ/mol
# GULP energy per Si atom -5583.390055 kJ/mol
# Density = 2.368487 g / cm^3
# Si number density = 23.738897 Si / 1000 Ang^3
#
#
#
# Elastic Constant Matrix: (Units=GPa)
#
#
# Indices 1 2 3 4 5 6 
#
# 1 127.6469 1.8726 21.8429 0.0006 -0.0006 -0.0006
# 2 1.8726 49.0473 -1.2678 0.0011 -0.0009 -0.0009
# 3 21.8429 -1.2678 89.5846 0.0027 -0.0021 -0.0021
# 4 0.0006 0.0011 0.0027 14.1151 -0.0009 -0.0009
# 5 -0.0006 -0.0009 -0.0021 -0.0009 52.1986 0.0005
# 6 -0.0006 -0.0009 -0.0021 -0.0009 0.0005 18.8133
#
#
#
# Elastic Compliance Matrix: (Units=1/GPa)
#
#
# Indices 1 2 3 4 5 6 
#
# 1 0.008182 -0.000364 -0.002000 0.000000 0.000000 0.000000
# 2 -0.000364 0.020412 0.000378 -0.000002 0.000000 0.000001
# 3 -0.002000 0.000378 0.011656 -0.000002 0.000000 0.000001
# 4 0.000000 -0.000002 -0.000002 0.070846 0.000001 0.000003
# 5 0.000000 0.000000 0.000000 0.000001 0.019158 -0.000001
# 6 0.000000 0.000001 0.000001 0.000003 -0.000001 0.053154
#
#
# Mechanical properties :
#
#
# Convention : Reuss Voigt Hill
#
# Bulk Modulus (GPa) = 27.56602 34.57490 31.07046
# Shear Modulus (GPa) = 25.06611 33.28080 29.17346
#
# Velocity S-wave (km/s) = 3.25300 3.74833 3.50941
# Velocity P-wave (km/s) = 5.07412 5.77318 5.43490
#
# Compressibility (1/GPa) = 0.03627654
#
# Stress axis : x y z
#
# Youngs Moduli (GPa) = 122.22395 48.99040 85.79542
#
# Poissons Ratio (x) = 0.01784 0.17160
# Poissons Ratio (y) = 0.04450 -0.03240
# Poissons Ratio (z) = 0.24445 -0.01850
#
# Static dielectric constant tensor:
#      x y z
#    x 1.971720 0.000000 0.000000 
#    y 0.000000 1.926230 0.000000 
#    z 0.000000 0.000000 1.909170 
# 
# From -- ./inp_files/3881.got.cif
#   From: 2010.05.17/outbox.cif.g08.bks.cpg/sg43_2_cif.got.tgz:3881.got - 2010.06.03 19:21:55.
