data_PCOD9371606
_publ_section_title
;
Structure prediction by ZEFSAII (Michael W. Deem and Ramdas Pophale) SiO2 
 PCOD9371606
Probable space group: F D D 2
;
_chemical_formula_sum "Si O2"
_cell_formula_units_Z 104
_cell_length_a 7.928378
_cell_length_b 21.125110
_cell_length_c 27.836677
_cell_angle_alpha 90.000000
_cell_angle_beta 90.000000
_cell_angle_gamma 90.000000
_cell_volume 4662.305387
_symmetry_space_group_name_H-M "F D D 2"
_symmetry_group_IT_number 43
_symmetry_cell_setting 'orthorhombic'
loop_
_space_group_symop_operation_xyz
x,y,z
-x,-y,z
1/4-x,1/4+y,1/4+z
1/4+x,1/4-y,1/4+z
x,1/2+y,1/2+z
-x,1/2-y,1/2+z
1/4-x,3/4+y,3/4+z
1/4+x,3/4-y,3/4+z
1/2+x,y,1/2+z
1/2-x,-y,1/2+z
3/4-x,1/4+y,3/4+z
3/4+x,1/4-y,3/4+z
1/2+x,1/2+y,z
1/2-x,1/2-y,z
3/4-x,3/4+y,1/4+z
3/4+x,3/4-y,1/4+z
loop_
_atom_site_type_symbol
_atom_site_label
_atom_site_fract_x
_atom_site_fract_y
_atom_site_fract_z
Si Si1 0.841968 0.958181 0.773000
Si Si2 0.730026 0.323329 0.813961
Si Si3 0.734471 0.135879 0.120692
Si Si4 0.943628 0.570384 0.975529
Si Si5 0.000000 0.500000 0.795797
Si Si6 0.651410 0.371990 0.610069
Si Si7 0.796464 0.677674 0.210275
O O1 0.792648 0.887371 0.753895
O O2 0.673235 0.998426 0.767009
O O3 0.882875 0.942588 0.828974
O O4 0.000000 0.000000 0.753840
O O5 0.750000 0.250000 0.805513
O O6 0.539445 0.338916 0.830020
O O7 0.771744 0.350150 0.760556
O O8 0.864591 0.341300 0.854253
O O9 0.769316 0.166114 0.172747
O O10 0.741765 0.190341 0.080939
O O11 0.544096 0.106581 0.118058
O O12 0.745437 0.567256 0.967819
O O13 0.000000 0.500000 0.993693
O O14 0.731650 0.361648 0.662276
O O15 0.750000 0.750000 0.200892
#
# Coordination Sequence:
#
# PCOD9371606 Si02
#       7
#    16  16  16  16   8  16  16
#     4  11  23  44  71 104 144 181 235 300 356 420
#     4  11  24  45  65 101 144 181 231 295 359 423
#     4  10  23  45  70  96 137 185 244 288 342 434
#     4  11  24  45  70 108 143 187 240 298 355 431
#     4  10  22  42  74  96 128 192 240 288 348 420
#     4  10  22  44  69 101 133 187 232 294 353 415
#     4  10  23  42  71 101 129 184 240 291 355 430
#
# _framework density 22.306562
#
# number of rings (size 3 to 8) (size 9 to 14) (size 15 to 20)
#    0.000    1.538    2.308    1.385    2.154    5.538 
#    6.923    0.000    0.000    0.000    0.000    0.000 
#    0.000    0.000    0.000    0.000    0.000    0.000 
#
# Total GULP energy -144916.813458 kJ/mol
# GULP energy per Si atom -5573.723595 kJ/mol
# Density = 2.225579 g / cm^3
# Si number density = 22.306562 Si / 1000 Ang^3
#
#
#
# Elastic Constant Matrix: (Units=GPa)
#
#
# Indices 1 2 3 4 5 6 
#
# 1 97.9358 44.9879 41.4673 0.0000 0.0000 0.0000
# 2 44.9879 90.4393 39.9738 0.0000 0.0000 0.0000
# 3 41.4673 39.9738 84.6047 0.0000 0.0000 0.0000
# 4 0.0000 0.0000 0.0000 21.9553 0.0000 0.0000
# 5 0.0000 0.0000 0.0000 0.0000 21.6505 0.0000
# 6 0.0000 0.0000 0.0000 0.0000 0.0000 3.2268
#
#
#
# Elastic Compliance Matrix: (Units=1/GPa)
#
#
# Indices 1 2 3 4 5 6 
#
# 1 0.014578 -0.005174 -0.004700 0.000000 0.000000 0.000000
# 2 -0.005174 0.015812 -0.004935 0.000000 0.000000 0.000000
# 3 -0.004700 -0.004935 0.016455 0.000000 0.000000 0.000000
# 4 0.000000 0.000000 0.000000 0.045547 0.000000 0.000000
# 5 0.000000 0.000000 0.000000 0.000000 0.046188 0.000000
# 6 0.000000 0.000000 0.000000 0.000000 0.000000 0.309900
#
#
# Mechanical properties :
#
#
# Convention : Reuss Voigt Hill
#
# Bulk Modulus (GPa) = 58.05062 58.42641 58.23852
# Shear Modulus (GPa) = 10.33398 19.13660 14.73529
#
# Velocity S-wave (km/s) = 2.15471 2.93216 2.57297
# Velocity P-wave (km/s) = 5.68075 6.14107 5.91539
#
# Compressibility (1/GPa) = 0.01722634
#
# Stress axis : x y z
#
# Youngs Moduli (GPa) = 68.59801 63.24287 60.77132
#
# Poissons Ratio (x) = 0.32721 0.28565
# Poissons Ratio (y) = 0.35492 0.29990
# Poissons Ratio (z) = 0.32244 0.31210
#
# Static dielectric constant tensor:
#      x y z
#    x 1.848470 0.000000 0.000000 
#    y 0.000000 1.951370 0.000000 
#    z 0.000000 0.000000 1.909740 
# 
# From -- ./inp_files/24334.got.cif
#   From: 2010.05.17/outbox.cif.g08.bks.cpg/sg43_13_cif.got.tgz:24334.got - 2010.06.03 19:21:55.
