data_PCOD9371940
_publ_section_title
;
Structure prediction by ZEFSAII (Michael W. Deem and Ramdas Pophale) SiO2 
 PCOD9371940
Probable space group: F D D 2
;
_chemical_formula_sum "Si O2"
_cell_formula_units_Z 120
_cell_length_a 9.544326
_cell_length_b 25.148765
_cell_length_c 22.414319
_cell_angle_alpha 90.000000
_cell_angle_beta 90.000000
_cell_angle_gamma 90.000000
_cell_volume 5380.064422
_symmetry_space_group_name_H-M "F D D 2"
_symmetry_group_IT_number 43
_symmetry_cell_setting 'orthorhombic'
loop_
_space_group_symop_operation_xyz
x,y,z
-x,-y,z
1/4-x,1/4+y,1/4+z
1/4+x,1/4-y,1/4+z
x,1/2+y,1/2+z
-x,1/2-y,1/2+z
1/4-x,3/4+y,3/4+z
1/4+x,3/4-y,3/4+z
1/2+x,y,1/2+z
1/2-x,-y,1/2+z
3/4-x,1/4+y,3/4+z
3/4+x,1/4-y,3/4+z
1/2+x,1/2+y,z
1/2-x,1/2-y,z
3/4-x,3/4+y,1/4+z
3/4+x,3/4-y,1/4+z
loop_
_atom_site_type_symbol
_atom_site_label
_atom_site_fract_x
_atom_site_fract_y
_atom_site_fract_z
Si Si1 0.095789 0.448216 0.040890
Si Si2 0.750000 0.250000 0.996599
Si Si3 0.475804 0.227905 0.074769
Si Si4 0.620604 0.344647 0.473782
Si Si5 0.863656 0.324972 0.894779
Si Si6 0.397745 0.768414 0.768464
Si Si7 0.394251 0.128637 0.149171
Si Si8 0.330063 0.078555 0.404144
O O1 0.249079 0.469059 0.024078
O O2 0.098947 0.421837 0.105565
O O3 0.000000 0.500000 0.037408
O O4 0.052901 0.398733 0.999775
O O5 0.775605 0.298070 0.949249
O O6 0.616910 0.246517 0.040756
O O7 0.483161 0.177956 0.120985
O O8 0.418162 0.277328 0.111555
O O9 0.384217 0.201874 0.022155
O O10 0.522959 0.329522 0.418192
O O11 0.778326 0.359470 0.458072
O O12 0.869574 0.292107 0.833733
O O13 0.786715 0.380254 0.882306
O O14 0.250000 0.750000 0.742222
O O15 0.457377 0.810225 0.721215
O O16 0.234131 0.145879 0.154854
#
# Coordination Sequence:
#
# PCOD9371940 Si02
#       8
#    16   8  16  16  16  16  16  16
#     4  11  23  43  68  98 134 181 230 281 347 416
#     4  10  24  48  70 108 140 194 244 302 366 426
#     4  10  24  45  74 103 147 184 239 301 361 436
#     4  10  23  45  72 100 143 185 238 293 353 428
#     4  11  25  44  70 104 140 184 247 298 356 432
#     4  12  24  44  68  97 141 187 231 297 347 423
#     4  11  24  45  67 106 139 184 234 290 356 431
#     4  12  26  44  70 107 141 188 239 292 367 421
#
# _framework density 22.304565
#
# number of rings (size 3 to 8) (size 9 to 14) (size 15 to 20)
#    0.000    1.067    0.667    5.200    3.733    2.133 
#    3.600    1.333    0.000    0.000    0.000    0.000 
#    0.000    0.000    0.000    0.000    0.000    0.000 
#
# Total GULP energy -167772.346608 kJ/mol
# GULP energy per Si atom -5592.411554 kJ/mol
# Density = 2.225380 g / cm^3
# Si number density = 22.304565 Si / 1000 Ang^3
#
#
#
# Elastic Constant Matrix: (Units=GPa)
#
#
# Indices 1 2 3 4 5 6 
#
# 1 75.0676 26.3391 30.3552 0.0000 0.0000 0.0000
# 2 26.3391 55.7841 15.1818 0.0000 0.0000 0.0000
# 3 30.3552 15.1818 85.2777 0.0000 0.0000 0.0000
# 4 0.0000 0.0000 0.0000 23.2394 0.0000 0.0000
# 5 0.0000 0.0000 0.0000 0.0000 22.2488 0.0000
# 6 0.0000 0.0000 0.0000 0.0000 0.0000 51.4265
#
#
#
# Elastic Compliance Matrix: (Units=1/GPa)
#
#
# Indices 1 2 3 4 5 6 
#
# 1 0.017855 -0.007042 -0.005102 0.000000 0.000000 0.000000
# 2 -0.007042 0.021616 -0.001342 0.000000 0.000000 0.000000
# 3 -0.005102 -0.001342 0.013781 0.000000 0.000000 0.000000
# 4 0.000000 0.000000 0.000000 0.043030 0.000000 0.000000
# 5 0.000000 0.000000 0.000000 0.000000 0.044946 0.000000
# 6 0.000000 0.000000 0.000000 0.000000 0.000000 0.019445
#
#
# Mechanical properties :
#
#
# Convention : Reuss Voigt Hill
#
# Bulk Modulus (GPa) = 38.04950 39.98685 39.01818
# Shear Modulus (GPa) = 25.45735 28.99982 27.22858
#
# Velocity S-wave (km/s) = 3.38205 3.60970 3.49773
# Velocity P-wave (km/s) = 5.68746 5.94473 5.81752
#
# Compressibility (1/GPa) = 0.02628155
#
# Stress axis : x y z
#
# Youngs Moduli (GPa) = 56.00576 46.26117 72.56186
#
# Poissons Ratio (x) = 0.32577 0.37021
# Poissons Ratio (y) = 0.39440 0.09735
# Poissons Ratio (z) = 0.28574 0.06207
#
# Static dielectric constant tensor:
#      x y z
#    x 1.842850 0.000000 0.000000 
#    y 0.000000 1.790390 0.000000 
#    z 0.000000 0.000000 1.805830 
# 
# From -- ./inp_files/20450.got.cif
#   From: 2010.05.17/outbox.cif.g08.bks.cpg/sg43_11_cif.got.tgz:20450.got - 2010.06.03 19:21:55.
