data_PCOD9371102
_publ_section_title
;
Structure prediction by ZEFSAII (Michael W. Deem and Ramdas Pophale) SiO2 
 PCOD9371102
Probable space group: F D D 2
;
_chemical_formula_sum "Si O2"
_cell_formula_units_Z 64
_cell_length_a 7.664123
_cell_length_b 13.972888
_cell_length_c 27.094546
_cell_angle_alpha 90.000000
_cell_angle_beta 90.000000
_cell_angle_gamma 90.000000
_cell_volume 2901.553097
_symmetry_space_group_name_H-M "F D D 2"
_symmetry_group_IT_number 43
_symmetry_cell_setting 'orthorhombic'
loop_
_space_group_symop_operation_xyz
x,y,z
-x,-y,z
1/4-x,1/4+y,1/4+z
1/4+x,1/4-y,1/4+z
x,1/2+y,1/2+z
-x,1/2-y,1/2+z
1/4-x,3/4+y,3/4+z
1/4+x,3/4-y,3/4+z
1/2+x,y,1/2+z
1/2-x,-y,1/2+z
3/4-x,1/4+y,3/4+z
3/4+x,1/4-y,3/4+z
1/2+x,1/2+y,z
1/2-x,1/2-y,z
3/4-x,3/4+y,1/4+z
3/4+x,3/4-y,1/4+z
loop_
_atom_site_type_symbol
_atom_site_label
_atom_site_fract_x
_atom_site_fract_y
_atom_site_fract_z
Si Si1 0.104607 0.831385 0.622360
Si Si2 0.187406 0.553321 0.694756
Si Si3 0.444328 0.641517 0.513166
Si Si4 0.751397 0.488825 0.969681
O O1 0.250000 0.750000 0.611713
O O2 0.201160 0.924010 0.645674
O O3 0.013682 0.849986 0.570640
O O4 0.985679 0.786904 0.665584
O O5 0.293833 0.490501 0.733867
O O6 0.000000 0.500000 0.685506
O O7 0.152154 0.660614 0.715656
O O8 0.269521 0.578492 0.506586
O O9 0.591872 0.579930 0.485887
#
# Coordination Sequence:
#
# PCOD9371102 Si02
#       4
#    16  16  16  16
#     4  10  22  40  64  93 129 165 216 268 327 393
#     4   9  20  42  62  88 131 170 214 272 325 387
#     4  10  21  39  64  90 127 171 213 261 336 382
#     4   9  21  41  57  93 131 159 216 268 310 400
#
# _framework density 22.057151999999999
#
# number of rings (size 3 to 8) (size 9 to 14) (size 15 to 20)
#    0.000    2.500    0.000    0.000    3.500    4.000 
#   27.000    0.000    0.000    0.000    0.000    0.000 
#    0.000    0.000    0.000    0.000    0.000    0.000 
#
# Total GULP energy -89158.058170 kJ/mol
# GULP energy per Si atom -5572.378636 kJ/mol
# Density = 2.200695 g / cm^3
# Si number density = 22.057152 Si / 1000 Ang^3
#
#
#
# Elastic Constant Matrix: (Units=GPa)
#
#
# Indices 1 2 3 4 5 6 
#
# 1 59.7249 20.5692 37.0040 0.0000 0.0000 0.0000
# 2 20.5692 145.1722 59.4961 0.0000 0.0000 0.0000
# 3 37.0040 59.4961 146.7111 0.0000 0.0000 0.0000
# 4 0.0000 0.0000 0.0000 67.7283 0.0000 0.0000
# 5 0.0000 0.0000 0.0000 0.0000-1501.7002 0.0000
# 6 0.0000 0.0000 0.0000 0.0000 0.0000 40.9916
#
#
#
# Elastic Compliance Matrix: (Units=1/GPa)
#
#
# Indices 1 2 3 4 5 6 
#
# 1 0.019946 -0.000917 -0.004659 0.000000 0.000000 0.000000
# 2 -0.000917 0.008304 -0.003136 0.000000 0.000000 0.000000
# 3 -0.004659 -0.003136 0.009263 0.000000 0.000000 0.000000
# 4 0.000000 0.000000 0.000000 0.014765 0.000000 0.000000
# 5 0.000000 0.000000 0.000000 0.000000 -0.000666 0.000000
# 6 0.000000 0.000000 0.000000 0.000000 0.000000 0.024395
#
#
# Mechanical properties :
#
#
# Convention : Reuss Voigt Hill
#
# Bulk Modulus (GPa) = 49.77940 65.08297 57.43118
# Shear Modulus (GPa) = 49.93683 -262.96011 -106.51164
#
# Velocity S-wave (km/s) = 4.76329 -10.93053 -6.95656
# Velocity P-wave (km/s) = 7.27112 11.38997 6.19928
#
# Compressibility (1/GPa) = 0.02008863
#
# Stress axis : x y z
#
# Youngs Moduli (GPa) = 50.13592 120.43054 107.95574
#
# Poissons Ratio (x) = 0.11039 0.50297
# Poissons Ratio (y) = 0.04596 0.33857
# Poissons Ratio (z) = 0.23359 0.37769
#
# Static dielectric constant tensor:
#      x y z
#    x 4.343410 0.000000 0.000000 
#    y 0.000000 1.876610 0.000000 
#    z 0.000000 0.000000 1.752310 
# 
# From -- ./inp_files/13115.got.cif
#   From: 2010.05.17/outbox.cif.g08.bks.cpg/sg43_7_cif.got.tgz:13115.got - 2010.06.03 19:21:55.
