data_PCOD9371987
_publ_section_title
;
Structure prediction by ZEFSAII (Michael W. Deem and Ramdas Pophale) SiO2 
 PCOD9371987
Probable space group: F D D 2
;
_chemical_formula_sum "Si O2"
_cell_formula_units_Z 64
_cell_length_a 6.638569
_cell_length_b 16.822964
_cell_length_c 23.700313
_cell_angle_alpha 90.000000
_cell_angle_beta 90.000000
_cell_angle_gamma 90.000000
_cell_volume 2646.860609
_symmetry_space_group_name_H-M "F D D 2"
_symmetry_group_IT_number 43
_symmetry_cell_setting 'orthorhombic'
loop_
_space_group_symop_operation_xyz
x,y,z
-x,-y,z
1/4-x,1/4+y,1/4+z
1/4+x,1/4-y,1/4+z
x,1/2+y,1/2+z
-x,1/2-y,1/2+z
1/4-x,3/4+y,3/4+z
1/4+x,3/4-y,3/4+z
1/2+x,y,1/2+z
1/2-x,-y,1/2+z
3/4-x,1/4+y,3/4+z
3/4+x,1/4-y,3/4+z
1/2+x,1/2+y,z
1/2-x,1/2-y,z
3/4-x,3/4+y,1/4+z
3/4+x,3/4-y,1/4+z
loop_
_atom_site_type_symbol
_atom_site_label
_atom_site_fract_x
_atom_site_fract_y
_atom_site_fract_z
Si Si1 0.514773 0.239276 0.284050
Si Si2 0.302409 0.905207 0.929579
Si Si3 0.250000 0.250000 0.383604
Si Si4 0.750000 0.750000 0.580084
Si Si5 0.887744 0.674292 0.007141
O O1 0.750000 0.250000 0.289075
O O2 0.461330 0.286462 0.226854
O O3 0.417044 0.276687 0.338985
O O4 0.493713 0.143991 0.283558
O O5 0.176878 0.825074 0.919054
O O6 0.356423 0.950753 0.872682
O O7 0.513463 0.869780 0.953528
O O8 0.587827 0.699941 0.542935
O O9 0.750000 0.750000 0.995539
#
# Coordination Sequence:
#
# PCOD9371987 Si02
#       5
#    16  16   8   8  16
#     4  10  23  48  65  99 146 178 227 292 334 405
#     4  11  23  45  70  99 145 179 219 296 339 392
#     4  12  25  42  74 104 132 192 235 268 354 416
#     4  12  23  46  72  96 142 186 225 288 348 402
#     4  11  24  43  71 104 137 183 235 278 343 420
#
# _framework density 24.179587000000001
#
# number of rings (size 3 to 8) (size 9 to 14) (size 15 to 20)
#    0.000    1.000    3.750    5.250    0.000    5.000 
#    6.750    2.500    0.000    0.000    0.000    0.000 
#    0.000    0.000    0.000    0.000    0.000    0.000 
#
# Total GULP energy -89376.900470 kJ/mol
# GULP energy per Si atom -5586.056279 kJ/mol
# Density = 2.412455 g / cm^3
# Si number density = 24.179587 Si / 1000 Ang^3
#
#
#
# Elastic Constant Matrix: (Units=GPa)
#
#
# Indices 1 2 3 4 5 6 
#
# 1 61.9033 20.4881 27.0968 0.0000 0.0000 0.0000
# 2 20.4881 150.1632 41.2238 0.0000 0.0000 0.0000
# 3 27.0968 41.2238 96.6911 0.0000 0.0000 0.0000
# 4 0.0000 0.0000 0.0000 43.2279 0.0000 0.0000
# 5 0.0000 0.0000 0.0000 0.0000 19.4236 0.0000
# 6 0.0000 0.0000 0.0000 0.0000 0.0000 42.4753
#
#
#
# Elastic Compliance Matrix: (Units=1/GPa)
#
#
# Indices 1 2 3 4 5 6 
#
# 1 0.018619 -0.001255 -0.004683 0.000000 0.000000 0.000000
# 2 -0.001255 0.007627 -0.002900 0.000000 0.000000 0.000000
# 3 -0.004683 -0.002900 0.012891 0.000000 0.000000 0.000000
# 4 0.000000 0.000000 0.000000 0.023133 0.000000 0.000000
# 5 0.000000 0.000000 0.000000 0.000000 0.051484 0.000000
# 6 0.000000 0.000000 0.000000 0.000000 0.000000 0.023543
#
#
# Mechanical properties :
#
#
# Convention : Reuss Voigt Hill
#
# Bulk Modulus (GPa) = 46.59479 54.04169 50.31824
# Shear Modulus (GPa) = 30.84009 35.68860 33.26434
#
# Velocity S-wave (km/s) = 3.57523 3.84602 3.71309
# Velocity P-wave (km/s) = 6.02953 6.49008 6.26404
#
# Compressibility (1/GPa) = 0.02146163
#
# Stress axis : x y z
#
# Youngs Moduli (GPa) = 53.70748 131.11742 77.57372
#
# Poissons Ratio (x) = 0.16453 0.36327
# Poissons Ratio (y) = 0.06739 0.22496
# Poissons Ratio (z) = 0.25151 0.38024
#
# Static dielectric constant tensor:
#      x y z
#    x 1.988930 0.000000 0.000000 
#    y 0.000000 2.056010 0.000000 
#    z 0.000000 0.000000 1.932400 
# 
# From -- ./inp_files/16150.got.cif
#   From: 2010.05.17/outbox.cif.g08.bks.cpg/sg43_9_cif.got.tgz:16150.got - 2010.06.03 19:21:55.
