data_PCOD9371089
_publ_section_title
;
Structure prediction by ZEFSAII (Michael W. Deem and Ramdas Pophale) SiO2 
 PCOD9371089
Probable space group: F D D 2
;
_chemical_formula_sum "Si O2"
_cell_formula_units_Z 64
_cell_length_a 14.114736
_cell_length_b 6.870075
_cell_length_c 32.661587
_cell_angle_alpha 90.000000
_cell_angle_beta 90.000000
_cell_angle_gamma 90.000000
_cell_volume 3167.171063
_symmetry_space_group_name_H-M "F D D 2"
_symmetry_group_IT_number 43
_symmetry_cell_setting 'orthorhombic'
loop_
_space_group_symop_operation_xyz
x,y,z
-x,-y,z
1/4-x,1/4+y,1/4+z
1/4+x,1/4-y,1/4+z
x,1/2+y,1/2+z
-x,1/2-y,1/2+z
1/4-x,3/4+y,3/4+z
1/4+x,3/4-y,3/4+z
1/2+x,y,1/2+z
1/2-x,-y,1/2+z
3/4-x,1/4+y,3/4+z
3/4+x,1/4-y,3/4+z
1/2+x,1/2+y,z
1/2-x,1/2-y,z
3/4-x,3/4+y,1/4+z
3/4+x,3/4-y,1/4+z
loop_
_atom_site_type_symbol
_atom_site_label
_atom_site_fract_x
_atom_site_fract_y
_atom_site_fract_z
Si Si1 0.500000 0.000000 0.195550
Si Si2 0.978582 0.775109 0.489864
Si Si3 0.448268 0.699554 0.402027
Si Si4 0.092678 0.769448 0.764827
Si Si5 0.000000 0.500000 0.336866
O O1 0.592112 0.067182 0.170262
O O2 0.472845 0.174659 0.226466
O O3 0.882206 0.697823 0.509921
O O4 0.985947 0.737838 0.440962
O O5 0.065171 0.655463 0.508668
O O6 0.000000 0.000000 0.496128
O O7 0.500000 0.500000 0.387733
O O8 0.441213 0.863473 0.367510
O O9 0.049162 0.844068 0.806872
#
# Coordination Sequence:
#
# PCOD9371089 Si02
#       5
#     8  16  16  16   8
#     4   9  18  40  64  84 116 166 216 256 310 384
#     4   9  18  38  64  87 115 160 215 261 303 375
#     4  10  21  39  60  88 123 160 208 264 314 380
#     4   9  19  36  61  86 119 162 204 256 316 372
#     4  11  22  38  54  88 134 160 192 264 328 374
#
# _framework density 20.207307
#
# number of rings (size 3 to 8) (size 9 to 14) (size 15 to 20)
#    0.000    2.500    0.000    3.000    0.000    2.000 
#   11.250   26.250    2.750    0.000    0.000    0.000 
#    0.000    0.000    0.000    0.000    0.000    0.000 
#
# Total GULP energy -89174.412734 kJ/mol
# GULP energy per Si atom -5573.400796 kJ/mol
# Density = 2.016131 g / cm^3
# Si number density = 20.207307 Si / 1000 Ang^3
#
#
#
# Elastic Constant Matrix: (Units=GPa)
#
#
# Indices 1 2 3 4 5 6 
#
# 1 88.7817 43.4698 61.1635 0.0000 0.0000 0.0000
# 2 43.4698 122.0508 49.0739 0.0000 0.0000 0.0000
# 3 61.1635 49.0739 90.4386 0.0000 0.0000 0.0000
# 4 0.0000 0.0000 0.0000 20.8789 0.0000 0.0000
# 5 0.0000 0.0000 0.0000 0.0000 -8.2302 0.0000
# 6 0.0000 0.0000 0.0000 0.0000 0.0000 34.6113
#
#
#
# Elastic Compliance Matrix: (Units=1/GPa)
#
#
# Indices 1 2 3 4 5 6 
#
# 1 0.021594 -0.002327 -0.013341 0.000000 0.000000 0.000000
# 2 -0.002327 0.010730 -0.004249 0.000000 0.000000 0.000000
# 3 -0.013341 -0.004249 0.022386 0.000000 0.000000 0.000000
# 4 0.000000 0.000000 0.000000 0.047895 0.000000 0.000000
# 5 0.000000 0.000000 0.000000 0.000000 -0.121504 0.000000
# 6 0.000000 0.000000 0.000000 0.000000 0.000000 0.028892
#
#
# Mechanical properties :
#
#
# Convention : Reuss Voigt Hill
#
# Bulk Modulus (GPa) = 67.22362 67.63171 67.42766
# Shear Modulus (GPa) = 91.26316 19.28959 55.27637
#
# Velocity S-wave (km/s) = 6.72767 3.09299 5.23584
# Velocity P-wave (km/s) = 9.67925 6.80419 8.36615
#
# Compressibility (1/GPa) = 0.01487572
#
# Stress axis : x y z
#
# Youngs Moduli (GPa) = 46.30917 93.19302 44.67141
#
# Poissons Ratio (x) = 0.21683 0.59598
# Poissons Ratio (y) = 0.10774 0.18981
# Poissons Ratio (z) = 0.61783 0.39598
#
# Static dielectric constant tensor:
#      x y z
#    x 1.754080 0.000000 0.000000 
#    y 0.000000 1.761700 0.000000 
#    z 0.000000 0.000000 1.714230 
# 
# From -- ./inp_files/25456.got.cif
#   From: 2010.05.17/outbox.cif.g08.bks.cpg/sg43_13_cif.got.tgz:25456.got - 2010.06.03 19:21:55.
