data_PCOD9371142
_publ_section_title
;
Structure prediction by ZEFSAII (Michael W. Deem and Ramdas Pophale) SiO2 
 PCOD9371142
Probable space group: F D D 2
;
_chemical_formula_sum "Si O2"
_cell_formula_units_Z 64
_cell_length_a 16.812616
_cell_length_b 15.956602
_cell_length_c 9.157556
_cell_angle_alpha 90.000000
_cell_angle_beta 90.000000
_cell_angle_gamma 90.000000
_cell_volume 2456.717897
_symmetry_space_group_name_H-M "F D D 2"
_symmetry_group_IT_number 43
_symmetry_cell_setting 'orthorhombic'
loop_
_space_group_symop_operation_xyz
x,y,z
-x,-y,z
1/4-x,1/4+y,1/4+z
1/4+x,1/4-y,1/4+z
x,1/2+y,1/2+z
-x,1/2-y,1/2+z
1/4-x,3/4+y,3/4+z
1/4+x,3/4-y,3/4+z
1/2+x,y,1/2+z
1/2-x,-y,1/2+z
3/4-x,1/4+y,3/4+z
3/4+x,1/4-y,3/4+z
1/2+x,1/2+y,z
1/2-x,1/2-y,z
3/4-x,3/4+y,1/4+z
3/4+x,3/4-y,1/4+z
loop_
_atom_site_type_symbol
_atom_site_label
_atom_site_fract_x
_atom_site_fract_y
_atom_site_fract_z
Si Si1 0.669387 0.559467 0.573070
Si Si2 0.234357 0.342037 0.946776
Si Si3 0.402696 0.873868 0.466100
Si Si4 0.313476 0.173776 0.545048
O O1 0.600580 0.619701 0.638727
O O2 0.663275 0.472883 0.664121
O O3 0.637084 0.558319 0.404891
O O4 0.756344 0.597044 0.593827
O O5 0.250000 0.250000 0.879614
O O6 0.218271 0.331634 0.118258
O O7 0.311755 0.396489 0.923389
O O8 0.409613 0.896895 0.634001
O O9 0.250000 0.250000 0.536348
#
# Coordination Sequence:
#
# PCOD9371142 Si02
#       4
#    16  16  16  16
#     4  11  25  45  70 103 145 191 242 302 367 438
#     4  10  21  40  63  94 133 179 233 293 351 424
#     4  11  24  42  68 100 137 186 238 294 364 433
#     4  12  26  47  73 107 147 192 245 307 366 439
#
# _framework density 26.051017000000002
#
# number of rings (size 3 to 8) (size 9 to 14) (size 15 to 20)
#    0.000    1.000    0.000    7.500    0.000   12.000 
#    0.000    0.000    0.000    0.000    0.000    0.000 
#    0.000    0.000    0.000    0.000    0.000    0.000 
#
# Total GULP energy -89418.799317 kJ/mol
# GULP energy per Si atom -5588.674957 kJ/mol
# Density = 2.599172 g / cm^3
# Si number density = 26.051017 Si / 1000 Ang^3
#
#
#
# Elastic Constant Matrix: (Units=GPa)
#
#
# Indices 1 2 3 4 5 6 
#
# 1 55.4073 14.2909 6.0328 0.0000 0.0000 0.0000
# 2 14.2909 97.1249 44.2006 0.0000 0.0000 0.0000
# 3 6.0328 44.2006 166.6880 0.0000 0.0000 0.0000
# 4 0.0000 0.0000 0.0000 34.3584 0.0000 0.0000
# 5 0.0000 0.0000 0.0000 0.0000 47.4907 0.0000
# 6 0.0000 0.0000 0.0000 0.0000 0.0000 24.8986
#
#
#
# Elastic Compliance Matrix: (Units=1/GPa)
#
#
# Indices 1 2 3 4 5 6 
#
# 1 0.018761 -0.002788 0.000060 0.000000 0.000000 0.000000
# 2 -0.002788 0.012123 -0.003114 0.000000 0.000000 0.000000
# 3 0.000060 -0.003114 0.006823 0.000000 0.000000 0.000000
# 4 0.000000 0.000000 0.000000 0.029105 0.000000 0.000000
# 5 0.000000 0.000000 0.000000 0.000000 0.021057 0.000000
# 6 0.000000 0.000000 0.000000 0.000000 0.000000 0.040163
#
#
# Mechanical properties :
#
#
# Convention : Reuss Voigt Hill
#
# Bulk Modulus (GPa) = 38.42626 49.80763 44.11694
# Shear Modulus (GPa) = 33.69529 38.32929 36.01229
#
# Velocity S-wave (km/s) = 3.60034 3.83994 3.72206
# Velocity P-wave (km/s) = 5.66265 6.23064 5.95343
#
# Compressibility (1/GPa) = 0.02602387
#
# Stress axis : x y z
#
# Youngs Moduli (GPa) = 53.30302 82.48585 146.56860
#
# Poissons Ratio (x) = 0.22996 -0.00883
# Poissons Ratio (y) = 0.14860 0.45639
# Poissons Ratio (z) = -0.00321 0.25685
#
# Static dielectric constant tensor:
#      x y z
#    x 2.015850 0.000000 0.000000 
#    y 0.000000 2.156870 0.000000 
#    z 0.000000 0.000000 2.148400 
# 
# From -- ./inp_files/2625.got.cif
#   From: 2010.05.17/outbox.cif.g08.bks.cpg/sg43_2_cif.got.tgz:2625.got - 2010.06.03 19:21:55.
