data_PCOD9371355
_publ_section_title
;
Structure prediction by ZEFSAII (Michael W. Deem and Ramdas Pophale) SiO2 
 PCOD9371355
Probable space group: F D D 2
;
_chemical_formula_sum "Si O2"
_cell_formula_units_Z 120
_cell_length_a 27.586049
_cell_length_b 16.230074
_cell_length_c 11.529499
_cell_angle_alpha 90.000000
_cell_angle_beta 90.000000
_cell_angle_gamma 90.000000
_cell_volume 5162.028990
_symmetry_space_group_name_H-M "F D D 2"
_symmetry_group_IT_number 43
_symmetry_cell_setting 'orthorhombic'
loop_
_space_group_symop_operation_xyz
x,y,z
-x,-y,z
1/4-x,1/4+y,1/4+z
1/4+x,1/4-y,1/4+z
x,1/2+y,1/2+z
-x,1/2-y,1/2+z
1/4-x,3/4+y,3/4+z
1/4+x,3/4-y,3/4+z
1/2+x,y,1/2+z
1/2-x,-y,1/2+z
3/4-x,1/4+y,3/4+z
3/4+x,1/4-y,3/4+z
1/2+x,1/2+y,z
1/2-x,1/2-y,z
3/4-x,3/4+y,1/4+z
3/4+x,3/4-y,1/4+z
loop_
_atom_site_type_symbol
_atom_site_label
_atom_site_fract_x
_atom_site_fract_y
_atom_site_fract_z
Si Si1 0.334361 0.870315 0.475110
Si Si2 0.186398 0.960553 0.680871
Si Si3 0.500000 0.000000 0.842953
Si Si4 0.601871 0.525339 0.258304
Si Si5 0.684004 0.490255 0.407167
Si Si6 0.469539 0.620072 0.973291
Si Si7 0.120641 0.463013 0.519034
Si Si8 0.510312 0.367604 0.538190
O O1 0.382324 0.813555 0.471627
O O2 0.304477 0.882676 0.594875
O O3 0.296487 0.839861 0.379267
O O4 0.355253 0.962049 0.452000
O O5 0.223763 0.885136 0.704925
O O6 0.188695 0.985820 0.544932
O O7 0.210405 0.037424 0.745889
O O8 0.453048 0.999986 0.764744
O O9 0.498123 0.921983 0.927740
O O10 0.627530 0.495768 0.375634
O O11 0.629059 0.479710 0.154530
O O12 0.607815 0.623391 0.240226
O O13 0.704689 0.566929 0.329002
O O14 0.712386 0.412607 0.354411
O O15 0.437684 0.540302 0.005412
#
# Coordination Sequence:
#
# PCOD9371355 Si02
#       8
#    16  16   8  16  16  16  16  16
#     4  12  23  48  74 109 145 196 245 304 376 455
#     4  11  25  45  75 106 147 199 245 308 381 451
#     4  12  28  44  66 110 142 192 246 302 360 450
#     4  11  25  43  74 106 148 188 247 312 373 439
#     4  10  21  47  71  99 147 192 239 304 373 442
#     4  10  23  44  72 106 142 192 249 309 372 445
#     4  11  23  46  72 107 145 189 244 311 369 447
#     4  11  26  46  73 103 146 196 246 299 370 441
#
# _framework density 23.246673000000001
#
# number of rings (size 3 to 8) (size 9 to 14) (size 15 to 20)
#    0.000    1.067    4.000    2.400    5.600    1.600 
#    9.600    0.000    0.000    0.000    0.000    0.000 
#    0.000    0.000    0.000    0.000    0.000    0.000 
#
# Total GULP energy -167503.490040 kJ/mol
# GULP energy per Si atom -5583.449668 kJ/mol
# Density = 2.319376 g / cm^3
# Si number density = 23.246673 Si / 1000 Ang^3
#
#
#
# Elastic Constant Matrix: (Units=GPa)
#
#
# Indices 1 2 3 4 5 6 
#
# 1 81.9699 -7.4979 6.6890 0.0000 0.0000 0.0000
# 2 -7.4979 35.0653 3.3872 0.0000 0.0000 0.0000
# 3 6.6890 3.3872 81.9282 0.0000 0.0000 0.0000
# 4 0.0000 0.0000 0.0000 12.1131 0.0000 0.0000
# 5 0.0000 0.0000 0.0000 0.0000 38.2508 0.0000
# 6 0.0000 0.0000 0.0000 0.0000 0.0000 25.9319
#
#
#
# Elastic Compliance Matrix: (Units=1/GPa)
#
#
# Indices 1 2 3 4 5 6 
#
# 1 0.012548 0.002793 -0.001140 0.000000 0.000000 0.000000
# 2 0.002793 0.029254 -0.001438 0.000000 0.000000 0.000000
# 3 -0.001140 -0.001438 0.012358 0.000000 0.000000 0.000000
# 4 0.000000 0.000000 0.000000 0.082555 0.000000 0.000000
# 5 0.000000 0.000000 0.000000 0.000000 0.026143 0.000000
# 6 0.000000 0.000000 0.000000 0.000000 0.000000 0.038563
#
#
# Mechanical properties :
#
#
# Convention : Reuss Voigt Hill
#
# Bulk Modulus (GPa) = 18.31763 22.68001 20.49882
# Shear Modulus (GPa) = 22.81148 28.35149 25.58149
#
# Velocity S-wave (km/s) = 3.13594 3.49606 3.32088
# Velocity P-wave (km/s) = 4.58355 5.10627 4.85195
#
# Compressibility (1/GPa) = 0.05459223
#
# Stress axis : x y z
#
# Youngs Moduli (GPa) = 79.69322 34.18300 80.91719
#
# Poissons Ratio (x) = -0.09548 0.09224
# Poissons Ratio (y) = -0.22260 0.11632
# Poissons Ratio (z) = 0.09085 0.04914
#
# Static dielectric constant tensor:
#      x y z
#    x 1.881200 0.000000 0.000000 
#    y 0.000000 1.893200 0.000000 
#    z 0.000000 0.000000 1.893710 
# 
# From -- ./inp_files/6815.got.cif
#   From: 2010.05.17/outbox.cif.g08.bks.cpg/sg43_4_cif.got.tgz:6815.got - 2010.06.03 19:21:55.
