data_PCOD9371920
_publ_section_title
;
Structure prediction by ZEFSAII (Michael W. Deem and Ramdas Pophale) SiO2 
 PCOD9371920
Probable space group: F D D 2
;
_chemical_formula_sum "Si O2"
_cell_formula_units_Z 80
_cell_length_a 5.085058
_cell_length_b 27.139727
_cell_length_c 25.729676
_cell_angle_alpha 90.000000
_cell_angle_beta 90.000000
_cell_angle_gamma 90.000000
_cell_volume 3550.877606
_symmetry_space_group_name_H-M "F D D 2"
_symmetry_group_IT_number 43
_symmetry_cell_setting 'orthorhombic'
loop_
_space_group_symop_operation_xyz
x,y,z
-x,-y,z
1/4-x,1/4+y,1/4+z
1/4+x,1/4-y,1/4+z
x,1/2+y,1/2+z
-x,1/2-y,1/2+z
1/4-x,3/4+y,3/4+z
1/4+x,3/4-y,3/4+z
1/2+x,y,1/2+z
1/2-x,-y,1/2+z
3/4-x,1/4+y,3/4+z
3/4+x,1/4-y,3/4+z
1/2+x,1/2+y,z
1/2-x,1/2-y,z
3/4-x,3/4+y,1/4+z
3/4+x,3/4-y,1/4+z
loop_
_atom_site_type_symbol
_atom_site_label
_atom_site_fract_x
_atom_site_fract_y
_atom_site_fract_z
Si Si1 0.496476 0.091538 0.060650
Si Si2 0.510722 0.852867 0.547696
Si Si3 0.691821 0.618857 0.454899
Si Si4 0.737933 0.968372 0.376598
Si Si5 0.983744 0.217642 0.403695
O O1 0.196698 0.106944 0.068681
O O2 0.612308 0.050336 0.098176
O O3 0.694226 0.137733 0.069538
O O4 0.539381 0.086407 0.998763
O O5 0.552640 0.861886 0.486656
O O6 0.430334 0.799860 0.567840
O O7 0.751374 0.581963 0.408939
O O8 0.545984 0.667781 0.435399
O O9 0.500000 0.000000 0.397563
O O10 0.000000 0.000000 0.379249
O O11 0.750000 0.250000 0.428181
O O12 0.250000 0.250000 0.398358
#
# Coordination Sequence:
#
# PCOD9371920 Si02
#       5
#    16  16  16  16  16
#     4  10  23  44  74  92 146 187 230 288 368 412
#     4  10  23  45  71  96 142 187 226 294 360 416
#     4  10  26  47  73 101 147 186 239 299 362 424
#     4  12  27  44  74 104 142 187 243 297 363 431
#     4  12  27  44  74 109 145 189 246 300 363 435
#
# _framework density 22.529643
#
# number of rings (size 3 to 8) (size 9 to 14) (size 15 to 20)
#    1.200    0.000    2.000    2.400    5.600    2.400 
#    0.000    0.000    0.000    0.000    0.000    0.000 
#    0.000    0.000    0.000    0.000    0.000    0.000 
#
# Total GULP energy -111512.940939 kJ/mol
# GULP energy per Si atom -5575.647047 kJ/mol
# Density = 2.247836 g / cm^3
# Si number density = 22.529643 Si / 1000 Ang^3
#
#
#
# Elastic Constant Matrix: (Units=GPa)
#
#
# Indices 1 2 3 4 5 6 
#
# 1 130.1935 39.6504 21.3587 0.0000 0.0000 0.0000
# 2 39.6504 72.1214 9.7784 0.0000 0.0000 0.0000
# 3 21.3587 9.7784 57.3000 0.0000 0.0000 0.0000
# 4 0.0000 0.0000 0.0000 16.9656 0.0000 0.0000
# 5 0.0000 0.0000 0.0000 0.0000 18.6360 0.0000
# 6 0.0000 0.0000 0.0000 0.0000 0.0000 44.8648
#
#
#
# Elastic Compliance Matrix: (Units=1/GPa)
#
#
# Indices 1 2 3 4 5 6 
#
# 1 0.009631 -0.004922 -0.002750 0.000000 0.000000 0.000000
# 2 -0.004922 0.016709 -0.001017 0.000000 0.000000 0.000000
# 3 -0.002750 -0.001017 0.018651 0.000000 0.000000 0.000000
# 4 0.000000 0.000000 0.000000 0.058943 0.000000 0.000000
# 5 0.000000 0.000000 0.000000 0.000000 0.053660 0.000000
# 6 0.000000 0.000000 0.000000 0.000000 0.000000 0.022289
#
#
# Mechanical properties :
#
#
# Convention : Reuss Voigt Hill
#
# Bulk Modulus (GPa) = 36.21444 44.57666 40.39555
# Shear Modulus (GPa) = 24.21721 28.68176 26.44949
#
# Velocity S-wave (km/s) = 3.28213 3.57188 3.43007
# Velocity P-wave (km/s) = 5.52016 6.06958 5.80138
#
# Compressibility (1/GPa) = 0.02761330
#
# Stress axis : x y z
#
# Youngs Moduli (GPa) = 103.83102 59.84666 53.61753
#
# Poissons Ratio (x) = 0.29457 0.14745
# Poissons Ratio (y) = 0.51106 0.05452
# Poissons Ratio (z) = 0.28554 0.06085
#
# Static dielectric constant tensor:
#      x y z
#    x 1.843330 0.000000 0.000000 
#    y 0.000000 1.747930 0.000000 
#    z 0.000000 0.000000 1.911470 
# 
# From -- ./inp_files/27197.got.cif
#   From: 2010.05.17/outbox.cif.g08.bks.cpg/sg43_14_cif.got.tgz:27197.got - 2010.06.03 19:21:55.
