data_PCOD9371701
_publ_section_title
;
Structure prediction by ZEFSAII (Michael W. Deem and Ramdas Pophale) SiO2 
 PCOD9371701
Probable space group: F D D 2
;
_chemical_formula_sum "Si O2"
_cell_formula_units_Z 72
_cell_length_a 11.570980
_cell_length_b 17.167186
_cell_length_c 13.372587
_cell_angle_alpha 90.000000
_cell_angle_beta 90.000000
_cell_angle_gamma 90.000000
_cell_volume 2656.346272
_symmetry_space_group_name_H-M "F D D 2"
_symmetry_group_IT_number 43
_symmetry_cell_setting 'orthorhombic'
loop_
_space_group_symop_operation_xyz
x,y,z
-x,-y,z
1/4-x,1/4+y,1/4+z
1/4+x,1/4-y,1/4+z
x,1/2+y,1/2+z
-x,1/2-y,1/2+z
1/4-x,3/4+y,3/4+z
1/4+x,3/4-y,3/4+z
1/2+x,y,1/2+z
1/2-x,-y,1/2+z
3/4-x,1/4+y,3/4+z
3/4+x,1/4-y,3/4+z
1/2+x,1/2+y,z
1/2-x,1/2-y,z
3/4-x,3/4+y,1/4+z
3/4+x,3/4-y,1/4+z
loop_
_atom_site_type_symbol
_atom_site_label
_atom_site_fract_x
_atom_site_fract_y
_atom_site_fract_z
Si Si1 0.166281 0.612297 0.228950
Si Si2 0.208869 0.396083 0.519310
Si Si3 0.095724 0.897792 0.671549
Si Si4 0.033227 0.779033 0.061886
Si Si5 0.500000 0.000000 0.478057
O O1 0.221644 0.614283 0.120777
O O2 0.149917 0.682071 0.309207
O O3 0.259124 0.562189 0.295967
O O4 0.032834 0.593038 0.211591
O O5 0.272828 0.434093 0.423279
O O6 0.145369 0.312586 0.505791
O O7 0.097270 0.451963 0.536482
O O8 0.173037 0.942276 0.750646
O O9 0.169349 0.814746 0.671943
#
# Coordination Sequence:
#
# PCOD9371701 Si02
#       5
#    16  16  16  16   8
#     4  12  26  45  73 110 149 192 256 322 372 454
#     4  11  25  44  69 110 144 201 251 315 386 452
#     4  11  24  44  72 109 141 194 257 302 382 455
#     4  11  25  44  73 102 152 199 251 306 389 467
#     4  10  22  44  72  98 148 196 248 304 382 476
#
# _framework density 27.104900000000001
#
# number of rings (size 3 to 8) (size 9 to 14) (size 15 to 20)
#    0.000    0.889    2.222    4.667    9.333    0.000 
#    0.000    0.000    0.000    0.000    0.000    0.000 
#    0.000    0.000    0.000    0.000    0.000    0.000 
#
# Total GULP energy -100393.948115 kJ/mol
# GULP energy per Si atom -5577.441562 kJ/mol
# Density = 2.704321 g / cm^3
# Si number density = 27.104900 Si / 1000 Ang^3
#
#
#
# Elastic Constant Matrix: (Units=GPa)
#
#
# Indices 1 2 3 4 5 6 
#
# 1 129.0028 49.3100 59.3802 0.0000 0.0000 0.0000
# 2 49.3100 74.6237 28.9279 0.0000 0.0000 0.0000
# 3 59.3802 28.9279 187.5194 0.0000 0.0000 0.0000
# 4 0.0000 0.0000 0.0000 17.2325 0.0000 0.0000
# 5 0.0000 0.0000 0.0000 0.0000 33.6620 0.0000
# 6 0.0000 0.0000 0.0000 0.0000 0.0000 39.7993
#
#
#
# Elastic Compliance Matrix: (Units=1/GPa)
#
#
# Indices 1 2 3 4 5 6 
#
# 1 0.011465 -0.006561 -0.002618 0.000000 0.000000 0.000000
# 2 -0.006561 0.018007 -0.000700 0.000000 0.000000 0.000000
# 3 -0.002618 -0.000700 0.006270 0.000000 0.000000 0.000000
# 4 0.000000 0.000000 0.000000 0.058030 0.000000 0.000000
# 5 0.000000 0.000000 0.000000 0.000000 0.029707 0.000000
# 6 0.000000 0.000000 0.000000 0.000000 0.000000 0.025126
#
#
# Mechanical properties :
#
#
# Convention : Reuss Voigt Hill
#
# Bulk Modulus (GPa) = 62.56612 74.04247 68.30429
# Shear Modulus (GPa) = 28.78664 35.04061 31.91362
#
# Velocity S-wave (km/s) = 3.26244 3.59942 3.43507
# Velocity P-wave (km/s) = 6.10937 6.68212 6.40215
#
# Compressibility (1/GPa) = 0.01598309
#
# Stress axis : x y z
#
# Youngs Moduli (GPa) = 87.22377 55.53318 159.49064
#
# Poissons Ratio (x) = 0.36434 0.41760
# Poissons Ratio (y) = 0.57225 0.11171
# Poissons Ratio (z) = 0.22838 0.03889
#
# Static dielectric constant tensor:
#      x y z
#    x 2.102320 0.000000 0.000000 
#    y 0.000000 2.679050 0.000000 
#    z 0.000000 0.000000 2.186090 
# 
# From -- ./inp_files/9448.got.cif
#   From: 2010.05.17/outbox.cif.g08.bks.cpg/sg43_5_cif.got.tgz:9448.got - 2010.06.03 19:21:55.
