data_PCOD9371634
_publ_section_title
;
Structure prediction by ZEFSAII (Michael W. Deem and Ramdas Pophale) SiO2 
 PCOD9371634
Probable space group: F D D 2
;
_chemical_formula_sum "Si O2"
_cell_formula_units_Z 104
_cell_length_a 32.603585
_cell_length_b 7.065440
_cell_length_c 19.566546
_cell_angle_alpha 90.000000
_cell_angle_beta 90.000000
_cell_angle_gamma 90.000000
_cell_volume 4507.323584
_symmetry_space_group_name_H-M "F D D 2"
_symmetry_group_IT_number 43
_symmetry_cell_setting 'orthorhombic'
loop_
_space_group_symop_operation_xyz
x,y,z
-x,-y,z
1/4-x,1/4+y,1/4+z
1/4+x,1/4-y,1/4+z
x,1/2+y,1/2+z
-x,1/2-y,1/2+z
1/4-x,3/4+y,3/4+z
1/4+x,3/4-y,3/4+z
1/2+x,y,1/2+z
1/2-x,-y,1/2+z
3/4-x,1/4+y,3/4+z
3/4+x,1/4-y,3/4+z
1/2+x,1/2+y,z
1/2-x,1/2-y,z
3/4-x,3/4+y,1/4+z
3/4+x,3/4-y,1/4+z
loop_
_atom_site_type_symbol
_atom_site_label
_atom_site_fract_x
_atom_site_fract_y
_atom_site_fract_z
Si Si1 0.928947 0.772757 0.555020
Si Si2 0.455719 0.017109 0.180745
Si Si3 0.160247 0.757871 0.018340
Si Si4 0.500000 0.500000 0.326308
Si Si5 0.719307 0.090312 0.669956
Si Si6 0.842895 0.800077 0.058664
Si Si7 0.327879 0.635280 0.872682
O O1 0.880364 0.825384 0.553982
O O2 0.947218 0.780342 0.479111
O O3 0.936130 0.551724 0.573970
O O4 0.951171 0.893259 0.613058
O O5 0.422879 0.958941 0.238592
O O6 0.452317 0.235059 0.156541
O O7 0.500000 0.000000 0.214435
O O8 0.207341 0.706166 0.035843
O O9 0.156926 0.977643 0.039799
O O10 0.153060 0.753622 0.937296
O O11 0.509114 0.685432 0.371584
O O12 0.750000 0.250000 0.697533
O O13 0.687471 0.208415 0.622725
O O14 0.888327 0.759878 0.083980
#
# Coordination Sequence:
#
# PCOD9371634 Si02
#       7
#    16  16  16   8  16  16  16
#     4  11  25  41  65  98 135 179 223 281 345 404
#     4  11  26  42  65  98 137 175 227 282 339 413
#     4   9  20  44  69  99 129 177 227 280 338 406
#     4  10  24  44  72 100 138 170 230 286 336 418
#     4  11  24  41  69  99 135 179 225 278 343 406
#     4   9  20  45  67  94 131 178 226 280 331 416
#     4  10  22  43  68  90 132 176 225 279 340 399
#
# _framework density 23.073558999999999
#
# number of rings (size 3 to 8) (size 9 to 14) (size 15 to 20)
#    0.000    1.846    1.538    0.462    3.231    7.385 
#    0.000    0.000    0.000    0.000    0.000    0.000 
#    0.000    0.000    0.000    0.000    0.000    0.000 
#
# Total GULP energy -145173.604804 kJ/mol
# GULP energy per Si atom -5583.600185 kJ/mol
# Density = 2.302104 g / cm^3
# Si number density = 23.073559 Si / 1000 Ang^3
#
#
#
# Elastic Constant Matrix: (Units=GPa)
#
#
# Indices 1 2 3 4 5 6 
#
# 1 36.1122 8.0123 11.2189 0.0000 0.0002 0.0001
# 2 8.0123 58.7373 0.7724 -0.0001 0.0003 0.0001
# 3 11.2189 0.7724 98.4678 0.0000 0.0001 0.0000
# 4 0.0000 -0.0001 0.0000 29.7868 0.0001 0.0000
# 5 0.0002 0.0003 0.0001 0.0001 26.2843 -0.0001
# 6 0.0001 0.0001 0.0000 0.0000 -0.0001 26.4316
#
#
#
# Elastic Compliance Matrix: (Units=1/GPa)
#
#
# Indices 1 2 3 4 5 6 
#
# 1 0.029617 -0.003996 -0.003343 0.000000 0.000000 0.000000
# 2 -0.003996 0.017566 0.000318 0.000000 0.000000 0.000000
# 3 -0.003343 0.000318 0.010534 0.000000 0.000000 0.000000
# 4 0.000000 0.000000 0.000000 0.033572 0.000000 0.000000
# 5 0.000000 0.000000 0.000000 0.000000 0.038046 0.000000
# 6 0.000000 0.000000 0.000000 0.000000 0.000000 0.037833
#
#
# Mechanical properties :
#
#
# Convention : Reuss Voigt Hill
#
# Bulk Modulus (GPa) = 22.89723 25.92495 24.41109
# Shear Modulus (GPa) = 25.54038 28.05479 26.79758
#
# Velocity S-wave (km/s) = 3.33064 3.49074 3.41163
# Velocity P-wave (km/s) = 4.97353 5.24473 5.11093
#
# Compressibility (1/GPa) = 0.04367341
#
# Stress axis : x y z
#
# Youngs Moduli (GPa) = 33.76481 56.92855 94.93076
#
# Poissons Ratio (x) = 0.22749 0.31735
# Poissons Ratio (y) = 0.13493 -0.03014
# Poissons Ratio (z) = 0.11288 -0.01808
#
# Static dielectric constant tensor:
#      x y z
#    x 1.919340 0.000000 0.000000 
#    y 0.000000 1.873960 0.000000 
#    z 0.000000 0.000000 1.869250 
# 
# From -- ./inp_files/18984.got.cif
#   From: 2010.05.17/outbox.cif.g08.bks.cpg/sg43_10_cif.got.tgz:18984.got - 2010.06.03 19:21:55.
