data_PCOD9371847
_publ_section_title
;
Structure prediction by ZEFSAII (Michael W. Deem and Ramdas Pophale) SiO2 
 PCOD9371847
Probable space group: F D D 2
;
_chemical_formula_sum "Si O2"
_cell_formula_units_Z 96
_cell_length_a 18.769532
_cell_length_b 12.277588
_cell_length_c 19.201255
_cell_angle_alpha 90.000000
_cell_angle_beta 90.000000
_cell_angle_gamma 90.000000
_cell_volume 4424.825160
_symmetry_space_group_name_H-M "F D D 2"
_symmetry_group_IT_number 43
_symmetry_cell_setting 'orthorhombic'
loop_
_space_group_symop_operation_xyz
x,y,z
-x,-y,z
1/4-x,1/4+y,1/4+z
1/4+x,1/4-y,1/4+z
x,1/2+y,1/2+z
-x,1/2-y,1/2+z
1/4-x,3/4+y,3/4+z
1/4+x,3/4-y,3/4+z
1/2+x,y,1/2+z
1/2-x,-y,1/2+z
3/4-x,1/4+y,3/4+z
3/4+x,1/4-y,3/4+z
1/2+x,1/2+y,z
1/2-x,1/2-y,z
3/4-x,3/4+y,1/4+z
3/4+x,3/4-y,1/4+z
loop_
_atom_site_type_symbol
_atom_site_label
_atom_site_fract_x
_atom_site_fract_y
_atom_site_fract_z
Si Si1 0.561042 0.918002 0.660280
Si Si2 0.925445 0.938449 0.502105
Si Si3 0.141425 0.262820 0.121895
Si Si4 0.615695 0.782344 0.287021
Si Si5 0.238992 0.422791 0.883008
Si Si6 0.286007 0.577661 0.531407
O O1 0.635662 0.899139 0.701672
O O2 0.528436 0.799025 0.647802
O O3 0.500000 0.000000 0.690082
O O4 0.583187 0.964885 0.586012
O O5 0.941246 0.879505 0.574634
O O6 0.860457 0.020023 0.516211
O O7 0.000000 0.000000 0.480021
O O8 0.135788 0.153473 0.073961
O O9 0.139336 0.261184 0.206686
O O10 0.203657 0.340546 0.094629
O O11 0.068754 0.327658 0.106323
O O12 0.532065 0.750114 0.293052
O O13 0.232341 0.366465 0.957746
#
# Coordination Sequence:
#
# PCOD9371847 Si02
#       6
#    16  16  16  16  16  16
#     4  11  25  45  68 101 145 191 237 292 363 438
#     4  11  24  43  73 103 137 187 241 297 359 435
#     4  11  23  44  68  99 134 178 234 287 357 420
#     4  11  26  42  70 101 138 184 231 291 354 431
#     4  10  23  42  69  96 137 181 227 297 349 428
#     4  10  24  42  66 104 132 177 232 292 363 420
#
# _framework density 21.695772999999999
#
# number of rings (size 3 to 8) (size 9 to 14) (size 15 to 20)
#    0.000    1.333    3.333    0.500    4.667    5.333 
#    0.000    0.833    0.000    0.000    0.000    0.000 
#    0.000    0.000    0.000    0.000    0.000    0.000 
#
# Total GULP energy -133673.294704 kJ/mol
# GULP energy per Si atom -5569.720613 kJ/mol
# Density = 2.164639 g / cm^3
# Si number density = 21.695773 Si / 1000 Ang^3
#
#
#
# Elastic Constant Matrix: (Units=GPa)
#
#
# Indices 1 2 3 4 5 6 
#
# 1 127.4834 28.3135 22.1154 0.0000 0.0000 0.0000
# 2 28.3135 78.8416 28.3444 0.0000 0.0000 0.0000
# 3 22.1154 28.3444 56.3182 0.0000 0.0000 0.0000
# 4 0.0000 0.0000 0.0000 22.3275 0.0000 0.0000
# 5 0.0000 0.0000 0.0000 0.0000 69.5740 0.0000
# 6 0.0000 0.0000 0.0000 0.0000 0.0000 7.5409
#
#
#
# Elastic Compliance Matrix: (Units=1/GPa)
#
#
# Indices 1 2 3 4 5 6 
#
# 1 0.008755 -0.002329 -0.002265 0.000000 0.000000 0.000000
# 2 -0.002329 0.016105 -0.007191 0.000000 0.000000 0.000000
# 3 -0.002265 -0.007191 0.022265 0.000000 0.000000 0.000000
# 4 0.000000 0.000000 0.000000 0.044788 0.000000 0.000000
# 5 0.000000 0.000000 0.000000 0.000000 0.014373 0.000000
# 6 0.000000 0.000000 0.000000 0.000000 0.000000 0.132610
#
#
# Mechanical properties :
#
#
# Convention : Reuss Voigt Hill
#
# Bulk Modulus (GPa) = 42.45686 46.68772 44.57229
# Shear Modulus (GPa) = 18.49667 32.14648 25.32157
#
# Velocity S-wave (km/s) = 2.92301 3.85345 3.42002
# Velocity P-wave (km/s) = 5.56809 6.43155 6.01533
#
# Compressibility (1/GPa) = 0.02355332
#
# Stress axis : x y z
#
# Youngs Moduli (GPa) = 114.22677 62.09079 44.91363
#
# Poissons Ratio (x) = 0.14464 0.10175
# Poissons Ratio (y) = 0.26609 0.32297
# Poissons Ratio (z) = 0.25877 0.44649
#
# Static dielectric constant tensor:
#      x y z
#    x 1.812160 0.000000 0.000000 
#    y 0.000000 1.808860 0.000000 
#    z 0.000000 0.000000 1.804330 
# 
# From -- ./inp_files/18324.got.cif
#   From: 2010.05.17/outbox.cif.g08.bks.cpg/sg43_10_cif.got.tgz:18324.got - 2010.06.03 19:21:55.
