data_PCOD9371841
_publ_section_title
;
Structure prediction by ZEFSAII (Michael W. Deem and Ramdas Pophale) SiO2 
 PCOD9371841
Probable space group: F D D 2
;
_chemical_formula_sum "Si O2"
_cell_formula_units_Z 120
_cell_length_a 25.120650
_cell_length_b 8.374217
_cell_length_c 26.467737
_cell_angle_alpha 90.000000
_cell_angle_beta 90.000000
_cell_angle_gamma 90.000000
_cell_volume 5567.905987
_symmetry_space_group_name_H-M "F D D 2"
_symmetry_group_IT_number 43
_symmetry_cell_setting 'orthorhombic'
loop_
_space_group_symop_operation_xyz
x,y,z
-x,-y,z
1/4-x,1/4+y,1/4+z
1/4+x,1/4-y,1/4+z
x,1/2+y,1/2+z
-x,1/2-y,1/2+z
1/4-x,3/4+y,3/4+z
1/4+x,3/4-y,3/4+z
1/2+x,y,1/2+z
1/2-x,-y,1/2+z
3/4-x,1/4+y,3/4+z
3/4+x,1/4-y,3/4+z
1/2+x,1/2+y,z
1/2-x,1/2-y,z
3/4-x,3/4+y,1/4+z
3/4+x,3/4-y,1/4+z
loop_
_atom_site_type_symbol
_atom_site_label
_atom_site_fract_x
_atom_site_fract_y
_atom_site_fract_z
Si Si1 0.339760 0.156785 0.600420
Si Si2 0.058692 0.935308 0.811426
Si Si3 0.346467 0.362897 0.501390
Si Si4 0.000000 0.500000 0.928815
Si Si5 0.438343 0.954037 0.206632
Si Si6 0.109349 0.356993 0.118679
Si Si7 0.303519 0.289855 0.770155
Si Si8 0.437458 0.476178 0.151381
O O1 0.338226 0.296660 0.558077
O O2 0.298586 0.199182 0.644292
O O3 0.398067 0.102275 0.622131
O O4 0.315903 0.996081 0.576648
O O5 0.082491 0.945861 0.754677
O O6 0.081575 0.045499 0.856833
O O7 0.000000 0.000000 0.803632
O O8 0.318544 0.524908 0.479453
O O9 0.409597 0.397924 0.499074
O O10 0.326197 0.238029 0.460577
O O11 0.972333 0.619538 0.970288
O O12 0.500000 0.000000 0.195276
O O13 0.403511 0.999616 0.157195
O O14 0.090414 0.385046 0.061535
O O15 0.077626 0.202085 0.136392
O O16 0.250000 0.250000 0.800468
O O17 0.500000 0.500000 0.142012
#
# Coordination Sequence:
#
# PCOD9371841 Si02
#       8
#    16  16  16   8  16  16  16  16
#     4  11  26  43  71 104 138 189 231 300 359 423
#     4  10  24  45  66  99 140 173 236 285 352 425
#     4  12  25  43  70 106 138 181 240 294 348 435
#     4  10  24  44  70  96 142 176 240 286 350 418
#     4  11  24  41  68 102 136 181 232 288 344 422
#     4  11  23  44  69  98 140 186 228 288 354 413
#     4  10  23  42  66  99 133 173 234 279 340 420
#     4  11  25  44  70 104 143 186 236 297 359 425
#
# _framework density 21.552088000000001
#
# number of rings (size 3 to 8) (size 9 to 14) (size 15 to 20)
#    0.400    0.800    2.667    2.000    8.400    1.067 
#    0.000    0.000    0.000    0.000    0.000    0.000 
#    0.000    0.000    0.000    0.000    0.000    0.000 
#
# Total GULP energy -167008.258621 kJ/mol
# GULP energy per Si atom -5566.941954 kJ/mol
# Density = 2.150303 g / cm^3
# Si number density = 21.552088 Si / 1000 Ang^3
#
#
#
# Elastic Constant Matrix: (Units=GPa)
#
#
# Indices 1 2 3 4 5 6 
#
# 1 93.2956 28.0664 34.3278 0.0000 0.0000 0.0000
# 2 28.0664 65.2027 51.3096 0.0000 0.0000 -0.0002
# 3 34.3278 51.3096 154.5080 0.0000 0.0000 0.0000
# 4 0.0000 0.0000 0.0000 21.4813 0.0000 0.0000
# 5 0.0000 0.0000 0.0000 0.0000 26.4544 0.0000
# 6 0.0000 -0.0002 0.0000 0.0000 0.0000 -5.9443
#
#
#
# Elastic Compliance Matrix: (Units=1/GPa)
#
#
# Indices 1 2 3 4 5 6 
#
# 1 0.012515 -0.004331 -0.001342 0.000000 0.000000 0.000000
# 2 -0.004331 0.022261 -0.006430 0.000000 0.000000 -0.000001
# 3 -0.001342 -0.006430 0.008906 0.000000 0.000000 0.000000
# 4 0.000000 0.000000 0.000000 0.046552 0.000000 0.000000
# 5 0.000000 0.000000 0.000000 0.000000 0.037801 0.000000
# 6 0.000000 -0.000001 0.000000 0.000000 0.000000 -0.168227
#
#
# Mechanical properties :
#
#
# Convention : Reuss Voigt Hill
#
# Bulk Modulus (GPa) = 51.34746 60.04599 55.69672
# Shear Modulus (GPa) = -526.73164 21.68508 -252.52328
#
# Velocity S-wave (km/s) = -15.65024 3.17546 -10.83620
# Velocity P-wave (km/s) = 17.39818 6.43165 11.43089
#
# Compressibility (1/GPa) = 0.01947516
#
# Stress axis : x y z
#
# Youngs Moduli (GPa) = 79.90141 44.92111 112.28594
#
# Poissons Ratio (x) = 0.19455 0.15073
# Poissons Ratio (y) = 0.34604 0.72204
# Poissons Ratio (z) = 0.10726 0.28886
#
# Static dielectric constant tensor:
#      x y z
#    x 1.852650 0.000000 0.000000 
#    y 0.000000 1.865970 0.000000 
#    z 0.000000 0.000000 1.836420 
# 
# From -- ./inp_files/26583.got.cif
#   From: 2010.05.17/outbox.cif.g08.bks.cpg/sg43_14_cif.got.tgz:26583.got - 2010.06.03 19:21:55.
