data_PCOD9371569
_publ_section_title
;
Structure prediction by ZEFSAII (Michael W. Deem and Ramdas Pophale) SiO2 
 PCOD9371569
Probable space group: F D D 2
;
_chemical_formula_sum "Si O2"
_cell_formula_units_Z 88
_cell_length_a 14.808857
_cell_length_b 20.031114
_cell_length_c 13.935161
_cell_angle_alpha 90.000000
_cell_angle_beta 90.000000
_cell_angle_gamma 90.000000
_cell_volume 4133.696934
_symmetry_space_group_name_H-M "F D D 2"
_symmetry_group_IT_number 43
_symmetry_cell_setting 'orthorhombic'
loop_
_space_group_symop_operation_xyz
x,y,z
-x,-y,z
1/4-x,1/4+y,1/4+z
1/4+x,1/4-y,1/4+z
x,1/2+y,1/2+z
-x,1/2-y,1/2+z
1/4-x,3/4+y,3/4+z
1/4+x,3/4-y,3/4+z
1/2+x,y,1/2+z
1/2-x,-y,1/2+z
3/4-x,1/4+y,3/4+z
3/4+x,1/4-y,3/4+z
1/2+x,1/2+y,z
1/2-x,1/2-y,z
3/4-x,3/4+y,1/4+z
3/4+x,3/4-y,1/4+z
loop_
_atom_site_type_symbol
_atom_site_label
_atom_site_fract_x
_atom_site_fract_y
_atom_site_fract_z
Si Si1 0.802676 0.119012 0.452190
Si Si2 0.250000 0.750000 0.568320
Si Si3 0.880267 0.375324 0.830153
Si Si4 0.203552 0.320729 0.396875
Si Si5 0.501607 0.578865 0.503404
Si Si6 0.649599 0.014430 0.478803
O O1 0.758108 0.182926 0.505181
O O2 0.806297 0.137182 0.339883
O O3 0.899751 0.106269 0.499003
O O4 0.742230 0.052317 0.459377
O O5 0.161277 0.746876 0.636551
O O6 0.784781 0.373127 0.884621
O O7 0.882591 0.414141 0.729719
O O8 0.906492 0.300509 0.796460
O O9 0.952493 0.405206 0.902214
O O10 0.250000 0.250000 0.419511
O O11 0.159437 0.315151 0.292873
O O12 0.500000 0.500000 0.519208
#
# Coordination Sequence:
#
# PCOD9371569 Si02
#       6
#    16   8  16  16  16  16
#     4  12  27  46  75 104 148 197 243 315 372 448
#     4  12  22  50  70 104 146 184 258 304 366 462
#     4  11  23  43  69  98 142 179 233 295 361 429
#     4  10  22  42  67  99 131 173 233 288 347 423
#     4  12  28  48  71 110 152 194 251 302 385 458
#     4  11  24  45  71 105 133 186 244 300 365 434
#
# _framework density 21.288449
#
# number of rings (size 3 to 8) (size 9 to 14) (size 15 to 20)
#    0.000    0.727    5.455    2.727    5.091    1.455 
#    0.000    0.000    0.000    0.000    0.000    0.000 
#    0.000    0.000    0.000    0.000    0.000    0.000 
#
# Total GULP energy -123013.066680 kJ/mol
# GULP energy per Si atom -5591.503031 kJ/mol
# Density = 2.124000 g / cm^3
# Si number density = 21.288449 Si / 1000 Ang^3
#
#
#
# Elastic Constant Matrix: (Units=GPa)
#
#
# Indices 1 2 3 4 5 6 
#
# 1 34.0852 -6.9156 0.0463 0.0000 0.0000 0.0000
# 2 -6.9156 37.7381 3.0714 0.0000 0.0000 0.0000
# 3 0.0463 3.0714 74.5608 0.0000 0.0000 0.0000
# 4 0.0000 0.0000 0.0000 31.9538 0.0000 0.0000
# 5 0.0000 0.0000 0.0000 0.0000 -20.0386 0.0000
# 6 0.0000 0.0000 0.0000 0.0000 0.0000 25.3539
#
#
#
# Elastic Compliance Matrix: (Units=1/GPa)
#
#
# Indices 1 2 3 4 5 6 
#
# 1 0.030476 0.005605 -0.000250 0.000000 0.000000 0.000000
# 2 0.005605 0.027618 -0.001141 0.000000 0.000000 0.000000
# 3 -0.000250 -0.001141 0.013459 0.000000 0.000000 0.000000
# 4 0.000000 0.000000 0.000000 0.031295 0.000000 0.000000
# 5 0.000000 0.000000 0.000000 0.000000 -0.049904 0.000000
# 6 0.000000 0.000000 0.000000 0.000000 0.000000 0.039442
#
#
# Mechanical properties :
#
#
# Convention : Reuss Voigt Hill
#
# Bulk Modulus (GPa) = 12.50291 15.42093 13.96192
# Shear Modulus (GPa) = 45.20031 17.46595 31.33313
#
# Velocity S-wave (km/s) = 4.61285 2.86744 3.84061
# Velocity P-wave (km/s) = 5.85295 4.26878 5.12248
#
# Compressibility (1/GPa) = 0.07998140
#
# Stress axis : x y z
#
# Youngs Moduli (GPa) = 32.81294 36.20771 74.29955
#
# Poissons Ratio (x) = -0.20295 0.01856
# Poissons Ratio (y) = -0.18392 0.08479
# Poissons Ratio (z) = 0.00820 0.04132
#
# Static dielectric constant tensor:
#      x y z
#    x 1.781020 0.000000 0.000000 
#    y 0.000000 1.781900 0.000000 
#    z 0.000000 0.000000 1.725670 
# 
# From -- ./inp_files/6141.got.cif
#   From: 2010.05.17/outbox.cif.g08.bks.cpg/sg43_4_cif.got.tgz:6141.got - 2010.06.03 19:21:55.
