data_PCOD9371854
_publ_section_title
;
Structure prediction by ZEFSAII (Michael W. Deem and Ramdas Pophale) SiO2 
 PCOD9371854
Probable space group: F D D 2
;
_chemical_formula_sum "Si O2"
_cell_formula_units_Z 104
_cell_length_a 5.407403
_cell_length_b 29.216098
_cell_length_c 30.489973
_cell_angle_alpha 90.000000
_cell_angle_beta 90.000000
_cell_angle_gamma 90.000000
_cell_volume 4816.903989
_symmetry_space_group_name_H-M "F D D 2"
_symmetry_group_IT_number 43
_symmetry_cell_setting 'orthorhombic'
loop_
_space_group_symop_operation_xyz
x,y,z
-x,-y,z
1/4-x,1/4+y,1/4+z
1/4+x,1/4-y,1/4+z
x,1/2+y,1/2+z
-x,1/2-y,1/2+z
1/4-x,3/4+y,3/4+z
1/4+x,3/4-y,3/4+z
1/2+x,y,1/2+z
1/2-x,-y,1/2+z
3/4-x,1/4+y,3/4+z
3/4+x,1/4-y,3/4+z
1/2+x,1/2+y,z
1/2-x,1/2-y,z
3/4-x,3/4+y,1/4+z
3/4+x,3/4-y,1/4+z
loop_
_atom_site_type_symbol
_atom_site_label
_atom_site_fract_x
_atom_site_fract_y
_atom_site_fract_z
Si Si1 0.328698 0.429882 0.412910
Si Si2 0.000000 0.500000 0.121309
Si Si3 0.946152 0.089382 0.566777
Si Si4 0.425193 0.643293 0.071728
Si Si5 0.104885 0.844835 0.969942
Si Si6 0.000000 0.000000 0.964081
Si Si7 0.958177 0.833901 0.725998
Si Si8 0.000000 0.000000 0.174635
O O1 0.293691 0.428847 0.361199
O O2 0.232900 0.383233 0.437974
O O3 0.195070 0.472852 0.434508
O O4 0.610345 0.430838 0.428854
O O5 0.079066 0.457980 0.091176
O O6 0.248288 0.512320 0.148309
O O7 0.686139 0.116317 0.569968
O O8 0.991672 0.083917 0.514575
O O9 0.187441 0.113682 0.586121
O O10 0.353254 0.658484 0.022540
O O11 0.165833 0.795356 0.950913
O O12 0.828154 0.866389 0.970376
O O13 0.886732 0.957570 0.991057
#
# Coordination Sequence:
#
# PCOD9371854 Si02
#       8
#    16   8  16  16  16   8  16   8
#     4  11  22  43  71  96 138 180 228 287 347 416
#     4  12  26  40  69 103 138 181 224 297 352 416
#     4  11  24  43  66 104 133 175 231 283 350 416
#     4  11  25  43  71  97 134 185 232 279 344 415
#     4  10  24  46  67  99 136 188 228 286 340 419
#     4  10  24  39  63 108 130 180 226 287 359 412
#     4  10  23  42  72  94 141 179 228 288 361 405
#     4  12  28  45  68 101 144 185 236 282 347 418
#
# _framework density 21.590633
#
# number of rings (size 3 to 8) (size 9 to 14) (size 15 to 20)
#    0.000    1.231    1.538    3.231   10.769    0.615 
#    2.769    0.769    0.000    0.000    0.000    0.000 
#    0.000    0.000    0.000    0.000    0.000    0.000 
#
# Total GULP energy -144905.034392 kJ/mol
# GULP energy per Si atom -5573.270554 kJ/mol
# Density = 2.154149 g / cm^3
# Si number density = 21.590633 Si / 1000 Ang^3
#
#
#
# Elastic Constant Matrix: (Units=GPa)
#
#
# Indices 1 2 3 4 5 6 
#
# 1 75.0694 21.5829 24.6321 0.0000 0.0000 0.0000
# 2 21.5829 109.4038 31.5979 0.0000 0.0000 0.0000
# 3 24.6321 31.5979 99.9283 0.0000 0.0000 0.0000
# 4 0.0000 0.0000 0.0000 3.7473 0.0000 0.0000
# 5 0.0000 0.0000 0.0000 0.0000 580.5386 0.0000
# 6 0.0000 0.0000 0.0000 0.0000 0.0000 25.0047
#
#
#
# Elastic Compliance Matrix: (Units=1/GPa)
#
#
# Indices 1 2 3 4 5 6 
#
# 1 0.014907 -0.002068 -0.003020 0.000000 0.000000 0.000000
# 2 -0.002068 0.010346 -0.002762 0.000000 0.000000 0.000000
# 3 -0.003020 -0.002762 0.011625 0.000000 0.000000 0.000000
# 4 0.000000 0.000000 0.000000 0.266859 0.000000 0.000000
# 5 0.000000 0.000000 0.000000 0.000000 0.001723 0.000000
# 6 0.000000 0.000000 0.000000 0.000000 0.000000 0.039993
#
#
# Mechanical properties :
#
#
# Convention : Reuss Voigt Hill
#
# Bulk Modulus (GPa) = 47.22136 48.89191 48.05663
# Shear Modulus (GPa) = 13.57913 135.63069 74.60491
#
# Velocity S-wave (km/s) = 2.51058 7.93446 5.88467
# Velocity P-wave (km/s) = 5.50661 10.32642 8.27519
#
# Compressibility (1/GPa) = 0.02117686
#
# Stress axis : x y z
#
# Youngs Moduli (GPa) = 67.08359 96.65467 86.02183
#
# Poissons Ratio (x) = 0.19992 0.25982
# Poissons Ratio (y) = 0.13876 0.23756
# Poissons Ratio (z) = 0.20262 0.26693
#
# Static dielectric constant tensor:
#      x y z
#    x 0.725090 0.000000 0.000000 
#    y 0.000000 1.784460 0.000000 
#    z 0.000000 0.000000 1.822670 
# 
# From -- ./inp_files/27462.got.cif
#   From: 2010.05.17/outbox.cif.g08.bks.cpg/sg43_14_cif.got.tgz:27462.got - 2010.06.03 19:21:55.
