data_PCOD9371045
_publ_section_title
;
Structure prediction by ZEFSAII (Michael W. Deem and Ramdas Pophale) SiO2 
 PCOD9371045
Probable space group: F D D 2
;
_chemical_formula_sum "Si O2"
_cell_formula_units_Z 48
_cell_length_a 12.970296
_cell_length_b 12.198982
_cell_length_c 12.186098
_cell_angle_alpha 90.000000
_cell_angle_beta 90.000000
_cell_angle_gamma 90.000000
_cell_volume 1928.138135
_symmetry_space_group_name_H-M "F D D 2"
_symmetry_group_IT_number 43
_symmetry_cell_setting 'orthorhombic'
loop_
_space_group_symop_operation_xyz
x,y,z
-x,-y,z
1/4-x,1/4+y,1/4+z
1/4+x,1/4-y,1/4+z
x,1/2+y,1/2+z
-x,1/2-y,1/2+z
1/4-x,3/4+y,3/4+z
1/4+x,3/4-y,3/4+z
1/2+x,y,1/2+z
1/2-x,-y,1/2+z
3/4-x,1/4+y,3/4+z
3/4+x,1/4-y,3/4+z
1/2+x,1/2+y,z
1/2-x,1/2-y,z
3/4-x,3/4+y,1/4+z
3/4+x,3/4-y,1/4+z
loop_
_atom_site_type_symbol
_atom_site_label
_atom_site_fract_x
_atom_site_fract_y
_atom_site_fract_z
Si Si1 0.815553 0.483678 0.002000
Si Si2 0.000000 0.500000 0.419409
Si Si3 0.114775 0.916049 0.728227
Si Si4 0.250000 0.750000 0.079796
O O1 0.873273 0.514108 0.117589
O O2 0.766753 0.362999 0.014153
O O3 0.728055 0.577267 0.985695
O O4 0.900118 0.487049 0.907313
O O5 0.905979 0.511803 0.334867
O O6 0.973159 0.395914 0.489960
#
# Coordination Sequence:
#
# PCOD9371045 Si02
#       4
#    16   8  16   8
#     4  11  24  43  66  94 130 173 220 270 327 388
#     4  10  21  38  61  88 118 156 204 256 313 372
#     4  10  22  40  64  88 122 168 214 264 319 380
#     4  12  25  42  65  98 134 172 216 272 329 388
#
# _framework density 24.894482
#
# number of rings (size 3 to 8) (size 9 to 14) (size 15 to 20)
#    0.000    1.333    0.000    7.000    0.000    8.000 
#    0.000    0.000    0.000    0.000    0.000    0.000 
#    0.000    0.000    0.000    0.000    0.000    0.000 
#
# Total GULP energy -67159.077804 kJ/mol
# GULP energy per Si atom -5596.589817 kJ/mol
# Density = 2.483782 g / cm^3
# Si number density = 24.894482 Si / 1000 Ang^3
#
#
#
# Elastic Constant Matrix: (Units=GPa)
#
#
# Indices 1 2 3 4 5 6 
#
# 1 58.9265 31.9338 47.7725 0.0000 0.0000 0.0000
# 2 31.9338 157.2413 35.7862 0.0000 0.0000 0.0000
# 3 47.7725 35.7862 98.2436 0.0000 0.0000 0.0000
# 4 0.0000 0.0000 0.0000 25.6631 0.0000 0.0000
# 5 0.0000 0.0000 0.0000 0.0000 32.1277 0.0000
# 6 0.0000 0.0000 0.0000 0.0000 0.0000 56.0125
#
#
#
# Elastic Compliance Matrix: (Units=1/GPa)
#
#
# Indices 1 2 3 4 5 6 
#
# 1 0.029213 -0.002944 -0.013133 0.000000 0.000000 0.000000
# 2 -0.002944 0.007231 -0.001203 0.000000 0.000000 0.000000
# 3 -0.013133 -0.001203 0.017003 0.000000 0.000000 0.000000
# 4 0.000000 0.000000 0.000000 0.038966 0.000000 0.000000
# 5 0.000000 0.000000 0.000000 0.000000 0.031126 0.000000
# 6 0.000000 0.000000 0.000000 0.000000 0.000000 0.017853
#
#
# Mechanical properties :
#
#
# Convention : Reuss Voigt Hill
#
# Bulk Modulus (GPa) = 52.94284 60.59960 56.77122
# Shear Modulus (GPa) = 27.43539 36.02192 31.72865
#
# Velocity S-wave (km/s) = 3.32334 3.80805 3.57392
# Velocity P-wave (km/s) = 6.00327 6.61290 6.31544
#
# Compressibility (1/GPa) = 0.01888830
#
# Stress axis : x y z
#
# Youngs Moduli (GPa) = 34.23184 138.28973 58.81376
#
# Poissons Ratio (x) = 0.40711 0.77239
# Poissons Ratio (y) = 0.10077 0.07073
# Poissons Ratio (z) = 0.44956 0.16630
#
# Static dielectric constant tensor:
#      x y z
#    x 2.051620 0.000000 0.000000 
#    y 0.000000 1.970160 0.000000 
#    z 0.000000 0.000000 1.924350 
# 
# From -- ./inp_files/2473.got.cif
#   From: 2010.05.17/outbox.cif.g08.bks.cpg/sg43_2_cif.got.tgz:2473.got - 2010.06.03 19:21:55.
