data_PCOD9371215
_publ_section_title
;
Structure prediction by ZEFSAII (Michael W. Deem and Ramdas Pophale) SiO2 
 PCOD9371215
Probable space group: F D D 2
;
_chemical_formula_sum "Si O2"
_cell_formula_units_Z 112
_cell_length_a 16.323916
_cell_length_b 26.975290
_cell_length_c 9.632240
_cell_angle_alpha 90.000000
_cell_angle_beta 90.000000
_cell_angle_gamma 90.000000
_cell_volume 4241.483371
_symmetry_space_group_name_H-M "F D D 2"
_symmetry_group_IT_number 43
_symmetry_cell_setting 'orthorhombic'
loop_
_space_group_symop_operation_xyz
x,y,z
-x,-y,z
1/4-x,1/4+y,1/4+z
1/4+x,1/4-y,1/4+z
x,1/2+y,1/2+z
-x,1/2-y,1/2+z
1/4-x,3/4+y,3/4+z
1/4+x,3/4-y,3/4+z
1/2+x,y,1/2+z
1/2-x,-y,1/2+z
3/4-x,1/4+y,3/4+z
3/4+x,1/4-y,3/4+z
1/2+x,1/2+y,z
1/2-x,1/2-y,z
3/4-x,3/4+y,1/4+z
3/4+x,3/4-y,1/4+z
loop_
_atom_site_type_symbol
_atom_site_label
_atom_site_fract_x
_atom_site_fract_y
_atom_site_fract_z
Si Si1 0.500000 0.500000 0.554811
Si Si2 0.750000 0.750000 0.245984
Si Si3 0.173847 0.977372 0.033014
Si Si4 0.213842 0.669528 0.516521
Si Si5 0.893405 0.141625 0.546984
Si Si6 0.249056 0.621525 0.046542
Si Si7 0.125954 0.056122 0.360369
Si Si8 0.776807 0.999884 0.751757
O O1 0.451904 0.536106 0.657719
O O2 0.565992 0.530201 0.468970
O O3 0.662503 0.751071 0.318868
O O4 0.762823 0.800767 0.157290
O O5 0.191018 0.923483 0.094083
O O6 0.255816 0.005927 0.088343
O O7 0.174208 0.968126 0.865677
O O8 0.151228 0.628998 0.453704
O O9 0.300956 0.642033 0.494533
O O10 0.946318 0.112751 0.430716
O O11 0.930896 0.197181 0.533191
O O12 0.313150 0.664342 0.009858
O O13 0.186726 0.596424 0.936182
O O14 0.184876 0.013695 0.300887
#
# Coordination Sequence:
#
# PCOD9371215 Si02
#       8
#     8   8  16  16  16  16  16  16
#     4  11  22  37  66 102 144 186 254 306 368 452
#     4  11  24  47  66 106 146 196 238 320 380 452
#     4  10  23  46  72  98 149 191 243 304 375 436
#     4  11  24  39  68 100 148 188 248 306 376 444
#     4  11  20  43  65 104 139 192 244 308 358 448
#     4  10  21  41  67  99 146 188 242 310 359 444
#     4  11  23  40  67 106 143 196 247 306 379 445
#     4  10  24  43  75 102 143 197 247 305 374 449
#
# _framework density 26.405856
#
# number of rings (size 3 to 8) (size 9 to 14) (size 15 to 20)
#    0.000    1.429    4.286    0.000    2.000    4.000 
#    2.571    1.429    0.000    0.000    0.000    0.000 
#    0.000    0.000    0.000    0.000    0.000    0.000 
#
# Total GULP energy -156003.314954 kJ/mol
# GULP energy per Si atom -5571.546963 kJ/mol
# Density = 2.634575 g / cm^3
# Si number density = 26.405856 Si / 1000 Ang^3
#
#
#
# Elastic Constant Matrix: (Units=GPa)
#
#
# Indices 1 2 3 4 5 6 
#
# 1 98.7078 13.8425 19.9694 0.0000 0.0000 0.0000
# 2 13.8425 38.6368 8.1381 0.0000 0.0000 0.0000
# 3 19.9694 8.1381 66.6601 0.0000 0.0000 0.0000
# 4 0.0000 0.0000 0.0000 37.1596 0.0000 0.0000
# 5 0.0000 0.0000 0.0000 0.0000 44.4239 0.0000
# 6 0.0000 0.0000 0.0000 0.0000 0.0000 45.1951
#
#
#
# Elastic Compliance Matrix: (Units=1/GPa)
#
#
# Indices 1 2 3 4 5 6 
#
# 1 0.011202 -0.003394 -0.002941 0.000000 0.000000 0.000000
# 2 -0.003394 0.027593 -0.002352 0.000000 0.000000 0.000000
# 3 -0.002941 -0.002352 0.016170 0.000000 0.000000 0.000000
# 4 0.000000 0.000000 0.000000 0.026911 0.000000 0.000000
# 5 0.000000 0.000000 0.000000 0.000000 0.022510 0.000000
# 6 0.000000 0.000000 0.000000 0.000000 0.000000 0.022126
#
#
# Mechanical properties :
#
#
# Convention : Reuss Voigt Hill
#
# Bulk Modulus (GPa) = 26.60241 31.98940 29.29591
# Shear Modulus (GPa) = 31.96577 36.15937 34.06257
#
# Velocity S-wave (km/s) = 3.48308 3.70451 3.59550
# Velocity P-wave (km/s) = 5.12563 5.51713 5.32498
#
# Compressibility (1/GPa) = 0.03759058
#
# Stress axis : x y z
#
# Youngs Moduli (GPa) = 89.27036 36.24063 61.84371
#
# Poissons Ratio (x) = 0.12299 0.18191
# Poissons Ratio (y) = 0.30296 0.14546
# Poissons Ratio (z) = 0.26258 0.08524
#
# Static dielectric constant tensor:
#      x y z
#    x 2.099660 0.000000 0.000000 
#    y 0.000000 2.165600 0.000000 
#    z 0.000000 0.000000 2.163200 
# 
# From -- ./inp_files/6358.got.cif
#   From: 2010.05.17/outbox.cif.g08.bks.cpg/sg43_4_cif.got.tgz:6358.got - 2010.06.03 19:21:55.
