data_PCOD9371080
_publ_section_title
;
Structure prediction by ZEFSAII (Michael W. Deem and Ramdas Pophale) SiO2 
 PCOD9371080
Probable space group: F D D 2
;
_chemical_formula_sum "Si O2"
_cell_formula_units_Z 120
_cell_length_a 11.791490
_cell_length_b 22.728003
_cell_length_c 20.032418
_cell_angle_alpha 90.000000
_cell_angle_beta 90.000000
_cell_angle_gamma 90.000000
_cell_volume 5368.628329
_symmetry_space_group_name_H-M "F D D 2"
_symmetry_group_IT_number 43
_symmetry_cell_setting 'orthorhombic'
loop_
_space_group_symop_operation_xyz
x,y,z
-x,-y,z
1/4-x,1/4+y,1/4+z
1/4+x,1/4-y,1/4+z
x,1/2+y,1/2+z
-x,1/2-y,1/2+z
1/4-x,3/4+y,3/4+z
1/4+x,3/4-y,3/4+z
1/2+x,y,1/2+z
1/2-x,-y,1/2+z
3/4-x,1/4+y,3/4+z
3/4+x,1/4-y,3/4+z
1/2+x,1/2+y,z
1/2-x,1/2-y,z
3/4-x,3/4+y,1/4+z
3/4+x,3/4-y,1/4+z
loop_
_atom_site_type_symbol
_atom_site_label
_atom_site_fract_x
_atom_site_fract_y
_atom_site_fract_z
Si Si1 0.612383 0.910648 0.296820
Si Si2 0.546932 0.601261 0.385250
Si Si3 0.000000 0.000000 0.901336
Si Si4 0.536338 0.810183 0.212567
Si Si5 0.689896 0.694874 0.773420
Si Si6 0.433064 0.341087 0.577460
Si Si7 0.656074 0.028783 0.767372
Si Si8 0.513887 0.065741 0.637932
O O1 0.543577 0.949346 0.350410
O O2 0.551526 0.878027 0.235376
O O3 0.715233 0.948961 0.267808
O O4 0.664732 0.856384 0.338338
O O5 0.504968 0.570058 0.453221
O O6 0.432933 0.623785 0.348117
O O7 0.599234 0.553625 0.334699
O O8 0.644660 0.649653 0.395858
O O9 0.901623 0.974431 0.949019
O O10 0.440947 0.788538 0.263843
O O11 0.474121 0.806061 0.141893
O O12 0.750000 0.750000 0.806314
O O13 0.715056 0.634896 0.811521
O O14 0.408148 0.291728 0.522224
O O15 0.585113 0.055095 0.705934
O O16 0.500000 0.000000 0.610111
#
# Coordination Sequence:
#
# PCOD9371080 Si02
#       8
#    16  16   8  16  16  16  16  16
#     4  11  26  44  72 101 139 191 241 302 381 438
#     4  10  21  38  67  97 136 186 228 285 359 426
#     4  12  24  50  74 100 146 190 242 308 380 456
#     4  11  25  45  71  99 135 184 243 295 368 455
#     4  11  24  40  64  99 134 177 231 291 354 431
#     4  11  22  44  68  97 140 188 233 293 365 439
#     4  11  21  42  69  98 138 189 239 289 359 447
#     4  11  24  41  65 106 141 177 242 301 356 436
#
# _framework density 22.352077999999999
#
# number of rings (size 3 to 8) (size 9 to 14) (size 15 to 20)
#    0.000    1.067    1.333    6.000    2.800    1.067 
#    3.600    0.000    0.000    0.000    0.000    0.000 
#    0.000    0.000    0.000    0.000    0.000    0.000 
#
# Total GULP energy -167598.186473 kJ/mol
# GULP energy per Si atom -5586.606216 kJ/mol
# Density = 2.230120 g / cm^3
# Si number density = 22.352078 Si / 1000 Ang^3
#
#
#
# Elastic Constant Matrix: (Units=GPa)
#
#
# Indices 1 2 3 4 5 6 
#
# 1 130.3857 42.1704 8.8977 0.0000 0.0000 0.0000
# 2 42.1704 112.5604 18.8249 0.0000 0.0000 0.0000
# 3 8.8977 18.8249 46.9649 0.0000 0.0000 0.0000
# 4 0.0000 0.0000 0.0000 34.8037 0.0000 0.0000
# 5 0.0000 0.0000 0.0000 0.0000 22.3846 0.0000
# 6 0.0000 0.0000 0.0000 0.0000 0.0000 43.4151
#
#
#
# Elastic Compliance Matrix: (Units=1/GPa)
#
#
# Indices 1 2 3 4 5 6 
#
# 1 0.008733 -0.003210 -0.000368 0.000000 0.000000 0.000000
# 2 -0.003210 0.010703 -0.003682 0.000000 0.000000 0.000000
# 3 -0.000368 -0.003682 0.022838 0.000000 0.000000 0.000000
# 4 0.000000 0.000000 0.000000 0.028733 0.000000 0.000000
# 5 0.000000 0.000000 0.000000 0.000000 0.044674 0.000000
# 6 0.000000 0.000000 0.000000 0.000000 0.000000 0.023033
#
#
# Mechanical properties :
#
#
# Convention : Reuss Voigt Hill
#
# Bulk Modulus (GPa) = 36.03082 47.74411 41.88746
# Shear Modulus (GPa) = 30.77231 34.78856 32.78043
#
# Velocity S-wave (km/s) = 3.71443 3.94939 3.83371
# Velocity P-wave (km/s) = 5.87798 6.49641 6.19492
#
# Compressibility (1/GPa) = 0.02775402
#
# Stress axis : x y z
#
# Youngs Moduli (GPa) = 114.50902 93.43547 43.78685
#
# Poissons Ratio (x) = 0.29995 0.01610
# Poissons Ratio (y) = 0.36760 0.16121
# Poissons Ratio (z) = 0.04211 0.34400
#
# Static dielectric constant tensor:
#      x y z
#    x 1.867400 0.000000 0.000000 
#    y 0.000000 1.818260 0.000000 
#    z 0.000000 0.000000 1.823640 
# 
# From -- ./inp_files/17263.got.cif
#   From: 2010.05.17/outbox.cif.g08.bks.cpg/sg43_9_cif.got.tgz:17263.got - 2010.06.03 19:21:55.
