data_PCOD9371091
_publ_section_title
;
Structure prediction by ZEFSAII (Michael W. Deem and Ramdas Pophale) SiO2 
 PCOD9371091
Probable space group: F D D 2
;
_chemical_formula_sum "Si O2"
_cell_formula_units_Z 112
_cell_length_a 25.118965
_cell_length_b 14.266544
_cell_length_c 14.562889
_cell_angle_alpha 90.000000
_cell_angle_beta 90.000000
_cell_angle_gamma 90.000000
_cell_volume 5218.768835
_symmetry_space_group_name_H-M "F D D 2"
_symmetry_group_IT_number 43
_symmetry_cell_setting 'orthorhombic'
loop_
_space_group_symop_operation_xyz
x,y,z
-x,-y,z
1/4-x,1/4+y,1/4+z
1/4+x,1/4-y,1/4+z
x,1/2+y,1/2+z
-x,1/2-y,1/2+z
1/4-x,3/4+y,3/4+z
1/4+x,3/4-y,3/4+z
1/2+x,y,1/2+z
1/2-x,-y,1/2+z
3/4-x,1/4+y,3/4+z
3/4+x,1/4-y,3/4+z
1/2+x,1/2+y,z
1/2-x,1/2-y,z
3/4-x,3/4+y,1/4+z
3/4+x,3/4-y,1/4+z
loop_
_atom_site_type_symbol
_atom_site_label
_atom_site_fract_x
_atom_site_fract_y
_atom_site_fract_z
Si Si1 0.982871 0.368356 0.225400
Si Si2 0.508976 0.331463 0.276243
Si Si3 0.250000 0.750000 0.735122
Si Si4 0.316382 0.122706 0.361715
Si Si5 0.250000 0.750000 0.308134
Si Si6 0.569057 0.590841 0.423036
Si Si7 0.825745 0.788553 0.071026
Si Si8 0.148365 0.230818 0.501171
O O1 0.962317 0.266959 0.256218
O O2 0.994459 0.408281 0.123169
O O3 0.040363 0.380150 0.274708
O O4 0.942780 0.445315 0.267858
O O5 0.464087 0.328695 0.197442
O O6 0.479005 0.353625 0.371687
O O7 0.548355 0.418446 0.260468
O O8 0.271870 0.663972 0.794559
O O9 0.199919 0.721111 0.671974
O O10 0.361958 0.057978 0.319475
O O11 0.347115 0.209895 0.408036
O O12 0.201095 0.756945 0.237772
O O13 0.603596 0.547869 0.339644
O O14 0.600024 0.661504 0.487949
#
# Coordination Sequence:
#
# PCOD9371091 Si02
#       8
#    16  16   8  16   8  16  16  16
#     4   9  22  45  65  92 141 176 224 278 339 419
#     4  11  22  43  64  97 138 171 223 287 339 408
#     4  10  21  39  62 104 128 162 240 275 329 406
#     4  11  21  39  69  97 131 175 222 286 343 396
#     4  10  21  47  66  88 134 184 222 267 347 408
#     4  11  23  44  69  97 134 180 224 285 342 418
#     4   9  22  42  65  94 132 180 218 280 334 412
#     4  11  24  39  66 101 136 170 230 280 349 407
#
# _framework density 21.460999999999999
#
# number of rings (size 3 to 8) (size 9 to 14) (size 15 to 20)
#    0.000    2.000    2.857    1.714    8.000    0.000 
#    7.714    1.429    0.000    0.000    0.000    0.000 
#    0.000    0.000    0.000    0.000    0.000    0.000 
#
# Total GULP energy -156191.044161 kJ/mol
# GULP energy per Si atom -5578.251577 kJ/mol
# Density = 2.141215 g / cm^3
# Si number density = 21.461000 Si / 1000 Ang^3
#
#
#
# Elastic Constant Matrix: (Units=GPa)
#
#
# Indices 1 2 3 4 5 6 
#
# 1 55.6935 8.8632 15.4753 0.0000 0.0000 0.0000
# 2 8.8632 69.7936 19.9857 0.0000 0.0000 0.0000
# 3 15.4753 19.9857 90.9278 0.0000 0.0000 0.0000
# 4 0.0000 0.0000 0.0000 1.3885 0.0000 0.0000
# 5 0.0000 0.0000 0.0000 0.0000 8.7464 0.0000
# 6 0.0000 0.0000 0.0000 0.0000 0.0000 27.5384
#
#
#
# Elastic Compliance Matrix: (Units=1/GPa)
#
#
# Indices 1 2 3 4 5 6 
#
# 1 0.019010 -0.001588 -0.002886 0.000000 0.000000 0.000000
# 2 -0.001588 0.015423 -0.003120 0.000000 0.000000 0.000000
# 3 -0.002886 -0.003120 0.012175 0.000000 0.000000 0.000000
# 4 0.000000 0.000000 0.000000 0.720178 0.000000 0.000000
# 5 0.000000 0.000000 0.000000 0.000000 0.114332 0.000000
# 6 0.000000 0.000000 0.000000 0.000000 0.000000 0.036313
#
#
# Mechanical properties :
#
#
# Convention : Reuss Voigt Hill
#
# Bulk Modulus (GPa) = 31.82664 33.89594 32.86129
# Shear Modulus (GPa) = 5.30171 19.00739 12.15455
#
# Velocity S-wave (km/s) = 1.57345 2.97925 2.38240
# Velocity P-wave (km/s) = 4.26183 5.25957 4.78677
#
# Compressibility (1/GPa) = 0.03142022
#
# Stress axis : x y z
#
# Youngs Moduli (GPa) = 52.60363 64.83862 82.13760
#
# Poissons Ratio (x) = 0.10294 0.23709
# Poissons Ratio (y) = 0.08351 0.25625
# Poissons Ratio (z) = 0.15184 0.20228
#
# Static dielectric constant tensor:
#      x y z
#    x 1.795560 0.000000 0.000000 
#    y 0.000000 1.956590 0.000000 
#    z 0.000000 0.000000 1.795690 
# 
# From -- ./inp_files/11291.got.cif
#   From: 2010.05.17/outbox.cif.g08.bks.cpg/sg43_6_cif.got.tgz:11291.got - 2010.06.03 19:21:55.
