data_PCOD9371866
_publ_section_title
;
Structure prediction by ZEFSAII (Michael W. Deem and Ramdas Pophale) SiO2 
 PCOD9371866
Probable space group: F D D 2
;
_chemical_formula_sum "Si O2"
_cell_formula_units_Z 88
_cell_length_a 21.409691
_cell_length_b 17.483143
_cell_length_c 9.470686
_cell_angle_alpha 90.000000
_cell_angle_beta 90.000000
_cell_angle_gamma 90.000000
_cell_volume 3544.960064
_symmetry_space_group_name_H-M "F D D 2"
_symmetry_group_IT_number 43
_symmetry_cell_setting 'orthorhombic'
loop_
_space_group_symop_operation_xyz
x,y,z
-x,-y,z
1/4-x,1/4+y,1/4+z
1/4+x,1/4-y,1/4+z
x,1/2+y,1/2+z
-x,1/2-y,1/2+z
1/4-x,3/4+y,3/4+z
1/4+x,3/4-y,3/4+z
1/2+x,y,1/2+z
1/2-x,-y,1/2+z
3/4-x,1/4+y,3/4+z
3/4+x,1/4-y,3/4+z
1/2+x,1/2+y,z
1/2-x,1/2-y,z
3/4-x,3/4+y,1/4+z
3/4+x,3/4-y,1/4+z
loop_
_atom_site_type_symbol
_atom_site_label
_atom_site_fract_x
_atom_site_fract_y
_atom_site_fract_z
Si Si1 0.996492 0.797774 0.965030
Si Si2 0.327701 0.311287 0.233421
Si Si3 0.750000 0.750000 0.027766
Si Si4 0.577799 0.425537 0.311391
Si Si5 0.366922 0.243841 0.831740
Si Si6 0.785510 0.083114 0.025246
O O1 0.927133 0.784367 0.903852
O O2 0.036425 0.730246 0.896410
O O3 0.998172 0.799253 0.135073
O O4 0.029358 0.876529 0.920767
O O5 0.306549 0.237242 0.147830
O O6 0.323596 0.298650 0.399684
O O7 0.395846 0.346889 0.217785
O O8 0.695954 0.729625 0.910875
O O9 0.617280 0.346638 0.332505
O O10 0.607261 0.483404 0.419947
O O11 0.505715 0.401047 0.337467
#
# Coordination Sequence:
#
# PCOD9371866 Si02
#       6
#    16  16   8  16  16  16
#     4  10  23  45  69  98 145 186 246 305 382 434
#     4  11  25  43  69 106 142 195 242 309 372 457
#     4  12  26  44  72 106 146 192 254 304 372 460
#     4  10  26  44  73 106 150 192 250 307 385 442
#     4  11  24  49  73 111 145 198 249 314 381 458
#     4  10  23  43  66 105 141 195 237 309 368 454
#
# _framework density 24.823974
#
# number of rings (size 3 to 8) (size 9 to 14) (size 15 to 20)
#    0.000    1.455    1.818    1.091   10.182    6.545 
#    0.000    0.000    0.000    0.000    0.000    0.000 
#    0.000    0.000    0.000    0.000    0.000    0.000 
#
# Total GULP energy -122631.698889 kJ/mol
# GULP energy per Si atom -5574.168131 kJ/mol
# Density = 2.476747 g / cm^3
# Si number density = 24.823974 Si / 1000 Ang^3
#
#
#
# Elastic Constant Matrix: (Units=GPa)
#
#
# Indices 1 2 3 4 5 6 
#
# 1 142.9217 22.9976 15.8137 0.0000 0.0000 0.0000
# 2 22.9976 43.7413 6.3731 0.0000 0.0000 0.0001
# 3 15.8137 6.3731 100.9079 -0.0001 0.0002 0.0006
# 4 0.0000 0.0000 -0.0001 12.9204 0.0000 0.0002
# 5 0.0000 0.0000 0.0002 0.0000 50.2640 -0.0002
# 6 0.0000 0.0001 0.0006 0.0002 -0.0002 97.7651
#
#
#
# Elastic Compliance Matrix: (Units=1/GPa)
#
#
# Indices 1 2 3 4 5 6 
#
# 1 0.007735 -0.003926 -0.000964 0.000000 0.000000 0.000000
# 2 -0.003926 0.025067 -0.000968 0.000000 0.000000 0.000000
# 3 -0.000964 -0.000968 0.010122 0.000000 0.000000 0.000000
# 4 0.000000 0.000000 0.000000 0.077397 0.000000 0.000000
# 5 0.000000 0.000000 0.000000 0.000000 0.019895 0.000000
# 6 0.000000 0.000000 0.000000 0.000000 0.000000 0.010229
#
#
# Mechanical properties :
#
#
# Convention : Reuss Voigt Hill
#
# Bulk Modulus (GPa) = 32.04349 41.99329 37.01839
# Shear Modulus (GPa) = 28.97458 48.34900 38.66179
#
# Velocity S-wave (km/s) = 3.42014 4.41803 3.95072
# Velocity P-wave (km/s) = 5.34161 6.55580 5.97960
#
# Compressibility (1/GPa) = 0.03120758
#
# Stress axis : x y z
#
# Youngs Moduli (GPa) = 129.27684 39.89291 98.79208
#
# Poissons Ratio (x) = 0.15664 0.09526
# Poissons Ratio (y) = 0.50760 0.09562
# Poissons Ratio (z) = 0.12466 0.03861
#
# Static dielectric constant tensor:
#      x y z
#    x 2.023570 0.000000 0.000000 
#    y 0.000000 2.436380 0.000000 
#    z 0.000000 0.000000 1.941390 
# 
# From -- ./inp_files/3685.got.cif
#   From: 2010.05.17/outbox.cif.g08.bks.cpg/sg43_2_cif.got.tgz:3685.got - 2010.06.03 19:21:55.
