data_PCOD9371897
_publ_section_title
;
Structure prediction by ZEFSAII (Michael W. Deem and Ramdas Pophale) SiO2 
 PCOD9371897
Probable space group: F D D 2
;
_chemical_formula_sum "Si O2"
_cell_formula_units_Z 88
_cell_length_a 6.525359
_cell_length_b 28.596984
_cell_length_c 19.048195
_cell_angle_alpha 90.000000
_cell_angle_beta 90.000000
_cell_angle_gamma 90.000000
_cell_volume 3554.499608
_symmetry_space_group_name_H-M "F D D 2"
_symmetry_group_IT_number 43
_symmetry_cell_setting 'orthorhombic'
loop_
_space_group_symop_operation_xyz
x,y,z
-x,-y,z
1/4-x,1/4+y,1/4+z
1/4+x,1/4-y,1/4+z
x,1/2+y,1/2+z
-x,1/2-y,1/2+z
1/4-x,3/4+y,3/4+z
1/4+x,3/4-y,3/4+z
1/2+x,y,1/2+z
1/2-x,-y,1/2+z
3/4-x,1/4+y,3/4+z
3/4+x,1/4-y,3/4+z
1/2+x,1/2+y,z
1/2-x,1/2-y,z
3/4-x,3/4+y,1/4+z
3/4+x,3/4-y,1/4+z
loop_
_atom_site_type_symbol
_atom_site_label
_atom_site_fract_x
_atom_site_fract_y
_atom_site_fract_z
Si Si1 0.215229 0.898312 0.454430
Si Si2 0.000000 0.500000 0.696973
Si Si3 0.485617 0.418750 0.091350
Si Si4 0.912858 0.067397 0.873502
Si Si5 0.844069 0.957821 0.498357
Si Si6 0.338466 0.207169 0.978388
O O1 0.344674 0.912983 0.523047
O O2 0.354098 0.918585 0.392858
O O3 0.186388 0.843271 0.445092
O O4 0.996194 0.918805 0.469856
O O5 0.082913 0.541646 0.646311
O O6 0.824486 0.527679 0.739692
O O7 0.463183 0.366438 0.121885
O O8 0.702044 0.437922 0.060717
O O9 0.808875 0.034157 0.931695
O O10 0.939985 0.046533 0.796411
O O11 0.000000 0.000000 0.514125
O O12 0.250000 0.250000 0.933895
#
# Coordination Sequence:
#
# PCOD9371897 Si02
#       6
#    16   8  16  16  16  16
#     4  10  23  45  72 100 137 186 242 294 361 432
#     4  12  24  42  70  98 144 182 234 286 360 428
#     4  10  23  44  68 101 142 186 234 297 354 434
#     4  10  24  45  69  98 146 184 236 297 359 427
#     4  11  24  42  73 106 137 185 245 295 362 429
#     4  11  26  42  64 102 138 182 231 288 356 424
#
# _framework density 24.757353999999999
#
# number of rings (size 3 to 8) (size 9 to 14) (size 15 to 20)
#    0.000    1.455    0.000    3.273    2.545   13.818 
#    0.000    0.000    0.000    0.000    0.000    0.000 
#    0.000    0.000    0.000    0.000    0.000    0.000 
#
# Total GULP energy -122925.377836 kJ/mol
# GULP energy per Si atom -5587.517174 kJ/mol
# Density = 2.470100 g / cm^3
# Si number density = 24.757354 Si / 1000 Ang^3
#
#
#
# Elastic Constant Matrix: (Units=GPa)
#
#
# Indices 1 2 3 4 5 6 
#
# 1 133.0391 53.2380 27.1009 0.0000 0.0000 0.0000
# 2 53.2380 160.7391 25.5884 0.0000 0.0000 0.0000
# 3 27.1009 25.5884 71.8542 0.0000 0.0000 0.0000
# 4 0.0000 0.0000 0.0000 480.7944 0.0000 0.0000
# 5 0.0000 0.0000 0.0000 0.0000 22.9657 0.0000
# 6 0.0000 0.0000 0.0000 0.0000 0.0000 58.0880
#
#
#
# Elastic Compliance Matrix: (Units=1/GPa)
#
#
# Indices 1 2 3 4 5 6 
#
# 1 0.009067 -0.002606 -0.002492 0.000000 0.000000 0.000000
# 2 -0.002606 0.007344 -0.001632 0.000000 0.000000 0.000000
# 3 -0.002492 -0.001632 0.015438 0.000000 0.000000 0.000000
# 4 0.000000 0.000000 0.000000 0.002080 0.000000 0.000000
# 5 0.000000 0.000000 0.000000 0.000000 0.043543 0.000000
# 6 0.000000 0.000000 0.000000 0.000000 0.000000 0.017215
#
#
# Mechanical properties :
#
#
# Convention : Reuss Voigt Hill
#
# Bulk Modulus (GPa) = 54.38101 64.16521 59.27311
# Shear Modulus (GPa) = 43.75275 129.68330 86.71803
#
# Velocity S-wave (km/s) = 4.20844 7.24537 5.92480
# Velocity P-wave (km/s) = 6.75485 9.79632 8.41415
#
# Compressibility (1/GPa) = 0.01838877
#
# Stress axis : x y z
#
# Youngs Moduli (GPa) = 110.28798 136.15802 64.77467
#
# Poissons Ratio (x) = 0.35489 0.16139
# Poissons Ratio (y) = 0.28746 0.10574
# Poissons Ratio (z) = 0.27480 0.22226
#
# Static dielectric constant tensor:
#      x y z
#    x 2.824770 0.000000 0.000000 
#    y 0.000000 1.718460 0.000000 
#    z 0.000000 0.000000 1.962840 
# 
# From -- ./inp_files/19556.got.cif
#   From: 2010.05.17/outbox.cif.g08.bks.cpg/sg43_10_cif.got.tgz:19556.got - 2010.06.03 19:21:55.
