data_PCOD9371994
_publ_section_title
;
Structure prediction by ZEFSAII (Michael W. Deem and Ramdas Pophale) SiO2 
 PCOD9371994
Probable space group: F D D 2
;
_chemical_formula_sum "Si O2"
_cell_formula_units_Z 64
_cell_length_a 8.431808
_cell_length_b 11.782658
_cell_length_c 23.139940
_cell_angle_alpha 90.000000
_cell_angle_beta 90.000000
_cell_angle_gamma 90.000000
_cell_volume 2298.932444
_symmetry_space_group_name_H-M "F D D 2"
_symmetry_group_IT_number 43
_symmetry_cell_setting 'orthorhombic'
loop_
_space_group_symop_operation_xyz
x,y,z
-x,-y,z
1/4-x,1/4+y,1/4+z
1/4+x,1/4-y,1/4+z
x,1/2+y,1/2+z
-x,1/2-y,1/2+z
1/4-x,3/4+y,3/4+z
1/4+x,3/4-y,3/4+z
1/2+x,y,1/2+z
1/2-x,-y,1/2+z
3/4-x,1/4+y,3/4+z
3/4+x,1/4-y,3/4+z
1/2+x,1/2+y,z
1/2-x,1/2-y,z
3/4-x,3/4+y,1/4+z
3/4+x,3/4-y,1/4+z
loop_
_atom_site_type_symbol
_atom_site_label
_atom_site_fract_x
_atom_site_fract_y
_atom_site_fract_z
Si Si1 0.160837 0.572482 0.189250
Si Si2 0.206407 0.118339 0.498941
Si Si3 0.223472 0.998025 0.878036
Si Si4 0.791842 0.933649 0.093978
O O1 0.235198 0.876913 0.240405
O O2 0.287998 0.499687 0.154262
O O3 0.000241 0.772992 0.295511
O O4 0.116429 0.668985 0.142890
O O5 0.250000 0.250000 0.512186
O O6 0.286494 0.064133 0.440926
O O7 0.199778 0.891774 0.835030
O O8 0.093618 0.089834 0.857187
O O9 0.750000 0.750000 0.953319
#
# Coordination Sequence:
#
# PCOD9371994 Si02
#       4
#    16  16  16  16
#     4  10  23  48  82 121 176 218 284 367 431 522
#     4  12  25  49  91 125 169 239 295 362 457 533
#     4  10  23  49  82 117 174 218 289 366 425 523
#     4  10  24  51  79 126 170 224 288 366 438 523
#
# _framework density 27.839006999999999
#
# number of rings (size 3 to 8) (size 9 to 14) (size 15 to 20)
#    0.000    1.500    2.500    0.750    0.000    8.000 
#   22.500    5.000   16.500    0.000    0.000    0.000 
#    0.000    0.000    0.000    0.000    0.000    0.000 
#
# Total GULP energy -89356.458113 kJ/mol
# GULP energy per Si atom -5584.778632 kJ/mol
# Density = 2.777564 g / cm^3
# Si number density = 27.839007 Si / 1000 Ang^3
#
#
#
# Elastic Constant Matrix: (Units=GPa)
#
#
# Indices 1 2 3 4 5 6 
#
# 1 150.1167 87.9689 45.1706 0.0000 0.0000 0.0000
# 2 87.9689 243.1807 82.0298 0.0000 0.0000 0.0000
# 3 45.1706 82.0298 104.3043 0.0000 0.0000 0.0000
# 4 0.0000 0.0000 0.0000 36.0233 0.0000 0.0000
# 5 0.0000 0.0000 0.0000 0.0000 34.9826 0.0000
# 6 0.0000 0.0000 0.0000 0.0000 0.0000 74.4916
#
#
#
# Elastic Compliance Matrix: (Units=1/GPa)
#
#
# Indices 1 2 3 4 5 6 
#
# 1 0.008684 -0.002549 -0.001756 0.000000 0.000000 0.000000
# 2 -0.002549 0.006345 -0.003886 0.000000 0.000000 0.000000
# 3 -0.001756 -0.003886 0.013404 0.000000 0.000000 0.000000
# 4 0.000000 0.000000 0.000000 0.027760 0.000000 0.000000
# 5 0.000000 0.000000 0.000000 0.000000 0.028586 0.000000
# 6 0.000000 0.000000 0.000000 0.000000 0.000000 0.013424
#
#
# Mechanical properties :
#
#
# Convention : Reuss Voigt Hill
#
# Bulk Modulus (GPa) = 82.98398 103.10450 93.04424
# Shear Modulus (GPa) = 42.15795 47.92833 45.04314
#
# Velocity S-wave (km/s) = 3.89568 4.15375 4.02678
# Velocity P-wave (km/s) = 7.07873 7.75379 7.42393
#
# Compressibility (1/GPa) = 0.01205052
#
# Stress axis : x y z
#
# Youngs Moduli (GPa) = 115.16075 157.60133 74.60384
#
# Poissons Ratio (x) = 0.40171 0.13100
# Poissons Ratio (y) = 0.29353 0.28993
# Poissons Ratio (z) = 0.20222 0.61248
#
# Static dielectric constant tensor:
#      x y z
#    x 2.259240 0.000000 0.000000 
#    y 0.000000 2.249120 0.000000 
#    z 0.000000 0.000000 2.189340 
# 
# From -- ./inp_files/20800.got.cif
#   From: 2010.05.17/outbox.cif.g08.bks.cpg/sg43_11_cif.got.tgz:20800.got - 2010.06.03 19:21:55.
