data_PCOD9371262
_publ_section_title
;
Structure prediction by ZEFSAII (Michael W. Deem and Ramdas Pophale) SiO2 
 PCOD9371262
Probable space group: F D D 2
;
_chemical_formula_sum "Si O2"
_cell_formula_units_Z 88
_cell_length_a 21.880879
_cell_length_b 26.388605
_cell_length_c 6.854332
_cell_angle_alpha 90.000000
_cell_angle_beta 90.000000
_cell_angle_gamma 90.000000
_cell_volume 3957.731552
_symmetry_space_group_name_H-M "F D D 2"
_symmetry_group_IT_number 43
_symmetry_cell_setting 'orthorhombic'
loop_
_space_group_symop_operation_xyz
x,y,z
-x,-y,z
1/4-x,1/4+y,1/4+z
1/4+x,1/4-y,1/4+z
x,1/2+y,1/2+z
-x,1/2-y,1/2+z
1/4-x,3/4+y,3/4+z
1/4+x,3/4-y,3/4+z
1/2+x,y,1/2+z
1/2-x,-y,1/2+z
3/4-x,1/4+y,3/4+z
3/4+x,1/4-y,3/4+z
1/2+x,1/2+y,z
1/2-x,1/2-y,z
3/4-x,3/4+y,1/4+z
3/4+x,3/4-y,1/4+z
loop_
_atom_site_type_symbol
_atom_site_label
_atom_site_fract_x
_atom_site_fract_y
_atom_site_fract_z
Si Si1 0.665087 0.087257 0.804020
Si Si2 0.972047 0.388477 0.772384
Si Si3 0.000000 0.000000 0.363105
Si Si4 0.211372 0.941868 0.309683
Si Si5 0.874317 0.257165 0.323842
Si Si6 0.673696 0.509864 0.967896
O O1 0.601873 0.117573 0.767802
O O2 0.673242 0.059828 0.597881
O O3 0.727658 0.113525 0.877980
O O4 0.649216 0.044094 0.967216
O O5 0.985266 0.362278 0.985120
O O6 0.981657 0.448810 0.752604
O O7 0.942468 0.015533 0.492050
O O8 0.167736 0.947253 0.496554
O O9 0.264974 0.982605 0.343053
O O10 0.176312 0.965404 0.123941
O O11 0.873851 0.249245 0.554035
#
# Coordination Sequence:
#
# PCOD9371262 Si02
#       6
#    16  16   8  16  16  16
#     4  10  23  41  67  96 137 172 226 274 340 397
#     4  11  22  45  65 100 135 185 219 280 336 405
#     4  10  24  44  66  90 148 184 216 268 346 400
#     4  11  20  37  70  97 126 163 225 269 332 389
#     4  10  21  42  68  99 133 173 214 284 332 404
#     4  11  20  40  66 101 125 163 218 286 326 394
#
# _framework density 22.234957999999999
#
# number of rings (size 3 to 8) (size 9 to 14) (size 15 to 20)
#    0.000    1.455    3.636    2.182    0.000    0.000 
#    9.818    8.182    0.000    0.000    0.000    0.000 
#    0.000    0.000    0.000    0.000    0.000    0.000 
#
# Total GULP energy -122619.703070 kJ/mol
# GULP energy per Si atom -5573.622867 kJ/mol
# Density = 2.218435 g / cm^3
# Si number density = 22.234958 Si / 1000 Ang^3
#
#
#
# Elastic Constant Matrix: (Units=GPa)
#
#
# Indices 1 2 3 4 5 6 
#
# 1 93.6841 24.4293 15.6102 0.0084 -0.0052 -0.0051
# 2 24.4293 92.8659 25.1208 0.0005 -0.0051 -0.0005
# 3 15.6102 25.1208 99.7795 0.0073 -0.0161 -0.0052
# 4 0.0084 0.0005 0.0073 -3.9907 -0.0094 -0.0028
# 5 -0.0052 -0.0051 -0.0161 -0.0094 8.4858 0.0054
# 6 -0.0051 -0.0005 -0.0052 -0.0028 0.0054 29.2739
#
#
#
# Elastic Compliance Matrix: (Units=1/GPa)
#
#
# Indices 1 2 3 4 5 6 
#
# 1 0.011576 -0.002742 -0.001121 0.000022 0.000003 0.000002
# 2 -0.002742 0.012205 -0.002644 -0.000009 0.000001 -0.000001
# 3 -0.001121 -0.002644 0.010863 0.000017 0.000018 0.000002
# 4 0.000022 -0.000009 0.000017 -0.250583 -0.000278 -0.000024
# 5 0.000003 0.000001 0.000018 -0.000278 0.117844 -0.000022
# 6 0.000002 -0.000001 0.000002 -0.000024 -0.000022 0.034160
#
#
# Mechanical properties :
#
#
# Convention : Reuss Voigt Hill
#
# Bulk Modulus (GPa) = 46.23035 46.29444 46.26240
# Shear Modulus (GPa) = -114.38450 21.49841 -46.44305
#
# Velocity S-wave (km/s) = -7.18020 3.11283 -4.57523
# Velocity P-wave (km/s) = 6.92123 5.81252 2.65688
#
# Compressibility (1/GPa) = 0.02163081
#
# Stress axis : x y z
#
# Youngs Moduli (GPa) = 86.38622 81.93590 92.05547
#
# Poissons Ratio (x) = 0.22467 0.10317
# Poissons Ratio (y) = 0.23687 0.24337
# Poissons Ratio (z) = 0.09681 0.21661
#
# Static dielectric constant tensor:
#      x y z
#    x 1.809100 0.000010 0.000000 
#    y 0.000010 1.929740 -0.000010 
#    z 0.000000 -0.000010 1.845930 
# 
# From -- ./inp_files/1033.got.cif
#   From: 2010.05.17/outbox.cif.g08.bks.cpg/sg43_1_cif.got.tgz:1033.got - 2010.06.03 19:21:55.
