data_PCOD9371526
_publ_section_title
;
Structure prediction by ZEFSAII (Michael W. Deem and Ramdas Pophale) SiO2 
 PCOD9371526
Probable space group: F D D 2
;
_chemical_formula_sum "Si O2"
_cell_formula_units_Z 96
_cell_length_a 20.358731
_cell_length_b 10.556980
_cell_length_c 20.196215
_cell_angle_alpha 90.000000
_cell_angle_beta 90.000000
_cell_angle_gamma 90.000000
_cell_volume 4340.706165
_symmetry_space_group_name_H-M "F D D 2"
_symmetry_group_IT_number 43
_symmetry_cell_setting 'orthorhombic'
loop_
_space_group_symop_operation_xyz
x,y,z
-x,-y,z
1/4-x,1/4+y,1/4+z
1/4+x,1/4-y,1/4+z
x,1/2+y,1/2+z
-x,1/2-y,1/2+z
1/4-x,3/4+y,3/4+z
1/4+x,3/4-y,3/4+z
1/2+x,y,1/2+z
1/2-x,-y,1/2+z
3/4-x,1/4+y,3/4+z
3/4+x,1/4-y,3/4+z
1/2+x,1/2+y,z
1/2-x,1/2-y,z
3/4-x,3/4+y,1/4+z
3/4+x,3/4-y,1/4+z
loop_
_atom_site_type_symbol
_atom_site_label
_atom_site_fract_x
_atom_site_fract_y
_atom_site_fract_z
Si Si1 0.606853 0.442893 0.542560
Si Si2 0.569103 0.457611 0.055764
Si Si3 0.441445 0.210612 0.372435
Si Si4 0.242661 0.900705 0.483751
Si Si5 0.374989 0.201379 0.171351
Si Si6 0.022713 0.189415 0.506794
O O1 0.665811 0.432512 0.489334
O O2 0.631360 0.410923 0.617491
O O3 0.568472 0.573995 0.531225
O O4 0.550662 0.337486 0.530971
O O5 0.500000 0.500000 0.084363
O O6 0.627190 0.458573 0.106971
O O7 0.590787 0.550523 0.994403
O O8 0.556701 0.317301 0.030631
O O9 0.481735 0.188459 0.306278
O O10 0.479911 0.286082 0.428355
O O11 0.412190 0.073113 0.391709
O O12 0.250000 0.750000 0.473078
O O13 0.296512 0.964741 0.435309
#
# Coordination Sequence:
#
# PCOD9371526 Si02
#       6
#    16  16  16  16  16  16
#     4  11  24  45  61 103 139 174 221 277 353 403
#     4  10  22  41  70  96 123 180 228 276 335 400
#     4  10  22  46  66  96 129 174 232 273 329 406
#     4  11  24  41  69 100 127 181 224 276 340 395
#     4  10  23  41  67  98 134 167 228 279 331 407
#     4  10  25  43  63  97 136 175 219 281 343 397
#
# _framework density 22.116218
#
# number of rings (size 3 to 8) (size 9 to 14) (size 15 to 20)
#    0.000    1.667    1.667    1.000    9.333    2.667 
#    6.000    5.833    0.000    0.000    0.000    0.000 
#    0.000    0.000    0.000    0.000    0.000    0.000 
#
# Total GULP energy -133983.538229 kJ/mol
# GULP energy per Si atom -5582.647426 kJ/mol
# Density = 2.206588 g / cm^3
# Si number density = 22.116218 Si / 1000 Ang^3
#
#
#
# Elastic Constant Matrix: (Units=GPa)
#
#
# Indices 1 2 3 4 5 6 
#
# 1 117.8746 6.1082 9.5108 0.0000 0.0000 0.0000
# 2 6.1082 71.9147 11.5997 0.0000 0.0000 0.0000
# 3 9.5108 11.5997 64.3468 0.0000 0.0000 0.0000
# 4 0.0000 0.0000 0.0000 210.7693 0.0000 0.0000
# 5 0.0000 0.0000 0.0000 0.0000 15.6651 0.0000
# 6 0.0000 0.0000 0.0000 0.0000 0.0000 22.7667
#
#
#
# Elastic Compliance Matrix: (Units=1/GPa)
#
#
# Indices 1 2 3 4 5 6 
#
# 1 0.008606 -0.000542 -0.001174 0.000000 0.000000 0.000000
# 2 -0.000542 0.014356 -0.002508 0.000000 0.000000 0.000000
# 3 -0.001174 -0.002508 0.016166 0.000000 0.000000 0.000000
# 4 0.000000 0.000000 0.000000 0.004745 0.000000 0.000000
# 5 0.000000 0.000000 0.000000 0.000000 0.063836 0.000000
# 6 0.000000 0.000000 0.000000 0.000000 0.000000 0.043924
#
#
# Mechanical properties :
#
#
# Convention : Reuss Voigt Hill
#
# Bulk Modulus (GPa) = 32.59347 34.28596 33.43972
# Shear Modulus (GPa) = 29.35853 64.96803 47.16328
#
# Velocity S-wave (km/s) = 3.64739 5.42582 4.62293
# Velocity P-wave (km/s) = 5.70152 7.40196 6.60667
#
# Compressibility (1/GPa) = 0.03068099
#
# Stress axis : x y z
#
# Youngs Moduli (GPa) = 116.19237 69.65793 61.85643
#
# Poissons Ratio (x) = 0.03772 0.07265
# Poissons Ratio (y) = 0.06293 0.15513
# Poissons Ratio (z) = 0.13646 0.17469
#
# Static dielectric constant tensor:
#      x y z
#    x 1.822870 0.000000 0.000000 
#    y 0.000000 1.766560 0.000000 
#    z 0.000000 0.000000 1.861160 
# 
# From -- ./inp_files/18316.got.cif
#   From: 2010.05.17/outbox.cif.g08.bks.cpg/sg43_10_cif.got.tgz:18316.got - 2010.06.03 19:21:55.
