data_PCOD9371319
_publ_section_title
;
Structure prediction by ZEFSAII (Michael W. Deem and Ramdas Pophale) SiO2 
 PCOD9371319
Probable space group: F D D 2
;
_chemical_formula_sum "Si O2"
_cell_formula_units_Z 56
_cell_length_a 11.578939
_cell_length_b 7.864858
_cell_length_c 25.031935
_cell_angle_alpha 90.000000
_cell_angle_beta 90.000000
_cell_angle_gamma 90.000000
_cell_volume 2279.575991
_symmetry_space_group_name_H-M "F D D 2"
_symmetry_group_IT_number 43
_symmetry_cell_setting 'orthorhombic'
loop_
_space_group_symop_operation_xyz
x,y,z
-x,-y,z
1/4-x,1/4+y,1/4+z
1/4+x,1/4-y,1/4+z
x,1/2+y,1/2+z
-x,1/2-y,1/2+z
1/4-x,3/4+y,3/4+z
1/4+x,3/4-y,3/4+z
1/2+x,y,1/2+z
1/2-x,-y,1/2+z
3/4-x,1/4+y,3/4+z
3/4+x,1/4-y,3/4+z
1/2+x,1/2+y,z
1/2-x,1/2-y,z
3/4-x,3/4+y,1/4+z
3/4+x,3/4-y,1/4+z
loop_
_atom_site_type_symbol
_atom_site_label
_atom_site_fract_x
_atom_site_fract_y
_atom_site_fract_z
Si Si1 0.574984 0.751696 0.618100
Si Si2 0.750000 0.250000 0.455450
Si Si3 0.170856 0.087676 0.145264
Si Si4 0.235798 0.439766 0.262325
O O1 0.579680 0.607047 0.663181
O O2 0.456022 0.837769 0.638422
O O3 0.542749 0.694441 0.558052
O O4 0.671531 0.901098 0.618104
O O5 0.648281 0.196104 0.495988
O O6 0.250000 0.250000 0.128794
O O7 0.194487 0.051847 0.207412
O O8 0.250000 0.250000 0.284581
#
# Coordination Sequence:
#
# PCOD9371319 Si02
#       4
#    16   8  16  16
#     4  11  24  42  71 106 141 188 245 296 372 437
#     4  12  26  42  74 110 144 190 246 308 368 444
#     4  10  21  44  68  98 143 182 237 299 351 435
#     4  11  23  44  71 102 143 194 236 298 365 443
#
# _framework density 24.565973
#
# number of rings (size 3 to 8) (size 9 to 14) (size 15 to 20)
#    0.000    1.143    8.571    0.000    2.000    3.429 
#    0.000    5.714    0.000    0.000    0.000    0.000 
#    0.000    0.000    0.000    0.000    0.000    0.000 
#
# Total GULP energy -77975.234874 kJ/mol
# GULP energy per Si atom -5569.659634 kJ/mol
# Density = 2.451006 g / cm^3
# Si number density = 24.565973 Si / 1000 Ang^3
#
#
#
# Elastic Constant Matrix: (Units=GPa)
#
#
# Indices 1 2 3 4 5 6 
#
# 1 70.7754 26.1736 48.4153 0.0000 0.0000 0.0000
# 2 26.1736 102.8015 30.4968 0.0000 0.0000 0.0000
# 3 48.4153 30.4968 145.3240 0.0000 0.0000 0.0000
# 4 0.0000 0.0000 0.0000 6.8154 0.0000 0.0000
# 5 0.0000 0.0000 0.0000 0.0000 49.3917 0.0000
# 6 0.0000 0.0000 0.0000 0.0000 0.0000 37.1920
#
#
#
# Elastic Compliance Matrix: (Units=1/GPa)
#
#
# Indices 1 2 3 4 5 6 
#
# 1 0.019236 -0.003195 -0.005738 0.000000 0.000000 0.000000
# 2 -0.003195 0.010904 -0.001224 0.000000 0.000000 0.000000
# 3 -0.005738 -0.001224 0.009050 0.000000 0.000000 0.000000
# 4 0.000000 0.000000 0.000000 0.146727 0.000000 0.000000
# 5 0.000000 0.000000 0.000000 0.000000 0.020246 0.000000
# 6 0.000000 0.000000 0.000000 0.000000 0.000000 0.026887
#
#
# Mechanical properties :
#
#
# Convention : Reuss Voigt Hill
#
# Bulk Modulus (GPa) = 52.97847 58.78582 55.88214
# Shear Modulus (GPa) = 19.25622 32.93418 26.09520
#
# Velocity S-wave (km/s) = 2.80278 3.66545 3.26275
# Velocity P-wave (km/s) = 5.66451 6.47269 6.08204
#
# Compressibility (1/GPa) = 0.01887559
#
# Stress axis : x y z
#
# Youngs Moduli (GPa) = 51.98563 91.70908 110.50184
#
# Poissons Ratio (x) = 0.29304 0.63406
# Poissons Ratio (y) = 0.16611 0.13522
# Poissons Ratio (z) = 0.29829 0.11223
#
# Static dielectric constant tensor:
#      x y z
#    x 1.968360 0.000000 0.000000 
#    y 0.000000 2.231580 0.000000 
#    z 0.000000 0.000000 1.950070 
# 
# From -- ./inp_files/23800.got.cif
#   From: 2010.05.17/outbox.cif.g08.bks.cpg/sg43_12_cif.got.tgz:23800.got - 2010.06.03 19:21:55.
