data_PCOD9371154
_publ_section_title
;
Structure prediction by ZEFSAII (Michael W. Deem and Ramdas Pophale) SiO2 
 PCOD9371154
Probable space group: F D D 2
;
_chemical_formula_sum "Si O2"
_cell_formula_units_Z 104
_cell_length_a 17.338219
_cell_length_b 11.129972
_cell_length_c 21.944955
_cell_angle_alpha 90.000000
_cell_angle_beta 90.000000
_cell_angle_gamma 90.000000
_cell_volume 4234.803376
_symmetry_space_group_name_H-M "F D D 2"
_symmetry_group_IT_number 43
_symmetry_cell_setting 'orthorhombic'
loop_
_space_group_symop_operation_xyz
x,y,z
-x,-y,z
1/4-x,1/4+y,1/4+z
1/4+x,1/4-y,1/4+z
x,1/2+y,1/2+z
-x,1/2-y,1/2+z
1/4-x,3/4+y,3/4+z
1/4+x,3/4-y,3/4+z
1/2+x,y,1/2+z
1/2-x,-y,1/2+z
3/4-x,1/4+y,3/4+z
3/4+x,1/4-y,3/4+z
1/2+x,1/2+y,z
1/2-x,1/2-y,z
3/4-x,3/4+y,1/4+z
3/4+x,3/4-y,1/4+z
loop_
_atom_site_type_symbol
_atom_site_label
_atom_site_fract_x
_atom_site_fract_y
_atom_site_fract_z
Si Si1 0.000000 0.000000 0.864640
Si Si2 0.189395 0.528636 0.684407
Si Si3 0.506227 0.133532 0.545571
Si Si4 0.286068 0.366234 0.435998
Si Si5 0.143556 0.590554 0.303310
Si Si6 0.185053 0.154716 0.671657
Si Si7 0.487866 0.368083 0.665296
O O1 0.943145 0.916274 0.825706
O O2 0.057334 0.909017 0.902207
O O3 0.192641 0.545451 0.757386
O O4 0.123146 0.429736 0.674719
O O5 0.270097 0.469578 0.665646
O O6 0.495983 0.125719 0.617236
O O7 0.584945 0.203542 0.533493
O O8 0.500000 0.000000 0.521544
O O9 0.250000 0.250000 0.468636
O O10 0.259253 0.498141 0.457842
O O11 0.164772 0.669261 0.244197
O O12 0.201486 0.617104 0.359449
O O13 0.250000 0.250000 0.652678
O O14 0.100909 0.146354 0.641564
O O15 0.500000 0.500000 0.694023
#
# Coordination Sequence:
#
# PCOD9371154 Si02
#       7
#     8  16  16  16  16  16  16
#     4  12  22  40  62 104 134 180 234 288 352 434
#     4  11  21  37  64  94 132 173 231 281 346 428
#     4   9  18  38  61  89 130 177 217 285 350 413
#     4  10  21  40  65  93 132 178 223 283 356 411
#     4  10  24  40  64  99 140 177 233 292 349 422
#     4  11  23  42  68  97 137 184 230 288 353 424
#     4  11  22  42  69  98 134 187 232 289 356 425
#
# _framework density 24.558402000000001
#
# number of rings (size 3 to 8) (size 9 to 14) (size 15 to 20)
#    0.000    1.538    2.308    4.154    1.077    0.000 
#    0.000    1.538   10.154    0.000    0.000    0.000 
#    0.000    0.000    0.000    0.000    0.000    0.000 
#
# Total GULP energy -144820.493276 kJ/mol
# GULP energy per Si atom -5570.018972 kJ/mol
# Density = 2.450251 g / cm^3
# Si number density = 24.558402 Si / 1000 Ang^3
#
#
#
# Elastic Constant Matrix: (Units=GPa)
#
#
# Indices 1 2 3 4 5 6 
#
# 1 122.8184 16.2911 12.5012 0.0000 0.0000 0.0000
# 2 16.2911 148.5043 20.7312 0.0000 0.0000 0.0000
# 3 12.5012 20.7312 35.6112 0.0000 0.0000 0.0000
# 4 0.0000 0.0000 0.0000 13.3159 0.0000 0.0000
# 5 0.0000 0.0000 0.0000 0.0000 17.7208 0.0000
# 6 0.0000 0.0000 0.0000 0.0000 0.0000 41.4304
#
#
#
# Elastic Compliance Matrix: (Units=1/GPa)
#
#
# Indices 1 2 3 4 5 6 
#
# 1 0.008486 -0.000561 -0.002653 0.000000 0.000000 0.000000
# 2 -0.000561 0.007367 -0.004092 0.000000 0.000000 0.000000
# 3 -0.002653 -0.004092 0.031394 0.000000 0.000000 0.000000
# 4 0.000000 0.000000 0.000000 0.075098 0.000000 0.000000
# 5 0.000000 0.000000 0.000000 0.000000 0.056431 0.000000
# 6 0.000000 0.000000 0.000000 0.000000 0.000000 0.024137
#
#
# Mechanical properties :
#
#
# Convention : Reuss Voigt Hill
#
# Bulk Modulus (GPa) = 30.63992 45.10901 37.87446
# Shear Modulus (GPa) = 21.89120 31.65411 26.77266
#
# Velocity S-wave (km/s) = 2.98886 3.59406 3.30534
# Velocity P-wave (km/s) = 4.94110 5.96917 5.47930
#
# Compressibility (1/GPa) = 0.03263716
#
# Stress axis : x y z
#
# Youngs Moduli (GPa) = 117.83441 135.74960 31.85293
#
# Poissons Ratio (x) = 0.07611 0.08450
# Poissons Ratio (y) = 0.06606 0.13033
# Poissons Ratio (z) = 0.31259 0.55544
#
# Static dielectric constant tensor:
#      x y z
#    x 1.993440 0.000000 0.000000 
#    y 0.000000 2.165370 0.000000 
#    z 0.000000 0.000000 1.946430 
# 
# From -- ./inp_files/26015.got.cif
#   From: 2010.05.17/outbox.cif.g08.bks.cpg/sg43_14_cif.got.tgz:26015.got - 2010.06.03 19:21:55.
