data_PCOD9371041
_publ_section_title
;
Structure prediction by ZEFSAII (Michael W. Deem and Ramdas Pophale) SiO2 
 PCOD9371041
Probable space group: F D D 2
;
_chemical_formula_sum "Si O2"
_cell_formula_units_Z 120
_cell_length_a 27.898466
_cell_length_b 7.582290
_cell_length_c 23.287951
_cell_angle_alpha 90.000000
_cell_angle_beta 90.000000
_cell_angle_gamma 90.000000
_cell_volume 4926.199476
_symmetry_space_group_name_H-M "F D D 2"
_symmetry_group_IT_number 43
_symmetry_cell_setting 'orthorhombic'
loop_
_space_group_symop_operation_xyz
x,y,z
-x,-y,z
1/4-x,1/4+y,1/4+z
1/4+x,1/4-y,1/4+z
x,1/2+y,1/2+z
-x,1/2-y,1/2+z
1/4-x,3/4+y,3/4+z
1/4+x,3/4-y,3/4+z
1/2+x,y,1/2+z
1/2-x,-y,1/2+z
3/4-x,1/4+y,3/4+z
3/4+x,1/4-y,3/4+z
1/2+x,1/2+y,z
1/2-x,1/2-y,z
3/4-x,3/4+y,1/4+z
3/4+x,3/4-y,1/4+z
loop_
_atom_site_type_symbol
_atom_site_label
_atom_site_fract_x
_atom_site_fract_y
_atom_site_fract_z
Si Si1 0.423226 0.232864 0.967230
Si Si2 0.093349 0.641930 0.719246
Si Si3 0.750000 0.250000 0.179771
Si Si4 0.695214 0.294544 0.604015
Si Si5 0.822100 0.188094 0.473946
Si Si6 0.169563 0.900233 0.097997
Si Si7 0.198291 0.188084 0.262443
Si Si8 0.184557 0.084397 0.385354
O O1 0.471897 0.129931 0.969937
O O2 0.425290 0.327701 0.903921
O O3 0.376628 0.116781 0.973919
O O4 0.422882 0.371685 0.018888
O O5 0.071793 0.602202 0.781964
O O6 0.152193 0.605067 0.727340
O O7 0.069090 0.514027 0.672841
O O8 0.080260 0.851870 0.710977
O O9 0.787861 0.157254 0.138839
O O10 0.750000 0.250000 0.618001
O O11 0.696831 0.353055 0.537470
O O12 0.666032 0.111971 0.602283
O O13 0.796783 0.075162 0.424684
O O14 0.120665 0.808026 0.116093
O O15 0.250000 0.250000 0.236869
O O16 0.208977 0.102522 0.323379
#
# Coordination Sequence:
#
# PCOD9371041 Si02
#       8
#    16  16   8  16  16  16  16  16
#     4  11  23  40  63  93 130 165 217 277 318 384
#     4   9  22  41  64  86 126 168 208 262 321 380
#     4  12  22  34  62 100 122 156 222 278 310 380
#     4  11  22  40  66  92 124 168 215 275 326 376
#     4  10  23  40  62  96 125 162 215 259 328 392
#     4  10  21  38  59  95 122 158 217 261 319 382
#     4  10  23  41  61  92 125 171 216 256 326 389
#     4  11  22  42  65  89 129 174 206 261 327 393
#
# _framework density 24.359548
#
# number of rings (size 3 to 8) (size 9 to 14) (size 15 to 20)
#    0.000    1.600    2.667    2.800    3.733    0.000 
#    6.000    1.333    0.000    0.000    0.000    0.000 
#    0.000    0.000    0.000    0.000    0.000    0.000 
#
# Total GULP energy -167331.394968 kJ/mol
# GULP energy per Si atom -5577.713166 kJ/mol
# Density = 2.430410 g / cm^3
# Si number density = 24.359548 Si / 1000 Ang^3
#
#
#
# Elastic Constant Matrix: (Units=GPa)
#
#
# Indices 1 2 3 4 5 6 
#
# 1 70.5559 -3.0066 7.0550 0.0000 0.0000 0.0001
# 2 -3.0066 70.1243 40.1509 0.0000 0.0000 0.0002
# 3 7.0550 40.1509 152.4847 0.0000 0.0000 0.0000
# 4 0.0000 0.0000 0.0000 42.8606 0.0000 0.0000
# 5 0.0000 0.0000 0.0000 0.0000 25.2780 0.0000
# 6 0.0001 0.0002 0.0000 0.0000 0.0000 21.1627
#
#
#
# Elastic Compliance Matrix: (Units=1/GPa)
#
#
# Indices 1 2 3 4 5 6 
#
# 1 0.014320 0.001170 -0.000971 0.000000 0.000000 0.000000
# 2 0.001170 0.016888 -0.004501 0.000000 0.000000 0.000000
# 3 -0.000971 -0.004501 0.007788 0.000000 0.000000 0.000000
# 4 0.000000 0.000000 0.000000 0.023331 0.000000 0.000000
# 5 0.000000 0.000000 0.000000 0.000000 0.039560 0.000000
# 6 0.000000 0.000000 0.000000 0.000000 0.000000 0.047253
#
#
# Mechanical properties :
#
#
# Convention : Reuss Voigt Hill
#
# Bulk Modulus (GPa) = 32.90304 42.39597 37.64950
# Shear Modulus (GPa) = 29.78422 34.45797 32.12110
#
# Velocity S-wave (km/s) = 3.50049 3.76514 3.63523
# Velocity P-wave (km/s) = 5.46576 6.02858 5.75405
#
# Compressibility (1/GPa) = 0.03039233
#
# Stress axis : x y z
#
# Youngs Moduli (GPa) = 69.83215 59.21519 128.40188
#
# Poissons Ratio (x) = -0.06926 0.12462
# Poissons Ratio (y) = -0.08168 0.57791
# Poissons Ratio (z) = 0.06777 0.26652
#
# Static dielectric constant tensor:
#      x y z
#    x 2.009030 0.000000 0.000000 
#    y 0.000000 2.038370 0.000000 
#    z 0.000000 0.000000 1.940460 
# 
# From -- ./inp_files/23016.got.cif
#   From: 2010.05.17/outbox.cif.g08.bks.cpg/sg43_12_cif.got.tgz:23016.got - 2010.06.03 19:21:55.
