data_PCOD9371275
_publ_section_title
;
Structure prediction by ZEFSAII (Michael W. Deem and Ramdas Pophale) SiO2 
 PCOD9371275
Probable space group: F D D 2
;
_chemical_formula_sum "Si O2"
_cell_formula_units_Z 88
_cell_length_a 15.067477
_cell_length_b 24.912024
_cell_length_c 11.263984
_cell_angle_alpha 90.000000
_cell_angle_beta 90.000000
_cell_angle_gamma 90.000000
_cell_volume 4228.064225
_symmetry_space_group_name_H-M "F D D 2"
_symmetry_group_IT_number 43
_symmetry_cell_setting 'orthorhombic'
loop_
_space_group_symop_operation_xyz
x,y,z
-x,-y,z
1/4-x,1/4+y,1/4+z
1/4+x,1/4-y,1/4+z
x,1/2+y,1/2+z
-x,1/2-y,1/2+z
1/4-x,3/4+y,3/4+z
1/4+x,3/4-y,3/4+z
1/2+x,y,1/2+z
1/2-x,-y,1/2+z
3/4-x,1/4+y,3/4+z
3/4+x,1/4-y,3/4+z
1/2+x,1/2+y,z
1/2-x,1/2-y,z
3/4-x,3/4+y,1/4+z
3/4+x,3/4-y,1/4+z
loop_
_atom_site_type_symbol
_atom_site_label
_atom_site_fract_x
_atom_site_fract_y
_atom_site_fract_z
Si Si1 0.025589 0.593932 0.041220
Si Si2 0.704392 0.062412 0.160381
Si Si3 0.375822 0.299770 0.941953
Si Si4 0.705674 0.844086 0.298114
Si Si5 0.750000 0.250000 0.638910
Si Si6 0.654794 0.870423 0.551032
O O1 0.942818 0.558955 0.084012
O O2 0.106690 0.585781 0.131114
O O3 0.992919 0.655646 0.024531
O O4 0.063776 0.582384 0.909425
O O5 0.692521 0.999238 0.170528
O O6 0.771595 0.082059 0.057701
O O7 0.422252 0.355279 0.972967
O O8 0.315730 0.282988 0.054474
O O9 0.696899 0.790820 0.221616
O O10 0.656644 0.843029 0.423820
O O11 0.809526 0.854139 0.324929
#
# Coordination Sequence:
#
# PCOD9371275 Si02
#       6
#    16  16  16  16   8  16
#     4  10  21  42  72  98 139 177 236 291 340 420
#     4  10  21  43  68 102 136 177 234 286 347 416
#     4  12  24  44  72 105 139 186 237 290 355 425
#     4  12  25  47  69 100 147 181 231 292 355 426
#     4  12  26  44  70 102 144 182 232 292 358 420
#     4  10  22  46  66 100 140 178 229 293 344 421
#
# _framework density 20.813306999999998
#
# number of rings (size 3 to 8) (size 9 to 14) (size 15 to 20)
#    1.091    0.000    5.455    1.091    0.000    1.455 
#    6.545    0.000    0.000    0.000    0.000    0.000 
#    0.000    0.000    0.000    0.000    0.000    0.000 
#
# Total GULP energy -122778.440731 kJ/mol
# GULP energy per Si atom -5580.838215 kJ/mol
# Density = 2.076593 g / cm^3
# Si number density = 20.813307 Si / 1000 Ang^3
#
#
#
# Elastic Constant Matrix: (Units=GPa)
#
#
# Indices 1 2 3 4 5 6 
#
# 1 50.7235 9.7401 -10.3079 0.0000 0.0000 0.0000
# 2 9.7401 89.3027 15.6589 0.0000 0.0000 0.0000
# 3 -10.3079 15.6589 57.2130 0.0000 0.0000 0.0000
# 4 0.0000 0.0000 0.0000 32.3323 0.0000 0.0000
# 5 0.0000 0.0000 0.0000 0.0000 23.4080 0.0000
# 6 0.0000 0.0000 0.0000 0.0000 0.0000 28.3807
#
#
#
# Elastic Compliance Matrix: (Units=1/GPa)
#
#
# Indices 1 2 3 4 5 6 
#
# 1 0.021272 -0.003143 0.004693 0.000000 0.000000 0.000000
# 2 -0.003143 0.012227 -0.003913 0.000000 0.000000 0.000000
# 3 0.004693 -0.003913 0.019395 0.000000 0.000000 0.000000
# 4 0.000000 0.000000 0.000000 0.030929 0.000000 0.000000
# 5 0.000000 0.000000 0.000000 0.000000 0.042720 0.000000
# 6 0.000000 0.000000 0.000000 0.000000 0.000000 0.035235
#
#
# Mechanical properties :
#
#
# Convention : Reuss Voigt Hill
#
# Bulk Modulus (GPa) = 20.76078 25.26904 23.01491
# Shear Modulus (GPa) = 27.38831 28.96741 28.17786
#
# Velocity S-wave (km/s) = 3.63147 3.73470 3.68345
# Velocity P-wave (km/s) = 5.25166 5.54657 5.40113
#
# Compressibility (1/GPa) = 0.04816776
#
# Stress axis : x y z
#
# Youngs Moduli (GPa) = 47.01037 81.78794 51.55993
#
# Poissons Ratio (x) = 0.25705 -0.24196
# Poissons Ratio (y) = 0.14775 0.20174
# Poissons Ratio (z) = -0.22061 0.32001
#
# Static dielectric constant tensor:
#      x y z
#    x 1.749450 0.000000 0.000000 
#    y 0.000000 1.733990 0.000000 
#    z 0.000000 0.000000 1.763980 
# 
# From -- ./inp_files/6220.got.cif
#   From: 2010.05.17/outbox.cif.g08.bks.cpg/sg43_4_cif.got.tgz:6220.got - 2010.06.03 19:21:55.
