data_PCOD9371552
_publ_section_title
;
Structure prediction by ZEFSAII (Michael W. Deem and Ramdas Pophale) SiO2 
 PCOD9371552
Probable space group: F D D 2
;
_chemical_formula_sum "Si O2"
_cell_formula_units_Z 64
_cell_length_a 7.339425
_cell_length_b 17.291309
_cell_length_c 23.257069
_cell_angle_alpha 90.000000
_cell_angle_beta 90.000000
_cell_angle_gamma 90.000000
_cell_volume 2951.514289
_symmetry_space_group_name_H-M "F D D 2"
_symmetry_group_IT_number 43
_symmetry_cell_setting 'orthorhombic'
loop_
_space_group_symop_operation_xyz
x,y,z
-x,-y,z
1/4-x,1/4+y,1/4+z
1/4+x,1/4-y,1/4+z
x,1/2+y,1/2+z
-x,1/2-y,1/2+z
1/4-x,3/4+y,3/4+z
1/4+x,3/4-y,3/4+z
1/2+x,y,1/2+z
1/2-x,-y,1/2+z
3/4-x,1/4+y,3/4+z
3/4+x,1/4-y,3/4+z
1/2+x,1/2+y,z
1/2-x,1/2-y,z
3/4-x,3/4+y,1/4+z
3/4+x,3/4-y,1/4+z
loop_
_atom_site_type_symbol
_atom_site_label
_atom_site_fract_x
_atom_site_fract_y
_atom_site_fract_z
Si Si1 0.092081 0.078818 0.837650
Si Si2 0.004024 0.085765 0.131472
Si Si3 0.138537 0.058336 0.563211
Si Si4 0.292506 0.992328 0.938917
O O1 0.259028 0.116827 0.802959
O O2 0.931449 0.141680 0.844338
O O3 0.173741 0.050878 0.900282
O O4 0.000000 0.000000 0.813768
O O5 0.010320 0.154413 0.176351
O O6 0.181640 0.913249 0.094957
O O7 0.000000 0.000000 0.156610
O O8 0.200071 0.008574 0.507654
O O9 0.000000 0.000000 0.596827
O O10 0.500000 0.000000 0.918525
#
# Coordination Sequence:
#
# PCOD9371552 Si02
#       4
#    16  16  16  16
#     4  10  22  42  65  92 133 175 220 279 334 397
#     4  11  22  40  63  95 132 171 217 285 327 398
#     4  11  22  42  67  97 130 175 228 275 338 400
#     4  10  22  42  66  91 131 180 218 277 343 393
#
# _framework density 21.683783999999999
#
# number of rings (size 3 to 8) (size 9 to 14) (size 15 to 20)
#    0.000    1.500    5.000    0.000    0.000    3.000 
#    9.000    1.250    0.000    0.000    0.000    0.000 
#    0.000    0.000    0.000    0.000    0.000    0.000 
#
# Total GULP energy -89072.939562 kJ/mol
# GULP energy per Si atom -5567.058723 kJ/mol
# Density = 2.163443 g / cm^3
# Si number density = 21.683784 Si / 1000 Ang^3
#
#
#
# Elastic Constant Matrix: (Units=GPa)
#
#
# Indices 1 2 3 4 5 6 
#
# 1 143.7209 37.5924 22.7795 0.0000 0.0000 0.0000
# 2 37.5924 113.9460 27.3481 0.0000 0.0000 0.0000
# 3 22.7795 27.3481 47.9557 0.0000 0.0000 0.0000
# 4 0.0000 0.0000 0.0000 33.1493 0.0000 0.0000
# 5 0.0000 0.0000 0.0000 0.0000 13.5799 0.0000
# 6 0.0000 0.0000 0.0000 0.0000 0.0000 53.2878
#
#
#
# Elastic Compliance Matrix: (Units=1/GPa)
#
#
# Indices 1 2 3 4 5 6 
#
# 1 0.007890 -0.001974 -0.002622 0.000000 0.000000 0.000000
# 2 -0.001974 0.010661 -0.005143 0.000000 0.000000 0.000000
# 3 -0.002622 -0.005143 0.025031 0.000000 0.000000 0.000000
# 4 0.000000 0.000000 0.000000 0.030167 0.000000 0.000000
# 5 0.000000 0.000000 0.000000 0.000000 0.073638 0.000000
# 6 0.000000 0.000000 0.000000 0.000000 0.000000 0.018766
#
#
# Mechanical properties :
#
#
# Convention : Reuss Voigt Hill
#
# Bulk Modulus (GPa) = 41.48452 53.45141 47.46797
# Shear Modulus (GPa) = 25.81779 34.53024 30.17402
#
# Velocity S-wave (km/s) = 3.45432 3.99487 3.73439
# Velocity P-wave (km/s) = 5.92308 6.78105 6.36654
#
# Compressibility (1/GPa) = 0.02410538
#
# Stress axis : x y z
#
# Youngs Moduli (GPa) = 126.74639 93.79590 39.95071
#
# Poissons Ratio (x) = 0.18511 0.10476
# Poissons Ratio (y) = 0.25014 0.20545
# Poissons Ratio (z) = 0.33236 0.48235
#
# Static dielectric constant tensor:
#      x y z
#    x 1.864850 0.000000 0.000000 
#    y 0.000000 1.854180 0.000000 
#    z 0.000000 0.000000 1.833480 
# 
# From -- ./inp_files/16105.got.cif
#   From: 2010.05.17/outbox.cif.g08.bks.cpg/sg43_9_cif.got.tgz:16105.got - 2010.06.03 19:21:55.
