data_PCOD9371811
_publ_section_title
;
Structure prediction by ZEFSAII (Michael W. Deem and Ramdas Pophale) SiO2 
 PCOD9371811
Probable space group: F D D 2
;
_chemical_formula_sum "Si O2"
_cell_formula_units_Z 104
_cell_length_a 14.983432
_cell_length_b 24.463213
_cell_length_c 13.327538
_cell_angle_alpha 90.000000
_cell_angle_beta 90.000000
_cell_angle_gamma 90.000000
_cell_volume 4885.114275
_symmetry_space_group_name_H-M "F D D 2"
_symmetry_group_IT_number 43
_symmetry_cell_setting 'orthorhombic'
loop_
_space_group_symop_operation_xyz
x,y,z
-x,-y,z
1/4-x,1/4+y,1/4+z
1/4+x,1/4-y,1/4+z
x,1/2+y,1/2+z
-x,1/2-y,1/2+z
1/4-x,3/4+y,3/4+z
1/4+x,3/4-y,3/4+z
1/2+x,y,1/2+z
1/2-x,-y,1/2+z
3/4-x,1/4+y,3/4+z
3/4+x,1/4-y,3/4+z
1/2+x,1/2+y,z
1/2-x,1/2-y,z
3/4-x,3/4+y,1/4+z
3/4+x,3/4-y,1/4+z
loop_
_atom_site_type_symbol
_atom_site_label
_atom_site_fract_x
_atom_site_fract_y
_atom_site_fract_z
Si Si1 0.252512 0.069573 0.325940
Si Si2 0.878942 0.665520 0.385018
Si Si3 0.587585 0.471382 0.587489
Si Si4 0.313402 0.898057 0.406942
Si Si5 0.352377 0.034222 0.874866
Si Si6 0.350983 0.730174 0.528588
Si Si7 0.000000 0.500000 0.732992
O O1 0.207769 0.089066 0.219601
O O2 0.300821 0.119221 0.382650
O O3 0.332920 0.025737 0.321476
O O4 0.175998 0.030051 0.370990
O O5 0.919546 0.665392 0.272452
O O6 0.823100 0.719434 0.414944
O O7 0.500000 0.500000 0.545737
O O8 0.565121 0.417001 0.649915
O O9 0.638488 0.452778 0.491179
O O10 0.628364 0.516843 0.661306
O O11 0.227702 0.924220 0.349864
O O12 0.391004 0.924578 0.339016
O O13 0.439951 0.038518 0.806151
O O14 0.250000 0.750000 0.533842
#
# Coordination Sequence:
#
# PCOD9371811 Si02
#       7
#    16  16  16  16  16  16   8
#     4  10  23  42  65  96 133 174 220 282 336 410
#     4  11  24  42  71  97 137 174 228 284 343 410
#     4  11  23  39  65  94 131 174 223 280 331 414
#     4  11  25  39  70  98 136 175 225 287 344 399
#     4  10  23  46  63  96 135 178 224 277 344 413
#     4  10  23  39  63 100 134 169 225 275 345 401
#     4  10  24  48  66  94 138 184 226 274 350 424
#
# _framework density 21.289164
#
# number of rings (size 3 to 8) (size 9 to 14) (size 15 to 20)
#    0.000    1.538    2.308    0.923    7.538    2.462 
#    0.000    0.000    0.000    0.000    0.000    0.000 
#    0.000    0.000    0.000    0.000    0.000    0.000 
#
# Total GULP energy -144738.625219 kJ/mol
# GULP energy per Si atom -5566.870201 kJ/mol
# Density = 2.124071 g / cm^3
# Si number density = 21.289164 Si / 1000 Ang^3
#
#
#
# Elastic Constant Matrix: (Units=GPa)
#
#
# Indices 1 2 3 4 5 6 
#
# 1 73.6801 31.2261 24.9001 0.0000 0.0000 0.0000
# 2 31.2261 71.6755 33.4594 0.0000 0.0000 0.0000
# 3 24.9001 33.4594 74.2142 0.0000 0.0000 0.0000
# 4 0.0000 0.0000 0.0000 29.5147 0.0000 0.0000
# 5 0.0000 0.0000 0.0000 0.0000 27.9079 0.0000
# 6 0.0000 0.0000 0.0000 0.0000 0.0000 24.2640
#
#
#
# Elastic Compliance Matrix: (Units=1/GPa)
#
#
# Indices 1 2 3 4 5 6 
#
# 1 0.017165 -0.006066 -0.003024 0.000000 0.000000 0.000000
# 2 -0.006066 0.019815 -0.006898 0.000000 0.000000 0.000000
# 3 -0.003024 -0.006898 0.017599 0.000000 0.000000 0.000000
# 4 0.000000 0.000000 0.000000 0.033881 0.000000 0.000000
# 5 0.000000 0.000000 0.000000 0.000000 0.035832 0.000000
# 6 0.000000 0.000000 0.000000 0.000000 0.000000 0.041213
#
#
# Mechanical properties :
#
#
# Convention : Reuss Voigt Hill
#
# Bulk Modulus (GPa) = 44.24430 44.30455 44.27442
# Shear Modulus (GPa) = 24.38816 25.00292 24.69554
#
# Velocity S-wave (km/s) = 3.38829 3.43073 3.40958
# Velocity P-wave (km/s) = 6.01124 6.04560 6.02845
#
# Compressibility (1/GPa) = 0.02260178
#
# Stress axis : x y z
#
# Youngs Moduli (GPa) = 58.25742 50.46720 56.82081
#
# Poissons Ratio (x) = 0.30616 0.17184
# Poissons Ratio (y) = 0.35342 0.39196
# Poissons Ratio (z) = 0.17618 0.34813
#
# Static dielectric constant tensor:
#      x y z
#    x 1.841010 0.000000 0.000000 
#    y 0.000000 1.802310 0.000000 
#    z 0.000000 0.000000 1.811420 
# 
# From -- ./inp_files/10680.got.cif
#   From: 2010.05.17/outbox.cif.g08.bks.cpg/sg43_6_cif.got.tgz:10680.got - 2010.06.03 19:21:55.
