data_PCOD9371434
_publ_section_title
;
Structure prediction by ZEFSAII (Michael W. Deem and Ramdas Pophale) SiO2 
 PCOD9371434
Probable space group: F D D 2
;
_chemical_formula_sum "Si O2"
_cell_formula_units_Z 80
_cell_length_a 15.580176
_cell_length_b 20.970926
_cell_length_c 10.489492
_cell_angle_alpha 90.000000
_cell_angle_beta 90.000000
_cell_angle_gamma 90.000000
_cell_volume 3427.239252
_symmetry_space_group_name_H-M "F D D 2"
_symmetry_group_IT_number 43
_symmetry_cell_setting 'orthorhombic'
loop_
_space_group_symop_operation_xyz
x,y,z
-x,-y,z
1/4-x,1/4+y,1/4+z
1/4+x,1/4-y,1/4+z
x,1/2+y,1/2+z
-x,1/2-y,1/2+z
1/4-x,3/4+y,3/4+z
1/4+x,3/4-y,3/4+z
1/2+x,y,1/2+z
1/2-x,-y,1/2+z
3/4-x,1/4+y,3/4+z
3/4+x,1/4-y,3/4+z
1/2+x,1/2+y,z
1/2-x,1/2-y,z
3/4-x,3/4+y,1/4+z
3/4+x,3/4-y,1/4+z
loop_
_atom_site_type_symbol
_atom_site_label
_atom_site_fract_x
_atom_site_fract_y
_atom_site_fract_z
Si Si1 0.250000 0.250000 0.732180
Si Si2 0.565499 0.255885 0.356832
Si Si3 0.946168 0.600756 0.790589
Si Si4 0.500000 0.000000 0.576917
Si Si5 0.480512 0.859783 0.192518
Si Si6 0.884238 0.452549 0.354155
O O1 0.337426 0.250303 0.807767
O O2 0.248254 0.312050 0.643370
O O3 0.533103 0.324265 0.302926
O O4 0.515989 0.198104 0.293235
O O5 0.574304 0.255765 0.510143
O O6 0.967300 0.560066 0.663172
O O7 0.847287 0.596715 0.842817
O O8 0.576909 0.019295 0.481661
O O9 0.573126 0.858264 0.129541
O O10 0.460788 0.923624 0.269369
#
# Coordination Sequence:
#
# PCOD9371434 Si02
#       6
#     8  16  16   8  16  16
#     4   9  19  40  62  96 127 169 218 274 334 393
#     4  10  22  39  71  91 131 178 225 275 330 407
#     4   9  22  41  66  93 129 172 222 273 332 407
#     4  11  25  46  66 104 137 167 228 290 342 387
#     4  10  25  44  65  98 131 182 226 266 344 408
#     4  11  26  42  67  97 138 174 221 282 338 408
#
# _framework density 23.342403000000001
#
# number of rings (size 3 to 8) (size 9 to 14) (size 15 to 20)
#    0.000    2.000    0.000    0.600   22.400    1.600 
#    7.200    0.000    0.000    0.000    0.000    0.000 
#    0.000    0.000    0.000    0.000    0.000    0.000 
#
# Total GULP energy -111735.148054 kJ/mol
# GULP energy per Si atom -5586.757403 kJ/mol
# Density = 2.328927 g / cm^3
# Si number density = 23.342403 Si / 1000 Ang^3
#
#
#
# Elastic Constant Matrix: (Units=GPa)
#
#
# Indices 1 2 3 4 5 6 
#
# 1 44.9196 -10.1486 15.4911 0.0000 0.0000 0.0000
# 2 -10.1486 130.0648 54.7691 0.0000 0.0000 0.0000
# 3 15.4911 54.7691 138.7842 0.0000 0.0000 0.0000
# 4 0.0000 0.0000 0.0000 44.0817 0.0000 0.0000
# 5 0.0000 0.0000 0.0000 0.0000 9.5471 0.0000
# 6 0.0000 0.0000 0.0000 0.0000 0.0000 28.8009
#
#
#
# Elastic Compliance Matrix: (Units=1/GPa)
#
#
# Indices 1 2 3 4 5 6 
#
# 1 0.024539 0.003680 -0.004191 0.000000 0.000000 0.000000
# 2 0.003680 0.009772 -0.004267 0.000000 0.000000 0.000000
# 3 -0.004191 -0.004267 0.009357 0.000000 0.000000 0.000000
# 4 0.000000 0.000000 0.000000 0.022685 0.000000 0.000000
# 5 0.000000 0.000000 0.000000 0.000000 0.104744 0.000000
# 6 0.000000 0.000000 0.000000 0.000000 0.000000 0.034721
#
#
# Mechanical properties :
#
#
# Convention : Reuss Voigt Hill
#
# Bulk Modulus (GPa) = 29.31631 48.22129 38.76880
# Shear Modulus (GPa) = 22.05105 33.39641 27.72373
#
# Velocity S-wave (km/s) = 3.07690 3.78659 3.45004
# Velocity P-wave (km/s) = 5.02091 6.31037 5.70221
#
# Compressibility (1/GPa) = 0.03411070
#
# Stress axis : x y z
#
# Youngs Moduli (GPa) = 40.75210 102.32815 106.86902
#
# Poissons Ratio (x) = -0.37652 0.44789
# Poissons Ratio (y) = -0.14995 0.45604
# Poissons Ratio (z) = 0.17079 0.43666
#
# Static dielectric constant tensor:
#      x y z
#    x 1.873650 0.000000 0.000000 
#    y 0.000000 1.913320 0.000000 
#    z 0.000000 0.000000 1.931650 
# 
# From -- ./inp_files/2837.got.cif
#   From: 2010.05.17/outbox.cif.g08.bks.cpg/sg43_2_cif.got.tgz:2837.got - 2010.06.03 19:21:55.
