data_PCOD9371696
_publ_section_title
;
Structure prediction by ZEFSAII (Michael W. Deem and Ramdas Pophale) SiO2 
 PCOD9371696
Probable space group: F D D 2
;
_chemical_formula_sum "Si O2"
_cell_formula_units_Z 72
_cell_length_a 16.422371
_cell_length_b 7.568118
_cell_length_c 23.624518
_cell_angle_alpha 90.000000
_cell_angle_beta 90.000000
_cell_angle_gamma 90.000000
_cell_volume 2936.207276
_symmetry_space_group_name_H-M "F D D 2"
_symmetry_group_IT_number 43
_symmetry_cell_setting 'orthorhombic'
loop_
_space_group_symop_operation_xyz
x,y,z
-x,-y,z
1/4-x,1/4+y,1/4+z
1/4+x,1/4-y,1/4+z
x,1/2+y,1/2+z
-x,1/2-y,1/2+z
1/4-x,3/4+y,3/4+z
1/4+x,3/4-y,3/4+z
1/2+x,y,1/2+z
1/2-x,-y,1/2+z
3/4-x,1/4+y,3/4+z
3/4+x,1/4-y,3/4+z
1/2+x,1/2+y,z
1/2-x,1/2-y,z
3/4-x,3/4+y,1/4+z
3/4+x,3/4-y,1/4+z
loop_
_atom_site_type_symbol
_atom_site_label
_atom_site_fract_x
_atom_site_fract_y
_atom_site_fract_z
Si Si1 0.011524 0.706992 0.444940
Si Si2 0.619800 0.849926 0.351323
Si Si3 0.136023 0.009295 0.279884
Si Si4 0.346953 0.266464 0.871815
Si Si5 0.000000 0.500000 0.689635
O O1 0.953977 0.729664 0.389288
O O2 0.971635 0.788928 0.500319
O O3 0.000000 0.500000 0.454665
O O4 0.104085 0.744864 0.430624
O O5 0.631071 0.715583 0.299196
O O6 0.697154 0.860403 0.394595
O O7 0.615359 0.059393 0.340218
O O8 0.069935 0.947660 0.233931
O O9 0.126419 0.902382 0.336518
O O10 0.250000 0.250000 0.877905
#
# Coordination Sequence:
#
# PCOD9371696 Si02
#       5
#    16  16  16  16   8
#     4   9  22  43  68 101 139 185 230 287 353 412
#     4  10  22  45  70  98 146 180 228 294 344 414
#     4  11  23  44  74  99 138 185 230 281 358 412
#     4  11  24  44  67 102 142 180 235 291 341 419
#     4  10  22  44  72 104 134 182 228 290 346 422
#
# _framework density 24.521428
#
# number of rings (size 3 to 8) (size 9 to 14) (size 15 to 20)
#    0.000    1.778    0.000    2.667    4.667    0.000 
#   12.000    2.222    0.000    0.000    0.000    0.000 
#    0.000    0.000    0.000    0.000    0.000    0.000 
#
# Total GULP energy -100405.614770 kJ/mol
# GULP energy per Si atom -5578.089709 kJ/mol
# Density = 2.446562 g / cm^3
# Si number density = 24.521428 Si / 1000 Ang^3
#
#
#
# Elastic Constant Matrix: (Units=GPa)
#
#
# Indices 1 2 3 4 5 6 
#
# 1 70.5340 31.2990 32.2709 0.0000 0.0000 0.0000
# 2 31.2990 74.5599 10.1607 0.0000 0.0000 0.0000
# 3 32.2709 10.1607 52.6309 0.0000 0.0000 0.0000
# 4 0.0000 0.0000 0.0000 4.9872 0.0000 0.0000
# 5 0.0000 0.0000 0.0000 0.0000 41.6390 0.0000
# 6 0.0000 0.0000 0.0000 0.0000 0.0000 22.7122
#
#
#
# Elastic Compliance Matrix: (Units=1/GPa)
#
#
# Indices 1 2 3 4 5 6 
#
# 1 0.023758 -0.008204 -0.012984 0.000000 0.000000 0.000000
# 2 -0.008204 0.016607 0.001824 0.000000 0.000000 0.000000
# 3 -0.012984 0.001824 0.026609 0.000000 0.000000 0.000000
# 4 0.000000 0.000000 0.000000 0.200514 0.000000 0.000000
# 5 0.000000 0.000000 0.000000 0.000000 0.024016 0.000000
# 6 0.000000 0.000000 0.000000 0.000000 0.000000 0.044029
#
#
# Mechanical properties :
#
#
# Convention : Reuss Voigt Hill
#
# Bulk Modulus (GPa) = 35.40110 38.35401 36.87756
# Shear Modulus (GPa) = 13.03179 22.13396 17.58287
#
# Velocity S-wave (km/s) = 2.30781 3.00765 2.68067
# Velocity P-wave (km/s) = 4.64429 5.26652 4.96516
#
# Compressibility (1/GPa) = 0.02824771
#
# Stress axis : x y z
#
# Youngs Moduli (GPa) = 42.09046 60.21430 37.58116
#
# Poissons Ratio (x) = 0.49400 0.48794
# Poissons Ratio (y) = 0.34531 -0.06855
# Poissons Ratio (z) = 0.54649 -0.10984
#
# Static dielectric constant tensor:
#      x y z
#    x 1.917200 0.000000 0.000000 
#    y 0.000000 2.030770 0.000000 
#    z 0.000000 0.000000 1.885000 
# 
# From -- ./inp_files/20080.got.cif
#   From: 2010.05.17/outbox.cif.g08.bks.cpg/sg43_11_cif.got.tgz:20080.got - 2010.06.03 19:21:55.
