data_PCOD9371416
_publ_section_title
;
Structure prediction by ZEFSAII (Michael W. Deem and Ramdas Pophale) SiO2 
 PCOD9371416
Probable space group: F D D 2
;
_chemical_formula_sum "Si O2"
_cell_formula_units_Z 112
_cell_length_a 11.904506
_cell_length_b 33.170964
_cell_length_c 12.010450
_cell_angle_alpha 90.000000
_cell_angle_beta 90.000000
_cell_angle_gamma 90.000000
_cell_volume 4742.733817
_symmetry_space_group_name_H-M "F D D 2"
_symmetry_group_IT_number 43
_symmetry_cell_setting 'orthorhombic'
loop_
_space_group_symop_operation_xyz
x,y,z
-x,-y,z
1/4-x,1/4+y,1/4+z
1/4+x,1/4-y,1/4+z
x,1/2+y,1/2+z
-x,1/2-y,1/2+z
1/4-x,3/4+y,3/4+z
1/4+x,3/4-y,3/4+z
1/2+x,y,1/2+z
1/2-x,-y,1/2+z
3/4-x,1/4+y,3/4+z
3/4+x,1/4-y,3/4+z
1/2+x,1/2+y,z
1/2-x,1/2-y,z
3/4-x,3/4+y,1/4+z
3/4+x,3/4-y,1/4+z
loop_
_atom_site_type_symbol
_atom_site_label
_atom_site_fract_x
_atom_site_fract_y
_atom_site_fract_z
Si Si1 0.164130 0.640293 0.823000
Si Si2 0.912459 0.819306 0.102078
Si Si3 0.413399 0.528931 0.198666
Si Si4 0.199821 0.008386 0.994043
Si Si5 0.725688 0.569087 0.830154
Si Si6 0.575148 0.460435 0.614598
Si Si7 0.810602 0.859613 0.694761
O O1 0.157481 0.659124 0.700338
O O2 0.243834 0.602146 0.823160
O O3 0.200957 0.676667 0.907024
O O4 0.042372 0.624563 0.867637
O O5 0.963900 0.780295 0.164907
O O6 0.853435 0.806391 0.987321
O O7 0.500000 0.500000 0.264428
O O8 0.383579 0.503503 0.090406
O O9 0.294295 0.536521 0.257992
O O10 0.312883 0.024224 0.051283
O O11 0.156052 0.045264 0.920574
O O12 0.655150 0.600256 0.760512
O O13 0.830498 0.593775 0.881261
O O14 0.500000 0.500000 0.625622
O O15 0.526893 0.425506 0.532542
#
# Coordination Sequence:
#
# PCOD9371416 Si02
#       7
#    16  16  16  16  16  16  16
#     4  10  22  41  62  88 123 166 210 259 318 383
#     4  11  24  41  64  93 127 164 211 268 320 378
#     4  10  22  40  63  90 122 161 207 256 312 375
#     4  10  23  42  63  90 126 167 208 259 319 382
#     4  10  22  39  63  90 121 161 208 257 305 370
#     4  11  25  42  64  95 130 170 214 265 322 384
#     4  10  22  41  64  90 123 167 214 260 315 382
#
# _framework density 23.615071
#
# number of rings (size 3 to 8) (size 9 to 14) (size 15 to 20)
#    0.000    1.714    0.000    3.429    0.000   16.000 
#    0.000    0.000    0.000    0.000    0.000    0.000 
#    0.000    0.000    0.000    0.000    0.000    0.000 
#
# Total GULP energy -156640.642388 kJ/mol
# GULP energy per Si atom -5594.308657 kJ/mol
# Density = 2.356132 g / cm^3
# Si number density = 23.615071 Si / 1000 Ang^3
#
#
#
# Elastic Constant Matrix: (Units=GPa)
#
#
# Indices 1 2 3 4 5 6 
#
# 1 37.9121 52.1537 25.1170 0.0000 0.0000 0.0000
# 2 52.1537 92.2990 37.9105 0.0000 0.0000 0.0000
# 3 25.1170 37.9105 106.5736 0.0000 0.0000 0.0000
# 4 0.0000 0.0000 0.0000 45.6543 0.0000 0.0000
# 5 0.0000 0.0000 0.0000 0.0000 -2.0564 0.0000
# 6 0.0000 0.0000 0.0000 0.0000 0.0000 33.6486
#
#
#
# Elastic Compliance Matrix: (Units=1/GPa)
#
#
# Indices 1 2 3 4 5 6 
#
# 1 0.120590 -0.066128 -0.004897 0.000000 0.000000 0.000000
# 2 -0.066128 0.048951 -0.001828 0.000000 0.000000 0.000000
# 3 -0.004897 -0.001828 0.011188 0.000000 0.000000 0.000000
# 4 0.000000 0.000000 0.000000 0.021904 0.000000 0.000000
# 5 0.000000 0.000000 0.000000 0.000000 -0.486294 0.000000
# 6 0.000000 0.000000 0.000000 0.000000 0.000000 0.029719
#
#
# Mechanical properties :
#
#
# Convention : Reuss Voigt Hill
#
# Bulk Modulus (GPa) = 28.55346 51.90523 40.22935
# Shear Modulus (GPa) = -51.77965 23.55622 -14.11171
#
# Velocity S-wave (km/s) = -4.68766 3.16176 -2.44718
# Velocity P-wave (km/s) = 4.14504 5.94612 3.01455
#
# Compressibility (1/GPa) = 0.03502202
#
# Stress axis : x y z
#
# Youngs Moduli (GPa) = 8.29258 20.42866 89.38476
#
# Poissons Ratio (x) = 1.35091 0.43773
# Poissons Ratio (y) = 0.54837 0.16340
# Poissons Ratio (z) = 0.04061 0.03734
#
# Static dielectric constant tensor:
#      x y z
#    x 1.987970 0.000000 0.000000 
#    y 0.000000 1.908880 0.000000 
#    z 0.000000 0.000000 1.934320 
# 
# From -- ./inp_files/6324.got.cif
#   From: 2010.05.17/outbox.cif.g08.bks.cpg/sg43_4_cif.got.tgz:6324.got - 2010.06.03 19:21:55.
