data_PCOD9371325
_publ_section_title
;
Structure prediction by ZEFSAII (Michael W. Deem and Ramdas Pophale) SiO2 
 PCOD9371325
Probable space group: F D D 2
;
_chemical_formula_sum "Si O2"
_cell_formula_units_Z 48
_cell_length_a 14.524786
_cell_length_b 15.701052
_cell_length_c 7.535846
_cell_angle_alpha 90.000000
_cell_angle_beta 90.000000
_cell_angle_gamma 90.000000
_cell_volume 1718.582991
_symmetry_space_group_name_H-M "F D D 2"
_symmetry_group_IT_number 43
_symmetry_cell_setting 'orthorhombic'
loop_
_space_group_symop_operation_xyz
x,y,z
-x,-y,z
1/4-x,1/4+y,1/4+z
1/4+x,1/4-y,1/4+z
x,1/2+y,1/2+z
-x,1/2-y,1/2+z
1/4-x,3/4+y,3/4+z
1/4+x,3/4-y,3/4+z
1/2+x,y,1/2+z
1/2-x,-y,1/2+z
3/4-x,1/4+y,3/4+z
3/4+x,1/4-y,3/4+z
1/2+x,1/2+y,z
1/2-x,1/2-y,z
3/4-x,3/4+y,1/4+z
3/4+x,3/4-y,1/4+z
loop_
_atom_site_type_symbol
_atom_site_label
_atom_site_fract_x
_atom_site_fract_y
_atom_site_fract_z
Si Si1 0.149457 0.717935 0.459340
Si Si2 0.678307 0.173098 0.832125
Si Si3 0.741917 0.999786 0.486489
O O1 0.250000 0.750000 0.401170
O O2 0.170401 0.652447 0.619813
O O3 0.081473 0.777954 0.583523
O O4 0.078600 0.696659 0.304491
O O5 0.750000 0.250000 0.851201
O O6 0.580321 0.212255 0.883108
O O7 0.709718 0.088640 0.925342
#
# Coordination Sequence:
#
# PCOD9371325 Si02
#       3
#    16  16  16
#     4   9  22  45  68 102 135 182 234 287 349 416
#     4   9  22  41  71  99 139 183 230 284 353 411
#     4  10  21  44  71  97 141 185 226 295 348 411
#
# _framework density 27.929988999999999
#
# number of rings (size 3 to 8) (size 9 to 14) (size 15 to 20)
#    2.000    0.667    0.000    0.000    4.667    0.000 
#   18.000    0.000    0.000    0.000    0.000    0.000 
#    0.000    0.000    0.000    0.000    0.000    0.000 
#
# Total GULP energy -66895.942855 kJ/mol
# GULP energy per Si atom -5574.661905 kJ/mol
# Density = 2.786642 g / cm^3
# Si number density = 27.929989 Si / 1000 Ang^3
#
#
#
# Elastic Constant Matrix: (Units=GPa)
#
#
# Indices 1 2 3 4 5 6 
#
# 1 319.8217 78.8178 56.1256 0.0000 0.0000 0.0000
# 2 78.8178 126.6251 28.8283 0.0000 0.0000 0.0000
# 3 56.1256 28.8283 70.8399 0.0000 0.0000 0.0000
# 4 0.0000 0.0000 0.0000 19.0428 0.0000 0.0000
# 5 0.0000 0.0000 0.0000 0.0000 68.8298 0.0000
# 6 0.0000 0.0000 0.0000 0.0000 0.0000 53.4470
#
#
#
# Elastic Compliance Matrix: (Units=1/GPa)
#
#
# Indices 1 2 3 4 5 6 
#
# 1 0.004031 -0.001964 -0.002394 0.000000 0.000000 0.000000
# 2 -0.001964 0.009661 -0.002375 0.000000 0.000000 0.000000
# 3 -0.002394 -0.002375 0.016980 0.000000 0.000000 0.000000
# 4 0.000000 0.000000 0.000000 0.052513 0.000000 0.000000
# 5 0.000000 0.000000 0.000000 0.000000 0.014529 0.000000
# 6 0.000000 0.000000 0.000000 0.000000 0.000000 0.018710
#
#
# Mechanical properties :
#
#
# Convention : Reuss Voigt Hill
#
# Bulk Modulus (GPa) = 58.12568 93.87001 75.99784
# Shear Modulus (GPa) = 36.86613 51.83159 44.34886
#
# Velocity S-wave (km/s) = 3.63705 4.31254 3.98912
# Velocity P-wave (km/s) = 6.20435 7.64718 6.96323
#
# Compressibility (1/GPa) = 0.01720410
#
# Stress axis : x y z
#
# Youngs Moduli (GPa) = 248.08123 103.51362 58.89250
#
# Poissons Ratio (x) = 0.20329 0.14101
# Poissons Ratio (y) = 0.48721 0.13989
# Poissons Ratio (z) = 0.59402 0.24588
#
# Static dielectric constant tensor:
#      x y z
#    x 2.131560 0.000000 0.000000 
#    y 0.000000 2.138160 0.000000 
#    z 0.000000 0.000000 2.394470 
# 
# From -- ./inp_files/1834.got.cif
#   From: 2010.05.17/outbox.cif.g08.bks.cpg/sg43_1_cif.got.tgz:1834.got - 2010.06.03 19:21:55.
