data_PCOD9371067
_publ_section_title
;
Structure prediction by ZEFSAII (Michael W. Deem and Ramdas Pophale) SiO2 
 PCOD9371067
Probable space group: F D D 2
;
_chemical_formula_sum "Si O2"
_cell_formula_units_Z 120
_cell_length_a 26.223288
_cell_length_b 18.164872
_cell_length_c 11.319790
_cell_angle_alpha 90.000000
_cell_angle_beta 90.000000
_cell_angle_gamma 90.000000
_cell_volume 5392.098992
_symmetry_space_group_name_H-M "F D D 2"
_symmetry_group_IT_number 43
_symmetry_cell_setting 'orthorhombic'
loop_
_space_group_symop_operation_xyz
x,y,z
-x,-y,z
1/4-x,1/4+y,1/4+z
1/4+x,1/4-y,1/4+z
x,1/2+y,1/2+z
-x,1/2-y,1/2+z
1/4-x,3/4+y,3/4+z
1/4+x,3/4-y,3/4+z
1/2+x,y,1/2+z
1/2-x,-y,1/2+z
3/4-x,1/4+y,3/4+z
3/4+x,1/4-y,3/4+z
1/2+x,1/2+y,z
1/2-x,1/2-y,z
3/4-x,3/4+y,1/4+z
3/4+x,3/4-y,1/4+z
loop_
_atom_site_type_symbol
_atom_site_label
_atom_site_fract_x
_atom_site_fract_y
_atom_site_fract_z
Si Si1 0.429216 0.842669 0.844960
Si Si2 0.837374 0.338458 0.002427
Si Si3 0.841095 0.658085 0.354534
Si Si4 0.504592 0.171052 0.049298
Si Si5 0.750000 0.250000 0.893452
Si Si6 0.346190 0.511521 0.442941
Si Si7 0.701062 0.952637 0.181318
Si Si8 0.543539 0.816868 0.287142
O O1 0.413500 0.900240 0.745817
O O2 0.458178 0.773208 0.785293
O O3 0.378069 0.809688 0.904361
O O4 0.462897 0.874523 0.953370
O O5 0.857349 0.301631 0.124298
O O6 0.780538 0.311498 0.970427
O O7 0.846262 0.425904 0.981976
O O8 0.795928 0.714046 0.320186
O O9 0.823689 0.583301 0.293546
O O10 0.898636 0.666429 0.314621
O O11 0.547811 0.225374 0.105486
O O12 0.475980 0.145339 0.166851
O O13 0.464339 0.214813 0.970218
O O14 0.333747 0.552245 0.565666
O O15 0.754447 0.915316 0.142315
#
# Coordination Sequence:
#
# PCOD9371067 Si02
#       8
#    16  16  16  16   8  16  16  16
#     4  10  21  38  63  92 127 170 221 277 338 404
#     4  11  23  42  66  97 142 174 235 289 351 412
#     4  12  24  40  62 100 133 172 225 284 356 404
#     4   9  19  39  62  93 122 172 221 273 332 420
#     4  12  26  36  62 106 134 176 212 296 340 406
#     4  10  23  43  67  98 133 183 227 288 345 423
#     4  10  22  39  65  94 126 175 226 273 343 419
#     4  10  21  39  62  92 125 171 225 272 338 412
#
# _framework density 22.254784999999998
#
# number of rings (size 3 to 8) (size 9 to 14) (size 15 to 20)
#    0.000    1.600    2.667    1.600    9.333    1.067 
#    0.000    0.000    0.000    0.000    0.000    0.000 
#    0.000    0.000    0.000    0.000    0.000    0.000 
#
# Total GULP energy -167208.443602 kJ/mol
# GULP energy per Si atom -5573.614787 kJ/mol
# Density = 2.220413 g / cm^3
# Si number density = 22.254785 Si / 1000 Ang^3
#
#
#
# Elastic Constant Matrix: (Units=GPa)
#
#
# Indices 1 2 3 4 5 6 
#
# 1 115.8565 21.4122 33.3861 0.0000 0.0000 0.0000
# 2 21.4122 45.9172 9.1877 0.0000 0.0000 0.0000
# 3 33.3861 9.1877 109.1703 0.0000 0.0000 0.0000
# 4 0.0000 0.0000 0.0000 14.1117 0.0000 0.0000
# 5 0.0000 0.0000 0.0000 0.0000 6.0648 0.0000
# 6 0.0000 0.0000 0.0000 0.0000 0.0000 20.0851
#
#
#
# Elastic Compliance Matrix: (Units=1/GPa)
#
#
# Indices 1 2 3 4 5 6 
#
# 1 0.010206 -0.004206 -0.002767 0.000000 0.000000 0.000000
# 2 -0.004206 0.023884 -0.000724 0.000000 0.000000 0.000000
# 3 -0.002767 -0.000724 0.010067 0.000000 0.000000 0.000000
# 4 0.000000 0.000000 0.000000 0.070863 0.000000 0.000000
# 5 0.000000 0.000000 0.000000 0.000000 0.164887 0.000000
# 6 0.000000 0.000000 0.000000 0.000000 0.000000 0.049788
#
#
# Mechanical properties :
#
#
# Convention : Reuss Voigt Hill
#
# Bulk Modulus (GPa) = 34.76566 44.32400 39.54483
# Shear Modulus (GPa) = 14.09733 21.84952 17.97342
#
# Velocity S-wave (km/s) = 2.51958 3.13675 2.84495
# Velocity P-wave (km/s) = 4.91120 5.75142 5.34784
#
# Compressibility (1/GPa) = 0.02876402
#
# Stress axis : x y z
#
# Youngs Moduli (GPa) = 97.98101 41.86846 99.33249
#
# Poissons Ratio (x) = 0.17608 0.27488
# Poissons Ratio (y) = 0.41207 0.07191
# Poissons Ratio (z) = 0.27114 0.03031
#
# Static dielectric constant tensor:
#      x y z
#    x 1.853440 0.000000 0.000000 
#    y 0.000000 1.913690 0.000000 
#    z 0.000000 0.000000 1.839960 
# 
# From -- ./inp_files/7968.got.cif
#   From: 2010.05.17/outbox.cif.g08.bks.cpg/sg43_4_cif.got.tgz:7968.got - 2010.06.03 19:21:55.
