data_PCOD9371318
_publ_section_title
;
Structure prediction by ZEFSAII (Michael W. Deem and Ramdas Pophale) SiO2 
 PCOD9371318
Probable space group: F D D 2
;
_chemical_formula_sum "Si O2"
_cell_formula_units_Z 56
_cell_length_a 21.078856
_cell_length_b 15.144025
_cell_length_c 8.169229
_cell_angle_alpha 90.000000
_cell_angle_beta 90.000000
_cell_angle_gamma 90.000000
_cell_volume 2607.770843
_symmetry_space_group_name_H-M "F D D 2"
_symmetry_group_IT_number 43
_symmetry_cell_setting 'orthorhombic'
loop_
_space_group_symop_operation_xyz
x,y,z
-x,-y,z
1/4-x,1/4+y,1/4+z
1/4+x,1/4-y,1/4+z
x,1/2+y,1/2+z
-x,1/2-y,1/2+z
1/4-x,3/4+y,3/4+z
1/4+x,3/4-y,3/4+z
1/2+x,y,1/2+z
1/2-x,-y,1/2+z
3/4-x,1/4+y,3/4+z
3/4+x,1/4-y,3/4+z
1/2+x,1/2+y,z
1/2-x,1/2-y,z
3/4-x,3/4+y,1/4+z
3/4+x,3/4-y,1/4+z
loop_
_atom_site_type_symbol
_atom_site_label
_atom_site_fract_x
_atom_site_fract_y
_atom_site_fract_z
Si Si1 0.000000 0.000000 0.098470
Si Si2 0.716956 0.416146 0.313392
Si Si3 0.106719 0.034151 0.334652
Si Si4 0.220228 0.091581 0.137936
O O1 0.941041 0.017360 0.216918
O O2 0.009513 0.085356 0.986374
O O3 0.684914 0.337347 0.213611
O O4 0.658730 0.466867 0.405069
O O5 0.769434 0.393109 0.446547
O O6 0.739639 0.491458 0.186184
O O7 0.101122 0.845562 0.962079
#
# Coordination Sequence:
#
# PCOD9371318 Si02
#       4
#     8  16  16  16
#     4  12  22  44  68  96 146 172 222 286 340 388
#     4  10  21  44  68  92 140 173 228 275 341 388
#     4  10  22  44  65  97 134 178 224 279 332 404
#     4  10  22  42  65 100 127 184 217 282 327 408
#
# _framework density 21.474278999999999
#
# number of rings (size 3 to 8) (size 9 to 14) (size 15 to 20)
#    1.714    0.000    2.857    1.714    0.000    1.143 
#   15.429    0.000    0.000    0.000    0.000    0.000 
#    0.000    0.000    0.000    0.000    0.000    0.000 
#
# Total GULP energy -77966.072932 kJ/mol
# GULP energy per Si atom -5569.005209 kJ/mol
# Density = 2.142540 g / cm^3
# Si number density = 21.474279 Si / 1000 Ang^3
#
#
#
# Elastic Constant Matrix: (Units=GPa)
#
#
# Indices 1 2 3 4 5 6 
#
# 1 42.2756 -10.3443 27.6935 0.0000 0.0000 0.0000
# 2 -10.3443 51.1449 20.0352 0.0000 0.0000 0.0000
# 3 27.6935 20.0352 98.9013 0.0000 0.0000 0.0000
# 4 0.0000 0.0000 0.0000 30.7484 0.0000 0.0000
# 5 0.0000 0.0000 0.0000 0.0000 31.8834 0.0000
# 6 0.0000 0.0000 0.0000 0.0000 0.0000 16.9080
#
#
#
# Elastic Compliance Matrix: (Units=1/GPa)
#
#
# Indices 1 2 3 4 5 6 
#
# 1 0.034346 0.011638 -0.011975 0.000000 0.000000 0.000000
# 2 0.011638 0.025181 -0.008360 0.000000 0.000000 0.000000
# 3 -0.011975 -0.008360 0.015158 0.000000 0.000000 0.000000
# 4 0.000000 0.000000 0.000000 0.032522 0.000000 0.000000
# 5 0.000000 0.000000 0.000000 0.000000 0.031364 0.000000
# 6 0.000000 0.000000 0.000000 0.000000 0.000000 0.059144
#
#
# Mechanical properties :
#
#
# Convention : Reuss Voigt Hill
#
# Bulk Modulus (GPa) = 17.45483 29.67675 23.56579
# Shear Modulus (GPa) = 21.34878 26.23713 23.79295
#
# Velocity S-wave (km/s) = 3.15644 3.49921 3.33224
# Velocity P-wave (km/s) = 4.62926 5.49323 5.07965
#
# Compressibility (1/GPa) = 0.05729075
#
# Stress axis : x y z
#
# Youngs Moduli (GPa) = 29.11530 39.71277 65.97318
#
# Poissons Ratio (x) = -0.46216 0.79002
# Poissons Ratio (y) = -0.33883 0.55152
# Poissons Ratio (z) = 0.34865 0.33199
#
# Static dielectric constant tensor:
#      x y z
#    x 1.812160 0.000000 0.000000 
#    y 0.000000 1.791730 0.000000 
#    z 0.000000 0.000000 1.751760 
# 
# From -- ./inp_files/1093.got.cif
#   From: 2010.05.17/outbox.cif.g08.bks.cpg/sg43_1_cif.got.tgz:1093.got - 2010.06.03 19:21:55.
