data_PCOD9371622
_publ_section_title
;
Structure prediction by ZEFSAII (Michael W. Deem and Ramdas Pophale) SiO2 
 PCOD9371622
Probable space group: F D D 2
;
_chemical_formula_sum "Si O2"
_cell_formula_units_Z 112
_cell_length_a 14.481731
_cell_length_b 11.863034
_cell_length_c 26.359815
_cell_angle_alpha 90.000000
_cell_angle_beta 90.000000
_cell_angle_gamma 90.000000
_cell_volume 4528.544182
_symmetry_space_group_name_H-M "F D D 2"
_symmetry_group_IT_number 43
_symmetry_cell_setting 'orthorhombic'
loop_
_space_group_symop_operation_xyz
x,y,z
-x,-y,z
1/4-x,1/4+y,1/4+z
1/4+x,1/4-y,1/4+z
x,1/2+y,1/2+z
-x,1/2-y,1/2+z
1/4-x,3/4+y,3/4+z
1/4+x,3/4-y,3/4+z
1/2+x,y,1/2+z
1/2-x,-y,1/2+z
3/4-x,1/4+y,3/4+z
3/4+x,1/4-y,3/4+z
1/2+x,1/2+y,z
1/2-x,1/2-y,z
3/4-x,3/4+y,1/4+z
3/4+x,3/4-y,1/4+z
loop_
_atom_site_type_symbol
_atom_site_label
_atom_site_fract_x
_atom_site_fract_y
_atom_site_fract_z
Si Si1 0.544217 0.289632 0.406360
Si Si2 0.670959 0.421884 0.558847
Si Si3 0.913010 0.082424 0.922518
Si Si4 0.358782 0.261638 0.712446
Si Si5 0.869210 0.469345 0.528753
Si Si6 0.388839 0.913151 0.860246
Si Si7 0.039171 0.721568 0.573120
O O1 0.593767 0.212498 0.365627
O O2 0.461322 0.207447 0.426566
O O3 0.613163 0.358251 0.442532
O O4 0.497349 0.388312 0.371282
O O5 0.652667 0.513821 0.515791
O O6 0.777388 0.398076 0.544833
O O7 0.597429 0.324601 0.552399
O O8 0.840021 0.070010 0.875791
O O9 0.000000 0.000000 0.910634
O O10 0.869162 0.033733 0.974956
O O11 0.250000 0.250000 0.719140
O O12 0.392683 0.179857 0.668400
O O13 0.880617 0.554420 0.575660
O O14 0.949697 0.377714 0.531818
O O15 0.318206 0.998858 0.832875
#
# Coordination Sequence:
#
# PCOD9371622 Si02
#       7
#    16  16  16  16  16  16  16
#     4  10  23  44  65  96 136 175 228 289 326 410
#     4  11  23  43  65  98 139 176 217 278 354 401
#     4  12  22  39  65  97 130 179 227 282 353 393
#     4  10  24  45  66  93 138 179 227 280 341 408
#     4  11  24  40  66 102 132 174 232 283 342 410
#     4  10  22  43  66  94 131 177 226 281 332 408
#     4  12  22  40  67  98 136 169 223 289 340 411
#
# _framework density 24.732009999999999
#
# number of rings (size 3 to 8) (size 9 to 14) (size 15 to 20)
#    0.000    1.143    4.286    2.571    4.000    1.143 
#    2.571    0.000    3.143    0.000    0.000    0.000 
#    0.000    0.000    0.000    0.000    0.000    0.000 
#
# Total GULP energy -155897.520875 kJ/mol
# GULP energy per Si atom -5567.768603 kJ/mol
# Density = 2.467572 g / cm^3
# Si number density = 24.732010 Si / 1000 Ang^3
#
#
#
# Elastic Constant Matrix: (Units=GPa)
#
#
# Indices 1 2 3 4 5 6 
#
# 1 74.1152 -5.4656 5.7103 0.0000 0.0000 0.0000
# 2 -5.4656 66.0037 34.1755 0.0000 0.0000 0.0000
# 3 5.7103 34.1755 129.9914 0.0000 0.0000 0.0000
# 4 0.0000 0.0000 0.0000 24.3005 0.0000 0.0000
# 5 0.0000 0.0000 0.0000 0.0000 38.8030 0.0000
# 6 0.0000 0.0000 0.0000 0.0000 0.0000 25.8995
#
#
#
# Elastic Compliance Matrix: (Units=1/GPa)
#
#
# Indices 1 2 3 4 5 6 
#
# 1 0.013696 0.001673 -0.001042 0.000000 0.000000 0.000000
# 2 0.001673 0.017743 -0.004738 0.000000 0.000000 0.000000
# 3 -0.001042 -0.004738 0.008984 0.000000 0.000000 0.000000
# 4 0.000000 0.000000 0.000000 0.041151 0.000000 0.000000
# 5 0.000000 0.000000 0.000000 0.000000 0.025771 0.000000
# 6 0.000000 0.000000 0.000000 0.000000 0.000000 0.038611
#
#
# Mechanical properties :
#
#
# Convention : Reuss Voigt Hill
#
# Bulk Modulus (GPa) = 31.04584 37.66119 34.35352
# Shear Modulus (GPa) = 30.32035 33.51329 31.91682
#
# Velocity S-wave (km/s) = 3.50516 3.68510 3.59626
# Velocity P-wave (km/s) = 5.38161 5.77645 5.58252
#
# Compressibility (1/GPa) = 0.03221043
#
# Stress axis : x y z
#
# Youngs Moduli (GPa) = 73.01315 56.36168 111.30586
#
# Poissons Ratio (x) = -0.09432 0.11594
# Poissons Ratio (y) = -0.12219 0.52738
# Poissons Ratio (z) = 0.07605 0.26705
#
# Static dielectric constant tensor:
#      x y z
#    x 2.097320 0.000000 0.000000 
#    y 0.000000 2.077960 0.000000 
#    z 0.000000 0.000000 2.003830 
# 
# From -- ./inp_files/29093.got.cif
#   From: 2010.05.17/outbox.cif.g08.bks.cpg/sg43_15_cif.got.tgz:29093.got - 2010.06.03 19:21:55.
