data_PCOD9371605
_publ_section_title
;
Structure prediction by ZEFSAII (Michael W. Deem and Ramdas Pophale) SiO2 
 PCOD9371605
Probable space group: F D D 2
;
_chemical_formula_sum "Si O2"
_cell_formula_units_Z 112
_cell_length_a 15.367697
_cell_length_b 11.562293
_cell_length_c 28.912371
_cell_angle_alpha 90.000000
_cell_angle_beta 90.000000
_cell_angle_gamma 90.000000
_cell_volume 5137.318218
_symmetry_space_group_name_H-M "F D D 2"
_symmetry_group_IT_number 43
_symmetry_cell_setting 'orthorhombic'
loop_
_space_group_symop_operation_xyz
x,y,z
-x,-y,z
1/4-x,1/4+y,1/4+z
1/4+x,1/4-y,1/4+z
x,1/2+y,1/2+z
-x,1/2-y,1/2+z
1/4-x,3/4+y,3/4+z
1/4+x,3/4-y,3/4+z
1/2+x,y,1/2+z
1/2-x,-y,1/2+z
3/4-x,1/4+y,3/4+z
3/4+x,1/4-y,3/4+z
1/2+x,1/2+y,z
1/2-x,1/2-y,z
3/4-x,3/4+y,1/4+z
3/4+x,3/4-y,1/4+z
loop_
_atom_site_type_symbol
_atom_site_label
_atom_site_fract_x
_atom_site_fract_y
_atom_site_fract_z
Si Si1 0.750000 0.558694 0.848980
Si Si2 0.002496 0.363766 0.432692
Si Si3 0.689095 0.144931 0.788265
Si Si4 0.002497 0.636235 0.765268
Si Si5 0.658642 0.198129 0.267550
Si Si6 0.189094 0.855070 0.909696
Si Si7 0.158642 0.801871 0.430411
O O1 0.805324 0.470326 0.818080
O O2 0.687774 0.630909 0.814388
O O3 0.694676 0.470324 0.879879
O O4 0.812226 0.630907 0.883573
O O5 0.024369 0.360317 0.487529
O O6 0.089937 0.312368 0.410709
O O7 0.000000 0.500000 0.420941
O O8 0.915094 0.294746 0.421389
O O9 0.750000 0.250000 0.802558
O O10 0.589938 0.187632 0.787252
O O11 0.915095 0.705254 0.776571
O O12 0.000000 0.500000 0.777017
O O13 0.024371 0.639689 0.710432
O O14 0.750000 0.250000 0.251306
O O15 0.625000 0.125000 0.223980
O O16 0.250000 0.750000 0.895405
O O17 0.250000 0.750000 0.446654
#
# Coordination Sequence:
#
# PCOD9371605 Si02
#       7
#    16  16  16  16  16  16  16
#     4  12  24  48  72 112 158 190 262 316 378 472
#     4  10  22  44  74 104 145 204 252 310 391 456
#     4  10  22  42  74 108 147 196 259 313 374 460
#     4  10  22  44  74 104 145 204 252 310 391 456
#     4  12  27  47  73 107 149 200 248 315 390 452
#     4  10  22  42  74 108 147 196 259 313 374 460
#     4  12  27  47  73 107 149 200 248 315 390 452
#
# _framework density 21.801257
#
# number of rings (size 3 to 8) (size 9 to 14) (size 15 to 20)
#    0.000    1.143    2.857    2.571    8.000    0.000 
#    0.000   21.429    0.000    0.000    0.000    0.000 
#    0.000    0.000    0.000    0.000    0.000    0.000 
#
# Total GULP energy -156446.987377 kJ/mol
# GULP energy per Si atom -5587.392406 kJ/mol
# Density = 2.175164 g / cm^3
# Si number density = 21.801257 Si / 1000 Ang^3
#
#
#
# Elastic Constant Matrix: (Units=GPa)
#
#
# Indices 1 2 3 4 5 6 
#
# 1 234.0914 110.9635 75.2891 0.0000 0.0000 0.0000
# 2 110.9635 149.2603 75.0199 0.0000 0.0000 0.0000
# 3 75.2891 75.0199 99.7983 0.0000 0.0000 0.0000
# 4 0.0000 0.0000 0.0000 33.6254 0.0000 0.0000
# 5 0.0000 0.0000 0.0000 0.0000 -41.0615 0.0000
# 6 0.0000 0.0000 0.0000 0.0000 0.0000 49.5739
#
#
#
# Elastic Compliance Matrix: (Units=1/GPa)
#
#
# Indices 1 2 3 4 5 6 
#
# 1 0.006875 -0.004025 -0.002161 0.000000 0.000000 0.000000
# 2 -0.004025 0.013124 -0.006829 0.000000 0.000000 0.000000
# 3 -0.002161 -0.006829 0.016784 0.000000 0.000000 0.000000
# 4 0.000000 0.000000 0.000000 0.029739 0.000000 0.000000
# 5 0.000000 0.000000 0.000000 0.000000 -0.024354 0.000000
# 6 0.000000 0.000000 0.000000 0.000000 0.000000 0.020172
#
#
# Mechanical properties :
#
#
# Convention : Reuss Voigt Hill
#
# Bulk Modulus (GPa) = 92.99663 111.74391 102.37027
# Shear Modulus (GPa) = 54.37439 23.21941 38.79690
#
# Velocity S-wave (km/s) = 4.99951 3.26705 4.22307
# Velocity P-wave (km/s) = 8.72215 8.09929 8.41648
#
# Compressibility (1/GPa) = 0.01075308
#
# Stress axis : x y z
#
# Youngs Moduli (GPa) = 145.46361 76.19463 59.57967
#
# Poissons Ratio (x) = 0.30665 0.12875
# Poissons Ratio (y) = 0.58544 0.40690
# Poissons Ratio (z) = 0.31433 0.52037
#
# Static dielectric constant tensor:
#      x y z
#    x 1.770180 0.000000 0.000000 
#    y 0.000000 1.806050 0.000000 
#    z 0.000000 0.000000 1.891630 
# 
# From -- ./inp_files/29088.got.cif
#   From: 2010.05.17/outbox.cif.g08.bks.cpg/sg43_15_cif.got.tgz:29088.got - 2010.06.03 19:21:55.
