data_PCOD9371108
_publ_section_title
;
Structure prediction by ZEFSAII (Michael W. Deem and Ramdas Pophale) SiO2 
 PCOD9371108
Probable space group: F D D 2
;
_chemical_formula_sum "Si O2"
_cell_formula_units_Z 56
_cell_length_a 9.039076
_cell_length_b 27.635658
_cell_length_c 12.464562
_cell_angle_alpha 90.000000
_cell_angle_beta 90.000000
_cell_angle_gamma 90.000000
_cell_volume 3113.657721
_symmetry_space_group_name_H-M "F D D 2"
_symmetry_group_IT_number 43
_symmetry_cell_setting 'orthorhombic'
loop_
_space_group_symop_operation_xyz
x,y,z
-x,-y,z
1/4-x,1/4+y,1/4+z
1/4+x,1/4-y,1/4+z
x,1/2+y,1/2+z
-x,1/2-y,1/2+z
1/4-x,3/4+y,3/4+z
1/4+x,3/4-y,3/4+z
1/2+x,y,1/2+z
1/2-x,-y,1/2+z
3/4-x,1/4+y,3/4+z
3/4+x,1/4-y,3/4+z
1/2+x,1/2+y,z
1/2-x,1/2-y,z
3/4-x,3/4+y,1/4+z
3/4+x,3/4-y,1/4+z
loop_
_atom_site_type_symbol
_atom_site_label
_atom_site_fract_x
_atom_site_fract_y
_atom_site_fract_z
Si Si1 0.271621 0.476995 0.632170
Si Si2 0.750000 0.750000 0.237374
Si Si3 0.217884 0.569354 0.363591
Si Si4 0.323789 0.319457 0.813859
O O1 0.249232 0.453650 0.748075
O O2 0.405822 0.449079 0.573102
O O3 0.329095 0.532650 0.636392
O O4 0.123972 0.475933 0.562473
O O5 0.665794 0.789098 0.165220
O O6 0.173204 0.625222 0.350491
O O7 0.355366 0.565688 0.445645
#
# Coordination Sequence:
#
# PCOD9371108 Si02
#       4
#    16   8  16  16
#     4  10  22  42  59  93 126 159 209 259 304 376
#     4  10  24  40  62  94 120 162 214 250 312 370
#     4  11  21  41  63  91 127 166 205 260 307 370
#     4  10  21  39  65  89 124 170 205 252 323 357
#
# _framework density 17.985278000000001
#
# number of rings (size 3 to 8) (size 9 to 14) (size 15 to 20)
#    0.000    1.714    2.857    1.714    0.000    4.571 
#   10.286    2.857    0.000    0.000    0.000    0.000 
#    0.000    0.000    0.000    0.000    0.000    0.000 
#
# Total GULP energy -78151.747541 kJ/mol
# GULP energy per Si atom -5582.267681 kJ/mol
# Density = 1.794434 g / cm^3
# Si number density = 17.985278 Si / 1000 Ang^3
#
#
#
# Elastic Constant Matrix: (Units=GPa)
#
#
# Indices 1 2 3 4 5 6 
#
# 1 96.9763 31.3771 57.5545 0.0000 0.0000 0.0000
# 2 31.3771 141.0631 75.4955 0.0000 0.0000 0.0000
# 3 57.5545 75.4955 102.4849 0.0000 0.0000 0.0000
# 4 0.0000 0.0000 0.0000 33.4975 0.0000 0.0000
# 5 0.0000 0.0000 0.0000 0.0000 22.1673 0.0000
# 6 0.0000 0.0000 0.0000 0.0000 0.0000 13.0005
#
#
#
# Elastic Compliance Matrix: (Units=1/GPa)
#
#
# Indices 1 2 3 4 5 6 
#
# 1 0.015815 0.002040 -0.010384 0.000000 0.000000 0.000000
# 2 0.002040 0.011966 -0.009960 0.000000 0.000000 0.000000
# 3 -0.010384 -0.009960 0.022926 0.000000 0.000000 0.000000
# 4 0.000000 0.000000 0.000000 0.029853 0.000000 0.000000
# 5 0.000000 0.000000 0.000000 0.000000 0.045112 0.000000
# 6 0.000000 0.000000 0.000000 0.000000 0.000000 0.076920
#
#
# Mechanical properties :
#
#
# Convention : Reuss Voigt Hill
#
# Bulk Modulus (GPa) = 70.93218 74.37541 72.65379
# Shear Modulus (GPa) = 20.50028 25.47285 22.98657
#
# Velocity S-wave (km/s) = 3.37981 3.76748 3.57890
# Velocity P-wave (km/s) = 7.39969 7.76972 7.58696
#
# Compressibility (1/GPa) = 0.01409797
#
# Stress axis : x y z
#
# Youngs Moduli (GPa) = 63.23292 83.57081 43.61841
#
# Poissons Ratio (x) = -0.17045 0.45292
# Poissons Ratio (y) = -0.12897 0.43444
# Poissons Ratio (z) = 0.65660 0.83237
#
# Static dielectric constant tensor:
#      x y z
#    x 1.598450 0.000000 0.000000 
#    y 0.000000 1.632350 0.000000 
#    z 0.000000 0.000000 1.600820 
# 
# From -- ./inp_files/5198.got.cif
#   From: 2010.05.17/outbox.cif.g08.bks.cpg/sg43_3_cif.got.tgz:5198.got - 2010.06.03 19:21:55.
