data_PCOD9371057
_publ_section_title
;
Structure prediction by ZEFSAII (Michael W. Deem and Ramdas Pophale) SiO2 
 PCOD9371057
Probable space group: F D D 2
;
_chemical_formula_sum "Si O2"
_cell_formula_units_Z 96
_cell_length_a 13.285146
_cell_length_b 22.258078
_cell_length_c 13.110070
_cell_angle_alpha 90.000000
_cell_angle_beta 90.000000
_cell_angle_gamma 90.000000
_cell_volume 3876.671506
_symmetry_space_group_name_H-M "F D D 2"
_symmetry_group_IT_number 43
_symmetry_cell_setting 'orthorhombic'
loop_
_space_group_symop_operation_xyz
x,y,z
-x,-y,z
1/4-x,1/4+y,1/4+z
1/4+x,1/4-y,1/4+z
x,1/2+y,1/2+z
-x,1/2-y,1/2+z
1/4-x,3/4+y,3/4+z
1/4+x,3/4-y,3/4+z
1/2+x,y,1/2+z
1/2-x,-y,1/2+z
3/4-x,1/4+y,3/4+z
3/4+x,1/4-y,3/4+z
1/2+x,1/2+y,z
1/2-x,1/2-y,z
3/4-x,3/4+y,1/4+z
3/4+x,3/4-y,1/4+z
loop_
_atom_site_type_symbol
_atom_site_label
_atom_site_fract_x
_atom_site_fract_y
_atom_site_fract_z
Si Si1 0.860533 0.753211 0.641680
Si Si2 0.502113 0.429488 0.999182
Si Si3 0.142379 0.119011 0.683589
Si Si4 0.830182 0.843337 0.910738
Si Si5 0.855515 0.674440 0.439332
Si Si6 0.525297 0.755789 0.845679
O O1 0.750000 0.750000 0.691966
O O2 0.872207 0.822822 0.612299
O O3 0.856416 0.707861 0.547868
O O4 0.944535 0.742791 0.727121
O O5 0.500000 0.500000 0.971128
O O6 0.495808 0.423315 0.122764
O O7 0.404106 0.392415 0.960537
O O8 0.595094 0.391190 0.954139
O O9 0.180922 0.140092 0.792439
O O10 0.218939 0.072832 0.635027
O O11 0.030989 0.093054 0.705202
O O12 0.888662 0.780483 0.908566
O O13 0.927272 0.717613 0.370450
#
# Coordination Sequence:
#
# PCOD9371057 Si02
#       6
#    16  16  16  16  16  16
#     4  11  24  41  60  92 128 164 214 268 323 395
#     4  11  25  44  67  96 134 178 225 283 351 422
#     4  11  21  38  64  92 127 170 213 267 328 393
#     4  10  21  38  61  95 126 159 213 269 327 394
#     4  11  26  45  66  97 135 178 227 279 348 420
#     4  10  22  40  64  92 125 165 214 270 327 394
#
# _framework density 24.763511999999999
#
# number of rings (size 3 to 8) (size 9 to 14) (size 15 to 20)
#    0.000    1.333    0.000    7.000    0.000   10.667 
#    0.000    0.000    0.000    0.000    0.000    0.000 
#    0.000    0.000    0.000    0.000    0.000    0.000 
#
# Total GULP energy -134346.243561 kJ/mol
# GULP energy per Si atom -5597.760148 kJ/mol
# Density = 2.470715 g / cm^3
# Si number density = 24.763512 Si / 1000 Ang^3
#
#
#
# Elastic Constant Matrix: (Units=GPa)
#
#
# Indices 1 2 3 4 5 6 
#
# 1 58.0360 -3.5074 3.2915 0.0000 0.0000 0.0000
# 2 -3.5074 133.5196 30.2292 0.0000 0.0000 0.0000
# 3 3.2915 30.2292 93.7022 0.0000 0.0000 0.0000
# 4 0.0000 0.0000 0.0000 68.5576 0.0000 0.0000
# 5 0.0000 0.0000 0.0000 0.0000 37.0120 0.0000
# 6 0.0000 0.0000 0.0000 0.0000 0.0000 29.0403
#
#
#
# Elastic Compliance Matrix: (Units=1/GPa)
#
#
# Indices 1 2 3 4 5 6 
#
# 1 0.017316 0.000639 -0.000814 0.000000 0.000000 0.000000
# 2 0.000639 0.008103 -0.002637 0.000000 0.000000 0.000000
# 3 -0.000814 -0.002637 0.011551 0.000000 0.000000 0.000000
# 4 0.000000 0.000000 0.000000 0.014586 0.000000 0.000000
# 5 0.000000 0.000000 0.000000 0.000000 0.027018 0.000000
# 6 0.000000 0.000000 0.000000 0.000000 0.000000 0.034435
#
#
# Mechanical properties :
#
#
# Convention : Reuss Voigt Hill
#
# Bulk Modulus (GPa) = 31.90162 38.36495 35.13328
# Shear Modulus (GPa) = 38.73505 43.93829 41.33667
#
# Velocity S-wave (km/s) = 3.95929 4.21683 4.09009
# Velocity P-wave (km/s) = 5.81479 6.26379 6.04346
#
# Compressibility (1/GPa) = 0.03134637
#
# Stress axis : x y z
#
# Youngs Moduli (GPa) = 57.75171 123.40695 86.57019
#
# Poissons Ratio (x) = -0.07889 0.07051
# Poissons Ratio (y) = -0.03692 0.22826
# Poissons Ratio (z) = 0.04704 0.32538
#
# Static dielectric constant tensor:
#      x y z
#    x 1.985790 0.000000 0.000000 
#    y 0.000000 1.987370 0.000000 
#    z 0.000000 0.000000 1.982460 
# 
# From -- ./inp_files/6684.got.cif
#   From: 2010.05.17/outbox.cif.g08.bks.cpg/sg43_4_cif.got.tgz:6684.got - 2010.06.03 19:21:55.
