data_PCOD9371273
_publ_section_title
;
Structure prediction by ZEFSAII (Michael W. Deem and Ramdas Pophale) SiO2 
 PCOD9371273
Probable space group: F D D 2
;
_chemical_formula_sum "Si O2"
_cell_formula_units_Z 72
_cell_length_a 17.262480
_cell_length_b 11.159620
_cell_length_c 16.056719
_cell_angle_alpha 90.000000
_cell_angle_beta 90.000000
_cell_angle_gamma 90.000000
_cell_volume 3093.209975
_symmetry_space_group_name_H-M "F D D 2"
_symmetry_group_IT_number 43
_symmetry_cell_setting 'orthorhombic'
loop_
_space_group_symop_operation_xyz
x,y,z
-x,-y,z
1/4-x,1/4+y,1/4+z
1/4+x,1/4-y,1/4+z
x,1/2+y,1/2+z
-x,1/2-y,1/2+z
1/4-x,3/4+y,3/4+z
1/4+x,3/4-y,3/4+z
1/2+x,y,1/2+z
1/2-x,-y,1/2+z
3/4-x,1/4+y,3/4+z
3/4+x,1/4-y,3/4+z
1/2+x,1/2+y,z
1/2-x,1/2-y,z
3/4-x,3/4+y,1/4+z
3/4+x,3/4-y,1/4+z
loop_
_atom_site_type_symbol
_atom_site_label
_atom_site_fract_x
_atom_site_fract_y
_atom_site_fract_z
Si Si1 0.840042 0.784650 0.420180
Si Si2 0.127505 0.299733 0.825505
Si Si3 0.093226 0.787348 0.501490
Si Si4 0.955414 0.117763 0.998719
Si Si5 0.500000 0.000000 0.187942
O O1 0.750000 0.750000 0.428722
O O2 0.860072 0.875790 0.494472
O O3 0.899267 0.676081 0.431931
O O4 0.846963 0.839050 0.328738
O O5 0.137770 0.160447 0.799127
O O6 0.070166 0.313973 0.903927
O O7 0.206897 0.338726 0.873275
O O8 0.175270 0.715881 0.491769
O O9 0.024321 0.704131 0.530608
O O10 0.000000 0.000000 0.968057
#
# Coordination Sequence:
#
# PCOD9371273 Si02
#       5
#    16  16  16  16   8
#     4  11  26  46  75 109 159 195 254 317 386 454
#     4  10  21  42  72 108 141 197 247 306 378 450
#     4  10  23  43  72 108 148 191 253 312 373 457
#     4  11  27  48  72 111 153 204 248 313 383 458
#     4   8  22  40  68 106 138 192 238 302 364 450
#
# _framework density 23.276790999999999
#
# number of rings (size 3 to 8) (size 9 to 14) (size 15 to 20)
#    1.333    0.444    0.000    2.667    6.222    5.333 
#   10.000    0.000    0.000    0.000    0.000    0.000 
#    0.000    0.000    0.000    0.000    0.000    0.000 
#
# Total GULP energy -100329.329944 kJ/mol
# GULP energy per Si atom -5573.851664 kJ/mol
# Density = 2.322381 g / cm^3
# Si number density = 23.276791 Si / 1000 Ang^3
#
#
#
# Elastic Constant Matrix: (Units=GPa)
#
#
# Indices 1 2 3 4 5 6 
#
# 1 80.8861 14.9123 18.7630 0.0000 0.0000 0.0000
# 2 14.9123 82.3007 25.0141 0.0000 0.0000 0.0000
# 3 18.7630 25.0141 101.4592 0.0000 0.0000 0.0000
# 4 0.0000 0.0000 0.0000 30.9569 0.0000 0.0000
# 5 0.0000 0.0000 0.0000 0.0000 17.7861 0.0000
# 6 0.0000 0.0000 0.0000 0.0000 0.0000 36.6397
#
#
#
# Elastic Compliance Matrix: (Units=1/GPa)
#
#
# Indices 1 2 3 4 5 6 
#
# 1 0.013153 -0.001777 -0.001994 0.000000 0.000000 0.000000
# 2 -0.001777 0.013375 -0.002969 0.000000 0.000000 0.000000
# 3 -0.001994 -0.002969 0.010957 0.000000 0.000000 0.000000
# 4 0.000000 0.000000 0.000000 0.032303 0.000000 0.000000
# 5 0.000000 0.000000 0.000000 0.000000 0.056224 0.000000
# 6 0.000000 0.000000 0.000000 0.000000 0.000000 0.027293
#
#
# Mechanical properties :
#
#
# Convention : Reuss Voigt Hill
#
# Bulk Modulus (GPa) = 41.65876 42.44720 42.05298
# Shear Modulus (GPa) = 28.60629 30.80698 29.70664
#
# Velocity S-wave (km/s) = 3.50946 3.64195 3.57632
# Velocity P-wave (km/s) = 5.86154 5.99671 5.92951
#
# Compressibility (1/GPa) = 0.02400455
#
# Stress axis : x y z
#
# Youngs Moduli (GPa) = 76.02643 74.76689 91.26637
#
# Poissons Ratio (x) = 0.13287 0.18201
# Poissons Ratio (y) = 0.13511 0.27096
# Poissons Ratio (z) = 0.15162 0.22197
#
# Static dielectric constant tensor:
#      x y z
#    x 1.980690 0.000000 0.000000 
#    y 0.000000 1.946700 0.000000 
#    z 0.000000 0.000000 1.941710 
# 
# From -- ./inp_files/14141.got.cif
#   From: 2010.05.17/outbox.cif.g08.bks.cpg/sg43_8_cif.got.tgz:14141.got - 2010.06.03 19:21:55.
