data_PCOD9371417
_publ_section_title
;
Structure prediction by ZEFSAII (Michael W. Deem and Ramdas Pophale) SiO2 
 PCOD9371417
Probable space group: F D D 2
;
_chemical_formula_sum "Si O2"
_cell_formula_units_Z 104
_cell_length_a 15.477614
_cell_length_b 25.217908
_cell_length_c 11.132361
_cell_angle_alpha 90.000000
_cell_angle_beta 90.000000
_cell_angle_gamma 90.000000
_cell_volume 4345.105730
_symmetry_space_group_name_H-M "F D D 2"
_symmetry_group_IT_number 43
_symmetry_cell_setting 'orthorhombic'
loop_
_space_group_symop_operation_xyz
x,y,z
-x,-y,z
1/4-x,1/4+y,1/4+z
1/4+x,1/4-y,1/4+z
x,1/2+y,1/2+z
-x,1/2-y,1/2+z
1/4-x,3/4+y,3/4+z
1/4+x,3/4-y,3/4+z
1/2+x,y,1/2+z
1/2-x,-y,1/2+z
3/4-x,1/4+y,3/4+z
3/4+x,1/4-y,3/4+z
1/2+x,1/2+y,z
1/2-x,1/2-y,z
3/4-x,3/4+y,1/4+z
3/4+x,3/4-y,1/4+z
loop_
_atom_site_type_symbol
_atom_site_label
_atom_site_fract_x
_atom_site_fract_y
_atom_site_fract_z
Si Si1 0.500000 0.000000 0.745690
Si Si2 0.411334 0.602706 0.494562
Si Si3 0.847870 0.434580 0.810147
Si Si4 0.285249 0.931404 0.550722
Si Si5 0.375608 0.715521 0.581596
Si Si6 0.193648 0.182368 0.990125
Si Si7 0.240006 0.137643 0.487653
O O1 0.416544 0.982469 0.825020
O O2 0.513506 0.945569 0.671085
O O3 0.313390 0.582489 0.516861
O O4 0.423270 0.665388 0.522489
O O5 0.466028 0.572387 0.598019
O O6 0.436057 0.599194 0.356995
O O7 0.796964 0.445721 0.688418
O O8 0.911614 0.384893 0.781809
O O9 0.791672 0.413572 0.918740
O O10 0.330758 0.971994 0.460701
O O11 0.337074 0.876075 0.525574
O O12 0.276313 0.695415 0.572582
O O13 0.372133 0.770321 0.511283
#
# Coordination Sequence:
#
# PCOD9371417 Si02
#       7
#     8  16  16  16  16  16  16
#     4   8  24  44  68  92 146 176 230 284 360 408
#     4  10  22  39  63  94 132 169 221 287 335 406
#     4  10  24  44  68  96 137 187 230 286 357 414
#     4  10  22  39  63  94 132 169 221 287 335 406
#     4   9  20  37  63  89 123 171 225 268 338 401
#     4   9  20  37  63  89 123 171 225 268 338 401
#     4  10  24  44  68  96 137 187 230 286 357 414
#
# _framework density 23.934975999999999
#
# number of rings (size 3 to 8) (size 9 to 14) (size 15 to 20)
#    0.923    1.538    0.000    0.000   12.923    4.923 
#    2.769    3.077    0.000    0.000    0.000    0.000 
#    0.000    0.000    0.000    0.000    0.000    0.000 
#
# Total GULP energy -144895.655510 kJ/mol
# GULP energy per Si atom -5572.909827 kJ/mol
# Density = 2.388050 g / cm^3
# Si number density = 23.934976 Si / 1000 Ang^3
#
#
#
# Elastic Constant Matrix: (Units=GPa)
#
#
# Indices 1 2 3 4 5 6 
#
# 1 75.6688 -1.5405 29.1526 0.0000 0.0000 0.0000
# 2 -1.5405 52.0614 -1.3466 0.0000 0.0000 0.0000
# 3 29.1526 -1.3466 93.5698 0.0000 0.0000 0.0000
# 4 0.0000 0.0000 0.0000 2.3285 0.0000 0.0000
# 5 0.0000 0.0000 0.0000 0.0000 19.2663 0.0000
# 6 0.0000 0.0000 0.0000 0.0000 0.0000 23.4126
#
#
#
# Elastic Compliance Matrix: (Units=1/GPa)
#
#
# Indices 1 2 3 4 5 6 
#
# 1 0.015024 0.000324 -0.004676 0.000000 0.000000 0.000000
# 2 0.000324 0.019222 0.000176 0.000000 0.000000 0.000000
# 3 -0.004676 0.000176 0.012147 0.000000 0.000000 0.000000
# 4 0.000000 0.000000 0.000000 0.429469 0.000000 0.000000
# 5 0.000000 0.000000 0.000000 0.000000 0.051904 0.000000
# 6 0.000000 0.000000 0.000000 0.000000 0.000000 0.042712
#
#
# Mechanical properties :
#
#
# Convention : Reuss Voigt Hill
#
# Bulk Modulus (GPa) = 26.28876 30.42567 28.35722
# Shear Modulus (GPa) = 8.45293 22.00377 15.22835
#
# Velocity S-wave (km/s) = 1.88130 3.03531 2.52511
# Velocity P-wave (km/s) = 3.96564 5.00235 4.51386
#
# Compressibility (1/GPa) = 0.03803907
#
# Stress axis : x y z
#
# Youngs Moduli (GPa) = 66.56184 52.02316 82.32743
#
# Poissons Ratio (x) = -0.01684 0.38497
# Poissons Ratio (y) = -0.02154 -0.01447
# Poissons Ratio (z) = 0.31125 -0.00915
#
# Static dielectric constant tensor:
#      x y z
#    x 1.967560 0.000000 0.000000 
#    y 0.000000 1.974540 0.000000 
#    z 0.000000 0.000000 1.966350 
# 
# From -- ./inp_files/6871.got.cif
#   From: 2010.05.17/outbox.cif.g08.bks.cpg/sg43_4_cif.got.tgz:6871.got - 2010.06.03 19:21:55.
