data_PCOD9371802
_publ_section_title
;
Structure prediction by ZEFSAII (Michael W. Deem and Ramdas Pophale) SiO2 
 PCOD9371802
Probable space group: F D D 2
;
_chemical_formula_sum "Si O2"
_cell_formula_units_Z 112
_cell_length_a 16.273473
_cell_length_b 23.439567
_cell_length_c 11.813577
_cell_angle_alpha 90.000000
_cell_angle_beta 90.000000
_cell_angle_gamma 90.000000
_cell_volume 4506.208150
_symmetry_space_group_name_H-M "F D D 2"
_symmetry_group_IT_number 43
_symmetry_cell_setting 'orthorhombic'
loop_
_space_group_symop_operation_xyz
x,y,z
-x,-y,z
1/4-x,1/4+y,1/4+z
1/4+x,1/4-y,1/4+z
x,1/2+y,1/2+z
-x,1/2-y,1/2+z
1/4-x,3/4+y,3/4+z
1/4+x,3/4-y,3/4+z
1/2+x,y,1/2+z
1/2-x,-y,1/2+z
3/4-x,1/4+y,3/4+z
3/4+x,1/4-y,3/4+z
1/2+x,1/2+y,z
1/2-x,1/2-y,z
3/4-x,3/4+y,1/4+z
3/4+x,3/4-y,1/4+z
loop_
_atom_site_type_symbol
_atom_site_label
_atom_site_fract_x
_atom_site_fract_y
_atom_site_fract_z
Si Si1 0.503532 0.854820 0.240610
Si Si2 0.850024 0.489438 0.233466
Si Si3 0.182721 0.362703 0.467113
Si Si4 0.817279 0.862703 0.757548
Si Si5 0.649976 0.989438 0.491195
Si Si6 0.753532 0.604820 0.234051
Si Si7 0.000000 0.000000 0.166168
Si Si8 0.250000 0.750000 0.308493
O O1 0.407876 0.851156 0.209338
O O2 0.557924 0.884678 0.145330
O O3 0.539391 0.792178 0.257247
O O4 0.500000 0.885414 0.362331
O O5 0.802490 0.428787 0.227345
O O6 0.881770 0.500000 0.362331
O O7 0.789391 0.542178 0.217414
O O8 0.921495 0.490309 0.140507
O O9 0.197510 0.428787 0.497317
O O10 0.192076 0.365322 0.329332
O O11 0.092124 0.351156 0.515323
O O12 0.237721 0.307531 0.488407
O O13 0.762279 0.807531 0.736254
O O14 0.578505 0.990309 0.584155
#
# Coordination Sequence:
#
# PCOD9371802 Si02
#       8
#    16  16  16  16  16  16   8   8
#     4  11  21  37  61  93 135 172 218 278 337 388
#     4  10  23  36  58  94 131 168 216 273 336 397
#     4  11  23  38  62  96 132 175 223 277 331 405
#     4  11  23  38  62  96 132 175 223 277 331 405
#     4  10  23  36  58  94 131 168 216 273 336 397
#     4  11  21  37  61  93 135 172 218 278 337 388
#     4  12  21  36  62  90 129 168 218 264 341 374
#     4  12  21  36  62  90 129 168 218 264 341 374
#
# _framework density 24.854599
#
# number of rings (size 3 to 8) (size 9 to 14) (size 15 to 20)
#    0.000    1.143    5.714    1.286    4.000    0.000 
#    0.000    1.429    0.000    0.000    0.000    0.000 
#    0.000    0.000    0.000    0.000    0.000    0.000 
#
# Total GULP energy -156467.968678 kJ/mol
# GULP energy per Si atom -5588.141739 kJ/mol
# Density = 2.479803 g / cm^3
# Si number density = 24.854599 Si / 1000 Ang^3
#
#
#
# Elastic Constant Matrix: (Units=GPa)
#
#
# Indices 1 2 3 4 5 6 
#
# 1 71.5558 53.5138 24.2292 0.0000 0.0000 0.0000
# 2 53.5138 225.1244 27.3757 0.0000 0.0000 0.0000
# 3 24.2292 27.3757 102.7116 0.0000 0.0000 0.0000
# 4 0.0000 0.0000 0.0000 -7.1577 0.0000 0.0000
# 5 0.0000 0.0000 0.0000 0.0000 16.1708 0.0000
# 6 0.0000 0.0000 0.0000 0.0000 0.0000 44.9092
#
#
#
# Elastic Compliance Matrix: (Units=1/GPa)
#
#
# Indices 1 2 3 4 5 6 
#
# 1 0.017961 -0.003880 -0.003203 0.000000 0.000000 0.000000
# 2 -0.003880 0.005429 -0.000532 0.000000 0.000000 0.000000
# 3 -0.003203 -0.000532 0.010633 0.000000 0.000000 0.000000
# 4 0.000000 0.000000 0.000000 -0.139709 0.000000 0.000000
# 5 0.000000 0.000000 0.000000 0.000000 0.061840 0.000000
# 6 0.000000 0.000000 0.000000 0.000000 0.000000 0.022267
#
#
# Mechanical properties :
#
#
# Convention : Reuss Voigt Hill
#
# Bulk Modulus (GPa) = 53.20746 67.73657 60.47202
# Shear Modulus (GPa) = -59332.78161 30.40266 -29651.18948
#
# Velocity S-wave (km/s) = -154.67313 3.50125 -109.34239
# Velocity P-wave (km/s) = 178.54107 6.60737 126.16112
#
# Compressibility (1/GPa) = 0.01879436
#
# Stress axis : x y z
#
# Youngs Moduli (GPa) = 55.67507 184.19709 94.04463
#
# Poissons Ratio (x) = 0.71470 0.30121
# Poissons Ratio (y) = 0.21602 0.05000
# Poissons Ratio (z) = 0.17832 0.09794
#
# Static dielectric constant tensor:
#      x y z
#    x 1.971470 0.000000 0.000000 
#    y 0.000000 1.991770 0.000000 
#    z 0.000000 0.000000 2.053910 
# 
# From -- ./inp_files/10223.got.cif
#   From: 2010.05.17/outbox.cif.g08.bks.cpg/sg43_6_cif.got.tgz:10223.got - 2010.06.03 19:21:55.
