data_PCOD9371738
_publ_section_title
;
Structure prediction by ZEFSAII (Michael W. Deem and Ramdas Pophale) SiO2 
 PCOD9371738
Probable space group: F D D 2
;
_chemical_formula_sum "Si O2"
_cell_formula_units_Z 80
_cell_length_a 13.839914
_cell_length_b 10.597873
_cell_length_c 24.160396
_cell_angle_alpha 90.000000
_cell_angle_beta 90.000000
_cell_angle_gamma 90.000000
_cell_volume 3543.693489
_symmetry_space_group_name_H-M "F D D 2"
_symmetry_group_IT_number 43
_symmetry_cell_setting 'orthorhombic'
loop_
_space_group_symop_operation_xyz
x,y,z
-x,-y,z
1/4-x,1/4+y,1/4+z
1/4+x,1/4-y,1/4+z
x,1/2+y,1/2+z
-x,1/2-y,1/2+z
1/4-x,3/4+y,3/4+z
1/4+x,3/4-y,3/4+z
1/2+x,y,1/2+z
1/2-x,-y,1/2+z
3/4-x,1/4+y,3/4+z
3/4+x,1/4-y,3/4+z
1/2+x,1/2+y,z
1/2-x,1/2-y,z
3/4-x,3/4+y,1/4+z
3/4+x,3/4-y,1/4+z
loop_
_atom_site_type_symbol
_atom_site_label
_atom_site_fract_x
_atom_site_fract_y
_atom_site_fract_z
Si Si1 0.220499 0.625074 0.355150
Si Si2 0.512671 0.154386 0.519432
Si Si3 0.757019 0.599242 0.086314
Si Si4 0.357328 0.190340 0.428988
Si Si5 0.706289 0.578419 0.967701
O O1 0.250000 0.750000 0.321574
O O2 0.234875 0.493892 0.323237
O O3 0.108720 0.659288 0.366208
O O4 0.269560 0.623300 0.415863
O O5 0.430330 0.214896 0.480152
O O6 0.617693 0.162572 0.490477
O O7 0.500000 0.000000 0.528307
O O8 0.750000 0.750000 0.079999
O O9 0.669225 0.544383 0.122655
O O10 0.759916 0.543742 0.024503
O O11 0.250000 0.250000 0.428840
O O12 0.341002 0.042929 0.439524
#
# Coordination Sequence:
#
# PCOD9371738 Si02
#       5
#    16  16  16  16  16
#     4  12  26  42  71 107 142 179 235 296 350 414
#     4  10  22  45  72  99 143 187 235 284 347 425
#     4  12  22  45  70 100 135 190 238 276 347 434
#     4  11  24  42  70 106 137 184 236 295 346 413
#     4  11  22  41  73  99 135 183 236 282 347 420
#
# _framework density 22.575316000000001
#
# number of rings (size 3 to 8) (size 9 to 14) (size 15 to 20)
#    0.000    0.800    6.000    1.200    2.800    6.400 
#    0.000    0.000    0.000    0.000    0.000    0.000 
#    0.000    0.000    0.000    0.000    0.000    0.000 
#
# Total GULP energy -111372.488831 kJ/mol
# GULP energy per Si atom -5568.624442 kJ/mol
# Density = 2.252393 g / cm^3
# Si number density = 22.575316 Si / 1000 Ang^3
#
#
#
# Elastic Constant Matrix: (Units=GPa)
#
#
# Indices 1 2 3 4 5 6 
#
# 1 102.0463 24.5630 44.0404 0.0000 0.0000 0.0000
# 2 24.5630 73.7836 52.2391 0.0000 0.0000 0.0000
# 3 44.0404 52.2391 190.7037 0.0000 0.0000 0.0000
# 4 0.0000 0.0000 0.0000 28.0582 0.0000 0.0000
# 5 0.0000 0.0000 0.0000 0.0000 37.5016 0.0000
# 6 0.0000 0.0000 0.0000 0.0000 0.0000 35.0342
#
#
#
# Elastic Compliance Matrix: (Units=1/GPa)
#
#
# Indices 1 2 3 4 5 6 
#
# 1 0.011205 -0.002355 -0.001943 0.000000 0.000000 0.000000
# 2 -0.002355 0.017309 -0.004198 0.000000 0.000000 0.000000
# 3 -0.001943 -0.004198 0.006842 0.000000 0.000000 0.000000
# 4 0.000000 0.000000 0.000000 0.035640 0.000000 0.000000
# 5 0.000000 0.000000 0.000000 0.000000 0.026666 0.000000
# 6 0.000000 0.000000 0.000000 0.000000 0.000000 0.028544
#
#
# Mechanical properties :
#
#
# Convention : Reuss Voigt Hill
#
# Bulk Modulus (GPa) = 54.44851 67.57985 61.01418
# Shear Modulus (GPa) = 33.48582 36.49819 34.99201
#
# Velocity S-wave (km/s) = 3.85553 4.02522 3.94129
# Velocity P-wave (km/s) = 6.63258 7.18356 6.91356
#
# Compressibility (1/GPa) = 0.01836598
#
# Stress axis : x y z
#
# Youngs Moduli (GPa) = 89.24893 57.77342 146.15224
#
# Poissons Ratio (x) = 0.13604 0.28390
# Poissons Ratio (y) = 0.21016 0.61349
# Poissons Ratio (z) = 0.17337 0.24251
#
# Static dielectric constant tensor:
#      x y z
#    x 1.898550 0.000000 0.000000 
#    y 0.000000 1.905260 0.000000 
#    z 0.000000 0.000000 1.960110 
# 
# From -- ./inp_files/21606.got.cif
#   From: 2010.05.17/outbox.cif.g08.bks.cpg/sg43_11_cif.got.tgz:21606.got - 2010.06.03 19:21:55.
