data_PCOD9371299
_publ_section_title
;
Structure prediction by ZEFSAII (Michael W. Deem and Ramdas Pophale) SiO2 
 PCOD9371299
Probable space group: F D D 2
;
_chemical_formula_sum "Si O2"
_cell_formula_units_Z 64
_cell_length_a 8.455171
_cell_length_b 15.295780
_cell_length_c 22.256397
_cell_angle_alpha 90.000000
_cell_angle_beta 90.000000
_cell_angle_gamma 90.000000
_cell_volume 2878.385003
_symmetry_space_group_name_H-M "F D D 2"
_symmetry_group_IT_number 43
_symmetry_cell_setting 'orthorhombic'
loop_
_space_group_symop_operation_xyz
x,y,z
-x,-y,z
1/4-x,1/4+y,1/4+z
1/4+x,1/4-y,1/4+z
x,1/2+y,1/2+z
-x,1/2-y,1/2+z
1/4-x,3/4+y,3/4+z
1/4+x,3/4-y,3/4+z
1/2+x,y,1/2+z
1/2-x,-y,1/2+z
3/4-x,1/4+y,3/4+z
3/4+x,1/4-y,3/4+z
1/2+x,1/2+y,z
1/2-x,1/2-y,z
3/4-x,3/4+y,1/4+z
3/4+x,3/4-y,1/4+z
loop_
_atom_site_type_symbol
_atom_site_label
_atom_site_fract_x
_atom_site_fract_y
_atom_site_fract_z
Si Si1 0.309715 0.006444 0.496300
Si Si2 0.934978 0.760115 0.618394
Si Si3 0.371315 0.825446 0.355885
Si Si4 0.428454 0.905176 0.668695
O O1 0.277082 0.108887 0.481474
O O2 0.500000 0.000000 0.496179
O O3 0.221666 0.964250 0.438331
O O4 0.230733 0.966212 0.554204
O O5 0.750000 0.750000 0.606845
O O6 0.030216 0.836692 0.585135
O O7 0.010033 0.663075 0.617836
O O8 0.250000 0.750000 0.372936
O O9 0.491439 0.843673 0.409944
O O10 0.500000 0.000000 0.662614
#
# Coordination Sequence:
#
# PCOD9371299 Si02
#       4
#    16  16  16  16
#     4  10  22  44  72 103 142 190 248 294 362 433
#     4  10  21  43  72 100 147 187 232 305 357 425
#     4  12  23  41  73 108 140 195 237 301 362 431
#     4  10  21  44  71 100 145 188 230 302 359 422
#
# _framework density 22.234690000000001
#
# number of rings (size 3 to 8) (size 9 to 14) (size 15 to 20)
#    1.500    0.000    2.500    3.750    0.000    0.000 
#    0.000   11.250    0.000    0.000    0.000    0.000 
#    0.000    0.000    0.000    0.000    0.000    0.000 
#
# Total GULP energy -89189.090540 kJ/mol
# GULP energy per Si atom -5574.318159 kJ/mol
# Density = 2.218408 g / cm^3
# Si number density = 22.234690 Si / 1000 Ang^3
#
#
#
# Elastic Constant Matrix: (Units=GPa)
#
#
# Indices 1 2 3 4 5 6 
#
# 1 142.8337 84.3354 15.4414 0.0000 0.0000 0.0000
# 2 84.3354 204.2351 17.8338 0.0000 0.0000 0.0000
# 3 15.4414 17.8338 52.8006 0.0000 0.0000 0.0000
# 4 0.0000 0.0000 0.0000 20.0803 0.0000 0.0000
# 5 0.0000 0.0000 0.0000 0.0000 22.4418 0.0000
# 6 0.0000 0.0000 0.0000 0.0000 0.0000 48.6860
#
#
#
# Elastic Compliance Matrix: (Units=1/GPa)
#
#
# Indices 1 2 3 4 5 6 
#
# 1 0.009369 -0.003740 -0.001477 0.000000 0.000000 0.000000
# 2 -0.003740 0.006538 -0.001115 0.000000 0.000000 0.000000
# 3 -0.001477 -0.001115 0.019748 0.000000 0.000000 0.000000
# 4 0.000000 0.000000 0.000000 0.049800 0.000000 0.000000
# 5 0.000000 0.000000 0.000000 0.000000 0.044560 0.000000
# 6 0.000000 0.000000 0.000000 0.000000 0.000000 0.020540
#
#
# Mechanical properties :
#
#
# Convention : Reuss Voigt Hill
#
# Bulk Modulus (GPa) = 43.49309 70.56561 57.02935
# Shear Modulus (GPa) = 29.26028 37.05888 33.15958
#
# Velocity S-wave (km/s) = 3.63157 4.08697 3.86598
# Velocity P-wave (km/s) = 6.09818 7.35369 6.75517
#
# Compressibility (1/GPa) = 0.02299216
#
# Stress axis : x y z
#
# Youngs Moduli (GPa) = 106.73565 152.95381 50.63926
#
# Poissons Ratio (x) = 0.57202 0.07478
# Poissons Ratio (y) = 0.39917 0.05644
# Poissons Ratio (z) = 0.15762 0.17047
#
# Static dielectric constant tensor:
#      x y z
#    x 1.801140 0.000000 0.000000 
#    y 0.000000 1.870470 0.000000 
#    z 0.000000 0.000000 1.864050 
# 
# From -- ./inp_files/19944.got.cif
#   From: 2010.05.17/outbox.cif.g08.bks.cpg/sg43_10_cif.got.tgz:19944.got - 2010.06.03 19:21:55.
