data_PCOD9371332
_publ_section_title
;
Structure prediction by ZEFSAII (Michael W. Deem and Ramdas Pophale) SiO2 
 PCOD9371332
Probable space group: F D D 2
;
_chemical_formula_sum "Si O2"
_cell_formula_units_Z 88
_cell_length_a 20.486437
_cell_length_b 6.701602
_cell_length_c 28.542234
_cell_angle_alpha 90.000000
_cell_angle_beta 90.000000
_cell_angle_gamma 90.000000
_cell_volume 3918.618883
_symmetry_space_group_name_H-M "F D D 2"
_symmetry_group_IT_number 43
_symmetry_cell_setting 'orthorhombic'
loop_
_space_group_symop_operation_xyz
x,y,z
-x,-y,z
1/4-x,1/4+y,1/4+z
1/4+x,1/4-y,1/4+z
x,1/2+y,1/2+z
-x,1/2-y,1/2+z
1/4-x,3/4+y,3/4+z
1/4+x,3/4-y,3/4+z
1/2+x,y,1/2+z
1/2-x,-y,1/2+z
3/4-x,1/4+y,3/4+z
3/4+x,1/4-y,3/4+z
1/2+x,1/2+y,z
1/2-x,1/2-y,z
3/4-x,3/4+y,1/4+z
3/4+x,3/4-y,1/4+z
loop_
_atom_site_type_symbol
_atom_site_label
_atom_site_fract_x
_atom_site_fract_y
_atom_site_fract_z
Si Si1 0.047902 0.220972 0.159230
Si Si2 0.750000 0.750000 0.321234
Si Si3 0.500000 0.000000 0.740988
Si Si4 0.083287 0.664866 0.925432
Si Si5 0.386546 0.226531 0.869329
Si Si6 0.644502 0.478828 0.278339
Si Si7 0.750000 0.750000 0.132055
O O1 0.086568 0.425744 0.156037
O O2 0.017407 0.174706 0.108580
O O3 0.002568 0.187314 0.204409
O O4 0.101928 0.045755 0.165355
O O5 0.688919 0.672478 0.290416
O O6 0.433508 0.983648 0.770735
O O7 0.084048 0.471455 0.893016
O O8 0.081797 0.627067 0.980564
O O9 0.026787 0.819196 0.912836
O O10 0.439901 0.395371 0.856032
O O11 0.350697 0.163467 0.822513
#
# Coordination Sequence:
#
# PCOD9371332 Si02
#       7
#    16   8   8  16  16  16   8
#     4   9  21  44  68  93 138 189 232 285 373 429
#     4  11  21  44  72  98 144 182 242 302 357 447
#     4   9  22  44  71  96 140 188 235 300 360 435
#     4  10  21  45  65 102 139 187 231 300 357 435
#     4  11  23  43  69 101 141 188 236 300 360 439
#     4  11  24  42  72 106 136 187 245 298 365 436
#     4  10  23  42  69  96 146 190 227 286 375 418
#
# _framework density 22.456892
#
# number of rings (size 3 to 8) (size 9 to 14) (size 15 to 20)
#    0.000    1.818    1.818    1.091    2.545    0.727 
#   19.636    0.000    0.000    0.000    0.000    0.000 
#    0.000    0.000    0.000    0.000    0.000    0.000 
#
# Total GULP energy -122790.462481 kJ/mol
# GULP energy per Si atom -5581.384658 kJ/mol
# Density = 2.240578 g / cm^3
# Si number density = 22.456892 Si / 1000 Ang^3
#
#
#
# Elastic Constant Matrix: (Units=GPa)
#
#
# Indices 1 2 3 4 5 6 
#
# 1 102.6371 27.3061 19.3966 0.0000 0.0000 0.0001
# 2 27.3061 103.1052 38.7031 0.0002 0.0001 0.0005
# 3 19.3966 38.7031 86.1844 0.0000 0.0000 0.0000
# 4 0.0000 0.0002 0.0000 13.1428 0.0000 -0.0001
# 5 0.0000 0.0001 0.0000 0.0000 27.5170 0.0000
# 6 0.0001 0.0005 0.0000 -0.0001 0.0000 40.4331
#
#
#
# Elastic Compliance Matrix: (Units=1/GPa)
#
#
# Indices 1 2 3 4 5 6 
#
# 1 0.010611 -0.002302 -0.001354 0.000000 0.000000 0.000000
# 2 -0.002302 0.012165 -0.004945 0.000000 0.000000 0.000000
# 3 -0.001354 -0.004945 0.014128 0.000000 0.000000 0.000000
# 4 0.000000 0.000000 0.000000 0.076087 0.000000 0.000000
# 5 0.000000 0.000000 0.000000 0.000000 0.036341 0.000000
# 6 0.000000 0.000000 0.000000 0.000000 0.000000 0.024732
#
#
# Mechanical properties :
#
#
# Convention : Reuss Voigt Hill
#
# Bulk Modulus (GPa) = 50.75559 51.41535 51.08547
# Shear Modulus (GPa) = 25.27361 29.98664 27.63013
#
# Velocity S-wave (km/s) = 3.35838 3.65814 3.51146
# Velocity P-wave (km/s) = 6.13911 6.38651 6.26403
#
# Compressibility (1/GPa) = 0.01970226
#
# Stress axis : x y z
#
# Youngs Moduli (GPa) = 94.23789 82.20590 70.77934
#
# Poissons Ratio (x) = 0.18923 0.09587
# Poissons Ratio (y) = 0.21692 0.34998
# Poissons Ratio (z) = 0.12764 0.40649
#
# Static dielectric constant tensor:
#      x y z
#    x 1.979860 0.000000 0.000000 
#    y 0.000000 1.834550 0.000000 
#    z 0.000000 0.000000 1.803580 
# 
# From -- ./inp_files/27286.got.cif
#   From: 2010.05.17/outbox.cif.g08.bks.cpg/sg43_14_cif.got.tgz:27286.got - 2010.06.03 19:21:55.
