data_PCOD9371460
_publ_section_title
;
Structure prediction by ZEFSAII (Michael W. Deem and Ramdas Pophale) SiO2 
 PCOD9371460
Probable space group: F D D 2
;
_chemical_formula_sum "Si O2"
_cell_formula_units_Z 104
_cell_length_a 21.182263
_cell_length_b 9.310134
_cell_length_c 24.362191
_cell_angle_alpha 90.000000
_cell_angle_beta 90.000000
_cell_angle_gamma 90.000000
_cell_volume 4804.460548
_symmetry_space_group_name_H-M "F D D 2"
_symmetry_group_IT_number 43
_symmetry_cell_setting 'orthorhombic'
loop_
_space_group_symop_operation_xyz
x,y,z
-x,-y,z
1/4-x,1/4+y,1/4+z
1/4+x,1/4-y,1/4+z
x,1/2+y,1/2+z
-x,1/2-y,1/2+z
1/4-x,3/4+y,3/4+z
1/4+x,3/4-y,3/4+z
1/2+x,y,1/2+z
1/2-x,-y,1/2+z
3/4-x,1/4+y,3/4+z
3/4+x,1/4-y,3/4+z
1/2+x,1/2+y,z
1/2-x,1/2-y,z
3/4-x,3/4+y,1/4+z
3/4+x,3/4-y,1/4+z
loop_
_atom_site_type_symbol
_atom_site_label
_atom_site_fract_x
_atom_site_fract_y
_atom_site_fract_z
Si Si1 0.696335 0.440941 0.455140
Si Si2 0.865818 0.098784 0.140899
Si Si3 0.588552 0.321695 0.528246
Si Si4 0.434209 0.047507 0.419065
Si Si5 0.821388 0.853964 0.902651
Si Si6 0.500000 0.500000 0.447010
Si Si7 0.818328 0.763830 0.291573
O O1 0.668419 0.589180 0.432423
O O2 0.656755 0.391055 0.509465
O O3 0.772042 0.427569 0.446048
O O4 0.678348 0.315215 0.412212
O O5 0.801544 0.173502 0.159102
O O6 0.888381 0.114802 0.078572
O O7 0.853201 0.929574 0.144303
O O8 0.562764 0.364168 0.588468
O O9 0.538479 0.386450 0.484689
O O10 0.592653 0.148423 0.530912
O O11 0.444342 0.085086 0.482786
O O12 0.500000 0.000000 0.393168
O O13 0.389803 0.911854 0.415632
O O14 0.750000 0.750000 0.320327
#
# Coordination Sequence:
#
# PCOD9371460 Si02
#       7
#    16  16  16  16  16   8  16
#     4  10  24  41  67 100 132 169 229 283 322 413
#     4  11  24  41  67  97 132 169 223 276 333 395
#     4  11  21  42  69  96 129 186 222 269 347 403
#     4  11  24  42  66  94 130 175 220 269 328 405
#     4  11  22  44  68  98 133 172 223 278 336 397
#     4  10  22  40  66  98 132 170 226 278 326 406
#     4  11  22  40  68  94 130 175 219 269 339 400
#
# _framework density 21.646549
#
# number of rings (size 3 to 8) (size 9 to 14) (size 15 to 20)
#    0.000    1.231    3.077    3.692    2.154    2.462 
#    5.538    1.538    0.000    0.000    0.000    0.000 
#    0.000    0.000    0.000    0.000    0.000    0.000 
#
# Total GULP energy -144978.154666 kJ/mol
# GULP energy per Si atom -5576.082872 kJ/mol
# Density = 2.159728 g / cm^3
# Si number density = 21.646549 Si / 1000 Ang^3
#
#
#
# Elastic Constant Matrix: (Units=GPa)
#
#
# Indices 1 2 3 4 5 6 
#
# 1 111.4573 -1.8181 17.0167 0.0000 0.0000 0.0000
# 2 -1.8181 35.0677 -5.7655 0.0000 0.0000 0.0000
# 3 17.0167 -5.7655 48.2633 0.0000 0.0000 0.0000
# 4 0.0000 0.0000 0.0000 11.0383 0.0000 0.0000
# 5 0.0000 0.0000 0.0000 0.0000 4.4319 0.0000
# 6 0.0000 0.0000 0.0000 0.0000 0.0000 32.1629
#
#
#
# Elastic Compliance Matrix: (Units=1/GPa)
#
#
# Indices 1 2 3 4 5 6 
#
# 1 0.009483 -0.000059 -0.003350 0.000000 0.000000 0.000000
# 2 -0.000059 0.029088 0.003496 0.000000 0.000000 0.000000
# 3 -0.003350 0.003496 0.022319 0.000000 0.000000 0.000000
# 4 0.000000 0.000000 0.000000 0.090594 0.000000 0.000000
# 5 0.000000 0.000000 0.000000 0.000000 0.225638 0.000000
# 6 0.000000 0.000000 0.000000 0.000000 0.000000 0.031092
#
#
# Mechanical properties :
#
#
# Convention : Reuss Voigt Hill
#
# Bulk Modulus (GPa) = 16.37702 23.73939 20.05821
# Shear Modulus (GPa) = 11.67149 21.88363 16.77756
#
# Velocity S-wave (km/s) = 2.32455 3.18300 2.78703
# Velocity P-wave (km/s) = 3.84536 4.94967 4.43205
#
# Compressibility (1/GPa) = 0.06106115
#
# Stress axis : x y z
#
# Youngs Moduli (GPa) = 105.45621 34.37852 44.80572
#
# Poissons Ratio (x) = 0.00204 0.15012
# Poissons Ratio (y) = 0.00625 -0.15663
# Poissons Ratio (z) = 0.35333 -0.12018
#
# Static dielectric constant tensor:
#      x y z
#    x 1.869990 0.000000 0.000000 
#    y 0.000000 1.861690 0.000000 
#    z 0.000000 0.000000 1.818640 
# 
# From -- ./inp_files/26350.got.cif
#   From: 2010.05.17/outbox.cif.g08.bks.cpg/sg43_14_cif.got.tgz:26350.got - 2010.06.03 19:21:55.
