data_PCOD9371211
_publ_section_title
;
Structure prediction by ZEFSAII (Michael W. Deem and Ramdas Pophale) SiO2 
 PCOD9371211
Probable space group: F D D 2
;
_chemical_formula_sum "Si O2"
_cell_formula_units_Z 120
_cell_length_a 16.905958
_cell_length_b 12.400319
_cell_length_c 23.041042
_cell_angle_alpha 90.000000
_cell_angle_beta 90.000000
_cell_angle_gamma 90.000000
_cell_volume 4830.307276
_symmetry_space_group_name_H-M "F D D 2"
_symmetry_group_IT_number 43
_symmetry_cell_setting 'orthorhombic'
loop_
_space_group_symop_operation_xyz
x,y,z
-x,-y,z
1/4-x,1/4+y,1/4+z
1/4+x,1/4-y,1/4+z
x,1/2+y,1/2+z
-x,1/2-y,1/2+z
1/4-x,3/4+y,3/4+z
1/4+x,3/4-y,3/4+z
1/2+x,y,1/2+z
1/2-x,-y,1/2+z
3/4-x,1/4+y,3/4+z
3/4+x,1/4-y,3/4+z
1/2+x,1/2+y,z
1/2-x,1/2-y,z
3/4-x,3/4+y,1/4+z
3/4+x,3/4-y,1/4+z
loop_
_atom_site_type_symbol
_atom_site_label
_atom_site_fract_x
_atom_site_fract_y
_atom_site_fract_z
Si Si1 0.209192 0.990832 0.610480
Si Si2 0.054763 0.357425 0.565232
Si Si3 0.665737 0.374299 0.296729
Si Si4 0.879188 0.810480 0.022348
Si Si5 0.000000 0.000000 0.865373
Si Si6 0.580837 0.850167 0.686370
Si Si7 0.437104 0.610567 0.462545
Si Si8 0.683485 0.476186 0.996195
O O1 0.222349 0.870834 0.637274
O O2 0.123141 0.027724 0.583982
O O3 0.228146 0.082792 0.657656
O O4 0.264286 0.008246 0.554568
O O5 0.073483 0.233449 0.582299
O O6 0.079924 0.413149 0.625766
O O7 0.108819 0.404502 0.514305
O O8 0.964604 0.352921 0.544067
O O9 0.606049 0.411096 0.245046
O O10 0.748571 0.355138 0.264059
O O11 0.825022 0.784964 0.077117
O O12 0.844286 0.904064 0.982808
O O13 0.878443 0.700986 0.985977
O O14 0.640227 0.746683 0.695101
O O15 0.490141 0.817138 0.696794
#
# Coordination Sequence:
#
# PCOD9371211 Si02
#       8
#    16  16  16  16   8  16  16  16
#     4  10  21  41  67  97 136 177 228 290 358 426
#     4  11  23  44  65  97 141 181 239 291 359 431
#     4  10  22  40  66 103 134 176 233 294 355 427
#     4  10  22  42  64  91 134 177 227 291 345 435
#     4  10  22  44  66  94 132 178 224 282 358 418
#     4  11  23  41  69  97 132 180 231 297 361 417
#     4  11  21  40  69  99 130 177 229 294 354 417
#     4  10  23  43  62  94 136 181 226 290 357 433
#
# _framework density 24.843139999999998
#
# number of rings (size 3 to 8) (size 9 to 14) (size 15 to 20)
#    0.000    1.600    1.333    4.000    0.000    4.267 
#   19.200    0.000    0.000    0.000    0.000    0.000 
#    0.000    0.000    0.000    0.000    0.000    0.000 
#
# Total GULP energy -167424.769903 kJ/mol
# GULP energy per Si atom -5580.825663 kJ/mol
# Density = 2.478660 g / cm^3
# Si number density = 24.843140 Si / 1000 Ang^3
#
#
#
# Elastic Constant Matrix: (Units=GPa)
#
#
# Indices 1 2 3 4 5 6 
#
# 1 96.2742 28.9253 -4.3243 0.0000 0.0000 0.0000
# 2 28.9253 85.1004 4.9543 0.0000 0.0000 0.0000
# 3 -4.3243 4.9543 41.6472 0.0000 0.0000 0.0000
# 4 0.0000 0.0000 0.0000 15.5436 0.0000 0.0000
# 5 0.0000 0.0000 0.0000 0.0000 46.7879 0.0000
# 6 0.0000 0.0000 0.0000 0.0000 0.0000 34.9267
#
#
#
# Elastic Compliance Matrix: (Units=1/GPa)
#
#
# Indices 1 2 3 4 5 6 
#
# 1 0.011686 -0.004071 0.001698 0.000000 0.000000 0.000000
# 2 -0.004071 0.013251 -0.001999 0.000000 0.000000 0.000000
# 3 0.001698 -0.001999 0.024425 0.000000 0.000000 0.000000
# 4 0.000000 0.000000 0.000000 0.064335 0.000000 0.000000
# 5 0.000000 0.000000 0.000000 0.000000 0.021373 0.000000
# 6 0.000000 0.000000 0.000000 0.000000 0.000000 0.028631
#
#
# Mechanical properties :
#
#
# Convention : Reuss Voigt Hill
#
# Bulk Modulus (GPa) = 24.61965 31.34805 27.98385
# Shear Modulus (GPa) = 26.88371 32.34939 29.61655
#
# Velocity S-wave (km/s) = 3.29316 3.61244 3.45649
# Velocity P-wave (km/s) = 4.93876 5.48137 5.21713
#
# Compressibility (1/GPa) = 0.04061796
#
# Stress axis : x y z
#
# Youngs Moduli (GPa) = 85.56981 75.46647 40.94120
#
# Poissons Ratio (x) = 0.30722 -0.06951
# Poissons Ratio (y) = 0.34835 0.08184
# Poissons Ratio (z) = -0.14527 0.15086
#
# Static dielectric constant tensor:
#      x y z
#    x 1.939300 0.000000 0.000000 
#    y 0.000000 2.045350 0.000000 
#    z 0.000000 0.000000 2.044370 
# 
# From -- ./inp_files/26092.got.cif
#   From: 2010.05.17/outbox.cif.g08.bks.cpg/sg43_14_cif.got.tgz:26092.got - 2010.06.03 19:21:55.
