data_PCOD9371718
_publ_section_title
;
Structure prediction by ZEFSAII (Michael W. Deem and Ramdas Pophale) SiO2 
 PCOD9371718
Probable space group: F D D 2
;
_chemical_formula_sum "Si O2"
_cell_formula_units_Z 88
_cell_length_a 26.191268
_cell_length_b 23.251258
_cell_length_c 6.645534
_cell_angle_alpha 90.000000
_cell_angle_beta 90.000000
_cell_angle_gamma 90.000000
_cell_volume 4046.996828
_symmetry_space_group_name_H-M "F D D 2"
_symmetry_group_IT_number 43
_symmetry_cell_setting 'orthorhombic'
loop_
_space_group_symop_operation_xyz
x,y,z
-x,-y,z
1/4-x,1/4+y,1/4+z
1/4+x,1/4-y,1/4+z
x,1/2+y,1/2+z
-x,1/2-y,1/2+z
1/4-x,3/4+y,3/4+z
1/4+x,3/4-y,3/4+z
1/2+x,y,1/2+z
1/2-x,-y,1/2+z
3/4-x,1/4+y,3/4+z
3/4+x,1/4-y,3/4+z
1/2+x,1/2+y,z
1/2-x,1/2-y,z
3/4-x,3/4+y,1/4+z
3/4+x,3/4-y,1/4+z
loop_
_atom_site_type_symbol
_atom_site_label
_atom_site_fract_x
_atom_site_fract_y
_atom_site_fract_z
Si Si1 0.886881 0.018868 0.082110
Si Si2 0.242878 0.878287 0.046132
Si Si3 0.416968 0.821821 0.463363
Si Si4 0.082158 0.284415 0.685262
Si Si5 0.250000 0.750000 0.934938
Si Si6 0.402293 0.375410 0.576977
O O1 0.881897 0.077474 0.214028
O O2 0.944706 0.996371 0.076645
O O3 0.845364 0.978788 0.200742
O O4 0.869970 0.037927 0.862396
O O5 0.206886 0.896858 0.858270
O O6 0.291125 0.918573 0.004523
O O7 0.254258 0.810706 0.047411
O O8 0.209318 0.887912 0.246660
O O9 0.434070 0.772970 0.303923
O O10 0.394090 0.868978 0.313724
O O11 0.135774 0.311490 0.757741
#
# Coordination Sequence:
#
# PCOD9371718 Si02
#       6
#    16  16  16  16   8  16
#     4  10  23  44  66  96 140 178 230 292 355 425
#     4  11  25  43  69  98 138 182 236 289 360 426
#     4  10  26  42  67  98 136 182 237 290 355 432
#     4  11  23  42  70  97 136 185 232 298 356 431
#     4  12  22  44  70 100 138 188 226 302 356 422
#     4  10  22  45  64  97 133 178 232 291 353 421
#
# _framework density 21.744517999999999
#
# number of rings (size 3 to 8) (size 9 to 14) (size 15 to 20)
#    0.000    1.455    3.636    0.000   10.182    0.000 
#    3.273    4.545    0.000    0.000    0.000    0.000 
#    0.000    0.000    0.000    0.000    0.000    0.000 
#
# Total GULP energy -122551.750633 kJ/mol
# GULP energy per Si atom -5570.534120 kJ/mol
# Density = 2.169503 g / cm^3
# Si number density = 21.744518 Si / 1000 Ang^3
#
#
#
# Elastic Constant Matrix: (Units=GPa)
#
#
# Indices 1 2 3 4 5 6 
#
# 1 82.8653 22.1356 25.0183 0.0015 0.0026 -0.0030
# 2 22.1356 88.1432 16.9644 0.0177 -0.0052 -0.0101
# 3 25.0183 16.9644 116.7026 0.0305 -0.0076 -0.0150
# 4 0.0015 0.0177 0.0305 28.3547 -0.0071 -0.0163
# 5 0.0026 -0.0052 -0.0076 -0.0071 -5.1570 0.0082
# 6 -0.0030 -0.0101 -0.0150 -0.0163 0.0082 32.1079
#
#
#
# Elastic Compliance Matrix: (Units=1/GPa)
#
#
# Indices 1 2 3 4 5 6 
#
# 1 0.013604 -0.002937 -0.002489 0.000004 0.000014 -0.000001
# 2 -0.002937 0.012306 -0.001159 -0.000006 -0.000012 0.000003
# 3 -0.002489 -0.001159 0.009271 -0.000009 -0.000014 0.000004
# 4 0.000004 -0.000006 -0.000009 0.035267 -0.000049 0.000018
# 5 0.000014 -0.000012 -0.000014 -0.000049 -0.193909 0.000049
# 6 -0.000001 0.000003 0.000004 0.000018 0.000049 0.031145
#
#
# Mechanical properties :
#
#
# Convention : Reuss Voigt Hill
#
# Bulk Modulus (GPa) = 45.43556 46.21642 45.82599
# Shear Modulus (GPa) = -69.63007 25.96731 -21.83138
#
# Velocity S-wave (km/s) = -5.66493 3.45947 -3.17202
# Velocity P-wave (km/s) = 4.67419 6.10391 2.77576
#
# Compressibility (1/GPa) = 0.02200919
#
# Stress axis : x y z
#
# Youngs Moduli (GPa) = 73.50781 81.26175 107.86369
#
# Poissons Ratio (x) = 0.23869 0.26852
# Poissons Ratio (y) = 0.21591 0.12503
# Poissons Ratio (z) = 0.18299 0.09420
#
# Static dielectric constant tensor:
#      x y z
#    x 1.848870 0.000010 0.000000 
#    y 0.000010 1.842890 -0.000010 
#    z 0.000000 -0.000010 1.792220 
# 
# From -- ./inp_files/1055.got.cif
#   From: 2010.05.17/outbox.cif.g08.bks.cpg/sg43_1_cif.got.tgz:1055.got - 2010.06.03 19:21:55.
