data_PCOD9371624
_publ_section_title
;
Structure prediction by ZEFSAII (Michael W. Deem and Ramdas Pophale) SiO2 
 PCOD9371624
Probable space group: F D D 2
;
_chemical_formula_sum "Si O2"
_cell_formula_units_Z 88
_cell_length_a 18.897487
_cell_length_b 14.415666
_cell_length_c 12.985274
_cell_angle_alpha 90.000000
_cell_angle_beta 90.000000
_cell_angle_gamma 90.000000
_cell_volume 3537.446536
_symmetry_space_group_name_H-M "F D D 2"
_symmetry_group_IT_number 43
_symmetry_cell_setting 'orthorhombic'
loop_
_space_group_symop_operation_xyz
x,y,z
-x,-y,z
1/4-x,1/4+y,1/4+z
1/4+x,1/4-y,1/4+z
x,1/2+y,1/2+z
-x,1/2-y,1/2+z
1/4-x,3/4+y,3/4+z
1/4+x,3/4-y,3/4+z
1/2+x,y,1/2+z
1/2-x,-y,1/2+z
3/4-x,1/4+y,3/4+z
3/4+x,1/4-y,3/4+z
1/2+x,1/2+y,z
1/2-x,1/2-y,z
3/4-x,3/4+y,1/4+z
3/4+x,3/4-y,1/4+z
loop_
_atom_site_type_symbol
_atom_site_label
_atom_site_fract_x
_atom_site_fract_y
_atom_site_fract_z
Si Si1 0.500000 0.000000 0.320130
Si Si2 0.434298 0.623521 0.980685
Si Si3 0.733149 0.898893 0.909733
Si Si4 0.167762 0.194679 0.580054
Si Si5 0.500000 0.500000 0.137119
Si Si6 0.750000 0.750000 0.756988
Si Si7 0.540006 0.209358 0.821264
O O1 0.558219 0.951566 0.390003
O O2 0.463642 0.922948 0.249965
O O3 0.451172 0.718323 0.917323
O O4 0.495000 0.589966 0.063171
O O5 0.361846 0.596445 0.040936
O O6 0.663235 0.924736 0.847875
O O7 0.774034 0.834616 0.828442
O O8 0.771865 0.980638 0.968751
O O9 0.187301 0.237569 0.469640
O O10 0.186749 0.261747 0.676158
O O11 0.221136 0.106549 0.588430
#
# Coordination Sequence:
#
# PCOD9371624 Si02
#       7
#     8  16  16  16   8   8  16
#     4   8  20  42  66  98 138 180 234 310 344 430
#     4  10  22  45  69 106 140 184 247 296 367 423
#     4  10  22  43  67 101 135 186 237 284 358 431
#     4  11  24  42  68 102 140 188 229 292 362 426
#     4  10  24  46  68 100 152 184 240 306 356 442
#     4  10  24  42  62  98 136 172 226 282 344 420
#     4  11  24  43  76 104 139 190 237 301 362 430
#
# _framework density 24.876702000000002
#
# number of rings (size 3 to 8) (size 9 to 14) (size 15 to 20)
#    0.000    1.818    0.000    2.182    5.091    1.455 
#   19.636    0.000    0.000    0.000    0.000    0.000 
#    0.000    0.000    0.000    0.000    0.000    0.000 
#
# Total GULP energy -122707.083557 kJ/mol
# GULP energy per Si atom -5577.594707 kJ/mol
# Density = 2.482008 g / cm^3
# Si number density = 24.876702 Si / 1000 Ang^3
#
#
#
# Elastic Constant Matrix: (Units=GPa)
#
#
# Indices 1 2 3 4 5 6 
#
# 1 94.2705 48.4132 53.1491 0.0000 0.0000 0.0000
# 2 48.4132 118.7925 83.4235 0.0000 0.0000 0.0000
# 3 53.1491 83.4235 192.9060 0.0000 0.0000 0.0000
# 4 0.0000 0.0000 0.0000 73.9231 0.0000 0.0000
# 5 0.0000 0.0000 0.0000 0.0000 35.8008 0.0000
# 6 0.0000 0.0000 0.0000 0.0000 0.0000 19.5232
#
#
#
# Elastic Compliance Matrix: (Units=1/GPa)
#
#
# Indices 1 2 3 4 5 6 
#
# 1 0.013926 -0.004281 -0.001985 0.000000 0.000000 0.000000
# 2 -0.004281 0.013406 -0.004618 0.000000 0.000000 0.000000
# 3 -0.001985 -0.004618 0.007728 0.000000 0.000000 0.000000
# 4 0.000000 0.000000 0.000000 0.013528 0.000000 0.000000
# 5 0.000000 0.000000 0.000000 0.000000 0.027932 0.000000
# 6 0.000000 0.000000 0.000000 0.000000 0.000000 0.051221
#
#
# Mechanical properties :
#
#
# Convention : Reuss Voigt Hill
#
# Bulk Modulus (GPa) = 75.24094 86.21564 80.72829
# Shear Modulus (GPa) = 32.48031 40.58163 36.53097
#
# Velocity S-wave (km/s) = 3.61730 4.04333 3.83623
# Velocity P-wave (km/s) = 6.91069 7.51867 7.22109
#
# Compressibility (1/GPa) = 0.01329064
#
# Stress axis : x y z
#
# Youngs Moduli (GPa) = 71.80962 74.59497 129.40084
#
# Poissons Ratio (x) = 0.31935 0.25691
# Poissons Ratio (y) = 0.30742 0.59756
# Poissons Ratio (z) = 0.14257 0.34447
#
# Static dielectric constant tensor:
#      x y z
#    x 2.062690 0.000000 0.000000 
#    y 0.000000 2.147220 0.000000 
#    z 0.000000 0.000000 1.966870 
# 
# From -- ./inp_files/7064.got.cif
#   From: 2010.05.17/outbox.cif.g08.bks.cpg/sg43_4_cif.got.tgz:7064.got - 2010.06.03 19:21:55.
