data_PCOD9371528
_publ_section_title
;
Structure prediction by ZEFSAII (Michael W. Deem and Ramdas Pophale) SiO2 
 PCOD9371528
Probable space group: F D D 2
;
_chemical_formula_sum "Si O2"
_cell_formula_units_Z 88
_cell_length_a 5.193443
_cell_length_b 23.395852
_cell_length_c 29.862278
_cell_angle_alpha 90.000000
_cell_angle_beta 90.000000
_cell_angle_gamma 90.000000
_cell_volume 3628.416799
_symmetry_space_group_name_H-M "F D D 2"
_symmetry_group_IT_number 43
_symmetry_cell_setting 'orthorhombic'
loop_
_space_group_symop_operation_xyz
x,y,z
-x,-y,z
1/4-x,1/4+y,1/4+z
1/4+x,1/4-y,1/4+z
x,1/2+y,1/2+z
-x,1/2-y,1/2+z
1/4-x,3/4+y,3/4+z
1/4+x,3/4-y,3/4+z
1/2+x,y,1/2+z
1/2-x,-y,1/2+z
3/4-x,1/4+y,3/4+z
3/4+x,1/4-y,3/4+z
1/2+x,1/2+y,z
1/2-x,1/2-y,z
3/4-x,3/4+y,1/4+z
3/4+x,3/4-y,1/4+z
loop_
_atom_site_type_symbol
_atom_site_label
_atom_site_fract_x
_atom_site_fract_y
_atom_site_fract_z
Si Si1 0.487012 0.938254 0.217990
Si Si2 0.753504 0.615130 0.831514
Si Si3 0.186182 0.054778 0.129092
Si Si4 0.500000 0.000000 0.344346
Si Si5 0.391757 0.671778 0.152404
Si Si6 0.266253 0.121792 0.490522
O O1 0.607538 0.949572 0.168878
O O2 0.193324 0.918340 0.222149
O O3 0.689027 0.891318 0.235816
O O4 0.500000 0.000000 0.239984
O O5 0.593017 0.673515 0.836147
O O6 0.601300 0.557032 0.819273
O O7 0.958654 0.629426 0.793187
O O8 0.870333 0.594716 0.879601
O O9 0.038726 0.113113 0.140736
O O10 0.000000 0.000000 0.125527
O O11 0.274684 0.027052 0.375383
O O12 0.437824 0.678749 0.205766
#
# Coordination Sequence:
#
# PCOD9371528 Si02
#       6
#    16  16  16   8  16  16
#     4  11  22  40  65 103 136 177 227 299 367 431
#     4  11  24  43  70  99 143 188 248 305 366 443
#     4  10  22  41  70  98 138 186 234 295 368 436
#     4  10  24  42  70 102 142 190 246 294 376 438
#     4  10  22  45  69  98 141 191 234 301 368 447
#     4  11  25  41  70 100 144 183 242 300 368 441
#
# _framework density 24.253001000000001
#
# number of rings (size 3 to 8) (size 9 to 14) (size 15 to 20)
#    0.000    1.455    1.818    3.273    6.364    1.455 
#    0.000    0.000   12.000    0.000    0.000    0.000 
#    0.000    0.000    0.000    0.000    0.000    0.000 
#
# Total GULP energy -122631.921194 kJ/mol
# GULP energy per Si atom -5574.178236 kJ/mol
# Density = 2.419780 g / cm^3
# Si number density = 24.253001 Si / 1000 Ang^3
#
#
#
# Elastic Constant Matrix: (Units=GPa)
#
#
# Indices 1 2 3 4 5 6 
#
# 1 53.4928 24.9093 2.3715 0.0000 0.0000 0.0000
# 2 24.9093 96.8355 24.0476 0.0000 0.0000 0.0000
# 3 2.3715 24.0476 86.5925 0.0000 0.0000 0.0000
# 4 0.0000 0.0000 0.0000 20.5470 0.0000 0.0000
# 5 0.0000 0.0000 0.0000 0.0000 25.4606 0.0000
# 6 0.0000 0.0000 0.0000 0.0000 0.0000 50.9955
#
#
#
# Elastic Compliance Matrix: (Units=1/GPa)
#
#
# Indices 1 2 3 4 5 6 
#
# 1 0.021320 -0.005735 0.001009 0.000000 0.000000 0.000000
# 2 -0.005735 0.012634 -0.003352 0.000000 0.000000 0.000000
# 3 0.001009 -0.003352 0.012451 0.000000 0.000000 0.000000
# 4 0.000000 0.000000 0.000000 0.048669 0.000000 0.000000
# 5 0.000000 0.000000 0.000000 0.000000 0.039276 0.000000
# 6 0.000000 0.000000 0.000000 0.000000 0.000000 0.019610
#
#
# Mechanical properties :
#
#
# Convention : Reuss Voigt Hill
#
# Bulk Modulus (GPa) = 33.05743 37.73085 35.39414
# Shear Modulus (GPa) = 27.74711 31.77344 29.76028
#
# Velocity S-wave (km/s) = 3.38608 3.62343 3.50676
# Velocity P-wave (km/s) = 5.38026 5.75297 5.56973
#
# Compressibility (1/GPa) = 0.03025039
#
# Stress axis : x y z
#
# Youngs Moduli (GPa) = 46.90488 79.14994 80.31165
#
# Poissons Ratio (x) = 0.45390 -0.08101
# Poissons Ratio (y) = 0.26898 0.26917
# Poissons Ratio (z) = -0.04731 0.26528
#
# Static dielectric constant tensor:
#      x y z
#    x 2.017030 0.000000 0.000000 
#    y 0.000000 1.942890 0.000000 
#    z 0.000000 0.000000 2.103510 
# 
# From -- ./inp_files/27237.got.cif
#   From: 2010.05.17/outbox.cif.g08.bks.cpg/sg43_14_cif.got.tgz:27237.got - 2010.06.03 19:21:55.
