data_PCOD9371494
_publ_section_title
;
Structure prediction by ZEFSAII (Michael W. Deem and Ramdas Pophale) SiO2 
 PCOD9371494
Probable space group: F D D 2
;
_chemical_formula_sum "Si O2"
_cell_formula_units_Z 88
_cell_length_a 25.911997
_cell_length_b 6.325431
_cell_length_c 24.502925
_cell_angle_alpha 90.000000
_cell_angle_beta 90.000000
_cell_angle_gamma 90.000000
_cell_volume 4016.140874
_symmetry_space_group_name_H-M "F D D 2"
_symmetry_group_IT_number 43
_symmetry_cell_setting 'orthorhombic'
loop_
_space_group_symop_operation_xyz
x,y,z
-x,-y,z
1/4-x,1/4+y,1/4+z
1/4+x,1/4-y,1/4+z
x,1/2+y,1/2+z
-x,1/2-y,1/2+z
1/4-x,3/4+y,3/4+z
1/4+x,3/4-y,3/4+z
1/2+x,y,1/2+z
1/2-x,-y,1/2+z
3/4-x,1/4+y,3/4+z
3/4+x,1/4-y,3/4+z
1/2+x,1/2+y,z
1/2-x,1/2-y,z
3/4-x,3/4+y,1/4+z
3/4+x,3/4-y,1/4+z
loop_
_atom_site_type_symbol
_atom_site_label
_atom_site_fract_x
_atom_site_fract_y
_atom_site_fract_z
Si Si1 0.000000 0.500000 0.936930
Si Si2 0.809048 0.802158 0.044319
Si Si3 0.642684 0.225935 0.337741
Si Si4 0.035588 0.177153 0.021084
Si Si5 0.132388 0.995085 0.953229
Si Si6 0.646795 0.875870 0.632774
O O1 0.947104 0.500669 0.903264
O O2 0.998217 0.705473 0.975160
O O3 0.750000 0.750000 0.052419
O O4 0.844537 0.593116 0.049477
O O5 0.830289 0.949927 0.092345
O O6 0.819345 0.932488 0.989339
O O7 0.634542 0.129672 0.397828
O O8 0.641387 0.475194 0.348913
O O9 0.690941 0.107204 0.310311
O O10 0.083334 0.065521 0.989729
O O11 0.000000 0.000000 0.048479
O O12 0.128225 0.752975 0.933265
#
# Coordination Sequence:
#
# PCOD9371494 Si02
#       6
#     8  16  16  16  16  16
#     4  12  22  34  68  98 130 174 236 280 334 406
#     4  10  23  40  65  93 132 177 231 279 332 412
#     4  10  23  41  65  95 135 174 224 283 348 398
#     4  11  23  40  66 100 133 177 232 285 336 416
#     4  10  22  41  64  92 135 176 219 280 340 404
#     4  11  22  36  66  99 130 178 226 281 340 401
#
# _framework density 21.911583
#
# number of rings (size 3 to 8) (size 9 to 14) (size 15 to 20)
#    0.000    1.455    3.636    1.091    5.091    1.455 
#    1.636    0.000    6.000    0.000    0.000    0.000 
#    0.000    0.000    0.000    0.000    0.000    0.000 
#
# Total GULP energy -122929.450573 kJ/mol
# GULP energy per Si atom -5587.702299 kJ/mol
# Density = 2.186171 g / cm^3
# Si number density = 21.911583 Si / 1000 Ang^3
#
#
#
# Elastic Constant Matrix: (Units=GPa)
#
#
# Indices 1 2 3 4 5 6 
#
# 1 45.9698 35.1369 28.6161 0.0003 -0.0004 -0.0013
# 2 35.1369 103.7979 37.3563 0.0006 -0.0004 -0.0019
# 3 28.6161 37.3563 88.2099 0.0001 -0.0001 -0.0002
# 4 0.0003 0.0006 0.0001 36.7999 -0.0002 -0.0005
# 5 -0.0004 -0.0004 -0.0001 -0.0002 21.1121 0.0004
# 6 -0.0013 -0.0019 -0.0002 -0.0005 0.0004 37.3373
#
#
#
# Elastic Compliance Matrix: (Units=1/GPa)
#
#
# Indices 1 2 3 4 5 6 
#
# 1 0.032611 -0.008532 -0.006966 0.000000 0.000000 0.000001
# 2 -0.008532 0.013599 -0.002991 0.000000 0.000000 0.000000
# 3 -0.006966 -0.002991 0.014863 0.000000 0.000000 0.000000
# 4 0.000000 0.000000 0.000000 0.027174 0.000000 0.000000
# 5 0.000000 0.000000 0.000000 0.000000 0.047366 -0.000001
# 6 0.000001 0.000000 0.000000 0.000000 -0.000001 0.026783
#
#
# Mechanical properties :
#
#
# Convention : Reuss Voigt Hill
#
# Bulk Modulus (GPa) = 41.50320 48.91068 45.20694
# Shear Modulus (GPa) = 24.10720 28.17442 26.14081
#
# Velocity S-wave (km/s) = 3.32053 3.58973 3.45775
# Velocity P-wave (km/s) = 5.80375 6.28902 6.05126
#
# Compressibility (1/GPa) = 0.02409453
#
# Stress axis : x y z
#
# Youngs Moduli (GPa) = 30.66408 73.53544 67.28053
#
# Poissons Ratio (x) = 0.62743 0.46868
# Poissons Ratio (y) = 0.26164 0.20124
# Poissons Ratio (z) = 0.21361 0.21995
#
# Static dielectric constant tensor:
#      x y z
#    x 1.799840 0.000000 0.000000 
#    y 0.000000 1.961150 0.000000 
#    z 0.000000 0.000000 1.803990 
# 
# From -- ./inp_files/19548.got.cif
#   From: 2010.05.17/outbox.cif.g08.bks.cpg/sg43_10_cif.got.tgz:19548.got - 2010.06.03 19:21:55.
