data_PCOD9371862
_publ_section_title
;
Structure prediction by ZEFSAII (Michael W. Deem and Ramdas Pophale) SiO2 
 PCOD9371862
Probable space group: F D D 2
;
_chemical_formula_sum "Si O2"
_cell_formula_units_Z 112
_cell_length_a 31.987513
_cell_length_b 11.733901
_cell_length_c 14.675148
_cell_angle_alpha 90.000000
_cell_angle_beta 90.000000
_cell_angle_gamma 90.000000
_cell_volume 5508.145261
_symmetry_space_group_name_H-M "F D D 2"
_symmetry_group_IT_number 43
_symmetry_cell_setting 'orthorhombic'
loop_
_space_group_symop_operation_xyz
x,y,z
-x,-y,z
1/4-x,1/4+y,1/4+z
1/4+x,1/4-y,1/4+z
x,1/2+y,1/2+z
-x,1/2-y,1/2+z
1/4-x,3/4+y,3/4+z
1/4+x,3/4-y,3/4+z
1/2+x,y,1/2+z
1/2-x,-y,1/2+z
3/4-x,1/4+y,3/4+z
3/4+x,1/4-y,3/4+z
1/2+x,1/2+y,z
1/2-x,1/2-y,z
3/4-x,3/4+y,1/4+z
3/4+x,3/4-y,1/4+z
loop_
_atom_site_type_symbol
_atom_site_label
_atom_site_fract_x
_atom_site_fract_y
_atom_site_fract_z
Si Si1 0.797789 0.277547 0.151770
Si Si2 0.353452 0.704371 0.994544
Si Si3 0.910785 0.181822 0.736328
Si Si4 0.053310 0.206544 0.496492
Si Si5 0.284710 0.338385 0.141514
Si Si6 0.073434 0.062371 0.041576
Si Si7 0.217970 0.050363 0.814123
O O1 0.750000 0.250000 0.124431
O O2 0.813506 0.166438 0.206279
O O3 0.796067 0.379535 0.224580
O O4 0.826204 0.281633 0.062348
O O5 0.341877 0.569236 0.006485
O O6 0.402295 0.731929 0.012175
O O7 0.341802 0.726156 0.888828
O O8 0.929032 0.107267 0.818482
O O9 0.862379 0.149485 0.728650
O O10 0.940406 0.161134 0.650341
O O11 0.026847 0.281196 0.421940
O O12 0.018222 0.188220 0.574230
O O13 0.250000 0.250000 0.106127
O O14 0.299534 0.282019 0.235343
O O15 0.043237 0.168025 0.055965
#
# Coordination Sequence:
#
# PCOD9371862 Si02
#       7
#    16  16  16  16  16  16  16
#     4  10  23  43  65  90 135 172 210 272 331 389
#     4  11  21  40  71  92 122 172 221 265 328 387
#     4  11  22  42  65  94 127 177 211 269 328 389
#     4  11  21  41  65  93 128 170 218 266 329 390
#     4  12  22  37  66  96 129 161 220 269 323 386
#     4  11  21  38  66  96 124 165 214 273 324 386
#     4  10  24  42  64  93 135 171 215 272 334 396
#
# _framework density 20.333524000000001
#
# number of rings (size 3 to 8) (size 9 to 14) (size 15 to 20)
#    0.000    1.143    5.714    0.857    0.000    3.429 
#    0.000    1.429    3.143    0.000    0.000    0.000 
#    0.000    0.000    0.000    0.000    0.000    0.000 
#
# Total GULP energy -156070.394444 kJ/mol
# GULP energy per Si atom -5573.942659 kJ/mol
# Density = 2.028724 g / cm^3
# Si number density = 20.333524 Si / 1000 Ang^3
#
#
#
# Elastic Constant Matrix: (Units=GPa)
#
#
# Indices 1 2 3 4 5 6 
#
# 1 105.8843 12.7491 49.5363 0.0000 0.0000 0.0000
# 2 12.7491 65.6404 28.9913 0.0000 0.0000 0.0000
# 3 49.5363 28.9913 91.0252 0.0000 0.0000 0.0000
# 4 0.0000 0.0000 0.0000 19.8563 0.0000 0.0000
# 5 0.0000 0.0000 0.0000 0.0000 26.6011 0.0000
# 6 0.0000 0.0000 0.0000 0.0000 0.0000 29.7560
#
#
#
# Elastic Compliance Matrix: (Units=1/GPa)
#
#
# Indices 1 2 3 4 5 6 
#
# 1 0.012696 0.000682 -0.007126 0.000000 0.000000 0.000000
# 2 0.000682 0.017765 -0.006029 0.000000 0.000000 0.000000
# 3 -0.007126 -0.006029 0.016784 0.000000 0.000000 0.000000
# 4 0.000000 0.000000 0.000000 0.050362 0.000000 0.000000
# 5 0.000000 0.000000 0.000000 0.000000 0.037592 0.000000
# 6 0.000000 0.000000 0.000000 0.000000 0.000000 0.033607
#
#
# Mechanical properties :
#
#
# Convention : Reuss Voigt Hill
#
# Bulk Modulus (GPa) = 44.84731 49.45594 47.15162
# Shear Modulus (GPa) = 24.85254 26.66090 25.75672
#
# Velocity S-wave (km/s) = 3.49985 3.62495 3.56295
# Velocity P-wave (km/s) = 6.19965 6.47267 6.33763
#
# Compressibility (1/GPa) = 0.02229788
#
# Stress axis : x y z
#
# Youngs Moduli (GPa) = 78.76383 56.29051 59.57910
#
# Poissons Ratio (x) = -0.03837 0.42458
# Poissons Ratio (y) = -0.05368 0.35920
# Poissons Ratio (z) = 0.56130 0.33938
#
# Static dielectric constant tensor:
#      x y z
#    x 1.783400 0.000000 0.000000 
#    y 0.000000 1.759030 0.000000 
#    z 0.000000 0.000000 1.753440 
# 
# From -- ./inp_files/9790.got.cif
#   From: 2010.05.17/outbox.cif.g08.bks.cpg/sg43_5_cif.got.tgz:9790.got - 2010.06.03 19:21:55.
