data_PCOD9371826
_publ_section_title
;
Structure prediction by ZEFSAII (Michael W. Deem and Ramdas Pophale) SiO2 
 PCOD9371826
Probable space group: F D D 2
;
_chemical_formula_sum "Si O2"
_cell_formula_units_Z 72
_cell_length_a 15.823379
_cell_length_b 15.033826
_cell_length_c 12.239036
_cell_angle_alpha 90.000000
_cell_angle_beta 90.000000
_cell_angle_gamma 90.000000
_cell_volume 2911.494420
_symmetry_space_group_name_H-M "F D D 2"
_symmetry_group_IT_number 43
_symmetry_cell_setting 'orthorhombic'
loop_
_space_group_symop_operation_xyz
x,y,z
-x,-y,z
1/4-x,1/4+y,1/4+z
1/4+x,1/4-y,1/4+z
x,1/2+y,1/2+z
-x,1/2-y,1/2+z
1/4-x,3/4+y,3/4+z
1/4+x,3/4-y,3/4+z
1/2+x,y,1/2+z
1/2-x,-y,1/2+z
3/4-x,1/4+y,3/4+z
3/4+x,1/4-y,3/4+z
1/2+x,1/2+y,z
1/2-x,1/2-y,z
3/4-x,3/4+y,1/4+z
3/4+x,3/4-y,1/4+z
loop_
_atom_site_type_symbol
_atom_site_label
_atom_site_fract_x
_atom_site_fract_y
_atom_site_fract_z
Si Si1 0.929322 0.184122 0.353490
Si Si2 0.104926 0.279806 0.295940
Si Si3 0.404352 0.775314 0.563645
Si Si4 0.840304 0.906620 0.352532
Si Si5 0.750000 0.250000 0.102590
O O1 0.879133 0.234828 0.447489
O O2 0.891910 0.168242 0.232801
O O3 0.013266 0.241095 0.327396
O O4 0.954855 0.087287 0.402586
O O5 0.115546 0.287410 0.165136
O O6 0.164906 0.197864 0.330115
O O7 0.115019 0.378800 0.338004
O O8 0.505462 0.793488 0.568558
O O9 0.921488 0.950834 0.294265
#
# Coordination Sequence:
#
# PCOD9371826 Si02
#       5
#    16  16  16  16   8
#     4  10  24  40  68  97 135 181 236 287 352 418
#     4  10  23  41  66  96 133 180 230 286 344 424
#     4  11  23  42  66 101 138 174 232 287 358 408
#     4  10  23  41  70  94 133 185 232 288 342 429
#     4  10  24  40  66  96 134 182 240 286 350 418
#
# _framework density 24.729566999999999
#
# number of rings (size 3 to 8) (size 9 to 14) (size 15 to 20)
#    0.000    1.778    0.000    2.000   18.667    0.000 
#    0.000    0.000    4.889    0.000    0.000    0.000 
#    0.000    0.000    0.000    0.000    0.000    0.000 
#
# Total GULP energy -100566.569408 kJ/mol
# GULP energy per Si atom -5587.031634 kJ/mol
# Density = 2.467328 g / cm^3
# Si number density = 24.729567 Si / 1000 Ang^3
#
#
#
# Elastic Constant Matrix: (Units=GPa)
#
#
# Indices 1 2 3 4 5 6 
#
# 1 29.7268 3.7699 -24.9082 0.0000 0.0000 0.0000
# 2 3.7699 114.4396 18.8864 0.0000 0.0000 0.0000
# 3 -24.9082 18.8864 147.7246 0.0000 0.0000 0.0000
# 4 0.0000 0.0000 0.0000 41.7473 0.0000 0.0000
# 5 0.0000 0.0000 0.0000 0.0000 9.2732 0.0000
# 6 0.0000 0.0000 0.0000 0.0000 0.0000 30.5538
#
#
#
# Elastic Compliance Matrix: (Units=1/GPa)
#
#
# Indices 1 2 3 4 5 6 
#
# 1 0.039848 -0.002474 0.007035 0.000000 0.000000 0.000000
# 2 -0.002474 0.009080 -0.001578 0.000000 0.000000 0.000000
# 3 0.007035 -0.001578 0.008157 0.000000 0.000000 0.000000
# 4 0.000000 0.000000 0.000000 0.023954 0.000000 0.000000
# 5 0.000000 0.000000 0.000000 0.000000 0.107838 0.000000
# 6 0.000000 0.000000 0.000000 0.000000 0.000000 0.032729
#
#
# Mechanical properties :
#
#
# Convention : Reuss Voigt Hill
#
# Bulk Modulus (GPa) = 15.85982 31.93192 23.89587
# Shear Modulus (GPa) = 21.12763 35.92436 28.52600
#
# Velocity S-wave (km/s) = 2.92609 3.81555 3.40003
# Velocity P-wave (km/s) = 4.22413 5.68786 5.00974
#
# Compressibility (1/GPa) = 0.06305241
#
# Stress axis : x y z
#
# Youngs Moduli (GPa) = 25.09530 110.13038 122.58949
#
# Poissons Ratio (x) = 0.27243 -0.86243
# Poissons Ratio (y) = 0.06208 0.19344
# Poissons Ratio (z) = -0.17655 0.17378
#
# Static dielectric constant tensor:
#      x y z
#    x 1.971880 0.000000 0.000000 
#    y 0.000000 1.907360 0.000000 
#    z 0.000000 0.000000 2.102520 
# 
# From -- ./inp_files/3636.got.cif
#   From: 2010.05.17/outbox.cif.g08.bks.cpg/sg43_2_cif.got.tgz:3636.got - 2010.06.03 19:21:55.
