data_PCOD9371138
_publ_section_title
;
Structure prediction by ZEFSAII (Michael W. Deem and Ramdas Pophale) SiO2 
 PCOD9371138
Probable space group: F D D 2
;
_chemical_formula_sum "Si O2"
_cell_formula_units_Z 88
_cell_length_a 14.725545
_cell_length_b 18.374204
_cell_length_c 13.099771
_cell_angle_alpha 90.000000
_cell_angle_beta 90.000000
_cell_angle_gamma 90.000000
_cell_volume 3544.407238
_symmetry_space_group_name_H-M "F D D 2"
_symmetry_group_IT_number 43
_symmetry_cell_setting 'orthorhombic'
loop_
_space_group_symop_operation_xyz
x,y,z
-x,-y,z
1/4-x,1/4+y,1/4+z
1/4+x,1/4-y,1/4+z
x,1/2+y,1/2+z
-x,1/2-y,1/2+z
1/4-x,3/4+y,3/4+z
1/4+x,3/4-y,3/4+z
1/2+x,y,1/2+z
1/2-x,-y,1/2+z
3/4-x,1/4+y,3/4+z
3/4+x,1/4-y,3/4+z
1/2+x,1/2+y,z
1/2-x,1/2-y,z
3/4-x,3/4+y,1/4+z
3/4+x,3/4-y,1/4+z
loop_
_atom_site_type_symbol
_atom_site_label
_atom_site_fract_x
_atom_site_fract_y
_atom_site_fract_z
Si Si1 0.867062 0.622157 0.633430
Si Si2 0.500000 0.000000 0.866835
Si Si3 0.606971 0.263285 0.633566
Si Si4 0.821646 0.832280 0.808972
Si Si5 0.000000 0.000000 0.051361
Si Si6 0.038840 0.787265 0.288672
Si Si7 0.250000 0.750000 0.479848
O O1 0.827885 0.695271 0.571489
O O2 0.783547 0.567410 0.618096
O O3 0.952458 0.570111 0.604191
O O4 0.891011 0.652896 0.744815
O O5 0.548751 0.945642 0.946361
O O6 0.589165 0.334021 0.567605
O O7 0.670648 0.281593 0.729763
O O8 0.518291 0.229945 0.684653
O O9 0.672217 0.220299 0.556178
O O10 0.746749 0.814139 0.895759
O O11 0.910043 0.782778 0.832040
#
# Coordination Sequence:
#
# PCOD9371138 Si02
#       7
#    16   8  16  16   8  16   8
#     4  10  22  46  64  98 134 176 220 278 332 412
#     4   9  22  42  64  95 134 166 224 269 338 390
#     4  10  21  40  62  93 125 170 215 271 317 402
#     4  10  21  40  62  93 125 170 215 271 317 402
#     4   9  22  42  64  95 134 166 224 269 338 390
#     4  10  23  43  66  97 135 172 222 272 342 391
#     4  10  22  36  60  90 118 164 212 252 324 370
#
# _framework density 24.827846999999998
#
# number of rings (size 3 to 8) (size 9 to 14) (size 15 to 20)
#    0.000    2.182    0.000    1.091    5.091    0.727 
#   26.182    0.000    0.000    0.000    0.000    0.000 
#    0.000    0.000    0.000    0.000    0.000    0.000 
#
# Total GULP energy -122487.947453 kJ/mol
# GULP energy per Si atom -5567.633975 kJ/mol
# Density = 2.477134 g / cm^3
# Si number density = 24.827847 Si / 1000 Ang^3
#
#
#
# Elastic Constant Matrix: (Units=GPa)
#
#
# Indices 1 2 3 4 5 6 
#
# 1 104.7654 37.4012 47.8969 0.0000 0.0000 0.0000
# 2 37.4012 96.9611 34.2381 0.0000 0.0000 0.0000
# 3 47.8969 34.2381 81.1558 0.0000 0.0000 0.0000
# 4 0.0000 0.0000 0.0000 27.5872 0.0000 0.0000
# 5 0.0000 0.0000 0.0000 0.0000 19.2146 0.0000
# 6 0.0000 0.0000 0.0000 0.0000 0.0000 45.3553
#
#
#
# Elastic Compliance Matrix: (Units=1/GPa)
#
#
# Indices 1 2 3 4 5 6 
#
# 1 0.013715 -0.002858 -0.006889 0.000000 0.000000 0.000000
# 2 -0.002858 0.012714 -0.003677 0.000000 0.000000 0.000000
# 3 -0.006889 -0.003677 0.017939 0.000000 0.000000 0.000000
# 4 0.000000 0.000000 0.000000 0.036249 0.000000 0.000000
# 5 0.000000 0.000000 0.000000 0.000000 0.052044 0.000000
# 6 0.000000 0.000000 0.000000 0.000000 0.000000 0.022048
#
#
# Mechanical properties :
#
#
# Convention : Reuss Voigt Hill
#
# Bulk Modulus (GPa) = 57.07576 57.99495 57.53535
# Shear Modulus (GPa) = 26.68150 29.32116 28.00133
#
# Velocity S-wave (km/s) = 3.28176 3.44027 3.36195
# Velocity P-wave (km/s) = 6.11542 6.26020 6.18824
#
# Compressibility (1/GPa) = 0.01752057
#
# Stress axis : x y z
#
# Youngs Moduli (GPa) = 72.91449 78.65189 55.74493
#
# Poissons Ratio (x) = 0.22477 0.38400
# Poissons Ratio (y) = 0.20837 0.20499
# Poissons Ratio (z) = 0.50227 0.28922
#
# Static dielectric constant tensor:
#      x y z
#    x 2.365860 0.000000 0.000000 
#    y 0.000000 2.511730 0.000000 
#    z 0.000000 0.000000 1.971980 
# 
# From -- ./inp_files/10054.got.cif
#   From: 2010.05.17/outbox.cif.g08.bks.cpg/sg43_6_cif.got.tgz:10054.got - 2010.06.03 19:21:55.
