data_PCOD9371590
_publ_section_title
;
Structure prediction by ZEFSAII (Michael W. Deem and Ramdas Pophale) SiO2 
 PCOD9371590
Probable space group: F D D 2
;
_chemical_formula_sum "Si O2"
_cell_formula_units_Z 112
_cell_length_a 13.731177
_cell_length_b 15.207220
_cell_length_c 24.422810
_cell_angle_alpha 90.000000
_cell_angle_beta 90.000000
_cell_angle_gamma 90.000000
_cell_volume 5099.800945
_symmetry_space_group_name_H-M "F D D 2"
_symmetry_group_IT_number 43
_symmetry_cell_setting 'orthorhombic'
loop_
_space_group_symop_operation_xyz
x,y,z
-x,-y,z
1/4-x,1/4+y,1/4+z
1/4+x,1/4-y,1/4+z
x,1/2+y,1/2+z
-x,1/2-y,1/2+z
1/4-x,3/4+y,3/4+z
1/4+x,3/4-y,3/4+z
1/2+x,y,1/2+z
1/2-x,-y,1/2+z
3/4-x,1/4+y,3/4+z
3/4+x,1/4-y,3/4+z
1/2+x,1/2+y,z
1/2-x,1/2-y,z
3/4-x,3/4+y,1/4+z
3/4+x,3/4-y,1/4+z
loop_
_atom_site_type_symbol
_atom_site_label
_atom_site_fract_x
_atom_site_fract_y
_atom_site_fract_z
Si Si1 0.856443 0.786852 0.392950
Si Si2 0.827579 0.977292 0.374552
Si Si3 0.305658 0.526221 0.256572
Si Si4 0.721717 0.656480 0.004343
Si Si5 0.107115 0.902039 0.871785
Si Si6 0.835306 0.317308 0.233244
Si Si7 0.728018 0.338361 0.727409
O O1 0.750000 0.750000 0.381906
O O2 0.880788 0.882293 0.369675
O O3 0.865496 0.791127 0.459130
O O4 0.913461 0.703599 0.369889
O O5 0.715195 0.942735 0.382731
O O6 0.833542 0.036355 0.319936
O O7 0.875738 0.028395 0.425441
O O8 0.220014 0.589602 0.235745
O O9 0.271679 0.425348 0.254321
O O10 0.750000 0.750000 0.977167
O O11 0.813407 0.592044 0.013044
O O12 0.636320 0.606618 0.971560
O O13 0.674834 0.683264 0.062404
O O14 0.040550 0.924461 0.922929
O O15 0.750000 0.250000 0.253224
O O16 0.750000 0.250000 0.761101
#
# Coordination Sequence:
#
# PCOD9371590 Si02
#       7
#    16  16  16  16  16  16  16
#     4   9  21  41  66 103 141 184 253 311 355 456
#     4  11  22  44  74  96 151 200 238 315 387 439
#     4  11  23  45  69 105 142 192 252 308 371 460
#     4  12  24  44  73 100 149 190 239 311 380 449
#     4  10  22  42  70 108 137 186 256 309 374 446
#     4  12  26  47  66 105 156 195 247 311 382 472
#     4  11  23  41  72 105 140 180 251 307 368 445
#
# _framework density 21.961641
#
# number of rings (size 3 to 8) (size 9 to 14) (size 15 to 20)
#    0.000    1.143    4.286    1.286    2.000    1.714 
#    5.143    1.429    0.000    0.000    0.000    0.000 
#    0.000    0.000    0.000    0.000    0.000    0.000 
#
# Total GULP energy -155962.341013 kJ/mol
# GULP energy per Si atom -5570.083608 kJ/mol
# Density = 2.191165 g / cm^3
# Si number density = 21.961641 Si / 1000 Ang^3
#
#
#
# Elastic Constant Matrix: (Units=GPa)
#
#
# Indices 1 2 3 4 5 6 
#
# 1 62.4649 11.3941 21.7537 0.0000 0.0000 0.0000
# 2 11.3941 113.5935 22.3561 0.0000 0.0000 0.0000
# 3 21.7537 22.3561 68.7504 0.0000 0.0000 0.0000
# 4 0.0000 0.0000 0.0000 2.6742 0.0000 0.0000
# 5 0.0000 0.0000 0.0000 0.0000 60.9481 0.0000
# 6 0.0000 0.0000 0.0000 0.0000 0.0000 45.4299
#
#
#
# Elastic Compliance Matrix: (Units=1/GPa)
#
#
# Indices 1 2 3 4 5 6 
#
# 1 0.018049 -0.000733 -0.005472 0.000000 0.000000 0.000000
# 2 -0.000733 0.009435 -0.002836 0.000000 0.000000 0.000000
# 3 -0.005472 -0.002836 0.017199 0.000000 0.000000 0.000000
# 4 0.000000 0.000000 0.000000 0.373940 0.000000 0.000000
# 5 0.000000 0.000000 0.000000 0.000000 0.016407 0.000000
# 6 0.000000 0.000000 0.000000 0.000000 0.000000 0.022012
#
#
# Mechanical properties :
#
#
# Convention : Reuss Voigt Hill
#
# Bulk Modulus (GPa) = 37.59513 39.53518 38.56515
# Shear Modulus (GPa) = 10.33075 34.43076 22.38075
#
# Velocity S-wave (km/s) = 2.17122 3.96380 3.19577
# Velocity P-wave (km/s) = 4.84162 6.24419 5.58710
#
# Compressibility (1/GPa) = 0.02659919
#
# Stress axis : x y z
#
# Youngs Moduli (GPa) = 55.40616 105.98797 58.14250
#
# Poissons Ratio (x) = 0.07773 0.31818
# Poissons Ratio (y) = 0.04063 0.16489
# Poissons Ratio (z) = 0.30320 0.30058
#
# Static dielectric constant tensor:
#      x y z
#    x 1.890630 0.000000 0.000000 
#    y 0.000000 2.024070 0.000000 
#    z 0.000000 0.000000 1.837940 
# 
# From -- ./inp_files/25622.got.cif
#   From: 2010.05.17/outbox.cif.g08.bks.cpg/sg43_13_cif.got.tgz:25622.got - 2010.06.03 19:21:55.
