data_PCOD9371594
_publ_section_title
;
Structure prediction by ZEFSAII (Michael W. Deem and Ramdas Pophale) SiO2 
 PCOD9371594
Probable space group: F D D 2
;
_chemical_formula_sum "Si O2"
_cell_formula_units_Z 64
_cell_length_a 13.309893
_cell_length_b 13.778080
_cell_length_c 12.792481
_cell_angle_alpha 90.000000
_cell_angle_beta 90.000000
_cell_angle_gamma 90.000000
_cell_volume 2345.946193
_symmetry_space_group_name_H-M "F D D 2"
_symmetry_group_IT_number 43
_symmetry_cell_setting 'orthorhombic'
loop_
_space_group_symop_operation_xyz
x,y,z
-x,-y,z
1/4-x,1/4+y,1/4+z
1/4+x,1/4-y,1/4+z
x,1/2+y,1/2+z
-x,1/2-y,1/2+z
1/4-x,3/4+y,3/4+z
1/4+x,3/4-y,3/4+z
1/2+x,y,1/2+z
1/2-x,-y,1/2+z
3/4-x,1/4+y,3/4+z
3/4+x,1/4-y,3/4+z
1/2+x,1/2+y,z
1/2-x,1/2-y,z
3/4-x,3/4+y,1/4+z
3/4+x,3/4-y,1/4+z
loop_
_atom_site_type_symbol
_atom_site_label
_atom_site_fract_x
_atom_site_fract_y
_atom_site_fract_z
Si Si1 0.126487 0.534170 0.949850
Si Si2 0.489239 0.658249 0.599268
Si Si3 0.911599 0.390270 0.721756
Si Si4 0.557791 0.627212 0.000744
O O1 0.173056 0.426857 0.937267
O O2 0.095326 0.553107 0.829701
O O3 0.231057 0.588435 0.978184
O O4 0.041515 0.585172 0.018697
O O5 0.458692 0.759821 0.540711
O O6 0.392653 0.623333 0.663267
O O7 0.801814 0.341655 0.715635
O O8 0.911797 0.433030 0.604773
#
# Coordination Sequence:
#
# PCOD9371594 Si02
#       4
#    16  16  16  16
#     4  10  22  42  71 102 142 190 243 296 364 442
#     4  10  24  46  72 106 144 190 244 306 368 442
#     4   8  20  42  70  98 140 192 242 282 360 454
#     4  10  22  42  71 102 142 190 243 296 364 442
#
# _framework density 27.281105
#
# number of rings (size 3 to 8) (size 9 to 14) (size 15 to 20)
#    0.000    3.000    0.000    0.000    0.000   18.000 
#    0.000   50.000    0.000    0.000    0.000    0.000 
#    0.000    0.000    0.000    0.000    0.000    0.000 
#
# Total GULP energy -89255.729651 kJ/mol
# GULP energy per Si atom -5578.483103 kJ/mol
# Density = 2.721901 g / cm^3
# Si number density = 27.281105 Si / 1000 Ang^3
#
#
#
# Elastic Constant Matrix: (Units=GPa)
#
#
# Indices 1 2 3 4 5 6 
#
# 1 215.7668 64.6962 95.7615 0.0000 0.0000 0.0000
# 2 64.6962 104.6012 54.5010 0.0000 0.0000 0.0000
# 3 95.7615 54.5010 175.9137 0.0000 0.0000 0.0000
# 4 0.0000 0.0000 0.0000 -4.5613 0.0000 0.0000
# 5 0.0000 0.0000 0.0000 0.0000 93.4841 0.0000
# 6 0.0000 0.0000 0.0000 0.0000 0.0000 38.2797
#
#
#
# Elastic Compliance Matrix: (Units=1/GPa)
#
#
# Indices 1 2 3 4 5 6 
#
# 1 0.006682 -0.002668 -0.002811 0.000000 0.000000 0.000000
# 2 -0.002668 0.012466 -0.002410 0.000000 0.000000 0.000000
# 3 -0.002811 -0.002410 0.007961 0.000000 0.000000 0.000000
# 4 0.000000 0.000000 0.000000 -0.219237 0.000000 0.000000
# 5 0.000000 0.000000 0.000000 0.000000 0.010697 0.000000
# 6 0.000000 0.000000 0.000000 0.000000 0.000000 0.026123
#
#
# Mechanical properties :
#
#
# Convention : Reuss Voigt Hill
#
# Bulk Modulus (GPa) = 88.24728 102.91103 95.57915
# Shear Modulus (GPa) = -36.83199 44.19537 3.68169
#
# Velocity S-wave (km/s) = -3.67835 4.02929 1.16296
# Velocity P-wave (km/s) = 3.79174 7.71046 6.07571
#
# Compressibility (1/GPa) = 0.01133179
#
# Stress axis : x y z
#
# Youngs Moduli (GPa) = 149.64987 80.21798 125.60798
#
# Poissons Ratio (x) = 0.21406 0.35307
# Poissons Ratio (y) = 0.39933 0.30266
# Poissons Ratio (z) = 0.42065 0.19329
#
# Static dielectric constant tensor:
#      x y z
#    x 2.083490 0.000000 0.000000 
#    y 0.000000 2.408290 0.000000 
#    z 0.000000 0.000000 2.095280 
# 
# From -- ./inp_files/5554.got.cif
#   From: 2010.05.17/outbox.cif.g08.bks.cpg/sg43_3_cif.got.tgz:5554.got - 2010.06.03 19:21:55.
