data_PCOD9371761
_publ_section_title
;
Structure prediction by ZEFSAII (Michael W. Deem and Ramdas Pophale) SiO2 
 PCOD9371761
Probable space group: F D D 2
;
_chemical_formula_sum "Si O2"
_cell_formula_units_Z 104
_cell_length_a 25.709707
_cell_length_b 18.060646
_cell_length_c 9.712268
_cell_angle_alpha 90.000000
_cell_angle_beta 90.000000
_cell_angle_gamma 90.000000
_cell_volume 4509.735442
_symmetry_space_group_name_H-M "F D D 2"
_symmetry_group_IT_number 43
_symmetry_cell_setting 'orthorhombic'
loop_
_space_group_symop_operation_xyz
x,y,z
-x,-y,z
1/4-x,1/4+y,1/4+z
1/4+x,1/4-y,1/4+z
x,1/2+y,1/2+z
-x,1/2-y,1/2+z
1/4-x,3/4+y,3/4+z
1/4+x,3/4-y,3/4+z
1/2+x,y,1/2+z
1/2-x,-y,1/2+z
3/4-x,1/4+y,3/4+z
3/4+x,1/4-y,3/4+z
1/2+x,1/2+y,z
1/2-x,1/2-y,z
3/4-x,3/4+y,1/4+z
3/4+x,3/4-y,1/4+z
loop_
_atom_site_type_symbol
_atom_site_label
_atom_site_fract_x
_atom_site_fract_y
_atom_site_fract_z
Si Si1 0.526832 0.713729 0.157950
Si Si2 0.099743 0.338998 0.033324
Si Si3 0.250000 0.750000 0.865210
Si Si4 0.665847 0.019326 0.782447
Si Si5 0.155859 0.341390 0.766641
Si Si6 0.346421 0.664468 0.799863
Si Si7 0.759900 0.358641 0.113201
O O1 0.559415 0.784983 0.112265
O O2 0.475995 0.712516 0.061495
O O3 0.569100 0.649538 0.136056
O O4 0.504408 0.692108 0.309223
O O5 0.135130 0.368021 0.155946
O O6 0.137907 0.308528 0.913660
O O7 0.061788 0.392871 0.951022
O O8 0.233002 0.686296 0.972107
O O9 0.300136 0.724324 0.780816
O O10 0.642086 0.050079 0.640459
O O11 0.656438 0.930935 0.785554
O O12 0.633989 0.060595 0.903419
O O13 0.212768 0.326838 0.703213
#
# Coordination Sequence:
#
# PCOD9371761 Si02
#       7
#    16  16   8  16  16  16  16
#     4  11  25  44  71 104 144 196 243 304 379 455
#     4  12  27  42  70 109 150 180 253 308 379 430
#     4  10  22  46  74 102 142 196 252 288 380 462
#     4  12  25  48  80 106 148 195 262 296 387 455
#     4  12  26  45  78 110 144 200 249 315 364 464
#     4  11  27  42  73 106 147 193 244 317 376 447
#     4  11  23  45  74 105 140 200 248 294 374 455
#
# _framework density 23.061219999999999
#
# number of rings (size 3 to 8) (size 9 to 14) (size 15 to 20)
#    0.000    0.615    6.154    1.846    4.308    1.231 
#    0.000    0.769    0.000    0.000    0.000    0.000 
#    0.000    0.000    0.000    0.000    0.000    0.000 
#
# Total GULP energy -145275.426012 kJ/mol
# GULP energy per Si atom -5587.516385 kJ/mol
# Density = 2.300873 g / cm^3
# Si number density = 23.061220 Si / 1000 Ang^3
#
#
#
# Elastic Constant Matrix: (Units=GPa)
#
#
# Indices 1 2 3 4 5 6 
#
# 1 114.2602 8.9389 34.6215 0.0000 0.0000 0.0000
# 2 8.9389 69.9591 3.5932 0.0000 0.0000 0.0000
# 3 34.6215 3.5932 121.3721 0.0000 0.0000 0.0000
# 4 0.0000 0.0000 0.0000 21.5172 0.0000 0.0000
# 5 0.0000 0.0000 0.0000 0.0000 40.4927 0.0000
# 6 0.0000 0.0000 0.0000 0.0000 0.0000 24.2951
#
#
#
# Elastic Compliance Matrix: (Units=1/GPa)
#
#
# Indices 1 2 3 4 5 6 
#
# 1 0.009663 -0.001095 -0.002724 0.000000 0.000000 0.000000
# 2 -0.001095 0.014440 -0.000115 0.000000 0.000000 0.000000
# 3 -0.002724 -0.000115 0.009020 0.000000 0.000000 0.000000
# 4 0.000000 0.000000 0.000000 0.046474 0.000000 0.000000
# 5 0.000000 0.000000 0.000000 0.000000 0.024696 0.000000
# 6 0.000000 0.000000 0.000000 0.000000 0.000000 0.041161
#
#
# Mechanical properties :
#
#
# Convention : Reuss Voigt Hill
#
# Bulk Modulus (GPa) = 39.59685 44.43317 42.01501
# Shear Modulus (GPa) = 30.91396 34.49019 32.70208
#
# Velocity S-wave (km/s) = 3.66528 3.87148 3.76979
# Velocity P-wave (km/s) = 5.92621 6.26848 6.09975
#
# Compressibility (1/GPa) = 0.02525453
#
# Stress axis : x y z
#
# Youngs Moduli (GPa) = 103.48774 69.25268 110.87030
#
# Poissons Ratio (x) = 0.07582 0.30201
# Poissons Ratio (y) = 0.11329 0.01277
# Poissons Ratio (z) = 0.28190 0.00798
#
# Static dielectric constant tensor:
#      x y z
#    x 1.855700 0.000000 0.000000 
#    y 0.000000 1.971080 0.000000 
#    z 0.000000 0.000000 1.891540 
# 
# From -- ./inp_files/4235.got.cif
#   From: 2010.05.17/outbox.cif.g08.bks.cpg/sg43_3_cif.got.tgz:4235.got - 2010.06.03 19:21:55.
