data_PCOD9371464
_publ_section_title
;
Structure prediction by ZEFSAII (Michael W. Deem and Ramdas Pophale) SiO2 
 PCOD9371464
Probable space group: F D D 2
;
_chemical_formula_sum "Si O2"
_cell_formula_units_Z 80
_cell_length_a 18.712692
_cell_length_b 21.886214
_cell_length_c 7.130251
_cell_angle_alpha 90.000000
_cell_angle_beta 90.000000
_cell_angle_gamma 90.000000
_cell_volume 2920.194166
_symmetry_space_group_name_H-M "F D D 2"
_symmetry_group_IT_number 43
_symmetry_cell_setting 'orthorhombic'
loop_
_space_group_symop_operation_xyz
x,y,z
-x,-y,z
1/4-x,1/4+y,1/4+z
1/4+x,1/4-y,1/4+z
x,1/2+y,1/2+z
-x,1/2-y,1/2+z
1/4-x,3/4+y,3/4+z
1/4+x,3/4-y,3/4+z
1/2+x,y,1/2+z
1/2-x,-y,1/2+z
3/4-x,1/4+y,3/4+z
3/4+x,1/4-y,3/4+z
1/2+x,1/2+y,z
1/2-x,1/2-y,z
3/4-x,3/4+y,1/4+z
3/4+x,3/4-y,1/4+z
loop_
_atom_site_type_symbol
_atom_site_label
_atom_site_fract_x
_atom_site_fract_y
_atom_site_fract_z
Si Si1 0.222063 0.120473 0.265030
Si Si2 0.991390 0.605282 0.957820
Si Si3 0.850694 0.748637 0.694503
Si Si4 0.349288 0.196612 0.309785
Si Si5 0.247197 0.529446 0.463129
O O1 0.230000 0.130757 0.487637
O O2 0.279337 0.173178 0.203537
O O3 0.142729 0.110178 0.169832
O O4 0.255449 0.059884 0.170291
O O5 0.054590 0.558305 0.010630
O O6 0.922619 0.564846 0.017024
O O7 0.008184 0.667366 0.061653
O O8 0.934026 0.737461 0.708277
O O9 0.831793 0.744763 0.472864
O O10 0.412246 0.230489 0.197097
#
# Coordination Sequence:
#
# PCOD9371464 Si02
#       5
#    16  16  16  16  16
#     4   9  21  41  63  92 122 173 218 262 335 394
#     4  10  22  42  68  85 137 173 207 279 337 392
#     4  10  22  41  61 103 123 167 227 268 330 402
#     4   9  21  42  61  94 131 164 221 273 326 396
#     4  10  22  40  67  91 128 172 220 266 339 399
#
# _framework density 27.395439
#
# number of rings (size 3 to 8) (size 9 to 14) (size 15 to 20)
#    1.200    1.200    0.000    1.200    5.600    1.600 
#    3.600   10.000    0.000    0.000    0.000    0.000 
#    0.000    0.000    0.000    0.000    0.000    0.000 
#
# Total GULP energy -111453.488266 kJ/mol
# GULP energy per Si atom -5572.674413 kJ/mol
# Density = 2.733309 g / cm^3
# Si number density = 27.395439 Si / 1000 Ang^3
#
#
#
# Elastic Constant Matrix: (Units=GPa)
#
#
# Indices 1 2 3 4 5 6 
#
# 1 127.9453 53.3053 14.6341 -0.0004 -0.0142 0.0000
# 2 53.3053 73.5941 7.7720 0.0000 -0.0325 -0.0001
# 3 14.6341 7.7720 85.5944 0.0023 -0.0953 -0.0010
# 4 -0.0004 0.0000 0.0023 25.5343 -0.0433 -0.0005
# 5 -0.0142 -0.0325 -0.0953 -0.0433 230.6405 0.0308
# 6 0.0000 -0.0001 -0.0010 -0.0005 0.0308 43.1449
#
#
#
# Elastic Compliance Matrix: (Units=1/GPa)
#
#
# Indices 1 2 3 4 5 6 
#
# 1 0.011315 -0.008069 -0.001202 0.000000 -0.000001 0.000000
# 2 -0.008069 0.019473 -0.000389 0.000000 0.000002 0.000000
# 3 -0.001202 -0.000389 0.011924 -0.000001 0.000005 0.000000
# 4 0.000000 0.000000 -0.000001 0.039163 0.000007 0.000000
# 5 -0.000001 0.000002 0.000005 0.000007 0.004336 -0.000003
# 6 0.000000 0.000000 0.000000 0.000000 -0.000003 0.023178
#
#
# Mechanical properties :
#
#
# Convention : Reuss Voigt Hill
#
# Bulk Modulus (GPa) = 42.74666 48.72850 45.73758
# Shear Modulus (GPa) = 36.62876 73.95876 55.29376
#
# Velocity S-wave (km/s) = 3.66052 5.20148 4.49749
# Velocity P-wave (km/s) = 5.78821 7.34163 6.61070
#
# Compressibility (1/GPa) = 0.02339364
#
# Stress axis : x y z
#
# Youngs Moduli (GPa) = 88.37907 51.35235 83.86592
#
# Poissons Ratio (x) = 0.41434 0.10080
# Poissons Ratio (y) = 0.71310 0.03260
# Poissons Ratio (z) = 0.10622 0.01996
#
# Static dielectric constant tensor:
#      x y z
#    x 1.238820 0.000090 0.000030 
#    y 0.000090 2.375810 0.000000 
#    z 0.000030 0.000000 2.240760 
# 
# From -- ./inp_files/2851.got.cif
#   From: 2010.05.17/outbox.cif.g08.bks.cpg/sg43_2_cif.got.tgz:2851.got - 2010.06.03 19:21:55.
