data_PCOD9371730
_publ_section_title
;
Structure prediction by ZEFSAII (Michael W. Deem and Ramdas Pophale) SiO2 
 PCOD9371730
Probable space group: F D D 2
;
_chemical_formula_sum "Si O2"
_cell_formula_units_Z 80
_cell_length_a 31.750501
_cell_length_b 7.098090
_cell_length_c 13.981649
_cell_angle_alpha 90.000000
_cell_angle_beta 90.000000
_cell_angle_gamma 90.000000
_cell_volume 3151.015064
_symmetry_space_group_name_H-M "F D D 2"
_symmetry_group_IT_number 43
_symmetry_cell_setting 'orthorhombic'
loop_
_space_group_symop_operation_xyz
x,y,z
-x,-y,z
1/4-x,1/4+y,1/4+z
1/4+x,1/4-y,1/4+z
x,1/2+y,1/2+z
-x,1/2-y,1/2+z
1/4-x,3/4+y,3/4+z
1/4+x,3/4-y,3/4+z
1/2+x,y,1/2+z
1/2-x,-y,1/2+z
3/4-x,1/4+y,3/4+z
3/4+x,1/4-y,3/4+z
1/2+x,1/2+y,z
1/2-x,1/2-y,z
3/4-x,3/4+y,1/4+z
3/4+x,3/4-y,1/4+z
loop_
_atom_site_type_symbol
_atom_site_label
_atom_site_fract_x
_atom_site_fract_y
_atom_site_fract_z
Si Si1 0.218573 0.532530 0.889890
Si Si2 0.084171 0.686320 0.986094
Si Si3 0.809992 0.907881 0.889770
Si Si4 0.921631 0.635878 0.835800
Si Si5 0.857298 0.291500 0.577192
O O1 0.198610 0.578946 0.787344
O O2 0.206033 0.307552 0.879582
O O3 0.268812 0.536499 0.893195
O O4 0.197938 0.617828 0.985762
O O5 0.066064 0.512714 0.919416
O O6 0.108281 0.805644 0.907684
O O7 0.122222 0.647954 0.061179
O O8 0.844658 0.975410 0.814025
O O9 0.835976 0.891253 0.987423
O O10 0.920689 0.860201 0.855949
#
# Coordination Sequence:
#
# PCOD9371730 Si02
#       5
#    16  16  16  16  16
#     4  10  23  45  69 109 150 186 248 312 364 442
#     4  12  22  42  75 105 138 199 248 284 383 450
#     4  10  22  45  71 102 150 190 236 311 371 429
#     4  11  22  43  69 103 147 190 232 310 363 436
#     4  11  23  43  71 102 140 194 239 292 369 441
#
# _framework density 25.388645
#
# number of rings (size 3 to 8) (size 9 to 14) (size 15 to 20)
#    0.000    1.200    4.000    2.400    0.000    0.000 
#    7.200    7.000    0.000    2.400    0.000    0.000 
#    0.000    0.000    0.000    0.000    0.000    0.000 
#
# Total GULP energy -111633.202432 kJ/mol
# GULP energy per Si atom -5581.660122 kJ/mol
# Density = 2.533086 g / cm^3
# Si number density = 25.388645 Si / 1000 Ang^3
#
#
#
# Elastic Constant Matrix: (Units=GPa)
#
#
# Indices 1 2 3 4 5 6 
#
# 1 144.4427 -0.1636 31.5181 0.0000 0.0000 0.0000
# 2 -0.1636 63.5325 11.3603 0.0000 0.0000 0.0000
# 3 31.5181 11.3603 95.1088 0.0000 0.0000 0.0000
# 4 0.0000 0.0000 0.0000 55.3449 0.0000 0.0000
# 5 0.0000 0.0000 0.0000 0.0000 27.6287 0.0000
# 6 0.0000 0.0000 0.0000 0.0000 0.0000 29.9069
#
#
#
# Elastic Compliance Matrix: (Units=1/GPa)
#
#
# Indices 1 2 3 4 5 6 
#
# 1 0.007477 0.000472 -0.002534 0.000000 0.000000 0.000000
# 2 0.000472 0.016113 -0.002081 0.000000 0.000000 0.000000
# 3 -0.002534 -0.002081 0.011603 0.000000 0.000000 0.000000
# 4 0.000000 0.000000 0.000000 0.018068 0.000000 0.000000
# 5 0.000000 0.000000 0.000000 0.000000 0.036194 0.000000
# 6 0.000000 0.000000 0.000000 0.000000 0.000000 0.033437
#
#
# Mechanical properties :
#
#
# Convention : Reuss Voigt Hill
#
# Bulk Modulus (GPa) = 37.16541 43.16820 40.16680
# Shear Modulus (GPa) = 35.67676 39.93405 37.80541
#
# Velocity S-wave (km/s) = 3.75270 3.97030 3.86303
# Velocity P-wave (km/s) = 5.78337 6.16908 5.97934
#
# Compressibility (1/GPa) = 0.02690674
#
# Stress axis : x y z
#
# Youngs Moduli (GPa) = 133.74969 62.06044 86.18729
#
# Poissons Ratio (x) = -0.02932 0.21841
# Poissons Ratio (y) = -0.06318 0.17937
# Poissons Ratio (z) = 0.33894 0.12916
#
# Static dielectric constant tensor:
#      x y z
#    x 2.073860 0.000000 0.000000 
#    y 0.000000 2.238770 0.000000 
#    z 0.000000 0.000000 2.150830 
# 
# From -- ./inp_files/14973.got.cif
#   From: 2010.05.17/outbox.cif.g08.bks.cpg/sg43_8_cif.got.tgz:14973.got - 2010.06.03 19:21:55.
