data_PCOD9371286
_publ_section_title
;
Structure prediction by ZEFSAII (Michael W. Deem and Ramdas Pophale) SiO2 
 PCOD9371286
Probable space group: F D D 2
;
_chemical_formula_sum "Si O2"
_cell_formula_units_Z 88
_cell_length_a 7.756371
_cell_length_b 30.172618
_cell_length_c 17.275390
_cell_angle_alpha 90.000000
_cell_angle_beta 90.000000
_cell_angle_gamma 90.000000
_cell_volume 4042.959854
_symmetry_space_group_name_H-M "F D D 2"
_symmetry_group_IT_number 43
_symmetry_cell_setting 'orthorhombic'
loop_
_space_group_symop_operation_xyz
x,y,z
-x,-y,z
1/4-x,1/4+y,1/4+z
1/4+x,1/4-y,1/4+z
x,1/2+y,1/2+z
-x,1/2-y,1/2+z
1/4-x,3/4+y,3/4+z
1/4+x,3/4-y,3/4+z
1/2+x,y,1/2+z
1/2-x,-y,1/2+z
3/4-x,1/4+y,3/4+z
3/4+x,1/4-y,3/4+z
1/2+x,1/2+y,z
1/2-x,1/2-y,z
3/4-x,3/4+y,1/4+z
3/4+x,3/4-y,1/4+z
loop_
_atom_site_type_symbol
_atom_site_label
_atom_site_fract_x
_atom_site_fract_y
_atom_site_fract_z
Si Si1 0.985573 0.427838 0.942550
Si Si2 0.621072 0.589852 0.966168
Si Si3 0.000000 0.000000 0.574638
Si Si4 0.325087 0.629967 0.881885
Si Si5 0.250000 0.250000 0.288339
Si Si6 0.750000 0.250000 0.060352
Si Si7 0.211900 0.524221 0.670439
O O1 0.173702 0.406800 0.958545
O O2 0.006459 0.457661 0.865512
O O3 0.831091 0.393781 0.925932
O O4 0.942534 0.462032 0.012155
O O5 0.504465 0.604464 0.895393
O O6 0.549693 0.617106 0.039944
O O7 0.572636 0.539246 0.986992
O O8 0.901156 0.030832 0.638316
O O9 0.359264 0.679931 0.911047
O O10 0.099825 0.240951 0.351220
O O11 0.586449 0.254394 0.002659
#
# Coordination Sequence:
#
# PCOD9371286 Si02
#       7
#    16  16   8  16   8   8  16
#     4  11  24  45  72 101 138 191 234 287 351 433
#     4  11  24  44  67 104 135 190 229 287 356 417
#     4  11  20  45  75 101 128 196 246 261 364 443
#     4  11  24  43  67 100 149 175 232 294 355 411
#     4   9  18  41  67  92 133 178 232 275 336 419
#     4  10  24  44  64 107 135 178 240 290 350 408
#     4  10  21  43  68 102 137 181 229 300 345 414
#
# _framework density 21.766231999999999
#
# number of rings (size 3 to 8) (size 9 to 14) (size 15 to 20)
#    0.000    1.455    3.636    2.182    2.545    2.909 
#   16.364    0.000    0.000    0.000    0.000    0.000 
#    0.000    0.000    0.000    0.000    0.000    0.000 
#
# Total GULP energy -122555.488022 kJ/mol
# GULP energy per Si atom -5570.704001 kJ/mol
# Density = 2.171669 g / cm^3
# Si number density = 21.766232 Si / 1000 Ang^3
#
#
#
# Elastic Constant Matrix: (Units=GPa)
#
#
# Indices 1 2 3 4 5 6 
#
# 1 74.5826 62.1071 24.7171 0.0000 0.0000 0.0000
# 2 62.1071 84.5673 36.5673 0.0000 0.0000 0.0000
# 3 24.7171 36.5673 99.3431 0.0000 0.0000 0.0000
# 4 0.0000 0.0000 0.0000 76.0991 0.0000 0.0000
# 5 0.0000 0.0000 0.0000 0.0000 11.6936 0.0000
# 6 0.0000 0.0000 0.0000 0.0000 0.0000 28.2859
#
#
#
# Elastic Compliance Matrix: (Units=1/GPa)
#
#
# Indices 1 2 3 4 5 6 
#
# 1 0.034583 -0.025781 0.000885 0.000000 0.000000 0.000000
# 2 -0.025781 0.033282 -0.005836 0.000000 0.000000 0.000000
# 3 0.000885 -0.005836 0.011994 0.000000 0.000000 0.000000
# 4 0.000000 0.000000 0.000000 0.013141 0.000000 0.000000
# 5 0.000000 0.000000 0.000000 0.000000 0.085517 0.000000
# 6 0.000000 0.000000 0.000000 0.000000 0.000000 0.035353
#
#
# Mechanical properties :
#
#
# Convention : Reuss Voigt Hill
#
# Bulk Modulus (GPa) = 54.36157 56.14178 55.25168
# Shear Modulus (GPa) = 17.76407 32.22251 24.99329
#
# Velocity S-wave (km/s) = 2.85990 3.85176 3.39227
# Velocity P-wave (km/s) = 5.99456 6.75503 6.38613
#
# Compressibility (1/GPa) = 0.01839535
#
# Stress axis : x y z
#
# Youngs Moduli (GPa) = 28.91578 30.04583 83.37346
#
# Poissons Ratio (x) = 0.77461 -0.07381
# Poissons Ratio (y) = 0.74548 0.48661
# Poissons Ratio (z) = -0.02560 0.17536
#
# Static dielectric constant tensor:
#      x y z
#    x 3.105320 0.000000 0.000000 
#    y 0.000000 1.760050 0.000000 
#    z 0.000000 0.000000 1.796450 
# 
# From -- ./inp_files/12901.got.cif
#   From: 2010.05.17/outbox.cif.g08.bks.cpg/sg43_7_cif.got.tgz:12901.got - 2010.06.03 19:21:55.
