data_PCOD9371271
_publ_section_title
;
Structure prediction by ZEFSAII (Michael W. Deem and Ramdas Pophale) SiO2 
 PCOD9371271
Probable space group: F D D 2
;
_chemical_formula_sum "Si O2"
_cell_formula_units_Z 96
_cell_length_a 23.950656
_cell_length_b 10.182312
_cell_length_c 16.371275
_cell_angle_alpha 90.000000
_cell_angle_beta 90.000000
_cell_angle_gamma 90.000000
_cell_volume 3992.512799
_symmetry_space_group_name_H-M "F D D 2"
_symmetry_group_IT_number 43
_symmetry_cell_setting 'orthorhombic'
loop_
_space_group_symop_operation_xyz
x,y,z
-x,-y,z
1/4-x,1/4+y,1/4+z
1/4+x,1/4-y,1/4+z
x,1/2+y,1/2+z
-x,1/2-y,1/2+z
1/4-x,3/4+y,3/4+z
1/4+x,3/4-y,3/4+z
1/2+x,y,1/2+z
1/2-x,-y,1/2+z
3/4-x,1/4+y,3/4+z
3/4+x,1/4-y,3/4+z
1/2+x,1/2+y,z
1/2-x,1/2-y,z
3/4-x,3/4+y,1/4+z
3/4+x,3/4-y,1/4+z
loop_
_atom_site_type_symbol
_atom_site_label
_atom_site_fract_x
_atom_site_fract_y
_atom_site_fract_z
Si Si1 0.558374 0.434113 0.134940
Si Si2 0.086916 0.600491 0.790403
Si Si3 0.498167 0.301332 0.726410
Si Si4 0.338494 0.323621 0.866130
Si Si5 0.829295 0.367110 0.176359
Si Si6 0.294770 0.645605 0.640133
O O1 0.500000 0.500000 0.108709
O O2 0.586051 0.524764 0.204459
O O3 0.541126 0.302203 0.181672
O O4 0.602855 0.404267 0.065749
O O5 0.043088 0.717393 0.778965
O O6 0.067848 0.497836 0.861485
O O7 0.533103 0.379839 0.659772
O O8 0.465269 0.383164 0.793236
O O9 0.363015 0.185212 0.896205
O O10 0.332272 0.319940 0.768958
O O11 0.388805 0.422614 0.894496
O O12 0.789378 0.496725 0.174607
O O13 0.250000 0.750000 0.671280
#
# Coordination Sequence:
#
# PCOD9371271 Si02
#       6
#    16  16  16  16  16  16
#     4  10  23  43  67 105 138 187 228 290 357 418
#     4  11  22  45  74 101 145 179 240 300 350 424
#     4  11  23  45  72 100 143 189 228 304 361 419
#     4  10  23  42  70 102 141 181 247 288 367 440
#     4  10  21  42  71 101 136 187 235 299 350 434
#     4  10  22  41  70  97 144 186 235 295 366 428
#
# _framework density 24.045006999999998
#
# number of rings (size 3 to 8) (size 9 to 14) (size 15 to 20)
#    1.000    0.667    1.667    3.000    0.000    5.333 
#    6.000    0.000    3.667    0.000    0.000    0.000 
#    0.000    0.000    0.000    0.000    0.000    0.000 
#
# Total GULP energy -134296.113156 kJ/mol
# GULP energy per Si atom -5595.671382 kJ/mol
# Density = 2.399028 g / cm^3
# Si number density = 24.045007 Si / 1000 Ang^3
#
#
#
# Elastic Constant Matrix: (Units=GPa)
#
#
# Indices 1 2 3 4 5 6 
#
# 1 118.0806 38.1518 52.2977 0.0000 0.0000 0.0000
# 2 38.1518 76.1099 39.9488 0.0000 0.0000 0.0000
# 3 52.2977 39.9488 140.3418 0.0000 0.0000 0.0000
# 4 0.0000 0.0000 0.0000 16.7754 0.0000 0.0000
# 5 0.0000 0.0000 0.0000 0.0000 48.5734 0.0000
# 6 0.0000 0.0000 0.0000 0.0000 0.0000 48.3626
#
#
#
# Elastic Compliance Matrix: (Units=1/GPa)
#
#
# Indices 1 2 3 4 5 6 
#
# 1 0.011083 -0.003983 -0.002996 0.000000 0.000000 0.000000
# 2 -0.003983 0.016878 -0.003320 0.000000 0.000000 0.000000
# 3 -0.002996 -0.003320 0.009187 0.000000 0.000000 0.000000
# 4 0.000000 0.000000 0.000000 0.059611 0.000000 0.000000
# 5 0.000000 0.000000 0.000000 0.000000 0.020587 0.000000
# 6 0.000000 0.000000 0.000000 0.000000 0.000000 0.020677
#
#
# Mechanical properties :
#
#
# Convention : Reuss Voigt Hill
#
# Bulk Modulus (GPa) = 60.42511 66.14767 63.28639
# Shear Modulus (GPa) = 30.46210 36.35120 33.40665
#
# Velocity S-wave (km/s) = 3.56319 3.89240 3.73143
# Velocity P-wave (km/s) = 6.48945 6.91164 6.70387
#
# Compressibility (1/GPa) = 0.01654941
#
# Stress axis : x y z
#
# Youngs Moduli (GPa) = 90.23133 59.24844 108.84833
#
# Poissons Ratio (x) = 0.23597 0.32613
# Poissons Ratio (y) = 0.35937 0.36140
# Poissons Ratio (z) = 0.27035 0.19672
#
# Static dielectric constant tensor:
#      x y z
#    x 1.949300 0.000000 0.000000 
#    y 0.000000 1.960380 0.000000 
#    z 0.000000 0.000000 1.855650 
# 
# From -- ./inp_files/14834.got.cif
#   From: 2010.05.17/outbox.cif.g08.bks.cpg/sg43_8_cif.got.tgz:14834.got - 2010.06.03 19:21:55.
