data_PCOD9371321
_publ_section_title
;
Structure prediction by ZEFSAII (Michael W. Deem and Ramdas Pophale) SiO2 
 PCOD9371321
Probable space group: F D D 2
;
_chemical_formula_sum "Si O2"
_cell_formula_units_Z 96
_cell_length_a 16.072428
_cell_length_b 14.308778
_cell_length_c 18.704371
_cell_angle_alpha 90.000000
_cell_angle_beta 90.000000
_cell_angle_gamma 90.000000
_cell_volume 4301.571467
_symmetry_space_group_name_H-M "F D D 2"
_symmetry_group_IT_number 43
_symmetry_cell_setting 'orthorhombic'
loop_
_space_group_symop_operation_xyz
x,y,z
-x,-y,z
1/4-x,1/4+y,1/4+z
1/4+x,1/4-y,1/4+z
x,1/2+y,1/2+z
-x,1/2-y,1/2+z
1/4-x,3/4+y,3/4+z
1/4+x,3/4-y,3/4+z
1/2+x,y,1/2+z
1/2-x,-y,1/2+z
3/4-x,1/4+y,3/4+z
3/4+x,1/4-y,3/4+z
1/2+x,1/2+y,z
1/2-x,1/2-y,z
3/4-x,3/4+y,1/4+z
3/4+x,3/4-y,1/4+z
loop_
_atom_site_type_symbol
_atom_site_label
_atom_site_fract_x
_atom_site_fract_y
_atom_site_fract_z
Si Si1 0.207013 0.034913 0.396990
Si Si2 0.799347 0.899311 0.248918
Si Si3 0.472879 0.897176 0.349058
Si Si4 0.457016 0.784914 0.790377
Si Si5 0.027121 0.397176 0.088310
Si Si6 0.200655 0.399309 0.688449
O O1 0.223003 0.925959 0.384420
O O2 0.245111 0.076257 0.323640
O O3 0.249997 0.067656 0.468684
O O4 0.114504 0.071665 0.411406
O O5 0.746590 0.864065 0.182673
O O6 0.864508 0.821668 0.275959
O O7 0.835374 0.000001 0.218683
O O8 0.526996 0.824040 0.302948
O O9 0.375000 0.875000 0.343684
O O10 0.500000 0.000000 0.326663
O O11 0.495114 0.826258 0.863727
O O12 0.000000 0.500000 0.110704
O O13 0.003411 0.385936 0.004694
#
# Coordination Sequence:
#
# PCOD9371321 Si02
#       6
#    16  16  16  16  16  16
#     4  10  21  44  70 104 137 185 242 299 371 439
#     4   9  21  45  71 102 139 182 243 306 364 443
#     4  11  24  47  72 106 151 197 247 312 379 455
#     4  10  21  44  70 104 137 185 242 299 371 439
#     4  11  24  47  72 106 151 197 247 312 379 455
#     4   9  21  45  71 102 139 182 243 306 364 443
#
# _framework density 22.317423999999999
#
# number of rings (size 3 to 8) (size 9 to 14) (size 15 to 20)
#    0.000    2.000    0.000    2.000    0.000    1.333 
#   66.000    0.000    0.000    0.000    0.000    0.000 
#    0.000    0.000    0.000    0.000    0.000    0.000 
#
# Total GULP energy -133841.937122 kJ/mol
# GULP energy per Si atom -5576.747380 kJ/mol
# Density = 2.226663 g / cm^3
# Si number density = 22.317424 Si / 1000 Ang^3
#
#
#
# Elastic Constant Matrix: (Units=GPa)
#
#
# Indices 1 2 3 4 5 6 
#
# 1 78.1126 74.0986 28.7204 0.0000 0.0000 0.0000
# 2 74.0986 132.2684 -2.5426 0.0000 0.0000 0.0000
# 3 28.7204 -2.5426 120.3594 0.0000 0.0000 0.0000
# 4 0.0000 0.0000 0.0000 6.0653 0.0000 0.0000
# 5 0.0000 0.0000 0.0000 0.0000 39.1748 0.0000
# 6 0.0000 0.0000 0.0000 0.0000 0.0000 38.5457
#
#
#
# Elastic Compliance Matrix: (Units=1/GPa)
#
#
# Indices 1 2 3 4 5 6 
#
# 1 0.034425 -0.019451 -0.008626 0.000000 0.000000 0.000000
# 2 -0.019451 0.018554 0.005033 0.000000 0.000000 0.000000
# 3 -0.008626 0.005033 0.010473 0.000000 0.000000 0.000000
# 4 0.000000 0.000000 0.000000 0.164873 0.000000 0.000000
# 5 0.000000 0.000000 0.000000 0.000000 0.025527 0.000000
# 6 0.000000 0.000000 0.000000 0.000000 0.000000 0.025943
#
#
# Mechanical properties :
#
#
# Convention : Reuss Voigt Hill
#
# Bulk Modulus (GPa) = 57.58526 59.03257 58.30892
# Shear Modulus (GPa) = 15.07521 32.12143 23.59832
#
# Velocity S-wave (km/s) = 2.60184 3.79792 3.25529
# Velocity P-wave (km/s) = 5.90635 6.76321 6.34925
#
# Compressibility (1/GPa) = 0.01736555
#
# Stress axis : x y z
#
# Youngs Moduli (GPa) = 29.04846 53.89665 95.48340
#
# Poissons Ratio (x) = 1.04836 0.82360
# Poissons Ratio (y) = 0.56503 -0.48061
# Poissons Ratio (z) = 0.25056 -0.27129
#
# Static dielectric constant tensor:
#      x y z
#    x 1.896120 0.000000 0.000000 
#    y 0.000000 1.963090 0.000000 
#    z 0.000000 0.000000 1.800550 
# 
# From -- ./inp_files/17571.got.cif
#   From: 2010.05.17/outbox.cif.g08.bks.cpg/sg43_9_cif.got.tgz:17571.got - 2010.06.03 19:21:55.
