data_PCOD9371297
_publ_section_title
;
Structure prediction by ZEFSAII (Michael W. Deem and Ramdas Pophale) SiO2 
 PCOD9371297
Probable space group: F D D 2
;
_chemical_formula_sum "Si O2"
_cell_formula_units_Z 72
_cell_length_a 22.548957
_cell_length_b 5.742155
_cell_length_c 23.614853
_cell_angle_alpha 90.000000
_cell_angle_beta 90.000000
_cell_angle_gamma 90.000000
_cell_volume 3057.641866
_symmetry_space_group_name_H-M "F D D 2"
_symmetry_group_IT_number 43
_symmetry_cell_setting 'orthorhombic'
loop_
_space_group_symop_operation_xyz
x,y,z
-x,-y,z
1/4-x,1/4+y,1/4+z
1/4+x,1/4-y,1/4+z
x,1/2+y,1/2+z
-x,1/2-y,1/2+z
1/4-x,3/4+y,3/4+z
1/4+x,3/4-y,3/4+z
1/2+x,y,1/2+z
1/2-x,-y,1/2+z
3/4-x,1/4+y,3/4+z
3/4+x,1/4-y,3/4+z
1/2+x,1/2+y,z
1/2-x,1/2-y,z
3/4-x,3/4+y,1/4+z
3/4+x,3/4-y,1/4+z
loop_
_atom_site_type_symbol
_atom_site_label
_atom_site_fract_x
_atom_site_fract_y
_atom_site_fract_z
Si Si1 0.665913 0.133577 0.870890
Si Si2 0.800920 0.447271 0.442312
Si Si3 0.384414 0.095167 0.984762
Si Si4 0.940342 0.991606 0.301114
Si Si5 0.250000 0.750000 0.304786
O O1 0.694096 0.379117 0.889321
O O2 0.612528 0.156029 0.827660
O O3 0.632599 0.060276 0.929488
O O4 0.709438 0.938163 0.841391
O O5 0.750000 0.250000 0.439352
O O6 0.863881 0.336946 0.457759
O O7 0.788076 0.594679 0.497508
O O8 0.339755 0.985375 0.032167
O O9 0.449012 0.102684 0.012887
O O10 0.000000 0.000000 0.338479
#
# Coordination Sequence:
#
# PCOD9371297 Si02
#       5
#    16  16  16  16   8
#     4  10  25  44  75 111 145 202 253 315 394 455
#     4  11  23  45  72 105 148 195 252 314 380 467
#     4  10  23  45  71 108 146 194 252 316 372 456
#     4  10  21  43  71 103 145 189 251 314 375 445
#     4  10  24  50  78 114 158 198 262 324 382 462
#
# _framework density 23.547557000000001
#
# number of rings (size 3 to 8) (size 9 to 14) (size 15 to 20)
#    0.000    1.778    2.222    0.000    3.111    3.556 
#    4.000   11.111    0.000    0.000    0.000    0.000 
#    0.000    0.000    0.000    0.000    0.000    0.000 
#
# Total GULP energy -100203.296662 kJ/mol
# GULP energy per Si atom -5566.849815 kJ/mol
# Density = 2.349396 g / cm^3
# Si number density = 23.547557 Si / 1000 Ang^3
#
#
#
# Elastic Constant Matrix: (Units=GPa)
#
#
# Indices 1 2 3 4 5 6 
#
# 1 214.6450 74.7230 78.9721 -0.0004 0.0000 0.0001
# 2 74.7230 121.9316 49.1424 -0.0032 0.0001 0.0005
# 3 78.9721 49.1424 99.3741 -0.0004 0.0000 0.0003
# 4 -0.0004 -0.0032 -0.0004 -30.2985 0.0002 0.0004
# 5 0.0000 0.0001 0.0000 0.0002 17.4609 -0.0001
# 6 0.0001 0.0005 0.0003 0.0004 -0.0001 34.1851
#
#
#
# Elastic Compliance Matrix: (Units=1/GPa)
#
#
# Indices 1 2 3 4 5 6 
#
# 1 0.007202 -0.002631 -0.004422 0.000000 0.000000 0.000000
# 2 -0.002631 0.011204 -0.003450 -0.000001 0.000000 0.000000
# 3 -0.004422 -0.003450 0.015283 0.000000 0.000000 0.000000
# 4 0.000000 -0.000001 0.000000 -0.033005 0.000000 0.000000
# 5 0.000000 0.000000 0.000000 0.000000 0.057271 0.000000
# 6 0.000000 0.000000 0.000000 0.000000 0.000000 0.029253
#
#
# Mechanical properties :
#
#
# Convention : Reuss Voigt Hill
#
# Bulk Modulus (GPa) = 78.84452 93.51397 86.17925
# Shear Modulus (GPa) = 44.46771 19.81036 32.13903
#
# Velocity S-wave (km/s) = 4.35031 2.90365 3.69840
# Velocity P-wave (km/s) = 7.66742 7.14427 7.41047
#
# Compressibility (1/GPa) = 0.01268319
#
# Stress axis : x y z
#
# Youngs Moduli (GPa) = 138.85403 89.25280 65.43182
#
# Poissons Ratio (x) = 0.23484 0.28934
# Poissons Ratio (y) = 0.36536 0.22572
# Poissons Ratio (z) = 0.61402 0.30789
#
# Static dielectric constant tensor:
#      x y z
#    x 2.092020 0.000000 0.000000 
#    y 0.000000 2.068760 0.000000 
#    z 0.000000 0.000000 1.957730 
# 
# From -- ./inp_files/23431.got.cif
#   From: 2010.05.17/outbox.cif.g08.bks.cpg/sg43_12_cif.got.tgz:23431.got - 2010.06.03 19:21:55.
