data_PCOD9371592
_publ_section_title
;
Structure prediction by ZEFSAII (Michael W. Deem and Ramdas Pophale) SiO2 
 PCOD9371592
Probable space group: F D D 2
;
_chemical_formula_sum "Si O2"
_cell_formula_units_Z 64
_cell_length_a 20.608575
_cell_length_b 26.311951
_cell_length_c 5.032185
_cell_angle_alpha 90.000000
_cell_angle_beta 90.000000
_cell_angle_gamma 90.000000
_cell_volume 2728.711453
_symmetry_space_group_name_H-M "F D D 2"
_symmetry_group_IT_number 43
_symmetry_cell_setting 'orthorhombic'
loop_
_space_group_symop_operation_xyz
x,y,z
-x,-y,z
1/4-x,1/4+y,1/4+z
1/4+x,1/4-y,1/4+z
x,1/2+y,1/2+z
-x,1/2-y,1/2+z
1/4-x,3/4+y,3/4+z
1/4+x,3/4-y,3/4+z
1/2+x,y,1/2+z
1/2-x,-y,1/2+z
3/4-x,1/4+y,3/4+z
3/4+x,1/4-y,3/4+z
1/2+x,1/2+y,z
1/2-x,1/2-y,z
3/4-x,3/4+y,1/4+z
3/4+x,3/4-y,1/4+z
loop_
_atom_site_type_symbol
_atom_site_label
_atom_site_fract_x
_atom_site_fract_y
_atom_site_fract_z
Si Si1 0.962359 0.424648 0.949380
Si Si2 0.348410 0.779834 0.226279
Si Si3 0.219163 0.519627 0.829698
Si Si4 0.555027 0.641732 0.962236
O O1 0.931168 0.399666 0.688220
O O2 0.929597 0.475481 0.069614
O O3 0.957549 0.383679 0.179929
O O4 0.035791 0.440123 0.873925
O O5 0.401606 0.758247 0.018610
O O6 0.386404 0.818065 0.421516
O O7 0.268991 0.489575 0.640888
O O8 0.238986 0.577375 0.780882
#
# Coordination Sequence:
#
# PCOD9371592 Si02
#       4
#    16  16  16  16
#     4  11  27  44  71 108 139 189 228 297 355 412
#     4  10  26  47  70 105 148 175 242 296 346 426
#     4  10  22  42  70  98 134 180 227 284 345 411
#     4  11  25  44  73 104 139 190 234 278 364 425
#
# _framework density 23.454295999999999
#
# number of rings (size 3 to 8) (size 9 to 14) (size 15 to 20)
#    0.000    1.500    0.000    3.000    7.000   14.000 
#    0.000    0.000    0.000    0.000    0.000    0.000 
#    0.000    0.000    0.000    0.000    0.000    0.000 
#
# Total GULP energy -89222.155888 kJ/mol
# GULP energy per Si atom -5576.384743 kJ/mol
# Density = 2.340091 g / cm^3
# Si number density = 23.454296 Si / 1000 Ang^3
#
#
#
# Elastic Constant Matrix: (Units=GPa)
#
#
# Indices 1 2 3 4 5 6 
#
# 1 113.5981 58.1961 13.0887 -0.0351 0.0295 0.4048
# 2 58.1961 118.9847 29.8089 -0.0778 -0.0062 0.2183
# 3 13.0887 29.8089 44.7425 -0.0825 -0.0132 0.3005
# 4 -0.0351 -0.0778 -0.0825 11.2270 0.0911 0.0951
# 5 0.0295 -0.0062 -0.0132 0.0911 14.3398 -0.4823
# 6 0.4048 0.2183 0.3005 0.0951 -0.4823 -25.2615
#
#
#
# Elastic Compliance Matrix: (Units=1/GPa)
#
#
# Indices 1 2 3 4 5 6 
#
# 1 0.011754 -0.005867 0.000469 -0.000002 -0.000021 0.000144
# 2 -0.005867 0.013017 -0.006955 0.000021 0.000009 -0.000064
# 3 0.000469 -0.006955 0.026845 0.000148 0.000029 0.000267
# 4 -0.000002 0.000021 0.000148 0.089074 -0.000554 0.000348
# 5 -0.000021 0.000009 0.000029 -0.000554 0.069695 -0.001333
# 6 0.000144 -0.000064 0.000267 0.000348 -0.001333 -0.039554
#
#
# Mechanical properties :
#
#
# Convention : Reuss Voigt Hill
#
# Bulk Modulus (GPa) = 37.16096 53.27918 45.22007
# Shear Modulus (GPa) = 24.44916 11.80982 18.12949
#
# Velocity S-wave (km/s) = 3.23215 2.24637 2.78325
# Velocity P-wave (km/s) = 5.45962 5.43081 5.44524
#
# Compressibility (1/GPa) = 0.02690996
#
# Stress axis : x y z
#
# Youngs Moduli (GPa) = 85.07813 76.82546 37.25056
#
# Poissons Ratio (x) = 0.45071 -0.01748
# Poissons Ratio (y) = 0.49913 0.25909
# Poissons Ratio (z) = -0.03992 0.53435
#
# Static dielectric constant tensor:
#      x y z
#    x 2.013750 0.000050 0.000090 
#    y 0.000050 1.889900 -0.000060 
#    z 0.000090 -0.000060 1.825650 
# 
# From -- ./inp_files/646.got.cif
#   From: 2010.05.17/outbox.cif.g08.bks.cpg/sg43_1_cif.got.tgz:646.got - 2010.06.03 19:21:55.
