data_PCOD9371623
_publ_section_title
;
Structure prediction by ZEFSAII (Michael W. Deem and Ramdas Pophale) SiO2 
 PCOD9371623
Probable space group: F D D 2
;
_chemical_formula_sum "Si O2"
_cell_formula_units_Z 112
_cell_length_a 13.397725
_cell_length_b 23.660713
_cell_length_c 14.136435
_cell_angle_alpha 90.000000
_cell_angle_beta 90.000000
_cell_angle_gamma 90.000000
_cell_volume 4481.246023
_symmetry_space_group_name_H-M "F D D 2"
_symmetry_group_IT_number 43
_symmetry_cell_setting 'orthorhombic'
loop_
_space_group_symop_operation_xyz
x,y,z
-x,-y,z
1/4-x,1/4+y,1/4+z
1/4+x,1/4-y,1/4+z
x,1/2+y,1/2+z
-x,1/2-y,1/2+z
1/4-x,3/4+y,3/4+z
1/4+x,3/4-y,3/4+z
1/2+x,y,1/2+z
1/2-x,-y,1/2+z
3/4-x,1/4+y,3/4+z
3/4+x,1/4-y,3/4+z
1/2+x,1/2+y,z
1/2-x,1/2-y,z
3/4-x,3/4+y,1/4+z
3/4+x,3/4-y,1/4+z
loop_
_atom_site_type_symbol
_atom_site_label
_atom_site_fract_x
_atom_site_fract_y
_atom_site_fract_z
Si Si1 0.368526 0.564280 0.844230
Si Si2 0.500000 0.000000 0.215319
Si Si3 0.326228 0.062102 0.906472
Si Si4 0.975935 0.128981 0.984098
Si Si5 0.389419 0.212745 0.245046
Si Si6 0.190140 0.073821 0.714235
Si Si7 0.750000 0.750000 0.570729
Si Si8 0.094128 0.950883 0.145348
O O1 0.460456 0.551977 0.777211
O O2 0.272297 0.564451 0.776491
O O3 0.396027 0.621005 0.901829
O O4 0.367797 0.514831 0.920998
O O5 0.396083 0.971282 0.182617
O O6 0.255195 0.051955 0.996484
O O7 0.242425 0.072738 0.821652
O O8 0.395564 0.115500 0.932879
O O9 0.400746 0.008882 0.884456
O O10 0.071366 0.089133 0.960331
O O11 0.934907 0.099413 0.077275
O O12 0.345630 0.239093 0.340578
O O13 0.289405 0.059482 0.659151
O O14 0.718420 0.701971 0.493064
#
# Coordination Sequence:
#
# PCOD9371623 Si02
#       8
#    16   8  16  16  16  16   8  16
#     4  11  22  38  66  95 129 175 228 290 344 418
#     4  12  22  45  65  90 138 186 232 288 356 423
#     4  11  25  44  71 102 144 186 243 291 374 430
#     4  11  22  38  67  99 135 172 234 287 351 416
#     4  11  21  42  66  97 132 181 230 296 345 428
#     4  11  26  43  68 102 143 188 238 298 359 446
#     4  10  22  43  71  96 142 190 224 298 354 427
#     4  10  22  43  66  98 139 181 234 291 350 421
#
# _framework density 24.993048999999999
#
# number of rings (size 3 to 8) (size 9 to 14) (size 15 to 20)
#    0.000    1.143    4.286    1.714    0.000   10.286 
#    0.000    0.000    0.000    0.000    0.000    0.000 
#    0.000    0.000    0.000    0.000    0.000    0.000 
#
# Total GULP energy -155954.957103 kJ/mol
# GULP energy per Si atom -5569.819897 kJ/mol
# Density = 2.493616 g / cm^3
# Si number density = 24.993049 Si / 1000 Ang^3
#
#
#
# Elastic Constant Matrix: (Units=GPa)
#
#
# Indices 1 2 3 4 5 6 
#
# 1 160.3594 48.5228 33.9238 0.0000 0.0000 0.0000
# 2 48.5228 67.4518 15.3428 0.0000 0.0000 0.0000
# 3 33.9238 15.3428 28.1406 0.0000 0.0000 0.0000
# 4 0.0000 0.0000 0.0000 18.5489 0.0000 0.0000
# 5 0.0000 0.0000 0.0000 0.0000 35.1586 0.0000
# 6 0.0000 0.0000 0.0000 0.0000 0.0000 55.5554
#
#
#
# Elastic Compliance Matrix: (Units=1/GPa)
#
#
# Indices 1 2 3 4 5 6 
#
# 1 0.009597 -0.004877 -0.008910 0.000000 0.000000 0.000000
# 2 -0.004877 0.019403 -0.004700 0.000000 0.000000 0.000000
# 3 -0.008910 -0.004700 0.048839 0.000000 0.000000 0.000000
# 4 0.000000 0.000000 0.000000 0.053912 0.000000 0.000000
# 5 0.000000 0.000000 0.000000 0.000000 0.028443 0.000000
# 6 0.000000 0.000000 0.000000 0.000000 0.000000 0.018000
#
#
# Mechanical properties :
#
#
# Convention : Reuss Voigt Hill
#
# Bulk Modulus (GPa) = 24.47041 50.17006 37.32023
# Shear Modulus (GPa) = 21.85442 32.39673 27.12557
#
# Velocity S-wave (km/s) = 2.96027 3.60422 3.29800
# Velocity P-wave (km/s) = 4.63642 6.11864 5.42836
#
# Compressibility (1/GPa) = 0.04086569
#
# Stress axis : x y z
#
# Youngs Moduli (GPa) = 104.20462 51.53941 20.47544
#
# Poissons Ratio (x) = 0.25135 0.18243
# Poissons Ratio (y) = 0.50818 0.09623
# Poissons Ratio (z) = 0.92844 0.24222
#
# Static dielectric constant tensor:
#      x y z
#    x 2.055990 0.000000 0.000000 
#    y 0.000000 2.081310 0.000000 
#    z 0.000000 0.000000 2.047090 
# 
# From -- ./inp_files/10346.got.cif
#   From: 2010.05.17/outbox.cif.g08.bks.cpg/sg43_6_cif.got.tgz:10346.got - 2010.06.03 19:21:55.
