data_PCOD9371206
_publ_section_title
;
Structure prediction by ZEFSAII (Michael W. Deem and Ramdas Pophale) SiO2 
 PCOD9371206
Probable space group: F D D 2
;
_chemical_formula_sum "Si O2"
_cell_formula_units_Z 72
_cell_length_a 9.600406
_cell_length_b 11.589422
_cell_length_c 26.279351
_cell_angle_alpha 90.000000
_cell_angle_beta 90.000000
_cell_angle_gamma 90.000000
_cell_volume 2923.923543
_symmetry_space_group_name_H-M "F D D 2"
_symmetry_group_IT_number 43
_symmetry_cell_setting 'orthorhombic'
loop_
_space_group_symop_operation_xyz
x,y,z
-x,-y,z
1/4-x,1/4+y,1/4+z
1/4+x,1/4-y,1/4+z
x,1/2+y,1/2+z
-x,1/2-y,1/2+z
1/4-x,3/4+y,3/4+z
1/4+x,3/4-y,3/4+z
1/2+x,y,1/2+z
1/2-x,-y,1/2+z
3/4-x,1/4+y,3/4+z
3/4+x,1/4-y,3/4+z
1/2+x,1/2+y,z
1/2-x,1/2-y,z
3/4-x,3/4+y,1/4+z
3/4+x,3/4-y,1/4+z
loop_
_atom_site_type_symbol
_atom_site_label
_atom_site_fract_x
_atom_site_fract_y
_atom_site_fract_z
Si Si1 0.250000 0.250000 0.567420
Si Si2 0.683433 0.487682 0.221439
Si Si3 0.731168 0.368230 0.366270
Si Si4 0.319359 0.628965 0.520746
Si Si5 0.696551 0.448075 0.947620
O O1 0.123341 0.275046 0.528094
O O2 0.322160 0.350149 0.600251
O O3 0.820569 0.413550 0.227161
O O4 0.686292 0.612450 0.195023
O O5 0.571116 0.396545 0.200523
O O6 0.750000 0.250000 0.396494
O O7 0.834657 0.346229 0.318444
O O8 0.784225 0.476026 0.398186
O O9 0.250000 0.750000 0.534281
O O10 0.220357 0.530615 0.496992
#
# Coordination Sequence:
#
# PCOD9371206 Si02
#       5
#     8  16  16  16  16
#     4   8  18  36  64  90 118 170 218 264 330 388
#     4   9  20  42  66  89 128 169 223 271 329 407
#     4  11  22  41  65  97 129 171 228 270 327 410
#     4  11  23  42  65  94 132 176 214 280 342 392
#     4  10  21  41  66  95 124 175 220 271 332 393
#
# _framework density 24.624447
#
# number of rings (size 3 to 8) (size 9 to 14) (size 15 to 20)
#    0.000    2.222    0.000    5.333    3.111    0.889 
#    8.000   13.333    0.000    0.000    0.000    0.000 
#    0.000    0.000    0.000    0.000    0.000    0.000 
#
# Total GULP energy -100485.905898 kJ/mol
# GULP energy per Si atom -5582.550328 kJ/mol
# Density = 2.456840 g / cm^3
# Si number density = 24.624447 Si / 1000 Ang^3
#
#
#
# Elastic Constant Matrix: (Units=GPa)
#
#
# Indices 1 2 3 4 5 6 
#
# 1 49.2700 15.6219 0.9877 0.0000 0.0000 0.0000
# 2 15.6219 174.9184 30.7617 0.0000 0.0000 0.0000
# 3 0.9877 30.7617 77.0570 0.0000 0.0000 0.0000
# 4 0.0000 0.0000 0.0000 35.2884 0.0000 0.0000
# 5 0.0000 0.0000 0.0000 0.0000 27.8080 0.0000
# 6 0.0000 0.0000 0.0000 0.0000 0.0000 39.2749
#
#
#
# Elastic Compliance Matrix: (Units=1/GPa)
#
#
# Indices 1 2 3 4 5 6 
#
# 1 0.020907 -0.001957 0.000513 0.000000 0.000000 0.000000
# 2 -0.001957 0.006332 -0.002503 0.000000 0.000000 0.000000
# 3 0.000513 -0.002503 0.013970 0.000000 0.000000 0.000000
# 4 0.000000 0.000000 0.000000 0.028338 0.000000 0.000000
# 5 0.000000 0.000000 0.000000 0.000000 0.035961 0.000000
# 6 0.000000 0.000000 0.000000 0.000000 0.000000 0.025462
#
#
# Mechanical properties :
#
#
# Convention : Reuss Voigt Hill
#
# Bulk Modulus (GPa) = 30.01637 43.99867 37.00752
# Shear Modulus (GPa) = 33.34063 37.39920 35.36991
#
# Velocity S-wave (km/s) = 3.68362 3.90138 3.79406
# Velocity P-wave (km/s) = 5.50529 6.18070 5.85275
#
# Compressibility (1/GPa) = 0.03331516
#
# Stress axis : x y z
#
# Youngs Moduli (GPa) = 47.83162 157.93063 71.58249
#
# Poissons Ratio (x) = 0.30914 -0.03675
# Poissons Ratio (y) = 0.09363 0.17915
# Poissons Ratio (z) = -0.02456 0.39524
#
# Static dielectric constant tensor:
#      x y z
#    x 2.192260 0.000000 0.000000 
#    y 0.000000 1.964250 0.000000 
#    z 0.000000 0.000000 2.035720 
# 
# From -- ./inp_files/28348.got.cif
#   From: 2010.05.17/outbox.cif.g08.bks.cpg/sg43_15_cif.got.tgz:28348.got - 2010.06.03 19:21:55.
