data_PCOD9371604
_publ_section_title
;
Structure prediction by ZEFSAII (Michael W. Deem and Ramdas Pophale) SiO2 
 PCOD9371604
Probable space group: F D D 2
;
_chemical_formula_sum "Si O2"
_cell_formula_units_Z 96
_cell_length_a 16.264364
_cell_length_b 23.719867
_cell_length_c 10.333236
_cell_angle_alpha 90.000000
_cell_angle_beta 90.000000
_cell_angle_gamma 90.000000
_cell_volume 3986.444143
_symmetry_space_group_name_H-M "F D D 2"
_symmetry_group_IT_number 43
_symmetry_cell_setting 'orthorhombic'
loop_
_space_group_symop_operation_xyz
x,y,z
-x,-y,z
1/4-x,1/4+y,1/4+z
1/4+x,1/4-y,1/4+z
x,1/2+y,1/2+z
-x,1/2-y,1/2+z
1/4-x,3/4+y,3/4+z
1/4+x,3/4-y,3/4+z
1/2+x,y,1/2+z
1/2-x,-y,1/2+z
3/4-x,1/4+y,3/4+z
3/4+x,1/4-y,3/4+z
1/2+x,1/2+y,z
1/2-x,1/2-y,z
3/4-x,3/4+y,1/4+z
3/4+x,3/4-y,1/4+z
loop_
_atom_site_type_symbol
_atom_site_label
_atom_site_fract_x
_atom_site_fract_y
_atom_site_fract_z
Si Si1 0.466210 0.604187 0.322340
Si Si2 0.000000 0.000000 0.511230
Si Si3 0.607420 0.788482 0.950481
Si Si4 0.643301 0.651421 0.303078
Si Si5 0.510270 0.680954 0.931674
Si Si6 0.000000 0.500000 0.517280
Si Si7 0.622227 0.330643 0.734135
O O1 0.488486 0.553959 0.419161
O O2 0.412746 0.650442 0.395597
O O3 0.548536 0.638604 0.281540
O O4 0.414517 0.582390 0.199982
O O5 0.923916 0.989510 0.606813
O O6 0.530935 0.745777 0.948593
O O7 0.632501 0.799226 0.097897
O O8 0.690973 0.593296 0.276620
O O9 0.689152 0.699160 0.216935
O O10 0.468995 0.669664 0.791253
O O11 0.589460 0.642230 0.963010
O O12 0.930605 0.457990 0.576655
#
# Coordination Sequence:
#
# PCOD9371604 Si02
#       7
#    16   8  16  16  16   8  16
#     4  12  26  47  76 106 154 197 255 309 391 454
#     4  12  28  52  72 116 150 208 254 328 378 480
#     4  12  28  46  76 105 156 193 259 310 395 452
#     4  11  24  46  73 112 145 203 249 322 376 472
#     4  11  27  46  75 110 153 197 261 315 391 455
#     4  10  22  42  74 100 148 184 258 302 388 436
#     4  11  26  45  74 107 148 203 246 322 377 467
#
# _framework density 24.081612
#
# number of rings (size 3 to 8) (size 9 to 14) (size 15 to 20)
#    0.000    0.667    1.667    5.000   14.000    2.667 
#    0.000    0.000    0.000    0.000    0.000    0.000 
#    0.000    0.000    0.000    0.000    0.000    0.000 
#
# Total GULP energy -134101.285813 kJ/mol
# GULP energy per Si atom -5587.553576 kJ/mol
# Density = 2.402680 g / cm^3
# Si number density = 24.081612 Si / 1000 Ang^3
#
#
#
# Elastic Constant Matrix: (Units=GPa)
#
#
# Indices 1 2 3 4 5 6 
#
# 1 60.4895 27.0296 14.9349 0.0000 0.0000 0.0000
# 2 27.0296 111.4286 29.5124 0.0000 0.0000 0.0000
# 3 14.9349 29.5124 98.6031 0.0000 0.0000 0.0000
# 4 0.0000 0.0000 0.0000 15.5084 0.0000 0.0000
# 5 0.0000 0.0000 0.0000 0.0000 39.1144 0.0000
# 6 0.0000 0.0000 0.0000 0.0000 0.0000 44.0268
#
#
#
# Elastic Compliance Matrix: (Units=1/GPa)
#
#
# Indices 1 2 3 4 5 6 
#
# 1 0.018773 -0.004128 -0.001608 0.000000 0.000000 0.000000
# 2 -0.004128 0.010655 -0.002564 0.000000 0.000000 0.000000
# 3 -0.001608 -0.002564 0.011153 0.000000 0.000000 0.000000
# 4 0.000000 0.000000 0.000000 0.064481 0.000000 0.000000
# 5 0.000000 0.000000 0.000000 0.000000 0.025566 0.000000
# 6 0.000000 0.000000 0.000000 0.000000 0.000000 0.022713
#
#
# Mechanical properties :
#
#
# Convention : Reuss Voigt Hill
#
# Bulk Modulus (GPa) = 41.69942 45.94167 43.82055
# Shear Modulus (GPa) = 28.10018 32.99954 30.54986
#
# Velocity S-wave (km/s) = 3.41966 3.70580 3.56560
# Velocity P-wave (km/s) = 5.73982 6.11797 5.93191
#
# Compressibility (1/GPa) = 0.02398115
#
# Stress axis : x y z
#
# Youngs Moduli (GPa) = 53.26686 93.85500 89.66544
#
# Poissons Ratio (x) = 0.38744 0.14418
# Poissons Ratio (y) = 0.21989 0.22988
# Poissons Ratio (z) = 0.08565 0.24062
#
# Static dielectric constant tensor:
#      x y z
#    x 1.934730 0.000000 0.000000 
#    y 0.000000 1.901160 0.000000 
#    z 0.000000 0.000000 2.021810 
# 
# From -- ./inp_files/6698.got.cif
#   From: 2010.05.17/outbox.cif.g08.bks.cpg/sg43_4_cif.got.tgz:6698.got - 2010.06.03 19:21:55.
