data_PCOD9371233
_publ_section_title
;
Structure prediction by ZEFSAII (Michael W. Deem and Ramdas Pophale) SiO2 
 PCOD9371233
Probable space group: F D D 2
;
_chemical_formula_sum "Si O2"
_cell_formula_units_Z 120
_cell_length_a 15.088046
_cell_length_b 23.051215
_cell_length_c 15.494638
_cell_angle_alpha 90.000000
_cell_angle_beta 90.000000
_cell_angle_gamma 90.000000
_cell_volume 5389.000889
_symmetry_space_group_name_H-M "F D D 2"
_symmetry_group_IT_number 43
_symmetry_cell_setting 'orthorhombic'
loop_
_space_group_symop_operation_xyz
x,y,z
-x,-y,z
1/4-x,1/4+y,1/4+z
1/4+x,1/4-y,1/4+z
x,1/2+y,1/2+z
-x,1/2-y,1/2+z
1/4-x,3/4+y,3/4+z
1/4+x,3/4-y,3/4+z
1/2+x,y,1/2+z
1/2-x,-y,1/2+z
3/4-x,1/4+y,3/4+z
3/4+x,1/4-y,3/4+z
1/2+x,1/2+y,z
1/2-x,1/2-y,z
3/4-x,3/4+y,1/4+z
3/4+x,3/4-y,1/4+z
loop_
_atom_site_type_symbol
_atom_site_label
_atom_site_fract_x
_atom_site_fract_y
_atom_site_fract_z
Si Si1 0.500000 0.000000 0.009591
Si Si2 0.400094 0.890154 0.602294
Si Si3 0.929646 0.754606 0.356114
Si Si4 0.579657 0.851746 0.168534
Si Si5 0.372270 0.599060 0.488702
Si Si6 0.846183 0.424218 0.088500
Si Si7 0.298965 0.310102 0.477159
Si Si8 0.650439 0.733890 0.172567
O O1 0.561391 0.046069 0.061774
O O2 0.427652 0.041228 0.961839
O O3 0.397165 0.888767 0.498565
O O4 0.486345 0.914871 0.650461
O O5 0.377772 0.827507 0.637275
O O6 0.324452 0.936923 0.626649
O O7 0.890936 0.789569 0.435876
O O8 0.863149 0.764510 0.275741
O O9 0.022568 0.777271 0.323605
O O10 0.480399 0.852673 0.208285
O O11 0.590913 0.785853 0.137029
O O12 0.608069 0.892485 0.089881
O O13 0.409532 0.654347 0.437188
O O14 0.820432 0.365056 0.037725
O O15 0.250000 0.250000 0.508764
O O16 0.750000 0.750000 0.149499
#
# Coordination Sequence:
#
# PCOD9371233 Si02
#       8
#     8  16  16  16  16  16  16  16
#     4  12  26  48  78  98 152 196 246 318 370 444
#     4  10  21  42  70 107 139 185 231 309 366 434
#     4  10  21  41  71 102 142 178 237 302 371 437
#     4  11  25  47  72 103 152 187 251 300 370 453
#     4  12  27  49  70 107 145 198 247 304 371 451
#     4  12  25  47  73 103 146 196 244 301 377 454
#     4  10  22  43  72 108 141 181 244 308 377 445
#     4  11  21  40  70 103 141 188 237 299 363 439
#
# _framework density 22.267578
#
# number of rings (size 3 to 8) (size 9 to 14) (size 15 to 20)
#    0.000    1.067    2.667    5.200    0.933    1.067 
#    2.400    2.667    0.000    0.000    0.000    0.000 
#    0.000    0.000    0.000    0.000    0.000    0.000 
#
# Total GULP energy -167455.708730 kJ/mol
# GULP energy per Si atom -5581.856958 kJ/mol
# Density = 2.221690 g / cm^3
# Si number density = 22.267578 Si / 1000 Ang^3
#
#
#
# Elastic Constant Matrix: (Units=GPa)
#
#
# Indices 1 2 3 4 5 6 
#
# 1 113.5610 49.6306 38.3192 0.0000 0.0000 0.0000
# 2 49.6306 128.7297 21.5972 0.0000 0.0000 0.0000
# 3 38.3192 21.5972 68.0847 0.0000 0.0000 0.0000
# 4 0.0000 0.0000 0.0000 36.5253 0.0000 0.0000
# 5 0.0000 0.0000 0.0000 0.0000 2.9094 0.0000
# 6 0.0000 0.0000 0.0000 0.0000 0.0000 32.3511
#
#
#
# Elastic Compliance Matrix: (Units=1/GPa)
#
#
# Indices 1 2 3 4 5 6 
#
# 1 0.012427 -0.003821 -0.005782 0.000000 0.000000 0.000000
# 2 -0.003821 0.009380 -0.000825 0.000000 0.000000 0.000000
# 3 -0.005782 -0.000825 0.018203 0.000000 0.000000 0.000000
# 4 0.000000 0.000000 0.000000 0.027378 0.000000 0.000000
# 5 0.000000 0.000000 0.000000 0.000000 0.343718 0.000000
# 6 0.000000 0.000000 0.000000 0.000000 0.000000 0.030911
#
#
# Mechanical properties :
#
#
# Convention : Reuss Voigt Hill
#
# Bulk Modulus (GPa) = 52.20733 58.82994 55.51863
# Shear Modulus (GPa) = 10.65513 27.74570 19.20041
#
# Velocity S-wave (km/s) = 2.18985 3.53372 2.93961
# Velocity P-wave (km/s) = 5.46720 6.56708 6.04222
#
# Compressibility (1/GPa) = 0.01915440
#
# Stress axis : x y z
#
# Youngs Moduli (GPa) = 80.47134 106.61267 54.93476
#
# Poissons Ratio (x) = 0.40737 0.31763
# Poissons Ratio (y) = 0.30748 0.04531
# Poissons Ratio (z) = 0.46528 0.08794
#
# Static dielectric constant tensor:
#      x y z
#    x 1.835140 0.000000 0.000000 
#    y 0.000000 1.844670 0.000000 
#    z 0.000000 0.000000 1.834110 
# 
# From -- ./inp_files/13963.got.cif
#   From: 2010.05.17/outbox.cif.g08.bks.cpg/sg43_7_cif.got.tgz:13963.got - 2010.06.03 19:21:55.
