data_PCOD9371400
_publ_section_title
;
Structure prediction by ZEFSAII (Michael W. Deem and Ramdas Pophale) SiO2 
 PCOD9371400
Probable space group: F D D 2
;
_chemical_formula_sum "Si O2"
_cell_formula_units_Z 64
_cell_length_a 26.109538
_cell_length_b 7.018507
_cell_length_c 16.210438
_cell_angle_alpha 90.000000
_cell_angle_beta 90.000000
_cell_angle_gamma 90.000000
_cell_volume 2970.562362
_symmetry_space_group_name_H-M "F D D 2"
_symmetry_group_IT_number 43
_symmetry_cell_setting 'orthorhombic'
loop_
_space_group_symop_operation_xyz
x,y,z
-x,-y,z
1/4-x,1/4+y,1/4+z
1/4+x,1/4-y,1/4+z
x,1/2+y,1/2+z
-x,1/2-y,1/2+z
1/4-x,3/4+y,3/4+z
1/4+x,3/4-y,3/4+z
1/2+x,y,1/2+z
1/2-x,-y,1/2+z
3/4-x,1/4+y,3/4+z
3/4+x,1/4-y,3/4+z
1/2+x,1/2+y,z
1/2-x,1/2-y,z
3/4-x,3/4+y,1/4+z
3/4+x,3/4-y,1/4+z
loop_
_atom_site_type_symbol
_atom_site_label
_atom_site_fract_x
_atom_site_fract_y
_atom_site_fract_z
Si Si1 0.858712 0.186022 0.768240
Si Si2 0.808206 0.313866 0.292438
Si Si3 0.891289 0.063977 0.363496
Si Si4 0.691794 0.813866 0.089298
O O1 0.875000 0.374999 0.815868
O O2 0.909875 0.058761 0.774524
O O3 0.835613 0.226202 0.678020
O O4 0.816694 0.039801 0.807249
O O5 0.750000 0.250000 0.289230
O O6 0.840125 0.191238 0.357212
O O7 0.835612 0.273797 0.203716
O O8 0.933306 0.210199 0.324487
O O9 0.750000 0.750000 0.092507
#
# Coordination Sequence:
#
# PCOD9371400 Si02
#       4
#    16  16  16  16
#     4  10  22  38  66  98 129 175 229 272 333 412
#     4  10  23  42  66  94 136 176 222 282 339 402
#     4  10  22  38  66  98 129 175 229 272 333 412
#     4  10  23  42  66  94 136 176 222 282 339 402
#
# _framework density 21.544740999999998
#
# number of rings (size 3 to 8) (size 9 to 14) (size 15 to 20)
#    0.000    2.000    0.000    1.500   14.000    0.000 
#    0.000   20.000   11.000    0.000    0.000    0.000 
#    0.000    0.000    0.000    0.000    0.000    0.000 
#
# Total GULP energy -89222.877574 kJ/mol
# GULP energy per Si atom -5576.429848 kJ/mol
# Density = 2.149570 g / cm^3
# Si number density = 21.544741 Si / 1000 Ang^3
#
#
#
# Elastic Constant Matrix: (Units=GPa)
#
#
# Indices 1 2 3 4 5 6 
#
# 1 214.1764 68.9230 82.7910 0.0000 0.0000 0.0000
# 2 68.9230 181.7612 59.9008 0.0000 0.0000 0.0000
# 3 82.7910 59.9008 70.5617 0.0000 0.0000 0.0000
# 4 0.0000 0.0000 0.0000 23.6427 0.0000 0.0000
# 5 0.0000 0.0000 0.0000 0.0000 26.3239 0.0000
# 6 0.0000 0.0000 0.0000 0.0000 0.0000 36.0755
#
#
#
# Elastic Compliance Matrix: (Units=1/GPa)
#
#
# Indices 1 2 3 4 5 6 
#
# 1 0.008545 0.000089 -0.010102 0.000000 0.000000 0.000000
# 2 0.000089 0.007640 -0.006590 0.000000 0.000000 0.000000
# 3 -0.010102 -0.006590 0.031619 0.000000 0.000000 0.000000
# 4 0.000000 0.000000 0.000000 0.042296 0.000000 0.000000
# 5 0.000000 0.000000 0.000000 0.000000 0.037988 0.000000
# 6 0.000000 0.000000 0.000000 0.000000 0.000000 0.027720
#
#
# Mechanical properties :
#
#
# Convention : Reuss Voigt Hill
#
# Bulk Modulus (GPa) = 68.50054 98.85880 83.67967
# Shear Modulus (GPa) = 25.78924 34.20071 29.99498
#
# Velocity S-wave (km/s) = 3.46353 3.98858 3.73529
# Velocity P-wave (km/s) = 6.91797 8.19735 7.58469
#
# Compressibility (1/GPa) = 0.01459843
#
# Stress axis : x y z
#
# Youngs Moduli (GPa) = 117.02236 130.89470 31.62702
#
# Poissons Ratio (x) = -0.01162 0.31949
# Poissons Ratio (y) = -0.01038 0.20841
# Poissons Ratio (z) = 1.18213 0.86254
#
# Static dielectric constant tensor:
#      x y z
#    x 1.749840 0.000000 0.000000 
#    y 0.000000 1.872430 0.000000 
#    z 0.000000 0.000000 1.838720 
# 
# From -- ./inp_files/14451.got.cif
#   From: 2010.05.17/outbox.cif.g08.bks.cpg/sg43_8_cif.got.tgz:14451.got - 2010.06.03 19:21:55.
