data_PCOD9371954
_publ_section_title
;
Structure prediction by ZEFSAII (Michael W. Deem and Ramdas Pophale) SiO2 
 PCOD9371954
Probable space group: F D D 2
;
_chemical_formula_sum "Si O2"
_cell_formula_units_Z 104
_cell_length_a 23.131790
_cell_length_b 16.295794
_cell_length_c 11.599768
_cell_angle_alpha 90.000000
_cell_angle_beta 90.000000
_cell_angle_gamma 90.000000
_cell_volume 4372.542810
_symmetry_space_group_name_H-M "F D D 2"
_symmetry_group_IT_number 43
_symmetry_cell_setting 'orthorhombic'
loop_
_space_group_symop_operation_xyz
x,y,z
-x,-y,z
1/4-x,1/4+y,1/4+z
1/4+x,1/4-y,1/4+z
x,1/2+y,1/2+z
-x,1/2-y,1/2+z
1/4-x,3/4+y,3/4+z
1/4+x,3/4-y,3/4+z
1/2+x,y,1/2+z
1/2-x,-y,1/2+z
3/4-x,1/4+y,3/4+z
3/4+x,1/4-y,3/4+z
1/2+x,1/2+y,z
1/2-x,1/2-y,z
3/4-x,3/4+y,1/4+z
3/4+x,3/4-y,1/4+z
loop_
_atom_site_type_symbol
_atom_site_label
_atom_site_fract_x
_atom_site_fract_y
_atom_site_fract_z
Si Si1 0.901084 0.586686 0.849830
Si Si2 0.481634 0.836083 0.139970
Si Si3 0.500000 0.500000 0.491756
Si Si4 0.081670 0.277024 0.016935
Si Si5 0.184644 0.712247 0.848611
Si Si6 0.362285 0.637677 0.725562
Si Si7 0.987454 0.596150 0.379802
O O1 0.836145 0.566986 0.891161
O O2 0.911065 0.578945 0.713454
O O3 0.946321 0.526230 0.912112
O O4 0.916021 0.678584 0.894506
O O5 0.517341 0.769071 0.067568
O O6 0.513553 0.851585 0.262732
O O7 0.485354 0.921935 0.070435
O O8 0.106331 0.343115 0.107651
O O9 0.125619 0.201148 0.025969
O O10 0.250000 0.750000 0.867697
O O11 0.141899 0.786407 0.811771
O O12 0.191552 0.656117 0.734281
O O13 0.296208 0.622851 0.688424
O O14 0.000000 0.500000 0.350808
#
# Coordination Sequence:
#
# PCOD9371954 Si02
#       7
#    16  16   8  16  16  16  16
#     4  11  23  45  70 107 144 197 238 312 383 447
#     4  11  23  42  71 105 143 190 252 305 375 444
#     4  10  24  44  68 102 148 192 240 300 388 440
#     4  11  26  43  71 105 147 189 254 308 368 457
#     4   9  21  46  72  98 144 196 239 301 386 440
#     4  10  23  46  67 104 139 197 243 301 366 451
#     4   9  19  41  73  94 135 192 241 290 373 450
#
# _framework density 23.784786
#
# number of rings (size 3 to 8) (size 9 to 14) (size 15 to 20)
#    0.000    2.154    3.077    0.000    8.615    0.000 
#   16.615    0.000    0.000    0.000    0.000    0.000 
#    0.000    0.000    0.000    0.000    0.000    0.000 
#
# Total GULP energy -145268.890508 kJ/mol
# GULP energy per Si atom -5587.265020 kJ/mol
# Density = 2.373065 g / cm^3
# Si number density = 23.784786 Si / 1000 Ang^3
#
#
#
# Elastic Constant Matrix: (Units=GPa)
#
#
# Indices 1 2 3 4 5 6 
#
# 1 89.4864 28.2116 47.6654 0.0000 0.0000 0.0000
# 2 28.2116 27.8919 37.8724 0.0000 0.0000 0.0000
# 3 47.6654 37.8724 180.6539 0.0000 0.0000 0.0000
# 4 0.0000 0.0000 0.0000 18.1723 0.0000 0.0000
# 5 0.0000 0.0000 0.0000 0.0000 37.3777 0.0000
# 6 0.0000 0.0000 0.0000 0.0000 0.0000 19.4434
#
#
#
# Elastic Compliance Matrix: (Units=1/GPa)
#
#
# Indices 1 2 3 4 5 6 
#
# 1 0.016591 -0.015150 -0.001202 0.000000 0.000000 0.000000
# 2 -0.015150 0.063953 -0.009410 0.000000 0.000000 0.000000
# 3 -0.001202 -0.009410 0.007825 0.000000 0.000000 0.000000
# 4 0.000000 0.000000 0.000000 0.055029 0.000000 0.000000
# 5 0.000000 0.000000 0.000000 0.000000 0.026754 0.000000
# 6 0.000000 0.000000 0.000000 0.000000 0.000000 0.051431
#
#
# Mechanical properties :
#
#
# Convention : Reuss Voigt Hill
#
# Bulk Modulus (GPa) = 27.13932 58.39233 42.76583
# Shear Modulus (GPa) = 17.52004 27.28421 22.40213
#
# Velocity S-wave (km/s) = 2.71699 3.39060 3.07232
# Velocity P-wave (km/s) = 4.61280 6.31916 5.53217
#
# Compressibility (1/GPa) = 0.03684690
#
# Stress axis : x y z
#
# Youngs Moduli (GPa) = 60.27369 15.63650 127.79281
#
# Poissons Ratio (x) = 0.23689 0.15355
# Poissons Ratio (y) = 0.91313 1.20252
# Poissons Ratio (z) = 0.07242 0.14714
#
# Static dielectric constant tensor:
#      x y z
#    x 1.988730 0.000000 0.000000 
#    y 0.000000 2.128080 0.000000 
#    z 0.000000 0.000000 1.879010 
# 
# From -- ./inp_files/7962.got.cif
#   From: 2010.05.17/outbox.cif.g08.bks.cpg/sg43_4_cif.got.tgz:7962.got - 2010.06.03 19:21:55.
