data_PCOD9371545
_publ_section_title
;
Structure prediction by ZEFSAII (Michael W. Deem and Ramdas Pophale) SiO2 
 PCOD9371545
Probable space group: F D D 2
;
_chemical_formula_sum "Si O2"
_cell_formula_units_Z 120
_cell_length_a 12.277179
_cell_length_b 18.012698
_cell_length_c 22.713926
_cell_angle_alpha 90.000000
_cell_angle_beta 90.000000
_cell_angle_gamma 90.000000
_cell_volume 5023.073837
_symmetry_space_group_name_H-M "F D D 2"
_symmetry_group_IT_number 43
_symmetry_cell_setting 'orthorhombic'
loop_
_space_group_symop_operation_xyz
x,y,z
-x,-y,z
1/4-x,1/4+y,1/4+z
1/4+x,1/4-y,1/4+z
x,1/2+y,1/2+z
-x,1/2-y,1/2+z
1/4-x,3/4+y,3/4+z
1/4+x,3/4-y,3/4+z
1/2+x,y,1/2+z
1/2-x,-y,1/2+z
3/4-x,1/4+y,3/4+z
3/4+x,1/4-y,3/4+z
1/2+x,1/2+y,z
1/2-x,1/2-y,z
3/4-x,3/4+y,1/4+z
3/4+x,3/4-y,1/4+z
loop_
_atom_site_type_symbol
_atom_site_label
_atom_site_fract_x
_atom_site_fract_y
_atom_site_fract_z
Si Si1 0.064830 0.574112 0.008270
Si Si2 0.686111 0.110025 0.631471
Si Si3 0.568844 0.362868 0.150960
Si Si4 0.537389 0.781476 0.182470
Si Si5 0.999917 0.304803 0.850835
Si Si6 0.000000 0.500000 0.461315
Si Si7 0.319821 0.685869 0.436440
Si Si8 0.126713 0.325903 0.059965
O O1 0.171143 0.548110 0.044987
O O2 0.000000 0.500000 0.987958
O O3 0.972665 0.616985 0.047435
O O4 0.116027 0.632917 0.961174
O O5 0.555011 0.112505 0.638087
O O6 0.730735 0.167601 0.681100
O O7 0.755412 0.139523 0.575396
O O8 0.719019 0.023871 0.630031
O O9 0.557093 0.275958 0.167257
O O10 0.644358 0.392707 0.098564
O O11 0.625803 0.759649 0.232541
O O12 0.500455 0.863284 0.195742
O O13 0.598075 0.780620 0.118518
O O14 0.082124 0.341667 0.897237
O O15 0.250000 0.750000 0.406084
O O16 0.361539 0.716717 0.498686
#
# Coordination Sequence:
#
# PCOD9371545 Si02
#       8
#    16  16  16  16  16   8  16  16
#     4  12  23  44  73 104 136 190 250 292 355 436
#     4  10  22  44  69  95 141 185 229 298 361 427
#     4  11  26  45  67 100 143 189 231 295 369 436
#     4  10  22  42  63  98 136 182 226 295 356 424
#     4  12  24  43  70 101 142 187 240 297 361 434
#     4   8  18  38  68  86 130 176 226 288 354 408
#     4  12  24  38  70 107 129 178 245 301 357 418
#     4  11  22  42  70 100 136 178 237 296 353 426
#
# _framework density 23.889754
#
# number of rings (size 3 to 8) (size 9 to 14) (size 15 to 20)
#    0.000    1.067    4.000    3.200    5.600    0.000 
#    2.400    4.000    2.933    0.000    0.000    0.000 
#    0.000    0.000    0.000    0.000    0.000    0.000 
#
# Total GULP energy -167003.034701 kJ/mol
# GULP energy per Si atom -5566.767823 kJ/mol
# Density = 2.383538 g / cm^3
# Si number density = 23.889754 Si / 1000 Ang^3
#
#
#
# Elastic Constant Matrix: (Units=GPa)
#
#
# Indices 1 2 3 4 5 6 
#
# 1 176.9970 33.7597 30.4488 0.0000 0.0000 0.0000
# 2 33.7597 82.9803 -4.8052 0.0000 0.0000 0.0000
# 3 30.4488 -4.8052 53.6545 0.0000 0.0000 0.0000
# 4 0.0000 0.0000 0.0000 17.4108 0.0000 0.0000
# 5 0.0000 0.0000 0.0000 0.0000 34.0939 0.0000
# 6 0.0000 0.0000 0.0000 0.0000 0.0000 54.3741
#
#
#
# Elastic Compliance Matrix: (Units=1/GPa)
#
#
# Indices 1 2 3 4 5 6 
#
# 1 0.006964 -0.003078 -0.004228 0.000000 0.000000 0.000000
# 2 -0.003078 0.013474 0.002954 0.000000 0.000000 0.000000
# 3 -0.004228 0.002954 0.021302 0.000000 0.000000 0.000000
# 4 0.000000 0.000000 0.000000 0.057436 0.000000 0.000000
# 5 0.000000 0.000000 0.000000 0.000000 0.029331 0.000000
# 6 0.000000 0.000000 0.000000 0.000000 0.000000 0.018391
#
#
# Mechanical properties :
#
#
# Convention : Reuss Voigt Hill
#
# Bulk Modulus (GPa) = 30.27060 48.04871 39.15966
# Shear Modulus (GPa) = 30.00944 38.12434 34.06689
#
# Velocity S-wave (km/s) = 3.54808 3.99914 3.78034
# Velocity P-wave (km/s) = 5.42989 6.44053 5.95668
#
# Compressibility (1/GPa) = 0.03303535
#
# Stress axis : x y z
#
# Youngs Moduli (GPa) = 143.59056 74.21474 46.94490
#
# Poissons Ratio (x) = 0.22844 0.19848
# Poissons Ratio (y) = 0.44199 -0.13866
# Poissons Ratio (z) = 0.60708 -0.21920
#
# Static dielectric constant tensor:
#      x y z
#    x 2.030000 0.000000 0.000000 
#    y 0.000000 1.938100 0.000000 
#    z 0.000000 0.000000 2.013020 
# 
# From -- ./inp_files/21255.got.cif
#   From: 2010.05.17/outbox.cif.g08.bks.cpg/sg43_11_cif.got.tgz:21255.got - 2010.06.03 19:21:55.
