data_PCOD9371162
_publ_section_title
;
Structure prediction by ZEFSAII (Michael W. Deem and Ramdas Pophale) SiO2 
 PCOD9371162
Probable space group: F D D 2
;
_chemical_formula_sum "Si O2"
_cell_formula_units_Z 120
_cell_length_a 11.476028
_cell_length_b 20.675303
_cell_length_c 22.954109
_cell_angle_alpha 90.000000
_cell_angle_beta 90.000000
_cell_angle_gamma 90.000000
_cell_volume 5446.329617
_symmetry_space_group_name_H-M "F D D 2"
_symmetry_group_IT_number 43
_symmetry_cell_setting 'orthorhombic'
loop_
_space_group_symop_operation_xyz
x,y,z
-x,-y,z
1/4-x,1/4+y,1/4+z
1/4+x,1/4-y,1/4+z
x,1/2+y,1/2+z
-x,1/2-y,1/2+z
1/4-x,3/4+y,3/4+z
1/4+x,3/4-y,3/4+z
1/2+x,y,1/2+z
1/2-x,-y,1/2+z
3/4-x,1/4+y,3/4+z
3/4+x,1/4-y,3/4+z
1/2+x,1/2+y,z
1/2-x,1/2-y,z
3/4-x,3/4+y,1/4+z
3/4+x,3/4-y,1/4+z
loop_
_atom_site_type_symbol
_atom_site_label
_atom_site_fract_x
_atom_site_fract_y
_atom_site_fract_z
Si Si1 0.366342 0.177129 0.364510
Si Si2 0.047017 0.604988 0.965286
Si Si3 0.989891 0.281810 0.055488
Si Si4 0.143793 0.596573 0.746901
Si Si5 0.907706 0.818272 0.347897
Si Si6 0.317437 0.522203 0.442222
Si Si7 0.592144 0.870477 0.248986
Si Si8 0.250000 0.250000 0.012581
O O1 0.350551 0.162031 0.431843
O O2 0.232753 0.182797 0.345226
O O3 0.437914 0.243048 0.353942
O O4 0.421766 0.126613 0.319497
O O5 0.052700 0.647538 0.906722
O O6 0.147707 0.550787 0.958539
O O7 0.926947 0.565335 0.962038
O O8 0.043053 0.652627 0.020839
O O9 0.956471 0.280277 0.123366
O O10 0.128156 0.266753 0.045663
O O11 0.918178 0.222971 0.026038
O O12 0.066590 0.639063 0.790919
O O13 0.271898 0.626294 0.736427
O O14 0.209030 0.554161 0.475128
O O15 0.530055 0.935179 0.226044
#
# Coordination Sequence:
#
# PCOD9371162 Si02
#       8
#    16  16  16  16  16  16  16   8
#     4  10  22  39  64  93 129 167 216 280 338 407
#     4  11  23  43  63  94 140 177 227 284 334 417
#     4  11  22  43  69  99 128 186 223 287 350 402
#     4  10  21  40  66  93 126 169 223 275 346 398
#     4  10  21  41  59  93 130 165 222 273 334 407
#     4  11  25  42  66  99 137 175 234 279 341 417
#     4  10  23  41  62  97 126 170 221 278 336 409
#     4  10  22  44  68  88 134 164 232 282 338 412
#
# _framework density 22.033187999999999
#
# number of rings (size 3 to 8) (size 9 to 14) (size 15 to 20)
#    0.000    1.600    4.000    0.000    1.867    3.200 
#    0.000    1.333    0.000    0.000    0.000    0.000 
#    0.000    0.000    0.000    0.000    0.000    0.000 
#
# Total GULP energy -167459.093697 kJ/mol
# GULP energy per Si atom -5581.969790 kJ/mol
# Density = 2.198304 g / cm^3
# Si number density = 22.033188 Si / 1000 Ang^3
#
#
#
# Elastic Constant Matrix: (Units=GPa)
#
#
# Indices 1 2 3 4 5 6 
#
# 1 35.5059 31.4345 11.0781 0.0000 0.0000 0.0000
# 2 31.4345 104.1615 47.6650 0.0000 0.0000 0.0000
# 3 11.0781 47.6650 124.2732 0.0000 0.0000 0.0000
# 4 0.0000 0.0000 0.0000 33.8029 0.0000 0.0000
# 5 0.0000 0.0000 0.0000 0.0000 22.7851 0.0000
# 6 0.0000 0.0000 0.0000 0.0000 0.0000 24.7287
#
#
#
# Elastic Compliance Matrix: (Units=1/GPa)
#
#
# Indices 1 2 3 4 5 6 
#
# 1 0.038591 -0.012216 0.001245 0.000000 0.000000 0.000000
# 2 -0.012216 0.015511 -0.004860 0.000000 0.000000 0.000000
# 3 0.001245 -0.004860 0.009800 0.000000 0.000000 0.000000
# 4 0.000000 0.000000 0.000000 0.029583 0.000000 0.000000
# 5 0.000000 0.000000 0.000000 0.000000 0.043888 0.000000
# 6 0.000000 0.000000 0.000000 0.000000 0.000000 0.040439
#
#
# Mechanical properties :
#
#
# Convention : Reuss Voigt Hill
#
# Bulk Modulus (GPa) = 31.01732 49.36619 40.19176
# Shear Modulus (GPa) = 22.70437 27.84751 25.27594
#
# Velocity S-wave (km/s) = 3.21356 3.55898 3.39067
# Velocity P-wave (km/s) = 5.27991 6.27236 5.79741
#
# Compressibility (1/GPa) = 0.03224005
#
# Stress axis : x y z
#
# Youngs Moduli (GPa) = 25.91272 64.46923 102.04114
#
# Poissons Ratio (x) = 0.78757 -0.12708
# Poissons Ratio (y) = 0.31655 0.49596
# Poissons Ratio (z) = -0.03227 0.31334
#
# Static dielectric constant tensor:
#      x y z
#    x 1.821740 0.000000 0.000000 
#    y 0.000000 1.875000 0.000000 
#    z 0.000000 0.000000 1.800280 
# 
# From -- ./inp_files/18391.got.cif
#   From: 2010.05.17/outbox.cif.g08.bks.cpg/sg43_10_cif.got.tgz:18391.got - 2010.06.03 19:21:55.
