data_PCOD9371868
_publ_section_title
;
Structure prediction by ZEFSAII (Michael W. Deem and Ramdas Pophale) SiO2 
 PCOD9371868
Probable space group: F D D 2
;
_chemical_formula_sum "Si O2"
_cell_formula_units_Z 96
_cell_length_a 14.619071
_cell_length_b 17.044684
_cell_length_c 19.437504
_cell_angle_alpha 90.000000
_cell_angle_beta 90.000000
_cell_angle_gamma 90.000000
_cell_volume 4843.387595
_symmetry_space_group_name_H-M "F D D 2"
_symmetry_group_IT_number 43
_symmetry_cell_setting 'orthorhombic'
loop_
_space_group_symop_operation_xyz
x,y,z
-x,-y,z
1/4-x,1/4+y,1/4+z
1/4+x,1/4-y,1/4+z
x,1/2+y,1/2+z
-x,1/2-y,1/2+z
1/4-x,3/4+y,3/4+z
1/4+x,3/4-y,3/4+z
1/2+x,y,1/2+z
1/2-x,-y,1/2+z
3/4-x,1/4+y,3/4+z
3/4+x,1/4-y,3/4+z
1/2+x,1/2+y,z
1/2-x,1/2-y,z
3/4-x,3/4+y,1/4+z
3/4+x,3/4-y,1/4+z
loop_
_atom_site_type_symbol
_atom_site_label
_atom_site_fract_x
_atom_site_fract_y
_atom_site_fract_z
Si Si1 0.500000 0.000000 0.512450
Si Si2 0.662760 0.196765 0.993554
Si Si3 0.000000 0.500000 0.084002
Si Si4 0.734195 0.429376 0.366325
Si Si5 0.058879 0.266997 0.755048
Si Si6 0.850359 0.963322 0.107212
Si Si7 0.590599 0.966227 0.376529
O O1 0.629661 0.983930 0.674060
O O2 0.444741 0.947123 0.565268
O O3 0.750000 0.250000 0.012473
O O4 0.695462 0.107611 0.981044
O O5 0.589603 0.193300 0.055687
O O6 0.907670 0.495857 0.039342
O O7 0.004309 0.414352 0.120951
O O8 0.699823 0.460263 0.439816
O O9 0.822352 0.484937 0.351657
O O10 0.979730 0.250662 0.811108
O O11 0.920570 0.019965 0.958602
O O12 0.825671 0.875688 0.124753
O O13 0.500000 0.000000 0.340962
#
# Coordination Sequence:
#
# PCOD9371868 Si02
#       7
#     8  16   8  16  16  16  16
#     4  10  24  40  66 100 134 170 222 286 322 406
#     4  11  27  40  71 101 134 179 222 274 341 394
#     4  10  26  46  62 102 130 180 224 272 338 400
#     4  11  24  45  70  95 140 173 227 275 336 404
#     4  11  25  45  68  98 136 176 227 277 324 412
#     4  12  24  42  72 100 137 175 227 281 334 400
#     4  10  23  43  67 100 132 175 221 281 337 387
#
# _framework density 19.820837999999998
#
# number of rings (size 3 to 8) (size 9 to 14) (size 15 to 20)
#    0.500    0.667    2.500    2.000    5.833    4.000 
#    4.500    0.000    0.000    0.000    0.000    0.000 
#    0.000    0.000    0.000    0.000    0.000    0.000 
#
# Total GULP energy -133636.606449 kJ/mol
# GULP energy per Si atom -5568.191935 kJ/mol
# Density = 1.977573 g / cm^3
# Si number density = 19.820838 Si / 1000 Ang^3
#
#
#
# Elastic Constant Matrix: (Units=GPa)
#
#
# Indices 1 2 3 4 5 6 
#
# 1 101.5240 43.9584 35.4183 0.0000 0.0000 0.0000
# 2 43.9584 190.8791 60.9907 0.0000 0.0000 0.0000
# 3 35.4183 60.9907 86.8268 0.0000 0.0000 0.0000
# 4 0.0000 0.0000 0.0000 24.2855 0.0000 0.0000
# 5 0.0000 0.0000 0.0000 0.0000 -3.1062 0.0000
# 6 0.0000 0.0000 0.0000 0.0000 0.0000 28.7559
#
#
#
# Elastic Compliance Matrix: (Units=1/GPa)
#
#
# Indices 1 2 3 4 5 6 
#
# 1 0.011818 -0.001523 -0.003751 0.000000 0.000000 0.000000
# 2 -0.001523 0.006951 -0.004262 0.000000 0.000000 0.000000
# 3 -0.003751 -0.004262 0.016041 0.000000 0.000000 0.000000
# 4 0.000000 0.000000 0.000000 0.041177 0.000000 0.000000
# 5 0.000000 0.000000 0.000000 0.000000 -0.321941 0.000000
# 6 0.000000 0.000000 0.000000 0.000000 0.000000 0.034776
#
#
# Mechanical properties :
#
#
# Convention : Reuss Voigt Hill
#
# Bulk Modulus (GPa) = 63.53695 73.32941 68.43318
# Shear Modulus (GPa) = -26.75783 25.91122 -0.42331
#
# Velocity S-wave (km/s) = -3.67820 3.61954 -0.46263
# Velocity P-wave (km/s) = 3.75318 7.38543 5.85794
#
# Compressibility (1/GPa) = 0.01573887
#
# Stress axis : x y z
#
# Youngs Moduli (GPa) = 84.61730 143.85642 62.34118
#
# Poissons Ratio (x) = 0.21911 0.23383
# Poissons Ratio (y) = 0.12888 0.26567
# Poissons Ratio (z) = 0.31739 0.61306
#
# Static dielectric constant tensor:
#      x y z
#    x 1.824720 0.000000 0.000000 
#    y 0.000000 1.635460 0.000000 
#    z 0.000000 0.000000 1.696170 
# 
# From -- ./inp_files/17588.got.cif
#   From: 2010.05.17/outbox.cif.g08.bks.cpg/sg43_9_cif.got.tgz:17588.got - 2010.06.03 19:21:55.
