data_PCOD9371643
_publ_section_title
;
Structure prediction by ZEFSAII (Michael W. Deem and Ramdas Pophale) SiO2 
 PCOD9371643
Probable space group: F D D 2
;
_chemical_formula_sum "Si O2"
_cell_formula_units_Z 96
_cell_length_a 11.111832
_cell_length_b 17.594681
_cell_length_c 23.471384
_cell_angle_alpha 90.000000
_cell_angle_beta 90.000000
_cell_angle_gamma 90.000000
_cell_volume 4588.870086
_symmetry_space_group_name_H-M "F D D 2"
_symmetry_group_IT_number 43
_symmetry_cell_setting 'orthorhombic'
loop_
_space_group_symop_operation_xyz
x,y,z
-x,-y,z
1/4-x,1/4+y,1/4+z
1/4+x,1/4-y,1/4+z
x,1/2+y,1/2+z
-x,1/2-y,1/2+z
1/4-x,3/4+y,3/4+z
1/4+x,3/4-y,3/4+z
1/2+x,y,1/2+z
1/2-x,-y,1/2+z
3/4-x,1/4+y,3/4+z
3/4+x,1/4-y,3/4+z
1/2+x,1/2+y,z
1/2-x,1/2-y,z
3/4-x,3/4+y,1/4+z
3/4+x,3/4-y,1/4+z
loop_
_atom_site_type_symbol
_atom_site_label
_atom_site_fract_x
_atom_site_fract_y
_atom_site_fract_z
Si Si1 0.882118 0.772581 0.130770
Si Si2 0.321467 0.179543 0.903615
Si Si3 0.517328 0.262900 0.967079
Si Si4 0.622089 0.955931 0.827937
Si Si5 0.137128 0.804042 0.852002
Si Si6 0.133359 0.588436 0.479144
O O1 0.750000 0.750000 0.104577
O O2 0.907773 0.861581 0.126394
O O3 0.870089 0.740023 0.194605
O O4 0.999207 0.736568 0.101274
O O5 0.250000 0.250000 0.876267
O O6 0.401808 0.210913 0.955668
O O7 0.384656 0.127956 0.855623
O O8 0.222957 0.130994 0.937010
O O9 0.567437 0.265646 0.903224
O O10 0.475304 0.348810 0.984962
O O11 0.607848 0.222582 0.010820
O O12 0.500000 0.000000 0.845253
O O13 0.250000 0.750000 0.838732
O O14 0.072316 0.819022 0.792071
#
# Coordination Sequence:
#
# PCOD9371643 Si02
#       6
#    16  16  16  16  16  16
#     4  11  23  44  75 101 138 189 239 284 359 431
#     4   9  23  43  68 103 140 192 238 288 356 449
#     4  11  23  42  69  98 140 183 240 288 358 426
#     4  11  25  45  70 101 147 185 232 301 362 421
#     4  12  26  40  69 107 138 177 234 309 354 411
#     4  10  22  43  71 102 137 183 245 286 349 438
#
# _framework density 20.920182
#
# number of rings (size 3 to 8) (size 9 to 14) (size 15 to 20)
#    0.000    1.333    3.333    1.000    4.667    0.000 
#    3.000    0.833    0.000    0.000    0.000    0.000 
#    0.000    0.000    0.000    0.000    0.000    0.000 
#
# Total GULP energy -133611.424785 kJ/mol
# GULP energy per Si atom -5567.142699 kJ/mol
# Density = 2.087257 g / cm^3
# Si number density = 20.920182 Si / 1000 Ang^3
#
#
#
# Elastic Constant Matrix: (Units=GPa)
#
#
# Indices 1 2 3 4 5 6 
#
# 1 68.5822 27.4800 11.6210 0.0000 0.0000 0.0000
# 2 27.4800 129.4593 38.8818 0.0000 0.0000 0.0000
# 3 11.6210 38.8818 122.9069 0.0000 0.0000 0.0000
# 4 0.0000 0.0000 0.0000 20.3832 0.0000 0.0000
# 5 0.0000 0.0000 0.0000 0.0000 20.2392 0.0000
# 6 0.0000 0.0000 0.0000 0.0000 0.0000 16.9770
#
#
#
# Elastic Compliance Matrix: (Units=1/GPa)
#
#
# Indices 1 2 3 4 5 6 
#
# 1 0.015962 -0.003243 -0.000483 0.000000 0.000000 0.000000
# 2 -0.003243 0.009194 -0.002602 0.000000 0.000000 0.000000
# 3 -0.000483 -0.002602 0.009005 0.000000 0.000000 0.000000
# 4 0.000000 0.000000 0.000000 0.049060 0.000000 0.000000
# 5 0.000000 0.000000 0.000000 0.000000 0.049409 0.000000
# 6 0.000000 0.000000 0.000000 0.000000 0.000000 0.058903
#
#
# Mechanical properties :
#
#
# Convention : Reuss Voigt Hill
#
# Bulk Modulus (GPa) = 46.50090 52.99044 49.74567
# Shear Modulus (GPa) = 23.65637 27.71757 25.68697
#
# Velocity S-wave (km/s) = 3.36637 3.64389 3.50788
# Velocity P-wave (km/s) = 6.11441 6.56420 6.34329
#
# Compressibility (1/GPa) = 0.02150496
#
# Stress axis : x y z
#
# Youngs Moduli (GPa) = 62.64712 108.76261 111.04843
#
# Poissons Ratio (x) = 0.35273 0.05367
# Poissons Ratio (y) = 0.20317 0.28895
# Poissons Ratio (z) = 0.03028 0.28300
#
# Static dielectric constant tensor:
#      x y z
#    x 1.807700 0.000000 0.000000 
#    y 0.000000 1.828660 0.000000 
#    z 0.000000 0.000000 1.752670 
# 
# From -- ./inp_files/21066.got.cif
#   From: 2010.05.17/outbox.cif.g08.bks.cpg/sg43_11_cif.got.tgz:21066.got - 2010.06.03 19:21:55.
