data_PCOD9371010
_publ_section_title
;
Structure prediction by ZEFSAII (Michael W. Deem and Ramdas Pophale) SiO2 
 PCOD9371010
Probable space group: F D D 2
;
_chemical_formula_sum "Si O2"
_cell_formula_units_Z 112
_cell_length_a 10.544412
_cell_length_b 17.131173
_cell_length_c 25.869703
_cell_angle_alpha 90.000000
_cell_angle_beta 90.000000
_cell_angle_gamma 90.000000
_cell_volume 4673.055192
_symmetry_space_group_name_H-M "F D D 2"
_symmetry_group_IT_number 43
_symmetry_cell_setting 'orthorhombic'
loop_
_space_group_symop_operation_xyz
x,y,z
-x,-y,z
1/4-x,1/4+y,1/4+z
1/4+x,1/4-y,1/4+z
x,1/2+y,1/2+z
-x,1/2-y,1/2+z
1/4-x,3/4+y,3/4+z
1/4+x,3/4-y,3/4+z
1/2+x,y,1/2+z
1/2-x,-y,1/2+z
3/4-x,1/4+y,3/4+z
3/4+x,1/4-y,3/4+z
1/2+x,1/2+y,z
1/2-x,1/2-y,z
3/4-x,3/4+y,1/4+z
3/4+x,3/4-y,1/4+z
loop_
_atom_site_type_symbol
_atom_site_label
_atom_site_fract_x
_atom_site_fract_y
_atom_site_fract_z
Si Si1 0.271109 0.842215 0.000000
Si Si2 0.819882 0.517819 0.125908
Si Si3 0.449174 0.866361 0.151054
Si Si4 0.731088 0.424727 0.514538
Si Si5 0.200162 0.331339 0.385594
Si Si6 0.522873 0.809778 0.042565
Si Si7 0.500978 0.638223 0.030669
O O1 0.250000 0.750000 0.014733
O O2 0.267900 0.847479 0.938672
O O3 0.411014 0.863050 0.018443
O O4 0.143621 0.884928 0.019246
O O5 0.833332 0.427630 0.142718
O O6 0.810754 0.520845 0.062755
O O7 0.695995 0.563031 0.145364
O O8 0.934090 0.571499 0.147116
O O9 0.439554 0.819697 0.204755
O O10 0.478751 0.811413 0.102281
O O11 0.661126 0.345483 0.534007
O O12 0.883092 0.414814 0.512041
O O13 0.250000 0.250000 0.362605
O O14 0.225399 0.392907 0.341910
O O15 0.519537 0.727383 0.013435
#
# Coordination Sequence:
#
# PCOD9371010 Si02
#       7
#    16  16  16  16  16  16  16
#     4   9  20  35  55  80 114 149 192 231 284 362
#     4   9  21  37  57  92 115 148 213 242 284 378
#     4  10  21  37  64  84 119 160 190 252 309 343
#     4  10  21  37  62  88 114 154 198 246 295 353
#     4  10  21  36  58  83 115 155 193 239 296 354
#     4  10  22  37  56  89 115 146 201 240 290 368
#     4  10  21  38  56  85 115 147 194 246 286 356
#
# _framework density 23.967189999999999
#
# number of rings (size 3 to 8) (size 9 to 14) (size 15 to 20)
#    0.000    2.286    0.000    1.286   12.000    0.000 
#    2.571    0.000    6.286    0.000    0.000    0.000 
#    0.000    0.000    0.000    0.000    0.000    0.000 
#
# Total GULP energy -156233.838006 kJ/mol
# GULP energy per Si atom -5579.779929 kJ/mol
# Density = 2.391264 g / cm^3
# Si number density = 23.967190 Si / 1000 Ang^3
#
#
#
# Elastic Constant Matrix: (Units=GPa)
#
#
# Indices 1 2 3 4 5 6 
#
# 1 83.4659 5.8872 7.3955 0.0000 0.0000 0.0000
# 2 5.8872 41.1673 -2.0417 0.0000 0.0000 0.0000
# 3 7.3955 -2.0417 134.6663 0.0000 0.0000 0.0000
# 4 0.0000 0.0000 0.0000 -34.3783 0.0000 0.0000
# 5 0.0000 0.0000 0.0000 0.0000 5.9314 0.0000
# 6 0.0000 0.0000 0.0000 0.0000 0.0000 14.3897
#
#
#
# Elastic Compliance Matrix: (Units=1/GPa)
#
#
# Indices 1 2 3 4 5 6 
#
# 1 0.012168 -0.001775 -0.000695 0.000000 0.000000 0.000000
# 2 -0.001775 0.024568 0.000470 0.000000 0.000000 0.000000
# 3 -0.000695 0.000470 0.007471 0.000000 0.000000 0.000000
# 4 0.000000 0.000000 0.000000 -0.029088 0.000000 0.000000
# 5 0.000000 0.000000 0.000000 0.000000 0.168594 0.000000
# 6 0.000000 0.000000 0.000000 0.000000 0.000000 0.069494
#
#
# Mechanical properties :
#
#
# Convention : Reuss Voigt Hill
#
# Bulk Modulus (GPa) = 24.87097 31.30906 28.09001
# Shear Modulus (GPa) = 18.47685 13.72580 16.10133
#
# Velocity S-wave (km/s) = 2.77956 2.39569 2.59474
# Velocity P-wave (km/s) = 4.54982 4.55457 4.55220
#
# Compressibility (1/GPa) = 0.04020752
#
# Stress axis : x y z
#
# Youngs Moduli (GPa) = 82.18483 40.70302 133.84979
#
# Poissons Ratio (x) = 0.07223 0.09304
# Poissons Ratio (y) = 0.14584 -0.06290
# Poissons Ratio (z) = 0.05713 -0.01913
#
# Static dielectric constant tensor:
#      x y z
#    x 1.999720 0.000000 0.000000 
#    y 0.000000 1.946950 0.000000 
#    z 0.000000 0.000000 1.923880 
# 
# From -- ./inp_files/21171.got.cif
#   From: 2010.05.17/outbox.cif.g08.bks.cpg/sg43_11_cif.got.tgz:21171.got - 2010.06.03 19:21:55.
