data_PCOD9371555
_publ_section_title
;
Structure prediction by ZEFSAII (Michael W. Deem and Ramdas Pophale) SiO2 
 PCOD9371555
Probable space group: F D D 2
;
_chemical_formula_sum "Si O2"
_cell_formula_units_Z 56
_cell_length_a 7.248792
_cell_length_b 12.709171
_cell_length_c 27.428029
_cell_angle_alpha 90.000000
_cell_angle_beta 90.000000
_cell_angle_gamma 90.000000
_cell_volume 2526.838359
_symmetry_space_group_name_H-M "F D D 2"
_symmetry_group_IT_number 43
_symmetry_cell_setting 'orthorhombic'
loop_
_space_group_symop_operation_xyz
x,y,z
-x,-y,z
1/4-x,1/4+y,1/4+z
1/4+x,1/4-y,1/4+z
x,1/2+y,1/2+z
-x,1/2-y,1/2+z
1/4-x,3/4+y,3/4+z
1/4+x,3/4-y,3/4+z
1/2+x,y,1/2+z
1/2-x,-y,1/2+z
3/4-x,1/4+y,3/4+z
3/4+x,1/4-y,3/4+z
1/2+x,1/2+y,z
1/2-x,1/2-y,z
3/4-x,3/4+y,1/4+z
3/4+x,3/4-y,1/4+z
loop_
_atom_site_type_symbol
_atom_site_label
_atom_site_fract_x
_atom_site_fract_y
_atom_site_fract_z
Si Si1 0.535843 0.269913 0.785380
Si Si2 0.124542 0.588548 0.204236
Si Si3 0.750000 0.250000 0.132440
Si Si4 0.746623 0.420909 0.304715
O O1 0.750000 0.250000 0.792382
O O2 0.488850 0.317263 0.731414
O O3 0.411807 0.167138 0.795312
O O4 0.436981 0.361316 0.817181
O O5 0.250896 0.646953 0.165865
O O6 0.220966 0.532151 0.250767
O O7 0.000000 0.500000 0.180029
O O8 0.575021 0.243712 0.096982
#
# Coordination Sequence:
#
# PCOD9371555 Si02
#       4
#    16  16   8  16
#     4   9  19  42  67  97 144 184 239 306 369 433
#     4  10  22  42  66 104 146 190 247 315 366 448
#     4  12  22  42  78 104 146 198 258 298 388 454
#     4   9  22  40  68 100 141 192 237 315 359 434
#
# _framework density 22.162082000000002
#
# number of rings (size 3 to 8) (size 9 to 14) (size 15 to 20)
#    1.714    0.571    2.857    0.000    8.000    0.000 
#    0.000    4.286    3.143    0.000    0.000    0.000 
#    0.000    0.000    0.000    0.000    0.000    0.000 
#
# Total GULP energy -77994.857551 kJ/mol
# GULP energy per Si atom -5571.061254 kJ/mol
# Density = 2.211164 g / cm^3
# Si number density = 22.162082 Si / 1000 Ang^3
#
#
#
# Elastic Constant Matrix: (Units=GPa)
#
#
# Indices 1 2 3 4 5 6 
#
# 1 150.6268 36.5414 40.6082 0.0000 0.0000 0.0000
# 2 36.5414 76.3905 47.0388 0.0000 0.0000 0.0000
# 3 40.6082 47.0388 96.8574 0.0000 0.0000 0.0000
# 4 0.0000 0.0000 0.0000 -2.6109 0.0000 0.0000
# 5 0.0000 0.0000 0.0000 0.0000 16.1910 0.0000
# 6 0.0000 0.0000 0.0000 0.0000 0.0000 36.4203
#
#
#
# Elastic Compliance Matrix: (Units=1/GPa)
#
#
# Indices 1 2 3 4 5 6 
#
# 1 0.007793 -0.002448 -0.002078 0.000000 0.000000 0.000000
# 2 -0.002448 0.019444 -0.008417 0.000000 0.000000 0.000000
# 3 -0.002078 -0.008417 0.015284 0.000000 0.000000 0.000000
# 4 0.000000 0.000000 0.000000 -0.383012 0.000000 0.000000
# 5 0.000000 0.000000 0.000000 0.000000 0.061763 0.000000
# 6 0.000000 0.000000 0.000000 0.000000 0.000000 0.027457
#
#
# Mechanical properties :
#
#
# Convention : Reuss Voigt Hill
#
# Bulk Modulus (GPa) = 60.11610 63.58349 61.84980
# Shear Modulus (GPa) = -22.74382 23.31251 0.28434
#
# Velocity S-wave (km/s) = -3.20699 3.24683 0.35858
# Velocity P-wave (km/s) = 3.67036 6.54281 5.30471
#
# Compressibility (1/GPa) = 0.01663448
#
# Stress axis : x y z
#
# Youngs Moduli (GPa) = 128.31792 51.42855 65.43000
#
# Poissons Ratio (x) = 0.12590 0.13599
# Poissons Ratio (y) = 0.31412 0.55071
# Poissons Ratio (z) = 0.26670 0.43287
#
# Static dielectric constant tensor:
#      x y z
#    x 1.831140 0.000000 0.000000 
#    y 0.000000 1.888350 0.000000 
#    z 0.000000 0.000000 1.852040 
# 
# From -- ./inp_files/23892.got.cif
#   From: 2010.05.17/outbox.cif.g08.bks.cpg/sg43_12_cif.got.tgz:23892.got - 2010.06.03 19:21:55.
