data_PCOD9371384
_publ_section_title
;
Structure prediction by ZEFSAII (Michael W. Deem and Ramdas Pophale) SiO2 
 PCOD9371384
Probable space group: F D D 2
;
_chemical_formula_sum "Si O2"
_cell_formula_units_Z 88
_cell_length_a 26.092138
_cell_length_b 17.508671
_cell_length_c 7.947964
_cell_angle_alpha 90.000000
_cell_angle_beta 90.000000
_cell_angle_gamma 90.000000
_cell_volume 3630.937223
_symmetry_space_group_name_H-M "F D D 2"
_symmetry_group_IT_number 43
_symmetry_cell_setting 'orthorhombic'
loop_
_space_group_symop_operation_xyz
x,y,z
-x,-y,z
1/4-x,1/4+y,1/4+z
1/4+x,1/4-y,1/4+z
x,1/2+y,1/2+z
-x,1/2-y,1/2+z
1/4-x,3/4+y,3/4+z
1/4+x,3/4-y,3/4+z
1/2+x,y,1/2+z
1/2-x,-y,1/2+z
3/4-x,1/4+y,3/4+z
3/4+x,1/4-y,3/4+z
1/2+x,1/2+y,z
1/2-x,1/2-y,z
3/4-x,3/4+y,1/4+z
3/4+x,3/4-y,1/4+z
loop_
_atom_site_type_symbol
_atom_site_label
_atom_site_fract_x
_atom_site_fract_y
_atom_site_fract_z
Si Si1 0.500241 0.750000 0.961570
Si Si2 0.924196 0.614421 0.900885
Si Si3 0.075804 0.614421 0.522255
Si Si4 0.000000 0.000000 0.211570
Si Si5 0.898192 0.240970 0.153768
Si Si6 0.101808 0.240970 0.269372
O O1 0.538022 0.822081 0.980157
O O2 0.458647 0.755008 0.809747
O O3 0.538022 0.677919 0.942983
O O4 0.458647 0.744992 0.113393
O O5 0.965414 0.555403 0.824047
O O6 0.892849 0.663878 0.760241
O O7 0.882957 0.559252 0.992330
O O8 0.117043 0.559252 0.430810
O O9 0.107151 0.663878 0.662899
O O10 0.034585 0.555403 0.599093
O O11 0.878005 0.250000 0.961570
#
# Coordination Sequence:
#
# PCOD9371384 Si02
#       6
#    16  16  16   8  16  16
#     4  10  23  40  60  91 129 162 194 263 298 368
#     4  12  23  38  64  91 123 159 206 249 312 351
#     4  12  23  38  64  91 123 159 206 249 312 351
#     4  12  18  36  64  88 110 158 204 242 292 358
#     4  10  22  38  61  92 120 157 207 255 287 372
#     4  10  22  38  61  92 120 157 207 255 287 372
#
# _framework density 24.236167999999999
#
# number of rings (size 3 to 8) (size 9 to 14) (size 15 to 20)
#    1.091    0.000    5.455    1.091    5.091    1.455 
#    0.000    0.000    0.000    0.000    0.000    0.000 
#    0.000    0.000    0.000    0.000    0.000    0.000 
#
# Total GULP energy -122527.708980 kJ/mol
# GULP energy per Si atom -5569.441317 kJ/mol
# Density = 2.418101 g / cm^3
# Si number density = 24.236168 Si / 1000 Ang^3
#
#
#
# Elastic Constant Matrix: (Units=GPa)
#
#
# Indices 1 2 3 4 5 6 
#
# 1 160.0315 71.7285 -7.4219 0.0000 0.0000 0.0000
# 2 71.7285 217.2946 21.9363 0.0000 0.0000 0.0000
# 3 -7.4219 21.9363 25.3642 0.0000 0.0000 0.0000
# 4 0.0000 0.0000 0.0000 54.6458 0.0000 0.0000
# 5 0.0000 0.0000 0.0000 0.0000 34.0337 0.0000
# 6 0.0000 0.0000 0.0000 0.0000 0.0000 69.1318
#
#
#
# Elastic Compliance Matrix: (Units=1/GPa)
#
#
# Indices 1 2 3 4 5 6 
#
# 1 0.007870 -0.003101 0.004985 0.000000 0.000000 0.000000
# 2 -0.003101 0.006264 -0.006325 0.000000 0.000000 0.000000
# 3 0.004985 -0.006325 0.046354 0.000000 0.000000 0.000000
# 4 0.000000 0.000000 0.000000 0.018300 0.000000 0.000000
# 5 0.000000 0.000000 0.000000 0.000000 0.029383 0.000000
# 6 0.000000 0.000000 0.000000 0.000000 0.000000 0.014465
#
#
# Mechanical properties :
#
#
# Convention : Reuss Voigt Hill
#
# Bulk Modulus (GPa) = 19.37761 63.90846 41.64303
# Shear Modulus (GPa) = 33.62009 52.65875 43.13942
#
# Velocity S-wave (km/s) = 3.72854 4.66632 4.22353
# Velocity P-wave (km/s) = 5.15254 7.44708 6.40342
#
# Compressibility (1/GPa) = 0.05160596
#
# Stress axis : x y z
#
# Youngs Moduli (GPa) = 127.06657 159.63676 21.57290
#
# Poissons Ratio (x) = 0.49504 -0.10754
# Poissons Ratio (y) = 0.39404 0.13645
# Poissons Ratio (z) = -0.63340 1.00971
#
# Static dielectric constant tensor:
#      x y z
#    x 1.915260 0.000000 0.000000 
#    y 0.000000 1.935680 0.000000 
#    z 0.000000 0.000000 2.235810 
# 
# From -- ./inp_files/6223.got.cif
#   From: 2010.05.17/outbox.cif.g08.bks.cpg/sg43_4_cif.got.tgz:6223.got - 2010.06.03 19:21:55.
