data_PCOD9371008
_publ_section_title
;
Structure prediction by ZEFSAII (Michael W. Deem and Ramdas Pophale) SiO2 
 PCOD9371008
Probable space group: F D D 2
;
_chemical_formula_sum "Si O2"
_cell_formula_units_Z 112
_cell_length_a 14.677511
_cell_length_b 29.695918
_cell_length_c 10.305294
_cell_angle_alpha 90.000000
_cell_angle_beta 90.000000
_cell_angle_gamma 90.000000
_cell_volume 4491.687734
_symmetry_space_group_name_H-M "F D D 2"
_symmetry_group_IT_number 43
_symmetry_cell_setting 'orthorhombic'
loop_
_space_group_symop_operation_xyz
x,y,z
-x,-y,z
1/4-x,1/4+y,1/4+z
1/4+x,1/4-y,1/4+z
x,1/2+y,1/2+z
-x,1/2-y,1/2+z
1/4-x,3/4+y,3/4+z
1/4+x,3/4-y,3/4+z
1/2+x,y,1/2+z
1/2-x,-y,1/2+z
3/4-x,1/4+y,3/4+z
3/4+x,1/4-y,3/4+z
1/2+x,1/2+y,z
1/2-x,1/2-y,z
3/4-x,3/4+y,1/4+z
3/4+x,3/4-y,1/4+z
loop_
_atom_site_type_symbol
_atom_site_label
_atom_site_fract_x
_atom_site_fract_y
_atom_site_fract_z
Si Si1 0.808068 0.682018 0.110810
Si Si2 0.161106 0.561104 0.002472
Si Si3 0.250000 0.750000 0.221433
Si Si4 0.297948 0.510442 0.821646
Si Si5 0.327951 0.115464 0.572956
Si Si6 0.115056 0.898603 0.773006
Si Si7 0.500000 0.500000 0.041749
Si Si8 0.869897 0.782850 0.488164
O O1 0.871335 0.725076 0.090810
O O2 0.859390 0.641891 0.180278
O O3 0.741521 0.660005 0.006913
O O4 0.736438 0.705767 0.208354
O O5 0.242650 0.529684 0.946230
O O6 0.221530 0.598444 0.080189
O O7 0.110137 0.587571 0.885286
O O8 0.076896 0.529032 0.049078
O O9 0.187104 0.720572 0.121327
O O10 0.330523 0.555083 0.747344
O O11 0.223117 0.480184 0.755208
O O12 0.357300 0.115188 0.421187
O O13 0.382200 0.079715 0.663186
O O14 0.417745 0.494684 0.140715
#
# Coordination Sequence:
#
# PCOD9371008 Si02
#       8
#    16  16   8  16  16  16   8  16
#     4  12  23  42  67  95 135 175 225 279 339 398
#     4  10  21  36  60  92 130 166 212 275 322 397
#     4   9  20  36  58  89 126 174 203 254 328 388
#     4  10  22  41  60  95 138 172 216 277 338 398
#     4  11  20  37  60  98 126 160 217 275 324 386
#     4  11  23  38  66 100 128 172 228 282 327 407
#     4  11  20  36  66  99 124 172 211 278 334 386
#     4  10  21  35  64  92 130 169 209 267 335 389
#
# _framework density 24.934949
#
# number of rings (size 3 to 8) (size 9 to 14) (size 15 to 20)
#    0.000    1.429    2.857    3.429    8.000    0.000 
#    0.000    4.286    3.143    0.000    0.000    0.000 
#    0.000    0.000    0.000    0.000    0.000    0.000 
#
# Total GULP energy -156282.335746 kJ/mol
# GULP energy per Si atom -5581.511991 kJ/mol
# Density = 2.487820 g / cm^3
# Si number density = 24.934949 Si / 1000 Ang^3
#
#
#
# Elastic Constant Matrix: (Units=GPa)
#
#
# Indices 1 2 3 4 5 6 
#
# 1 140.1011 53.6685 19.5762 0.0000 0.0000 0.0000
# 2 53.6685 122.0340 23.7681 0.0000 0.0000 0.0000
# 3 19.5762 23.7681 40.1612 0.0000 0.0000 0.0000
# 4 0.0000 0.0000 0.0000 11.9324 0.0000 0.0000
# 5 0.0000 0.0000 0.0000 0.0000 10.5955 0.0000
# 6 0.0000 0.0000 0.0000 0.0000 0.0000 16.2457
#
#
#
# Elastic Compliance Matrix: (Units=1/GPa)
#
#
# Indices 1 2 3 4 5 6 
#
# 1 0.008760 -0.003414 -0.002249 0.000000 0.000000 0.000000
# 2 -0.003414 0.010593 -0.004605 0.000000 0.000000 0.000000
# 3 -0.002249 -0.004605 0.028721 0.000000 0.000000 0.000000
# 4 0.000000 0.000000 0.000000 0.083806 0.000000 0.000000
# 5 0.000000 0.000000 0.000000 0.000000 0.094380 0.000000
# 6 0.000000 0.000000 0.000000 0.000000 0.000000 0.061555
#
#
# Mechanical properties :
#
#
# Convention : Reuss Voigt Hill
#
# Bulk Modulus (GPa) = 36.31446 55.14688 45.73067
# Shear Modulus (GPa) = 15.74654 21.44028 18.59341
#
# Velocity S-wave (km/s) = 2.51570 2.93550 2.73367
# Velocity P-wave (km/s) = 4.79934 5.80119 5.32388
#
# Compressibility (1/GPa) = 0.02753724
#
# Stress axis : x y z
#
# Youngs Moduli (GPa) = 114.15610 94.40303 34.81748
#
# Poissons Ratio (x) = 0.32233 0.07831
# Poissons Ratio (y) = 0.38977 0.16033
# Poissons Ratio (z) = 0.25677 0.43470
#
# Static dielectric constant tensor:
#      x y z
#    x 2.240670 0.000000 0.000000 
#    y 0.000000 1.959340 0.000000 
#    z 0.000000 0.000000 2.124630 
# 
# From -- ./inp_files/10287.got.cif
#   From: 2010.05.17/outbox.cif.g08.bks.cpg/sg43_6_cif.got.tgz:10287.got - 2010.06.03 19:21:55.
