data_PCOD9371266
_publ_section_title
;
Structure prediction by ZEFSAII (Michael W. Deem and Ramdas Pophale) SiO2 
 PCOD9371266
Probable space group: F D D 2
;
_chemical_formula_sum "Si O2"
_cell_formula_units_Z 56
_cell_length_a 7.724358
_cell_length_b 22.279750
_cell_length_c 16.406971
_cell_angle_alpha 90.000000
_cell_angle_beta 90.000000
_cell_angle_gamma 90.000000
_cell_volume 2823.586635
_symmetry_space_group_name_H-M "F D D 2"
_symmetry_group_IT_number 43
_symmetry_cell_setting 'orthorhombic'
loop_
_space_group_symop_operation_xyz
x,y,z
-x,-y,z
1/4-x,1/4+y,1/4+z
1/4+x,1/4-y,1/4+z
x,1/2+y,1/2+z
-x,1/2-y,1/2+z
1/4-x,3/4+y,3/4+z
1/4+x,3/4-y,3/4+z
1/2+x,y,1/2+z
1/2-x,-y,1/2+z
3/4-x,1/4+y,3/4+z
3/4+x,1/4-y,3/4+z
1/2+x,1/2+y,z
1/2-x,1/2-y,z
3/4-x,3/4+y,1/4+z
3/4+x,3/4-y,1/4+z
loop_
_atom_site_type_symbol
_atom_site_label
_atom_site_fract_x
_atom_site_fract_y
_atom_site_fract_z
Si Si1 0.854141 0.954613 0.232660
Si Si2 0.559525 0.228357 0.319364
Si Si3 0.154399 0.141415 0.106264
Si Si4 0.750000 0.750000 0.205950
O O1 0.735351 0.988405 0.164950
O O2 0.930266 0.900746 0.176298
O O3 0.735608 0.924265 0.300658
O O4 0.000000 0.000000 0.262959
O O5 0.750000 0.250000 0.299999
O O6 0.523215 0.156865 0.308976
O O7 0.415029 0.259137 0.263619
O O8 0.267990 0.191845 0.149947
#
# Coordination Sequence:
#
# PCOD9371266 Si02
#       4
#    16  16  16   8
#     4  10  21  42  70 102 142 182 229 287 350 408
#     4  10  21  43  69  98 138 184 227 287 348 409
#     4  10  22  41  69 100 143 180 228 294 341 415
#     4  12  22  46  68  98 150 174 234 298 340 414
#
# _framework density 19.832932
#
# number of rings (size 3 to 8) (size 9 to 14) (size 15 to 20)
#    1.714    0.000    4.286    0.000    2.000    1.143 
#    5.143    5.714    0.000    0.000    0.000    0.000 
#    0.000    0.000    0.000    0.000    0.000    0.000 
#
# Total GULP energy -77961.117127 kJ/mol
# GULP energy per Si atom -5568.651223 kJ/mol
# Density = 1.978779 g / cm^3
# Si number density = 19.832932 Si / 1000 Ang^3
#
#
#
# Elastic Constant Matrix: (Units=GPa)
#
#
# Indices 1 2 3 4 5 6 
#
# 1 142.7164 42.4992 45.2027 0.0000 0.0000 0.0000
# 2 42.4992 85.0407 16.1113 0.0000 0.0000 0.0000
# 3 45.2027 16.1113 72.8919 0.0000 0.0000 0.0000
# 4 0.0000 0.0000 0.0000 40.9337 0.0000 0.0000
# 5 0.0000 0.0000 0.0000 0.0000 -0.6025 0.0000
# 6 0.0000 0.0000 0.0000 0.0000 0.0000 30.8313
#
#
#
# Elastic Compliance Matrix: (Units=1/GPa)
#
#
# Indices 1 2 3 4 5 6 
#
# 1 0.009831 -0.003922 -0.005230 0.000000 0.000000 0.000000
# 2 -0.003922 0.013838 -0.000626 0.000000 0.000000 0.000000
# 3 -0.005230 -0.000626 0.017101 0.000000 0.000000 0.000000
# 4 0.000000 0.000000 0.000000 0.024430 0.000000 0.000000
# 5 0.000000 0.000000 0.000000 0.000000 -1.659761 0.000000
# 6 0.000000 0.000000 0.000000 0.000000 0.000000 0.032435
#
#
# Mechanical properties :
#
#
# Convention : Reuss Voigt Hill
#
# Bulk Modulus (GPa) = 47.14080 56.47506 51.80793
# Shear Modulus (GPa) = -3.25627 27.35488 12.04931
#
# Velocity S-wave (km/s) = -1.28274 3.71788 2.46751
# Velocity P-wave (km/s) = 4.65045 6.85327 5.85636
#
# Compressibility (1/GPa) = 0.02121305
#
# Stress axis : x y z
#
# Youngs Moduli (GPa) = 101.71487 72.26503 58.47769
#
# Poissons Ratio (x) = 0.28346 0.30583
# Poissons Ratio (y) = 0.39897 0.03662
# Poissons Ratio (z) = 0.53195 0.04525
#
# Static dielectric constant tensor:
#      x y z
#    x 1.663820 0.000000 0.000000 
#    y 0.000000 1.721610 0.000000 
#    z 0.000000 0.000000 1.721760 
# 
# From -- ./inp_files/12076.got.cif
#   From: 2010.05.17/outbox.cif.g08.bks.cpg/sg43_7_cif.got.tgz:12076.got - 2010.06.03 19:21:55.
