data_PCOD9371596
_publ_section_title
;
Structure prediction by ZEFSAII (Michael W. Deem and Ramdas Pophale) SiO2 
 PCOD9371596
Probable space group: F D D 2
;
_chemical_formula_sum "Si O2"
_cell_formula_units_Z 88
_cell_length_a 5.368749
_cell_length_b 26.538784
_cell_length_c 27.854347
_cell_angle_alpha 90.000000
_cell_angle_beta 90.000000
_cell_angle_gamma 90.000000
_cell_volume 3968.689312
_symmetry_space_group_name_H-M "F D D 2"
_symmetry_group_IT_number 43
_symmetry_cell_setting 'orthorhombic'
loop_
_space_group_symop_operation_xyz
x,y,z
-x,-y,z
1/4-x,1/4+y,1/4+z
1/4+x,1/4-y,1/4+z
x,1/2+y,1/2+z
-x,1/2-y,1/2+z
1/4-x,3/4+y,3/4+z
1/4+x,3/4-y,3/4+z
1/2+x,y,1/2+z
1/2-x,-y,1/2+z
3/4-x,1/4+y,3/4+z
3/4+x,1/4-y,3/4+z
1/2+x,1/2+y,z
1/2-x,1/2-y,z
3/4-x,3/4+y,1/4+z
3/4+x,3/4-y,1/4+z
loop_
_atom_site_type_symbol
_atom_site_label
_atom_site_fract_x
_atom_site_fract_y
_atom_site_fract_z
Si Si1 0.753047 0.583897 0.320410
Si Si2 0.000000 0.500000 0.260635
Si Si3 0.000000 0.500000 0.876322
Si Si4 0.500000 0.000000 0.438284
Si Si5 0.141011 0.683282 0.774793
Si Si6 0.250000 0.750000 0.326125
Si Si7 0.250000 0.250000 0.448319
Si Si8 0.318372 0.427174 0.119546
O O1 0.948935 0.548351 0.293963
O O2 0.545118 0.548773 0.343550
O O3 0.632295 0.623502 0.282926
O O4 0.887570 0.618315 0.361217
O O5 0.748675 0.494362 0.229745
O O6 0.250618 0.496095 0.907289
O O7 0.517288 0.951997 0.473789
O O8 0.330107 0.698197 0.818003
O O9 0.898056 0.714153 0.788624
O O10 0.306002 0.795090 0.365762
O O11 0.287561 0.201831 0.413411
#
# Coordination Sequence:
#
# PCOD9371596 Si02
#       8
#    16   8   8   8  16   8   8  16
#     4  10  26  52  66 100 148 208 232 282 388 442
#     4  12  28  46  75 101 154 189 245 300 357 433
#     4  12  28  46  75 101 154 189 245 300 357 433
#     4  12  24  44  74 116 136 181 251 318 342 416
#     4  10  22  42  71 104 143 190 234 292 368 434
#     4  12  16  38  76 108 140 188 230 302 360 438
#     4  12  24  44  74 116 136 181 251 318 342 416
#     4  10  22  42  71 104 143 190 234 292 368 434
#
# _framework density 22.173566000000001
#
# number of rings (size 3 to 8) (size 9 to 14) (size 15 to 20)
#    1.091    0.000    3.636    2.182    0.000    7.273 
#    0.000    0.000    0.000    0.000    0.000    0.000 
#    0.000    0.000    0.000    0.000    0.000    0.000 
#
# Total GULP energy -122579.779168 kJ/mol
# GULP energy per Si atom -5571.808144 kJ/mol
# Density = 2.212310 g / cm^3
# Si number density = 22.173566 Si / 1000 Ang^3
#
#
#
# Elastic Constant Matrix: (Units=GPa)
#
#
# Indices 1 2 3 4 5 6 
#
# 1 103.0294 51.6093 70.2850 0.0000 0.0000 0.0000
# 2 51.6093 191.6736 74.0070 0.0000 0.0000 0.0000
# 3 70.2850 74.0070 119.2091 0.0000 0.0000 0.0000
# 4 0.0000 0.0000 0.0000 -13.8452 0.0000 0.0000
# 5 0.0000 0.0000 0.0000 0.0000 15.3205 0.0000
# 6 0.0000 0.0000 0.0000 0.0000 0.0000 37.6193
#
#
#
# Elastic Compliance Matrix: (Units=1/GPa)
#
#
# Indices 1 2 3 4 5 6 
#
# 1 0.016352 -0.000895 -0.009086 0.000000 0.000000 0.000000
# 2 -0.000895 0.006911 -0.003763 0.000000 0.000000 0.000000
# 3 -0.009086 -0.003763 0.016082 0.000000 0.000000 0.000000
# 4 0.000000 0.000000 0.000000 -0.072227 0.000000 0.000000
# 5 0.000000 0.000000 0.000000 0.000000 0.065272 0.000000
# 6 0.000000 0.000000 0.000000 0.000000 0.000000 0.026582
#
#
# Mechanical properties :
#
#
# Convention : Reuss Voigt Hill
#
# Bulk Modulus (GPa) = 84.33102 89.52386 86.92744
# Shear Modulus (GPa) = 55.30287 22.35298 38.82793
#
# Velocity S-wave (km/s) = 4.99950 3.17849 4.18914
# Velocity P-wave (km/s) = 8.45231 7.34385 7.91750
#
# Compressibility (1/GPa) = 0.01185803
#
# Stress axis : x y z
#
# Youngs Moduli (GPa) = 61.15327 144.69615 62.18314
#
# Poissons Ratio (x) = 0.12949 0.56498
# Poissons Ratio (y) = 0.05473 0.23399
# Poissons Ratio (z) = 0.55562 0.54447
#
# Static dielectric constant tensor:
#      x y z
#    x 2.022300 0.000000 0.000000 
#    y 0.000000 2.271980 0.000000 
#    z 0.000000 0.000000 1.860470 
# 
# From -- ./inp_files/23646.got.cif
#   From: 2010.05.17/outbox.cif.g08.bks.cpg/sg43_12_cif.got.tgz:23646.got - 2010.06.03 19:21:55.
