data_PCOD9371122
_publ_section_title
;
Structure prediction by ZEFSAII (Michael W. Deem and Ramdas Pophale) SiO2 
 PCOD9371122
Probable space group: F D D 2
;
_chemical_formula_sum "Si O2"
_cell_formula_units_Z 104
_cell_length_a 14.968588
_cell_length_b 15.882845
_cell_length_c 21.757487
_cell_angle_alpha 90.000000
_cell_angle_beta 90.000000
_cell_angle_gamma 90.000000
_cell_volume 5172.706834
_symmetry_space_group_name_H-M "F D D 2"
_symmetry_group_IT_number 43
_symmetry_cell_setting 'orthorhombic'
loop_
_space_group_symop_operation_xyz
x,y,z
-x,-y,z
1/4-x,1/4+y,1/4+z
1/4+x,1/4-y,1/4+z
x,1/2+y,1/2+z
-x,1/2-y,1/2+z
1/4-x,3/4+y,3/4+z
1/4+x,3/4-y,3/4+z
1/2+x,y,1/2+z
1/2-x,-y,1/2+z
3/4-x,1/4+y,3/4+z
3/4+x,1/4-y,3/4+z
1/2+x,1/2+y,z
1/2-x,1/2-y,z
3/4-x,3/4+y,1/4+z
3/4+x,3/4-y,1/4+z
loop_
_atom_site_type_symbol
_atom_site_label
_atom_site_fract_x
_atom_site_fract_y
_atom_site_fract_z
Si Si1 0.262420 0.156026 0.880840
Si Si2 0.760495 0.013841 0.291460
Si Si3 0.809194 0.329336 0.992971
Si Si4 0.706819 0.559731 0.607463
Si Si5 0.250000 0.750000 0.752928
Si Si6 0.661597 0.911201 0.193463
Si Si7 0.658042 0.644504 0.357670
O O1 0.250000 0.250000 0.854657
O O2 0.226200 0.087693 0.833958
O O3 0.369025 0.145925 0.887897
O O4 0.194886 0.151976 0.937460
O O5 0.838831 0.050664 0.249535
O O6 0.686572 0.970682 0.250279
O O7 0.809512 0.944859 0.333200
O O8 0.750000 0.250000 0.016007
O O9 0.789102 0.341043 0.921210
O O10 0.800310 0.412552 0.035427
O O11 0.697943 0.463828 0.633521
O O12 0.803589 0.596991 0.622613
O O13 0.291836 0.677047 0.710322
O O14 0.319731 0.792096 0.801223
#
# Coordination Sequence:
#
# PCOD9371122 Si02
#       7
#    16  16  16  16   8  16  16
#     4   9  21  42  64  91 135 169 218 264 323 403
#     4  10  21  39  68  93 129 170 213 276 329 387
#     4  11  20  37  64  96 130 159 211 278 331 386
#     4  10  21  39  68  94 131 172 214 277 327 396
#     4  10  24  40  68  98 134 178 216 282 332 402
#     4  10  21  45  63  92 138 165 224 269 326 407
#     4  11  21  38  64 103 127 166 223 272 344 383
#
# _framework density 20.105528
#
# number of rings (size 3 to 8) (size 9 to 14) (size 15 to 20)
#    0.000    1.846    3.846    0.000    0.000    1.231 
#    5.538   23.846    0.000    0.000    0.000    0.000 
#    0.000    0.000    0.000    0.000    0.000    0.000 
#
# Total GULP energy -144741.655043 kJ/mol
# GULP energy per Si atom -5566.986732 kJ/mol
# Density = 2.005977 g / cm^3
# Si number density = 20.105528 Si / 1000 Ang^3
#
#
#
# Elastic Constant Matrix: (Units=GPa)
#
#
# Indices 1 2 3 4 5 6 
#
# 1 106.8375 34.1073 42.8005 0.0000 0.0000 0.0000
# 2 34.1073 123.4482 72.7379 0.0000 0.0000 0.0000
# 3 42.8005 72.7379 100.2523 0.0000 0.0000 0.0000
# 4 0.0000 0.0000 0.0000 -36.3036 0.0000 0.0000
# 5 0.0000 0.0000 0.0000 0.0000 29.7310 0.0000
# 6 0.0000 0.0000 0.0000 0.0000 0.0000 9.7320
#
#
#
# Elastic Compliance Matrix: (Units=1/GPa)
#
#
# Indices 1 2 3 4 5 6 
#
# 1 0.011308 -0.000489 -0.004473 0.000000 0.000000 0.000000
# 2 -0.000489 0.014171 -0.010073 0.000000 0.000000 0.000000
# 3 -0.004473 -0.010073 0.019193 0.000000 0.000000 0.000000
# 4 0.000000 0.000000 0.000000 -0.027545 0.000000 0.000000
# 5 0.000000 0.000000 0.000000 0.000000 0.033635 0.000000
# 6 0.000000 0.000000 0.000000 0.000000 0.000000 0.102754
#
#
# Mechanical properties :
#
#
# Convention : Reuss Voigt Hill
#
# Bulk Modulus (GPa) = 68.48270 69.98103 69.23187
# Shear Modulus (GPa) = 26.53198 12.69136 19.61167
#
# Velocity S-wave (km/s) = 3.63662 2.51517 3.12659
# Velocity P-wave (km/s) = 7.19506 6.58158 6.89515
#
# Compressibility (1/GPa) = 0.01460223
#
# Stress axis : x y z
#
# Youngs Moduli (GPa) = 88.43284 70.56811 52.10239
#
# Poissons Ratio (x) = 0.03448 0.23307
# Poissons Ratio (y) = 0.04321 0.52482
# Poissons Ratio (z) = 0.39558 0.71083
#
# Static dielectric constant tensor:
#      x y z
#    x 1.732180 0.000000 0.000000 
#    y 0.000000 1.796770 0.000000 
#    z 0.000000 0.000000 1.724520 
# 
# From -- ./inp_files/14257.got.cif
#   From: 2010.05.17/outbox.cif.g08.bks.cpg/sg43_8_cif.got.tgz:14257.got - 2010.06.03 19:21:55.
