data_PCOD9371287
_publ_section_title
;
Structure prediction by ZEFSAII (Michael W. Deem and Ramdas Pophale) SiO2 
 PCOD9371287
Probable space group: F D D 2
;
_chemical_formula_sum "Si O2"
_cell_formula_units_Z 80
_cell_length_a 5.304853
_cell_length_b 25.249098
_cell_length_c 23.250769
_cell_angle_alpha 90.000000
_cell_angle_beta 90.000000
_cell_angle_gamma 90.000000
_cell_volume 3114.272016
_symmetry_space_group_name_H-M "F D D 2"
_symmetry_group_IT_number 43
_symmetry_cell_setting 'orthorhombic'
loop_
_space_group_symop_operation_xyz
x,y,z
-x,-y,z
1/4-x,1/4+y,1/4+z
1/4+x,1/4-y,1/4+z
x,1/2+y,1/2+z
-x,1/2-y,1/2+z
1/4-x,3/4+y,3/4+z
1/4+x,3/4-y,3/4+z
1/2+x,y,1/2+z
1/2-x,-y,1/2+z
3/4-x,1/4+y,3/4+z
3/4+x,1/4-y,3/4+z
1/2+x,1/2+y,z
1/2-x,1/2-y,z
3/4-x,3/4+y,1/4+z
3/4+x,3/4-y,1/4+z
loop_
_atom_site_type_symbol
_atom_site_label
_atom_site_fract_x
_atom_site_fract_y
_atom_site_fract_z
Si Si1 0.022924 0.415942 0.275740
Si Si2 0.572907 0.122906 0.865839
Si Si3 0.756022 0.468489 0.371825
Si Si4 0.961711 0.056090 0.550977
Si Si5 0.332053 0.449465 0.169984
O O1 0.245973 0.411251 0.323970
O O2 0.123954 0.438883 0.217283
O O3 0.821249 0.454874 0.305316
O O4 0.915627 0.356379 0.270675
O O5 0.331747 0.090781 0.889359
O O6 0.470612 0.170502 0.826274
O O7 0.739440 0.147926 0.915718
O O8 0.500000 0.500000 0.380226
O O9 0.000000 0.500000 0.395793
O O10 0.793040 0.044037 0.607365
O O11 0.000000 0.000000 0.519569
O O12 0.500000 0.500000 0.183404
#
# Coordination Sequence:
#
# PCOD9371287 Si02
#       5
#    16  16  16  16  16
#     4  10  24  39  70 109 146 188 250 311 380 449
#     4  10  22  42  66 103 147 193 240 308 378 447
#     4  11  22  41  68 100 146 199 243 297 386 449
#     4  10  21  43  68 102 150 198 244 309 384 450
#     4  11  23  41  70 109 147 192 264 318 374 455
#
# _framework density 25.688184
#
# number of rings (size 3 to 8) (size 9 to 14) (size 15 to 20)
#    0.000    1.600    4.000    0.000    2.800    4.000 
#    0.000    0.000    0.000   28.800    0.000    0.000 
#    0.000    0.000    0.000    0.000    0.000    0.000 
#
# Total GULP energy -111980.485740 kJ/mol
# GULP energy per Si atom -5599.024287 kJ/mol
# Density = 2.562972 g / cm^3
# Si number density = 25.688184 Si / 1000 Ang^3
#
#
#
# Elastic Constant Matrix: (Units=GPa)
#
#
# Indices 1 2 3 4 5 6 
#
# 1 131.6797 31.1494 25.5158 0.0000 0.0000 0.0000
# 2 31.1494 101.0441 20.5196 0.0000 0.0000 0.0000
# 3 25.5158 20.5196 94.1908 0.0000 0.0000 0.0000
# 4 0.0000 0.0000 0.0000 1.8124 0.0000 0.0000
# 5 0.0000 0.0000 0.0000 0.0000 19.3737 0.0000
# 6 0.0000 0.0000 0.0000 0.0000 0.0000 69.3921
#
#
#
# Elastic Compliance Matrix: (Units=1/GPa)
#
#
# Indices 1 2 3 4 5 6 
#
# 1 0.008476 -0.002246 -0.001807 0.000000 0.000000 0.000000
# 2 -0.002246 0.010950 -0.001777 0.000000 0.000000 0.000000
# 3 -0.001807 -0.001777 0.011493 0.000000 0.000000 0.000000
# 4 0.000000 0.000000 0.000000 0.551756 0.000000 0.000000
# 5 0.000000 0.000000 0.000000 0.000000 0.051616 0.000000
# 6 0.000000 0.000000 0.000000 0.000000 0.000000 0.014411
#
#
# Mechanical properties :
#
#
# Convention : Reuss Voigt Hill
#
# Bulk Modulus (GPa) = 51.92261 53.47603 52.69932
# Shear Modulus (GPa) = 7.49872 34.76430 21.13151
#
# Velocity S-wave (km/s) = 1.71040 3.68274 2.87124
# Velocity P-wave (km/s) = 4.91499 6.24067 5.61708
#
# Compressibility (1/GPa) = 0.01925943
#
# Stress axis : x y z
#
# Youngs Moduli (GPa) = 117.98639 91.32507 87.00713
#
# Poissons Ratio (x) = 0.20511 0.15720
# Poissons Ratio (y) = 0.26499 0.15462
# Poissons Ratio (z) = 0.21317 0.16229
#
# Static dielectric constant tensor:
#      x y z
#    x 2.061750 0.000000 0.000000 
#    y 0.000000 2.122020 0.000000 
#    z 0.000000 0.000000 1.975060 
# 
# From -- ./inp_files/27306.got.cif
#   From: 2010.05.17/outbox.cif.g08.bks.cpg/sg43_14_cif.got.tgz:27306.got - 2010.06.03 19:21:55.
