data_PCOD9371860
_publ_section_title
;
Structure prediction by ZEFSAII (Michael W. Deem and Ramdas Pophale) SiO2 
 PCOD9371860
Probable space group: F D D 2
;
_chemical_formula_sum "Si O2"
_cell_formula_units_Z 48
_cell_length_a 9.722022
_cell_length_b 10.575896
_cell_length_c 15.787470
_cell_angle_alpha 90.000000
_cell_angle_beta 90.000000
_cell_angle_gamma 90.000000
_cell_volume 1623.253355
_symmetry_space_group_name_H-M "F D D 2"
_symmetry_group_IT_number 43
_symmetry_cell_setting 'orthorhombic'
loop_
_space_group_symop_operation_xyz
x,y,z
-x,-y,z
1/4-x,1/4+y,1/4+z
1/4+x,1/4-y,1/4+z
x,1/2+y,1/2+z
-x,1/2-y,1/2+z
1/4-x,3/4+y,3/4+z
1/4+x,3/4-y,3/4+z
1/2+x,y,1/2+z
1/2-x,-y,1/2+z
3/4-x,1/4+y,3/4+z
3/4+x,1/4-y,3/4+z
1/2+x,1/2+y,z
1/2-x,1/2-y,z
3/4-x,3/4+y,1/4+z
3/4+x,3/4-y,1/4+z
loop_
_atom_site_type_symbol
_atom_site_label
_atom_site_fract_x
_atom_site_fract_y
_atom_site_fract_z
Si Si1 0.237365 0.116577 0.673320
Si Si2 0.250000 0.750000 0.740433
Si Si3 0.487415 0.366579 0.817846
Si Si4 0.000000 0.000000 0.250724
O O1 0.250000 0.250000 0.615522
O O2 0.187699 0.999991 0.620582
O O3 0.124949 0.124996 0.745568
O O4 0.385850 0.094107 0.708984
O O5 0.364076 0.655878 0.782222
O O6 0.124971 0.625021 0.745565
O O7 0.500000 0.500000 0.875645
#
# Coordination Sequence:
#
# PCOD9371860 Si02
#       4
#    16   8  16   8
#     4  10  23  42  76 101 140 190 237 290 362 423
#     4  10  23  46  74  98 145 188 236 292 361 422
#     4  10  23  42  76 101 140 190 237 290 362 423
#     4  10  23  46  74  98 145 188 236 292 361 422
#
# _framework density 29.570245
#
# number of rings (size 3 to 8) (size 9 to 14) (size 15 to 20)
#    2.000    0.000    0.000    3.000    0.000    2.667 
#    0.000    0.000    0.000    0.000    0.000    0.000 
#    0.000    0.000    0.000    0.000    0.000    0.000 
#
# Total GULP energy -66859.784746 kJ/mol
# GULP energy per Si atom -5571.648729 kJ/mol
# Density = 2.950294 g / cm^3
# Si number density = 29.570245 Si / 1000 Ang^3
#
#
#
# Elastic Constant Matrix: (Units=GPa)
#
#
# Indices 1 2 3 4 5 6 
#
# 1 291.3789 89.0114 138.8997 0.0000 0.0000 0.0000
# 2 89.0114 338.7531 167.7060 0.0000 0.0000 0.0000
# 3 138.8997 167.7060 273.2124 0.0000 0.0000 0.0000
# 4 0.0000 0.0000 0.0000 104.3584 0.0000 0.0000
# 5 0.0000 0.0000 0.0000 0.0000 77.9451 0.0000
# 6 0.0000 0.0000 0.0000 0.0000 0.0000 53.3642
#
#
#
# Elastic Compliance Matrix: (Units=1/GPa)
#
#
# Indices 1 2 3 4 5 6 
#
# 1 0.004531 -0.000072 -0.002259 0.000000 0.000000 0.000000
# 2 -0.000072 0.004242 -0.002567 0.000000 0.000000 0.000000
# 3 -0.002259 -0.002567 0.006385 0.000000 0.000000 0.000000
# 4 0.000000 0.000000 0.000000 0.009582 0.000000 0.000000
# 5 0.000000 0.000000 0.000000 0.000000 0.012830 0.000000
# 6 0.000000 0.000000 0.000000 0.000000 0.000000 0.018739
#
#
# Mechanical properties :
#
#
# Convention : Reuss Voigt Hill
#
# Bulk Modulus (GPa) = 186.55346 188.28652 187.41999
# Shear Modulus (GPa) = 73.64617 80.98204 77.31410
#
# Velocity S-wave (km/s) = 4.99596 5.23887 5.11885
# Velocity P-wave (km/s) = 9.82368 10.02033 9.92249
#
# Compressibility (1/GPa) = 0.00536039
#
# Stress axis : x y z
#
# Youngs Moduli (GPa) = 220.70342 235.74643 156.62815
#
# Poissons Ratio (x) = 0.01699 0.35387
# Poissons Ratio (y) = 0.01591 0.40209
# Poissons Ratio (z) = 0.49863 0.60519
#
# Static dielectric constant tensor:
#      x y z
#    x 2.215280 0.000000 0.000000 
#    y 0.000000 3.135390 0.000000 
#    z 0.000000 0.000000 5.189990 
# 
# From -- ./inp_files/2102.got.cif
#   From: 2010.05.17/outbox.cif.g08.bks.cpg/sg43_2_cif.got.tgz:2102.got - 2010.06.03 19:21:55.
