data_PCOD9371261
_publ_section_title
;
Structure prediction by ZEFSAII (Michael W. Deem and Ramdas Pophale) SiO2 
 PCOD9371261
Probable space group: F D D 2
;
_chemical_formula_sum "Si O2"
_cell_formula_units_Z 96
_cell_length_a 10.423194
_cell_length_b 16.433210
_cell_length_c 23.460685
_cell_angle_alpha 90.000000
_cell_angle_beta 90.000000
_cell_angle_gamma 90.000000
_cell_volume 4018.499463
_symmetry_space_group_name_H-M "F D D 2"
_symmetry_group_IT_number 43
_symmetry_cell_setting 'orthorhombic'
loop_
_space_group_symop_operation_xyz
x,y,z
-x,-y,z
1/4-x,1/4+y,1/4+z
1/4+x,1/4-y,1/4+z
x,1/2+y,1/2+z
-x,1/2-y,1/2+z
1/4-x,3/4+y,3/4+z
1/4+x,3/4-y,3/4+z
1/2+x,y,1/2+z
1/2-x,-y,1/2+z
3/4-x,1/4+y,3/4+z
3/4+x,1/4-y,3/4+z
1/2+x,1/2+y,z
1/2-x,1/2-y,z
3/4-x,3/4+y,1/4+z
3/4+x,3/4-y,1/4+z
loop_
_atom_site_type_symbol
_atom_site_label
_atom_site_fract_x
_atom_site_fract_y
_atom_site_fract_z
Si Si1 0.452982 0.913065 0.101320
Si Si2 0.506382 0.401491 0.754292
Si Si3 0.530824 0.594957 0.881279
Si Si4 0.522642 0.134025 0.972102
Si Si5 0.563926 0.588657 0.355413
Si Si6 0.294388 0.921829 0.736249
O O1 0.561842 0.853018 0.126617
O O2 0.303050 0.901607 0.111610
O O3 0.500000 0.000000 0.122641
O O4 0.453575 0.906863 0.032905
O O5 0.500000 0.500000 0.757731
O O6 0.497903 0.369600 0.818366
O O7 0.383013 0.374470 0.718566
O O8 0.649690 0.385831 0.734919
O O9 0.500000 0.500000 0.884513
O O10 0.426904 0.637172 0.923690
O O11 0.608540 0.096359 0.921390
O O12 0.548847 0.230325 0.981390
O O13 0.500000 0.500000 0.348797
O O14 0.643072 0.601390 0.297096
#
# Coordination Sequence:
#
# PCOD9371261 Si02
#       6
#    16  16  16  16  16  16
#     4  11  23  46  72 102 131 185 253 284 350 444
#     4   8  18  39  68  92 124 185 241 285 335 427
#     4  10  22  42  69  97 134 186 241 288 344 440
#     4  10  21  42  68  97 136 191 236 290 358 447
#     4  12  25  41  66 105 148 181 233 310 378 419
#     4  11  22  43  64 100 148 178 235 299 374 417
#
# _framework density 23.889513999999998
#
# number of rings (size 3 to 8) (size 9 to 14) (size 15 to 20)
#    0.000    1.667    1.667    3.500    0.000    2.667 
#   12.000    0.000    0.000    0.000    0.000    0.000 
#    0.000    0.000    0.000    0.000    0.000    0.000 
#
# Total GULP energy -133633.890473 kJ/mol
# GULP energy per Si atom -5568.078770 kJ/mol
# Density = 2.383514 g / cm^3
# Si number density = 23.889514 Si / 1000 Ang^3
#
#
#
# Elastic Constant Matrix: (Units=GPa)
#
#
# Indices 1 2 3 4 5 6 
#
# 1 45.2150 -1.1316 29.8267 0.0000 0.0000 0.0000
# 2 -1.1316 52.9136 4.9250 0.0000 0.0000 0.0000
# 3 29.8267 4.9250 184.6427 0.0000 0.0000 0.0000
# 4 0.0000 0.0000 0.0000 21.7313 0.0000 0.0000
# 5 0.0000 0.0000 0.0000 0.0000 28.6607 0.0000
# 6 0.0000 0.0000 0.0000 0.0000 0.0000 22.2534
#
#
#
# Elastic Compliance Matrix: (Units=1/GPa)
#
#
# Indices 1 2 3 4 5 6 
#
# 1 0.024798 0.000905 -0.004030 0.000000 0.000000 0.000000
# 2 0.000905 0.018979 -0.000652 0.000000 0.000000 0.000000
# 3 -0.004030 -0.000652 0.006084 0.000000 0.000000 0.000000
# 4 0.000000 0.000000 0.000000 0.046017 0.000000 0.000000
# 5 0.000000 0.000000 0.000000 0.000000 0.034891 0.000000
# 6 0.000000 0.000000 0.000000 0.000000 0.000000 0.044937
#
#
# Mechanical properties :
#
#
# Convention : Reuss Voigt Hill
#
# Bulk Modulus (GPa) = 23.63691 38.89017 31.26354
# Shear Modulus (GPa) = 25.33423 31.13915 28.23669
#
# Velocity S-wave (km/s) = 3.26003 3.61427 3.44171
# Velocity P-wave (km/s) = 4.90776 5.80791 5.37670
#
# Compressibility (1/GPa) = 0.04230671
#
# Stress axis : x y z
#
# Youngs Moduli (GPa) = 40.32651 52.69029 164.35884
#
# Poissons Ratio (x) = -0.04771 0.66235
# Poissons Ratio (y) = -0.03651 0.10724
# Poissons Ratio (z) = 0.16251 0.03438
#
# Static dielectric constant tensor:
#      x y z
#    x 1.978650 0.000000 0.000000 
#    y 0.000000 1.848510 0.000000 
#    z 0.000000 0.000000 2.184570 
# 
# From -- ./inp_files/21076.got.cif
#   From: 2010.05.17/outbox.cif.g08.bks.cpg/sg43_11_cif.got.tgz:21076.got - 2010.06.03 19:21:55.
