data_PCOD9371633
_publ_section_title
;
Structure prediction by ZEFSAII (Michael W. Deem and Ramdas Pophale) SiO2 
 PCOD9371633
Probable space group: F D D 2
;
_chemical_formula_sum "Si O2"
_cell_formula_units_Z 96
_cell_length_a 14.011780
_cell_length_b 21.430317
_cell_length_c 14.027270
_cell_angle_alpha 90.000000
_cell_angle_beta 90.000000
_cell_angle_gamma 90.000000
_cell_volume 4212.064971
_symmetry_space_group_name_H-M "F D D 2"
_symmetry_group_IT_number 43
_symmetry_cell_setting 'orthorhombic'
loop_
_space_group_symop_operation_xyz
x,y,z
-x,-y,z
1/4-x,1/4+y,1/4+z
1/4+x,1/4-y,1/4+z
x,1/2+y,1/2+z
-x,1/2-y,1/2+z
1/4-x,3/4+y,3/4+z
1/4+x,3/4-y,3/4+z
1/2+x,y,1/2+z
1/2-x,-y,1/2+z
3/4-x,1/4+y,3/4+z
3/4+x,1/4-y,3/4+z
1/2+x,1/2+y,z
1/2-x,1/2-y,z
3/4-x,3/4+y,1/4+z
3/4+x,3/4-y,1/4+z
loop_
_atom_site_type_symbol
_atom_site_label
_atom_site_fract_x
_atom_site_fract_y
_atom_site_fract_z
Si Si1 0.500000 0.500000 0.857410
Si Si2 0.022945 0.158445 0.197265
Si Si3 0.454681 0.784296 0.113120
Si Si4 0.741436 0.636381 0.234966
Si Si5 0.912102 0.912809 0.565261
Si Si6 0.250000 0.250000 0.668883
Si Si7 0.664807 0.987749 0.208233
O O1 0.583149 0.476233 0.787576
O O2 0.467964 0.444961 0.927548
O O3 0.018172 0.124806 0.094742
O O4 0.127159 0.143938 0.236179
O O5 0.006722 0.233200 0.179886
O O6 0.934087 0.138860 0.263000
O O7 0.452809 0.858071 0.132161
O O8 0.346626 0.759314 0.111228
O O9 0.505132 0.778620 0.011154
O O10 0.782551 0.575702 0.181292
O O11 0.983935 0.939192 0.485659
O O12 0.881723 0.973175 0.624885
#
# Coordination Sequence:
#
# PCOD9371633 Si02
#       7
#     8  16  16  16  16   8  16
#     4  12  25  48  73 108 152 204 256 327 383 476
#     4  10  25  46  72 107 149 196 251 309 386 454
#     4  10  22  43  68 105 140 187 236 307 364 446
#     4  11  24  51  69 109 151 196 263 309 387 475
#     4  11  24  43  71 107 149 193 245 306 374 455
#     4  10  23  42  65 106 136 188 242 291 367 428
#     4  11  26  45  73 111 145 200 251 309 390 451
#
# _framework density 22.791671999999998
#
# number of rings (size 3 to 8) (size 9 to 14) (size 15 to 20)
#    0.000    1.333    3.333    1.500    9.333    6.667 
#    3.000    0.000    0.000    0.000    0.000    0.000 
#    0.000    0.000    0.000    0.000    0.000    0.000 
#
# Total GULP energy -134146.956757 kJ/mol
# GULP energy per Si atom -5589.456532 kJ/mol
# Density = 2.273980 g / cm^3
# Si number density = 22.791672 Si / 1000 Ang^3
#
#
#
# Elastic Constant Matrix: (Units=GPa)
#
#
# Indices 1 2 3 4 5 6 
#
# 1 107.4030 9.9344 3.3214 0.0000 0.0000 0.0000
# 2 9.9344 119.5586 7.8330 0.0000 0.0000 0.0000
# 3 3.3214 7.8330 54.0281 0.0000 0.0000 0.0000
# 4 0.0000 0.0000 0.0000 24.5494 0.0000 0.0000
# 5 0.0000 0.0000 0.0000 0.0000 32.6386 0.0000
# 6 0.0000 0.0000 0.0000 0.0000 0.0000 35.7672
#
#
#
# Elastic Compliance Matrix: (Units=1/GPa)
#
#
# Indices 1 2 3 4 5 6 
#
# 1 0.009395 -0.000750 -0.000469 0.000000 0.000000 0.000000
# 2 -0.000750 0.008504 -0.001187 0.000000 0.000000 0.000000
# 3 -0.000469 -0.001187 0.018710 0.000000 0.000000 0.000000
# 4 0.000000 0.000000 0.000000 0.040734 0.000000 0.000000
# 5 0.000000 0.000000 0.000000 0.000000 0.030639 0.000000
# 6 0.000000 0.000000 0.000000 0.000000 0.000000 0.027959
#
#
# Mechanical properties :
#
#
# Convention : Reuss Voigt Hill
#
# Bulk Modulus (GPa) = 31.44908 35.90747 33.67828
# Shear Modulus (GPa) = 33.03598 35.91776 34.47687
#
# Velocity S-wave (km/s) = 3.81133 3.97409 3.89356
# Velocity P-wave (km/s) = 5.76166 6.07015 5.91791
#
# Compressibility (1/GPa) = 0.03179744
#
# Stress axis : x y z
#
# Youngs Moduli (GPa) = 106.44424 117.58935 53.44797
#
# Poissons Ratio (x) = 0.08818 0.02506
# Poissons Ratio (y) = 0.07982 0.06343
# Poissons Ratio (z) = 0.04990 0.13956
#
# Static dielectric constant tensor:
#      x y z
#    x 1.852040 0.000000 0.000000 
#    y 0.000000 1.892860 0.000000 
#    z 0.000000 0.000000 1.829210 
# 
# From -- ./inp_files/10102.got.cif
#   From: 2010.05.17/outbox.cif.g08.bks.cpg/sg43_6_cif.got.tgz:10102.got - 2010.06.03 19:21:55.
