data_PCOD9371667
_publ_section_title
;
Structure prediction by ZEFSAII (Michael W. Deem and Ramdas Pophale) SiO2 
 PCOD9371667
Probable space group: F D D 2
;
_chemical_formula_sum "Si O2"
_cell_formula_units_Z 104
_cell_length_a 26.827398
_cell_length_b 26.133315
_cell_length_c 6.872594
_cell_angle_alpha 90.000000
_cell_angle_beta 90.000000
_cell_angle_gamma 90.000000
_cell_volume 4818.298973
_symmetry_space_group_name_H-M "F D D 2"
_symmetry_group_IT_number 43
_symmetry_cell_setting 'orthorhombic'
loop_
_space_group_symop_operation_xyz
x,y,z
-x,-y,z
1/4-x,1/4+y,1/4+z
1/4+x,1/4-y,1/4+z
x,1/2+y,1/2+z
-x,1/2-y,1/2+z
1/4-x,3/4+y,3/4+z
1/4+x,3/4-y,3/4+z
1/2+x,y,1/2+z
1/2-x,-y,1/2+z
3/4-x,1/4+y,3/4+z
3/4+x,1/4-y,3/4+z
1/2+x,1/2+y,z
1/2-x,1/2-y,z
3/4-x,3/4+y,1/4+z
3/4+x,3/4-y,1/4+z
loop_
_atom_site_type_symbol
_atom_site_label
_atom_site_fract_x
_atom_site_fract_y
_atom_site_fract_z
Si Si1 0.963523 0.082290 0.908850
Si Si2 0.421395 0.259757 0.653258
Si Si3 0.250000 0.750000 0.080964
Si Si4 0.906163 0.188190 0.499941
Si Si5 0.574734 0.423165 0.345925
Si Si6 0.728377 0.050773 0.557857
Si Si7 0.436491 0.974142 0.457975
O O1 0.964510 0.139339 0.830063
O O2 0.018006 0.058337 0.872950
O O3 0.930172 0.031410 0.868802
O O4 0.949505 0.089754 0.136955
O O5 0.397259 0.218122 0.799190
O O6 0.376535 0.295870 0.580333
O O7 0.462973 0.291268 0.775857
O O8 0.450791 0.230788 0.478981
O O9 0.219731 0.706749 0.193748
O O10 0.293370 0.730108 0.930700
O O11 0.914528 0.129267 0.452700
O O12 0.953757 0.213331 0.601875
O O13 0.863059 0.194711 0.658988
#
# Coordination Sequence:
#
# PCOD9371667 Si02
#       7
#    16  16   8  16  16  16  16
#     4   9  19  42  70  92 132 170 223 278 343 400
#     4  12  26  45  66 100 141 180 234 278 342 416
#     4   8  18  44  70  94 140 174 222 288 346 402
#     4  12  24  42  68 100 133 177 229 280 345 408
#     4  10  22  44  67 102 130 172 234 285 338 410
#     4  12  24  45  64  93 139 186 220 284 339 408
#     4   8  18  38  67  94 125 169 214 279 336 401
#
# _framework density 21.584379999999999
#
# number of rings (size 3 to 8) (size 9 to 14) (size 15 to 20)
#    0.000    2.154    3.077    2.769    2.154    0.000 
#    5.538    1.538    0.000    0.000    0.000    0.000 
#    0.000    0.000    0.000    0.000    0.000    0.000 
#
# Total GULP energy -144818.761558 kJ/mol
# GULP energy per Si atom -5569.952368 kJ/mol
# Density = 2.153525 g / cm^3
# Si number density = 21.584380 Si / 1000 Ang^3
#
#
#
# Elastic Constant Matrix: (Units=GPa)
#
#
# Indices 1 2 3 4 5 6 
#
# 1 115.7661 47.3996 22.0667 -0.0069 0.0011 0.0005
# 2 47.3996 119.2379 46.4244 -0.0323 0.0203 0.0232
# 3 22.0667 46.4244 50.9585 0.0098 -0.0051 0.0134
# 4 -0.0069 -0.0323 0.0098 11.1066 -0.0003 0.0149
# 5 0.0011 0.0203 -0.0051 -0.0003 17.6424 0.0046
# 6 0.0005 0.0232 0.0134 0.0149 0.0046 26.3726
#
#
#
# Elastic Compliance Matrix: (Units=1/GPa)
#
#
# Indices 1 2 3 4 5 6 
#
# 1 0.010360 -0.003675 -0.001138 -0.000003 0.000003 0.000004
# 2 -0.003675 0.014300 -0.011436 0.000049 -0.000020 -0.000007
# 3 -0.001138 -0.011436 0.030535 -0.000061 0.000022 -0.000005
# 4 -0.000003 0.000049 -0.000061 0.090037 0.000002 -0.000051
# 5 0.000003 -0.000020 0.000022 0.000002 0.056682 -0.000010
# 6 0.000004 -0.000007 -0.000005 -0.000051 -0.000010 0.037918
#
#
# Mechanical properties :
#
#
# Convention : Reuss Voigt Hill
#
# Bulk Modulus (GPa) = 44.05987 57.52712 50.79349
# Shear Modulus (GPa) = 17.86371 22.36244 20.11307
#
# Velocity S-wave (km/s) = 2.87996 3.22226 3.05591
# Velocity P-wave (km/s) = 5.61392 6.36820 6.00292
#
# Compressibility (1/GPa) = 0.02269639
#
# Stress axis : x y z
#
# Youngs Moduli (GPa) = 96.52706 69.92879 32.74884
#
# Poissons Ratio (x) = 0.25700 0.03727
# Poissons Ratio (y) = 0.35475 0.37453
# Poissons Ratio (z) = 0.10984 0.79973
#
# Static dielectric constant tensor:
#      x y z
#    x 1.771520 0.000020 0.000010 
#    y 0.000020 1.804450 -0.000010 
#    z 0.000010 -0.000010 1.839270 
# 
# From -- ./inp_files/4846.got.cif
#   From: 2010.05.17/outbox.cif.g08.bks.cpg/sg43_3_cif.got.tgz:4846.got - 2010.06.03 19:21:55.
