data_PCOD9371304
_publ_section_title
;
Structure prediction by ZEFSAII (Michael W. Deem and Ramdas Pophale) SiO2 
 PCOD9371304
Probable space group: F D D 2
;
_chemical_formula_sum "Si O2"
_cell_formula_units_Z 64
_cell_length_a 26.152260
_cell_length_b 12.502515
_cell_length_c 9.476048
_cell_angle_alpha 90.000000
_cell_angle_beta 90.000000
_cell_angle_gamma 90.000000
_cell_volume 3098.374156
_symmetry_space_group_name_H-M "F D D 2"
_symmetry_group_IT_number 43
_symmetry_cell_setting 'orthorhombic'
loop_
_space_group_symop_operation_xyz
x,y,z
-x,-y,z
1/4-x,1/4+y,1/4+z
1/4+x,1/4-y,1/4+z
x,1/2+y,1/2+z
-x,1/2-y,1/2+z
1/4-x,3/4+y,3/4+z
1/4+x,3/4-y,3/4+z
1/2+x,y,1/2+z
1/2-x,-y,1/2+z
3/4-x,1/4+y,3/4+z
3/4+x,1/4-y,3/4+z
1/2+x,1/2+y,z
1/2-x,1/2-y,z
3/4-x,3/4+y,1/4+z
3/4+x,3/4-y,1/4+z
loop_
_atom_site_type_symbol
_atom_site_label
_atom_site_fract_x
_atom_site_fract_y
_atom_site_fract_z
Si Si1 0.244606 0.944554 0.031480
Si Si2 0.979899 0.380200 0.469696
Si Si3 0.093086 0.702545 0.267258
Si Si4 0.050322 0.055644 0.525339
O O1 0.218056 0.856732 0.128576
O O2 0.236322 0.059002 0.109582
O O3 0.228928 0.928955 0.870245
O O4 0.306926 0.942444 0.035878
O O5 0.924125 0.372763 0.397178
O O6 0.000000 0.500000 0.485191
O O7 0.152133 0.726743 0.260977
O O8 0.071208 0.647244 0.127916
O O9 0.000000 0.000000 0.588595
#
# Coordination Sequence:
#
# PCOD9371304 Si02
#       4
#    16  16  16  16
#     4  10  21  44  72 101 138 179 229 285 349 406
#     4  10  21  43  73 102 140 177 230 283 339 416
#     4  10  23  42  65 102 132 181 232 271 356 403
#     4  12  23  43  71  95 142 182 229 293 341 417
#
# _framework density 20.655995999999998
#
# number of rings (size 3 to 8) (size 9 to 14) (size 15 to 20)
#    1.500    0.000    2.500    3.000    0.000    0.000 
#    0.000   12.500    0.000    0.000    0.000    0.000 
#    0.000    0.000    0.000    0.000    0.000    0.000 
#
# Total GULP energy -89149.077241 kJ/mol
# GULP energy per Si atom -5571.817328 kJ/mol
# Density = 2.060898 g / cm^3
# Si number density = 20.655996 Si / 1000 Ang^3
#
#
#
# Elastic Constant Matrix: (Units=GPa)
#
#
# Indices 1 2 3 4 5 6 
#
# 1 157.4602 44.7056 43.7035 0.0000 0.0000 0.0000
# 2 44.7056 87.4213 65.5862 0.0000 0.0000 0.0000
# 3 43.7035 65.5862 148.2338 0.0000 0.0000 0.0000
# 4 0.0000 0.0000 0.0000 22.0271 0.0000 0.0000
# 5 0.0000 0.0000 0.0000 0.0000 10.5808 0.0000
# 6 0.0000 0.0000 0.0000 0.0000 0.0000 34.5234
#
#
#
# Elastic Compliance Matrix: (Units=1/GPa)
#
#
# Indices 1 2 3 4 5 6 
#
# 1 0.007488 -0.003252 -0.000768 0.000000 0.000000 0.000000
# 2 -0.003252 0.018535 -0.007242 0.000000 0.000000 0.000000
# 3 -0.000768 -0.007242 0.010177 0.000000 0.000000 0.000000
# 4 0.000000 0.000000 0.000000 0.045399 0.000000 0.000000
# 5 0.000000 0.000000 0.000000 0.000000 0.094511 0.000000
# 6 0.000000 0.000000 0.000000 0.000000 0.000000 0.028966
#
#
# Mechanical properties :
#
#
# Convention : Reuss Voigt Hill
#
# Bulk Modulus (GPa) = 73.13256 77.90067 75.51662
# Shear Modulus (GPa) = 21.53696 29.36760 25.45228
#
# Velocity S-wave (km/s) = 3.23251 3.77470 3.51408
# Velocity P-wave (km/s) = 7.02951 7.53611 7.28722
#
# Compressibility (1/GPa) = 0.01367380
#
# Stress axis : x y z
#
# Youngs Moduli (GPa) = 133.55534 53.95100 98.26143
#
# Poissons Ratio (x) = 0.17547 0.07551
# Poissons Ratio (y) = 0.43438 0.71162
# Poissons Ratio (z) = 0.10264 0.39072
#
# Static dielectric constant tensor:
#      x y z
#    x 1.750550 0.000000 0.000000 
#    y 0.000000 1.802380 0.000000 
#    z 0.000000 0.000000 1.752020 
# 
# From -- ./inp_files/4616.got.cif
#   From: 2010.05.17/outbox.cif.g08.bks.cpg/sg43_3_cif.got.tgz:4616.got - 2010.06.03 19:21:55.
