data_PCOD9371182
_publ_section_title
;
Structure prediction by ZEFSAII (Michael W. Deem and Ramdas Pophale) SiO2 
 PCOD9371182
Probable space group: F D D 2
;
_chemical_formula_sum "Si O2"
_cell_formula_units_Z 96
_cell_length_a 18.573835
_cell_length_b 10.693358
_cell_length_c 22.042081
_cell_angle_alpha 90.000000
_cell_angle_beta 90.000000
_cell_angle_gamma 90.000000
_cell_volume 4377.924664
_symmetry_space_group_name_H-M "F D D 2"
_symmetry_group_IT_number 43
_symmetry_cell_setting 'orthorhombic'
loop_
_space_group_symop_operation_xyz
x,y,z
-x,-y,z
1/4-x,1/4+y,1/4+z
1/4+x,1/4-y,1/4+z
x,1/2+y,1/2+z
-x,1/2-y,1/2+z
1/4-x,3/4+y,3/4+z
1/4+x,3/4-y,3/4+z
1/2+x,y,1/2+z
1/2-x,-y,1/2+z
3/4-x,1/4+y,3/4+z
3/4+x,1/4-y,3/4+z
1/2+x,1/2+y,z
1/2-x,1/2-y,z
3/4-x,3/4+y,1/4+z
3/4+x,3/4-y,1/4+z
loop_
_atom_site_type_symbol
_atom_site_label
_atom_site_fract_x
_atom_site_fract_y
_atom_site_fract_z
Si Si1 0.765476 0.485112 0.983880
Si Si2 0.500000 0.500000 0.899934
Si Si3 0.098605 0.927983 0.994697
Si Si4 0.500000 0.500000 0.667784
Si Si5 0.773521 0.508050 0.658320
Si Si6 0.156305 0.594694 0.868027
Si Si7 0.634767 0.065479 0.100714
O O1 0.762400 0.628126 0.959623
O O2 0.794761 0.405725 0.926883
O O3 0.684480 0.437065 0.996255
O O4 0.820882 0.467676 0.039852
O O5 0.480974 0.628626 0.867613
O O6 0.565947 0.526941 0.946647
O O7 0.071921 0.934243 0.063131
O O8 0.062316 0.802181 0.966767
O O9 0.568808 0.480783 0.623549
O O10 0.826658 0.611756 0.635175
O O11 0.693849 0.562090 0.655047
O O12 0.148550 0.453149 0.844822
#
# Coordination Sequence:
#
# PCOD9371182 Si02
#       7
#    16   8  16   8  16  16  16
#     4  11  24  46  71 101 145 181 233 293 349 425
#     4   8  22  39  60  98 128 177 234 274 332 418
#     4  10  22  43  65 100 139 175 238 282 344 416
#     4  10  26  49  66 104 136 187 244 286 358 428
#     4  10  21  40  69  93 137 183 223 283 354 405
#     4  11  23  41  68 103 136 185 226 292 345 418
#     4  11  23  46  69  99 143 181 239 291 352 423
#
# _framework density 21.928198999999999
#
# number of rings (size 3 to 8) (size 9 to 14) (size 15 to 20)
#    1.000    0.667    1.667    2.500    0.000    4.000 
#   18.000    0.000    0.000    0.000    0.000    0.000 
#    0.000    0.000    0.000    0.000    0.000    0.000 
#
# Total GULP energy -133618.809125 kJ/mol
# GULP energy per Si atom -5567.450380 kJ/mol
# Density = 2.187829 g / cm^3
# Si number density = 21.928199 Si / 1000 Ang^3
#
#
#
# Elastic Constant Matrix: (Units=GPa)
#
#
# Indices 1 2 3 4 5 6 
#
# 1 142.1883 11.4455 69.6306 0.0000 0.0000 0.0000
# 2 11.4455 40.7293 12.6922 0.0000 0.0000 0.0000
# 3 69.6306 12.6922 113.6906 0.0000 0.0000 0.0000
# 4 0.0000 0.0000 0.0000 10.4218 0.0000 0.0000
# 5 0.0000 0.0000 0.0000 0.0000 27.4858 0.0000
# 6 0.0000 0.0000 0.0000 0.0000 0.0000 36.9496
#
#
#
# Elastic Compliance Matrix: (Units=1/GPa)
#
#
# Indices 1 2 3 4 5 6 
#
# 1 0.010081 -0.000942 -0.006069 0.000000 0.000000 0.000000
# 2 -0.000942 0.025525 -0.002273 0.000000 0.000000 0.000000
# 3 -0.006069 -0.002273 0.012766 0.000000 0.000000 0.000000
# 4 0.000000 0.000000 0.000000 0.095953 0.000000 0.000000
# 5 0.000000 0.000000 0.000000 0.000000 0.036382 0.000000
# 6 0.000000 0.000000 0.000000 0.000000 0.000000 0.027064
#
#
# Mechanical properties :
#
#
# Convention : Reuss Voigt Hill
#
# Bulk Modulus (GPa) = 33.55069 53.79385 43.67227
# Shear Modulus (GPa) = 21.16189 28.49409 24.82799
#
# Velocity S-wave (km/s) = 3.10990 3.60867 3.36853
# Velocity P-wave (km/s) = 5.31308 6.47676 5.92356
#
# Compressibility (1/GPa) = 0.02980565
#
# Stress axis : x y z
#
# Youngs Moduli (GPa) = 99.19952 39.17693 78.33016
#
# Poissons Ratio (x) = 0.03689 0.47538
# Poissons Ratio (y) = 0.09341 0.17804
# Poissons Ratio (z) = 0.60203 0.08904
#
# Static dielectric constant tensor:
#      x y z
#    x 1.791960 0.000000 0.000000 
#    y 0.000000 1.824680 0.000000 
#    z 0.000000 0.000000 1.844380 
# 
# From -- ./inp_files/22383.got.cif
#   From: 2010.05.17/outbox.cif.g08.bks.cpg/sg43_12_cif.got.tgz:22383.got - 2010.06.03 19:21:55.
