data_PCOD9371716
_publ_section_title
;
Structure prediction by ZEFSAII (Michael W. Deem and Ramdas Pophale) SiO2 
 PCOD9371716
Probable space group: F D D 2
;
_chemical_formula_sum "Si O2"
_cell_formula_units_Z 72
_cell_length_a 25.443309
_cell_length_b 5.328503
_cell_length_c 18.520327
_cell_angle_alpha 90.000000
_cell_angle_beta 90.000000
_cell_angle_gamma 90.000000
_cell_volume 2510.888672
_symmetry_space_group_name_H-M "F D D 2"
_symmetry_group_IT_number 43
_symmetry_cell_setting 'orthorhombic'
loop_
_space_group_symop_operation_xyz
x,y,z
-x,-y,z
1/4-x,1/4+y,1/4+z
1/4+x,1/4-y,1/4+z
x,1/2+y,1/2+z
-x,1/2-y,1/2+z
1/4-x,3/4+y,3/4+z
1/4+x,3/4-y,3/4+z
1/2+x,y,1/2+z
1/2-x,-y,1/2+z
3/4-x,1/4+y,3/4+z
3/4+x,1/4-y,3/4+z
1/2+x,1/2+y,z
1/2-x,1/2-y,z
3/4-x,3/4+y,1/4+z
3/4+x,3/4-y,1/4+z
loop_
_atom_site_type_symbol
_atom_site_label
_atom_site_fract_x
_atom_site_fract_y
_atom_site_fract_z
Si Si1 0.500000 0.500000 0.948150
Si Si2 0.837207 0.900128 0.737552
Si Si3 0.445278 0.125451 0.306295
Si Si4 0.349240 0.613955 0.359543
Si Si5 0.804793 0.627624 0.421211
O O1 0.461074 0.642213 0.890247
O O2 0.464299 0.316931 0.995805
O O3 0.891033 0.988747 0.780261
O O4 0.833645 0.633057 0.776290
O O5 0.846793 0.919237 0.652230
O O6 0.342495 0.331606 0.386486
O O7 0.500000 0.000000 0.276720
O O8 0.314382 0.845729 0.392742
O O9 0.309663 0.125524 0.508376
O O10 0.750000 0.750000 0.403444
#
# Coordination Sequence:
#
# PCOD9371716 Si02
#       5
#     8  16  16  16  16
#     4  10  22  44  84 126 188 228 302 380 458 548
#     4  11  22  46  76 125 173 231 298 369 460 546
#     4   9  20  44  78 121 174 231 294 368 455 539
#     4  11  25  43  77 107 166 220 284 364 434 538
#     4  11  23  43  75 111 157 216 283 353 437 529
#
# _framework density 28.675104999999999
#
# number of rings (size 3 to 8) (size 9 to 14) (size 15 to 20)
#    0.667    0.889    2.222    3.333    1.556    3.556 
#    0.000    0.000    4.889    0.000    0.000    0.000 
#   13.333    0.000    0.000    0.000    0.000    0.000 
#
# Total GULP energy -100481.528940 kJ/mol
# GULP energy per Si atom -5582.307163 kJ/mol
# Density = 2.860984 g / cm^3
# Si number density = 28.675105 Si / 1000 Ang^3
#
#
#
# Elastic Constant Matrix: (Units=GPa)
#
#
# Indices 1 2 3 4 5 6 
#
# 1 125.4717 32.5097 20.4770 -0.0002 -0.0006 -0.0016
# 2 32.5097 110.6347 54.4871 0.0035 -0.0008 -0.0025
# 3 20.4770 54.4871 206.6545 0.0004 -0.0002 -0.0007
# 4 -0.0002 0.0035 0.0004 35.6939 -0.0005 -0.0009
# 5 -0.0006 -0.0008 -0.0002 -0.0005 22.4468 0.0007
# 6 -0.0016 -0.0025 -0.0007 -0.0009 0.0007 58.4149
#
#
#
# Elastic Compliance Matrix: (Units=1/GPa)
#
#
# Indices 1 2 3 4 5 6 
#
# 1 0.008635 -0.002432 -0.000214 0.000000 0.000000 0.000000
# 2 -0.002432 0.011072 -0.002678 -0.000001 0.000000 0.000000
# 3 -0.000214 -0.002678 0.005566 0.000000 0.000000 0.000000
# 4 0.000000 -0.000001 0.000000 0.028016 0.000001 0.000000
# 5 0.000000 0.000000 0.000000 0.000001 0.044550 -0.000001
# 6 0.000000 0.000000 0.000000 0.000000 -0.000001 0.017119
#
#
# Mechanical properties :
#
#
# Convention : Reuss Voigt Hill
#
# Bulk Modulus (GPa) = 68.37799 73.07873 70.72836
# Shear Modulus (GPa) = 38.31923 45.66358 41.99140
#
# Velocity S-wave (km/s) = 3.65954 3.99488 3.83088
# Velocity P-wave (km/s) = 6.46172 6.84245 6.65481
#
# Compressibility (1/GPa) = 0.01462459
#
# Stress axis : x y z
#
# Youngs Moduli (GPa) = 115.80788 90.31437 179.64781
#
# Poissons Ratio (x) = 0.21962 0.03853
# Poissons Ratio (y) = 0.28162 0.48117
# Poissons Ratio (z) = 0.02484 0.24190
#
# Static dielectric constant tensor:
#      x y z
#    x 2.472660 0.000000 0.000000 
#    y 0.000000 2.419080 0.000000 
#    z 0.000000 0.000000 2.506410 
# 
# From -- ./inp_files/22726.got.cif
#   From: 2010.05.17/outbox.cif.g08.bks.cpg/sg43_12_cif.got.tgz:22726.got - 2010.06.03 19:21:55.
