data_PCOD9371427
_publ_section_title
;
Structure prediction by ZEFSAII (Michael W. Deem and Ramdas Pophale) SiO2 
 PCOD9371427
Probable space group: F D D 2
;
_chemical_formula_sum "Si O2"
_cell_formula_units_Z 96
_cell_length_a 9.398212
_cell_length_b 17.177069
_cell_length_c 24.601495
_cell_angle_alpha 90.000000
_cell_angle_beta 90.000000
_cell_angle_gamma 90.000000
_cell_volume 3971.511249
_symmetry_space_group_name_H-M "F D D 2"
_symmetry_group_IT_number 43
_symmetry_cell_setting 'orthorhombic'
loop_
_space_group_symop_operation_xyz
x,y,z
-x,-y,z
1/4-x,1/4+y,1/4+z
1/4+x,1/4-y,1/4+z
x,1/2+y,1/2+z
-x,1/2-y,1/2+z
1/4-x,3/4+y,3/4+z
1/4+x,3/4-y,3/4+z
1/2+x,y,1/2+z
1/2-x,-y,1/2+z
3/4-x,1/4+y,3/4+z
3/4+x,1/4-y,3/4+z
1/2+x,1/2+y,z
1/2-x,1/2-y,z
3/4-x,3/4+y,1/4+z
3/4+x,3/4-y,1/4+z
loop_
_atom_site_type_symbol
_atom_site_label
_atom_site_fract_x
_atom_site_fract_y
_atom_site_fract_z
Si Si1 0.331564 0.997994 0.515280
Si Si2 0.419441 0.249814 0.036384
Si Si3 0.301151 0.919023 0.629135
Si Si4 0.077210 0.583451 0.738732
Si Si5 0.025486 0.810750 0.647205
Si Si6 0.357365 0.944981 0.179816
O O1 0.313476 0.937851 0.565341
O O2 0.269737 0.969741 0.458139
O O3 0.500000 0.000000 0.506763
O O4 0.281587 0.088519 0.520645
O O5 0.250000 0.250000 0.043929
O O6 0.482923 0.245386 0.096129
O O7 0.506760 0.317461 0.005674
O O8 0.437950 0.180194 0.992184
O O9 0.422275 0.897772 0.673539
O O10 0.173815 0.857892 0.638542
O O11 0.258901 0.004067 0.650845
O O12 0.000000 0.500000 0.749108
O O13 0.898480 0.871888 0.645014
O O14 0.500000 0.000000 0.182801
#
# Coordination Sequence:
#
# PCOD9371427 Si02
#       6
#    16  16  16  16  16  16
#     4  12  25  40  69 102 137 183 243 288 360 435
#     4  10  22  39  67  91 132 179 229 279 339 414
#     4  10  22  41  67  94 141 175 231 293 350 425
#     4  11  26  46  66 102 144 186 230 299 371 424
#     4  11  21  38  67 103 131 174 240 287 338 429
#     4   8  18  37  59  91 125 174 214 276 345 396
#
# _framework density 24.172159000000001
#
# number of rings (size 3 to 8) (size 9 to 14) (size 15 to 20)
#    0.000    1.667    1.667    3.000    4.667    1.333 
#    0.000    0.000    0.000    0.000    0.000    0.000 
#    0.000    0.000    0.000    0.000    0.000    0.000 
#
# Total GULP energy -133819.120833 kJ/mol
# GULP energy per Si atom -5575.796701 kJ/mol
# Density = 2.411714 g / cm^3
# Si number density = 24.172159 Si / 1000 Ang^3
#
#
#
# Elastic Constant Matrix: (Units=GPa)
#
#
# Indices 1 2 3 4 5 6 
#
# 1 25.2597 11.6145 2.7804 0.0000 0.0000 0.0000
# 2 11.6145 80.5757 28.4546 0.0000 0.0000 0.0000
# 3 2.7804 28.4546 162.7410 0.0000 0.0000 0.0000
# 4 0.0000 0.0000 0.0000 14.1334 0.0000 0.0000
# 5 0.0000 0.0000 0.0000 0.0000 19.3250 0.0000
# 6 0.0000 0.0000 0.0000 0.0000 0.0000 10.9275
#
#
#
# Elastic Compliance Matrix: (Units=1/GPa)
#
#
# Indices 1 2 3 4 5 6 
#
# 1 0.042419 -0.006244 0.000367 0.000000 0.000000 0.000000
# 2 -0.006244 0.014147 -0.002367 0.000000 0.000000 0.000000
# 3 0.000367 -0.002367 0.006552 0.000000 0.000000 0.000000
# 4 0.000000 0.000000 0.000000 0.070754 0.000000 0.000000
# 5 0.000000 0.000000 0.000000 0.000000 0.051746 0.000000
# 6 0.000000 0.000000 0.000000 0.000000 0.000000 0.091512
#
#
# Mechanical properties :
#
#
# Convention : Reuss Voigt Hill
#
# Bulk Modulus (GPa) = 21.44521 39.36395 30.40458
# Shear Modulus (GPa) = 16.17272 23.92564 20.04918
#
# Velocity S-wave (km/s) = 2.58943 3.14952 2.88311
# Velocity P-wave (km/s) = 4.22272 5.43564 4.86711
#
# Compressibility (1/GPa) = 0.04663047
#
# Stress axis : x y z
#
# Youngs Moduli (GPa) = 23.57413 70.68863 152.61856
#
# Poissons Ratio (x) = 0.44139 -0.05601
# Poissons Ratio (y) = 0.14720 0.36122
# Poissons Ratio (z) = -0.00865 0.16730
#
# Static dielectric constant tensor:
#      x y z
#    x 1.947240 0.000000 0.000000 
#    y 0.000000 1.995130 0.000000 
#    z 0.000000 0.000000 1.994030 
# 
# From -- ./inp_files/21074.got.cif
#   From: 2010.05.17/outbox.cif.g08.bks.cpg/sg43_11_cif.got.tgz:21074.got - 2010.06.03 19:21:55.
