data_PCOD9371807
_publ_section_title
;
Structure prediction by ZEFSAII (Michael W. Deem and Ramdas Pophale) SiO2 
 PCOD9371807
Probable space group: F D D 2
;
_chemical_formula_sum "Si O2"
_cell_formula_units_Z 120
_cell_length_a 24.634185
_cell_length_b 28.139611
_cell_length_c 7.995376
_cell_angle_alpha 90.000000
_cell_angle_beta 90.000000
_cell_angle_gamma 90.000000
_cell_volume 5542.365726
_symmetry_space_group_name_H-M "F D D 2"
_symmetry_group_IT_number 43
_symmetry_cell_setting 'orthorhombic'
loop_
_space_group_symop_operation_xyz
x,y,z
-x,-y,z
1/4-x,1/4+y,1/4+z
1/4+x,1/4-y,1/4+z
x,1/2+y,1/2+z
-x,1/2-y,1/2+z
1/4-x,3/4+y,3/4+z
1/4+x,3/4-y,3/4+z
1/2+x,y,1/2+z
1/2-x,-y,1/2+z
3/4-x,1/4+y,3/4+z
3/4+x,1/4-y,3/4+z
1/2+x,1/2+y,z
1/2-x,1/2-y,z
3/4-x,3/4+y,1/4+z
3/4+x,3/4-y,1/4+z
loop_
_atom_site_type_symbol
_atom_site_label
_atom_site_fract_x
_atom_site_fract_y
_atom_site_fract_z
Si Si1 0.791028 0.149820 0.936360
Si Si2 0.978708 0.231407 0.674874
Si Si3 0.487406 0.863862 0.313585
Si Si4 0.281761 0.931072 0.064294
Si Si5 0.107445 0.586052 0.189573
Si Si6 0.638585 0.635776 0.036171
Si Si7 0.500000 0.500000 0.104071
Si Si8 0.859755 0.258363 0.636525
O O1 0.781332 0.131649 0.745116
O O2 0.855926 0.143287 0.929454
O O3 0.768265 0.202820 0.952956
O O4 0.758140 0.113405 0.049069
O O5 0.974813 0.207589 0.492351
O O6 0.915816 0.241529 0.727241
O O7 0.009041 0.192369 0.787641
O O8 0.012500 0.279821 0.681170
O O9 0.449851 0.887813 0.170837
O O10 0.547909 0.882032 0.307062
O O11 0.344382 0.914723 0.056051
O O12 0.129808 0.614478 0.351748
O O13 0.097889 0.532091 0.249076
O O14 0.624935 0.691202 0.056574
O O15 0.445312 0.511631 0.996180
#
# Coordination Sequence:
#
# PCOD9371807 Si02
#       8
#    16  16  16  16  16  16   8  16
#     4  11  23  38  67  96 132 175 223 278 334 404
#     4  11  23  40  71  93 132 171 225 281 337 404
#     4  11  20  40  66  95 129 178 214 273 337 403
#     4  11  23  44  63  99 132 168 226 286 337 400
#     4  10  23  38  63  95 134 167 221 272 336 402
#     4  11  19  38  65  95 131 171 221 266 334 401
#     4  12  20  38  64  94 134 172 232 270 338 410
#     4  11  19  37  65  97 120 180 227 271 321 415
#
# _framework density 21.651403999999999
#
# number of rings (size 3 to 8) (size 9 to 14) (size 15 to 20)
#    0.000    1.067    8.000    0.800    5.600    0.000 
#    4.800    0.000    2.933    0.000    0.000    0.000 
#    0.000    0.000    0.000    0.000    0.000    0.000 
#
# Total GULP energy -167368.414087 kJ/mol
# GULP energy per Si atom -5578.947136 kJ/mol
# Density = 2.160212 g / cm^3
# Si number density = 21.651404 Si / 1000 Ang^3
#
#
#
# Elastic Constant Matrix: (Units=GPa)
#
#
# Indices 1 2 3 4 5 6 
#
# 1 162.7632 35.6502 31.3150 0.0130 -0.0091 -0.0041
# 2 35.6502 153.9617 33.2775 0.0143 -0.0064 -0.0031
# 3 31.3150 33.2775 29.3859 0.0123 -0.0152 -0.0119
# 4 0.0130 0.0143 0.0123 25.4089 -0.0118 -0.0072
# 5 -0.0091 -0.0064 -0.0152 -0.0118 18.3717 0.0080
# 6 -0.0041 -0.0031 -0.0119 -0.0072 0.0080 39.8109
#
#
#
# Elastic Compliance Matrix: (Units=1/GPa)
#
#
# Indices 1 2 3 4 5 6 
#
# 1 0.007728 -0.000013 -0.008222 0.000000 -0.000003 -0.000002
# 2 -0.000013 0.008600 -0.009726 0.000000 -0.000005 -0.000002
# 3 -0.008222 -0.009726 0.053805 -0.000016 0.000037 0.000014
# 4 0.000000 0.000000 -0.000016 0.039356 0.000025 0.000007
# 5 -0.000003 -0.000005 0.000037 0.000025 0.054432 -0.000011
# 6 -0.000002 -0.000002 0.000014 0.000007 -0.000011 0.025119
#
#
# Mechanical properties :
#
#
# Convention : Reuss Voigt Hill
#
# Bulk Modulus (GPa) = 29.22796 60.73293 44.98045
# Shear Modulus (GPa) = 21.15375 33.10949 27.13162
#
# Velocity S-wave (km/s) = 3.12912 3.91475 3.54377
# Velocity P-wave (km/s) = 5.15595 6.96742 6.12898
#
# Compressibility (1/GPa) = 0.03421381
#
# Stress axis : x y z
#
# Youngs Moduli (GPa) = 129.39218 116.27691 18.58564
#
# Poissons Ratio (x) = 0.00145 0.15280
# Poissons Ratio (y) = 0.00162 0.18076
# Poissons Ratio (z) = 1.06381 1.13088
#
# Static dielectric constant tensor:
#      x y z
#    x 2.009180 0.000000 0.000000 
#    y 0.000000 1.807390 0.000000 
#    z 0.000000 0.000000 1.817800 
# 
# From -- ./inp_files/4018.got.cif
#   From: 2010.05.17/outbox.cif.g08.bks.cpg/sg43_3_cif.got.tgz:4018.got - 2010.06.03 19:21:55.
