data_PCOD9371113
_publ_section_title
;
Structure prediction by ZEFSAII (Michael W. Deem and Ramdas Pophale) SiO2 
 PCOD9371113
Probable space group: F D D 2
;
_chemical_formula_sum "Si O2"
_cell_formula_units_Z 96
_cell_length_a 20.264899
_cell_length_b 8.763506
_cell_length_c 24.937285
_cell_angle_alpha 90.000000
_cell_angle_beta 90.000000
_cell_angle_gamma 90.000000
_cell_volume 4428.651444
_symmetry_space_group_name_H-M "F D D 2"
_symmetry_group_IT_number 43
_symmetry_cell_setting 'orthorhombic'
loop_
_space_group_symop_operation_xyz
x,y,z
-x,-y,z
1/4-x,1/4+y,1/4+z
1/4+x,1/4-y,1/4+z
x,1/2+y,1/2+z
-x,1/2-y,1/2+z
1/4-x,3/4+y,3/4+z
1/4+x,3/4-y,3/4+z
1/2+x,y,1/2+z
1/2-x,-y,1/2+z
3/4-x,1/4+y,3/4+z
3/4+x,1/4-y,3/4+z
1/2+x,1/2+y,z
1/2-x,1/2-y,z
3/4-x,3/4+y,1/4+z
3/4+x,3/4-y,1/4+z
loop_
_atom_site_type_symbol
_atom_site_label
_atom_site_fract_x
_atom_site_fract_y
_atom_site_fract_z
Si Si1 0.500000 0.000000 0.014010
Si Si2 0.888462 0.379326 0.279693
Si Si3 0.807701 0.960506 0.201268
Si Si4 0.000000 0.000000 0.861878
Si Si5 0.383944 0.443034 0.022757
Si Si6 0.004946 0.682782 0.738611
Si Si7 0.815292 0.156151 0.889827
O O1 0.432353 0.053437 0.043969
O O2 0.524347 0.144652 0.978655
O O3 0.938805 0.439189 0.326138
O O4 0.872585 0.529571 0.243768
O O5 0.935343 0.261174 0.248277
O O6 0.768004 0.886218 0.152483
O O7 0.823521 0.824299 0.244127
O O8 0.878224 0.993038 0.173242
O O9 0.310542 0.510191 0.029903
O O10 0.412043 0.387699 0.079503
O O11 0.040237 0.722838 0.681395
O O12 0.000000 0.500000 0.743370
O O13 0.750000 0.250000 0.883157
#
# Coordination Sequence:
#
# PCOD9371113 Si02
#       7
#     8  16  16   8  16  16  16
#     4  12  28  46  68 107 154 187 248 312 382 442
#     4  12  23  46  70 107 141 191 246 307 370 458
#     4  11  25  47  69 104 146 196 234 311 373 447
#     4  12  24  48  76 103 142 199 258 290 392 456
#     4  11  22  42  75  97 141 185 244 302 368 434
#     4  10  21  43  70  97 142 184 238 299 370 438
#     4  10  21  39  66 101 129 183 236 284 358 438
#
# _framework density 21.677026999999999
#
# number of rings (size 3 to 8) (size 9 to 14) (size 15 to 20)
#    0.000    1.000    3.333    4.000    3.500    0.000 
#    9.000    3.333    0.000    0.000    0.000    0.000 
#    0.000    0.000    0.000    0.000    0.000    0.000 
#
# Total GULP energy -133666.869005 kJ/mol
# GULP energy per Si atom -5569.452875 kJ/mol
# Density = 2.162769 g / cm^3
# Si number density = 21.677027 Si / 1000 Ang^3
#
#
#
# Elastic Constant Matrix: (Units=GPa)
#
#
# Indices 1 2 3 4 5 6 
#
# 1 178.7374 60.7700 53.4632 0.0000 0.0000 0.0000
# 2 60.7700 147.9616 45.0324 -0.0001 0.0000 0.0000
# 3 53.4632 45.0324 90.3991 0.0000 0.0000 0.0000
# 4 0.0000 -0.0001 0.0000 -178.5026 0.0000 0.0000
# 5 0.0000 0.0000 0.0000 0.0000 30.5442 0.0000
# 6 0.0000 0.0000 0.0000 0.0000 0.0000 43.9045
#
#
#
# Elastic Compliance Matrix: (Units=1/GPa)
#
#
# Indices 1 2 3 4 5 6 
#
# 1 0.007255 -0.001973 -0.003308 0.000000 0.000000 0.000000
# 2 -0.001973 0.008503 -0.003069 0.000000 0.000000 0.000000
# 3 -0.003308 -0.003069 0.014547 0.000000 0.000000 0.000000
# 4 0.000000 0.000000 0.000000 -0.005602 0.000000 0.000000
# 5 0.000000 0.000000 0.000000 0.000000 0.032739 0.000000
# 6 0.000000 0.000000 0.000000 0.000000 0.000000 0.022777
#
#
# Mechanical properties :
#
#
# Convention : Reuss Voigt Hill
#
# Bulk Modulus (GPa) = 73.49924 81.73659 77.61792
# Shear Modulus (GPa) = 49.28356 -3.62196 22.83080
#
# Velocity S-wave (km/s) = 4.77334 -1.29403 3.24886
# Velocity P-wave (km/s) = 8.02245 5.96286 7.06808
#
# Compressibility (1/GPa) = 0.01360558
#
# Stress axis : x y z
#
# Youngs Moduli (GPa) = 137.83508 117.60754 68.74214
#
# Poissons Ratio (x) = 0.23204 0.22739
# Poissons Ratio (y) = 0.27195 0.21096
# Poissons Ratio (z) = 0.45594 0.36092
#
# Static dielectric constant tensor:
#      x y z
#    x 1.864030 0.000000 0.000000 
#    y 0.000000 12.546040 0.000000 
#    z 0.000000 0.000000 1.922960 
# 
# From -- ./inp_files/26322.got.cif
#   From: 2010.05.17/outbox.cif.g08.bks.cpg/sg43_14_cif.got.tgz:26322.got - 2010.06.03 19:21:55.
