data_PCOD9371339
_publ_section_title
;
Structure prediction by ZEFSAII (Michael W. Deem and Ramdas Pophale) SiO2 
 PCOD9371339
Probable space group: F D D 2
;
_chemical_formula_sum "Si O2"
_cell_formula_units_Z 72
_cell_length_a 10.979060
_cell_length_b 10.558380
_cell_length_c 24.420105
_cell_angle_alpha 90.000000
_cell_angle_beta 90.000000
_cell_angle_gamma 90.000000
_cell_volume 2830.805129
_symmetry_space_group_name_H-M "F D D 2"
_symmetry_group_IT_number 43
_symmetry_cell_setting 'orthorhombic'
loop_
_space_group_symop_operation_xyz
x,y,z
-x,-y,z
1/4-x,1/4+y,1/4+z
1/4+x,1/4-y,1/4+z
x,1/2+y,1/2+z
-x,1/2-y,1/2+z
1/4-x,3/4+y,3/4+z
1/4+x,3/4-y,3/4+z
1/2+x,y,1/2+z
1/2-x,-y,1/2+z
3/4-x,1/4+y,3/4+z
3/4+x,1/4-y,3/4+z
1/2+x,1/2+y,z
1/2-x,1/2-y,z
3/4-x,3/4+y,1/4+z
3/4+x,3/4-y,1/4+z
loop_
_atom_site_type_symbol
_atom_site_label
_atom_site_fract_x
_atom_site_fract_y
_atom_site_fract_z
Si Si1 0.336045 0.358787 0.333800
Si Si2 0.413449 0.813306 0.713065
Si Si3 0.369203 0.936732 0.353020
Si Si4 0.250000 0.750000 0.282923
Si Si5 0.068589 0.669192 0.941232
O O1 0.250000 0.250000 0.358606
O O2 0.379677 0.303080 0.276417
O O3 0.247622 0.480139 0.331365
O O4 0.441452 0.373807 0.378578
O O5 0.397546 0.702278 0.668968
O O6 0.551769 0.860903 0.710886
O O7 0.329340 0.930505 0.693752
O O8 0.352264 0.798711 0.326383
O O9 0.500000 0.000000 0.339139
O O10 0.266293 0.862035 0.237420
#
# Coordination Sequence:
#
# PCOD9371339 Si02
#       5
#    16  16  16   8  16
#     4  11  21  43  71  96 136 198 244 296 369 457
#     4  10  21  45  69  98 136 193 242 301 362 457
#     4  11  25  47  70 108 152 191 251 313 384 448
#     4  12  26  46  70 116 156 184 248 326 374 452
#     4  10  22  41  69 101 139 182 249 291 372 446
#
# _framework density 25.434459
#
# number of rings (size 3 to 8) (size 9 to 14) (size 15 to 20)
#    0.000    1.333    6.667    0.667    3.111    1.778 
#    8.000    0.000    0.000    0.000    0.000    0.000 
#    0.000    0.000    0.000    0.000    0.000    0.000 
#
# Total GULP energy -100357.736947 kJ/mol
# GULP energy per Si atom -5575.429830 kJ/mol
# Density = 2.537657 g / cm^3
# Si number density = 25.434459 Si / 1000 Ang^3
#
#
#
# Elastic Constant Matrix: (Units=GPa)
#
#
# Indices 1 2 3 4 5 6 
#
# 1 43.5626 4.0553 29.7417 0.0000 0.0000 0.0000
# 2 4.0553 38.6042 34.4257 0.0000 0.0000 0.0000
# 3 29.7417 34.4257 229.2879 0.0000 0.0000 0.0000
# 4 0.0000 0.0000 0.0000 40.0377 0.0000 0.0000
# 5 0.0000 0.0000 0.0000 0.0000 13.6249 0.0000
# 6 0.0000 0.0000 0.0000 0.0000 0.0000 49.3913
#
#
#
# Elastic Compliance Matrix: (Units=1/GPa)
#
#
# Indices 1 2 3 4 5 6 
#
# 1 0.025189 0.000309 -0.003314 0.000000 0.000000 0.000000
# 2 0.000309 0.029912 -0.004531 0.000000 0.000000 0.000000
# 3 -0.003314 -0.004531 0.005471 0.000000 0.000000 0.000000
# 4 0.000000 0.000000 0.000000 0.024976 0.000000 0.000000
# 5 0.000000 0.000000 0.000000 0.000000 0.073395 0.000000
# 6 0.000000 0.000000 0.000000 0.000000 0.000000 0.020246
#
#
# Mechanical properties :
#
#
# Convention : Reuss Voigt Hill
#
# Bulk Modulus (GPa) = 21.97752 49.76665 35.87208
# Shear Modulus (GPa) = 23.87440 36.82625 30.35032
#
# Velocity S-wave (km/s) = 3.06709 3.80924 3.45813
# Velocity P-wave (km/s) = 4.60459 6.24149 5.48445
#
# Compressibility (1/GPa) = 0.04550105
#
# Stress axis : x y z
#
# Youngs Moduli (GPa) = 39.69963 33.43122 182.76580
#
# Poissons Ratio (x) = -0.01033 0.60564
# Poissons Ratio (y) = -0.01227 0.82814
# Poissons Ratio (z) = 0.13156 0.15148
#
# Static dielectric constant tensor:
#      x y z
#    x 2.035750 0.000000 0.000000 
#    y 0.000000 2.196190 0.000000 
#    z 0.000000 0.000000 2.107280 
# 
# From -- ./inp_files/20877.got.cif
#   From: 2010.05.17/outbox.cif.g08.bks.cpg/sg43_11_cif.got.tgz:20877.got - 2010.06.03 19:21:55.
