data_PCOD9371083
_publ_section_title
;
Structure prediction by ZEFSAII (Michael W. Deem and Ramdas Pophale) SiO2 
 PCOD9371083
Probable space group: F D D 2
;
_chemical_formula_sum "Si O2"
_cell_formula_units_Z 96
_cell_length_a 26.699430
_cell_length_b 14.430188
_cell_length_c 11.208678
_cell_angle_alpha 90.000000
_cell_angle_beta 90.000000
_cell_angle_gamma 90.000000
_cell_volume 4318.454738
_symmetry_space_group_name_H-M "F D D 2"
_symmetry_group_IT_number 43
_symmetry_cell_setting 'orthorhombic'
loop_
_space_group_symop_operation_xyz
x,y,z
-x,-y,z
1/4-x,1/4+y,1/4+z
1/4+x,1/4-y,1/4+z
x,1/2+y,1/2+z
-x,1/2-y,1/2+z
1/4-x,3/4+y,3/4+z
1/4+x,3/4-y,3/4+z
1/2+x,y,1/2+z
1/2-x,-y,1/2+z
3/4-x,1/4+y,3/4+z
3/4+x,1/4-y,3/4+z
1/2+x,1/2+y,z
1/2-x,1/2-y,z
3/4-x,3/4+y,1/4+z
3/4+x,3/4-y,1/4+z
loop_
_atom_site_type_symbol
_atom_site_label
_atom_site_fract_x
_atom_site_fract_y
_atom_site_fract_z
Si Si1 0.564430 0.641436 0.516310
Si Si2 0.864321 0.563587 0.391536
Si Si3 0.204655 0.086646 0.782373
Si Si4 0.307313 0.756130 0.842118
Si Si5 0.164133 0.215716 0.590427
Si Si6 0.448515 0.500766 0.714140
O O1 0.510807 0.688276 0.491501
O O2 0.575074 0.558957 0.418782
O O3 0.609071 0.713692 0.531786
O O4 0.562693 0.594990 0.648326
O O5 0.822599 0.484220 0.370167
O O6 0.900983 0.554837 0.506510
O O7 0.833439 0.657009 0.370273
O O8 0.902699 0.541909 0.284953
O O9 0.172586 0.124341 0.671403
O O10 0.210819 0.179592 0.857823
O O11 0.250000 0.750000 0.795892
O O12 0.301782 0.798927 0.974256
O O13 0.500000 0.500000 0.787437
#
# Coordination Sequence:
#
# PCOD9371083 Si02
#       6
#    16  16  16  16  16  16
#     4  10  21  38  68  98 126 172 227 273 327 392
#     4  12  23  44  68  98 136 176 225 278 344 405
#     4  10  21  40  69  97 126 175 228 272 325 406
#     4  12  28  45  66 100 144 179 221 285 352 406
#     4  11  22  43  66  94 137 177 223 279 331 402
#     4   9  18  38  65  96 127 165 222 276 321 386
#
# _framework density 22.230173000000001
#
# number of rings (size 3 to 8) (size 9 to 14) (size 15 to 20)
#    0.000    1.333    3.333    4.000    0.000    2.667 
#    0.000    0.000    0.000    0.000    0.000    0.000 
#    0.000    0.000    0.000    0.000    0.000    0.000 
#
# Total GULP energy -133689.492534 kJ/mol
# GULP energy per Si atom -5570.395522 kJ/mol
# Density = 2.217958 g / cm^3
# Si number density = 22.230173 Si / 1000 Ang^3
#
#
#
# Elastic Constant Matrix: (Units=GPa)
#
#
# Indices 1 2 3 4 5 6 
#
# 1 174.1281 26.6875 29.0020 0.0000 0.0000 0.0000
# 2 26.6875 55.8253 10.8488 0.0000 0.0000 0.0000
# 3 29.0020 10.8488 95.5363 0.0000 0.0000 0.0000
# 4 0.0000 0.0000 0.0000 -14.5168 0.0000 0.0000
# 5 0.0000 0.0000 0.0000 0.0000 3.6978 0.0000
# 6 0.0000 0.0000 0.0000 0.0000 0.0000 34.7231
#
#
#
# Elastic Compliance Matrix: (Units=1/GPa)
#
#
# Indices 1 2 3 4 5 6 
#
# 1 0.006439 -0.002759 -0.001641 0.000000 0.000000 0.000000
# 2 -0.002759 0.019500 -0.001377 0.000000 0.000000 0.000000
# 3 -0.001641 -0.001377 0.011122 0.000000 0.000000 0.000000
# 4 0.000000 0.000000 0.000000 -0.068886 0.000000 0.000000
# 5 0.000000 0.000000 0.000000 0.000000 0.270428 0.000000
# 6 0.000000 0.000000 0.000000 0.000000 0.000000 0.028799
#
#
# Mechanical properties :
#
#
# Convention : Reuss Voigt Hill
#
# Bulk Modulus (GPa) = 39.20658 50.95181 45.07920
# Shear Modulus (GPa) = 17.39382 22.04426 19.71904
#
# Velocity S-wave (km/s) = 2.80025 3.15244 2.98155
# Velocity P-wave (km/s) = 5.30379 6.01834 5.67233
#
# Compressibility (1/GPa) = 0.02550592
#
# Stress axis : x y z
#
# Youngs Moduli (GPa) = 155.29917 51.28298 89.91316
#
# Poissons Ratio (x) = 0.14150 0.14758
# Poissons Ratio (y) = 0.42852 0.12378
# Poissons Ratio (z) = 0.25491 0.07060
#
# Static dielectric constant tensor:
#      x y z
#    x 1.984820 0.000000 0.000000 
#    y 0.000000 1.835910 0.000000 
#    z 0.000000 0.000000 1.848270 
# 
# From -- ./inp_files/6674.got.cif
#   From: 2010.05.17/outbox.cif.g08.bks.cpg/sg43_4_cif.got.tgz:6674.got - 2010.06.03 19:21:55.
