data_PCOD9371284
_publ_section_title
;
Structure prediction by ZEFSAII (Michael W. Deem and Ramdas Pophale) SiO2 
 PCOD9371284
Probable space group: F D D 2
;
_chemical_formula_sum "Si O2"
_cell_formula_units_Z 104
_cell_length_a 23.968627
_cell_length_b 7.650905
_cell_length_c 20.291323
_cell_angle_alpha 90.000000
_cell_angle_beta 90.000000
_cell_angle_gamma 90.000000
_cell_volume 3721.057067
_symmetry_space_group_name_H-M "F D D 2"
_symmetry_group_IT_number 43
_symmetry_cell_setting 'orthorhombic'
loop_
_space_group_symop_operation_xyz
x,y,z
-x,-y,z
1/4-x,1/4+y,1/4+z
1/4+x,1/4-y,1/4+z
x,1/2+y,1/2+z
-x,1/2-y,1/2+z
1/4-x,3/4+y,3/4+z
1/4+x,3/4-y,3/4+z
1/2+x,y,1/2+z
1/2-x,-y,1/2+z
3/4-x,1/4+y,3/4+z
3/4+x,1/4-y,3/4+z
1/2+x,1/2+y,z
1/2-x,1/2-y,z
3/4-x,3/4+y,1/4+z
3/4+x,3/4-y,1/4+z
loop_
_atom_site_type_symbol
_atom_site_label
_atom_site_fract_x
_atom_site_fract_y
_atom_site_fract_z
Si Si1 0.837908 0.744474 0.163210
Si Si2 0.812422 0.127502 0.107641
Si Si3 0.716497 0.920590 0.039406
Si Si4 0.172235 0.590822 0.791349
Si Si5 0.500000 0.500000 0.148176
Si Si6 0.703496 0.602280 0.881424
Si Si7 0.911206 0.536462 0.995401
O O1 0.802184 0.648451 0.110456
O O2 0.814937 0.771284 0.235137
O O3 0.893691 0.627921 0.165733
O O4 0.838507 0.945631 0.137517
O O5 0.856879 0.178298 0.052901
O O6 0.817671 0.266982 0.168962
O O7 0.757404 0.073681 0.066121
O O8 0.750000 0.750000 0.012094
O O9 0.657408 0.958851 0.001317
O O10 0.201567 0.662535 0.855114
O O11 0.187396 0.395330 0.772522
O O12 0.525476 0.681307 0.172329
O O13 0.750000 0.750000 0.882398
O O14 0.684355 0.581829 0.803235
#
# Coordination Sequence:
#
# PCOD9371284 Si02
#       7
#    16  16  16  16   8  16  16
#     4   9  21  41  68  98 140 179 241 295 356 448
#     4  10  21  43  67 101 141 186 233 297 372 435
#     4   9  20  42  70 102 146 193 245 301 379 443
#     4  11  23  42  67 101 135 189 237 297 374 446
#     4  12  24  42  72  96 140 188 240 296 372 436
#     4  11  22  45  68 106 141 185 241 300 369 443
#     4  10  23  44  68 103 144 181 250 305 355 462
#
# _framework density 27.949045000000002
#
# number of rings (size 3 to 8) (size 9 to 14) (size 15 to 20)
#    0.000    1.846    3.077    0.000    5.385    0.615 
#   11.077    2.308    0.000    0.000    0.000    0.000 
#    0.000    0.000    0.000    0.000    0.000    0.000 
#
# Total GULP energy -145080.727519 kJ/mol
# GULP energy per Si atom -5580.027982 kJ/mol
# Density = 2.788543 g / cm^3
# Si number density = 27.949045 Si / 1000 Ang^3
#
#
#
# Elastic Constant Matrix: (Units=GPa)
#
#
# Indices 1 2 3 4 5 6 
#
# 1 165.6537 15.0689 46.0605 0.0000 0.0000 0.0000
# 2 15.0689 128.9255 41.8307 0.0000 0.0000 0.0000
# 3 46.0605 41.8307 138.8704 0.0000 0.0000 0.0000
# 4 0.0000 0.0000 0.0000 29.3198 0.0000 0.0000
# 5 0.0000 0.0000 0.0000 0.0000 -26.1003 0.0000
# 6 0.0000 0.0000 0.0000 0.0000 0.0000 45.3920
#
#
#
# Elastic Compliance Matrix: (Units=1/GPa)
#
#
# Indices 1 2 3 4 5 6 
#
# 1 0.006651 -0.000068 -0.002185 0.000000 0.000000 0.000000
# 2 -0.000068 0.008597 -0.002567 0.000000 0.000000 0.000000
# 3 -0.002185 -0.002567 0.008699 0.000000 0.000000 0.000000
# 4 0.000000 0.000000 0.000000 0.034107 0.000000 0.000000
# 5 0.000000 0.000000 0.000000 0.000000 -0.038314 0.000000
# 6 0.000000 0.000000 0.000000 0.000000 0.000000 0.022030
#
#
# Mechanical properties :
#
#
# Convention : Reuss Voigt Hill
#
# Bulk Modulus (GPa) = 69.90256 71.04110 70.47183
# Shear Modulus (GPa) = 88.99989 31.75493 60.37741
#
# Velocity S-wave (km/s) = 5.64914 3.37437 4.65291
# Velocity P-wave (km/s) = 8.22286 6.37614 7.35766
#
# Compressibility (1/GPa) = 0.01430563
#
# Stress axis : x y z
#
# Youngs Moduli (GPa) = 150.36412 116.31574 114.95558
#
# Poissons Ratio (x) = 0.00794 0.25121
# Poissons Ratio (y) = 0.01027 0.29509
# Poissons Ratio (z) = 0.32859 0.29859
#
# Static dielectric constant tensor:
#      x y z
#    x 1.281020 0.000000 0.000000 
#    y 0.000000 2.227550 0.000000 
#    z 0.000000 0.000000 2.198860 
# 
# From -- ./inp_files/18860.got.cif
#   From: 2010.05.17/outbox.cif.g08.bks.cpg/sg43_10_cif.got.tgz:18860.got - 2010.06.03 19:21:55.
