data_PCOD9371707
_publ_section_title
;
Structure prediction by ZEFSAII (Michael W. Deem and Ramdas Pophale) SiO2 
 PCOD9371707
Probable space group: F D D 2
;
_chemical_formula_sum "Si O2"
_cell_formula_units_Z 72
_cell_length_a 18.268927
_cell_length_b 5.168832
_cell_length_c 34.876402
_cell_angle_alpha 90.000000
_cell_angle_beta 90.000000
_cell_angle_gamma 90.000000
_cell_volume 3293.344270
_symmetry_space_group_name_H-M "F D D 2"
_symmetry_group_IT_number 43
_symmetry_cell_setting 'orthorhombic'
loop_
_space_group_symop_operation_xyz
x,y,z
-x,-y,z
1/4-x,1/4+y,1/4+z
1/4+x,1/4-y,1/4+z
x,1/2+y,1/2+z
-x,1/2-y,1/2+z
1/4-x,3/4+y,3/4+z
1/4+x,3/4-y,3/4+z
1/2+x,y,1/2+z
1/2-x,-y,1/2+z
3/4-x,1/4+y,3/4+z
3/4+x,1/4-y,3/4+z
1/2+x,1/2+y,z
1/2-x,1/2-y,z
3/4-x,3/4+y,1/4+z
3/4+x,3/4-y,1/4+z
loop_
_atom_site_type_symbol
_atom_site_label
_atom_site_fract_x
_atom_site_fract_y
_atom_site_fract_z
Si Si1 0.832649 0.137273 0.046950
Si Si2 0.329655 0.872040 0.721044
Si Si3 0.250000 0.750000 0.506715
Si Si4 0.153029 0.901408 0.442812
Si Si5 0.547382 0.240759 0.106626
O O1 0.750000 0.250000 0.047085
O O2 0.876579 0.208008 0.084728
O O3 0.887595 0.201156 0.012233
O O4 0.813980 0.841757 0.035069
O O5 0.250000 0.750000 0.725134
O O6 0.375859 0.639177 0.701558
O O7 0.339917 0.133840 0.697022
O O8 0.214030 0.948346 0.476113
O O9 0.185993 0.930354 0.400927
O O10 0.500000 0.500000 0.103359
O O11 0.500000 0.000000 0.090789
#
# Coordination Sequence:
#
# PCOD9371707 Si02
#       5
#    16  16   8  16  16
#     4  11  25  44  72 102 146 189 242 294 370 428
#     4  11  24  43  72 105 140 184 244 299 351 434
#     4  10  22  44  74 104 136 198 248 294 350 450
#     4  11  23  44  73  99 138 193 243 287 358 431
#     4  12  28  46  72 104 148 189 240 304 369 432
#
# _framework density 21.862276999999999
#
# number of rings (size 3 to 8) (size 9 to 14) (size 15 to 20)
#    0.000    0.889    3.333    2.667    6.222    3.556 
#    2.000    0.000    0.000    0.000    0.000    0.000 
#    0.000    0.000    0.000    0.000    0.000    0.000 
#
# Total GULP energy -100421.052715 kJ/mol
# GULP energy per Si atom -5578.947373 kJ/mol
# Density = 2.181252 g / cm^3
# Si number density = 21.862277 Si / 1000 Ang^3
#
#
#
# Elastic Constant Matrix: (Units=GPa)
#
#
# Indices 1 2 3 4 5 6 
#
# 1 152.6378 39.1744 64.8180 0.0000 0.0000 0.0000
# 2 39.1744 93.9555 57.4108 0.0000 0.0000 0.0000
# 3 64.8180 57.4108 92.7969 0.0000 0.0000 0.0000
# 4 0.0000 0.0000 0.0000 11.9931 0.0000 0.0000
# 5 0.0000 0.0000 0.0000 0.0000 20.2579 0.0000
# 6 0.0000 0.0000 0.0000 0.0000 0.0000 48.1604
#
#
#
# Elastic Compliance Matrix: (Units=1/GPa)
#
#
# Indices 1 2 3 4 5 6 
#
# 1 0.009315 0.000148 -0.006598 0.000000 0.000000 0.000000
# 2 0.000148 0.017115 -0.010692 0.000000 0.000000 0.000000
# 3 -0.006598 -0.010692 0.022000 0.000000 0.000000 0.000000
# 4 0.000000 0.000000 0.000000 0.083381 0.000000 0.000000
# 5 0.000000 0.000000 0.000000 0.000000 0.049363 0.000000
# 6 0.000000 0.000000 0.000000 0.000000 0.000000 0.020764
#
#
# Mechanical properties :
#
#
# Convention : Reuss Voigt Hill
#
# Bulk Modulus (GPa) = 70.69282 73.57741 72.13512
# Shear Modulus (GPa) = 20.75223 27.94808 24.35015
#
# Velocity S-wave (km/s) = 3.08429 3.57931 3.34098
# Velocity P-wave (km/s) = 6.71487 7.12811 6.92458
#
# Compressibility (1/GPa) = 0.01414571
#
# Stress axis : x y z
#
# Youngs Moduli (GPa) = 107.34814 58.42899 45.45529
#
# Poissons Ratio (x) = -0.00863 0.29992
# Poissons Ratio (y) = -0.01586 0.48599
# Poissons Ratio (z) = 0.70830 0.62470
#
# Static dielectric constant tensor:
#      x y z
#    x 1.843340 0.000000 0.000000 
#    y 0.000000 1.924600 0.000000 
#    z 0.000000 0.000000 1.763820 
# 
# From -- ./inp_files/29575.got.cif
#   From: 2010.05.17/outbox.cif.g08.bks.cpg/sg43_15_cif.got.tgz:29575.got - 2010.06.03 19:21:55.
