data_PCOD9371699
_publ_section_title
;
Structure prediction by ZEFSAII (Michael W. Deem and Ramdas Pophale) SiO2 
 PCOD9371699
Probable space group: F D D 2
;
_chemical_formula_sum "Si O2"
_cell_formula_units_Z 72
_cell_length_a 26.473559
_cell_length_b 20.367769
_cell_length_c 4.948639
_cell_angle_alpha 90.000000
_cell_angle_beta 90.000000
_cell_angle_gamma 90.000000
_cell_volume 2668.342444
_symmetry_space_group_name_H-M "F D D 2"
_symmetry_group_IT_number 43
_symmetry_cell_setting 'orthorhombic'
loop_
_space_group_symop_operation_xyz
x,y,z
-x,-y,z
1/4-x,1/4+y,1/4+z
1/4+x,1/4-y,1/4+z
x,1/2+y,1/2+z
-x,1/2-y,1/2+z
1/4-x,3/4+y,3/4+z
1/4+x,3/4-y,3/4+z
1/2+x,y,1/2+z
1/2-x,-y,1/2+z
3/4-x,1/4+y,3/4+z
3/4+x,1/4-y,3/4+z
1/2+x,1/2+y,z
1/2-x,1/2-y,z
3/4-x,3/4+y,1/4+z
3/4+x,3/4-y,1/4+z
loop_
_atom_site_type_symbol
_atom_site_label
_atom_site_fract_x
_atom_site_fract_y
_atom_site_fract_z
Si Si1 0.250000 0.250000 0.683060
Si Si2 0.635773 0.388275 0.633387
Si Si3 0.758297 0.544799 0.078408
Si Si4 0.791764 0.857902 0.490641
Si Si5 0.329893 0.253200 0.167676
O O1 0.256560 0.161708 0.659206
O O2 0.297743 0.252646 0.901097
O O3 0.686438 0.424705 0.538553
O O4 0.592035 0.378686 0.407650
O O5 0.646927 0.315604 0.734883
O O6 0.616924 0.435926 0.872594
O O7 0.762232 0.484607 0.297177
O O8 0.721964 0.596102 0.239585
O O9 0.793736 0.778022 0.406987
#
# Coordination Sequence:
#
# PCOD9371699 Si02
#       5
#     8  16  16  16  16
#     4  10  22  44  72 108 144 214 270 332 414 500
#     4  11  27  47  76 116 156 215 277 343 428 504
#     4  12  30  50  81 120 170 220 282 354 428 507
#     4  11  26  47  77 112 164 211 283 341 429 503
#     4  11  25  45  76 106 157 206 272 342 416 503
#
# _framework density 26.983041
#
# number of rings (size 3 to 8) (size 9 to 14) (size 15 to 20)
#    0.000    0.889    0.000    4.667   15.556    3.556 
#    0.000    0.000    0.000    0.000    0.000    0.000 
#    0.000    0.000    0.000    0.000    0.000    0.000 
#
# Total GULP energy -100557.391584 kJ/mol
# GULP energy per Si atom -5586.521755 kJ/mol
# Density = 2.692163 g / cm^3
# Si number density = 26.983041 Si / 1000 Ang^3
#
#
#
# Elastic Constant Matrix: (Units=GPa)
#
#
# Indices 1 2 3 4 5 6 
#
# 1 125.6805 59.8011 35.3549 -0.0072 0.0603 -0.0066
# 2 59.8011 157.2803 9.1856 0.0294 0.0697 -0.0102
# 3 35.3549 9.1856 122.1700 0.0631 -0.0495 -0.0007
# 4 -0.0072 0.0294 0.0631 13.3891 -0.1897 0.0110
# 5 0.0603 0.0697 -0.0495 -0.1897 82.4862 -0.0022
# 6 -0.0066 -0.0102 -0.0007 0.0110 -0.0022 52.3217
#
#
#
# Elastic Compliance Matrix: (Units=1/GPa)
#
#
# Indices 1 2 3 4 5 6 
#
# 1 0.010571 -0.003858 -0.002769 0.000027 -0.000006 0.000001
# 2 -0.003858 0.007794 0.000530 -0.000022 -0.000003 0.000001
# 3 -0.002769 0.000530 0.008947 -0.000045 0.000007 0.000000
# 4 0.000027 -0.000022 -0.000045 0.074690 0.000172 -0.000016
# 5 -0.000006 -0.000003 0.000007 0.000172 0.012124 0.000000
# 6 0.000001 0.000001 0.000000 -0.000016 0.000000 0.019113
#
#
# Mechanical properties :
#
#
# Convention : Reuss Voigt Hill
#
# Bulk Modulus (GPa) = 66.14193 68.20155 67.17174
# Shear Modulus (GPa) = 33.22903 49.69202 41.46052
#
# Velocity S-wave (km/s) = 3.51305 4.29604 3.92412
# Velocity P-wave (km/s) = 6.40476 7.06672 6.74387
#
# Compressibility (1/GPa) = 0.01511900
#
# Stress axis : x y z
#
# Youngs Moduli (GPa) = 94.59629 128.30596 111.77124
#
# Poissons Ratio (x) = 0.49496 0.30952
# Poissons Ratio (y) = 0.36492 -0.05928
# Poissons Ratio (z) = 0.26196 -0.06805
#
# Static dielectric constant tensor:
#      x y z
#    x -1.458670 0.000520 0.000850 
#    y 0.000520 2.489370 -0.000050 
#    z 0.000850 -0.000050 2.180520 
# 
# From -- ./inp_files/711.got.cif
#   From: 2010.05.17/outbox.cif.g08.bks.cpg/sg43_1_cif.got.tgz:711.got - 2010.06.03 19:21:55.
