data_PCOD9371787
_publ_section_title
;
Structure prediction by ZEFSAII (Michael W. Deem and Ramdas Pophale) SiO2 
 PCOD9371787
Probable space group: F D D 2
;
_chemical_formula_sum "Si O2"
_cell_formula_units_Z 72
_cell_length_a 10.222468
_cell_length_b 20.140403
_cell_length_c 12.435662
_cell_angle_alpha 90.000000
_cell_angle_beta 90.000000
_cell_angle_gamma 90.000000
_cell_volume 2560.311610
_symmetry_space_group_name_H-M "F D D 2"
_symmetry_group_IT_number 43
_symmetry_cell_setting 'orthorhombic'
loop_
_space_group_symop_operation_xyz
x,y,z
-x,-y,z
1/4-x,1/4+y,1/4+z
1/4+x,1/4-y,1/4+z
x,1/2+y,1/2+z
-x,1/2-y,1/2+z
1/4-x,3/4+y,3/4+z
1/4+x,3/4-y,3/4+z
1/2+x,y,1/2+z
1/2-x,-y,1/2+z
3/4-x,1/4+y,3/4+z
3/4+x,1/4-y,3/4+z
1/2+x,1/2+y,z
1/2-x,1/2-y,z
3/4-x,3/4+y,1/4+z
3/4+x,3/4-y,1/4+z
loop_
_atom_site_type_symbol
_atom_site_label
_atom_site_fract_x
_atom_site_fract_y
_atom_site_fract_z
Si Si1 0.759409 0.863531 0.086070
Si Si2 0.050169 0.837617 0.292827
Si Si3 0.243343 0.674749 0.814910
Si Si4 0.139210 0.963862 0.416946
Si Si5 0.500000 0.000000 0.180379
O O1 0.698929 0.832834 0.193379
O O2 0.670336 0.914130 0.017947
O O3 0.889857 0.895666 0.134111
O O4 0.806855 0.805288 0.008862
O O5 0.847043 0.599169 0.586027
O O6 0.126218 0.909515 0.317508
O O7 0.027898 0.782215 0.193171
O O8 0.137435 0.788693 0.367370
O O9 0.250000 0.750000 0.842446
O O10 0.000000 0.000000 0.416200
#
# Coordination Sequence:
#
# PCOD9371787 Si02
#       5
#    16  16  16  16   8
#     4  11  25  46  74 104 153 202 265 320 405 471
#     4  11  25  45  77 111 159 197 274 320 402 472
#     4  12  26  44  67 110 152 194 257 337 389 462
#     4  11  25  47  76 112 149 207 264 325 387 489
#     4  10  22  48  78 106 140 224 260 320 388 514
#
# _framework density 28.121578
#
# number of rings (size 3 to 8) (size 9 to 14) (size 15 to 20)
#    0.000    0.889    4.444    1.333    6.222    0.000 
#    0.000    3.333    0.000    0.000    0.000    0.000 
#    0.000    0.000    0.000    0.000    0.000    0.000 
#
# Total GULP energy -100241.131697 kJ/mol
# GULP energy per Si atom -5568.951761 kJ/mol
# Density = 2.805757 g / cm^3
# Si number density = 28.121578 Si / 1000 Ang^3
#
#
#
# Elastic Constant Matrix: (Units=GPa)
#
#
# Indices 1 2 3 4 5 6 
#
# 1 94.4665 37.5560 23.8122 0.0000 0.0000 0.0000
# 2 37.5560 223.4953 57.9438 0.0000 0.0000 0.0000
# 3 23.8122 57.9438 122.7109 0.0000 0.0000 0.0000
# 4 0.0000 0.0000 0.0000 48.1123 0.0000 0.0000
# 5 0.0000 0.0000 0.0000 0.0000 11.0174 0.0000
# 6 0.0000 0.0000 0.0000 0.0000 0.0000 61.7993
#
#
#
# Elastic Compliance Matrix: (Units=1/GPa)
#
#
# Indices 1 2 3 4 5 6 
#
# 1 0.011585 -0.001554 -0.001514 0.000000 0.000000 0.000000
# 2 -0.001554 0.005307 -0.002204 0.000000 0.000000 0.000000
# 3 -0.001514 -0.002204 0.009484 0.000000 0.000000 0.000000
# 4 0.000000 0.000000 0.000000 0.020785 0.000000 0.000000
# 5 0.000000 0.000000 0.000000 0.000000 0.090766 0.000000
# 6 0.000000 0.000000 0.000000 0.000000 0.000000 0.016181
#
#
# Mechanical properties :
#
#
# Convention : Reuss Voigt Hill
#
# Bulk Modulus (GPa) = 63.16840 75.47739 69.32290
# Shear Modulus (GPa) = 29.42376 45.60984 37.51680
#
# Velocity S-wave (km/s) = 3.23817 4.03163 3.65649
# Velocity P-wave (km/s) = 6.04089 6.96921 6.52159
#
# Compressibility (1/GPa) = 0.01583070
#
# Stress axis : x y z
#
# Youngs Moduli (GPa) = 86.31585 188.42874 105.44094
#
# Poissons Ratio (x) = 0.29286 0.15966
# Poissons Ratio (y) = 0.13415 0.23243
# Poissons Ratio (z) = 0.13070 0.41537
#
# Static dielectric constant tensor:
#      x y z
#    x 2.343240 0.000000 0.000000 
#    y 0.000000 2.180520 0.000000 
#    z 0.000000 0.000000 2.381250 
# 
# From -- ./inp_files/13747.got.cif
#   From: 2010.05.17/outbox.cif.g08.bks.cpg/sg43_7_cif.got.tgz:13747.got - 2010.06.03 19:21:55.
