data_PCOD9371078
_publ_section_title
;
Structure prediction by ZEFSAII (Michael W. Deem and Ramdas Pophale) SiO2 
 PCOD9371078
Probable space group: F D D 2
;
_chemical_formula_sum "Si O2"
_cell_formula_units_Z 96
_cell_length_a 22.115247
_cell_length_b 15.653776
_cell_length_c 11.966828
_cell_angle_alpha 90.000000
_cell_angle_beta 90.000000
_cell_angle_gamma 90.000000
_cell_volume 4142.761753
_symmetry_space_group_name_H-M "F D D 2"
_symmetry_group_IT_number 43
_symmetry_cell_setting 'orthorhombic'
loop_
_space_group_symop_operation_xyz
x,y,z
-x,-y,z
1/4-x,1/4+y,1/4+z
1/4+x,1/4-y,1/4+z
x,1/2+y,1/2+z
-x,1/2-y,1/2+z
1/4-x,3/4+y,3/4+z
1/4+x,3/4-y,3/4+z
1/2+x,y,1/2+z
1/2-x,-y,1/2+z
3/4-x,1/4+y,3/4+z
3/4+x,1/4-y,3/4+z
1/2+x,1/2+y,z
1/2-x,1/2-y,z
3/4-x,3/4+y,1/4+z
3/4+x,3/4-y,1/4+z
loop_
_atom_site_type_symbol
_atom_site_label
_atom_site_fract_x
_atom_site_fract_y
_atom_site_fract_z
Si Si1 0.321829 0.237133 0.358900
Si Si2 0.877605 0.400102 0.941376
Si Si3 0.103525 0.210511 0.148233
Si Si4 0.380660 0.412503 0.696831
Si Si5 0.724499 0.469835 0.412081
Si Si6 0.251058 0.841764 0.219878
O O1 0.250000 0.250000 0.371714
O O2 0.357454 0.301972 0.440232
O O3 0.341879 0.138996 0.373530
O O4 0.344229 0.270638 0.237418
O O5 0.887498 0.435925 0.066846
O O6 0.944001 0.410563 0.885242
O O7 0.821381 0.452574 0.894868
O O8 0.040474 0.249041 0.198598
O O9 0.119964 0.261655 0.034076
O O10 0.437155 0.352019 0.731009
O O11 0.319357 0.357320 0.686228
O O12 0.736524 0.422235 0.296261
O O13 0.250000 0.750000 0.278505
#
# Coordination Sequence:
#
# PCOD9371078 Si02
#       6
#    16  16  16  16  16  16
#     4  12  29  50  73 112 153 199 256 324 402 463
#     4  11  24  42  73 100 143 189 247 302 367 459
#     4  11  28  48  75 107 155 196 253 314 395 466
#     4  10  24  43  73 101 143 192 247 297 368 456
#     4  10  22  43  68 103 139 183 247 299 367 448
#     4  10  21  38  66 102 136 178 238 293 355 430
#
# _framework density 23.172948999999999
#
# number of rings (size 3 to 8) (size 9 to 14) (size 15 to 20)
#    0.000    1.333    3.333    0.000    9.333    3.333 
#    0.000    0.833    0.000    0.000    0.000    0.000 
#    0.000    0.000    0.000    0.000    0.000    0.000 
#
# Total GULP energy -133932.190494 kJ/mol
# GULP energy per Si atom -5580.507937 kJ/mol
# Density = 2.312021 g / cm^3
# Si number density = 23.172949 Si / 1000 Ang^3
#
#
#
# Elastic Constant Matrix: (Units=GPa)
#
#
# Indices 1 2 3 4 5 6 
#
# 1 121.9299 47.0562 26.4387 0.0000 0.0000 0.0000
# 2 47.0562 160.6505 38.4633 0.0000 0.0000 0.0000
# 3 26.4387 38.4633 78.2731 0.0000 0.0000 0.0000
# 4 0.0000 0.0000 0.0000 -10.1632 0.0000 0.0000
# 5 0.0000 0.0000 0.0000 0.0000 32.3243 0.0000
# 6 0.0000 0.0000 0.0000 0.0000 0.0000 44.4365
#
#
#
# Elastic Compliance Matrix: (Units=1/GPa)
#
#
# Indices 1 2 3 4 5 6 
#
# 1 0.009541 -0.002293 -0.002096 0.000000 0.000000 0.000000
# 2 -0.002293 0.007606 -0.002963 0.000000 0.000000 0.000000
# 3 -0.002096 -0.002963 0.014940 0.000000 0.000000 0.000000
# 4 0.000000 0.000000 0.000000 -0.098394 0.000000 0.000000
# 5 0.000000 0.000000 0.000000 0.000000 0.030937 0.000000
# 6 0.000000 0.000000 0.000000 0.000000 0.000000 0.022504
#
#
# Mechanical properties :
#
#
# Convention : Reuss Voigt Hill
#
# Bulk Modulus (GPa) = 57.52826 64.97441 61.25134
# Shear Modulus (GPa) = 655.27615 29.91253 342.59434
#
# Velocity S-wave (km/s) = 16.83420 3.59672 12.17224
# Velocity P-wave (km/s) = 20.06821 6.73412 14.96799
#
# Compressibility (1/GPa) = 0.01738276
#
# Stress axis : x y z
#
# Youngs Moduli (GPa) = 104.81347 131.48086 66.93549
#
# Poissons Ratio (x) = 0.30145 0.14029
# Poissons Ratio (y) = 0.24031 0.19833
# Poissons Ratio (z) = 0.21969 0.38958
#
# Static dielectric constant tensor:
#      x y z
#    x 1.982230 0.000000 0.000000 
#    y 0.000000 1.881570 0.000000 
#    z 0.000000 0.000000 1.923260 
# 
# From -- ./inp_files/10918.got.cif
#   From: 2010.05.17/outbox.cif.g08.bks.cpg/sg43_6_cif.got.tgz:10918.got - 2010.06.03 19:21:55.
