data_PCOD9371753
_publ_section_title
;
Structure prediction by ZEFSAII (Michael W. Deem and Ramdas Pophale) SiO2 
 PCOD9371753
Probable space group: F D D 2
;
_chemical_formula_sum "Si O2"
_cell_formula_units_Z 104
_cell_length_a 20.485267
_cell_length_b 27.554011
_cell_length_c 7.082594
_cell_angle_alpha 90.000000
_cell_angle_beta 90.000000
_cell_angle_gamma 90.000000
_cell_volume 3997.779194
_symmetry_space_group_name_H-M "F D D 2"
_symmetry_group_IT_number 43
_symmetry_cell_setting 'orthorhombic'
loop_
_space_group_symop_operation_xyz
x,y,z
-x,-y,z
1/4-x,1/4+y,1/4+z
1/4+x,1/4-y,1/4+z
x,1/2+y,1/2+z
-x,1/2-y,1/2+z
1/4-x,3/4+y,3/4+z
1/4+x,3/4-y,3/4+z
1/2+x,y,1/2+z
1/2-x,-y,1/2+z
3/4-x,1/4+y,3/4+z
3/4+x,1/4-y,3/4+z
1/2+x,1/2+y,z
1/2-x,1/2-y,z
3/4-x,3/4+y,1/4+z
3/4+x,3/4-y,1/4+z
loop_
_atom_site_type_symbol
_atom_site_label
_atom_site_fract_x
_atom_site_fract_y
_atom_site_fract_z
Si Si1 0.500000 0.000000 0.169850
Si Si2 0.619690 0.754168 0.063770
Si Si3 0.984088 0.718813 0.555018
Si Si4 0.159493 0.625027 0.846801
Si Si5 0.931649 0.301650 0.231453
Si Si6 0.759374 0.154780 0.158256
Si Si7 0.844980 0.386065 0.404746
O O1 0.442856 0.013672 0.316792
O O2 0.512841 0.045351 0.028946
O O3 0.556563 0.726180 0.142285
O O4 0.659895 0.631788 0.119938
O O5 0.606413 0.741969 0.842908
O O6 0.002189 0.696911 0.352284
O O7 0.879354 0.690574 0.130944
O O8 0.941834 0.676984 0.644752
O O9 0.049964 0.728661 0.046960
O O10 0.209002 0.658482 0.975776
O O11 0.108740 0.650616 0.281965
O O12 0.026392 0.368030 0.049792
O O13 0.918307 0.382910 0.879084
#
# Coordination Sequence:
#
# PCOD9371753 Si02
#       7
#     8  16  16  16  16  16  16
#     4  12  24  50  72 120 170 210 272 336 426 486
#     4  10  25  44  79 109 152 220 259 337 419 480
#     4  10  22  46  72 112 150 200 269 328 394 494
#     4  12  29  51  81 122 158 215 284 331 419 500
#     4  10  22  47  76 111 151 205 268 326 407 485
#     4  12  28  51  80 115 167 210 269 346 411 496
#     4  12  26  54  82 116 160 213 274 346 410 497
#
# _framework density 26.014443
#
# number of rings (size 3 to 8) (size 9 to 14) (size 15 to 20)
#    0.923    0.000    1.538    4.615    0.000    8.615 
#    5.538    0.769    0.000    0.000    0.000    0.000 
#    0.000    0.000    0.000    0.000    0.000    0.000 
#
# Total GULP energy -144814.556981 kJ/mol
# GULP energy per Si atom -5569.790653 kJ/mol
# Density = 2.595523 g / cm^3
# Si number density = 26.014443 Si / 1000 Ang^3
#
#
#
# Elastic Constant Matrix: (Units=GPa)
#
#
# Indices 1 2 3 4 5 6 
#
# 1 198.7975 38.5200 66.2136 -0.0007 0.0042 0.0012
# 2 38.5200 140.8849 29.6164 0.0014 -0.0020 -0.0008
# 3 66.2136 29.6164 124.4958 -0.0005 0.0055 0.0020
# 4 -0.0007 0.0014 -0.0005 28.9779 0.0019 0.0005
# 5 0.0042 -0.0020 0.0055 0.0019 21.6244 -0.0030
# 6 0.0012 -0.0008 0.0020 0.0005 -0.0030 26.4116
#
#
#
# Elastic Compliance Matrix: (Units=1/GPa)
#
#
# Indices 1 2 3 4 5 6 
#
# 1 0.006261 -0.001065 -0.003077 0.000000 -0.000001 0.000000
# 2 -0.001065 0.007653 -0.001254 0.000000 0.000001 0.000000
# 3 -0.003077 -0.001254 0.009967 0.000000 -0.000002 -0.000001
# 4 0.000000 0.000000 0.000000 0.034509 -0.000003 -0.000001
# 5 -0.000001 0.000001 -0.000002 -0.000003 0.046244 0.000005
# 6 0.000000 0.000000 -0.000001 -0.000001 0.000005 0.037862
#
#
# Mechanical properties :
#
#
# Convention : Reuss Voigt Hill
#
# Bulk Modulus (GPa) = 76.39742 81.43089 78.91415
# Shear Modulus (GPa) = 31.71549 37.39135 34.55342
#
# Velocity S-wave (km/s) = 3.49542 3.79533 3.64846
# Velocity P-wave (km/s) = 6.76178 7.11169 6.93894
#
# Compressibility (1/GPa) = 0.01308945
#
# Stress axis : x y z
#
# Youngs Moduli (GPa) = 159.70831 130.67042 100.33002
#
# Poissons Ratio (x) = 0.13919 0.30869
# Poissons Ratio (y) = 0.17012 0.12582
# Poissons Ratio (z) = 0.49138 0.16386
#
# Static dielectric constant tensor:
#      x y z
#    x 2.363460 0.000000 0.000000 
#    y 0.000000 2.123370 0.000000 
#    z 0.000000 0.000000 2.185740 
# 
# From -- ./inp_files/3972.got.cif
#   From: 2010.05.17/outbox.cif.g08.bks.cpg/sg43_2_cif.got.tgz:3972.got - 2010.06.03 19:21:55.
