data_PCOD9371058
_publ_section_title
;
Structure prediction by ZEFSAII (Michael W. Deem and Ramdas Pophale) SiO2 
 PCOD9371058
Probable space group: F D D 2
;
_chemical_formula_sum "Si O2"
_cell_formula_units_Z 80
_cell_length_a 15.520163
_cell_length_b 24.378042
_cell_length_c 9.338131
_cell_angle_alpha 90.000000
_cell_angle_beta 90.000000
_cell_angle_gamma 90.000000
_cell_volume 3533.092934
_symmetry_space_group_name_H-M "F D D 2"
_symmetry_group_IT_number 43
_symmetry_cell_setting 'orthorhombic'
loop_
_space_group_symop_operation_xyz
x,y,z
-x,-y,z
1/4-x,1/4+y,1/4+z
1/4+x,1/4-y,1/4+z
x,1/2+y,1/2+z
-x,1/2-y,1/2+z
1/4-x,3/4+y,3/4+z
1/4+x,3/4-y,3/4+z
1/2+x,y,1/2+z
1/2-x,-y,1/2+z
3/4-x,1/4+y,3/4+z
3/4+x,1/4-y,3/4+z
1/2+x,1/2+y,z
1/2-x,1/2-y,z
3/4-x,3/4+y,1/4+z
3/4+x,3/4-y,1/4+z
loop_
_atom_site_type_symbol
_atom_site_label
_atom_site_fract_x
_atom_site_fract_y
_atom_site_fract_z
Si Si1 0.345783 0.103515 0.987490
Si Si2 0.841325 0.824370 0.343148
Si Si3 0.044096 0.082145 0.491252
Si Si4 0.195779 0.905360 0.815395
Si Si5 0.659248 0.001142 0.829154
O O1 0.311007 0.157712 0.909530
O O2 0.300447 0.050858 0.913732
O O3 0.445868 0.093065 0.952914
O O4 0.337622 0.103722 0.156267
O O5 0.902037 0.869610 0.417143
O O6 0.745577 0.849103 0.359119
O O7 0.873413 0.826286 0.178906
O O8 0.865162 0.770024 0.432309
O O9 0.087220 0.027482 0.432342
O O10 0.268149 0.953011 0.807234
#
# Coordination Sequence:
#
# PCOD9371058 Si02
#       5
#    16  16  16  16  16
#     4  11  22  38  62  90 123 161 202 258 314 365
#     4  10  21  39  61  88 122 162 206 255 307 367
#     4  10  21  39  61  85 116 159 203 247 305 371
#     4  11  22  38  61  92 125 160 206 263 314 367
#     4  10  21  38  62  87 118 166 213 247 298 378
#
# _framework density 22.643049999999999
#
# number of rings (size 3 to 8) (size 9 to 14) (size 15 to 20)
#    0.000    1.600    0.000    6.600    0.000    3.200 
#    0.000    4.000    0.000    4.800    0.000    0.000 
#    0.000    0.000    0.000    0.000    0.000    0.000 
#
# Total GULP energy -111799.059592 kJ/mol
# GULP energy per Si atom -5589.952980 kJ/mol
# Density = 2.259151 g / cm^3
# Si number density = 22.643050 Si / 1000 Ang^3
#
#
#
# Elastic Constant Matrix: (Units=GPa)
#
#
# Indices 1 2 3 4 5 6 
#
# 1 51.5827 9.3557 7.3022 0.0000 0.0000 0.0000
# 2 9.3557 75.2554 28.6555 0.0000 0.0000 0.0000
# 3 7.3022 28.6555 161.2459 0.0000 0.0000 0.0000
# 4 0.0000 0.0000 0.0000 41.6439 0.0000 0.0000
# 5 0.0000 0.0000 0.0000 0.0000 18.4188 0.0000
# 6 0.0000 0.0000 0.0000 0.0000 0.0000 19.9469
#
#
#
# Elastic Compliance Matrix: (Units=1/GPa)
#
#
# Indices 1 2 3 4 5 6 
#
# 1 0.019870 -0.002282 -0.000494 0.000000 0.000000 0.000000
# 2 -0.002282 0.014515 -0.002476 0.000000 0.000000 0.000000
# 3 -0.000494 -0.002476 0.006664 0.000000 0.000000 0.000000
# 4 0.000000 0.000000 0.000000 0.024013 0.000000 0.000000
# 5 0.000000 0.000000 0.000000 0.000000 0.054292 0.000000
# 6 0.000000 0.000000 0.000000 0.000000 0.000000 0.050133
#
#
# Mechanical properties :
#
#
# Convention : Reuss Voigt Hill
#
# Bulk Modulus (GPa) = 32.73949 42.07895 37.40922
# Shear Modulus (GPa) = 26.29173 32.18661 29.23917
#
# Velocity S-wave (km/s) = 3.41125 3.77434 3.59738
# Velocity P-wave (km/s) = 5.47776 6.13336 5.81481
#
# Compressibility (1/GPa) = 0.03054415
#
# Stress axis : x y z
#
# Youngs Moduli (GPa) = 50.32654 68.89599 150.05710
#
# Poissons Ratio (x) = 0.15722 0.07417
# Poissons Ratio (y) = 0.11485 0.37156
# Poissons Ratio (z) = 0.02488 0.17059
#
# Static dielectric constant tensor:
#      x y z
#    x 1.855600 0.000000 0.000000 
#    y 0.000000 1.875020 0.000000 
#    z 0.000000 0.000000 1.899880 
# 
# From -- ./inp_files/2783.got.cif
#   From: 2010.05.17/outbox.cif.g08.bks.cpg/sg43_2_cif.got.tgz:2783.got - 2010.06.03 19:21:55.
