data_PCOD9371285
_publ_section_title
;
Structure prediction by ZEFSAII (Michael W. Deem and Ramdas Pophale) SiO2 
 PCOD9371285
Probable space group: F D D 2
;
_chemical_formula_sum "Si O2"
_cell_formula_units_Z 96
_cell_length_a 9.108834
_cell_length_b 28.947351
_cell_length_c 19.534426
_cell_angle_alpha 90.000000
_cell_angle_beta 90.000000
_cell_angle_gamma 90.000000
_cell_volume 5150.771324
_symmetry_space_group_name_H-M "F D D 2"
_symmetry_group_IT_number 43
_symmetry_cell_setting 'orthorhombic'
loop_
_space_group_symop_operation_xyz
x,y,z
-x,-y,z
1/4-x,1/4+y,1/4+z
1/4+x,1/4-y,1/4+z
x,1/2+y,1/2+z
-x,1/2-y,1/2+z
1/4-x,3/4+y,3/4+z
1/4+x,3/4-y,3/4+z
1/2+x,y,1/2+z
1/2-x,-y,1/2+z
3/4-x,1/4+y,3/4+z
3/4+x,1/4-y,3/4+z
1/2+x,1/2+y,z
1/2-x,1/2-y,z
3/4-x,3/4+y,1/4+z
3/4+x,3/4-y,1/4+z
loop_
_atom_site_type_symbol
_atom_site_label
_atom_site_fract_x
_atom_site_fract_y
_atom_site_fract_z
Si Si1 0.104295 0.223477 0.952720
Si Si2 0.366001 0.788914 0.920101
Si Si3 0.591281 0.192247 0.304107
Si Si4 0.320169 0.122474 0.444715
Si Si5 0.816954 0.451317 0.038657
Si Si6 0.865479 0.614835 0.282856
O O1 0.250000 0.250000 0.930121
O O2 0.050940 0.196494 0.884723
O O3 0.978540 0.260769 0.968850
O O4 0.149550 0.187354 0.010124
O O5 0.250000 0.750000 0.895612
O O6 0.277071 0.830905 0.953608
O O7 0.464462 0.805768 0.855834
O O8 0.765868 0.185514 0.301544
O O9 0.562389 0.243627 0.275221
O O10 0.494722 0.152104 0.270386
O O11 0.238979 0.078483 0.475993
O O12 0.337289 0.116833 0.363584
O O13 0.471144 0.124375 0.487883
#
# Coordination Sequence:
#
# PCOD9371285 Si02
#       6
#    16  16  16  16  16  16
#     4  11  22  42  66  93 129 175 227 266 338 407
#     4  11  20  39  66  93 126 174 217 279 330 414
#     4  10  21  43  67  89 127 175 222 270 325 410
#     4  12  24  40  65  97 131 172 221 274 342 403
#     4  10  22  39  66  92 123 172 223 263 331 403
#     4  12  24  43  65  97 132 172 223 282 336 405
#
# _framework density 18.637986000000001
#
# number of rings (size 3 to 8) (size 9 to 14) (size 15 to 20)
#    0.000    1.000    8.333    1.000    2.333    0.000 
#    3.000    3.333    0.000    0.000    0.000    0.000 
#    0.000    0.000    0.000    0.000    0.000    0.000 
#
# Total GULP energy -133842.183774 kJ/mol
# GULP energy per Si atom -5576.757657 kJ/mol
# Density = 1.859557 g / cm^3
# Si number density = 18.637986 Si / 1000 Ang^3
#
#
#
# Elastic Constant Matrix: (Units=GPa)
#
#
# Indices 1 2 3 4 5 6 
#
# 1 133.3661 63.1098 44.0993 0.0000 0.0000 0.0000
# 2 63.1098 111.1013 53.4914 0.0000 0.0000 0.0000
# 3 44.0993 53.4914 73.4320 0.0000 0.0000 0.0000
# 4 0.0000 0.0000 0.0000 38.7010 0.0000 0.0000
# 5 0.0000 0.0000 0.0000 0.0000 25.5264 0.0000
# 6 0.0000 0.0000 0.0000 0.0000 0.0000 49.3701
#
#
#
# Elastic Compliance Matrix: (Units=1/GPa)
#
#
# Indices 1 2 3 4 5 6 
#
# 1 0.010687 -0.004591 -0.003074 0.000000 0.000000 0.000000
# 2 -0.004591 0.015835 -0.008778 0.000000 0.000000 0.000000
# 3 -0.003074 -0.008778 0.021858 0.000000 0.000000 0.000000
# 4 0.000000 0.000000 0.000000 0.025839 0.000000 0.000000
# 5 0.000000 0.000000 0.000000 0.000000 0.039175 0.000000
# 6 0.000000 0.000000 0.000000 0.000000 0.000000 0.020255
#
#
# Mechanical properties :
#
#
# Convention : Reuss Voigt Hill
#
# Bulk Modulus (GPa) = 64.53682 71.03340 67.78511
# Shear Modulus (GPa) = 29.12070 33.19942 31.16006
#
# Velocity S-wave (km/s) = 3.95706 4.22510 4.09327
# Velocity P-wave (km/s) = 7.45516 7.87381 7.66734
#
# Compressibility (1/GPa) = 0.01549503
#
# Stress axis : x y z
#
# Youngs Moduli (GPa) = 93.57258 63.15268 45.74910
#
# Poissons Ratio (x) = 0.28990 0.14063
# Poissons Ratio (y) = 0.42955 0.40158
# Poissons Ratio (z) = 0.28764 0.55435
#
# Static dielectric constant tensor:
#      x y z
#    x 1.697910 0.000000 0.000000 
#    y 0.000000 1.683770 0.000000 
#    z 0.000000 0.000000 1.630450 
# 
# From -- ./inp_files/16468.got.cif
#   From: 2010.05.17/outbox.cif.g08.bks.cpg/sg43_9_cif.got.tgz:16468.got - 2010.06.03 19:21:55.
