data_PCOD9371219
_publ_section_title
;
Structure prediction by ZEFSAII (Michael W. Deem and Ramdas Pophale) SiO2 
 PCOD9371219
Probable space group: F D D 2
;
_chemical_formula_sum "Si O2"
_cell_formula_units_Z 80
_cell_length_a 21.968608
_cell_length_b 11.059485
_cell_length_c 16.043039
_cell_angle_alpha 90.000000
_cell_angle_beta 90.000000
_cell_angle_gamma 90.000000
_cell_volume 3897.840670
_symmetry_space_group_name_H-M "F D D 2"
_symmetry_group_IT_number 43
_symmetry_cell_setting 'orthorhombic'
loop_
_space_group_symop_operation_xyz
x,y,z
-x,-y,z
1/4-x,1/4+y,1/4+z
1/4+x,1/4-y,1/4+z
x,1/2+y,1/2+z
-x,1/2-y,1/2+z
1/4-x,3/4+y,3/4+z
1/4+x,3/4-y,3/4+z
1/2+x,y,1/2+z
1/2-x,-y,1/2+z
3/4-x,1/4+y,3/4+z
3/4+x,1/4-y,3/4+z
1/2+x,1/2+y,z
1/2-x,1/2-y,z
3/4-x,3/4+y,1/4+z
3/4+x,3/4-y,1/4+z
loop_
_atom_site_type_symbol
_atom_site_label
_atom_site_fract_x
_atom_site_fract_y
_atom_site_fract_z
Si Si1 0.340234 0.592775 0.261210
Si Si2 0.347301 0.694452 0.604474
Si Si3 0.722394 0.561990 0.139946
Si Si4 0.679219 0.747432 0.924558
Si Si5 0.813662 0.683466 0.592628
O O1 0.285412 0.506815 0.228461
O O2 0.328323 0.668685 0.343557
O O3 0.397129 0.505723 0.276663
O O4 0.349233 0.678587 0.181037
O O5 0.322887 0.824255 0.635563
O O6 0.290213 0.604679 0.621483
O O7 0.356584 0.706777 0.505589
O O8 0.404464 0.634247 0.649208
O O9 0.700773 0.457367 0.076060
O O10 0.750000 0.750000 0.949071
O O11 0.750000 0.750000 0.605977
#
# Coordination Sequence:
#
# PCOD9371219 Si02
#       5
#    16  16  16  16  16
#     4  10  23  38  68  93 131 173 223 270 341 390
#     4  11  24  44  66  96 138 174 227 279 341 405
#     4   9  23  43  65  91 137 178 213 287 329 398
#     4  12  25  41  69 101 129 182 222 280 345 404
#     4  10  21  41  68  94 133 170 221 282 322 407
#
# _framework density 20.524184000000002
#
# number of rings (size 3 to 8) (size 9 to 14) (size 15 to 20)
#    1.200    0.400    2.000    3.000    5.600    0.000 
#    0.000    0.000    4.400    0.000    0.000    0.000 
#    0.000    0.000    0.000    0.000    0.000    0.000 
#
# Total GULP energy -111532.301649 kJ/mol
# GULP energy per Si atom -5576.615082 kJ/mol
# Density = 2.047747 g / cm^3
# Si number density = 20.524184 Si / 1000 Ang^3
#
#
#
# Elastic Constant Matrix: (Units=GPa)
#
#
# Indices 1 2 3 4 5 6 
#
# 1 57.4798 23.7600 16.7472 0.0000 0.0000 0.0000
# 2 23.7600 72.2327 15.1374 0.0000 0.0000 0.0000
# 3 16.7472 15.1374 78.7851 0.0000 0.0000 0.0000
# 4 0.0000 0.0000 0.0000 -3.4978 0.0000 0.0000
# 5 0.0000 0.0000 0.0000 0.0000 25.7477 0.0000
# 6 0.0000 0.0000 0.0000 0.0000 0.0000 33.9409
#
#
#
# Elastic Compliance Matrix: (Units=1/GPa)
#
#
# Indices 1 2 3 4 5 6 
#
# 1 0.020906 -0.006195 -0.003254 0.000000 0.000000 0.000000
# 2 -0.006195 0.016261 -0.001807 0.000000 0.000000 0.000000
# 3 -0.003254 -0.001807 0.013732 0.000000 0.000000 0.000000
# 4 0.000000 0.000000 0.000000 -0.285896 0.000000 0.000000
# 5 0.000000 0.000000 0.000000 0.000000 0.038838 0.000000
# 6 0.000000 0.000000 0.000000 0.000000 0.000000 0.029463
#
#
# Mechanical properties :
#
#
# Convention : Reuss Voigt Hill
#
# Bulk Modulus (GPa) = 35.22821 35.53189 35.38005
# Shear Modulus (GPa) = -37.11362 21.42836 -7.84263
#
# Velocity S-wave (km/s) = -4.25701 3.23469 -1.95690
# Velocity P-wave (km/s) = 2.63843 5.59471 3.48851
#
# Compressibility (1/GPa) = 0.02838634
#
# Stress axis : x y z
#
# Youngs Moduli (GPa) = 47.83279 61.49811 72.82445
#
# Poissons Ratio (x) = 0.38098 0.23695
# Poissons Ratio (y) = 0.29632 0.13162
# Poissons Ratio (z) = 0.15563 0.11115
#
# Static dielectric constant tensor:
#      x y z
#    x 1.709740 0.000000 0.000000 
#    y 0.000000 1.751270 0.000000 
#    z 0.000000 0.000000 1.735950 
# 
# From -- ./inp_files/11187.got.cif
#   From: 2010.05.17/outbox.cif.g08.bks.cpg/sg43_6_cif.got.tgz:11187.got - 2010.06.03 19:21:55.
