data_PCOD9371759
_publ_section_title
;
Structure prediction by ZEFSAII (Michael W. Deem and Ramdas Pophale) SiO2 
 PCOD9371759
Probable space group: F D D 2
;
_chemical_formula_sum "Si O2"
_cell_formula_units_Z 112
_cell_length_a 21.423258
_cell_length_b 15.027768
_cell_length_c 15.032487
_cell_angle_alpha 90.000000
_cell_angle_beta 90.000000
_cell_angle_gamma 90.000000
_cell_volume 4839.615252
_symmetry_space_group_name_H-M "F D D 2"
_symmetry_group_IT_number 43
_symmetry_cell_setting 'orthorhombic'
loop_
_space_group_symop_operation_xyz
x,y,z
-x,-y,z
1/4-x,1/4+y,1/4+z
1/4+x,1/4-y,1/4+z
x,1/2+y,1/2+z
-x,1/2-y,1/2+z
1/4-x,3/4+y,3/4+z
1/4+x,3/4-y,3/4+z
1/2+x,y,1/2+z
1/2-x,-y,1/2+z
3/4-x,1/4+y,3/4+z
3/4+x,1/4-y,3/4+z
1/2+x,1/2+y,z
1/2-x,1/2-y,z
3/4-x,3/4+y,1/4+z
3/4+x,3/4-y,1/4+z
loop_
_atom_site_type_symbol
_atom_site_label
_atom_site_fract_x
_atom_site_fract_y
_atom_site_fract_z
Si Si1 0.621206 0.593048 0.147970
Si Si2 0.408328 0.065445 0.215015
Si Si3 0.659330 0.211318 0.122688
Si Si4 0.763660 0.377066 0.964521
Si Si5 0.875392 0.595888 0.586764
Si Si6 0.344094 0.398365 0.785857
Si Si7 0.013659 0.184681 0.653290
O O1 0.549018 0.582789 0.177137
O O2 0.648272 0.494096 0.133051
O O3 0.641093 0.654092 0.231624
O O4 0.633373 0.638618 0.054316
O O5 0.376845 0.104579 0.124840
O O6 0.479786 0.098014 0.196691
O O7 0.389493 0.963912 0.232569
O O8 0.665682 0.316804 0.107444
O O9 0.677370 0.180229 0.220962
O O10 0.584948 0.186338 0.119491
O O11 0.700512 0.161007 0.049782
O O12 0.810964 0.368031 0.884383
O O13 0.753887 0.483577 0.971888
O O14 0.283421 0.451049 0.820778
#
# Coordination Sequence:
#
# PCOD9371759 Si02
#       7
#    16  16  16  16  16  16  16
#     4  12  22  47  70 107 148 192 247 322 382 458
#     4  10  22  46  73 109 147 194 247 315 388 459
#     4  11  25  45  72 109 148 206 243 317 376 464
#     4  11  23  45  71 106 149 190 255 305 381 453
#     4  11  25  40  70 103 145 191 248 305 388 456
#     4  10  23  45  77 107 150 195 257 312 390 458
#     4   9  23  46  68 111 149 194 253 317 379 465
#
# _framework density 23.142334999999999
#
# number of rings (size 3 to 8) (size 9 to 14) (size 15 to 20)
#    0.857    0.571    2.857    2.143    4.000    1.714 
#    7.714    1.429    0.000    0.000    0.000    0.000 
#    0.000    0.000    0.000    0.000    0.000    0.000 
#
# Total GULP energy -156079.155057 kJ/mol
# GULP energy per Si atom -5574.255538 kJ/mol
# Density = 2.308966 g / cm^3
# Si number density = 23.142335 Si / 1000 Ang^3
#
#
#
# Elastic Constant Matrix: (Units=GPa)
#
#
# Indices 1 2 3 4 5 6 
#
# 1 110.8296 15.3424 24.6226 0.0000 0.0000 0.0000
# 2 15.3424 99.2606 31.5020 0.0000 0.0000 0.0000
# 3 24.6226 31.5020 98.5271 0.0000 0.0000 0.0000
# 4 0.0000 0.0000 0.0000 29.4308 0.0000 0.0000
# 5 0.0000 0.0000 0.0000 0.0000 34.7112 0.0000
# 6 0.0000 0.0000 0.0000 0.0000 0.0000 28.8338
#
#
#
# Elastic Compliance Matrix: (Units=1/GPa)
#
#
# Indices 1 2 3 4 5 6 
#
# 1 0.009611 -0.000805 -0.002144 0.000000 0.000000 0.000000
# 2 -0.000805 0.011280 -0.003405 0.000000 0.000000 0.000000
# 3 -0.002144 -0.003405 0.011774 0.000000 0.000000 0.000000
# 4 0.000000 0.000000 0.000000 0.033978 0.000000 0.000000
# 5 0.000000 0.000000 0.000000 0.000000 0.028809 0.000000
# 6 0.000000 0.000000 0.000000 0.000000 0.000000 0.034681
#
#
# Mechanical properties :
#
#
# Convention : Reuss Voigt Hill
#
# Bulk Modulus (GPa) = 50.11212 50.17237 50.14225
# Shear Modulus (GPa) = 33.44614 34.40519 33.92566
#
# Velocity S-wave (km/s) = 3.80575 3.85993 3.83294
# Velocity P-wave (km/s) = 6.40410 6.44922 6.42670
#
# Compressibility (1/GPa) = 0.01995525
#
# Stress axis : x y z
#
# Youngs Moduli (GPa) = 104.05062 88.65546 84.93174
#
# Poissons Ratio (x) = 0.07136 0.18213
# Poissons Ratio (y) = 0.08375 0.28922
# Poissons Ratio (z) = 0.22313 0.30190
#
# Static dielectric constant tensor:
#      x y z
#    x 1.910510 0.000000 0.000000 
#    y 0.000000 1.997290 0.000000 
#    z 0.000000 0.000000 1.863530 
# 
# From -- ./inp_files/11269.got.cif
#   From: 2010.05.17/outbox.cif.g08.bks.cpg/sg43_6_cif.got.tgz:11269.got - 2010.06.03 19:21:55.
