data_PCOD9371377
_publ_section_title
;
Structure prediction by ZEFSAII (Michael W. Deem and Ramdas Pophale) SiO2 
 PCOD9371377
Probable space group: F D D 2
;
_chemical_formula_sum "Si O2"
_cell_formula_units_Z 80
_cell_length_a 13.790323
_cell_length_b 16.016969
_cell_length_c 15.889783
_cell_angle_alpha 90.000000
_cell_angle_beta 90.000000
_cell_angle_gamma 90.000000
_cell_volume 3509.722176
_symmetry_space_group_name_H-M "F D D 2"
_symmetry_group_IT_number 43
_symmetry_cell_setting 'orthorhombic'
loop_
_space_group_symop_operation_xyz
x,y,z
-x,-y,z
1/4-x,1/4+y,1/4+z
1/4+x,1/4-y,1/4+z
x,1/2+y,1/2+z
-x,1/2-y,1/2+z
1/4-x,3/4+y,3/4+z
1/4+x,3/4-y,3/4+z
1/2+x,y,1/2+z
1/2-x,-y,1/2+z
3/4-x,1/4+y,3/4+z
3/4+x,1/4-y,3/4+z
1/2+x,1/2+y,z
1/2-x,1/2-y,z
3/4-x,3/4+y,1/4+z
3/4+x,3/4-y,1/4+z
loop_
_atom_site_type_symbol
_atom_site_label
_atom_site_fract_x
_atom_site_fract_y
_atom_site_fract_z
Si Si1 0.188135 0.834394 0.289020
Si Si2 0.871018 0.662591 0.981530
Si Si3 0.580806 0.195716 0.586908
Si Si4 0.430661 0.578627 0.995314
Si Si5 0.255347 0.504126 0.495931
O O1 0.250000 0.750000 0.291977
O O2 0.264428 0.897099 0.247999
O O3 0.151147 0.848236 0.383589
O O4 0.091271 0.813239 0.237604
O O5 0.805283 0.590035 0.024850
O O6 0.857363 0.755589 0.017439
O O7 0.494339 0.145268 0.544352
O O8 0.641046 0.140789 0.654316
O O9 0.541013 0.264927 0.653186
O O10 0.500000 0.500000 0.978181
O O11 0.335261 0.540490 0.041845
#
# Coordination Sequence:
#
# PCOD9371377 Si02
#       5
#    16  16  16  16  16
#     4  10  22  37  67  98 137 181 233 289 355 416
#     4  11  21  44  68 105 135 190 238 300 347 432
#     4  10  24  44  72 104 141 186 243 290 363 422
#     4  10  24  45  65 106 145 190 235 298 358 431
#     4   9  23  44  66 103 143 183 240 296 357 425
#
# _framework density 22.793828000000001
#
# number of rings (size 3 to 8) (size 9 to 14) (size 15 to 20)
#    1.200    0.800    2.000    0.000    2.800    8.800 
#    0.000    1.000    0.000    0.000    0.000    0.000 
#    0.000    0.000    0.000    0.000    0.000    0.000 
#
# Total GULP energy -111376.332273 kJ/mol
# GULP energy per Si atom -5568.816614 kJ/mol
# Density = 2.274195 g / cm^3
# Si number density = 22.793828 Si / 1000 Ang^3
#
#
#
# Elastic Constant Matrix: (Units=GPa)
#
#
# Indices 1 2 3 4 5 6 
#
# 1 158.6055 30.1531 21.9068 0.0000 0.0000 0.0000
# 2 30.1531 53.9475 0.1459 0.0000 0.0000 0.0000
# 3 21.9068 0.1459 48.6354 0.0000 0.0000 0.0000
# 4 0.0000 0.0000 0.0000 23.9615 0.0000 0.0000
# 5 0.0000 0.0000 0.0000 0.0000 46.4717 0.0000
# 6 0.0000 0.0000 0.0000 0.0000 0.0000 17.0952
#
#
#
# Elastic Compliance Matrix: (Units=1/GPa)
#
#
# Indices 1 2 3 4 5 6 
#
# 1 0.007578 -0.004227 -0.003401 0.000000 0.000000 0.000000
# 2 -0.004227 0.020894 0.001841 0.000000 0.000000 0.000000
# 3 -0.003401 0.001841 0.022087 0.000000 0.000000 0.000000
# 4 0.000000 0.000000 0.000000 0.041734 0.000000 0.000000
# 5 0.000000 0.000000 0.000000 0.000000 0.021518 0.000000
# 6 0.000000 0.000000 0.000000 0.000000 0.000000 0.058496
#
#
# Mechanical properties :
#
#
# Convention : Reuss Voigt Hill
#
# Bulk Modulus (GPa) = 25.64952 40.62221 33.13587
# Shear Modulus (GPa) = 25.39676 31.43787 28.41731
#
# Velocity S-wave (km/s) = 3.34158 3.71782 3.53471
# Velocity P-wave (km/s) = 5.11522 6.02411 5.58817
#
# Compressibility (1/GPa) = 0.03898709
#
# Stress axis : x y z
#
# Youngs Moduli (GPa) = 131.95773 47.86091 45.27464
#
# Poissons Ratio (x) = 0.20228 0.15397
# Poissons Ratio (y) = 0.55772 -0.08335
# Poissons Ratio (z) = 0.44876 -0.08811
#
# Static dielectric constant tensor:
#      x y z
#    x 1.940510 0.000000 0.000000 
#    y 0.000000 1.912200 0.000000 
#    z 0.000000 0.000000 1.876640 
# 
# From -- ./inp_files/13782.got.cif
#   From: 2010.05.17/outbox.cif.g08.bks.cpg/sg43_7_cif.got.tgz:13782.got - 2010.06.03 19:21:55.
