data_PCOD9371226
_publ_section_title
;
Structure prediction by ZEFSAII (Michael W. Deem and Ramdas Pophale) SiO2 
 PCOD9371226
Probable space group: F D D 2
;
_chemical_formula_sum "Si O2"
_cell_formula_units_Z 104
_cell_length_a 29.970571
_cell_length_b 10.049202
_cell_length_c 15.503078
_cell_angle_alpha 90.000000
_cell_angle_beta 90.000000
_cell_angle_gamma 90.000000
_cell_volume 4669.222025
_symmetry_space_group_name_H-M "F D D 2"
_symmetry_group_IT_number 43
_symmetry_cell_setting 'orthorhombic'
loop_
_space_group_symop_operation_xyz
x,y,z
-x,-y,z
1/4-x,1/4+y,1/4+z
1/4+x,1/4-y,1/4+z
x,1/2+y,1/2+z
-x,1/2-y,1/2+z
1/4-x,3/4+y,3/4+z
1/4+x,3/4-y,3/4+z
1/2+x,y,1/2+z
1/2-x,-y,1/2+z
3/4-x,1/4+y,3/4+z
3/4+x,1/4-y,3/4+z
1/2+x,1/2+y,z
1/2-x,1/2-y,z
3/4-x,3/4+y,1/4+z
3/4+x,3/4-y,1/4+z
loop_
_atom_site_type_symbol
_atom_site_label
_atom_site_fract_x
_atom_site_fract_y
_atom_site_fract_z
Si Si1 0.500000 0.500000 0.845430
Si Si2 0.684632 0.886326 0.958110
Si Si3 0.889251 0.780972 0.871206
Si Si4 0.586621 0.416284 0.909179
Si Si5 0.120655 0.670248 0.836159
Si Si6 0.962684 0.098696 0.175034
Si Si7 0.296817 0.299738 0.627451
O O1 0.532740 0.575668 0.779912
O O2 0.533131 0.418067 0.906347
O O3 0.647791 0.962398 0.018063
O O4 0.657565 0.782818 0.899901
O O5 0.713143 0.994112 0.905131
O O6 0.927661 0.682580 0.909600
O O7 0.895594 0.933329 0.899382
O O8 0.599590 0.317259 0.832052
O O9 0.608586 0.367357 0.997316
O O10 0.164108 0.692286 0.894111
O O11 0.083186 0.569027 0.870572
O O12 0.965445 0.088230 0.278539
O O13 0.000000 0.000000 0.138733
O O14 0.250000 0.250000 0.667979
#
# Coordination Sequence:
#
# PCOD9371226 Si02
#       7
#     8  16  16  16  16  16  16
#     4  10  24  40  64  92 128 170 210 264 336 394
#     4  10  21  41  69  91 128 173 224 269 326 400
#     4  10  21  42  64  92 125 172 215 269 322 398
#     4  11  25  38  63  96 130 170 214 270 334 394
#     4  12  23  42  63  98 129 173 216 275 330 389
#     4  10  22  38  63  95 128 168 218 269 324 392
#     4  10  22  41  68  93 126 173 226 270 329 397
#
# _framework density 22.273517999999999
#
# number of rings (size 3 to 8) (size 9 to 14) (size 15 to 20)
#    0.000    1.538    3.077    1.846    9.692    1.231 
#    0.000    0.000    1.692    0.000    0.000    0.000 
#    0.000    0.000    0.000    0.000    0.000    0.000 
#
# Total GULP energy -144898.356316 kJ/mol
# GULP energy per Si atom -5573.013704 kJ/mol
# Density = 2.222282 g / cm^3
# Si number density = 22.273518 Si / 1000 Ang^3
#
#
#
# Elastic Constant Matrix: (Units=GPa)
#
#
# Indices 1 2 3 4 5 6 
#
# 1 106.2707 38.8959 15.9025 0.0000 0.0000 0.0000
# 2 38.8959 98.9236 2.3202 0.0000 0.0000 0.0000
# 3 15.9025 2.3202 27.4382 0.0000 0.0000 0.0000
# 4 0.0000 0.0000 0.0000 16.2734 0.0000 0.0000
# 5 0.0000 0.0000 0.0000 0.0000 11.0929 0.0000
# 6 0.0000 0.0000 0.0000 0.0000 0.0000 39.9824
#
#
#
# Elastic Compliance Matrix: (Units=1/GPa)
#
#
# Indices 1 2 3 4 5 6 
#
# 1 0.012081 -0.004595 -0.006614 0.000000 0.000000 0.000000
# 2 -0.004595 0.011877 0.001659 0.000000 0.000000 0.000000
# 3 -0.006614 0.001659 0.040138 0.000000 0.000000 0.000000
# 4 0.000000 0.000000 0.000000 0.061450 0.000000 0.000000
# 5 0.000000 0.000000 0.000000 0.000000 0.090148 0.000000
# 6 0.000000 0.000000 0.000000 0.000000 0.000000 0.025011
#
#
# Mechanical properties :
#
#
# Convention : Reuss Voigt Hill
#
# Bulk Modulus (GPa) = 22.22374 38.54107 30.38241
# Shear Modulus (GPa) = 18.19477 25.17065 21.68271
#
# Velocity S-wave (km/s) = 2.86121 3.36530 3.12344
# Velocity P-wave (km/s) = 4.57326 5.69574 5.16508
#
# Compressibility (1/GPa) = 0.04499692
#
# Stress axis : x y z
#
# Youngs Moduli (GPa) = 82.77138 84.19846 24.91383
#
# Poissons Ratio (x) = 0.38691 0.16477
# Poissons Ratio (y) = 0.38035 -0.04133
# Poissons Ratio (z) = 0.54741 -0.13968
#
# Static dielectric constant tensor:
#      x y z
#    x 1.873060 0.000000 0.000000 
#    y 0.000000 1.943550 0.000000 
#    z 0.000000 0.000000 1.865720 
# 
# From -- ./inp_files/18865.got.cif
#   From: 2010.05.17/outbox.cif.g08.bks.cpg/sg43_10_cif.got.tgz:18865.got - 2010.06.03 19:21:55.
