data_PCOD9371588
_publ_section_title
;
Structure prediction by ZEFSAII (Michael W. Deem and Ramdas Pophale) SiO2 
 PCOD9371588
Probable space group: F D D 2
;
_chemical_formula_sum "Si O2"
_cell_formula_units_Z 88
_cell_length_a 19.231040
_cell_length_b 9.168761
_cell_length_c 19.939807
_cell_angle_alpha 90.000000
_cell_angle_beta 90.000000
_cell_angle_gamma 90.000000
_cell_volume 3515.882672
_symmetry_space_group_name_H-M "F D D 2"
_symmetry_group_IT_number 43
_symmetry_cell_setting 'orthorhombic'
loop_
_space_group_symop_operation_xyz
x,y,z
-x,-y,z
1/4-x,1/4+y,1/4+z
1/4+x,1/4-y,1/4+z
x,1/2+y,1/2+z
-x,1/2-y,1/2+z
1/4-x,3/4+y,3/4+z
1/4+x,3/4-y,3/4+z
1/2+x,y,1/2+z
1/2-x,-y,1/2+z
3/4-x,1/4+y,3/4+z
3/4+x,1/4-y,3/4+z
1/2+x,1/2+y,z
1/2-x,1/2-y,z
3/4-x,3/4+y,1/4+z
3/4+x,3/4-y,1/4+z
loop_
_atom_site_type_symbol
_atom_site_label
_atom_site_fract_x
_atom_site_fract_y
_atom_site_fract_z
Si Si1 0.678347 0.830946 0.679690
Si Si2 0.582616 0.450607 0.713123
Si Si3 0.037278 0.285480 0.607962
Si Si4 0.160544 0.163599 0.814400
Si Si5 0.387843 0.127905 0.485861
Si Si6 0.500000 0.000000 0.721724
O O1 0.750000 0.750000 0.660432
O O2 0.613115 0.766077 0.640495
O O3 0.732807 0.585495 0.834932
O O4 0.669747 0.009467 0.679234
O O5 0.500000 0.500000 0.712148
O O6 0.613260 0.469291 0.637262
O O7 0.614931 0.544586 0.774061
O O8 0.608311 0.283942 0.725092
O O9 0.054267 0.378946 0.542600
O O10 0.002071 0.367690 0.669584
O O11 0.081767 0.036267 0.507778
O O12 0.320113 0.219964 0.510403
#
# Coordination Sequence:
#
# PCOD9371588 Si02
#       6
#    16  16  16  16  16   8
#     4  11  25  46  77 120 158 222 285 355 429 528
#     4  12  29  54  82 120 171 225 292 365 446 527
#     4  11  23  46  76 108 162 215 273 350 438 500
#     4  12  26  52  81 118 170 223 285 365 444 522
#     4  11  25  45  78 109 154 217 279 344 429 517
#     4  10  22  42  70 104 150 204 274 342 428 502
#
# _framework density 25.029277
#
# number of rings (size 3 to 8) (size 9 to 14) (size 15 to 20)
#    0.000    0.727    3.636    2.727    8.909    0.000 
#    6.545    0.000    0.000    0.000    0.000    0.000 
#    0.000    0.000    0.000    0.000    0.000    0.000 
#
# Total GULP energy -122605.592353 kJ/mol
# GULP energy per Si atom -5572.981471 kJ/mol
# Density = 2.497231 g / cm^3
# Si number density = 25.029277 Si / 1000 Ang^3
#
#
#
# Elastic Constant Matrix: (Units=GPa)
#
#
# Indices 1 2 3 4 5 6 
#
# 1 116.1741 59.0517 41.4302 0.0000 0.0000 0.0000
# 2 59.0517 177.2784 47.5502 0.0000 0.0000 0.0000
# 3 41.4302 47.5502 113.5697 0.0000 0.0000 0.0000
# 4 0.0000 0.0000 0.0000 31.0889 0.0000 0.0000
# 5 0.0000 0.0000 0.0000 0.0000 51.1141 0.0000
# 6 0.0000 0.0000 0.0000 0.0000 0.0000 50.4260
#
#
#
# Elastic Compliance Matrix: (Units=1/GPa)
#
#
# Indices 1 2 3 4 5 6 
#
# 1 0.011110 -0.002944 -0.002820 0.000000 0.000000 0.000000
# 2 -0.002944 0.007135 -0.001913 0.000000 0.000000 0.000000
# 3 -0.002820 -0.001913 0.010635 0.000000 0.000000 0.000000
# 4 0.000000 0.000000 0.000000 0.032166 0.000000 0.000000
# 5 0.000000 0.000000 0.000000 0.000000 0.019564 0.000000
# 6 0.000000 0.000000 0.000000 0.000000 0.000000 0.019831
#
#
# Mechanical properties :
#
#
# Convention : Reuss Voigt Hill
#
# Bulk Modulus (GPa) = 73.93997 78.12068 76.03033
# Shear Modulus (GPa) = 41.56126 43.79182 42.67654
#
# Velocity S-wave (km/s) = 4.07935 4.18739 4.13372
# Velocity P-wave (km/s) = 7.19678 7.39313 7.29562
#
# Compressibility (1/GPa) = 0.01352448
#
# Stress axis : x y z
#
# Youngs Moduli (GPa) = 90.00780 140.15882 94.02936
#
# Poissons Ratio (x) = 0.41268 0.26518
# Poissons Ratio (y) = 0.26502 0.17989
# Poissons Ratio (z) = 0.25384 0.26814
#
# Static dielectric constant tensor:
#      x y z
#    x 1.960980 0.000000 0.000000 
#    y 0.000000 2.179630 0.000000 
#    z 0.000000 0.000000 2.023570 
# 
# From -- ./inp_files/22330.got.cif
#   From: 2010.05.17/outbox.cif.g08.bks.cpg/sg43_12_cif.got.tgz:22330.got - 2010.06.03 19:21:55.
