data_PCOD9371449
_publ_section_title
;
Structure prediction by ZEFSAII (Michael W. Deem and Ramdas Pophale) SiO2 
 PCOD9371449
Probable space group: F D D 2
;
_chemical_formula_sum "Si O2"
_cell_formula_units_Z 72
_cell_length_a 12.855533
_cell_length_b 24.000423
_cell_length_c 11.265476
_cell_angle_alpha 90.000000
_cell_angle_beta 90.000000
_cell_angle_gamma 90.000000
_cell_volume 3475.830024
_symmetry_space_group_name_H-M "F D D 2"
_symmetry_group_IT_number 43
_symmetry_cell_setting 'orthorhombic'
loop_
_space_group_symop_operation_xyz
x,y,z
-x,-y,z
1/4-x,1/4+y,1/4+z
1/4+x,1/4-y,1/4+z
x,1/2+y,1/2+z
-x,1/2-y,1/2+z
1/4-x,3/4+y,3/4+z
1/4+x,3/4-y,3/4+z
1/2+x,y,1/2+z
1/2-x,-y,1/2+z
3/4-x,1/4+y,3/4+z
3/4+x,1/4-y,3/4+z
1/2+x,1/2+y,z
1/2-x,1/2-y,z
3/4-x,3/4+y,1/4+z
3/4+x,3/4-y,1/4+z
loop_
_atom_site_type_symbol
_atom_site_label
_atom_site_fract_x
_atom_site_fract_y
_atom_site_fract_z
Si Si1 0.210954 0.157858 0.155760
Si Si2 0.864547 0.310169 0.148982
Si Si3 0.069691 0.883245 0.638759
Si Si4 0.750000 0.250000 0.808848
Si Si5 0.602420 0.057433 0.776058
O O1 0.334646 0.159400 0.133823
O O2 0.179280 0.211950 0.226914
O O3 0.180303 0.106826 0.242954
O O4 0.170941 0.155138 0.022621
O O5 0.840933 0.320131 0.288515
O O6 0.961181 0.350726 0.119764
O O7 0.757221 0.327325 0.082887
O O8 0.885148 0.246373 0.105743
O O9 0.678188 0.284807 0.896558
#
# Coordination Sequence:
#
# PCOD9371449 Si02
#       5
#    16  16  16   8  16
#     4  11  22  42  67  94 137 172 219 284 344 413
#     4   9  22  41  66  96 133 173 231 279 336 411
#     4  10  22  41  63 100 134 167 223 287 347 394
#     4  10  22  40  64  98 122 172 228 264 338 416
#     4  10  23  43  67  95 131 178 236 266 347 416
#
# _framework density 20.714476000000001
#
# number of rings (size 3 to 8) (size 9 to 14) (size 15 to 20)
#    0.000    2.222    2.222    0.000    6.222    3.556 
#    0.000   13.333    0.000    0.000    0.000    0.000 
#    0.000    0.000    0.000    0.000    0.000    0.000 
#
# Total GULP energy -100260.811182 kJ/mol
# GULP energy per Si atom -5570.045066 kJ/mol
# Density = 2.066733 g / cm^3
# Si number density = 20.714476 Si / 1000 Ang^3
#
#
#
# Elastic Constant Matrix: (Units=GPa)
#
#
# Indices 1 2 3 4 5 6 
#
# 1 82.0790 27.5761 26.4376 0.0000 0.0000 0.0000
# 2 27.5761 88.9414 52.2977 0.0000 0.0000 0.0000
# 3 26.4376 52.2977 132.3729 0.0000 0.0000 0.0000
# 4 0.0000 0.0000 0.0000 34.4937 0.0000 0.0000
# 5 0.0000 0.0000 0.0000 0.0000 28.1494 0.0000
# 6 0.0000 0.0000 0.0000 0.0000 0.0000 23.6276
#
#
#
# Elastic Compliance Matrix: (Units=1/GPa)
#
#
# Indices 1 2 3 4 5 6 
#
# 1 0.013793 -0.003461 -0.001388 0.000000 0.000000 0.000000
# 2 -0.003461 0.015514 -0.005438 0.000000 0.000000 0.000000
# 3 -0.001388 -0.005438 0.009980 0.000000 0.000000 0.000000
# 4 0.000000 0.000000 0.000000 0.028991 0.000000 0.000000
# 5 0.000000 0.000000 0.000000 0.000000 0.035525 0.000000
# 6 0.000000 0.000000 0.000000 0.000000 0.000000 0.042323
#
#
# Mechanical properties :
#
#
# Convention : Reuss Voigt Hill
#
# Bulk Modulus (GPa) = 53.43458 57.33512 55.38485
# Shear Modulus (GPa) = 28.91238 30.39293 29.65265
#
# Velocity S-wave (km/s) = 3.74004 3.83460 3.78761
# Velocity P-wave (km/s) = 6.67100 6.88073 6.77668
#
# Compressibility (1/GPa) = 0.01871447
#
# Stress axis : x y z
#
# Youngs Moduli (GPa) = 72.50068 64.45833 100.20045
#
# Poissons Ratio (x) = 0.22307 0.13903
# Poissons Ratio (y) = 0.25090 0.54490
# Poissons Ratio (z) = 0.10060 0.35053
#
# Static dielectric constant tensor:
#      x y z
#    x 1.769280 0.000000 0.000000 
#    y 0.000000 1.778700 0.000000 
#    z 0.000000 0.000000 1.762540 
# 
# From -- ./inp_files/6004.got.cif
#   From: 2010.05.17/outbox.cif.g08.bks.cpg/sg43_4_cif.got.tgz:6004.got - 2010.06.03 19:21:55.
