data_PCOD9371702
_publ_section_title
;
Structure prediction by ZEFSAII (Michael W. Deem and Ramdas Pophale) SiO2 
 PCOD9371702
Probable space group: F D D 2
;
_chemical_formula_sum "Si O2"
_cell_formula_units_Z 120
_cell_length_a 7.697405
_cell_length_b 25.713902
_cell_length_c 26.793339
_cell_angle_alpha 90.000000
_cell_angle_beta 90.000000
_cell_angle_gamma 90.000000
_cell_volume 5303.214104
_symmetry_space_group_name_H-M "F D D 2"
_symmetry_group_IT_number 43
_symmetry_cell_setting 'orthorhombic'
loop_
_space_group_symop_operation_xyz
x,y,z
-x,-y,z
1/4-x,1/4+y,1/4+z
1/4+x,1/4-y,1/4+z
x,1/2+y,1/2+z
-x,1/2-y,1/2+z
1/4-x,3/4+y,3/4+z
1/4+x,3/4-y,3/4+z
1/2+x,y,1/2+z
1/2-x,-y,1/2+z
3/4-x,1/4+y,3/4+z
3/4+x,1/4-y,3/4+z
1/2+x,1/2+y,z
1/2-x,1/2-y,z
3/4-x,3/4+y,1/4+z
3/4+x,3/4-y,1/4+z
loop_
_atom_site_type_symbol
_atom_site_label
_atom_site_fract_x
_atom_site_fract_y
_atom_site_fract_z
Si Si1 0.184334 0.593321 0.447250
Si Si2 0.696810 0.400808 0.790738
Si Si3 0.473649 0.674457 0.451855
Si Si4 0.365891 0.104196 0.099010
Si Si5 0.544101 0.259228 0.248321
Si Si6 0.557925 0.870217 0.773371
Si Si7 0.500000 0.000000 0.270775
Si Si8 0.042715 0.249023 0.365029
O O1 0.072648 0.630803 0.483529
O O2 0.375617 0.619452 0.450045
O O3 0.132399 0.601132 0.390233
O O4 0.194630 0.534760 0.467297
O O5 0.559834 0.364485 0.818760
O O6 0.629349 0.459622 0.797997
O O7 0.893404 0.388730 0.805282
O O8 0.646461 0.664693 0.483453
O O9 0.363983 0.712920 0.486279
O O10 0.485381 0.700246 0.398096
O O11 0.526516 0.107151 0.059622
O O12 0.325901 0.049715 0.127239
O O13 0.750000 0.250000 0.243087
O O14 0.511226 0.319811 0.240110
O O15 0.491708 0.255110 0.306318
O O16 0.250000 0.250000 0.373283
#
# Coordination Sequence:
#
# PCOD9371702 Si02
#       8
#    16  16  16  16  16  16   8  16
#     4  11  24  44  74 101 155 196 246 312 382 452
#     4  11  24  48  73 107 150 198 249 314 378 453
#     4  11  23  41  70 116 138 194 247 312 381 444
#     4  12  24  50  70 111 153 201 252 322 385 460
#     4  12  22  46  70 104 149 206 243 312 387 454
#     4  12  25  45  80 105 157 195 255 321 380 458
#     4  10  22  44  72  98 152 186 236 316 380 444
#     4  12  25  40  74 112 144 193 262 313 387 459
#
# _framework density 22.627787000000001
#
# number of rings (size 3 to 8) (size 9 to 14) (size 15 to 20)
#    0.000    0.533    6.667    3.200    4.667    0.000 
#    0.000    2.667    0.000    0.000    0.000    0.000 
#    0.000    0.000    0.000    0.000    0.000    0.000 
#
# Total GULP energy -167636.688787 kJ/mol
# GULP energy per Si atom -5587.889626 kJ/mol
# Density = 2.257628 g / cm^3
# Si number density = 22.627787 Si / 1000 Ang^3
#
#
#
# Elastic Constant Matrix: (Units=GPa)
#
#
# Indices 1 2 3 4 5 6 
#
# 1 121.9823 41.7544 16.9594 0.0000 0.0000 0.0000
# 2 41.7544 142.1340 38.3959 0.0000 0.0000 0.0000
# 3 16.9594 38.3959 76.0288 0.0000 0.0000 0.0000
# 4 0.0000 0.0000 0.0000 34.5680 0.0000 0.0000
# 5 0.0000 0.0000 0.0000 0.0000 8.6496 0.0000
# 6 0.0000 0.0000 0.0000 0.0000 0.0000 26.3330
#
#
#
# Elastic Compliance Matrix: (Units=1/GPa)
#
#
# Indices 1 2 3 4 5 6 
#
# 1 0.009155 -0.002476 -0.000792 0.000000 0.000000 0.000000
# 2 -0.002476 0.008816 -0.003900 0.000000 0.000000 0.000000
# 3 -0.000792 -0.003900 0.015299 0.000000 0.000000 0.000000
# 4 0.000000 0.000000 0.000000 0.028928 0.000000 0.000000
# 5 0.000000 0.000000 0.000000 0.000000 0.115612 0.000000
# 6 0.000000 0.000000 0.000000 0.000000 0.000000 0.037975
#
#
# Mechanical properties :
#
#
# Convention : Reuss Voigt Hill
#
# Bulk Modulus (GPa) = 52.81115 59.37383 56.09249
# Shear Modulus (GPa) = 21.14749 30.11248 25.62999
#
# Velocity S-wave (km/s) = 3.06041 3.65194 3.36918
# Velocity P-wave (km/s) = 5.98981 6.63916 6.32283
#
# Compressibility (1/GPa) = 0.01893540
#
# Stress axis : x y z
#
# Youngs Moduli (GPa) = 109.22484 113.42396 65.36250
#
# Poissons Ratio (x) = 0.28079 0.05177
# Poissons Ratio (y) = 0.27040 0.25493
# Poissons Ratio (z) = 0.08651 0.44238
#
# Static dielectric constant tensor:
#      x y z
#    x 1.911280 0.000000 0.000000 
#    y 0.000000 1.915260 0.000000 
#    z 0.000000 0.000000 1.822440 
# 
# From -- ./inp_files/28133.got.cif
#   From: 2010.05.17/outbox.cif.g08.bks.cpg/sg43_15_cif.got.tgz:28133.got - 2010.06.03 19:21:55.
