data_PCOD9371524
_publ_section_title
;
Structure prediction by ZEFSAII (Michael W. Deem and Ramdas Pophale) SiO2 
 PCOD9371524
Probable space group: F D D 2
;
_chemical_formula_sum "Si O2"
_cell_formula_units_Z 112
_cell_length_a 12.551754
_cell_length_b 33.132659
_cell_length_c 12.544193
_cell_angle_alpha 90.000000
_cell_angle_beta 90.000000
_cell_angle_gamma 90.000000
_cell_volume 5216.790989
_symmetry_space_group_name_H-M "F D D 2"
_symmetry_group_IT_number 43
_symmetry_cell_setting 'orthorhombic'
loop_
_space_group_symop_operation_xyz
x,y,z
-x,-y,z
1/4-x,1/4+y,1/4+z
1/4+x,1/4-y,1/4+z
x,1/2+y,1/2+z
-x,1/2-y,1/2+z
1/4-x,3/4+y,3/4+z
1/4+x,3/4-y,3/4+z
1/2+x,y,1/2+z
1/2-x,-y,1/2+z
3/4-x,1/4+y,3/4+z
3/4+x,1/4-y,3/4+z
1/2+x,1/2+y,z
1/2-x,1/2-y,z
3/4-x,3/4+y,1/4+z
3/4+x,3/4-y,1/4+z
loop_
_atom_site_type_symbol
_atom_site_label
_atom_site_fract_x
_atom_site_fract_y
_atom_site_fract_z
Si Si1 0.127860 0.248675 0.575150
Si Si2 0.250881 0.862534 0.260855
Si Si3 0.973120 0.163107 0.294644
Si Si4 0.722372 0.086792 0.802123
Si Si5 0.717958 0.927082 0.946669
Si Si6 0.829097 0.285151 0.839001
Si Si7 0.148353 0.351770 0.343725
O O1 0.250000 0.250000 0.616970
O O2 0.069136 0.291329 0.559941
O O3 0.142626 0.228624 0.458991
O O4 0.058506 0.220683 0.650557
O O5 0.155822 0.832461 0.299717
O O6 0.243873 0.883391 0.141858
O O7 0.245257 0.898847 0.345198
O O8 0.362164 0.839843 0.253083
O O9 0.972332 0.147002 0.173462
O O10 0.056682 0.200236 0.293043
O O11 0.839094 0.105626 0.780043
O O12 0.649569 0.105657 0.711497
O O13 0.812154 0.924805 0.030110
O O14 0.750000 0.250000 0.793736
O O15 0.753709 0.324226 0.840036
#
# Coordination Sequence:
#
# PCOD9371524 Si02
#       7
#    16  16  16  16  16  16  16
#     4  11  23  44  70 103 138 180 242 297 344 409
#     4  10  22  41  70 105 137 182 237 286 342 425
#     4  11  22  38  70 103 135 176 239 282 336 413
#     4  12  25  41  69 102 139 184 236 287 345 419
#     4  11  24  44  70 102 145 186 228 294 361 414
#     4  11  23  43  68  97 138 178 230 288 347 404
#     4  12  25  43  68 102 144 186 231 286 355 428
#
# _framework density 21.469135999999999
#
# number of rings (size 3 to 8) (size 9 to 14) (size 15 to 20)
#    0.000    0.857    4.286    4.286    4.000    1.143 
#    0.000    0.000    0.000    0.857    0.000    0.000 
#    0.000    0.000    0.000    0.000    0.000    0.000 
#
# Total GULP energy -155949.357934 kJ/mol
# GULP energy per Si atom -5569.619926 kJ/mol
# Density = 2.142027 g / cm^3
# Si number density = 21.469136 Si / 1000 Ang^3
#
#
#
# Elastic Constant Matrix: (Units=GPa)
#
#
# Indices 1 2 3 4 5 6 
#
# 1 125.4883 82.0432 58.7919 0.0000 0.0000 0.0000
# 2 82.0432 135.7129 34.8643 0.0000 0.0000 0.0000
# 3 58.7919 34.8643 101.4173 0.0000 0.0000 0.0000
# 4 0.0000 0.0000 0.0000 20.1597 0.0000 0.0000
# 5 0.0000 0.0000 0.0000 0.0000 29.1399 0.0000
# 6 0.0000 0.0000 0.0000 0.0000 0.0000 46.2699
#
#
#
# Elastic Compliance Matrix: (Units=1/GPa)
#
#
# Indices 1 2 3 4 5 6 
#
# 1 0.016527 -0.008259 -0.006742 0.000000 0.000000 0.000000
# 2 -0.008259 0.012210 0.000591 0.000000 0.000000 0.000000
# 3 -0.006742 0.000591 0.013565 0.000000 0.000000 0.000000
# 4 0.000000 0.000000 0.000000 0.049604 0.000000 0.000000
# 5 0.000000 0.000000 0.000000 0.000000 0.034317 0.000000
# 6 0.000000 0.000000 0.000000 0.000000 0.000000 0.021612
#
#
# Mechanical properties :
#
#
# Convention : Reuss Voigt Hill
#
# Bulk Modulus (GPa) = 74.17449 79.33528 76.75489
# Shear Modulus (GPa) = 27.60136 31.57518 29.58827
#
# Velocity S-wave (km/s) = 3.58946 3.83916 3.71641
# Velocity P-wave (km/s) = 7.19745 7.52899 7.36508
#
# Compressibility (1/GPa) = 0.01348172
#
# Stress axis : x y z
#
# Youngs Moduli (GPa) = 60.50608 81.90087 73.71742
#
# Poissons Ratio (x) = 0.67645 0.49697
# Poissons Ratio (y) = 0.49975 -0.04354
# Poissons Ratio (z) = 0.40791 -0.04837
#
# Static dielectric constant tensor:
#      x y z
#    x 2.034770 0.000000 0.000000 
#    y 0.000000 1.853190 0.000000 
#    z 0.000000 0.000000 1.814150 
# 
# From -- ./inp_files/9796.got.cif
#   From: 2010.05.17/outbox.cif.g08.bks.cpg/sg43_5_cif.got.tgz:9796.got - 2010.06.03 19:21:55.
