data_PCOD9371539
_publ_section_title
;
Structure prediction by ZEFSAII (Michael W. Deem and Ramdas Pophale) SiO2 
 PCOD9371539
Probable space group: F D D 2
;
_chemical_formula_sum "Si O2"
_cell_formula_units_Z 64
_cell_length_a 4.936372
_cell_length_b 30.698572
_cell_length_c 17.287377
_cell_angle_alpha 90.000000
_cell_angle_beta 90.000000
_cell_angle_gamma 90.000000
_cell_volume 2619.721699
_symmetry_space_group_name_H-M "F D D 2"
_symmetry_group_IT_number 43
_symmetry_cell_setting 'orthorhombic'
loop_
_space_group_symop_operation_xyz
x,y,z
-x,-y,z
1/4-x,1/4+y,1/4+z
1/4+x,1/4-y,1/4+z
x,1/2+y,1/2+z
-x,1/2-y,1/2+z
1/4-x,3/4+y,3/4+z
1/4+x,3/4-y,3/4+z
1/2+x,y,1/2+z
1/2-x,-y,1/2+z
3/4-x,1/4+y,3/4+z
3/4+x,1/4-y,3/4+z
1/2+x,1/2+y,z
1/2-x,1/2-y,z
3/4-x,3/4+y,1/4+z
3/4+x,3/4-y,1/4+z
loop_
_atom_site_type_symbol
_atom_site_label
_atom_site_fract_x
_atom_site_fract_y
_atom_site_fract_z
Si Si1 0.664210 0.406898 0.631440
Si Si2 0.500000 0.000000 0.176667
Si Si3 0.500000 0.500000 0.283227
Si Si4 0.829736 0.614963 0.529511
Si Si5 0.269243 0.970459 0.931569
O O1 0.572818 0.456845 0.630612
O O2 0.432804 0.378391 0.586310
O O3 0.760235 0.396640 0.719479
O O4 0.937773 0.401759 0.585051
O O5 0.753374 0.013917 0.230120
O O6 0.621392 0.535075 0.343678
O O7 0.753588 0.575028 0.472856
O O8 0.500000 0.000000 0.969534
O O9 0.000000 0.000000 0.929362
#
# Coordination Sequence:
#
# PCOD9371539 Si02
#       5
#    16   8   8  16  16
#     4  12  30  50  82 110 167 202 272 323 407 461
#     4  12  26  47  78 115 158 202 262 326 388 463
#     4  10  22  43  74 115 150 194 252 312 386 471
#     4  12  28  51  76 115 158 208 260 332 398 467
#     4  10  22  41  76 108 148 200 254 306 384 475
#
# _framework density 24.430074000000001
#
# number of rings (size 3 to 8) (size 9 to 14) (size 15 to 20)
#    0.750    0.000    1.250    4.500    8.750    2.000 
#    0.000    0.000    0.000    0.000    0.000    0.000 
#    0.000    0.000    0.000    0.000    0.000    0.000 
#
# Total GULP energy -89422.760396 kJ/mol
# GULP energy per Si atom -5588.922525 kJ/mol
# Density = 2.437447 g / cm^3
# Si number density = 24.430074 Si / 1000 Ang^3
#
#
#
# Elastic Constant Matrix: (Units=GPa)
#
#
# Indices 1 2 3 4 5 6 
#
# 1 170.7712 8.1019 39.8496 0.0000 0.0000 0.0000
# 2 8.1019 66.8935 22.0048 0.0000 0.0000 0.0000
# 3 39.8496 22.0048 129.0227 0.0000 0.0000 0.0000
# 4 0.0000 0.0000 0.0000 15.4832 0.0000 0.0000
# 5 0.0000 0.0000 0.0000 0.0000 -21.4734 0.0000
# 6 0.0000 0.0000 0.0000 0.0000 0.0000 28.4834
#
#
#
# Elastic Compliance Matrix: (Units=1/GPa)
#
#
# Indices 1 2 3 4 5 6 
#
# 1 0.006312 -0.000131 -0.001927 0.000000 0.000000 0.000000
# 2 -0.000131 0.015840 -0.002661 0.000000 0.000000 0.000000
# 3 -0.001927 -0.002661 0.008800 0.000000 0.000000 0.000000
# 4 0.000000 0.000000 0.000000 0.064586 0.000000 0.000000
# 5 0.000000 0.000000 0.000000 0.000000 -0.046569 0.000000
# 6 0.000000 0.000000 0.000000 0.000000 0.000000 0.035108
#
#
# Mechanical properties :
#
#
# Convention : Reuss Voigt Hill
#
# Bulk Modulus (GPa) = 46.48162 56.28890 51.38526
# Shear Modulus (GPa) = 49.65949 24.28073 36.97011
#
# Velocity S-wave (km/s) = 4.51346 3.15602 3.89434
# Velocity P-wave (km/s) = 6.79923 6.03087 6.42654
#
# Compressibility (1/GPa) = 0.02151388
#
# Stress axis : x y z
#
# Youngs Moduli (GPa) = 158.43635 63.12979 113.64068
#
# Poissons Ratio (x) = 0.00824 0.21900
# Poissons Ratio (y) = 0.02068 0.30243
# Poissons Ratio (z) = 0.30533 0.16801
#
# Static dielectric constant tensor:
#      x y z
#    x 1.902500 0.000000 0.000000 
#    y 0.000000 2.422300 0.000000 
#    z 0.000000 0.000000 2.033070 
# 
# From -- ./inp_files/12175.got.cif
#   From: 2010.05.17/outbox.cif.g08.bks.cpg/sg43_7_cif.got.tgz:12175.got - 2010.06.03 19:21:55.
