data_PCOD9371260
_publ_section_title
;
Structure prediction by ZEFSAII (Michael W. Deem and Ramdas Pophale) SiO2 
 PCOD9371260
Probable space group: F D D 2
;
_chemical_formula_sum "Si O2"
_cell_formula_units_Z 64
_cell_length_a 28.160848
_cell_length_b 17.400933
_cell_length_c 5.126993
_cell_angle_alpha 90.000000
_cell_angle_beta 90.000000
_cell_angle_gamma 90.000000
_cell_volume 2512.354895
_symmetry_space_group_name_H-M "F D D 2"
_symmetry_group_IT_number 43
_symmetry_cell_setting 'orthorhombic'
loop_
_space_group_symop_operation_xyz
x,y,z
-x,-y,z
1/4-x,1/4+y,1/4+z
1/4+x,1/4-y,1/4+z
x,1/2+y,1/2+z
-x,1/2-y,1/2+z
1/4-x,3/4+y,3/4+z
1/4+x,3/4-y,3/4+z
1/2+x,y,1/2+z
1/2-x,-y,1/2+z
3/4-x,1/4+y,3/4+z
3/4+x,1/4-y,3/4+z
1/2+x,1/2+y,z
1/2-x,1/2-y,z
3/4-x,3/4+y,1/4+z
3/4+x,3/4-y,1/4+z
loop_
_atom_site_type_symbol
_atom_site_label
_atom_site_fract_x
_atom_site_fract_y
_atom_site_fract_z
Si Si1 0.813576 0.047600 0.933230
Si Si2 0.249965 0.408398 0.848825
Si Si3 0.555633 0.901050 0.601448
Si Si4 0.109338 0.557027 0.598512
O O1 0.827715 0.120980 0.765739
O O2 0.768732 0.996003 0.868803
O O3 0.803000 0.080589 0.225070
O O4 0.855934 0.986925 0.902438
O O5 0.277222 0.371506 0.605802
O O6 0.270971 0.362463 0.099960
O O7 0.601789 0.846602 0.543482
O O8 0.574163 0.987077 0.660435
#
# Coordination Sequence:
#
# PCOD9371260 Si02
#       4
#    16  16  16  16
#     4  10  21  42  68  96 132 173 216 268 326 387
#     4  11  23  42  66  95 133 176 216 266 327 385
#     4  10  23  42  66  97 132 172 218 266 323 384
#     4   9  21  42  68  98 131 171 218 268 322 387
#
# _framework density 25.474108000000001
#
# number of rings (size 3 to 8) (size 9 to 14) (size 15 to 20)
#    0.000    2.000    0.000    3.000    0.000    9.000 
#    0.000   22.500    0.000    0.000    0.000    0.000 
#    0.000    0.000    0.000    0.000    0.000    0.000 
#
# Total GULP energy -89166.301447 kJ/mol
# GULP energy per Si atom -5572.893840 kJ/mol
# Density = 2.541613 g / cm^3
# Si number density = 25.474108 Si / 1000 Ang^3
#
#
#
# Elastic Constant Matrix: (Units=GPa)
#
#
# Indices 1 2 3 4 5 6 
#
# 1 61.1172 -6.7317 28.6534 0.0001 0.0001 0.0001
# 2 -6.7317 146.6038 23.3684 0.0014 0.0001 0.0002
# 3 28.6534 23.3684 155.0435 0.0031 0.0003 0.0004
# 4 0.0001 0.0014 0.0031 16.2443 0.0000 0.0003
# 5 0.0001 0.0001 0.0003 0.0000 3.7971 -0.0001
# 6 0.0001 0.0002 0.0004 0.0003 -0.0001 33.0724
#
#
#
# Elastic Compliance Matrix: (Units=1/GPa)
#
#
# Indices 1 2 3 4 5 6 
#
# 1 0.018192 0.001405 -0.003574 0.000000 0.000000 0.000000
# 2 0.001405 0.007098 -0.001329 0.000000 0.000000 0.000000
# 3 -0.003574 -0.001329 0.007311 -0.000001 0.000000 0.000000
# 4 0.000000 0.000000 -0.000001 0.061560 0.000000 0.000000
# 5 0.000000 0.000000 0.000000 0.000000 0.263360 0.000001
# 6 0.000000 0.000000 0.000000 0.000000 0.000001 0.030237
#
#
# Mechanical properties :
#
#
# Convention : Reuss Voigt Hill
#
# Bulk Modulus (GPa) = 39.05645 50.37162 44.71403
# Shear Modulus (GPa) = 12.39807 31.78772 22.09289
#
# Velocity S-wave (km/s) = 2.20851 3.53632 2.94814
# Velocity P-wave (km/s) = 4.67637 6.04075 5.40181
#
# Compressibility (1/GPa) = 0.02560397
#
# Stress axis : x y z
#
# Youngs Moduli (GPa) = 54.96835 140.89411 136.78667
#
# Poissons Ratio (x) = -0.19796 0.48886
# Poissons Ratio (y) = -0.07723 0.18185
# Poissons Ratio (z) = 0.19645 0.18731
#
# Static dielectric constant tensor:
#      x y z
#    x 2.113030 0.000000 0.000000 
#    y 0.000000 1.981210 0.000000 
#    z 0.000000 0.000000 2.155300 
# 
# From -- ./inp_files/541.got.cif
#   From: 2010.05.17/outbox.cif.g08.bks.cpg/sg43_1_cif.got.tgz:541.got - 2010.06.03 19:21:55.
