data_PCOD9371757
_publ_section_title
;
Structure prediction by ZEFSAII (Michael W. Deem and Ramdas Pophale) SiO2 
 PCOD9371757
Probable space group: F D D 2
;
_chemical_formula_sum "Si O2"
_cell_formula_units_Z 80
_cell_length_a 16.051668
_cell_length_b 18.331416
_cell_length_c 11.040052
_cell_angle_alpha 90.000000
_cell_angle_beta 90.000000
_cell_angle_gamma 90.000000
_cell_volume 3248.533133
_symmetry_space_group_name_H-M "F D D 2"
_symmetry_group_IT_number 43
_symmetry_cell_setting 'orthorhombic'
loop_
_space_group_symop_operation_xyz
x,y,z
-x,-y,z
1/4-x,1/4+y,1/4+z
1/4+x,1/4-y,1/4+z
x,1/2+y,1/2+z
-x,1/2-y,1/2+z
1/4-x,3/4+y,3/4+z
1/4+x,3/4-y,3/4+z
1/2+x,y,1/2+z
1/2-x,-y,1/2+z
3/4-x,1/4+y,3/4+z
3/4+x,1/4-y,3/4+z
1/2+x,1/2+y,z
1/2-x,1/2-y,z
3/4-x,3/4+y,1/4+z
3/4+x,3/4-y,1/4+z
loop_
_atom_site_type_symbol
_atom_site_label
_atom_site_fract_x
_atom_site_fract_y
_atom_site_fract_z
Si Si1 0.930978 0.834871 0.283870
Si Si2 0.358587 0.910132 0.357982
Si Si3 0.818672 0.000270 0.624275
Si Si4 0.260428 0.673083 0.818913
Si Si5 0.289956 0.170804 0.770932
O O1 0.965214 0.857103 0.154231
O O2 0.832011 0.840892 0.270907
O O3 0.962019 0.891591 0.385758
O O4 0.971825 0.761363 0.340939
O O5 0.401786 0.830346 0.334808
O O6 0.351419 0.975000 0.257975
O O7 0.418419 0.934356 0.467333
O O8 0.261637 0.883364 0.358686
O O9 0.864635 0.935719 0.550668
O O10 0.250000 0.750000 0.888359
O O11 0.250000 0.250000 0.783512
#
# Coordination Sequence:
#
# PCOD9371757 Si02
#       5
#    16  16  16  16  16
#     4  11  24  47  66 100 139 184 230 283 361 423
#     4  10  25  42  72 101 141 180 244 289 354 415
#     4  10  22  46  73 104 132 194 233 292 345 436
#     4  12  29  44  68 104 144 179 226 295 361 422
#     4   9  19  43  73  98 132 182 242 284 338 432
#
# _framework density 24.6265
#
# number of rings (size 3 to 8) (size 9 to 14) (size 15 to 20)
#    0.000    1.600    2.000    0.600    8.400    0.800 
#    3.600    0.000    0.000    0.000    0.000    0.000 
#    0.000    0.000    0.000    0.000    0.000    0.000 
#
# Total GULP energy -111451.004428 kJ/mol
# GULP energy per Si atom -5572.550221 kJ/mol
# Density = 2.457045 g / cm^3
# Si number density = 24.626500 Si / 1000 Ang^3
#
#
#
# Elastic Constant Matrix: (Units=GPa)
#
#
# Indices 1 2 3 4 5 6 
#
# 1 152.0687 22.6501 69.9254 0.0000 0.0000 0.0000
# 2 22.6501 69.5521 44.7803 0.0000 0.0000 0.0000
# 3 69.9254 44.7803 99.4344 0.0000 0.0000 0.0000
# 4 0.0000 0.0000 0.0000 21.3325 0.0000 0.0000
# 5 0.0000 0.0000 0.0000 0.0000 2187.8283 0.0000
# 6 0.0000 0.0000 0.0000 0.0000 0.0000 24.1293
#
#
#
# Elastic Compliance Matrix: (Units=1/GPa)
#
#
# Indices 1 2 3 4 5 6 
#
# 1 0.009870 0.001767 -0.007737 0.000000 0.000000 0.000000
# 2 0.001767 0.020565 -0.010504 0.000000 0.000000 0.000000
# 3 -0.007737 -0.010504 0.020228 0.000000 0.000000 0.000000
# 4 0.000000 0.000000 0.000000 0.046877 0.000000 0.000000
# 5 0.000000 0.000000 0.000000 0.000000 0.000457 0.000000
# 6 0.000000 0.000000 0.000000 0.000000 0.000000 0.041443
#
#
# Mechanical properties :
#
#
# Convention : Reuss Voigt Hill
#
# Bulk Modulus (GPa) = 56.44703 66.19631 61.32167
# Shear Modulus (GPa) = 28.04343 458.90464 243.47404
#
# Velocity S-wave (km/s) = 3.37820 13.66567 9.95396
# Velocity P-wave (km/s) = 6.17959 16.61141 12.53248
#
# Compressibility (1/GPa) = 0.01771572
#
# Stress axis : x y z
#
# Youngs Moduli (GPa) = 101.31238 48.62567 49.43568
#
# Poissons Ratio (x) = -0.08592 0.38248
# Poissons Ratio (y) = -0.17902 0.51928
# Poissons Ratio (z) = 0.78385 0.51077
#
# Static dielectric constant tensor:
#      x y z
#    x 0.456760 0.000000 0.000000 
#    y 0.000000 1.985370 0.000000 
#    z 0.000000 0.000000 1.977850 
# 
# From -- ./inp_files/6082.got.cif
#   From: 2010.05.17/outbox.cif.g08.bks.cpg/sg43_4_cif.got.tgz:6082.got - 2010.06.03 19:21:55.
