data_PCOD9371356
_publ_section_title
;
Structure prediction by ZEFSAII (Michael W. Deem and Ramdas Pophale) SiO2 
 PCOD9371356
Probable space group: F D D 2
;
_chemical_formula_sum "Si O2"
_cell_formula_units_Z 72
_cell_length_a 13.421554
_cell_length_b 7.682166
_cell_length_c 29.310343
_cell_angle_alpha 90.000000
_cell_angle_beta 90.000000
_cell_angle_gamma 90.000000
_cell_volume 3022.089982
_symmetry_space_group_name_H-M "F D D 2"
_symmetry_group_IT_number 43
_symmetry_cell_setting 'orthorhombic'
loop_
_space_group_symop_operation_xyz
x,y,z
-x,-y,z
1/4-x,1/4+y,1/4+z
1/4+x,1/4-y,1/4+z
x,1/2+y,1/2+z
-x,1/2-y,1/2+z
1/4-x,3/4+y,3/4+z
1/4+x,3/4-y,3/4+z
1/2+x,y,1/2+z
1/2-x,-y,1/2+z
3/4-x,1/4+y,3/4+z
3/4+x,1/4-y,3/4+z
1/2+x,1/2+y,z
1/2-x,1/2-y,z
3/4-x,3/4+y,1/4+z
3/4+x,3/4-y,1/4+z
loop_
_atom_site_type_symbol
_atom_site_label
_atom_site_fract_x
_atom_site_fract_y
_atom_site_fract_z
Si Si1 0.619750 0.983920 0.996460
Si Si2 0.638847 0.820525 0.903019
Si Si3 0.382571 0.328434 0.064082
Si Si4 0.629658 0.032412 0.812271
Si Si5 0.000000 0.500000 0.398132
O O1 0.500000 0.000000 0.994352
O O2 0.655046 0.946803 0.945767
O O3 0.649390 0.160864 0.020619
O O4 0.648191 0.823457 0.029468
O O5 0.750000 0.750000 0.891488
O O6 0.556690 0.671615 0.918771
O O7 0.601937 0.927332 0.858588
O O8 0.500991 0.305656 0.066028
O O9 0.348517 0.521347 0.051576
O O10 0.337559 0.308660 0.114225
#
# Coordination Sequence:
#
# PCOD9371356 Si02
#       5
#    16  16  16  16   8
#     4  10  23  44  70 102 142 181 233 303 357 428
#     4  12  25  44  70 103 146 185 242 303 362 440
#     4  10  22  43  74  98 136 185 238 286 367 434
#     4  10  21  47  72  99 139 188 231 301 359 428
#     4  12  24  42  74 106 140 190 236 304 370 434
#
# _framework density 23.824572
#
# number of rings (size 3 to 8) (size 9 to 14) (size 15 to 20)
#    0.000    1.333    4.444    0.667    4.667    3.556 
#    0.000    0.000    9.778    0.000    0.000    0.000 
#    0.000    0.000    0.000    0.000    0.000    0.000 
#
# Total GULP energy -100527.301820 kJ/mol
# GULP energy per Si atom -5584.850101 kJ/mol
# Density = 2.377035 g / cm^3
# Si number density = 23.824572 Si / 1000 Ang^3
#
#
#
# Elastic Constant Matrix: (Units=GPa)
#
#
# Indices 1 2 3 4 5 6 
#
# 1 134.2397 23.2033 -12.7676 0.0000 0.0000 0.0000
# 2 23.2033 176.5410 71.0503 0.0000 0.0000 0.0000
# 3 -12.7676 71.0503 90.6098 0.0000 0.0000 0.0000
# 4 0.0000 0.0000 0.0000 21.8307 0.0000 0.0000
# 5 0.0000 0.0000 0.0000 0.0000 17.4462 0.0000
# 6 0.0000 0.0000 0.0000 0.0000 0.0000 35.0865
#
#
#
# Elastic Compliance Matrix: (Units=1/GPa)
#
#
# Indices 1 2 3 4 5 6 
#
# 1 0.008110 -0.002229 0.002891 0.000000 0.000000 0.000000
# 2 -0.002229 0.008889 -0.007284 0.000000 0.000000 0.000000
# 3 0.002891 -0.007284 0.017156 0.000000 0.000000 0.000000
# 4 0.000000 0.000000 0.000000 0.045807 0.000000 0.000000
# 5 0.000000 0.000000 0.000000 0.000000 0.057319 0.000000
# 6 0.000000 0.000000 0.000000 0.000000 0.000000 0.028501
#
#
# Mechanical properties :
#
#
# Convention : Reuss Voigt Hill
#
# Bulk Modulus (GPa) = 47.82734 62.70695 55.26715
# Shear Modulus (GPa) = 26.88223 36.19966 31.54095
#
# Velocity S-wave (km/s) = 3.36272 3.90221 3.64247
# Velocity P-wave (km/s) = 5.93259 6.83231 6.39828
#
# Compressibility (1/GPa) = 0.02090854
#
# Stress axis : x y z
#
# Youngs Moduli (GPa) = 123.31013 112.49803 58.29013
#
# Poissons Ratio (x) = 0.25079 -0.16850
# Poissons Ratio (y) = 0.27489 0.42460
# Poissons Ratio (z) = -0.35646 0.81947
#
# Static dielectric constant tensor:
#      x y z
#    x 1.976340 0.000000 0.000000 
#    y 0.000000 1.939010 0.000000 
#    z 0.000000 0.000000 1.860810 
# 
# From -- ./inp_files/25488.got.cif
#   From: 2010.05.17/outbox.cif.g08.bks.cpg/sg43_13_cif.got.tgz:25488.got - 2010.06.03 19:21:55.
