data_PCOD9371531
_publ_section_title
;
Structure prediction by ZEFSAII (Michael W. Deem and Ramdas Pophale) SiO2 
 PCOD9371531
Probable space group: F D D 2
;
_chemical_formula_sum "Si O2"
_cell_formula_units_Z 64
_cell_length_a 18.776755
_cell_length_b 9.055973
_cell_length_c 14.341888
_cell_angle_alpha 90.000000
_cell_angle_beta 90.000000
_cell_angle_gamma 90.000000
_cell_volume 2438.720255
_symmetry_space_group_name_H-M "F D D 2"
_symmetry_group_IT_number 43
_symmetry_cell_setting 'orthorhombic'
loop_
_space_group_symop_operation_xyz
x,y,z
-x,-y,z
1/4-x,1/4+y,1/4+z
1/4+x,1/4-y,1/4+z
x,1/2+y,1/2+z
-x,1/2-y,1/2+z
1/4-x,3/4+y,3/4+z
1/4+x,3/4-y,3/4+z
1/2+x,y,1/2+z
1/2-x,-y,1/2+z
3/4-x,1/4+y,3/4+z
3/4+x,1/4-y,3/4+z
1/2+x,1/2+y,z
1/2-x,1/2-y,z
3/4-x,3/4+y,1/4+z
3/4+x,3/4-y,1/4+z
loop_
_atom_site_type_symbol
_atom_site_label
_atom_site_fract_x
_atom_site_fract_y
_atom_site_fract_z
Si Si1 0.576771 0.473254 0.453990
Si Si2 0.799900 0.536361 0.060722
Si Si3 0.227331 0.411569 0.391367
Si Si4 0.177936 0.064718 0.198266
O O1 0.500000 0.500000 0.496571
O O2 0.624603 0.397122 0.532198
O O3 0.569326 0.368927 0.364056
O O4 0.596660 0.643102 0.432333
O O5 0.739020 0.598776 0.124328
O O6 0.764418 0.524919 0.959897
O O7 0.250000 0.250000 0.425946
O O8 0.142524 0.408536 0.421074
O O9 0.273654 0.422429 0.293618
#
# Coordination Sequence:
#
# PCOD9371531 Si02
#       4
#    16  16  16  16
#     4  10  22  41  71 100 126 179 231 283 339 423
#     4  11  23  45  72  99 132 180 237 283 351 424
#     4  12  23  42  73  99 137 185 237 282 348 434
#     4  11  25  43  69 105 136 182 233 291 352 421
#
# _framework density 26.243272999999999
#
# number of rings (size 3 to 8) (size 9 to 14) (size 15 to 20)
#    0.000    1.000    2.500    5.250    3.500    0.000 
#   22.500    0.000    0.000    0.000    0.000    0.000 
#    0.000    0.000    0.000    0.000    0.000    0.000 
#
# Total GULP energy -89102.469654 kJ/mol
# GULP energy per Si atom -5568.904353 kJ/mol
# Density = 2.618354 g / cm^3
# Si number density = 26.243273 Si / 1000 Ang^3
#
#
#
# Elastic Constant Matrix: (Units=GPa)
#
#
# Indices 1 2 3 4 5 6 
#
# 1 231.9051 -12.9177 99.2016 0.0000 0.0000 0.0000
# 2 -12.9177 50.6186 -5.2463 0.0000 0.0000 0.0000
# 3 99.2016 -5.2463 183.4426 0.0000 0.0000 0.0000
# 4 0.0000 0.0000 0.0000 32.1114 0.0000 0.0000
# 5 0.0000 0.0000 0.0000 0.0000 44.6348 0.0000
# 6 0.0000 0.0000 0.0000 0.0000 0.0000 7.0258
#
#
#
# Elastic Compliance Matrix: (Units=1/GPa)
#
#
# Indices 1 2 3 4 5 6 
#
# 1 0.005674 0.001133 -0.003036 0.000000 0.000000 0.000000
# 2 0.001133 0.020041 -0.000040 0.000000 0.000000 0.000000
# 3 -0.003036 -0.000040 0.007092 0.000000 0.000000 0.000000
# 4 0.000000 0.000000 0.000000 0.031142 0.000000 0.000000
# 5 0.000000 0.000000 0.000000 0.000000 0.022404 0.000000
# 6 0.000000 0.000000 0.000000 0.000000 0.000000 0.142333
#
#
# Mechanical properties :
#
#
# Convention : Reuss Voigt Hill
#
# Bulk Modulus (GPa) = 34.57589 69.78236 52.17913
# Shear Modulus (GPa) = 20.64319 42.41632 31.52975
#
# Velocity S-wave (km/s) = 2.80770 4.02465 3.46994
# Velocity P-wave (km/s) = 4.86977 6.94589 5.99833
#
# Compressibility (1/GPa) = 0.02892189
#
# Stress axis : x y z
#
# Youngs Moduli (GPa) = 176.24562 49.89846 141.00582
#
# Poissons Ratio (x) = -0.05655 0.42808
# Poissons Ratio (y) = -0.19974 0.00560
# Poissons Ratio (z) = 0.53506 0.00198
#
# Static dielectric constant tensor:
#      x y z
#    x 2.153710 0.000000 0.000000 
#    y 0.000000 2.156110 0.000000 
#    z 0.000000 0.000000 2.090870 
# 
# From -- ./inp_files/10485.got.cif
#   From: 2010.05.17/outbox.cif.g08.bks.cpg/sg43_6_cif.got.tgz:10485.got - 2010.06.03 19:21:55.
