data_PCOD9371179
_publ_section_title
;
Structure prediction by ZEFSAII (Michael W. Deem and Ramdas Pophale) SiO2 
 PCOD9371179
Probable space group: F D D 2
;
_chemical_formula_sum "Si O2"
_cell_formula_units_Z 112
_cell_length_a 19.543799
_cell_length_b 22.696419
_cell_length_c 11.630293
_cell_angle_alpha 90.000000
_cell_angle_beta 90.000000
_cell_angle_gamma 90.000000
_cell_volume 5158.898506
_symmetry_space_group_name_H-M "F D D 2"
_symmetry_group_IT_number 43
_symmetry_cell_setting 'orthorhombic'
loop_
_space_group_symop_operation_xyz
x,y,z
-x,-y,z
1/4-x,1/4+y,1/4+z
1/4+x,1/4-y,1/4+z
x,1/2+y,1/2+z
-x,1/2-y,1/2+z
1/4-x,3/4+y,3/4+z
1/4+x,3/4-y,3/4+z
1/2+x,y,1/2+z
1/2-x,-y,1/2+z
3/4-x,1/4+y,3/4+z
3/4+x,1/4-y,3/4+z
1/2+x,1/2+y,z
1/2-x,1/2-y,z
3/4-x,3/4+y,1/4+z
3/4+x,3/4-y,1/4+z
loop_
_atom_site_type_symbol
_atom_site_label
_atom_site_fract_x
_atom_site_fract_y
_atom_site_fract_z
Si Si1 0.817939 0.788424 0.741680
Si Si2 0.836627 0.466327 0.412048
Si Si3 0.499969 0.674679 0.191235
Si Si4 0.269437 0.111039 0.834348
Si Si5 0.405535 0.753141 0.027675
Si Si6 0.305838 0.198393 0.343658
Si Si7 0.106729 0.300724 0.891161
O O1 0.750000 0.750000 0.743842
O O2 0.790247 0.852036 0.773315
O O3 0.851561 0.778683 0.619268
O O4 0.869491 0.760989 0.833485
O O5 0.815418 0.531802 0.452418
O O6 0.769424 0.425515 0.433865
O O7 0.903755 0.441457 0.473629
O O8 0.844557 0.464421 0.274182
O O9 0.453537 0.706415 0.093267
O O10 0.522899 0.610437 0.147867
O O11 0.452935 0.675822 0.305541
O O12 0.301868 0.061973 0.750536
O O13 0.329027 0.154101 0.877991
O O14 0.365192 0.721785 0.927843
O O15 0.250000 0.250000 0.333380
#
# Coordination Sequence:
#
# PCOD9371179 Si02
#       7
#    16  16  16  16  16  16  16
#     4   9  19  37  67  98 128 176 231 294 345 415
#     4  11  27  43  69 105 141 189 234 296 369 432
#     4  10  26  46  73 101 142 189 239 304 356 439
#     4  10  21  40  69 101 131 175 235 296 348 429
#     4  10  22  43  66 100 134 183 235 287 364 428
#     4  12  28  46  70 104 148 192 236 299 376 439
#     4  10  22  43  71 102 138 183 237 291 361 433
#
# _framework density 21.710061
#
# number of rings (size 3 to 8) (size 9 to 14) (size 15 to 20)
#    0.000    1.714    0.000    2.143    8.000    6.286 
#    0.000    0.000    0.000    0.000    0.000    0.000 
#    0.000    0.000    0.000    0.000    0.000    0.000 
#
# Total GULP energy -156414.812997 kJ/mol
# GULP energy per Si atom -5586.243321 kJ/mol
# Density = 2.166065 g / cm^3
# Si number density = 21.710061 Si / 1000 Ang^3
#
#
#
# Elastic Constant Matrix: (Units=GPa)
#
#
# Indices 1 2 3 4 5 6 
#
# 1 90.6295 45.6250 55.2496 0.0000 0.0000 0.0000
# 2 45.6250 140.1452 40.8774 0.0000 0.0000 0.0000
# 3 55.2496 40.8774 117.5716 0.0000 0.0000 0.0000
# 4 0.0000 0.0000 0.0000 16.4910 0.0000 0.0000
# 5 0.0000 0.0000 0.0000 0.0000 33.3361 0.0000
# 6 0.0000 0.0000 0.0000 0.0000 0.0000 -35.0897
#
#
#
# Elastic Compliance Matrix: (Units=1/GPa)
#
#
# Indices 1 2 3 4 5 6 
#
# 1 0.016913 -0.003548 -0.006714 0.000000 0.000000 0.000000
# 2 -0.003548 0.008685 -0.001352 0.000000 0.000000 0.000000
# 3 -0.006714 -0.001352 0.012131 0.000000 0.000000 0.000000
# 4 0.000000 0.000000 0.000000 0.060639 0.000000 0.000000
# 5 0.000000 0.000000 0.000000 0.000000 0.029998 0.000000
# 6 0.000000 0.000000 0.000000 0.000000 0.000000 -0.028498
#
#
# Mechanical properties :
#
#
# Convention : Reuss Voigt Hill
#
# Bulk Modulus (GPa) = 68.96603 70.20561 69.58582
# Shear Modulus (GPa) = 39.08394 16.72042 27.90218
#
# Velocity S-wave (km/s) = 4.24756 2.77820 3.58888
# Velocity P-wave (km/s) = 7.47606 6.53447 7.02107
#
# Compressibility (1/GPa) = 0.01449989
#
# Stress axis : x y z
#
# Youngs Moduli (GPa) = 59.12546 115.14224 82.43394
#
# Poissons Ratio (x) = 0.40849 0.55350
# Poissons Ratio (y) = 0.20976 0.11149
# Poissons Ratio (z) = 0.39699 0.15572
#
# Static dielectric constant tensor:
#      x y z
#    x 1.853330 0.000000 0.000000 
#    y 0.000000 1.856480 0.000000 
#    z 0.000000 0.000000 1.806930 
# 
# From -- ./inp_files/7159.got.cif
#   From: 2010.05.17/outbox.cif.g08.bks.cpg/sg43_4_cif.got.tgz:7159.got - 2010.06.03 19:21:55.
