data_PCOD9371834
_publ_section_title
;
Structure prediction by ZEFSAII (Michael W. Deem and Ramdas Pophale) SiO2 
 PCOD9371834
Probable space group: F D D 2
;
_chemical_formula_sum "Si O2"
_cell_formula_units_Z 112
_cell_length_a 28.514073
_cell_length_b 16.145941
_cell_length_c 10.327447
_cell_angle_alpha 90.000000
_cell_angle_beta 90.000000
_cell_angle_gamma 90.000000
_cell_volume 4754.617595
_symmetry_space_group_name_H-M "F D D 2"
_symmetry_group_IT_number 43
_symmetry_cell_setting 'orthorhombic'
loop_
_space_group_symop_operation_xyz
x,y,z
-x,-y,z
1/4-x,1/4+y,1/4+z
1/4+x,1/4-y,1/4+z
x,1/2+y,1/2+z
-x,1/2-y,1/2+z
1/4-x,3/4+y,3/4+z
1/4+x,3/4-y,3/4+z
1/2+x,y,1/2+z
1/2-x,-y,1/2+z
3/4-x,1/4+y,3/4+z
3/4+x,1/4-y,3/4+z
1/2+x,1/2+y,z
1/2-x,1/2-y,z
3/4-x,3/4+y,1/4+z
3/4+x,3/4-y,1/4+z
loop_
_atom_site_type_symbol
_atom_site_label
_atom_site_fract_x
_atom_site_fract_y
_atom_site_fract_z
Si Si1 0.998147 0.912526 0.439260
Si Si2 0.433239 0.878248 0.151545
Si Si3 0.728010 0.045761 0.856990
Si Si4 0.934784 0.785686 0.276686
Si Si5 0.665777 0.647149 0.557853
Si Si6 0.719596 0.832084 0.180809
Si Si7 0.607174 0.061593 0.656746
O O1 0.052188 0.888095 0.435746
O O2 0.972866 0.927175 0.573839
O O3 0.966266 0.844484 0.368936
O O4 0.000000 0.000000 0.364423
O O5 0.444556 0.783220 0.114323
O O6 0.382743 0.898094 0.090423
O O7 0.440608 0.891940 0.303474
O O8 0.746022 0.093830 0.729871
O O9 0.776835 0.013064 0.919764
O O10 0.699276 0.110180 0.946259
O O11 0.906504 0.712160 0.342504
O O12 0.895215 0.848585 0.222388
O O13 0.653533 0.739815 0.511221
O O14 0.750000 0.750000 0.156432
O O15 0.683793 0.814058 0.298935
#
# Coordination Sequence:
#
# PCOD9371834 Si02
#       7
#    16  16  16  16  16  16  16
#     4  11  23  42  67 101 141 184 235 295 368 427
#     4  12  28  44  71 110 146 188 238 312 377 432
#     4  10  26  47  71 101 144 193 247 290 368 446
#     4  10  23  41  73 103 135 187 246 297 351 433
#     4  11  24  42  72  97 139 185 248 290 350 441
#     4  11  25  49  74 106 145 193 239 307 368 434
#     4  11  22  43  72 105 134 191 252 291 354 441
#
# _framework density 23.556049000000002
#
# number of rings (size 3 to 8) (size 9 to 14) (size 15 to 20)
#    0.000    1.143    4.286    0.429    8.000    2.286 
#    2.571    0.000    0.000    0.000    0.000    0.000 
#    0.000    0.000    0.000    0.000    0.000    0.000 
#
# Total GULP energy -156471.334031 kJ/mol
# GULP energy per Si atom -5588.261930 kJ/mol
# Density = 2.350243 g / cm^3
# Si number density = 23.556049 Si / 1000 Ang^3
#
#
#
# Elastic Constant Matrix: (Units=GPa)
#
#
# Indices 1 2 3 4 5 6 
#
# 1 133.0722 26.3785 45.2022 0.0000 0.0000 0.0000
# 2 26.3785 41.9206 1.8185 0.0000 0.0000 0.0000
# 3 45.2022 1.8185 93.7548 0.0000 0.0000 0.0000
# 4 0.0000 0.0000 0.0000 16.8736 0.0000 0.0000
# 5 0.0000 0.0000 0.0000 0.0000 25.9352 0.0000
# 6 0.0000 0.0000 0.0000 0.0000 0.0000 35.0556
#
#
#
# Elastic Compliance Matrix: (Units=1/GPa)
#
#
# Indices 1 2 3 4 5 6 
#
# 1 0.010444 -0.006359 -0.004912 0.000000 0.000000 0.000000
# 2 -0.006359 0.027746 0.002527 0.000000 0.000000 0.000000
# 3 -0.004912 0.002527 0.012985 0.000000 0.000000 0.000000
# 4 0.000000 0.000000 0.000000 0.059264 0.000000 0.000000
# 5 0.000000 0.000000 0.000000 0.000000 0.038558 0.000000
# 6 0.000000 0.000000 0.000000 0.000000 0.000000 0.028526
#
#
# Mechanical properties :
#
#
# Convention : Reuss Voigt Hill
#
# Bulk Modulus (GPa) = 29.68320 46.17176 37.92748
# Shear Modulus (GPa) = 24.24379 28.59611 26.41995
#
# Velocity S-wave (km/s) = 3.21159 3.48797 3.35263
# Velocity P-wave (km/s) = 5.13623 5.98871 5.57878
#
# Compressibility (1/GPa) = 0.03368909
#
# Stress axis : x y z
#
# Youngs Moduli (GPa) = 95.75221 36.04113 77.01034
#
# Poissons Ratio (x) = 0.22917 0.37826
# Poissons Ratio (y) = 0.60885 -0.19464
# Poissons Ratio (z) = 0.47032 -0.09109
#
# Static dielectric constant tensor:
#      x y z
#    x 1.906170 0.000000 0.000000 
#    y 0.000000 1.943500 0.000000 
#    z 0.000000 0.000000 2.009130 
# 
# From -- ./inp_files/8289.got.cif
#   From: 2010.05.17/outbox.cif.g08.bks.cpg/sg43_5_cif.got.tgz:8289.got - 2010.06.03 19:21:55.
