data_PCOD9371691
_publ_section_title
;
Structure prediction by ZEFSAII (Michael W. Deem and Ramdas Pophale) SiO2 
 PCOD9371691
Probable space group: F D D 2
;
_chemical_formula_sum "Si O2"
_cell_formula_units_Z 48
_cell_length_a 10.413161
_cell_length_b 15.253267
_cell_length_c 13.408627
_cell_angle_alpha 90.000000
_cell_angle_beta 90.000000
_cell_angle_gamma 90.000000
_cell_volume 2129.755583
_symmetry_space_group_name_H-M "F D D 2"
_symmetry_group_IT_number 43
_symmetry_cell_setting 'orthorhombic'
loop_
_space_group_symop_operation_xyz
x,y,z
-x,-y,z
1/4-x,1/4+y,1/4+z
1/4+x,1/4-y,1/4+z
x,1/2+y,1/2+z
-x,1/2-y,1/2+z
1/4-x,3/4+y,3/4+z
1/4+x,3/4-y,3/4+z
1/2+x,y,1/2+z
1/2-x,-y,1/2+z
3/4-x,1/4+y,3/4+z
3/4+x,1/4-y,3/4+z
1/2+x,1/2+y,z
1/2-x,1/2-y,z
3/4-x,3/4+y,1/4+z
3/4+x,3/4-y,1/4+z
loop_
_atom_site_type_symbol
_atom_site_label
_atom_site_fract_x
_atom_site_fract_y
_atom_site_fract_z
Si Si1 0.613045 0.939304 0.523280
Si Si2 0.354518 0.184094 0.811643
Si Si3 0.788311 0.484650 0.855227
O O1 0.744853 0.947120 0.587472
O O2 0.653123 0.970560 0.412280
O O3 0.565266 0.839240 0.523527
O O4 0.500000 0.000000 0.563799
O O5 0.250000 0.250000 0.857950
O O6 0.366360 0.206759 0.694851
O O7 0.312563 0.084464 0.827574
#
# Coordination Sequence:
#
# PCOD9371691 Si02
#       3
#    16  16  16
#     4  10  24  42  71 104 138 196 232 300 357 441
#     4  10  22  44  71 101 142 194 236 296 357 437
#     4  10  24  44  72 101 144 188 242 288 372 416
#
# _framework density 22.537797000000001
#
# number of rings (size 3 to 8) (size 9 to 14) (size 15 to 20)
#    2.000    0.000    0.000    3.000    4.667    2.667 
#    6.000    0.000    0.000    0.000    0.000    0.000 
#    0.000    0.000    0.000    0.000    0.000    0.000 
#
# Total GULP energy -66812.065515 kJ/mol
# GULP energy per Si atom -5567.672126 kJ/mol
# Density = 2.248650 g / cm^3
# Si number density = 22.537797 Si / 1000 Ang^3
#
#
#
# Elastic Constant Matrix: (Units=GPa)
#
#
# Indices 1 2 3 4 5 6 
#
# 1 144.8326 93.5404 1.2156 0.0000 0.0000 0.0000
# 2 93.5404 255.6654 36.9855 0.0000 0.0000 0.0000
# 3 1.2156 36.9855 31.0870 0.0000 0.0000 0.0000
# 4 0.0000 0.0000 0.0000 15.0000 0.0000 0.0000
# 5 0.0000 0.0000 0.0000 0.0000 30.2471 0.0000
# 6 0.0000 0.0000 0.0000 0.0000 0.0000 16.4072
#
#
#
# Elastic Compliance Matrix: (Units=1/GPa)
#
#
# Indices 1 2 3 4 5 6 
#
# 1 0.009550 -0.004155 0.004570 0.000000 0.000000 0.000000
# 2 -0.004155 0.006532 -0.007609 0.000000 0.000000 0.000000
# 3 0.004570 -0.007609 0.041042 0.000000 0.000000 0.000000
# 4 0.000000 0.000000 0.000000 0.066667 0.000000 0.000000
# 5 0.000000 0.000000 0.000000 0.000000 0.033061 0.000000
# 6 0.000000 0.000000 0.000000 0.000000 0.000000 0.060949
#
#
# Mechanical properties :
#
#
# Convention : Reuss Voigt Hill
#
# Bulk Modulus (GPa) = 23.39969 77.22979 50.31474
# Shear Modulus (GPa) = 20.28934 32.32043 26.30488
#
# Velocity S-wave (km/s) = 3.00365 3.79100 3.42006
# Velocity P-wave (km/s) = 4.73647 7.31460 6.16188
#
# Compressibility (1/GPa) = 0.04273561
#
# Stress axis : x y z
#
# Youngs Moduli (GPa) = 104.71497 153.08338 24.36509
#
# Poissons Ratio (x) = 0.63607 -0.11135
# Poissons Ratio (y) = 0.43510 0.18540
# Poissons Ratio (z) = -0.47855 1.16487
#
# Static dielectric constant tensor:
#      x y z
#    x 1.896160 0.000000 0.000000 
#    y 0.000000 1.797760 0.000000 
#    z 0.000000 0.000000 1.915970 
# 
# From -- ./inp_files/5843.got.cif
#   From: 2010.05.17/outbox.cif.g08.bks.cpg/sg43_3_cif.got.tgz:5843.got - 2010.06.03 19:21:55.
