data_PCOD9371635
_publ_section_title
;
Structure prediction by ZEFSAII (Michael W. Deem and Ramdas Pophale) SiO2 
 PCOD9371635
Probable space group: F D D 2
;
_chemical_formula_sum "Si O2"
_cell_formula_units_Z 56
_cell_length_a 7.632291
_cell_length_b 16.680988
_cell_length_c 17.068693
_cell_angle_alpha 90.000000
_cell_angle_beta 90.000000
_cell_angle_gamma 90.000000
_cell_volume 2173.086219
_symmetry_space_group_name_H-M "F D D 2"
_symmetry_group_IT_number 43
_symmetry_cell_setting 'orthorhombic'
loop_
_space_group_symop_operation_xyz
x,y,z
-x,-y,z
1/4-x,1/4+y,1/4+z
1/4+x,1/4-y,1/4+z
x,1/2+y,1/2+z
-x,1/2-y,1/2+z
1/4-x,3/4+y,3/4+z
1/4+x,3/4-y,3/4+z
1/2+x,y,1/2+z
1/2-x,-y,1/2+z
3/4-x,1/4+y,3/4+z
3/4+x,1/4-y,3/4+z
1/2+x,1/2+y,z
1/2-x,1/2-y,z
3/4-x,3/4+y,1/4+z
3/4+x,3/4-y,1/4+z
loop_
_atom_site_type_symbol
_atom_site_label
_atom_site_fract_x
_atom_site_fract_y
_atom_site_fract_z
Si Si1 0.750000 0.750000 0.222090
Si Si2 0.000000 0.500000 0.203800
Si Si3 0.750000 0.250000 0.990381
Si Si4 0.278674 0.938573 0.332934
Si Si5 0.471325 0.811428 0.861247
O O1 0.873730 0.702426 0.163081
O O2 0.626273 0.702425 0.281100
O O3 0.075269 0.567494 0.263953
O O4 0.164256 0.486205 0.145525
O O5 0.585744 0.263796 0.048655
O O6 0.625001 0.125000 0.097091
O O7 0.075269 0.932506 0.180228
#
# Coordination Sequence:
#
# PCOD9371635 Si02
#       5
#     8   8   8  16  16
#     4  10  24  42  68 102 128 172 240 270 328 428
#     4   9  22  42  64 103 136 168 232 273 324 420
#     4   9  22  42  64 103 136 168 232 273 324 420
#     4  10  22  43  68  95 135 179 218 281 340 389
#     4  10  22  43  68  95 135 179 218 281 340 389
#
# _framework density 25.769803
#
# number of rings (size 3 to 8) (size 9 to 14) (size 15 to 20)
#    0.000    2.286    0.000    0.000    0.000   14.857 
#    0.000   28.571    0.000    0.000    0.000    0.000 
#    0.000    0.000    0.000    0.000    0.000    0.000 
#
# Total GULP energy -78007.684092 kJ/mol
# GULP energy per Si atom -5571.977435 kJ/mol
# Density = 2.571115 g / cm^3
# Si number density = 25.769803 Si / 1000 Ang^3
#
#
#
# Elastic Constant Matrix: (Units=GPa)
#
#
# Indices 1 2 3 4 5 6 
#
# 1 219.2303 79.9666 133.5122 0.0000 0.0000 0.0000
# 2 79.9666 86.9514 66.6408 0.0000 0.0000 0.0000
# 3 133.5122 66.6408 232.5611 0.0000 0.0000 0.0000
# 4 0.0000 0.0000 0.0000 20.9117 0.0000 0.0000
# 5 0.0000 0.0000 0.0000 0.0000 89.9520 0.0000
# 6 0.0000 0.0000 0.0000 0.0000 0.0000 60.0406
#
#
#
# Elastic Compliance Matrix: (Units=1/GPa)
#
#
# Indices 1 2 3 4 5 6 
#
# 1 0.008551 -0.005256 -0.003403 0.000000 0.000000 0.000000
# 2 -0.005256 0.017968 -0.002131 0.000000 0.000000 0.000000
# 3 -0.003403 -0.002131 0.006864 0.000000 0.000000 0.000000
# 4 0.000000 0.000000 0.000000 0.047820 0.000000 0.000000
# 5 0.000000 0.000000 0.000000 0.000000 0.011117 0.000000
# 6 0.000000 0.000000 0.000000 0.000000 0.000000 0.016655
#
#
# Mechanical properties :
#
#
# Convention : Reuss Voigt Hill
#
# Bulk Modulus (GPa) = 84.72654 122.10913 103.41783
# Shear Modulus (GPa) = 37.17733 51.42242 44.29987
#
# Velocity S-wave (km/s) = 3.80237 4.47190 4.15065
# Velocity P-wave (km/s) = 7.22682 8.61111 7.94916
#
# Compressibility (1/GPa) = 0.01180268
#
# Stress axis : x y z
#
# Youngs Moduli (GPa) = 116.94484 55.65471 145.68124
#
# Poissons Ratio (x) = 0.29252 0.49575
# Poissons Ratio (y) = 0.61467 0.31049
# Poissons Ratio (z) = 0.39796 0.11862
#
# Static dielectric constant tensor:
#      x y z
#    x 2.112400 0.000000 0.000000 
#    y 0.000000 2.213480 0.000000 
#    z 0.000000 0.000000 2.054420 
# 
# From -- ./inp_files/12485.got.cif
#   From: 2010.05.17/outbox.cif.g08.bks.cpg/sg43_7_cif.got.tgz:12485.got - 2010.06.03 19:21:55.
