data_PCOD9371737
_publ_section_title
;
Structure prediction by ZEFSAII (Michael W. Deem and Ramdas Pophale) SiO2 
 PCOD9371737
Probable space group: F D D 2
;
_chemical_formula_sum "Si O2"
_cell_formula_units_Z 80
_cell_length_a 8.090080
_cell_length_b 18.190013
_cell_length_c 19.205830
_cell_angle_alpha 90.000000
_cell_angle_beta 90.000000
_cell_angle_gamma 90.000000
_cell_volume 2826.304214
_symmetry_space_group_name_H-M "F D D 2"
_symmetry_group_IT_number 43
_symmetry_cell_setting 'orthorhombic'
loop_
_space_group_symop_operation_xyz
x,y,z
-x,-y,z
1/4-x,1/4+y,1/4+z
1/4+x,1/4-y,1/4+z
x,1/2+y,1/2+z
-x,1/2-y,1/2+z
1/4-x,3/4+y,3/4+z
1/4+x,3/4-y,3/4+z
1/2+x,y,1/2+z
1/2-x,-y,1/2+z
3/4-x,1/4+y,3/4+z
3/4+x,1/4-y,3/4+z
1/2+x,1/2+y,z
1/2-x,1/2-y,z
3/4-x,3/4+y,1/4+z
3/4+x,3/4-y,1/4+z
loop_
_atom_site_type_symbol
_atom_site_label
_atom_site_fract_x
_atom_site_fract_y
_atom_site_fract_z
Si Si1 0.081356 0.817835 0.894060
Si Si2 0.581933 0.687620 0.506997
Si Si3 0.192706 0.975491 0.886169
Si Si4 0.781247 0.453477 0.036718
Si Si5 0.528195 0.080057 0.178562
O O1 0.195364 0.886948 0.874302
O O2 0.097814 0.751484 0.949779
O O3 0.069714 0.767527 0.825073
O O4 0.908156 0.856203 0.918609
O O5 0.738646 0.633447 0.516489
O O6 0.533905 0.726898 0.578124
O O7 0.428280 0.639665 0.474966
O O8 0.000000 0.000000 0.888689
O O9 0.286934 0.985861 0.959158
O O10 0.910368 0.435811 0.099686
O O11 0.500000 0.000000 0.213714
#
# Coordination Sequence:
#
# PCOD9371737 Si02
#       5
#    16  16  16  16  16
#     4  10  24  47  72 106 156 191 245 315 364 442
#     4  10  22  45  72 107 145 193 246 305 372 442
#     4  12  26  44  77 109 145 203 253 297 378 451
#     4  10  23  46  68 110 145 189 244 308 369 434
#     4   8  18  42  67 100 147 189 231 302 363 424
#
# _framework density 28.305516999999998
#
# number of rings (size 3 to 8) (size 9 to 14) (size 15 to 20)
#    0.000    2.400    0.000    3.000    2.800    4.000 
#   36.000    0.000    0.000    0.000    0.000    0.000 
#    0.000    0.000    0.000    0.000    0.000    0.000 
#
# Total GULP energy -111427.718915 kJ/mol
# GULP energy per Si atom -5571.385946 kJ/mol
# Density = 2.824109 g / cm^3
# Si number density = 28.305517 Si / 1000 Ang^3
#
#
#
# Elastic Constant Matrix: (Units=GPa)
#
#
# Indices 1 2 3 4 5 6 
#
# 1 93.7463 25.6605 32.0724 0.0000 0.0000 0.0000
# 2 25.6605 233.5617 71.4927 0.0000 0.0000 0.0000
# 3 32.0724 71.4927 244.1665 0.0000 0.0000 0.0000
# 4 0.0000 0.0000 0.0000 35.9821 0.0000 0.0000
# 5 0.0000 0.0000 0.0000 0.0000 6.8734 0.0000
# 6 0.0000 0.0000 0.0000 0.0000 0.0000 46.1089
#
#
#
# Elastic Compliance Matrix: (Units=1/GPa)
#
#
# Indices 1 2 3 4 5 6 
#
# 1 0.011326 -0.000867 -0.001234 0.000000 0.000000 0.000000
# 2 -0.000867 0.004769 -0.001283 0.000000 0.000000 0.000000
# 3 -0.001234 -0.001283 0.004633 0.000000 0.000000 0.000000
# 4 0.000000 0.000000 0.000000 0.027792 0.000000 0.000000
# 5 0.000000 0.000000 0.000000 0.000000 0.145489 0.000000
# 6 0.000000 0.000000 0.000000 0.000000 0.000000 0.021688
#
#
# Mechanical properties :
#
#
# Convention : Reuss Voigt Hill
#
# Bulk Modulus (GPa) = 71.62087 92.21397 81.91742
# Shear Modulus (GPa) = 22.01499 47.27614 34.64556
#
# Velocity S-wave (km/s) = 2.79187 4.09125 3.50235
# Velocity P-wave (km/s) = 5.97916 7.41395 6.73487
#
# Compressibility (1/GPa) = 0.01396241
#
# Stress axis : x y z
#
# Youngs Moduli (GPa) = 88.28855 209.67192 215.83253
#
# Poissons Ratio (x) = 0.18172 0.26634
# Poissons Ratio (y) = 0.07652 0.27684
# Poissons Ratio (z) = 0.10895 0.26893
#
# Static dielectric constant tensor:
#      x y z
#    x 2.592070 0.000000 0.000000 
#    y 0.000000 2.274530 0.000000 
#    z 0.000000 0.000000 2.204710 
# 
# From -- ./inp_files/17502.got.cif
#   From: 2010.05.17/outbox.cif.g08.bks.cpg/sg43_9_cif.got.tgz:17502.got - 2010.06.03 19:21:55.
