data_PCOD9371666
_publ_section_title
;
Structure prediction by ZEFSAII (Michael W. Deem and Ramdas Pophale) SiO2 
 PCOD9371666
Probable space group: F D D 2
;
_chemical_formula_sum "Si O2"
_cell_formula_units_Z 96
_cell_length_a 15.461849
_cell_length_b 12.728418
_cell_length_c 23.650917
_cell_angle_alpha 90.000000
_cell_angle_beta 90.000000
_cell_angle_gamma 90.000000
_cell_volume 4654.615814
_symmetry_space_group_name_H-M "F D D 2"
_symmetry_group_IT_number 43
_symmetry_cell_setting 'orthorhombic'
loop_
_space_group_symop_operation_xyz
x,y,z
-x,-y,z
1/4-x,1/4+y,1/4+z
1/4+x,1/4-y,1/4+z
x,1/2+y,1/2+z
-x,1/2-y,1/2+z
1/4-x,3/4+y,3/4+z
1/4+x,3/4-y,3/4+z
1/2+x,y,1/2+z
1/2-x,-y,1/2+z
3/4-x,1/4+y,3/4+z
3/4+x,1/4-y,3/4+z
1/2+x,1/2+y,z
1/2-x,1/2-y,z
3/4-x,3/4+y,1/4+z
3/4+x,3/4-y,1/4+z
loop_
_atom_site_type_symbol
_atom_site_label
_atom_site_fract_x
_atom_site_fract_y
_atom_site_fract_z
Si Si1 0.754812 0.633943 0.377260
Si Si2 0.000000 0.000000 0.309060
Si Si3 0.144680 0.642869 0.763260
Si Si4 0.077572 0.281822 0.839573
Si Si5 0.453790 0.608446 0.889191
Si Si6 0.490035 0.278969 0.724469
Si Si7 0.250000 0.250000 0.912876
O O1 0.750000 0.750000 0.403365
O O2 0.701220 0.642838 0.319585
O O3 0.855338 0.607731 0.367837
O O4 0.721879 0.546537 0.420886
O O5 0.076406 0.049477 0.272052
O O6 0.957047 0.098122 0.342097
O O7 0.200418 0.631893 0.707105
O O8 0.082376 0.742220 0.750910
O O9 0.165980 0.260846 0.872719
O O10 0.005344 0.206903 0.866249
O O11 0.078745 0.246052 0.773716
O O12 0.500000 0.500000 0.873363
O O13 0.498833 0.396630 0.702131
#
# Coordination Sequence:
#
# PCOD9371666 Si02
#       7
#    16   8  16  16  16  16   8
#     4  11  22  42  76 103 136 188 242 303 368 429
#     4  10  22  44  67 100 146 179 246 296 334 448
#     4  10  22  44  73 104 138 184 247 295 367 434
#     4  11  25  47  69 103 146 189 240 299 369 434
#     4  11  25  42  70 107 141 179 243 304 365 439
#     4  10  25  45  70 104 146 186 242 303 352 436
#     4  12  26  52  69 104 154 191 234 300 378 434
#
# _framework density 20.624687000000002
#
# number of rings (size 3 to 8) (size 9 to 14) (size 15 to 20)
#    0.000    1.333    0.000    5.500   11.667    2.667 
#    9.000    0.833    0.000    0.000    0.000    0.000 
#    0.000    0.000    0.000    0.000    0.000    0.000 
#
# Total GULP energy -134147.197568 kJ/mol
# GULP energy per Si atom -5589.466565 kJ/mol
# Density = 2.057774 g / cm^3
# Si number density = 20.624687 Si / 1000 Ang^3
#
#
#
# Elastic Constant Matrix: (Units=GPa)
#
#
# Indices 1 2 3 4 5 6 
#
# 1 88.7056 46.9717 56.2545 0.0000 0.0000 0.0000
# 2 46.9717 186.4281 62.5088 0.0000 0.0000 0.0000
# 3 56.2545 62.5088 135.1746 0.0000 0.0000 0.0000
# 4 0.0000 0.0000 0.0000 2.2119 0.0000 0.0000
# 5 0.0000 0.0000 0.0000 0.0000 47.7180 0.0000
# 6 0.0000 0.0000 0.0000 0.0000 0.0000 26.5664
#
#
#
# Elastic Compliance Matrix: (Units=1/GPa)
#
#
# Indices 1 2 3 4 5 6 
#
# 1 0.015998 -0.002129 -0.005674 0.000000 0.000000 0.000000
# 2 -0.002129 0.006632 -0.002181 0.000000 0.000000 0.000000
# 3 -0.005674 -0.002181 0.010767 0.000000 0.000000 0.000000
# 4 0.000000 0.000000 0.000000 0.452103 0.000000 0.000000
# 5 0.000000 0.000000 0.000000 0.000000 0.020956 0.000000
# 6 0.000000 0.000000 0.000000 0.000000 0.000000 0.037641
#
#
# Mechanical properties :
#
#
# Convention : Reuss Voigt Hill
#
# Bulk Modulus (GPa) = 74.45211 82.41978 78.43595
# Shear Modulus (GPa) = 8.79443 31.60417 20.19930
#
# Velocity S-wave (km/s) = 2.06719 3.91877 3.13289
# Velocity P-wave (km/s) = 6.47106 7.77972 7.15537
#
# Compressibility (1/GPa) = 0.01343145
#
# Stress axis : x y z
#
# Youngs Moduli (GPa) = 62.50625 150.79527 92.87253
#
# Poissons Ratio (x) = 0.32097 0.52692
# Poissons Ratio (y) = 0.13305 0.20254
# Poissons Ratio (z) = 0.35464 0.32885
#
# Static dielectric constant tensor:
#      x y z
#    x 1.729520 0.000000 0.000000 
#    y 0.000000 1.748590 0.000000 
#    z 0.000000 0.000000 1.766600 
# 
# From -- ./inp_files/22083.got.cif
#   From: 2010.05.17/outbox.cif.g08.bks.cpg/sg43_12_cif.got.tgz:22083.got - 2010.06.03 19:21:55.
