data_PCOD9371440
_publ_section_title
;
Structure prediction by ZEFSAII (Michael W. Deem and Ramdas Pophale) SiO2 
 PCOD9371440
Probable space group: F D D 2
;
_chemical_formula_sum "Si O2"
_cell_formula_units_Z 112
_cell_length_a 17.658657
_cell_length_b 14.862177
_cell_length_c 21.756182
_cell_angle_alpha 90.000000
_cell_angle_beta 90.000000
_cell_angle_gamma 90.000000
_cell_volume 5709.824810
_symmetry_space_group_name_H-M "F D D 2"
_symmetry_group_IT_number 43
_symmetry_cell_setting 'orthorhombic'
loop_
_space_group_symop_operation_xyz
x,y,z
-x,-y,z
1/4-x,1/4+y,1/4+z
1/4+x,1/4-y,1/4+z
x,1/2+y,1/2+z
-x,1/2-y,1/2+z
1/4-x,3/4+y,3/4+z
1/4+x,3/4-y,3/4+z
1/2+x,y,1/2+z
1/2-x,-y,1/2+z
3/4-x,1/4+y,3/4+z
3/4+x,1/4-y,3/4+z
1/2+x,1/2+y,z
1/2-x,1/2-y,z
3/4-x,3/4+y,1/4+z
3/4+x,3/4-y,1/4+z
loop_
_atom_site_type_symbol
_atom_site_label
_atom_site_fract_x
_atom_site_fract_y
_atom_site_fract_z
Si Si1 0.310268 0.478065 0.315380
Si Si2 0.832384 0.514347 0.400089
Si Si3 0.077574 0.681502 0.790310
Si Si4 0.711846 0.993270 0.197325
Si Si5 0.041626 0.366651 0.341821
Si Si6 0.948527 0.577396 0.210092
Si Si7 0.050623 0.412083 0.862387
O O1 0.239515 0.460410 0.359330
O O2 0.360058 0.388711 0.311192
O O3 0.277060 0.499374 0.248136
O O4 0.367275 0.554366 0.340761
O O5 0.830967 0.557188 0.467675
O O6 0.908512 0.551687 0.368393
O O7 0.819592 0.408979 0.414437
O O8 0.089696 0.777002 0.823969
O O9 0.996335 0.640598 0.809628
O O10 0.697122 0.089999 0.166839
O O11 0.735858 0.921807 0.144136
O O12 0.633934 0.960445 0.227340
O O13 0.011074 0.392565 0.273977
O O14 0.000000 0.500000 0.181188
O O15 0.000000 0.500000 0.878001
#
# Coordination Sequence:
#
# PCOD9371440 Si02
#       7
#    16  16  16  16  16  16  16
#     4  11  21  39  64  93 126 166 216 257 325 378
#     4  11  22  40  62  93 123 165 213 264 317 380
#     4   9  21  40  60  95 129 162 211 265 321 375
#     4  11  22  40  66  90 124 168 211 264 320 381
#     4  10  22  40  63  93 126 164 212 264 322 369
#     4  11  25  42  61  91 130 167 211 261 323 388
#     4   9  21  40  60  90 128 164 206 266 312 383
#
# _framework density 19.615313
#
# number of rings (size 3 to 8) (size 9 to 14) (size 15 to 20)
#    0.000    1.714    2.857    0.857    2.000    4.000 
#    2.571    3.571    0.000    0.000    0.000    0.000 
#    0.000    0.000    0.000    0.000    0.000    0.000 
#
# Total GULP energy -156212.114624 kJ/mol
# GULP energy per Si atom -5579.004094 kJ/mol
# Density = 1.957067 g / cm^3
# Si number density = 19.615313 Si / 1000 Ang^3
#
#
#
# Elastic Constant Matrix: (Units=GPa)
#
#
# Indices 1 2 3 4 5 6 
#
# 1 63.1165 16.6117 9.0196 0.0000 0.0000 0.0000
# 2 16.6117 102.3132 17.2189 0.0000 0.0000 0.0000
# 3 9.0196 17.2189 67.5202 0.0000 0.0000 0.0000
# 4 0.0000 0.0000 0.0000 22.0118 0.0000 0.0000
# 5 0.0000 0.0000 0.0000 0.0000 21.7784 0.0000
# 6 0.0000 0.0000 0.0000 0.0000 0.0000 22.0238
#
#
#
# Elastic Compliance Matrix: (Units=1/GPa)
#
#
# Indices 1 2 3 4 5 6 
#
# 1 0.016717 -0.002443 -0.001610 0.000000 0.000000 0.000000
# 2 -0.002443 0.010569 -0.002369 0.000000 0.000000 0.000000
# 3 -0.001610 -0.002369 0.015630 0.000000 0.000000 0.000000
# 4 0.000000 0.000000 0.000000 0.045430 0.000000 0.000000
# 5 0.000000 0.000000 0.000000 0.000000 0.045917 0.000000
# 6 0.000000 0.000000 0.000000 0.000000 0.000000 0.045405
#
#
# Mechanical properties :
#
#
# Convention : Reuss Voigt Hill
#
# Bulk Modulus (GPa) = 33.25437 35.40560 34.32998
# Shear Modulus (GPa) = 24.68690 25.83611 25.26151
#
# Velocity S-wave (km/s) = 3.55146 3.63318 3.59255
# Velocity P-wave (km/s) = 5.81440 5.97404 5.89476
#
# Compressibility (1/GPa) = 0.03007124
#
# Stress axis : x y z
#
# Youngs Moduli (GPa) = 59.81999 94.61378 63.98122
#
# Poissons Ratio (x) = 0.23116 0.10301
# Poissons Ratio (y) = 0.14615 0.15157
# Poissons Ratio (z) = 0.09631 0.22414
#
# Static dielectric constant tensor:
#      x y z
#    x 1.671270 0.000000 0.000000 
#    y 0.000000 1.711680 0.000000 
#    z 0.000000 0.000000 1.675870 
# 
# From -- ./inp_files/21718.got.cif
#   From: 2010.05.17/outbox.cif.g08.bks.cpg/sg43_11_cif.got.tgz:21718.got - 2010.06.03 19:21:55.
