data_PCOD9371300
_publ_section_title
;
Structure prediction by ZEFSAII (Michael W. Deem and Ramdas Pophale) SiO2 
 PCOD9371300
Probable space group: F D D 2
;
_chemical_formula_sum "Si O2"
_cell_formula_units_Z 120
_cell_length_a 17.295084
_cell_length_b 11.198175
_cell_length_c 28.436046
_cell_angle_alpha 90.000000
_cell_angle_beta 90.000000
_cell_angle_gamma 90.000000
_cell_volume 5507.305065
_symmetry_space_group_name_H-M "F D D 2"
_symmetry_group_IT_number 43
_symmetry_cell_setting 'orthorhombic'
loop_
_space_group_symop_operation_xyz
x,y,z
-x,-y,z
1/4-x,1/4+y,1/4+z
1/4+x,1/4-y,1/4+z
x,1/2+y,1/2+z
-x,1/2-y,1/2+z
1/4-x,3/4+y,3/4+z
1/4+x,3/4-y,3/4+z
1/2+x,y,1/2+z
1/2-x,-y,1/2+z
3/4-x,1/4+y,3/4+z
3/4+x,1/4-y,3/4+z
1/2+x,1/2+y,z
1/2-x,1/2-y,z
3/4-x,3/4+y,1/4+z
3/4+x,3/4-y,1/4+z
loop_
_atom_site_type_symbol
_atom_site_label
_atom_site_fract_x
_atom_site_fract_y
_atom_site_fract_z
Si Si1 0.540045 0.888901 0.363430
Si Si2 0.378825 0.510099 0.416420
Si Si3 0.250000 0.250000 0.811058
Si Si4 0.753008 0.559349 0.483982
Si Si5 0.026020 0.311475 0.982403
Si Si6 0.823781 0.323417 0.508980
Si Si7 0.375676 0.229127 0.437926
Si Si8 0.083125 0.315259 0.833843
O O1 0.569971 0.942737 0.314773
O O2 0.613549 0.847540 0.391815
O O3 0.480894 0.777248 0.355075
O O4 0.500000 0.000000 0.389083
O O5 0.295797 0.513623 0.443836
O O6 0.439304 0.585413 0.448090
O O7 0.381104 0.366544 0.419999
O O8 0.399712 0.565797 0.365181
O O9 0.249612 0.132940 0.778480
O O10 0.166975 0.251523 0.835935
O O11 0.813782 0.462554 0.501422
O O12 0.804440 0.669655 0.465362
O O13 0.695862 0.585513 0.529250
O O14 0.954832 0.229986 0.966981
O O15 0.098827 0.228210 0.989343
O O16 0.750000 0.250000 0.490207
#
# Coordination Sequence:
#
# PCOD9371300 Si02
#       8
#    16  16   8  16  16  16  16  16
#     4  10  23  43  66 105 147 188 238 308 368 448
#     4  12  24  48  72 104 147 192 255 311 365 455
#     4  12  22  44  72 112 138 184 252 312 356 452
#     4  11  25  48  73 110 148 194 245 316 386 450
#     4  12  22  43  71 101 142 193 247 306 366 441
#     4  10  21  43  72 101 142 194 245 306 373 446
#     4  12  26  44  72 105 150 195 242 311 383 446
#     4  11  25  46  78 107 142 197 253 306 382 456
#
# _framework density 21.789241000000001
#
# number of rings (size 3 to 8) (size 9 to 14) (size 15 to 20)
#    0.000    0.800    5.333    2.000    1.867    3.200 
#   16.800    0.000    0.000    0.000    0.000    0.000 
#    0.000    0.000    0.000    0.000    0.000    0.000 
#
# Total GULP energy -167068.857456 kJ/mol
# GULP energy per Si atom -5568.961915 kJ/mol
# Density = 2.173965 g / cm^3
# Si number density = 21.789241 Si / 1000 Ang^3
#
#
#
# Elastic Constant Matrix: (Units=GPa)
#
#
# Indices 1 2 3 4 5 6 
#
# 1 107.5262 40.5278 33.8729 0.0000 0.0000 0.0000
# 2 40.5278 100.6955 41.8049 0.0000 0.0000 0.0000
# 3 33.8729 41.8049 51.7720 0.0000 0.0000 0.0000
# 4 0.0000 0.0000 0.0000 -7.0463 0.0000 0.0000
# 5 0.0000 0.0000 0.0000 0.0000 24.3324 0.0000
# 6 0.0000 0.0000 0.0000 0.0000 0.0000 41.0011
#
#
#
# Elastic Compliance Matrix: (Units=1/GPa)
#
#
# Indices 1 2 3 4 5 6 
#
# 1 0.012082 -0.002378 -0.005984 0.000000 0.000000 0.000000
# 2 -0.002378 0.015407 -0.010885 0.000000 0.000000 0.000000
# 3 -0.005984 -0.010885 0.032020 0.000000 0.000000 0.000000
# 4 0.000000 0.000000 0.000000 -0.141918 0.000000 0.000000
# 5 0.000000 0.000000 0.000000 0.000000 0.041097 0.000000
# 6 0.000000 0.000000 0.000000 0.000000 0.000000 0.024390
#
#
# Mechanical properties :
#
#
# Convention : Reuss Voigt Hill
#
# Bulk Modulus (GPa) = 47.58724 54.71164 51.14944
# Shear Modulus (GPa) = 174.95995 21.24331 98.10163
#
# Velocity S-wave (km/s) = 8.97055 3.12580 6.71720
# Velocity P-wave (km/s) = 11.36581 6.17992 9.14803
#
# Compressibility (1/GPa) = 0.02101404
#
# Stress axis : x y z
#
# Youngs Moduli (GPa) = 82.77060 64.90507 31.23019
#
# Poissons Ratio (x) = 0.15435 0.18689
# Poissons Ratio (y) = 0.19684 0.33994
# Poissons Ratio (z) = 0.49533 0.70649
#
# Static dielectric constant tensor:
#      x y z
#    x 1.812120 0.000000 0.000000 
#    y 0.000000 1.856460 0.000000 
#    z 0.000000 0.000000 1.874450 
# 
# From -- ./inp_files/26051.got.cif
#   From: 2010.05.17/outbox.cif.g08.bks.cpg/sg43_14_cif.got.tgz:26051.got - 2010.06.03 19:21:55.
