data_PCOD9371721
_publ_section_title
;
Structure prediction by ZEFSAII (Michael W. Deem and Ramdas Pophale) SiO2 
 PCOD9371721
Probable space group: F D D 2
;
_chemical_formula_sum "Si O2"
_cell_formula_units_Z 64
_cell_length_a 9.525018
_cell_length_b 29.972362
_cell_length_c 9.600184
_cell_angle_alpha 90.000000
_cell_angle_beta 90.000000
_cell_angle_gamma 90.000000
_cell_volume 2740.730490
_symmetry_space_group_name_H-M "F D D 2"
_symmetry_group_IT_number 43
_symmetry_cell_setting 'orthorhombic'
loop_
_space_group_symop_operation_xyz
x,y,z
-x,-y,z
1/4-x,1/4+y,1/4+z
1/4+x,1/4-y,1/4+z
x,1/2+y,1/2+z
-x,1/2-y,1/2+z
1/4-x,3/4+y,3/4+z
1/4+x,3/4-y,3/4+z
1/2+x,y,1/2+z
1/2-x,-y,1/2+z
3/4-x,1/4+y,3/4+z
3/4+x,1/4-y,3/4+z
1/2+x,1/2+y,z
1/2-x,1/2-y,z
3/4-x,3/4+y,1/4+z
3/4+x,3/4-y,1/4+z
loop_
_atom_site_type_symbol
_atom_site_label
_atom_site_fract_x
_atom_site_fract_y
_atom_site_fract_z
Si Si1 0.532671 0.720411 0.967380
Si Si2 0.177286 0.829890 0.785529
Si Si3 0.518432 0.666406 0.221644
Si Si4 0.654560 0.318708 0.474726
O O1 0.432301 0.705520 0.843296
O O2 0.461897 0.701245 0.108322
O O3 0.569214 0.772064 0.977995
O O4 0.683123 0.695237 0.954631
O O5 0.337060 0.812882 0.779600
O O6 0.139592 0.841356 0.625607
O O7 0.186236 0.872022 0.888422
O O8 0.411034 0.655718 0.344241
#
# Coordination Sequence:
#
# PCOD9371721 Si02
#       4
#    16  16  16  16
#     4  10  22  45  66  97 133 174 226 276 337 407
#     4  11  23  43  65  98 135 169 223 283 332 400
#     4  11  23  42  65  99 133 171 223 281 333 399
#     4  10  24  42  70  94 134 181 221 277 342 400
#
# _framework density 23.35144
#
# number of rings (size 3 to 8) (size 9 to 14) (size 15 to 20)
#    0.000    1.500    2.500    1.500    0.000    9.000 
#    0.000    0.000    0.000    0.000    0.000    0.000 
#    0.000    0.000    0.000    0.000    0.000    0.000 
#
# Total GULP energy -89514.722953 kJ/mol
# GULP energy per Si atom -5594.670185 kJ/mol
# Density = 2.329829 g / cm^3
# Si number density = 23.351440 Si / 1000 Ang^3
#
#
#
# Elastic Constant Matrix: (Units=GPa)
#
#
# Indices 1 2 3 4 5 6 
#
# 1 64.3329 7.5921 70.4627 0.0000 0.0000 0.0000
# 2 7.5921 86.5553 32.6688 0.0000 0.0000 0.0000
# 3 70.4627 32.6688 155.4233 0.0000 0.0000 0.0000
# 4 0.0000 0.0000 0.0000 35.0790 0.0000 0.0000
# 5 0.0000 0.0000 0.0000 0.0000 41.1472 0.0000
# 6 0.0000 0.0000 0.0000 0.0000 0.0000 25.7021
#
#
#
# Elastic Compliance Matrix: (Units=1/GPa)
#
#
# Indices 1 2 3 4 5 6 
#
# 1 0.031512 0.002855 -0.014886 0.000000 0.000000 0.000000
# 2 0.002855 0.012807 -0.003986 0.000000 0.000000 0.000000
# 3 -0.014886 -0.003986 0.014021 0.000000 0.000000 0.000000
# 4 0.000000 0.000000 0.000000 0.028507 0.000000 0.000000
# 5 0.000000 0.000000 0.000000 0.000000 0.024303 0.000000
# 6 0.000000 0.000000 0.000000 0.000000 0.000000 0.038907
#
#
# Mechanical properties :
#
#
# Convention : Reuss Voigt Hill
#
# Bulk Modulus (GPa) = 38.01652 58.63987 48.32820
# Shear Modulus (GPa) = 26.19701 33.42485 29.81093
#
# Velocity S-wave (km/s) = 3.35305 3.78747 3.57686
# Velocity P-wave (km/s) = 5.59518 6.65529 6.14813
#
# Compressibility (1/GPa) = 0.02630435
#
# Stress axis : x y z
#
# Youngs Moduli (GPa) = 31.73396 78.07970 71.32289
#
# Poissons Ratio (x) = -0.22288 1.06173
# Poissons Ratio (y) = -0.09059 0.28430
# Poissons Ratio (z) = 0.47240 0.31124
#
# Static dielectric constant tensor:
#      x y z
#    x 1.866780 0.000000 0.000000 
#    y 0.000000 1.892550 0.000000 
#    z 0.000000 0.000000 1.915820 
# 
# From -- ./inp_files/1953.got.cif
#   From: 2010.05.17/outbox.cif.g08.bks.cpg/sg43_1_cif.got.tgz:1953.got - 2010.06.03 19:21:55.
