data_PCOD9371611
_publ_section_title
;
Structure prediction by ZEFSAII (Michael W. Deem and Ramdas Pophale) SiO2 
 PCOD9371611
Probable space group: F D D 2
;
_chemical_formula_sum "Si O2"
_cell_formula_units_Z 80
_cell_length_a 15.727946
_cell_length_b 7.831157
_cell_length_c 28.851240
_cell_angle_alpha 90.000000
_cell_angle_beta 90.000000
_cell_angle_gamma 90.000000
_cell_volume 3553.549944
_symmetry_space_group_name_H-M "F D D 2"
_symmetry_group_IT_number 43
_symmetry_cell_setting 'orthorhombic'
loop_
_space_group_symop_operation_xyz
x,y,z
-x,-y,z
1/4-x,1/4+y,1/4+z
1/4+x,1/4-y,1/4+z
x,1/2+y,1/2+z
-x,1/2-y,1/2+z
1/4-x,3/4+y,3/4+z
1/4+x,3/4-y,3/4+z
1/2+x,y,1/2+z
1/2-x,-y,1/2+z
3/4-x,1/4+y,3/4+z
3/4+x,1/4-y,3/4+z
1/2+x,1/2+y,z
1/2-x,1/2-y,z
3/4-x,3/4+y,1/4+z
3/4+x,3/4-y,1/4+z
loop_
_atom_site_type_symbol
_atom_site_label
_atom_site_fract_x
_atom_site_fract_y
_atom_site_fract_z
Si Si1 0.648175 0.998448 0.741960
Si Si2 0.750000 0.250000 0.307125
Si Si3 0.891859 0.332308 0.364758
Si Si4 0.851370 0.713208 0.656744
Si Si5 0.298794 0.570383 0.066228
Si Si6 0.000000 0.500000 0.437445
O O1 0.598640 0.153878 0.767989
O O2 0.727894 0.087992 0.717711
O O3 0.683677 0.863644 0.778754
O O4 0.607953 0.880929 0.701094
O O5 0.808628 0.377713 0.336561
O O6 0.973072 0.308697 0.329909
O O7 0.920926 0.458296 0.404603
O O8 0.870386 0.149564 0.389184
O O9 0.750000 0.750000 0.667236
O O10 0.856173 0.587288 0.612288
O O11 0.250000 0.750000 0.066261
#
# Coordination Sequence:
#
# PCOD9371611 Si02
#       6
#    16   8  16  16  16   8
#     4  12  21  37  67  92 120 163 218 246 312 372
#     4  12  22  40  66  95 116 169 210 254 302 392
#     4  10  22  43  63  87 129 167 199 255 326 356
#     4   9  16  37  64  81 118 168 199 248 300 368
#     4   9  18  39  62  84 116 167 201 244 303 369
#     4  12  24  40  62  93 130 159 196 272 314 364
#
# _framework density 22.512699999999999
#
# number of rings (size 3 to 8) (size 9 to 14) (size 15 to 20)
#    0.000    2.000    9.000    0.000    0.000    1.600 
#    3.600    0.000    0.000    0.000    0.000    0.000 
#    0.000    0.000    0.000    0.000    0.000    0.000 
#
# Total GULP energy -111346.135067 kJ/mol
# GULP energy per Si atom -5567.306753 kJ/mol
# Density = 2.246146 g / cm^3
# Si number density = 22.512700 Si / 1000 Ang^3
#
#
#
# Elastic Constant Matrix: (Units=GPa)
#
#
# Indices 1 2 3 4 5 6 
#
# 1 26.1841 -1.1758 33.6551 0.0000 0.0000 0.0000
# 2 -1.1758 44.8581 5.4910 0.0000 0.0000 0.0000
# 3 33.6551 5.4910 112.6884 0.0000 0.0000 0.0000
# 4 0.0000 0.0000 0.0000 7.5916 0.0000 0.0000
# 5 0.0000 0.0000 0.0000 0.0000 20.9189 0.0000
# 6 0.0000 0.0000 0.0000 0.0000 0.0000 13.1751
#
#
#
# Elastic Compliance Matrix: (Units=1/GPa)
#
#
# Indices 1 2 3 4 5 6 
#
# 1 0.062676 0.003958 -0.018912 0.000000 0.000000 0.000000
# 2 0.003958 0.022676 -0.002287 0.000000 0.000000 0.000000
# 3 -0.018912 -0.002287 0.014634 0.000000 0.000000 0.000000
# 4 0.000000 0.000000 0.000000 0.131724 0.000000 0.000000
# 5 0.000000 0.000000 0.000000 0.000000 0.047804 0.000000
# 6 0.000000 0.000000 0.000000 0.000000 0.000000 0.075901
#
#
# Mechanical properties :
#
#
# Convention : Reuss Voigt Hill
#
# Bulk Modulus (GPa) = 15.26610 28.85237 22.05923
# Shear Modulus (GPa) = 12.14386 18.05449 15.09917
#
# Velocity S-wave (km/s) = 2.32507 2.83498 2.59259
# Velocity P-wave (km/s) = 3.74216 4.85386 4.33381
#
# Compressibility (1/GPa) = 0.06550461
#
# Stress axis : x y z
#
# Youngs Moduli (GPa) = 15.95497 44.09907 68.33624
#
# Poissons Ratio (x) = -0.17453 1.29235
# Poissons Ratio (y) = -0.06315 0.15628
# Poissons Ratio (z) = 0.30173 0.10085
#
# Static dielectric constant tensor:
#      x y z
#    x 1.883320 0.000000 0.000000 
#    y 0.000000 1.849370 0.000000 
#    z 0.000000 0.000000 1.990620 
# 
# From -- ./inp_files/22310.got.cif
#   From: 2010.05.17/outbox.cif.g08.bks.cpg/sg43_12_cif.got.tgz:22310.got - 2010.06.03 19:21:55.
