data_PCOD9371936
_publ_section_title
;
Structure prediction by ZEFSAII (Michael W. Deem and Ramdas Pophale) SiO2 
 PCOD9371936
Probable space group: F D D 2
;
_chemical_formula_sum "Si O2"
_cell_formula_units_Z 112
_cell_length_a 6.651850
_cell_length_b 29.358614
_cell_length_c 22.040239
_cell_angle_alpha 90.000000
_cell_angle_beta 90.000000
_cell_angle_gamma 90.000000
_cell_volume 4304.218362
_symmetry_space_group_name_H-M "F D D 2"
_symmetry_group_IT_number 43
_symmetry_cell_setting 'orthorhombic'
loop_
_space_group_symop_operation_xyz
x,y,z
-x,-y,z
1/4-x,1/4+y,1/4+z
1/4+x,1/4-y,1/4+z
x,1/2+y,1/2+z
-x,1/2-y,1/2+z
1/4-x,3/4+y,3/4+z
1/4+x,3/4-y,3/4+z
1/2+x,y,1/2+z
1/2-x,-y,1/2+z
3/4-x,1/4+y,3/4+z
3/4+x,1/4-y,3/4+z
1/2+x,1/2+y,z
1/2-x,1/2-y,z
3/4-x,3/4+y,1/4+z
3/4+x,3/4-y,1/4+z
loop_
_atom_site_type_symbol
_atom_site_label
_atom_site_fract_x
_atom_site_fract_y
_atom_site_fract_z
Si Si1 0.849378 0.089018 0.574210
Si Si2 0.000000 0.500000 0.033693
Si Si3 0.250000 0.250000 0.093134
Si Si4 0.300409 0.140612 0.230232
Si Si5 0.984399 0.375683 0.849130
Si Si6 0.874680 0.292888 0.476133
Si Si7 0.522299 0.295837 0.173930
Si Si8 0.011860 0.049908 0.148618
O O1 0.745358 0.086531 0.508575
O O2 0.656077 0.087266 0.616841
O O3 0.029892 0.123920 0.581680
O O4 0.929196 0.038493 0.579081
O O5 0.147593 0.526680 0.987520
O O6 0.446609 0.252799 0.134655
O O7 0.199726 0.209169 0.046143
O O8 0.140521 0.127583 0.284811
O O9 0.402383 0.094393 0.206283
O O10 0.176301 0.173939 0.187701
O O11 0.918382 0.420298 0.886859
O O12 0.937470 0.330069 0.890560
O O13 0.750000 0.250000 0.451578
O O14 0.112344 0.287639 0.459863
O O15 0.000000 0.000000 0.117480
#
# Coordination Sequence:
#
# PCOD9371936 Si02
#       8
#    16   8   8  16  16  16  16  16
#     4  11  26  43  74 107 148 191 255 311 373 461
#     4  12  26  43  68 112 142 195 256 308 382 460
#     4  10  24  43  72 102 154 193 246 308 386 450
#     4  11  23  48  72 105 146 202 245 311 379 454
#     4  11  23  46  72 105 145 196 252 307 378 453
#     4  10  23  45  70 103 144 190 244 305 375 451
#     4  12  24  46  76 107 156 202 255 318 392 465
#     4  11  25  43  72 102 143 191 243 315 377 442
#
# _framework density 26.020986000000001
#
# number of rings (size 3 to 8) (size 9 to 14) (size 15 to 20)
#    0.429    0.571    4.286    1.714    5.000    2.286 
#    3.857    0.000    0.000    0.000    0.000    0.000 
#    0.000    0.000    0.000    0.000    0.000    0.000 
#
# Total GULP energy -155973.783204 kJ/mol
# GULP energy per Si atom -5570.492257 kJ/mol
# Density = 2.596176 g / cm^3
# Si number density = 26.020986 Si / 1000 Ang^3
#
#
#
# Elastic Constant Matrix: (Units=GPa)
#
#
# Indices 1 2 3 4 5 6 
#
# 1 136.5622 43.9890 34.5110 0.0000 0.0000 0.0000
# 2 43.9890 101.0901 7.8704 0.0000 0.0000 0.0000
# 3 34.5110 7.8704 51.7680 0.0000 0.0000 0.0000
# 4 0.0000 0.0000 0.0000 34.8890 0.0000 0.0000
# 5 0.0000 0.0000 0.0000 0.0000 23.9037 0.0000
# 6 0.0000 0.0000 0.0000 0.0000 0.0000 47.2076
#
#
#
# Elastic Compliance Matrix: (Units=1/GPa)
#
#
# Indices 1 2 3 4 5 6 
#
# 1 0.010149 -0.003936 -0.006168 0.000000 0.000000 0.000000
# 2 -0.003936 0.011537 0.000870 0.000000 0.000000 0.000000
# 3 -0.006168 0.000870 0.023296 0.000000 0.000000 0.000000
# 4 0.000000 0.000000 0.000000 0.028662 0.000000 0.000000
# 5 0.000000 0.000000 0.000000 0.000000 0.041835 0.000000
# 6 0.000000 0.000000 0.000000 0.000000 0.000000 0.021183
#
#
# Mechanical properties :
#
#
# Convention : Reuss Voigt Hill
#
# Bulk Modulus (GPa) = 37.71404 51.35123 44.53264
# Shear Modulus (GPa) = 30.49367 34.73671 32.61519
#
# Velocity S-wave (km/s) = 3.42700 3.65766 3.54421
# Velocity P-wave (km/s) = 5.49402 6.13314 5.82235
#
# Compressibility (1/GPa) = 0.02651532
#
# Stress axis : x y z
#
# Youngs Moduli (GPa) = 98.52997 86.67565 42.92537
#
# Poissons Ratio (x) = 0.34117 0.26474
# Poissons Ratio (y) = 0.38784 -0.03735
# Poissons Ratio (z) = 0.60768 -0.07541
#
# Static dielectric constant tensor:
#      x y z
#    x 2.258220 0.000000 0.000000 
#    y 0.000000 2.044910 0.000000 
#    z 0.000000 0.000000 2.321610 
# 
# From -- ./inp_files/27460.got.cif
#   From: 2010.05.17/outbox.cif.g08.bks.cpg/sg43_14_cif.got.tgz:27460.got - 2010.06.03 19:21:55.
