data_PCOD9371076
_publ_section_title
;
Structure prediction by ZEFSAII (Michael W. Deem and Ramdas Pophale) SiO2 
 PCOD9371076
Probable space group: F D D 2
;
_chemical_formula_sum "Si O2"
_cell_formula_units_Z 104
_cell_length_a 15.857869
_cell_length_b 21.995910
_cell_length_c 13.066592
_cell_angle_alpha 90.000000
_cell_angle_beta 90.000000
_cell_angle_gamma 90.000000
_cell_volume 4557.735211
_symmetry_space_group_name_H-M "F D D 2"
_symmetry_group_IT_number 43
_symmetry_cell_setting 'orthorhombic'
loop_
_space_group_symop_operation_xyz
x,y,z
-x,-y,z
1/4-x,1/4+y,1/4+z
1/4+x,1/4-y,1/4+z
x,1/2+y,1/2+z
-x,1/2-y,1/2+z
1/4-x,3/4+y,3/4+z
1/4+x,3/4-y,3/4+z
1/2+x,y,1/2+z
1/2-x,-y,1/2+z
3/4-x,1/4+y,3/4+z
3/4+x,1/4-y,3/4+z
1/2+x,1/2+y,z
1/2-x,1/2-y,z
3/4-x,3/4+y,1/4+z
3/4+x,3/4-y,1/4+z
loop_
_atom_site_type_symbol
_atom_site_label
_atom_site_fract_x
_atom_site_fract_y
_atom_site_fract_z
Si Si1 0.018254 0.694228 0.413910
Si Si2 0.165168 0.281630 0.929127
Si Si3 0.389359 0.673732 0.217735
Si Si4 0.250000 0.250000 0.603575
Si Si5 0.245655 0.027081 0.936607
Si Si6 0.803646 0.190378 0.657058
Si Si7 0.399944 0.297071 0.488709
O O1 0.097920 0.729819 0.461519
O O2 0.034982 0.699314 0.292366
O O3 0.017655 0.624023 0.445610
O O4 0.936335 0.736044 0.436908
O O5 0.250000 0.250000 0.888184
O O6 0.121250 0.321804 0.841145
O O7 0.192075 0.314231 0.033164
O O8 0.319786 0.718415 0.171731
O O9 0.477819 0.705204 0.185883
O O10 0.358704 0.608828 0.175999
O O11 0.305672 0.291690 0.530856
O O12 0.148797 0.045799 0.940907
O O13 0.287500 0.055488 0.835552
O O14 0.750000 0.250000 0.683545
#
# Coordination Sequence:
#
# PCOD9371076 Si02
#       7
#    16  16  16   8  16  16  16
#     4  11  25  42  67 102 132 178 226 281 348 396
#     4  10  21  38  66 100 128 170 217 288 340 394
#     4  10  22  40  68 100 131 170 225 282 342 389
#     4  10  24  42  64 102 128 180 224 270 338 412
#     4  10  24  43  66 102 134 175 230 282 326 415
#     4  11  25  43  67  96 138 184 224 280 341 410
#     4  11  24  43  68  96 139 176 220 287 334 406
#
# _framework density 22.818349999999999
#
# number of rings (size 3 to 8) (size 9 to 14) (size 15 to 20)
#    0.000    1.538    2.308    0.923   10.769    1.231 
#    4.154    0.000    0.000    0.000    0.000    0.000 
#    0.000    0.000    0.000    0.000    0.000    0.000 
#
# Total GULP energy -145099.165382 kJ/mol
# GULP energy per Si atom -5580.737130 kJ/mol
# Density = 2.276641 g / cm^3
# Si number density = 22.818350 Si / 1000 Ang^3
#
#
#
# Elastic Constant Matrix: (Units=GPa)
#
#
# Indices 1 2 3 4 5 6 
#
# 1 56.9964 26.3129 -16.5135 0.0000 0.0000 0.0000
# 2 26.3129 160.7820 5.6737 0.0000 0.0000 0.0000
# 3 -16.5135 5.6737 23.6946 0.0000 0.0000 0.0000
# 4 0.0000 0.0000 0.0000 3.9120 0.0000 0.0000
# 5 0.0000 0.0000 0.0000 0.0000 10.6350 0.0000
# 6 0.0000 0.0000 0.0000 0.0000 0.0000 29.3600
#
#
#
# Elastic Compliance Matrix: (Units=1/GPa)
#
#
# Indices 1 2 3 4 5 6 
#
# 1 0.025163 -0.004777 0.018681 0.000000 0.000000 0.000000
# 2 -0.004777 0.007180 -0.005049 0.000000 0.000000 0.000000
# 3 0.018681 -0.005049 0.056432 0.000000 0.000000 0.000000
# 4 0.000000 0.000000 0.000000 0.255624 0.000000 0.000000
# 5 0.000000 0.000000 0.000000 0.000000 0.094029 0.000000
# 6 0.000000 0.000000 0.000000 0.000000 0.000000 0.034060
#
#
# Mechanical properties :
#
#
# Convention : Reuss Voigt Hill
#
# Bulk Modulus (GPa) = 9.39113 30.26881 19.82997
# Shear Modulus (GPa) = 10.19843 23.84807 17.02325
#
# Velocity S-wave (km/s) = 2.11639 3.23635 2.73432
# Velocity P-wave (km/s) = 3.17753 5.22103 4.32180
#
# Compressibility (1/GPa) = 0.10648346
#
# Stress axis : x y z
#
# Youngs Moduli (GPa) = 39.74138 139.28395 17.72055
#
# Poissons Ratio (x) = 0.66539 -0.33103
# Poissons Ratio (y) = 0.18985 0.08946
# Poissons Ratio (z) = -0.74239 0.70318
#
# Static dielectric constant tensor:
#      x y z
#    x 1.828120 0.000000 0.000000 
#    y 0.000000 1.942400 0.000000 
#    z 0.000000 0.000000 1.901240 
# 
# From -- ./inp_files/10623.got.cif
#   From: 2010.05.17/outbox.cif.g08.bks.cpg/sg43_6_cif.got.tgz:10623.got - 2010.06.03 19:21:55.
