data_PCOD9371749
_publ_section_title
;
Structure prediction by ZEFSAII (Michael W. Deem and Ramdas Pophale) SiO2 
 PCOD9371749
Probable space group: F D D 2
;
_chemical_formula_sum "Si O2"
_cell_formula_units_Z 112
_cell_length_a 11.201960
_cell_length_b 28.348192
_cell_length_c 15.476275
_cell_angle_alpha 90.000000
_cell_angle_beta 90.000000
_cell_angle_gamma 90.000000
_cell_volume 4914.573349
_symmetry_space_group_name_H-M "F D D 2"
_symmetry_group_IT_number 43
_symmetry_cell_setting 'orthorhombic'
loop_
_space_group_symop_operation_xyz
x,y,z
-x,-y,z
1/4-x,1/4+y,1/4+z
1/4+x,1/4-y,1/4+z
x,1/2+y,1/2+z
-x,1/2-y,1/2+z
1/4-x,3/4+y,3/4+z
1/4+x,3/4-y,3/4+z
1/2+x,y,1/2+z
1/2-x,-y,1/2+z
3/4-x,1/4+y,3/4+z
3/4+x,1/4-y,3/4+z
1/2+x,1/2+y,z
1/2-x,1/2-y,z
3/4-x,3/4+y,1/4+z
3/4+x,3/4-y,1/4+z
loop_
_atom_site_type_symbol
_atom_site_label
_atom_site_fract_x
_atom_site_fract_y
_atom_site_fract_z
Si Si1 0.113020 0.482690 0.016210
Si Si2 0.879021 0.987262 0.840071
Si Si3 0.771408 0.565383 0.461479
Si Si4 0.769058 0.575903 0.732476
Si Si5 0.301167 0.849376 0.851759
Si Si6 0.838353 0.916382 0.982660
Si Si7 0.974627 0.908320 0.627890
O O1 0.040413 0.454494 0.090603
O O2 0.000000 0.500000 0.957578
O O3 0.190191 0.530842 0.020591
O O4 0.212712 0.444219 0.990215
O O5 0.770209 0.971012 0.781956
O O6 0.903278 0.943166 0.903992
O O7 0.843378 0.029541 0.901721
O O8 0.000000 0.000000 0.791032
O O9 0.702634 0.599711 0.396628
O O10 0.859544 0.595823 0.520708
O O11 0.886419 0.568489 0.675836
O O12 0.654354 0.587399 0.672607
O O13 0.783677 0.619010 0.800958
O O14 0.172040 0.833865 0.816406
O O15 0.809348 0.864065 0.951520
#
# Coordination Sequence:
#
# PCOD9371749 Si02
#       7
#    16  16  16  16  16  16  16
#     4  11  23  45  71 108 146 192 249 307 376 433
#     4  10  22  46  70 105 143 190 248 315 362 444
#     4  11  27  47  72 104 152 196 248 320 374 450
#     4  11  24  42  75 107 150 189 250 305 373 453
#     4  12  25  47  71 107 146 204 244 308 386 446
#     4  10  24  42  76 102 147 195 251 301 380 448
#     4  11  23  45  72 108 142 202 248 306 372 458
#
# _framework density 22.789363999999999
#
# number of rings (size 3 to 8) (size 9 to 14) (size 15 to 20)
#    0.000    1.143    2.857    2.571    4.000    1.714 
#    2.571    2.857    0.000    0.000    0.000    0.000 
#    0.000    0.000    0.000    0.000    0.000    0.000 
#
# Total GULP energy -156246.353450 kJ/mol
# GULP energy per Si atom -5580.226909 kJ/mol
# Density = 2.273749 g / cm^3
# Si number density = 22.789364 Si / 1000 Ang^3
#
#
#
# Elastic Constant Matrix: (Units=GPa)
#
#
# Indices 1 2 3 4 5 6 
#
# 1 109.9990 21.3710 35.8378 0.0000 0.0000 0.0000
# 2 21.3710 71.3919 16.2648 0.0000 0.0000 0.0000
# 3 35.8378 16.2648 81.6427 0.0000 0.0000 0.0000
# 4 0.0000 0.0000 0.0000 18.8494 0.0000 0.0000
# 5 0.0000 0.0000 0.0000 0.0000 44.5909 0.0000
# 6 0.0000 0.0000 0.0000 0.0000 0.0000 -35.9992
#
#
#
# Elastic Compliance Matrix: (Units=1/GPa)
#
#
# Indices 1 2 3 4 5 6 
#
# 1 0.010953 -0.002287 -0.004352 0.000000 0.000000 0.000000
# 2 -0.002287 0.015151 -0.002014 0.000000 0.000000 0.000000
# 3 -0.004352 -0.002014 0.014560 0.000000 0.000000 0.000000
# 4 0.000000 0.000000 0.000000 0.053052 0.000000 0.000000
# 5 0.000000 0.000000 0.000000 0.000000 0.022426 0.000000
# 6 0.000000 0.000000 0.000000 0.000000 0.000000 -0.027778
#
#
# Mechanical properties :
#
#
# Convention : Reuss Voigt Hill
#
# Bulk Modulus (GPa) = 42.81468 45.55343 44.18406
# Shear Modulus (GPa) = 44.06920 18.12554 31.09737
#
# Velocity S-wave (km/s) = 4.40223 2.82326 3.69800
# Velocity P-wave (km/s) = 6.68337 5.53715 6.13707
#
# Compressibility (1/GPa) = 0.02335647
#
# Stress axis : x y z
#
# Youngs Moduli (GPa) = 91.29588 66.00315 68.67984
#
# Poissons Ratio (x) = 0.15097 0.29892
# Poissons Ratio (y) = 0.20882 0.13834
# Poissons Ratio (z) = 0.39736 0.13295
#
# Static dielectric constant tensor:
#      x y z
#    x 1.908220 0.000000 0.000000 
#    y 0.000000 1.864030 0.000000 
#    z 0.000000 0.000000 1.889750 
# 
# From -- ./inp_files/9771.got.cif
#   From: 2010.05.17/outbox.cif.g08.bks.cpg/sg43_5_cif.got.tgz:9771.got - 2010.06.03 19:21:55.
