data_PCOD9371938
_publ_section_title
;
Structure prediction by ZEFSAII (Michael W. Deem and Ramdas Pophale) SiO2 
 PCOD9371938
Probable space group: F D D 2
;
_chemical_formula_sum "Si O2"
_cell_formula_units_Z 112
_cell_length_a 21.872382
_cell_length_b 13.968475
_cell_length_c 15.010880
_cell_angle_alpha 90.000000
_cell_angle_beta 90.000000
_cell_angle_gamma 90.000000
_cell_volume 4586.181417
_symmetry_space_group_name_H-M "F D D 2"
_symmetry_group_IT_number 43
_symmetry_cell_setting 'orthorhombic'
loop_
_space_group_symop_operation_xyz
x,y,z
-x,-y,z
1/4-x,1/4+y,1/4+z
1/4+x,1/4-y,1/4+z
x,1/2+y,1/2+z
-x,1/2-y,1/2+z
1/4-x,3/4+y,3/4+z
1/4+x,3/4-y,3/4+z
1/2+x,y,1/2+z
1/2-x,-y,1/2+z
3/4-x,1/4+y,3/4+z
3/4+x,1/4-y,3/4+z
1/2+x,1/2+y,z
1/2-x,1/2-y,z
3/4-x,3/4+y,1/4+z
3/4+x,3/4-y,1/4+z
loop_
_atom_site_type_symbol
_atom_site_label
_atom_site_fract_x
_atom_site_fract_y
_atom_site_fract_z
Si Si1 0.485044 0.627085 0.325510
Si Si2 0.601381 0.653236 0.956369
Si Si3 0.484210 0.680736 0.070553
Si Si4 0.580533 0.598524 0.755427
Si Si5 0.000000 0.500000 0.678840
Si Si6 0.596779 0.648556 0.566934
Si Si7 0.750000 0.250000 0.243956
Si Si8 0.965159 0.201532 0.741042
O O1 0.528916 0.569152 0.255975
O O2 0.415740 0.624214 0.288448
O O3 0.482767 0.583007 0.423050
O O4 0.510970 0.732163 0.320144
O O5 0.600618 0.636749 0.850957
O O6 0.635545 0.750407 0.983848
O O7 0.644315 0.570337 0.995490
O O8 0.534668 0.655516 0.997609
O O9 0.467553 0.578506 0.115915
O O10 0.432357 0.751984 0.033350
O O11 0.517676 0.745125 0.148026
O O12 0.600110 0.665239 0.673227
O O13 0.507056 0.606981 0.748652
O O14 0.552079 0.556974 0.549107
#
# Coordination Sequence:
#
# PCOD9371938 Si02
#       8
#    16  16  16  16   8  16   8  16
#     4  10  24  47  75 106 146 197 253 314 384 459
#     4  12  24  47  71 107 148 204 253 320 384 470
#     4  10  24  46  69 104 143 196 242 307 384 451
#     4  11  26  41  72 105 152 196 256 316 389 452
#     4   9  22  50  67  94 148 182 249 300 374 453
#     4  11  27  43  74 108 151 193 250 323 371 460
#     4  11  28  44  73 120 136 200 257 306 400 455
#     4  10  23  45  71 106 149 193 250 323 379 452
#
# _framework density 24.421188000000001
#
# number of rings (size 3 to 8) (size 9 to 14) (size 15 to 20)
#    0.000    1.429    1.429    1.286   16.000    1.143 
#    7.714    0.000    0.000    0.000    0.000    0.000 
#    0.000    0.000    0.000    0.000    0.000    0.000 
#
# Total GULP energy -156228.274233 kJ/mol
# GULP energy per Si atom -5579.581223 kJ/mol
# Density = 2.436560 g / cm^3
# Si number density = 24.421188 Si / 1000 Ang^3
#
#
#
# Elastic Constant Matrix: (Units=GPa)
#
#
# Indices 1 2 3 4 5 6 
#
# 1 116.3097 46.0312 60.2411 0.0000 0.0000 0.0000
# 2 46.0312 108.3037 57.4458 0.0000 0.0000 0.0000
# 3 60.2411 57.4458 137.5151 0.0000 0.0000 0.0000
# 4 0.0000 0.0000 0.0000 35.3321 0.0000 0.0000
# 5 0.0000 0.0000 0.0000 0.0000 28.0014 0.0000
# 6 0.0000 0.0000 0.0000 0.0000 0.0000 33.3676
#
#
#
# Elastic Compliance Matrix: (Units=1/GPa)
#
#
# Indices 1 2 3 4 5 6 
#
# 1 0.011799 -0.002920 -0.003949 0.000000 0.000000 0.000000
# 2 -0.002920 0.012584 -0.003978 0.000000 0.000000 0.000000
# 3 -0.003949 -0.003978 0.010663 0.000000 0.000000 0.000000
# 4 0.000000 0.000000 0.000000 0.028303 0.000000 0.000000
# 5 0.000000 0.000000 0.000000 0.000000 0.035712 0.000000
# 6 0.000000 0.000000 0.000000 0.000000 0.000000 0.029969
#
#
# Mechanical properties :
#
#
# Convention : Reuss Voigt Hill
#
# Bulk Modulus (GPa) = 74.88945 76.61830 75.75388
# Shear Modulus (GPa) = 32.22163 32.56757 32.39460
#
# Velocity S-wave (km/s) = 3.63631 3.65578 3.64606
# Velocity P-wave (km/s) = 6.95433 7.01865 6.98656
#
# Compressibility (1/GPa) = 0.01335302
#
# Stress axis : x y z
#
# Youngs Moduli (GPa) = 84.75554 79.46425 93.77856
#
# Poissons Ratio (x) = 0.23205 0.37031
# Poissons Ratio (y) = 0.24750 0.37303
# Poissons Ratio (z) = 0.33468 0.31609
#
# Static dielectric constant tensor:
#      x y z
#    x 1.985690 0.000000 0.000000 
#    y 0.000000 2.076840 0.000000 
#    z 0.000000 0.000000 1.949220 
# 
# From -- ./inp_files/11298.got.cif
#   From: 2010.05.17/outbox.cif.g08.bks.cpg/sg43_6_cif.got.tgz:11298.got - 2010.06.03 19:21:55.
