data_PCOD9371181
_publ_section_title
;
Structure prediction by ZEFSAII (Michael W. Deem and Ramdas Pophale) SiO2 
 PCOD9371181
Probable space group: F D D 2
;
_chemical_formula_sum "Si O2"
_cell_formula_units_Z 96
_cell_length_a 22.228296
_cell_length_b 16.454343
_cell_length_c 12.190007
_cell_angle_alpha 90.000000
_cell_angle_beta 90.000000
_cell_angle_gamma 90.000000
_cell_volume 4458.519522
_symmetry_space_group_name_H-M "F D D 2"
_symmetry_group_IT_number 43
_symmetry_cell_setting 'orthorhombic'
loop_
_space_group_symop_operation_xyz
x,y,z
-x,-y,z
1/4-x,1/4+y,1/4+z
1/4+x,1/4-y,1/4+z
x,1/2+y,1/2+z
-x,1/2-y,1/2+z
1/4-x,3/4+y,3/4+z
1/4+x,3/4-y,3/4+z
1/2+x,y,1/2+z
1/2-x,-y,1/2+z
3/4-x,1/4+y,3/4+z
3/4+x,1/4-y,3/4+z
1/2+x,1/2+y,z
1/2-x,1/2-y,z
3/4-x,3/4+y,1/4+z
3/4+x,3/4-y,1/4+z
loop_
_atom_site_type_symbol
_atom_site_label
_atom_site_fract_x
_atom_site_fract_y
_atom_site_fract_z
Si Si1 0.205149 0.595729 0.389020
Si Si2 0.330470 0.023006 0.817463
Si Si3 0.319346 0.162074 0.145052
Si Si4 0.188222 0.615414 0.993940
Si Si5 0.750000 0.250000 0.454950
Si Si6 0.511276 0.765261 0.367565
Si Si7 0.500000 0.500000 0.087133
O O1 0.265148 0.565687 0.329962
O O2 0.137723 0.574360 0.361229
O O3 0.207418 0.693003 0.385976
O O4 0.213595 0.557627 0.508990
O O5 0.384955 0.086065 0.805460
O O6 0.317286 0.981606 0.700689
O O7 0.336591 0.957122 0.914609
O O8 0.299217 0.212206 0.252813
O O9 0.294071 0.070678 0.162027
O O10 0.285486 0.193015 0.037499
O O11 0.222485 0.679543 0.914450
O O12 0.233989 0.571052 0.078206
#
# Coordination Sequence:
#
# PCOD9371181 Si02
#       7
#    16  16  16  16   8  16   8
#     4  10  23  39  66  93 130 174 216 276 336 397
#     4  11  25  46  65 102 138 180 225 284 344 420
#     4  10  21  40  69  91 130 170 223 282 330 396
#     4  11  26  43  71  99 141 179 229 280 352 408
#     4   9  22  38  59 100 116 164 227 260 331 390
#     4  10  23  44  62  99 133 173 227 277 340 405
#     4  11  22  44  69 104 124 180 231 284 339 402
#
# _framework density 21.531811000000001
#
# number of rings (size 3 to 8) (size 9 to 14) (size 15 to 20)
#    0.000    1.667    1.667    1.000    7.000    2.667 
#    0.000    0.000    0.000    0.000    0.000    0.000 
#    0.000    0.000    0.000    0.000    0.000    0.000 
#
# Total GULP energy -133844.149055 kJ/mol
# GULP energy per Si atom -5576.839544 kJ/mol
# Density = 2.148280 g / cm^3
# Si number density = 21.531811 Si / 1000 Ang^3
#
#
#
# Elastic Constant Matrix: (Units=GPa)
#
#
# Indices 1 2 3 4 5 6 
#
# 1 66.4454 17.0635 -13.5694 0.0000 0.0000 0.0000
# 2 17.0635 87.2633 4.4923 0.0000 0.0000 0.0000
# 3 -13.5694 4.4923 37.0025 0.0000 0.0000 0.0000
# 4 0.0000 0.0000 0.0000 -70.4413 0.0000 0.0000
# 5 0.0000 0.0000 0.0000 0.0000 -4.3364 0.0000
# 6 0.0000 0.0000 0.0000 0.0000 0.0000 28.8701
#
#
#
# Elastic Compliance Matrix: (Units=1/GPa)
#
#
# Indices 1 2 3 4 5 6 
#
# 1 0.017412 -0.003757 0.006841 0.000000 0.000000 0.000000
# 2 -0.003757 0.012342 -0.002876 0.000000 0.000000 0.000000
# 3 0.006841 -0.002876 0.029883 0.000000 0.000000 0.000000
# 4 0.000000 0.000000 0.000000 -0.014196 0.000000 0.000000
# 5 0.000000 0.000000 0.000000 0.000000 -0.230604 0.000000
# 6 0.000000 0.000000 0.000000 0.000000 0.000000 0.034638
#
#
# Mechanical properties :
#
#
# Convention : Reuss Voigt Hill
#
# Bulk Modulus (GPa) = 16.65172 22.96490 19.80831
# Shear Modulus (GPa) = -38.19030 3.00013 -17.59509
#
# Velocity S-wave (km/s) = -4.21606 1.18168 -2.86171
# Velocity P-wave (km/s) = 3.99374 3.54268 1.30372
#
# Compressibility (1/GPa) = 0.06005384
#
# Stress axis : x y z
#
# Youngs Moduli (GPa) = 57.43209 81.02244 33.46363
#
# Poissons Ratio (x) = 0.30439 -0.22894
# Poissons Ratio (y) = 0.21577 0.09625
# Poissons Ratio (z) = -0.39291 0.23303
#
# Static dielectric constant tensor:
#      x y z
#    x 1.815490 0.000000 0.000000 
#    y 0.000000 2.291850 0.000000 
#    z 0.000000 0.000000 1.853030 
# 
# From -- ./inp_files/6709.got.cif
#   From: 2010.05.17/outbox.cif.g08.bks.cpg/sg43_4_cif.got.tgz:6709.got - 2010.06.03 19:21:55.
