data_PCOD9371340
_publ_section_title
;
Structure prediction by ZEFSAII (Michael W. Deem and Ramdas Pophale) SiO2 
 PCOD9371340
Probable space group: F D D 2
;
_chemical_formula_sum "Si O2"
_cell_formula_units_Z 64
_cell_length_a 12.056868
_cell_length_b 23.267944
_cell_length_c 8.001875
_cell_angle_alpha 90.000000
_cell_angle_beta 90.000000
_cell_angle_gamma 90.000000
_cell_volume 2244.834245
_symmetry_space_group_name_H-M "F D D 2"
_symmetry_group_IT_number 43
_symmetry_cell_setting 'orthorhombic'
loop_
_space_group_symop_operation_xyz
x,y,z
-x,-y,z
1/4-x,1/4+y,1/4+z
1/4+x,1/4-y,1/4+z
x,1/2+y,1/2+z
-x,1/2-y,1/2+z
1/4-x,3/4+y,3/4+z
1/4+x,3/4-y,3/4+z
1/2+x,y,1/2+z
1/2-x,-y,1/2+z
3/4-x,1/4+y,3/4+z
3/4+x,1/4-y,3/4+z
1/2+x,1/2+y,z
1/2-x,1/2-y,z
3/4-x,3/4+y,1/4+z
3/4+x,3/4-y,1/4+z
loop_
_atom_site_type_symbol
_atom_site_label
_atom_site_fract_x
_atom_site_fract_y
_atom_site_fract_z
Si Si1 0.123503 0.171377 0.215740
Si Si2 0.781067 0.172029 0.214269
Si Si3 0.912101 0.765466 0.870880
Si Si4 0.642520 0.798096 0.370813
O O1 0.058875 0.139451 0.375897
O O2 0.238180 0.195848 0.286583
O O3 0.157055 0.112010 0.116217
O O4 0.085219 0.207714 0.054644
O O5 0.847409 0.204214 0.364736
O O6 0.654995 0.187720 0.258327
O O7 0.831718 0.210591 0.064745
O O8 0.041410 0.756912 0.822536
#
# Coordination Sequence:
#
# PCOD9371340 Si02
#       4
#    16  16  16  16
#     4  10  21  46  71 106 150 205 255 322 399 463
#     4   9  24  45  71 116 150 197 268 326 383 480
#     4  11  22  46  76 109 151 210 258 326 402 469
#     4  10  21  45  70 105 149 200 256 326 391 466
#
# _framework density 28.509900999999999
#
# number of rings (size 3 to 8) (size 9 to 14) (size 15 to 20)
#    1.500    0.500    2.500    0.000    0.000    6.000 
#    0.000   20.000    0.000    0.000    0.000    0.000 
#    0.000    0.000    0.000    0.000    0.000    0.000 
#
# Total GULP energy -89118.006045 kJ/mol
# GULP energy per Si atom -5569.875378 kJ/mol
# Density = 2.844501 g / cm^3
# Si number density = 28.509901 Si / 1000 Ang^3
#
#
#
# Elastic Constant Matrix: (Units=GPa)
#
#
# Indices 1 2 3 4 5 6 
#
# 1 241.1278 11.9462 63.7014 0.0000 0.0000 0.0000
# 2 11.9462 121.3158 71.3973 0.0000 0.0000 0.0000
# 3 63.7014 71.3973 147.9040 0.0000 0.0000 0.0000
# 4 0.0000 0.0000 0.0000 -226.9638 0.0000 0.0000
# 5 0.0000 0.0000 0.0000 0.0000 44.7006 0.0000
# 6 0.0000 0.0000 0.0000 0.0000 0.0000 -535.5849
#
#
#
# Elastic Compliance Matrix: (Units=1/GPa)
#
#
# Indices 1 2 3 4 5 6 
#
# 1 0.004771 0.001033 -0.002553 0.000000 0.000000 0.000000
# 2 0.001033 0.011738 -0.006111 0.000000 0.000000 0.000000
# 3 -0.002553 -0.006111 0.010811 0.000000 0.000000 0.000000
# 4 0.000000 0.000000 0.000000 -0.004406 0.000000 0.000000
# 5 0.000000 0.000000 0.000000 0.000000 0.022371 0.000000
# 6 0.000000 0.000000 0.000000 0.000000 0.000000 -0.001867
#
#
# Mechanical properties :
#
#
# Convention : Reuss Voigt Hill
#
# Bulk Modulus (GPa) = 82.94411 89.38194 86.16303
# Shear Modulus (GPa) = 79.74701 -119.34944 -19.80122
#
# Velocity S-wave (km/s) = 5.29456 -6.47714 -2.63827
# Velocity P-wave (km/s) = 8.15676 4.95162 4.58335
#
# Compressibility (1/GPa) = 0.01205631
#
# Stress axis : x y z
#
# Youngs Moduli (GPa) = 209.62062 85.19572 92.50070
#
# Poissons Ratio (x) = -0.08800 0.23618
# Poissons Ratio (y) = -0.21651 0.56527
# Poissons Ratio (z) = 0.53521 0.52063
#
# Static dielectric constant tensor:
#      x y z
#    x 2.214160 0.000000 0.000000 
#    y 0.000000 6.348030 0.000000 
#    z 0.000000 0.000000 2.227510 
# 
# From -- ./inp_files/1967.got.cif
#   From: 2010.05.17/outbox.cif.g08.bks.cpg/sg43_1_cif.got.tgz:1967.got - 2010.06.03 19:21:55.
