data_PCOD9371352
_publ_section_title
;
Structure prediction by ZEFSAII (Michael W. Deem and Ramdas Pophale) SiO2 
 PCOD9371352
Probable space group: F D D 2
;
_chemical_formula_sum "Si O2"
_cell_formula_units_Z 96
_cell_length_a 9.214278
_cell_length_b 18.627802
_cell_length_c 25.250633
_cell_angle_alpha 90.000000
_cell_angle_beta 90.000000
_cell_angle_gamma 90.000000
_cell_volume 4334.062740
_symmetry_space_group_name_H-M "F D D 2"
_symmetry_group_IT_number 43
_symmetry_cell_setting 'orthorhombic'
loop_
_space_group_symop_operation_xyz
x,y,z
-x,-y,z
1/4-x,1/4+y,1/4+z
1/4+x,1/4-y,1/4+z
x,1/2+y,1/2+z
-x,1/2-y,1/2+z
1/4-x,3/4+y,3/4+z
1/4+x,3/4-y,3/4+z
1/2+x,y,1/2+z
1/2-x,-y,1/2+z
3/4-x,1/4+y,3/4+z
3/4+x,1/4-y,3/4+z
1/2+x,1/2+y,z
1/2-x,1/2-y,z
3/4-x,3/4+y,1/4+z
3/4+x,3/4-y,1/4+z
loop_
_atom_site_type_symbol
_atom_site_label
_atom_site_fract_x
_atom_site_fract_y
_atom_site_fract_z
Si Si1 0.658896 0.178001 0.732060
Si Si2 0.000000 0.500000 0.874868
Si Si3 0.249138 0.376787 0.123776
Si Si4 0.231085 0.445530 0.305010
Si Si5 0.834734 0.481919 0.056208
Si Si6 0.321989 0.125393 0.896584
Si Si7 0.000000 0.000000 0.728467
O O1 0.750000 0.250000 0.720500
O O2 0.675537 0.124738 0.681751
O O3 0.723877 0.130385 0.779255
O O4 0.507408 0.207043 0.755638
O O5 0.868547 0.476391 0.836130
O O6 0.932364 0.562837 0.910246
O O7 0.350101 0.322871 0.093217
O O8 0.233459 0.451144 0.090140
O O9 0.085161 0.347937 0.128037
O O10 0.149653 0.492459 0.260763
O O11 0.851594 0.418170 0.098890
O O12 0.000000 0.500000 0.041702
O O13 0.276344 0.180906 0.941878
#
# Coordination Sequence:
#
# PCOD9371352 Si02
#       7
#    16   8  16  16  16  16   8
#     4  12  24  44  75 109 141 193 247 298 373 443
#     4  12  28  46  68 113 152 183 242 328 360 426
#     4  11  24  46  74 105 146 194 248 302 369 452
#     4  12  26  48  72 105 150 190 244 307 366 446
#     4  10  21  46  77 102 146 194 244 310 367 446
#     4  11  22  46  76 107 146 189 248 302 372 450
#     4  12  24  48  80 103 140 211 244 294 388 456
#
# _framework density 22.150119
#
# number of rings (size 3 to 8) (size 9 to 14) (size 15 to 20)
#    0.000    0.667    7.500    1.000    3.500    0.000 
#    4.500    0.000    0.000    0.000    0.000    0.000 
#    0.000    0.000    0.000    0.000    0.000    0.000 
#
# Total GULP energy -134082.849597 kJ/mol
# GULP energy per Si atom -5586.785400 kJ/mol
# Density = 2.209970 g / cm^3
# Si number density = 22.150119 Si / 1000 Ang^3
#
#
#
# Elastic Constant Matrix: (Units=GPa)
#
#
# Indices 1 2 3 4 5 6 
#
# 1 145.7865 73.7355 58.5077 0.0000 0.0000 0.0000
# 2 73.7355 92.0103 31.0055 0.0000 0.0000 0.0000
# 3 58.5077 31.0055 78.0490 0.0000 0.0000 0.0000
# 4 0.0000 0.0000 0.0000 -10.5772 0.0000 0.0000
# 5 0.0000 0.0000 0.0000 0.0000 21.1640 0.0000
# 6 0.0000 0.0000 0.0000 0.0000 0.0000 51.3701
#
#
#
# Elastic Compliance Matrix: (Units=1/GPa)
#
#
# Indices 1 2 3 4 5 6 
#
# 1 0.014299 -0.009060 -0.007120 0.000000 0.000000 0.000000
# 2 -0.009060 0.018288 -0.000474 0.000000 0.000000 0.000000
# 3 -0.007120 -0.000474 0.018338 0.000000 0.000000 0.000000
# 4 0.000000 0.000000 0.000000 -0.094543 0.000000 0.000000
# 5 0.000000 0.000000 0.000000 0.000000 0.047250 0.000000
# 6 0.000000 0.000000 0.000000 0.000000 0.000000 0.019467
#
#
# Mechanical properties :
#
#
# Convention : Reuss Voigt Hill
#
# Bulk Modulus (GPa) = 56.75841 71.37148 64.06495
# Shear Modulus (GPa) = 80.28484 22.56451 51.42467
#
# Velocity S-wave (km/s) = 6.02698 3.19518 4.82357
# Velocity P-wave (km/s) = 8.60887 6.77524 7.74650
#
# Compressibility (1/GPa) = 0.01761853
#
# Stress axis : x y z
#
# Youngs Moduli (GPa) = 69.93553 54.67986 54.53184
#
# Poissons Ratio (x) = 0.49538 0.38826
# Poissons Ratio (y) = 0.63359 0.02584
# Poissons Ratio (z) = 0.49793 0.02591
#
# Static dielectric constant tensor:
#      x y z
#    x 2.430110 0.000000 0.000000 
#    y 0.000000 1.892520 0.000000 
#    z 0.000000 0.000000 1.949130 
# 
# From -- ./inp_files/24245.got.cif
#   From: 2010.05.17/outbox.cif.g08.bks.cpg/sg43_13_cif.got.tgz:24245.got - 2010.06.03 19:21:55.
