data_PCOD9371630
_publ_section_title
;
Structure prediction by ZEFSAII (Michael W. Deem and Ramdas Pophale) SiO2 
 PCOD9371630
Probable space group: F D D 2
;
_chemical_formula_sum "Si O2"
_cell_formula_units_Z 96
_cell_length_a 11.640812
_cell_length_b 15.688479
_cell_length_c 20.493448
_cell_angle_alpha 90.000000
_cell_angle_beta 90.000000
_cell_angle_gamma 90.000000
_cell_volume 3742.649440
_symmetry_space_group_name_H-M "F D D 2"
_symmetry_group_IT_number 43
_symmetry_cell_setting 'orthorhombic'
loop_
_space_group_symop_operation_xyz
x,y,z
-x,-y,z
1/4-x,1/4+y,1/4+z
1/4+x,1/4-y,1/4+z
x,1/2+y,1/2+z
-x,1/2-y,1/2+z
1/4-x,3/4+y,3/4+z
1/4+x,3/4-y,3/4+z
1/2+x,y,1/2+z
1/2-x,-y,1/2+z
3/4-x,1/4+y,3/4+z
3/4+x,1/4-y,3/4+z
1/2+x,1/2+y,z
1/2-x,1/2-y,z
3/4-x,3/4+y,1/4+z
3/4+x,3/4-y,1/4+z
loop_
_atom_site_type_symbol
_atom_site_label
_atom_site_fract_x
_atom_site_fract_y
_atom_site_fract_z
Si Si1 0.624384 0.709740 0.967420
Si Si2 0.250000 0.750000 0.921664
Si Si3 0.000000 0.000000 0.870950
Si Si4 0.588243 0.931140 0.889518
Si Si5 0.056399 0.765085 0.715481
Si Si6 0.448250 0.833950 0.006000
Si Si7 0.286541 0.437056 0.097304
O O1 0.750000 0.750000 0.960752
O O2 0.554325 0.717586 0.900612
O O3 0.640056 0.609595 0.976705
O O4 0.538143 0.755121 0.018275
O O5 0.335754 0.694833 0.876788
O O6 0.335002 0.804741 0.966891
O O7 0.991571 0.910244 0.832629
O O8 0.899479 0.026693 0.920412
O O9 0.655041 0.886567 0.827959
O O10 0.500000 0.000000 0.860545
O O11 0.689963 0.979154 0.926863
O O12 0.521144 0.887364 0.951424
O O13 0.034146 0.743010 0.789677
#
# Coordination Sequence:
#
# PCOD9371630 Si02
#       7
#    16   8   8  16  16  16  16
#     4  10  22  43  68 100 142 193 239 311 379 458
#     4  10  23  50  74 100 145 206 244 318 402 465
#     4  10  25  44  66 108 145 190 252 322 382 479
#     4  12  29  47  77 111 154 202 259 324 395 474
#     4  11  25  42  70 107 141 194 251 314 390 465
#     4  11  26  50  74 107 152 200 257 318 393 471
#     4  10  24  42  71 103 145 192 252 313 388 473
#
# _framework density 25.650278
#
# number of rings (size 3 to 8) (size 9 to 14) (size 15 to 20)
#    0.000    1.333    2.500    0.500   10.500    3.333 
#    3.000    0.000    0.000    0.000    0.000    0.000 
#    0.000    0.000    0.000    0.000    0.000    0.000 
#
# Total GULP energy -133968.671081 kJ/mol
# GULP energy per Si atom -5582.027962 kJ/mol
# Density = 2.559190 g / cm^3
# Si number density = 25.650278 Si / 1000 Ang^3
#
#
#
# Elastic Constant Matrix: (Units=GPa)
#
#
# Indices 1 2 3 4 5 6 
#
# 1 174.3843 11.7066 43.4396 0.0000 0.0000 0.0000
# 2 11.7066 59.4971 1.1555 0.0000 0.0000 0.0000
# 3 43.4396 1.1555 111.0850 0.0000 0.0000 0.0000
# 4 0.0000 0.0000 0.0000 7.8586 0.0000 0.0000
# 5 0.0000 0.0000 0.0000 0.0000 42.5683 0.0000
# 6 0.0000 0.0000 0.0000 0.0000 0.0000 46.8064
#
#
#
# Elastic Compliance Matrix: (Units=1/GPa)
#
#
# Indices 1 2 3 4 5 6 
#
# 1 0.006440 -0.001219 -0.002506 0.000000 0.000000 0.000000
# 2 -0.001219 0.017042 0.000299 0.000000 0.000000 0.000000
# 3 -0.002506 0.000299 0.009979 0.000000 0.000000 0.000000
# 4 0.000000 0.000000 0.000000 0.127249 0.000000 0.000000
# 5 0.000000 0.000000 0.000000 0.000000 0.023492 0.000000
# 6 0.000000 0.000000 0.000000 0.000000 0.000000 0.021365
#
#
# Mechanical properties :
#
#
# Convention : Reuss Voigt Hill
#
# Bulk Modulus (GPa) = 37.57909 50.84110 44.21009
# Shear Modulus (GPa) = 22.59515 38.69096 30.64305
#
# Velocity S-wave (km/s) = 2.97120 3.88803 3.46012
# Velocity P-wave (km/s) = 5.14326 6.32611 5.76510
#
# Compressibility (1/GPa) = 0.02661055
#
# Stress axis : x y z
#
# Youngs Moduli (GPa) = 155.26783 58.68027 100.21128
#
# Poissons Ratio (x) = 0.07151 0.25112
# Poissons Ratio (y) = 0.18920 -0.02999
# Poissons Ratio (z) = 0.38908 -0.01756
#
# Static dielectric constant tensor:
#      x y z
#    x 1.930920 0.000000 0.000000 
#    y 0.000000 2.181080 0.000000 
#    z 0.000000 0.000000 2.130720 
# 
# From -- ./inp_files/17155.got.cif
#   From: 2010.05.17/outbox.cif.g08.bks.cpg/sg43_9_cif.got.tgz:17155.got - 2010.06.03 19:21:55.
