data_PCOD9371193
_publ_section_title
;
Structure prediction by ZEFSAII (Michael W. Deem and Ramdas Pophale) SiO2 
 PCOD9371193
Probable space group: F D D 2
;
_chemical_formula_sum "Si O2"
_cell_formula_units_Z 72
_cell_length_a 17.253347
_cell_length_b 8.100131
_cell_length_c 26.798824
_cell_angle_alpha 90.000000
_cell_angle_beta 90.000000
_cell_angle_gamma 90.000000
_cell_volume 3745.252789
_symmetry_space_group_name_H-M "F D D 2"
_symmetry_group_IT_number 43
_symmetry_cell_setting 'orthorhombic'
loop_
_space_group_symop_operation_xyz
x,y,z
-x,-y,z
1/4-x,1/4+y,1/4+z
1/4+x,1/4-y,1/4+z
x,1/2+y,1/2+z
-x,1/2-y,1/2+z
1/4-x,3/4+y,3/4+z
1/4+x,3/4-y,3/4+z
1/2+x,y,1/2+z
1/2-x,-y,1/2+z
3/4-x,1/4+y,3/4+z
3/4+x,1/4-y,3/4+z
1/2+x,1/2+y,z
1/2-x,1/2-y,z
3/4-x,3/4+y,1/4+z
3/4+x,3/4-y,1/4+z
loop_
_atom_site_type_symbol
_atom_site_label
_atom_site_fract_x
_atom_site_fract_y
_atom_site_fract_z
Si Si1 0.659444 0.441669 0.489820
Si Si2 0.250000 0.250000 0.700287
Si Si3 0.000000 0.000000 0.280743
Si Si4 0.704188 0.985759 0.617685
Si Si5 0.000000 0.000000 0.653408
Si Si6 0.358658 0.673074 0.599502
O O1 0.567459 0.422911 0.482478
O O2 0.693309 0.626038 0.500834
O O3 0.703734 0.368516 0.442015
O O4 0.667493 0.342205 0.541771
O O5 0.300516 0.132033 0.664756
O O6 0.046575 0.122009 0.318314
O O7 0.645340 0.136192 0.614728
O O8 0.789044 0.068650 0.624249
O O9 0.061707 0.907271 0.617995
#
# Coordination Sequence:
#
# PCOD9371193 Si02
#       6
#    16   8   8  16   8  16
#     4  11  23  39  62  93 126 165 210 270 320 388
#     4  11  21  38  60  90 124 158 204 261 327 374
#     4   9  20  38  65  90 122 165 214 266 323 386
#     4   9  19  40  62  82 124 168 201 260 326 381
#     4  12  23  40  69  96 124 173 216 267 326 384
#     4  10  21  41  63  89 126 166 216 264 318 387
#
# _framework density 19.224335
#
# number of rings (size 3 to 8) (size 9 to 14) (size 15 to 20)
#    0.000    1.778    2.222    3.333    3.111    0.000 
#    0.000    0.000    0.000    0.000    0.000    0.000 
#    0.000    0.000    0.000    0.000    0.000    0.000 
#
# Total GULP energy -100247.072900 kJ/mol
# GULP energy per Si atom -5569.281828 kJ/mol
# Density = 1.918058 g / cm^3
# Si number density = 19.224335 Si / 1000 Ang^3
#
#
#
# Elastic Constant Matrix: (Units=GPa)
#
#
# Indices 1 2 3 4 5 6 
#
# 1 95.9168 32.4840 21.7894 0.0000 0.0000 0.0000
# 2 32.4840 107.7227 24.7655 0.0000 0.0000 0.0000
# 3 21.7894 24.7655 58.4985 0.0000 0.0000 0.0000
# 4 0.0000 0.0000 0.0000 2.8848 0.0000 0.0000
# 5 0.0000 0.0000 0.0000 0.0000 -24.6528 0.0000
# 6 0.0000 0.0000 0.0000 0.0000 0.0000 30.9876
#
#
#
# Elastic Compliance Matrix: (Units=1/GPa)
#
#
# Indices 1 2 3 4 5 6 
#
# 1 0.012160 -0.002909 -0.003298 0.000000 0.000000 0.000000
# 2 -0.002909 0.010980 -0.003565 0.000000 0.000000 0.000000
# 3 -0.003298 -0.003565 0.019832 0.000000 0.000000 0.000000
# 4 0.000000 0.000000 0.000000 0.346639 0.000000 0.000000
# 5 0.000000 0.000000 0.000000 0.000000 -0.040563 0.000000
# 6 0.000000 0.000000 0.000000 0.000000 0.000000 0.032271
#
#
# Mechanical properties :
#
#
# Convention : Reuss Voigt Hill
#
# Bulk Modulus (GPa) = 42.68245 46.69063 44.68654
# Shear Modulus (GPa) = 12.23479 14.05052 13.14265
#
# Velocity S-wave (km/s) = 2.52548 2.70640 2.61750
# Velocity P-wave (km/s) = 5.54568 5.84004 5.69476
#
# Compressibility (1/GPa) = 0.02342884
#
# Stress axis : x y z
#
# Youngs Moduli (GPa) = 82.23704 91.07649 50.42335
#
# Poissons Ratio (x) = 0.26491 0.16629
# Poissons Ratio (y) = 0.23920 0.17975
# Poissons Ratio (z) = 0.27121 0.32468
#
# Static dielectric constant tensor:
#      x y z
#    x 1.667010 0.000000 0.000000 
#    y 0.000000 1.743630 0.000000 
#    z 0.000000 0.000000 1.660240 
# 
# From -- ./inp_files/16182.got.cif
#   From: 2010.05.17/outbox.cif.g08.bks.cpg/sg43_9_cif.got.tgz:16182.got - 2010.06.03 19:21:55.
