data_PCOD9371816
_publ_section_title
;
Structure prediction by ZEFSAII (Michael W. Deem and Ramdas Pophale) SiO2 
 PCOD9371816
Probable space group: F D D 2
;
_chemical_formula_sum "Si O2"
_cell_formula_units_Z 112
_cell_length_a 21.560004
_cell_length_b 10.310492
_cell_length_c 23.297686
_cell_angle_alpha 90.000000
_cell_angle_beta 90.000000
_cell_angle_gamma 90.000000
_cell_volume 5178.941607
_symmetry_space_group_name_H-M "F D D 2"
_symmetry_group_IT_number 43
_symmetry_cell_setting 'orthorhombic'
loop_
_space_group_symop_operation_xyz
x,y,z
-x,-y,z
1/4-x,1/4+y,1/4+z
1/4+x,1/4-y,1/4+z
x,1/2+y,1/2+z
-x,1/2-y,1/2+z
1/4-x,3/4+y,3/4+z
1/4+x,3/4-y,3/4+z
1/2+x,y,1/2+z
1/2-x,-y,1/2+z
3/4-x,1/4+y,3/4+z
3/4+x,1/4-y,3/4+z
1/2+x,1/2+y,z
1/2-x,1/2-y,z
3/4-x,3/4+y,1/4+z
3/4+x,3/4-y,1/4+z
loop_
_atom_site_type_symbol
_atom_site_label
_atom_site_fract_x
_atom_site_fract_y
_atom_site_fract_z
Si Si1 0.554050 0.684515 0.960550
Si Si2 0.061398 0.673009 0.942188
Si Si3 0.161293 0.815686 0.515567
Si Si4 0.572035 0.037138 0.061394
Si Si5 0.020439 0.644707 0.592473
Si Si6 0.159785 0.697216 0.631139
Si Si7 0.412020 0.788627 0.157647
O O1 0.513829 0.809671 0.939267
O O2 0.561211 0.563174 0.918612
O O3 0.624011 0.719317 0.975222
O O4 0.525101 0.650908 0.023149
O O5 0.077757 0.812009 0.914145
O O6 0.104709 0.562034 0.913609
O O7 0.074823 0.639924 0.008906
O O8 0.186116 0.726990 0.567112
O O9 0.191127 0.912425 0.468464
O O10 0.109471 0.909962 0.543179
O O11 0.605750 0.091468 0.117250
O O12 0.500000 0.000000 0.070772
O O13 0.966803 0.729719 0.619792
O O14 0.000000 0.500000 0.608139
O O15 0.085813 0.688384 0.619544
#
# Coordination Sequence:
#
# PCOD9371816 Si02
#       7
#    16  16  16  16  16  16  16
#     4  11  22  42  71  99 134 185 234 293 355 434
#     4  11  22  39  67 101 134 175 237 296 347 435
#     4  10  23  40  62  95 139 176 230 289 357 427
#     4  11  20  41  65  95 127 180 241 285 349 427
#     4  11  21  42  67 100 134 180 239 284 351 435
#     4  11  23  40  66 102 138 179 234 299 361 419
#     4  11  23  39  70  98 137 186 233 294 353 423
#
# _framework density 21.62604
#
# number of rings (size 3 to 8) (size 9 to 14) (size 15 to 20)
#    0.000    1.143    4.286    3.000    0.000    0.000 
#    0.000    8.571    0.000    0.000    0.000    0.000 
#    0.000    0.000    0.000    0.000    0.000    0.000 
#
# Total GULP energy -155929.607148 kJ/mol
# GULP energy per Si atom -5568.914541 kJ/mol
# Density = 2.157682 g / cm^3
# Si number density = 21.626040 Si / 1000 Ang^3
#
#
#
# Elastic Constant Matrix: (Units=GPa)
#
#
# Indices 1 2 3 4 5 6 
#
# 1 78.7357 10.4983 36.6336 0.0000 0.0000 0.0000
# 2 10.4983 88.5356 66.4667 0.0000 0.0000 0.0000
# 3 36.6336 66.4667 143.8139 0.0000 0.0000 0.0000
# 4 0.0000 0.0000 0.0000 26.7574 0.0000 0.0000
# 5 0.0000 0.0000 0.0000 0.0000 27.6692 0.0000
# 6 0.0000 0.0000 0.0000 0.0000 0.0000 40.0178
#
#
#
# Elastic Compliance Matrix: (Units=1/GPa)
#
#
# Indices 1 2 3 4 5 6 
#
# 1 0.014559 0.001620 -0.004457 0.000000 0.000000 0.000000
# 2 0.001620 0.017476 -0.008490 0.000000 0.000000 0.000000
# 3 -0.004457 -0.008490 0.012012 0.000000 0.000000 0.000000
# 4 0.000000 0.000000 0.000000 0.037373 0.000000 0.000000
# 5 0.000000 0.000000 0.000000 0.000000 0.036141 0.000000
# 6 0.000000 0.000000 0.000000 0.000000 0.000000 0.024989
#
#
# Mechanical properties :
#
#
# Convention : Reuss Voigt Hill
#
# Bulk Modulus (GPa) = 46.74353 59.80915 53.27634
# Shear Modulus (GPa) = 29.01319 32.05464 30.53391
#
# Velocity S-wave (km/s) = 3.66674 3.85414 3.76161
# Velocity P-wave (km/s) = 6.29190 6.89362 6.59962
#
# Compressibility (1/GPa) = 0.02139333
#
# Stress axis : x y z
#
# Youngs Moduli (GPa) = 68.68838 57.22031 83.24689
#
# Poissons Ratio (x) = -0.09268 0.37104
# Poissons Ratio (y) = -0.11126 0.70674
# Poissons Ratio (z) = 0.30615 0.48578
#
# Static dielectric constant tensor:
#      x y z
#    x 1.880930 0.000000 0.000000 
#    y 0.000000 1.972000 0.000000 
#    z 0.000000 0.000000 1.807460 
# 
# From -- ./inp_files/22404.got.cif
#   From: 2010.05.17/outbox.cif.g08.bks.cpg/sg43_12_cif.got.tgz:22404.got - 2010.06.03 19:21:55.
