data_PCOD9371450
_publ_section_title
;
Structure prediction by ZEFSAII (Michael W. Deem and Ramdas Pophale) SiO2 
 PCOD9371450
Probable space group: F D D 2
;
_chemical_formula_sum "Si O2"
_cell_formula_units_Z 104
_cell_length_a 17.536635
_cell_length_b 10.338789
_cell_length_c 25.941374
_cell_angle_alpha 90.000000
_cell_angle_beta 90.000000
_cell_angle_gamma 90.000000
_cell_volume 4703.367457
_symmetry_space_group_name_H-M "F D D 2"
_symmetry_group_IT_number 43
_symmetry_cell_setting 'orthorhombic'
loop_
_space_group_symop_operation_xyz
x,y,z
-x,-y,z
1/4-x,1/4+y,1/4+z
1/4+x,1/4-y,1/4+z
x,1/2+y,1/2+z
-x,1/2-y,1/2+z
1/4-x,3/4+y,3/4+z
1/4+x,3/4-y,3/4+z
1/2+x,y,1/2+z
1/2-x,-y,1/2+z
3/4-x,1/4+y,3/4+z
3/4+x,1/4-y,3/4+z
1/2+x,1/2+y,z
1/2-x,1/2-y,z
3/4-x,3/4+y,1/4+z
3/4+x,3/4-y,1/4+z
loop_
_atom_site_type_symbol
_atom_site_label
_atom_site_fract_x
_atom_site_fract_y
_atom_site_fract_z
Si Si1 0.843040 0.839446 0.108520
Si Si2 0.250000 0.750000 0.238150
Si Si3 0.661891 0.302064 0.710350
Si Si4 0.335105 0.111023 0.825733
Si Si5 0.640070 0.346243 0.443338
Si Si6 0.164911 0.191869 0.315613
Si Si7 0.186697 0.395315 0.051484
O O1 0.866678 0.772313 0.160871
O O2 0.866700 0.727980 0.067245
O O3 0.756990 0.874438 0.090294
O O4 0.878331 0.980252 0.111665
O O5 0.275401 0.641582 0.279843
O O6 0.180360 0.695829 0.203962
O O7 0.750000 0.250000 0.710850
O O8 0.646049 0.452941 0.700735
O O9 0.627638 0.250527 0.763658
O O10 0.322421 0.137858 0.886893
O O11 0.400902 0.215379 0.812239
O O12 0.347351 0.958719 0.820261
O O13 0.698060 0.376027 0.490516
O O14 0.250000 0.250000 0.314755
#
# Coordination Sequence:
#
# PCOD9371450 Si02
#       7
#    16   8  16  16  16  16  16
#     4  11  21  42  65  92 130 166 223 275 322 409
#     4  10  24  42  66  98 140 168 230 290 324 424
#     4  11  20  37  68  89 123 175 221 261 332 400
#     4  11  24  41  69  98 132 178 221 282 343 396
#     4  11  22  41  65  98 132 180 226 271 350 404
#     4  11  26  42  63  99 131 170 219 279 337 403
#     4  10  22  40  64  99 125 169 226 272 321 407
#
# _framework density 22.111816000000001
#
# number of rings (size 3 to 8) (size 9 to 14) (size 15 to 20)
#    0.000    1.231    4.615    1.846    2.154    6.769 
#    2.769    0.000    0.000    0.000    0.000    0.000 
#    0.000    0.000    0.000    0.000    0.000    0.000 
#
# Total GULP energy -144779.414577 kJ/mol
# GULP energy per Si atom -5568.439022 kJ/mol
# Density = 2.206149 g / cm^3
# Si number density = 22.111816 Si / 1000 Ang^3
#
#
#
# Elastic Constant Matrix: (Units=GPa)
#
#
# Indices 1 2 3 4 5 6 
#
# 1 31.0295 17.9232 -18.8167 0.0000 0.0000 0.0000
# 2 17.9232 192.6454 18.1030 0.0000 0.0000 0.0000
# 3 -18.8167 18.1030 75.0977 0.0000 0.0000 0.0000
# 4 0.0000 0.0000 0.0000 -168.5542 0.0000 0.0000
# 5 0.0000 0.0000 0.0000 0.0000 19.6118 0.0000
# 6 0.0000 0.0000 0.0000 0.0000 0.0000 33.5399
#
#
#
# Elastic Compliance Matrix: (Units=1/GPa)
#
#
# Indices 1 2 3 4 5 6 
#
# 1 0.042309 -0.005047 0.011818 0.000000 0.000000 0.000000
# 2 -0.005047 0.005913 -0.002690 0.000000 0.000000 0.000000
# 3 0.011818 -0.002690 0.016925 0.000000 0.000000 0.000000
# 4 0.000000 0.000000 0.000000 -0.005933 0.000000 0.000000
# 5 0.000000 0.000000 0.000000 0.000000 0.050990 0.000000
# 6 0.000000 0.000000 0.000000 0.000000 0.000000 0.029815
#
#
# Mechanical properties :
#
#
# Convention : Reuss Voigt Hill
#
# Bulk Modulus (GPa) = 13.64083 37.02128 25.33105
# Shear Modulus (GPa) = 31.99087 -4.30963 13.84062
#
# Velocity S-wave (km/s) = 3.80778 -1.39759 2.50459
# Velocity P-wave (km/s) = 5.05120 3.76494 4.45474
#
# Compressibility (1/GPa) = 0.07330935
#
# Stress axis : x y z
#
# Youngs Moduli (GPa) = 23.63566 169.11303 59.08246
#
# Poissons Ratio (x) = 0.85348 -0.69822
# Poissons Ratio (y) = 0.11928 0.15893
# Poissons Ratio (z) = -0.27932 0.45491
#
# Static dielectric constant tensor:
#      x y z
#    x 1.580800 0.000000 0.000000 
#    y 0.000000 9.696120 0.000000 
#    z 0.000000 0.000000 1.907930 
# 
# From -- ./inp_files/24295.got.cif
#   From: 2010.05.17/outbox.cif.g08.bks.cpg/sg43_13_cif.got.tgz:24295.got - 2010.06.03 19:21:55.
