data_PCOD9371871
_publ_section_title
;
Structure prediction by ZEFSAII (Michael W. Deem and Ramdas Pophale) SiO2 
 PCOD9371871
Probable space group: F D D 2
;
_chemical_formula_sum "Si O2"
_cell_formula_units_Z 112
_cell_length_a 12.653979
_cell_length_b 14.747994
_cell_length_c 27.231387
_cell_angle_alpha 90.000000
_cell_angle_beta 90.000000
_cell_angle_gamma 90.000000
_cell_volume 5081.943400
_symmetry_space_group_name_H-M "F D D 2"
_symmetry_group_IT_number 43
_symmetry_cell_setting 'orthorhombic'
loop_
_space_group_symop_operation_xyz
x,y,z
-x,-y,z
1/4-x,1/4+y,1/4+z
1/4+x,1/4-y,1/4+z
x,1/2+y,1/2+z
-x,1/2-y,1/2+z
1/4-x,3/4+y,3/4+z
1/4+x,3/4-y,3/4+z
1/2+x,y,1/2+z
1/2-x,-y,1/2+z
3/4-x,1/4+y,3/4+z
3/4+x,1/4-y,3/4+z
1/2+x,1/2+y,z
1/2-x,1/2-y,z
3/4-x,3/4+y,1/4+z
3/4+x,3/4-y,1/4+z
loop_
_atom_site_type_symbol
_atom_site_label
_atom_site_fract_x
_atom_site_fract_y
_atom_site_fract_z
Si Si1 0.372483 0.990328 0.830270
Si Si2 0.628142 0.000701 0.721045
Si Si3 0.920805 0.584773 0.413583
Si Si4 0.960075 0.102620 0.610217
Si Si5 0.784712 0.949769 0.963294
Si Si6 0.015016 0.399204 0.308536
Si Si7 0.103933 0.054171 0.433820
O O1 0.342337 0.963060 0.775110
O O2 0.303899 0.081090 0.841238
O O3 0.500000 0.000000 0.825237
O O4 0.349791 0.929309 0.878513
O O5 0.659919 0.896638 0.712727
O O6 0.500000 0.000000 0.713664
O O7 0.689394 0.064782 0.682851
O O8 0.827774 0.548096 0.447646
O O9 0.000000 0.500000 0.420887
O O10 0.908417 0.590433 0.355365
O O11 0.943352 0.133634 0.667265
O O12 0.848742 0.117687 0.581358
O O13 0.000000 0.000000 0.607195
O O14 0.662886 0.976572 0.964844
O O15 0.812903 0.912452 0.016076
O O16 0.000000 0.500000 0.287323
O O17 0.000000 0.000000 0.421455
#
# Coordination Sequence:
#
# PCOD9371871 Si02
#       7
#    16  16  16  16  16  16  16
#     4   9  23  43  65 102 142 173 225 292 346 420
#     4  11  23  42  72  92 137 185 222 277 357 408
#     4  11  24  47  64 100 144 180 237 298 342 444
#     4  11  24  43  72 104 140 179 242 296 349 430
#     4  11  23  45  70  99 142 184 232 298 357 423
#     4  11  25  44  70 100 146 189 236 297 371 426
#     4  10  23  43  68 103 138 170 235 290 338 425
#
# _framework density 22.038813000000001
#
# number of rings (size 3 to 8) (size 9 to 14) (size 15 to 20)
#    0.000    1.429    4.286    0.429    4.000    5.714 
#    0.000    1.429    0.000    0.000    0.000    0.000 
#    0.000    0.000    0.000    0.000    0.000    0.000 
#
# Total GULP energy -155985.112717 kJ/mol
# GULP energy per Si atom -5570.896883 kJ/mol
# Density = 2.198865 g / cm^3
# Si number density = 22.038813 Si / 1000 Ang^3
#
#
#
# Elastic Constant Matrix: (Units=GPa)
#
#
# Indices 1 2 3 4 5 6 
#
# 1 42.9943 24.5730 13.4628 0.0000 0.0000 0.0000
# 2 24.5730 49.8651 12.9125 0.0000 0.0000 0.0000
# 3 13.4628 12.9125 94.3517 0.0000 0.0000 0.0000
# 4 0.0000 0.0000 0.0000 42.0477 0.0000 0.0000
# 5 0.0000 0.0000 0.0000 0.0000 22.9395 0.0000
# 6 0.0000 0.0000 0.0000 0.0000 0.0000 29.1521
#
#
#
# Elastic Compliance Matrix: (Units=1/GPa)
#
#
# Indices 1 2 3 4 5 6 
#
# 1 0.032969 -0.015581 -0.002572 0.000000 0.000000 0.000000
# 2 -0.015581 0.028154 -0.001630 0.000000 0.000000 0.000000
# 3 -0.002572 -0.001630 0.011189 0.000000 0.000000 0.000000
# 4 0.000000 0.000000 0.000000 0.023783 0.000000 0.000000
# 5 0.000000 0.000000 0.000000 0.000000 0.043593 0.000000
# 6 0.000000 0.000000 0.000000 0.000000 0.000000 0.034303
#
#
# Mechanical properties :
#
#
# Convention : Reuss Voigt Hill
#
# Bulk Modulus (GPa) = 30.53735 32.12308 31.33022
# Shear Modulus (GPa) = 22.27451 27.91204 25.09327
#
# Velocity S-wave (km/s) = 3.18259 3.56265 3.37797
# Velocity P-wave (km/s) = 5.23368 5.61521 5.42780
#
# Compressibility (1/GPa) = 0.03274678
#
# Stress axis : x y z
#
# Youngs Moduli (GPa) = 30.33117 35.51858 89.37604
#
# Poissons Ratio (x) = 0.55341 0.22988
# Poissons Ratio (y) = 0.47259 0.14567
# Poissons Ratio (z) = 0.07801 0.05789
#
# Static dielectric constant tensor:
#      x y z
#    x 1.928910 0.000000 0.000000 
#    y 0.000000 1.741230 0.000000 
#    z 0.000000 0.000000 1.868980 
# 
# From -- ./inp_files/28641.got.cif
#   From: 2010.05.17/outbox.cif.g08.bks.cpg/sg43_15_cif.got.tgz:28641.got - 2010.06.03 19:21:55.
