data_PCOD9371971
_publ_section_title
;
Structure prediction by ZEFSAII (Michael W. Deem and Ramdas Pophale) SiO2 
 PCOD9371971
Probable space group: F D D 2
;
_chemical_formula_sum "Si O2"
_cell_formula_units_Z 80
_cell_length_a 14.799874
_cell_length_b 18.192122
_cell_length_c 11.143649
_cell_angle_alpha 90.000000
_cell_angle_beta 90.000000
_cell_angle_gamma 90.000000
_cell_volume 3000.328464
_symmetry_space_group_name_H-M "F D D 2"
_symmetry_group_IT_number 43
_symmetry_cell_setting 'orthorhombic'
loop_
_space_group_symop_operation_xyz
x,y,z
-x,-y,z
1/4-x,1/4+y,1/4+z
1/4+x,1/4-y,1/4+z
x,1/2+y,1/2+z
-x,1/2-y,1/2+z
1/4-x,3/4+y,3/4+z
1/4+x,3/4-y,3/4+z
1/2+x,y,1/2+z
1/2-x,-y,1/2+z
3/4-x,1/4+y,3/4+z
3/4+x,1/4-y,3/4+z
1/2+x,1/2+y,z
1/2-x,1/2-y,z
3/4-x,3/4+y,1/4+z
3/4+x,3/4-y,1/4+z
loop_
_atom_site_type_symbol
_atom_site_label
_atom_site_fract_x
_atom_site_fract_y
_atom_site_fract_z
Si Si1 0.500000 0.500000 0.346130
Si Si2 0.752561 0.875232 0.447150
Si Si3 0.793954 0.130730 0.281599
Si Si4 0.082375 0.656836 0.464591
Si Si5 0.500000 0.000000 0.225260
Si Si6 0.729428 0.536518 0.978136
O O1 0.547814 0.553417 0.247855
O O2 0.517239 0.431186 0.440192
O O3 0.857848 0.871922 0.478084
O O4 0.744606 0.888168 0.307094
O O5 0.717809 0.951088 0.504400
O O6 0.792688 0.185406 0.394776
O O7 0.771422 0.053362 0.345316
O O8 0.159081 0.710921 0.522825
O O9 0.137944 0.581290 0.461527
O O10 0.043080 0.683599 0.337309
#
# Coordination Sequence:
#
# PCOD9371971 Si02
#       6
#     8  16  16  16   8  16
#     4  11  28  48  73 116 163 210 258 339 408 487
#     4  12  27  46  78 112 160 212 258 344 402 478
#     4  10  23  46  79 106 150 209 274 314 392 495
#     4  11  27  47  75 120 161 204 264 342 405 477
#     4   9  20  46  75 108 149 208 264 317 386 499
#     4  11  27  49  81 115 155 213 274 325 400 490
#
# _framework density 26.663746
#
# number of rings (size 3 to 8) (size 9 to 14) (size 15 to 20)
#    0.000    1.200    2.000    1.200   16.800    1.600 
#    0.000    0.000    0.000    0.000    0.000    0.000 
#    0.000    0.000    0.000    0.000    0.000    0.000 
#
# Total GULP energy -111413.548483 kJ/mol
# GULP energy per Si atom -5570.677424 kJ/mol
# Density = 2.660306 g / cm^3
# Si number density = 26.663746 Si / 1000 Ang^3
#
#
#
# Elastic Constant Matrix: (Units=GPa)
#
#
# Indices 1 2 3 4 5 6 
#
# 1 110.6731 32.1230 49.2233 0.0000 0.0000 0.0000
# 2 32.1230 183.5897 47.2777 0.0000 0.0000 0.0000
# 3 49.2233 47.2777 120.3471 0.0000 0.0000 0.0000
# 4 0.0000 0.0000 0.0000 33.9827 0.0000 0.0000
# 5 0.0000 0.0000 0.0000 0.0000 49.6601 0.0000
# 6 0.0000 0.0000 0.0000 0.0000 0.0000 24.4972
#
#
#
# Elastic Compliance Matrix: (Units=1/GPa)
#
#
# Indices 1 2 3 4 5 6 
#
# 1 0.011167 -0.000865 -0.004228 0.000000 0.000000 0.000000
# 2 -0.000865 0.006127 -0.002053 0.000000 0.000000 0.000000
# 3 -0.004228 -0.002053 0.010845 0.000000 0.000000 0.000000
# 4 0.000000 0.000000 0.000000 0.029427 0.000000 0.000000
# 5 0.000000 0.000000 0.000000 0.000000 0.020137 0.000000
# 6 0.000000 0.000000 0.000000 0.000000 0.000000 0.040821
#
#
# Mechanical properties :
#
#
# Convention : Reuss Voigt Hill
#
# Bulk Modulus (GPa) = 72.21632 74.65090 73.43361
# Shear Modulus (GPa) = 36.38190 40.69373 38.53782
#
# Velocity S-wave (km/s) = 3.69788 3.91088 3.80587
# Velocity P-wave (km/s) = 6.73612 6.96069 6.84933
#
# Compressibility (1/GPa) = 0.01384729
#
# Stress axis : x y z
#
# Youngs Moduli (GPa) = 89.54956 163.21131 92.20890
#
# Poissons Ratio (x) = 0.14122 0.38981
# Poissons Ratio (y) = 0.07748 0.18931
# Poissons Ratio (z) = 0.37857 0.33509
#
# Static dielectric constant tensor:
#      x y z
#    x 2.214340 0.000000 0.000000 
#    y 0.000000 2.179830 0.000000 
#    z 0.000000 0.000000 2.192300 
# 
# From -- ./inp_files/6601.got.cif
#   From: 2010.05.17/outbox.cif.g08.bks.cpg/sg43_4_cif.got.tgz:6601.got - 2010.06.03 19:21:55.
