data_PCOD9371117
_publ_section_title
;
Structure prediction by ZEFSAII (Michael W. Deem and Ramdas Pophale) SiO2 
 PCOD9371117
Probable space group: F D D 2
;
_chemical_formula_sum "Si O2"
_cell_formula_units_Z 104
_cell_length_a 28.423267
_cell_length_b 9.504133
_cell_length_c 16.373814
_cell_angle_alpha 90.000000
_cell_angle_beta 90.000000
_cell_angle_gamma 90.000000
_cell_volume 4423.197715
_symmetry_space_group_name_H-M "F D D 2"
_symmetry_group_IT_number 43
_symmetry_cell_setting 'orthorhombic'
loop_
_space_group_symop_operation_xyz
x,y,z
-x,-y,z
1/4-x,1/4+y,1/4+z
1/4+x,1/4-y,1/4+z
x,1/2+y,1/2+z
-x,1/2-y,1/2+z
1/4-x,3/4+y,3/4+z
1/4+x,3/4-y,3/4+z
1/2+x,y,1/2+z
1/2-x,-y,1/2+z
3/4-x,1/4+y,3/4+z
3/4+x,1/4-y,3/4+z
1/2+x,1/2+y,z
1/2-x,1/2-y,z
3/4-x,3/4+y,1/4+z
3/4+x,3/4-y,1/4+z
loop_
_atom_site_type_symbol
_atom_site_label
_atom_site_fract_x
_atom_site_fract_y
_atom_site_fract_z
Si Si1 0.403050 0.591501 0.054640
Si Si2 0.598840 0.372543 0.299563
Si Si3 0.240610 0.053481 0.128782
Si Si4 0.500000 0.500000 0.335266
Si Si5 0.000000 0.500000 0.230471
Si Si6 0.500000 0.500000 0.007722
Si Si7 0.144803 0.325760 0.965535
Si Si8 0.364269 0.835068 0.633388
O O1 0.387074 0.752069 0.050729
O O2 0.458932 0.574796 0.055580
O O3 0.388246 0.486533 0.125246
O O4 0.376907 0.525338 0.973555
O O5 0.547742 0.447501 0.291621
O O6 0.608029 0.309015 0.391107
O O7 0.602920 0.243225 0.237141
O O8 0.253749 0.112866 0.039955
O O9 0.270643 0.127569 0.198997
O O10 0.190048 0.122772 0.139349
O O11 0.236902 0.888456 0.135518
O O12 0.947216 0.488512 0.191672
O O13 0.129239 0.256704 0.052397
#
# Coordination Sequence:
#
# PCOD9371117 Si02
#       8
#    16  16  16   8   8   8  16  16
#     4  11  22  43  63  96 126 175 215 281 322 410
#     4  12  26  43  68 103 140 169 233 283 344 386
#     4   9  18  36  61  94 117 181 225 258 308 432
#     4  12  22  38  64  98 136 186 214 276 332 420
#     4   9  18  40  67  84 133 175 226 258 346 407
#     4   9  22  38  65  84 133 173 224 256 344 397
#     4  11  24  43  67 100 131 176 219 291 329 413
#     4  10  21  39  67  89 127 167 226 260 329 394
#
# _framework density 23.5124
#
# number of rings (size 3 to 8) (size 9 to 14) (size 15 to 20)
#    0.000    1.538    3.077    2.769    4.308    0.000 
#    0.000    8.462    0.000    0.000    0.000    0.000 
#    0.000    0.000    0.000    0.000    0.000    0.000 
#
# Total GULP energy -144880.682231 kJ/mol
# GULP energy per Si atom -5572.333932 kJ/mol
# Density = 2.345889 g / cm^3
# Si number density = 23.512400 Si / 1000 Ang^3
#
#
#
# Elastic Constant Matrix: (Units=GPa)
#
#
# Indices 1 2 3 4 5 6 
#
# 1 63.7562 6.4319 10.9242 0.0000 0.0000 0.0000
# 2 6.4319 136.1489 10.2297 0.0000 0.0000 0.0000
# 3 10.9242 10.2297 65.0987 0.0000 0.0000 0.0000
# 4 0.0000 0.0000 0.0000 124.7597 0.0000 0.0000
# 5 0.0000 0.0000 0.0000 0.0000 11.0165 0.0000
# 6 0.0000 0.0000 0.0000 0.0000 0.0000 41.3995
#
#
#
# Elastic Compliance Matrix: (Units=1/GPa)
#
#
# Indices 1 2 3 4 5 6 
#
# 1 0.016192 -0.000567 -0.002628 0.000000 0.000000 0.000000
# 2 -0.000567 0.007453 -0.001076 0.000000 0.000000 0.000000
# 3 -0.002628 -0.001076 0.015971 0.000000 0.000000 0.000000
# 4 0.000000 0.000000 0.000000 0.008015 0.000000 0.000000
# 5 0.000000 0.000000 0.000000 0.000000 0.090773 0.000000
# 6 0.000000 0.000000 0.000000 0.000000 0.000000 0.024155
#
#
# Mechanical properties :
#
#
# Convention : Reuss Voigt Hill
#
# Bulk Modulus (GPa) = 32.18187 35.57503 33.87845
# Shear Modulus (GPa) = 27.55433 51.26302 39.40867
#
# Velocity S-wave (km/s) = 3.42703 4.67439 4.09844
# Velocity P-wave (km/s) = 5.41999 6.65555 6.06929
#
# Compressibility (1/GPa) = 0.03107340
#
# Stress axis : x y z
#
# Youngs Moduli (GPa) = 61.75779 134.18232 62.61207
#
# Poissons Ratio (x) = 0.07615 0.16455
# Poissons Ratio (y) = 0.03505 0.06736
# Poissons Ratio (z) = 0.16230 0.14436
#
# Static dielectric constant tensor:
#      x y z
#    x 2.190690 0.000000 0.000000 
#    y 0.000000 -1.883930 0.000000 
#    z 0.000000 0.000000 2.071650 
# 
# From -- ./inp_files/19003.got.cif
#   From: 2010.05.17/outbox.cif.g08.bks.cpg/sg43_10_cif.got.tgz:19003.got - 2010.06.03 19:21:55.
