data_PCOD9371927
_publ_section_title
;
Structure prediction by ZEFSAII (Michael W. Deem and Ramdas Pophale) SiO2 
 PCOD9371927
Probable space group: F D D 2
;
_chemical_formula_sum "Si O2"
_cell_formula_units_Z 120
_cell_length_a 25.785153
_cell_length_b 22.945322
_cell_length_c 8.636228
_cell_angle_alpha 90.000000
_cell_angle_beta 90.000000
_cell_angle_gamma 90.000000
_cell_volume 5109.612537
_symmetry_space_group_name_H-M "F D D 2"
_symmetry_group_IT_number 43
_symmetry_cell_setting 'orthorhombic'
loop_
_space_group_symop_operation_xyz
x,y,z
-x,-y,z
1/4-x,1/4+y,1/4+z
1/4+x,1/4-y,1/4+z
x,1/2+y,1/2+z
-x,1/2-y,1/2+z
1/4-x,3/4+y,3/4+z
1/4+x,3/4-y,3/4+z
1/2+x,y,1/2+z
1/2-x,-y,1/2+z
3/4-x,1/4+y,3/4+z
3/4+x,1/4-y,3/4+z
1/2+x,1/2+y,z
1/2-x,1/2-y,z
3/4-x,3/4+y,1/4+z
3/4+x,3/4-y,1/4+z
loop_
_atom_site_type_symbol
_atom_site_label
_atom_site_fract_x
_atom_site_fract_y
_atom_site_fract_z
Si Si1 0.011675 0.885954 0.116870
Si Si2 0.000000 0.500000 0.739026
Si Si3 0.396421 0.273916 0.885665
Si Si4 0.159367 0.303529 0.675742
Si Si5 0.988326 0.190961 0.427590
Si Si6 0.942057 0.361462 0.155055
Si Si7 0.570684 0.795499 0.418617
Si Si8 0.902147 0.397837 0.469764
O O1 0.018456 0.846499 0.270756
O O2 0.032412 0.951725 0.142771
O O3 0.033630 0.848934 0.972799
O O4 0.951210 0.897784 0.082676
O O5 0.036961 0.537962 0.847050
O O6 0.348066 0.242115 0.813545
O O7 0.436860 0.228595 0.956197
O O8 0.427023 0.301437 0.737522
O O9 0.382165 0.331025 0.980630
O O10 0.158753 0.366357 0.758424
O O11 0.113189 0.295223 0.555817
O O12 0.002806 0.149943 0.573558
O O13 0.035227 0.237947 0.406615
O O14 0.927394 0.403852 0.298512
O O15 0.606569 0.809816 0.271202
#
# Coordination Sequence:
#
# PCOD9371927 Si02
#       8
#    16   8  16  16  16  16  16  16
#     4  12  25  46  73 108 142 200 249 300 370 451
#     4  12  28  46  72  98 156 200 244 298 372 456
#     4  10  24  43  70 105 141 184 244 304 366 435
#     4  12  24  46  69 103 139 195 245 293 374 444
#     4  12  21  45  80 102 140 188 260 305 357 448
#     4  10  23  45  64 104 144 177 246 305 354 443
#     4  12  23  45  77 108 140 192 241 312 374 440
#     4  10  24  47  64 109 149 179 246 296 381 441
#
# _framework density 23.485146
#
# number of rings (size 3 to 8) (size 9 to 14) (size 15 to 20)
#    0.800    0.000    6.667    0.000    1.867    2.133 
#    9.600    0.000    0.000    0.000    0.000    0.000 
#    0.000    0.000    0.000    0.000    0.000    0.000 
#
# Total GULP energy -167350.869590 kJ/mol
# GULP energy per Si atom -5578.362320 kJ/mol
# Density = 2.343169 g / cm^3
# Si number density = 23.485146 Si / 1000 Ang^3
#
#
#
# Elastic Constant Matrix: (Units=GPa)
#
#
# Indices 1 2 3 4 5 6 
#
# 1 50.5961 6.4924 27.7329 -0.0004 -0.0006 0.0005
# 2 6.4924 63.2953 43.6427 0.0000 -0.0005 -0.0008
# 3 27.7329 43.6427 103.2010 -0.0015 0.0001 0.0006
# 4 -0.0004 0.0000 -0.0015 30.3910 0.0006 0.0002
# 5 -0.0006 -0.0005 0.0001 0.0006 25.1892 0.0005
# 6 0.0005 -0.0008 0.0006 0.0002 0.0005 19.1139
#
#
#
# Elastic Compliance Matrix: (Units=1/GPa)
#
#
# Indices 1 2 3 4 5 6 
#
# 1 0.023512 0.002745 -0.007479 0.000000 0.000001 0.000000
# 2 0.002745 0.022622 -0.010305 0.000000 0.000001 0.000001
# 3 -0.007479 -0.010305 0.016057 0.000001 0.000000 -0.000001
# 4 0.000000 0.000000 0.000001 0.032904 -0.000001 0.000000
# 5 0.000001 0.000001 0.000000 -0.000001 0.039700 -0.000001
# 6 0.000000 0.000001 -0.000001 0.000000 -0.000001 0.052318
#
#
# Mechanical properties :
#
#
# Convention : Reuss Voigt Hill
#
# Bulk Modulus (GPa) = 31.13851 41.42538 36.28195
# Shear Modulus (GPa) = 21.93992 24.22045 23.08019
#
# Velocity S-wave (km/s) = 3.05979 3.21488 3.13830
# Velocity P-wave (km/s) = 5.07648 5.60873 5.34923
#
# Compressibility (1/GPa) = 0.03211457
#
# Stress axis : x y z
#
# Youngs Moduli (GPa) = 42.53220 44.20396 62.27674
#
# Poissons Ratio (x) = -0.12135 0.46578
# Poissons Ratio (y) = -0.11676 0.64173
# Poissons Ratio (z) = 0.31811 0.45550
#
# Static dielectric constant tensor:
#      x y z
#    x 1.872420 0.000000 0.000000 
#    y 0.000000 1.973450 0.000000 
#    z 0.000000 0.000000 1.950640 
# 
# From -- ./inp_files/4347.got.cif
#   From: 2010.05.17/outbox.cif.g08.bks.cpg/sg43_3_cif.got.tgz:4347.got - 2010.06.03 19:21:55.
