data_PCOD9371092
_publ_section_title
;
Structure prediction by ZEFSAII (Michael W. Deem and Ramdas Pophale) SiO2 
 PCOD9371092
Probable space group: F D D 2
;
_chemical_formula_sum "Si O2"
_cell_formula_units_Z 80
_cell_length_a 12.099272
_cell_length_b 23.878118
_cell_length_c 12.098867
_cell_angle_alpha 90.000000
_cell_angle_beta 90.000000
_cell_angle_gamma 90.000000
_cell_volume 3495.457586
_symmetry_space_group_name_H-M "F D D 2"
_symmetry_group_IT_number 43
_symmetry_cell_setting 'orthorhombic'
loop_
_space_group_symop_operation_xyz
x,y,z
-x,-y,z
1/4-x,1/4+y,1/4+z
1/4+x,1/4-y,1/4+z
x,1/2+y,1/2+z
-x,1/2-y,1/2+z
1/4-x,3/4+y,3/4+z
1/4+x,3/4-y,3/4+z
1/2+x,y,1/2+z
1/2-x,-y,1/2+z
3/4-x,1/4+y,3/4+z
3/4+x,1/4-y,3/4+z
1/2+x,1/2+y,z
1/2-x,1/2-y,z
3/4-x,3/4+y,1/4+z
3/4+x,3/4-y,1/4+z
loop_
_atom_site_type_symbol
_atom_site_label
_atom_site_fract_x
_atom_site_fract_y
_atom_site_fract_z
Si Si1 0.011155 0.642332 0.739880
Si Si2 0.398586 0.851812 0.280409
Si Si3 0.609956 0.465629 0.321305
Si Si4 0.683261 0.807779 0.866057
Si Si5 0.977914 0.176376 0.006518
O O1 0.935120 0.586152 0.749822
O O2 0.936659 0.686880 0.808387
O O3 0.041145 0.667881 0.620990
O O4 0.127216 0.616776 0.777707
O O5 0.420939 0.808845 0.179365
O O6 0.267524 0.846048 0.295816
O O7 0.425049 0.913105 0.235039
O O8 0.457886 0.837364 0.394632
O O9 0.500000 0.500000 0.359133
O O10 0.681885 0.510543 0.255483
O O11 0.750000 0.750000 0.872470
#
# Coordination Sequence:
#
# PCOD9371092 Si02
#       5
#    16  16  16  16  16
#     4  10  21  39  62  88 125 170 217 264 324 406
#     4  11  23  39  62  96 127 161 217 279 328 386
#     4   9  20  39  62  86 122 173 219 258 327 411
#     4  11  23  42  66  93 129 175 222 267 328 400
#     4  11  22  39  61  93 128 165 216 278 329 381
#
# _framework density 22.886845999999998
#
# number of rings (size 3 to 8) (size 9 to 14) (size 15 to 20)
#    0.000    1.600    0.000    6.600    0.000    6.400 
#    0.000    7.000    0.000    0.000    0.000    0.000 
#    0.000    0.000    0.000    0.000    0.000    0.000 
#
# Total GULP energy -111657.098768 kJ/mol
# GULP energy per Si atom -5582.854938 kJ/mol
# Density = 2.283475 g / cm^3
# Si number density = 22.886846 Si / 1000 Ang^3
#
#
#
# Elastic Constant Matrix: (Units=GPa)
#
#
# Indices 1 2 3 4 5 6 
#
# 1 63.5599 22.5107 24.0403 0.0000 0.0000 0.0000
# 2 22.5107 95.9538 40.4075 0.0000 0.0000 0.0000
# 3 24.0403 40.4075 139.1724 0.0000 0.0000 0.0000
# 4 0.0000 0.0000 0.0000 43.3896 0.0000 0.0000
# 5 0.0000 0.0000 0.0000 0.0000 28.9806 0.0000
# 6 0.0000 0.0000 0.0000 0.0000 0.0000 35.6027
#
#
#
# Elastic Compliance Matrix: (Units=1/GPa)
#
#
# Indices 1 2 3 4 5 6 
#
# 1 0.017686 -0.003261 -0.002108 0.000000 0.000000 0.000000
# 2 -0.003261 0.012475 -0.003059 0.000000 0.000000 0.000000
# 3 -0.002108 -0.003059 0.008438 0.000000 0.000000 0.000000
# 4 0.000000 0.000000 0.000000 0.023047 0.000000 0.000000
# 5 0.000000 0.000000 0.000000 0.000000 0.034506 0.000000
# 6 0.000000 0.000000 0.000000 0.000000 0.000000 0.028088
#
#
# Mechanical properties :
#
#
# Convention : Reuss Voigt Hill
#
# Bulk Modulus (GPa) = 45.99401 52.51143 49.25272
# Shear Modulus (GPa) = 33.70596 35.70976 34.70786
#
# Velocity S-wave (km/s) = 3.84177 3.95432 3.89845
# Velocity P-wave (km/s) = 6.31021 6.62137 6.46766
#
# Compressibility (1/GPa) = 0.02174196
#
# Stress axis : x y z
#
# Youngs Moduli (GPa) = 56.54333 80.16165 118.51831
#
# Poissons Ratio (x) = 0.26143 0.24985
# Poissons Ratio (y) = 0.18440 0.36250
# Poissons Ratio (z) = 0.11920 0.24518
#
# Static dielectric constant tensor:
#      x y z
#    x 1.899020 0.000000 0.000000 
#    y 0.000000 1.918490 0.000000 
#    z 0.000000 0.000000 1.902750 
# 
# From -- ./inp_files/6089.got.cif
#   From: 2010.05.17/outbox.cif.g08.bks.cpg/sg43_4_cif.got.tgz:6089.got - 2010.06.03 19:21:55.
