data_PCOD9371840
_publ_section_title
;
Structure prediction by ZEFSAII (Michael W. Deem and Ramdas Pophale) SiO2 
 PCOD9371840
Probable space group: F D D 2
;
_chemical_formula_sum "Si O2"
_cell_formula_units_Z 104
_cell_length_a 8.152874
_cell_length_b 23.265225
_cell_length_c 25.615852
_cell_angle_alpha 90.000000
_cell_angle_beta 90.000000
_cell_angle_gamma 90.000000
_cell_volume 4858.775052
_symmetry_space_group_name_H-M "F D D 2"
_symmetry_group_IT_number 43
_symmetry_cell_setting 'orthorhombic'
loop_
_space_group_symop_operation_xyz
x,y,z
-x,-y,z
1/4-x,1/4+y,1/4+z
1/4+x,1/4-y,1/4+z
x,1/2+y,1/2+z
-x,1/2-y,1/2+z
1/4-x,3/4+y,3/4+z
1/4+x,3/4-y,3/4+z
1/2+x,y,1/2+z
1/2-x,-y,1/2+z
3/4-x,1/4+y,3/4+z
3/4+x,1/4-y,3/4+z
1/2+x,1/2+y,z
1/2-x,1/2-y,z
3/4-x,3/4+y,1/4+z
3/4+x,3/4-y,1/4+z
loop_
_atom_site_type_symbol
_atom_site_label
_atom_site_fract_x
_atom_site_fract_y
_atom_site_fract_z
Si Si1 0.235354 0.685106 0.331900
Si Si2 0.326694 0.007610 0.916819
Si Si3 0.451964 0.714157 0.052234
Si Si4 0.916711 0.142948 0.784736
Si Si5 0.000000 0.000000 0.985366
Si Si6 0.134996 0.915882 0.260053
Si Si7 0.879122 0.384683 0.180335
O O1 0.250000 0.750000 0.313200
O O2 0.332839 0.639799 0.295775
O O3 0.304460 0.681229 0.390401
O O4 0.046177 0.666617 0.326493
O O5 0.336134 0.973026 0.863187
O O6 0.164003 0.993594 0.949662
O O7 0.500000 0.000000 0.946534
O O8 0.336186 0.074572 0.901384
O O9 0.589892 0.666595 0.051409
O O10 0.299800 0.687213 0.019851
O O11 0.487185 0.777331 0.028505
O O12 0.788241 0.193165 0.769464
O O13 0.017592 0.126573 0.732675
O O14 0.198000 0.898873 0.202235
#
# Coordination Sequence:
#
# PCOD9371840 Si02
#       7
#    16  16  16  16   8  16  16
#     4  11  24  43  67  97 139 184 230 284 365 431
#     4  11  22  43  71 100 138 188 241 290 353 436
#     4  11  22  43  69 100 140 180 238 297 362 420
#     4  10  26  40  68  99 136 182 232 300 358 415
#     4  10  26  42  66 108 140 184 242 296 358 432
#     4  10  23  43  67  98 134 184 234 291 362 426
#     4  10  23  42  65 101 132 183 236 285 361 423
#
# _framework density 21.404571000000001
#
# number of rings (size 3 to 8) (size 9 to 14) (size 15 to 20)
#    0.000    1.538    3.077    0.000   10.769    6.154 
#    0.000    0.000    0.000    0.000    0.000    0.000 
#    0.000    0.000    0.000    0.000    0.000    0.000 
#
# Total GULP energy -145101.273624 kJ/mol
# GULP energy per Si atom -5580.818216 kJ/mol
# Density = 2.135585 g / cm^3
# Si number density = 21.404571 Si / 1000 Ang^3
#
#
#
# Elastic Constant Matrix: (Units=GPa)
#
#
# Indices 1 2 3 4 5 6 
#
# 1 85.6155 14.7054 14.9176 0.0000 0.0000 0.0000
# 2 14.7054 93.9522 -6.5955 0.0000 0.0000 0.0000
# 3 14.9176 -6.5955 72.4526 0.0000 0.0000 0.0000
# 4 0.0000 0.0000 0.0000 5.2373 0.0000 0.0000
# 5 0.0000 0.0000 0.0000 0.0000 106.0138 0.0000
# 6 0.0000 0.0000 0.0000 0.0000 0.0000 40.3426
#
#
#
# Elastic Compliance Matrix: (Units=1/GPa)
#
#
# Indices 1 2 3 4 5 6 
#
# 1 0.012534 -0.002157 -0.002777 0.000000 0.000000 0.000000
# 2 -0.002157 0.011083 0.001453 0.000000 0.000000 0.000000
# 3 -0.002777 0.001453 0.014506 0.000000 0.000000 0.000000
# 4 0.000000 0.000000 0.000000 0.190936 0.000000 0.000000
# 5 0.000000 0.000000 0.000000 0.000000 0.009433 0.000000
# 6 0.000000 0.000000 0.000000 0.000000 0.000000 0.024788
#
#
# Mechanical properties :
#
#
# Convention : Reuss Voigt Hill
#
# Bulk Modulus (GPa) = 32.09029 33.11946 32.60487
# Shear Modulus (GPa) = 17.81705 45.58493 31.70099
#
# Velocity S-wave (km/s) = 2.88825 4.61985 3.85260
# Velocity P-wave (km/s) = 5.11346 6.63054 5.92079
#
# Compressibility (1/GPa) = 0.03116208
#
# Stress axis : x y z
#
# Youngs Moduli (GPa) = 79.78001 90.22581 68.93606
#
# Poissons Ratio (x) = 0.19460 0.19144
# Poissons Ratio (y) = 0.17207 -0.10017
# Poissons Ratio (z) = 0.22156 -0.13110
#
# Static dielectric constant tensor:
#      x y z
#    x 1.802500 0.000000 0.000000 
#    y 0.000000 1.851800 0.000000 
#    z 0.000000 0.000000 1.780390 
# 
# From -- ./inp_files/24293.got.cif
#   From: 2010.05.17/outbox.cif.g08.bks.cpg/sg43_13_cif.got.tgz:24293.got - 2010.06.03 19:21:55.
