data_PCOD9371978
_publ_section_title
;
Structure prediction by ZEFSAII (Michael W. Deem and Ramdas Pophale) SiO2 
 PCOD9371978
Probable space group: F D D 2
;
_chemical_formula_sum "Si O2"
_cell_formula_units_Z 120
_cell_length_a 16.312149
_cell_length_b 16.253597
_cell_length_c 20.837817
_cell_angle_alpha 90.000000
_cell_angle_beta 90.000000
_cell_angle_gamma 90.000000
_cell_volume 5524.753260
_symmetry_space_group_name_H-M "F D D 2"
_symmetry_group_IT_number 43
_symmetry_cell_setting 'orthorhombic'
loop_
_space_group_symop_operation_xyz
x,y,z
-x,-y,z
1/4-x,1/4+y,1/4+z
1/4+x,1/4-y,1/4+z
x,1/2+y,1/2+z
-x,1/2-y,1/2+z
1/4-x,3/4+y,3/4+z
1/4+x,3/4-y,3/4+z
1/2+x,y,1/2+z
1/2-x,-y,1/2+z
3/4-x,1/4+y,3/4+z
3/4+x,1/4-y,3/4+z
1/2+x,1/2+y,z
1/2-x,1/2-y,z
3/4-x,3/4+y,1/4+z
3/4+x,3/4-y,1/4+z
loop_
_atom_site_type_symbol
_atom_site_label
_atom_site_fract_x
_atom_site_fract_y
_atom_site_fract_z
Si Si1 0.500000 0.500000 0.012470
Si Si2 0.524777 0.138403 0.420446
Si Si3 0.525816 0.871231 0.817420
Si Si4 0.044964 0.917020 0.675754
Si Si5 0.977133 0.318311 0.284210
Si Si6 0.703252 0.924762 0.809224
Si Si7 0.093405 0.344763 0.532832
Si Si8 0.448715 0.082583 0.965533
O O1 0.557505 0.435442 0.050058
O O2 0.547056 0.558406 0.962351
O O3 0.609898 0.188446 0.415653
O O4 0.508171 0.123915 0.345923
O O5 0.445747 0.168970 0.461308
O O6 0.512903 0.773958 0.809710
O O7 0.613431 0.894146 0.787024
O O8 0.441384 0.908667 0.789675
O O9 0.542980 0.901916 0.889929
O O10 0.037765 0.848931 0.730100
O O11 0.995865 0.879974 0.614530
O O12 0.000000 0.000000 0.695772
O O13 0.889884 0.323644 0.247779
O O14 0.761754 0.911056 0.749326
O O15 0.693612 0.020896 0.825471
O O16 0.500000 0.000000 0.981139
#
# Coordination Sequence:
#
# PCOD9371978 Si02
#       8
#     8  16  16  16  16  16  16  16
#     4   8  22  46  70  96 144 196 244 294 358 452
#     4  10  23  47  67  99 143 185 241 304 358 449
#     4  12  25  45  69 108 148 191 249 299 372 456
#     4  12  26  41  70 110 144 189 241 308 380 442
#     4  12  25  42  73 105 140 194 239 310 376 438
#     4  12  23  42  73 106 146 187 245 303 374 448
#     4  10  24  45  74  96 148 201 241 308 362 453
#     4  12  24  43  70 106 144 186 232 313 381 435
#
# _framework density 21.720427000000001
#
# number of rings (size 3 to 8) (size 9 to 14) (size 15 to 20)
#    0.800    0.000    4.000    4.000    2.800    0.000 
#    0.000    1.333    5.867    0.000    0.000    0.000 
#    0.000    0.000    0.000    0.000    0.000    0.000 
#
# Total GULP energy -167161.910699 kJ/mol
# GULP energy per Si atom -5572.063690 kJ/mol
# Density = 2.167099 g / cm^3
# Si number density = 21.720427 Si / 1000 Ang^3
#
#
#
# Elastic Constant Matrix: (Units=GPa)
#
#
# Indices 1 2 3 4 5 6 
#
# 1 142.5624 13.0494 51.9368 0.0000 0.0000 0.0000
# 2 13.0494 82.0908 7.4415 0.0000 0.0000 0.0000
# 3 51.9368 7.4415 59.6748 0.0000 0.0000 0.0000
# 4 0.0000 0.0000 0.0000 22.0189 0.0000 0.0000
# 5 0.0000 0.0000 0.0000 0.0000 33.7619 0.0000
# 6 0.0000 0.0000 0.0000 0.0000 0.0000 30.4127
#
#
#
# Elastic Compliance Matrix: (Units=1/GPa)
#
#
# Indices 1 2 3 4 5 6 
#
# 1 0.010328 -0.000836 -0.008884 0.000000 0.000000 0.000000
# 2 -0.000836 0.012389 -0.000817 0.000000 0.000000 0.000000
# 3 -0.008884 -0.000817 0.024591 0.000000 0.000000 0.000000
# 4 0.000000 0.000000 0.000000 0.045416 0.000000 0.000000
# 5 0.000000 0.000000 0.000000 0.000000 0.029619 0.000000
# 6 0.000000 0.000000 0.000000 0.000000 0.000000 0.032881
#
#
# Mechanical properties :
#
#
# Convention : Reuss Voigt Hill
#
# Bulk Modulus (GPa) = 38.12016 47.68703 42.90360
# Shear Modulus (GPa) = 27.02079 31.36537 29.19308
#
# Velocity S-wave (km/s) = 3.53090 3.80419 3.67009
# Velocity P-wave (km/s) = 5.84906 6.42638 6.14450
#
# Compressibility (1/GPa) = 0.02623284
#
# Stress axis : x y z
#
# Youngs Moduli (GPa) = 96.82790 80.71913 40.66447
#
# Poissons Ratio (x) = 0.06751 0.36127
# Poissons Ratio (y) = 0.08098 0.03322
# Poissons Ratio (z) = 0.86023 0.06594
#
# Static dielectric constant tensor:
#      x y z
#    x 1.720260 0.000000 0.000000 
#    y 0.000000 1.818190 0.000000 
#    z 0.000000 0.000000 1.777590 
# 
# From -- ./inp_files/18078.got.cif
#   From: 2010.05.17/outbox.cif.g08.bks.cpg/sg43_10_cif.got.tgz:18078.got - 2010.06.03 19:21:55.
