data_PCOD9371763
_publ_section_title
;
Structure prediction by ZEFSAII (Michael W. Deem and Ramdas Pophale) SiO2 
 PCOD9371763
Probable space group: F D D 2
;
_chemical_formula_sum "Si O2"
_cell_formula_units_Z 104
_cell_length_a 24.415052
_cell_length_b 14.993938
_cell_length_c 11.525166
_cell_angle_alpha 90.000000
_cell_angle_beta 90.000000
_cell_angle_gamma 90.000000
_cell_volume 4219.107137
_symmetry_space_group_name_H-M "F D D 2"
_symmetry_group_IT_number 43
_symmetry_cell_setting 'orthorhombic'
loop_
_space_group_symop_operation_xyz
x,y,z
-x,-y,z
1/4-x,1/4+y,1/4+z
1/4+x,1/4-y,1/4+z
x,1/2+y,1/2+z
-x,1/2-y,1/2+z
1/4-x,3/4+y,3/4+z
1/4+x,3/4-y,3/4+z
1/2+x,y,1/2+z
1/2-x,-y,1/2+z
3/4-x,1/4+y,3/4+z
3/4+x,1/4-y,3/4+z
1/2+x,1/2+y,z
1/2-x,1/2-y,z
3/4-x,3/4+y,1/4+z
3/4+x,3/4-y,1/4+z
loop_
_atom_site_type_symbol
_atom_site_label
_atom_site_fract_x
_atom_site_fract_y
_atom_site_fract_z
Si Si1 0.141430 0.754447 0.625000
Si Si2 0.000000 0.000000 0.025465
Si Si3 0.595132 0.333973 0.274127
Si Si4 0.245038 0.617061 0.200298
Si Si5 0.850335 0.613766 0.560356
Si Si6 0.960934 0.693047 0.563898
Si Si7 0.330888 0.815081 0.375535
O O1 0.195654 0.763865 0.700882
O O2 0.096081 0.709739 0.710679
O O3 0.159589 0.698743 0.512528
O O4 0.118040 0.850075 0.592010
O O5 0.990710 0.097471 0.082130
O O6 0.559769 0.374289 0.375095
O O7 0.618995 0.405499 0.183565
O O8 0.554896 0.274213 0.192847
O O9 0.643911 0.273386 0.318900
O O10 0.293088 0.648012 0.112113
O O11 0.258111 0.514629 0.236161
O O12 0.228570 0.663147 0.321752
O O13 0.900537 0.673186 0.509656
#
# Coordination Sequence:
#
# PCOD9371763 Si02
#       7
#    16   8  16  16  16  16  16
#     4  11  26  47  77 116 156 199 268 324 393 484
#     4  10  22  46  74 112 146 206 256 322 394 470
#     4  10  25  48  71 112 153 195 262 323 385 481
#     4  12  25  46  81 108 156 212 250 333 403 454
#     4   9  26  47  73 112 150 202 258 318 391 479
#     4   9  24  46  72 110 156 196 261 320 390 470
#     4  12  27  47  78 116 158 205 261 329 397 477
#
# _framework density 24.649764999999999
#
# number of rings (size 3 to 8) (size 9 to 14) (size 15 to 20)
#    0.923    0.615    1.538    0.923    8.615    3.077 
#    2.769    0.000    0.000    0.000    0.000    0.000 
#    0.000    0.000    0.000    0.000    0.000    0.000 
#
# Total GULP energy -144937.033287 kJ/mol
# GULP energy per Si atom -5574.501280 kJ/mol
# Density = 2.459366 g / cm^3
# Si number density = 24.649765 Si / 1000 Ang^3
#
#
#
# Elastic Constant Matrix: (Units=GPa)
#
#
# Indices 1 2 3 4 5 6 
#
# 1 112.6893 34.4182 36.2596 0.0000 0.0000 0.0000
# 2 34.4182 97.1440 29.7632 0.0000 0.0000 0.0000
# 3 36.2596 29.7632 105.5545 0.0000 0.0000 0.0000
# 4 0.0000 0.0000 0.0000 21.3915 0.0000 0.0000
# 5 0.0000 0.0000 0.0000 0.0000 44.8874 0.0000
# 6 0.0000 0.0000 0.0000 0.0000 0.0000 36.9073
#
#
#
# Elastic Compliance Matrix: (Units=1/GPa)
#
#
# Indices 1 2 3 4 5 6 
#
# 1 0.010679 -0.002911 -0.002848 0.000000 0.000000 0.000000
# 2 -0.002911 0.012061 -0.002401 0.000000 0.000000 0.000000
# 3 -0.002848 -0.002401 0.011129 0.000000 0.000000 0.000000
# 4 0.000000 0.000000 0.000000 0.046748 0.000000 0.000000
# 5 0.000000 0.000000 0.000000 0.000000 0.022278 0.000000
# 6 0.000000 0.000000 0.000000 0.000000 0.000000 0.027095
#
#
# Mechanical properties :
#
#
# Convention : Reuss Voigt Hill
#
# Bulk Modulus (GPa) = 56.98013 57.36332 57.17172
# Shear Modulus (GPa) = 32.86033 34.96702 33.91367
#
# Velocity S-wave (km/s) = 3.65511 3.77046 3.71323
# Velocity P-wave (km/s) = 6.40150 6.50207 6.45198
#
# Compressibility (1/GPa) = 0.01754998
#
# Stress axis : x y z
#
# Youngs Moduli (GPa) = 93.63821 82.91173 89.85585
#
# Poissons Ratio (x) = 0.24138 0.25588
# Poissons Ratio (y) = 0.27260 0.21572
# Poissons Ratio (z) = 0.26665 0.19905
#
# Static dielectric constant tensor:
#      x y z
#    x 2.020740 0.000000 0.000000 
#    y 0.000000 1.992280 0.000000 
#    z 0.000000 0.000000 2.018300 
# 
# From -- ./inp_files/7953.got.cif
#   From: 2010.05.17/outbox.cif.g08.bks.cpg/sg43_4_cif.got.tgz:7953.got - 2010.06.03 19:21:55.
