data_PCOD9371859
_publ_section_title
;
Structure prediction by ZEFSAII (Michael W. Deem and Ramdas Pophale) SiO2 
 PCOD9371859
Probable space group: F D D 2
;
_chemical_formula_sum "Si O2"
_cell_formula_units_Z 80
_cell_length_a 9.872933
_cell_length_b 13.997538
_cell_length_c 24.539842
_cell_angle_alpha 90.000000
_cell_angle_beta 90.000000
_cell_angle_gamma 90.000000
_cell_volume 3391.326529
_symmetry_space_group_name_H-M "F D D 2"
_symmetry_group_IT_number 43
_symmetry_cell_setting 'orthorhombic'
loop_
_space_group_symop_operation_xyz
x,y,z
-x,-y,z
1/4-x,1/4+y,1/4+z
1/4+x,1/4-y,1/4+z
x,1/2+y,1/2+z
-x,1/2-y,1/2+z
1/4-x,3/4+y,3/4+z
1/4+x,3/4-y,3/4+z
1/2+x,y,1/2+z
1/2-x,-y,1/2+z
3/4-x,1/4+y,3/4+z
3/4+x,1/4-y,3/4+z
1/2+x,1/2+y,z
1/2-x,1/2-y,z
3/4-x,3/4+y,1/4+z
3/4+x,3/4-y,1/4+z
loop_
_atom_site_type_symbol
_atom_site_label
_atom_site_fract_x
_atom_site_fract_y
_atom_site_fract_z
Si Si1 0.434176 0.094512 0.068080
Si Si2 0.270257 0.496956 0.906016
Si Si3 0.193954 0.141326 0.007840
Si Si4 0.842603 0.899553 0.217907
Si Si5 0.642776 0.886663 0.713650
O O1 0.466789 0.190155 0.100794
O O2 0.500000 0.000000 0.093770
O O3 0.274501 0.090090 0.056414
O O4 0.501527 0.105008 0.008493
O O5 0.271701 0.416068 0.952699
O O6 0.391897 0.570960 0.920391
O O7 0.137946 0.562653 0.915498
O O8 0.250000 0.250000 0.005563
O O9 0.031465 0.135065 0.008567
O O10 0.993618 0.891433 0.242612
O O11 0.825593 0.006307 0.194911
#
# Coordination Sequence:
#
# PCOD9371859 Si02
#       5
#    16  16  16  16  16
#     4  12  23  44  76 113 145 200 265 310 397 469
#     4  10  23  42  75 101 147 203 246 315 383 460
#     4  12  23  39  72 104 150 190 240 323 375 452
#     4   9  20  44  73  95 142 205 235 308 396 437
#     4   9  20  44  74  98 150 196 242 319 389 454
#
# _framework density 23.589587999999999
#
# number of rings (size 3 to 8) (size 9 to 14) (size 15 to 20)
#    1.200    0.400    4.000    1.200    0.000    1.600 
#    0.000    4.000   13.200    0.000    0.000    0.000 
#    0.000    0.000    0.000    0.000    0.000    0.000 
#
# Total GULP energy -111593.507077 kJ/mol
# GULP energy per Si atom -5579.675354 kJ/mol
# Density = 2.353590 g / cm^3
# Si number density = 23.589588 Si / 1000 Ang^3
#
#
#
# Elastic Constant Matrix: (Units=GPa)
#
#
# Indices 1 2 3 4 5 6 
#
# 1 131.3620 35.8266 29.0764 0.0000 0.0000 0.0000
# 2 35.8266 161.5465 41.0087 0.0000 0.0000 0.0000
# 3 29.0764 41.0087 63.3212 0.0000 0.0000 0.0000
# 4 0.0000 0.0000 0.0000 36.0890 0.0000 0.0000
# 5 0.0000 0.0000 0.0000 0.0000 17.0696 0.0000
# 6 0.0000 0.0000 0.0000 0.0000 0.0000 35.1730
#
#
#
# Elastic Compliance Matrix: (Units=1/GPa)
#
#
# Indices 1 2 3 4 5 6 
#
# 1 0.008630 -0.001087 -0.003259 0.000000 0.000000 0.000000
# 2 -0.001087 0.007545 -0.004387 0.000000 0.000000 0.000000
# 3 -0.003259 -0.004387 0.020130 0.000000 0.000000 0.000000
# 4 0.000000 0.000000 0.000000 0.027709 0.000000 0.000000
# 5 0.000000 0.000000 0.000000 0.000000 0.058584 0.000000
# 6 0.000000 0.000000 0.000000 0.000000 0.000000 0.028431
#
#
# Mechanical properties :
#
#
# Convention : Reuss Voigt Hill
#
# Bulk Modulus (GPa) = 53.08045 63.11699 58.09872
# Shear Modulus (GPa) = 28.60815 34.35421 31.48118
#
# Velocity S-wave (km/s) = 3.48623 3.82033 3.65709
# Velocity P-wave (km/s) = 6.22539 6.80252 6.52034
#
# Compressibility (1/GPa) = 0.01883933
#
# Stress axis : x y z
#
# Youngs Moduli (GPa) = 115.87058 132.54028 49.67600
#
# Poissons Ratio (x) = 0.14402 0.16190
# Poissons Ratio (y) = 0.12591 0.21794
# Poissons Ratio (z) = 0.37765 0.58150
#
# Static dielectric constant tensor:
#      x y z
#    x 1.980170 0.000000 0.000000 
#    y 0.000000 1.947830 0.000000 
#    z 0.000000 0.000000 1.826660 
# 
# From -- ./inp_files/24920.got.cif
#   From: 2010.05.17/outbox.cif.g08.bks.cpg/sg43_13_cif.got.tgz:24920.got - 2010.06.03 19:21:55.
