data_PCOD9371945
_publ_section_title
;
Structure prediction by ZEFSAII (Michael W. Deem and Ramdas Pophale) SiO2 
 PCOD9371945
Probable space group: F D D 2
;
_chemical_formula_sum "Si O2"
_cell_formula_units_Z 56
_cell_length_a 4.800021
_cell_length_b 16.233382
_cell_length_c 27.147652
_cell_angle_alpha 90.000000
_cell_angle_beta 90.000000
_cell_angle_gamma 90.000000
_cell_volume 2115.360640
_symmetry_space_group_name_H-M "F D D 2"
_symmetry_group_IT_number 43
_symmetry_cell_setting 'orthorhombic'
loop_
_space_group_symop_operation_xyz
x,y,z
-x,-y,z
1/4-x,1/4+y,1/4+z
1/4+x,1/4-y,1/4+z
x,1/2+y,1/2+z
-x,1/2-y,1/2+z
1/4-x,3/4+y,3/4+z
1/4+x,3/4-y,3/4+z
1/2+x,y,1/2+z
1/2-x,-y,1/2+z
3/4-x,1/4+y,3/4+z
3/4+x,1/4-y,3/4+z
1/2+x,1/2+y,z
1/2-x,1/2-y,z
3/4-x,3/4+y,1/4+z
3/4+x,3/4-y,1/4+z
loop_
_atom_site_type_symbol
_atom_site_label
_atom_site_fract_x
_atom_site_fract_y
_atom_site_fract_z
Si Si1 0.956105 0.328601 0.625000
Si Si2 0.093128 0.909913 0.027170
Si Si3 0.591712 0.380004 0.462133
Si Si4 0.250000 0.250000 0.417619
O O1 0.750000 0.250000 0.629941
O O2 0.046142 0.340806 0.568352
O O3 0.220981 0.328949 0.662224
O O4 0.858208 0.423383 0.638121
O O5 0.000000 0.000000 0.044822
O O6 0.407107 0.910560 0.008196
O O7 0.903780 0.895098 0.978662
O O8 0.484302 0.288749 0.452175
#
# Coordination Sequence:
#
# PCOD9371945 Si02
#       4
#    16  16  16   8
#     4  10  23  45  75 110 157 207 261 329 407 477
#     4  12  24  46  75 112 150 206 260 329 398 481
#     4  10  25  44  73 105 155 201 256 325 397 470
#     4   8  22  50  66 116 152 202 260 340 374 494
#
# _framework density 26.473026000000001
#
# number of rings (size 3 to 8) (size 9 to 14) (size 15 to 20)
#    1.714    0.000    1.429    1.714    4.000    2.286 
#    0.000    2.857    0.000    0.000    0.000    0.000 
#    0.000    0.000    0.000    0.000    0.000    0.000 
#
# Total GULP energy -78139.311864 kJ/mol
# GULP energy per Si atom -5581.379419 kJ/mol
# Density = 2.641277 g / cm^3
# Si number density = 26.473026 Si / 1000 Ang^3
#
#
#
# Elastic Constant Matrix: (Units=GPa)
#
#
# Indices 1 2 3 4 5 6 
#
# 1 82.3328 31.4571 19.3342 0.0000 0.0000 0.0000
# 2 31.4571 175.6987 43.1290 0.0000 0.0000 0.0000
# 3 19.3342 43.1290 149.1846 0.0000 0.0000 0.0000
# 4 0.0000 0.0000 0.0000 20.4256 0.0000 0.0000
# 5 0.0000 0.0000 0.0000 0.0000 286.5796 0.0000
# 6 0.0000 0.0000 0.0000 0.0000 0.0000 49.7484
#
#
#
# Elastic Compliance Matrix: (Units=1/GPa)
#
#
# Indices 1 2 3 4 5 6 
#
# 1 0.013205 -0.002093 -0.001106 0.000000 0.000000 0.000000
# 2 -0.002093 0.006458 -0.001596 0.000000 0.000000 0.000000
# 3 -0.001106 -0.001596 0.007308 0.000000 0.000000 0.000000
# 4 0.000000 0.000000 0.000000 0.048958 0.000000 0.000000
# 5 0.000000 0.000000 0.000000 0.000000 0.003489 0.000000
# 6 0.000000 0.000000 0.000000 0.000000 0.000000 0.020101
#
#
# Mechanical properties :
#
#
# Convention : Reuss Voigt Hill
#
# Bulk Modulus (GPa) = 57.53309 66.11739 61.82524
# Shear Modulus (GPa) = 43.51492 92.23711 67.87602
#
# Velocity S-wave (km/s) = 4.05871 5.90911 5.06906
# Velocity P-wave (km/s) = 6.61393 8.46087 7.59376
#
# Compressibility (1/GPa) = 0.01738130
#
# Stress axis : x y z
#
# Youngs Moduli (GPa) = 75.72777 154.84790 136.83958
#
# Poissons Ratio (x) = 0.32405 0.15140
# Poissons Ratio (y) = 0.15847 0.21836
# Poissons Ratio (z) = 0.08378 0.24710
#
# Static dielectric constant tensor:
#      x y z
#    x 2.152300 0.000000 0.000000 
#    y 0.000000 2.223080 0.000000 
#    z 0.000000 0.000000 2.074090 
# 
# From -- ./inp_files/20847.got.cif
#   From: 2010.05.17/outbox.cif.g08.bks.cpg/sg43_11_cif.got.tgz:20847.got - 2010.06.03 19:21:55.
