data_PCOD9371823
_publ_section_title
;
Structure prediction by ZEFSAII (Michael W. Deem and Ramdas Pophale) SiO2 
 PCOD9371823
Probable space group: F D D 2
;
_chemical_formula_sum "Si O2"
_cell_formula_units_Z 104
_cell_length_a 9.078929
_cell_length_b 21.221489
_cell_length_c 24.133695
_cell_angle_alpha 90.000000
_cell_angle_beta 90.000000
_cell_angle_gamma 90.000000
_cell_volume 4649.800206
_symmetry_space_group_name_H-M "F D D 2"
_symmetry_group_IT_number 43
_symmetry_cell_setting 'orthorhombic'
loop_
_space_group_symop_operation_xyz
x,y,z
-x,-y,z
1/4-x,1/4+y,1/4+z
1/4+x,1/4-y,1/4+z
x,1/2+y,1/2+z
-x,1/2-y,1/2+z
1/4-x,3/4+y,3/4+z
1/4+x,3/4-y,3/4+z
1/2+x,y,1/2+z
1/2-x,-y,1/2+z
3/4-x,1/4+y,3/4+z
3/4+x,1/4-y,3/4+z
1/2+x,1/2+y,z
1/2-x,1/2-y,z
3/4-x,3/4+y,1/4+z
3/4+x,3/4-y,1/4+z
loop_
_atom_site_type_symbol
_atom_site_label
_atom_site_fract_x
_atom_site_fract_y
_atom_site_fract_z
Si Si1 0.287196 0.123499 0.045890
Si Si2 0.339794 0.692696 0.083294
Si Si3 0.426899 0.755856 0.369360
Si Si4 0.281411 0.574907 0.931560
Si Si5 0.250000 0.750000 0.617430
Si Si6 0.523707 0.673472 0.978615
Si Si7 0.881002 0.653327 0.789041
O O1 0.249782 0.062622 0.084061
O O2 0.278776 0.187420 0.081931
O O3 0.458053 0.108975 0.033950
O O4 0.174156 0.136489 0.995502
O O5 0.250000 0.750000 0.110552
O O6 0.424804 0.654788 0.131388
O O7 0.211190 0.662629 0.046058
O O8 0.463476 0.702759 0.035926
O O9 0.250000 0.750000 0.362304
O O10 0.453643 0.772282 0.433083
O O11 0.458739 0.690089 0.340292
O O12 0.362484 0.514495 0.906755
O O13 0.406322 0.624354 0.951906
O O14 0.183933 0.560838 0.984736
#
# Coordination Sequence:
#
# PCOD9371823 Si02
#       7
#    16  16  16  16   8  16  16
#     4  11  24  44  69 103 139 184 237 296 354 439
#     4  11  24  45  68 100 140 183 241 291 350 435
#     4  10  23  41  63 101 139 174 224 283 355 417
#     4  11  25  45  68 102 136 190 240 289 362 425
#     4  12  22  44  76 100 136 192 244 290 352 440
#     4  11  23  44  71 101 140 182 240 296 357 423
#     4  10  26  44  69 102 142 184 232 295 365 422
#
# _framework density 22.366551999999999
#
# number of rings (size 3 to 8) (size 9 to 14) (size 15 to 20)
#    0.000    1.231    3.077    0.923    3.231    6.769 
#    0.000    0.000    0.000    0.000    0.000    0.000 
#    0.000    0.000    0.000    0.000    0.000    0.000 
#
# Total GULP energy -144865.035725 kJ/mol
# GULP energy per Si atom -5571.732143 kJ/mol
# Density = 2.231564 g / cm^3
# Si number density = 22.366552 Si / 1000 Ang^3
#
#
#
# Elastic Constant Matrix: (Units=GPa)
#
#
# Indices 1 2 3 4 5 6 
#
# 1 130.3562 44.1458 68.6195 0.0000 0.0000 0.0000
# 2 44.1458 42.3986 10.8099 0.0000 0.0000 0.0000
# 3 68.6195 10.8099 100.8843 0.0000 0.0000 0.0000
# 4 0.0000 0.0000 0.0000 19.6930 0.0000 0.0000
# 5 0.0000 0.0000 0.0000 0.0000 30.7763 0.0000
# 6 0.0000 0.0000 0.0000 0.0000 0.0000 26.1468
#
#
#
# Elastic Compliance Matrix: (Units=1/GPa)
#
#
# Indices 1 2 3 4 5 6 
#
# 1 0.019663 -0.017543 -0.011495 0.000000 0.000000 0.000000
# 2 -0.017543 0.039899 0.007657 0.000000 0.000000 0.000000
# 3 -0.011495 0.007657 0.016910 0.000000 0.000000 0.000000
# 4 0.000000 0.000000 0.000000 0.050780 0.000000 0.000000
# 5 0.000000 0.000000 0.000000 0.000000 0.032492 0.000000
# 6 0.000000 0.000000 0.000000 0.000000 0.000000 0.038246
#
#
# Mechanical properties :
#
#
# Convention : Reuss Voigt Hill
#
# Bulk Modulus (GPa) = 29.66341 57.86551 43.76446
# Shear Modulus (GPa) = 19.84223 25.32748 22.58485
#
# Velocity S-wave (km/s) = 2.98172 3.36874 3.18112
# Velocity P-wave (km/s) = 5.01452 6.40772 5.75344
#
# Compressibility (1/GPa) = 0.03371157
#
# Stress axis : x y z
#
# Youngs Moduli (GPa) = 50.85703 25.06330 59.13549
#
# Poissons Ratio (x) = 0.43968 0.67974
# Poissons Ratio (y) = 0.89216 -0.45279
# Poissons Ratio (z) = 0.58458 -0.19191
#
# Static dielectric constant tensor:
#      x y z
#    x 1.896610 0.000000 0.000000 
#    y 0.000000 1.997040 0.000000 
#    z 0.000000 0.000000 1.857480 
# 
# From -- ./inp_files/24411.got.cif
#   From: 2010.05.17/outbox.cif.g08.bks.cpg/sg43_13_cif.got.tgz:24411.got - 2010.06.03 19:21:55.
