data_PCOD9371522
_publ_section_title
;
Structure prediction by ZEFSAII (Michael W. Deem and Ramdas Pophale) SiO2 
 PCOD9371522
Probable space group: F D D 2
;
_chemical_formula_sum "Si O2"
_cell_formula_units_Z 112
_cell_length_a 16.473874
_cell_length_b 29.167649
_cell_length_c 10.463021
_cell_angle_alpha 90.000000
_cell_angle_beta 90.000000
_cell_angle_gamma 90.000000
_cell_volume 5027.525268
_symmetry_space_group_name_H-M "F D D 2"
_symmetry_group_IT_number 43
_symmetry_cell_setting 'orthorhombic'
loop_
_space_group_symop_operation_xyz
x,y,z
-x,-y,z
1/4-x,1/4+y,1/4+z
1/4+x,1/4-y,1/4+z
x,1/2+y,1/2+z
-x,1/2-y,1/2+z
1/4-x,3/4+y,3/4+z
1/4+x,3/4-y,3/4+z
1/2+x,y,1/2+z
1/2-x,-y,1/2+z
3/4-x,1/4+y,3/4+z
3/4+x,1/4-y,3/4+z
1/2+x,1/2+y,z
1/2-x,1/2-y,z
3/4-x,3/4+y,1/4+z
3/4+x,3/4-y,1/4+z
loop_
_atom_site_type_symbol
_atom_site_label
_atom_site_fract_x
_atom_site_fract_y
_atom_site_fract_z
Si Si1 0.334706 0.345344 0.311210
Si Si2 0.442030 0.677914 0.752897
Si Si3 0.667149 0.773162 0.919345
Si Si4 0.942602 0.389370 0.351718
Si Si5 0.860639 0.442546 0.902183
Si Si6 0.792985 0.707312 0.430922
Si Si7 0.933647 0.276686 0.630998
O O1 0.264071 0.354486 0.206375
O O2 0.380576 0.390055 0.362624
O O3 0.281350 0.327697 0.430365
O O4 0.390608 0.308509 0.237899
O O5 0.395254 0.640128 0.667016
O O6 0.528553 0.657124 0.786843
O O7 0.372375 0.688052 0.858965
O O8 0.452093 0.726584 0.687040
O O9 0.750000 0.750000 0.874056
O O10 0.617873 0.793359 0.799279
O O11 0.689864 0.816103 0.011077
O O12 0.619316 0.735740 0.006196
O O13 0.922448 0.471846 0.816837
O O14 0.769251 0.450024 0.853124
O O15 0.750000 0.750000 0.359531
#
# Coordination Sequence:
#
# PCOD9371522 Si02
#       7
#    16  16  16  16  16  16  16
#     4  11  22  43  73  96 135 189 246 286 349 444
#     4  10  22  41  70 101 131 188 250 291 349 433
#     4  11  25  48  72 104 146 192 235 300 372 431
#     4  10  22  41  70 100 133 187 248 294 352 430
#     4  12  27  42  68 112 145 177 234 316 367 412
#     4  11  22  41  66  95 132 184 231 285 358 425
#     4  11  25  46  75 100 139 198 250 286 354 455
#
# _framework density 22.277360999999999
#
# number of rings (size 3 to 8) (size 9 to 14) (size 15 to 20)
#    0.000    1.143    4.286    1.286    4.000    1.143 
#   12.857    0.000    0.000    0.000    0.000    0.000 
#    0.000    0.000    0.000    0.000    0.000    0.000 
#
# Total GULP energy -156258.644238 kJ/mol
# GULP energy per Si atom -5580.665866 kJ/mol
# Density = 2.222666 g / cm^3
# Si number density = 22.277361 Si / 1000 Ang^3
#
#
#
# Elastic Constant Matrix: (Units=GPa)
#
#
# Indices 1 2 3 4 5 6 
#
# 1 81.4007 44.0929 41.1418 0.0000 0.0000 0.0000
# 2 44.0929 83.7547 31.5416 0.0000 0.0000 0.0000
# 3 41.1418 31.5416 74.0404 0.0000 0.0000 0.0000
# 4 0.0000 0.0000 0.0000 19.3086 0.0000 0.0000
# 5 0.0000 0.0000 0.0000 0.0000 18.9161 0.0000
# 6 0.0000 0.0000 0.0000 0.0000 0.0000 39.1959
#
#
#
# Elastic Compliance Matrix: (Units=1/GPa)
#
#
# Indices 1 2 3 4 5 6 
#
# 1 0.020617 -0.007789 -0.008138 0.000000 0.000000 0.000000
# 2 -0.007789 0.017164 -0.002984 0.000000 0.000000 0.000000
# 3 -0.008138 -0.002984 0.019299 0.000000 0.000000 0.000000
# 4 0.000000 0.000000 0.000000 0.051790 0.000000 0.000000
# 5 0.000000 0.000000 0.000000 0.000000 0.052865 0.000000
# 6 0.000000 0.000000 0.000000 0.000000 0.000000 0.025513
#
#
# Mechanical properties :
#
#
# Convention : Reuss Voigt Hill
#
# Bulk Modulus (GPa) = 51.92531 52.52761 52.22646
# Shear Modulus (GPa) = 21.59917 23.64543 22.62230
#
# Velocity S-wave (km/s) = 3.11715 3.26146 3.19012
# Velocity P-wave (km/s) = 6.02616 6.14923 6.08801
#
# Compressibility (1/GPa) = 0.01925843
#
# Stress axis : x y z
#
# Youngs Moduli (GPa) = 48.50274 58.26160 51.81542
#
# Poissons Ratio (x) = 0.45382 0.42168
# Poissons Ratio (y) = 0.37780 0.15460
# Poissons Ratio (z) = 0.39472 0.17383
#
# Static dielectric constant tensor:
#      x y z
#    x 1.792100 0.000000 0.000000 
#    y 0.000000 1.941700 0.000000 
#    z 0.000000 0.000000 1.902250 
# 
# From -- ./inp_files/6329.got.cif
#   From: 2010.05.17/outbox.cif.g08.bks.cpg/sg43_4_cif.got.tgz:6329.got - 2010.06.03 19:21:55.
