data_PCOD9371792
_publ_section_title
;
Structure prediction by ZEFSAII (Michael W. Deem and Ramdas Pophale) SiO2 
 PCOD9371792
Probable space group: F D D 2
;
_chemical_formula_sum "Si O2"
_cell_formula_units_Z 88
_cell_length_a 9.429545
_cell_length_b 24.350998
_cell_length_c 14.120513
_cell_angle_alpha 90.000000
_cell_angle_beta 90.000000
_cell_angle_gamma 90.000000
_cell_volume 3242.335694
_symmetry_space_group_name_H-M "F D D 2"
_symmetry_group_IT_number 43
_symmetry_cell_setting 'orthorhombic'
loop_
_space_group_symop_operation_xyz
x,y,z
-x,-y,z
1/4-x,1/4+y,1/4+z
1/4+x,1/4-y,1/4+z
x,1/2+y,1/2+z
-x,1/2-y,1/2+z
1/4-x,3/4+y,3/4+z
1/4+x,3/4-y,3/4+z
1/2+x,y,1/2+z
1/2-x,-y,1/2+z
3/4-x,1/4+y,3/4+z
3/4+x,1/4-y,3/4+z
1/2+x,1/2+y,z
1/2-x,1/2-y,z
3/4-x,3/4+y,1/4+z
3/4+x,3/4-y,1/4+z
loop_
_atom_site_type_symbol
_atom_site_label
_atom_site_fract_x
_atom_site_fract_y
_atom_site_fract_z
Si Si1 0.750000 0.250000 0.020761
Si Si2 0.988636 0.193552 0.601279
Si Si3 0.263856 0.946863 0.652757
Si Si4 0.777698 0.368116 0.180643
Si Si5 0.527447 0.804386 0.768336
Si Si6 0.574994 0.927082 0.341728
O O1 0.625697 0.231134 0.090105
O O2 0.834313 0.209749 0.951316
O O3 0.979781 0.170871 0.495385
O O4 0.826473 0.203894 0.618701
O O5 0.059338 0.147634 0.666477
O O6 0.433327 0.805982 0.674571
O O7 0.148035 0.942507 0.739805
O O8 0.230351 0.997111 0.578062
O O9 0.683958 0.322803 0.233597
O O10 0.724758 0.393178 0.081432
O O11 0.287595 0.887780 0.604556
#
# Coordination Sequence:
#
# PCOD9371792 Si02
#       6
#     8  16  16  16  16  16
#     4  12  26  50  84 118 168 232 286 356 442 530
#     4  11  24  50  81 125 175 219 288 363 428 525
#     4  12  29  56  90 131 177 234 298 367 452 534
#     4  10  22  49  85 124 179 230 282 361 441 527
#     4  11  24  53  92 127 179 234 294 363 453 529
#     4  12  28  55  88 131 180 225 302 372 436 541
#
# _framework density 27.140927999999999
#
# number of rings (size 3 to 8) (size 9 to 14) (size 15 to 20)
#    0.000    0.727    1.818    5.455    2.545    0.727 
#   22.909    0.000    4.000    0.000    0.000    0.000 
#    0.000    0.000    0.000    0.000    0.000    0.000 
#
# Total GULP energy -123026.818934 kJ/mol
# GULP energy per Si atom -5592.128133 kJ/mol
# Density = 2.707915 g / cm^3
# Si number density = 27.140928 Si / 1000 Ang^3
#
#
#
# Elastic Constant Matrix: (Units=GPa)
#
#
# Indices 1 2 3 4 5 6 
#
# 1 195.0281 79.4256 58.7947 0.0000 0.0000 0.0000
# 2 79.4256 157.8019 77.0369 0.0000 0.0000 0.0000
# 3 58.7947 77.0369 153.6351 0.0000 0.0000 0.0000
# 4 0.0000 0.0000 0.0000 45.4683 0.0000 0.0000
# 5 0.0000 0.0000 0.0000 0.0000 51.1155 0.0000
# 6 0.0000 0.0000 0.0000 0.0000 0.0000 49.0755
#
#
#
# Elastic Compliance Matrix: (Units=1/GPa)
#
#
# Indices 1 2 3 4 5 6 
#
# 1 0.006596 -0.002764 -0.001138 0.000000 0.000000 0.000000
# 2 -0.002764 0.009550 -0.003731 0.000000 0.000000 0.000000
# 3 -0.001138 -0.003731 0.008815 0.000000 0.000000 0.000000
# 4 0.000000 0.000000 0.000000 0.021993 0.000000 0.000000
# 5 0.000000 0.000000 0.000000 0.000000 0.019564 0.000000
# 6 0.000000 0.000000 0.000000 0.000000 0.000000 0.020377
#
#
# Mechanical properties :
#
#
# Convention : Reuss Voigt Hill
#
# Bulk Modulus (GPa) = 103.14833 104.10882 103.62858
# Shear Modulus (GPa) = 47.44151 48.54574 47.99363
#
# Velocity S-wave (km/s) = 4.18541 4.23384 4.20969
# Velocity P-wave (km/s) = 7.83863 7.89572 7.86722
#
# Compressibility (1/GPa) = 0.00969478
#
# Stress axis : x y z
#
# Youngs Moduli (GPa) = 151.59689 104.71531 113.44163
#
# Poissons Ratio (x) = 0.28949 0.12912
# Poissons Ratio (y) = 0.41909 0.42320
# Poissons Ratio (z) = 0.17255 0.39064
#
# Static dielectric constant tensor:
#      x y z
#    x 2.067790 0.000000 0.000000 
#    y 0.000000 2.690580 0.000000 
#    z 0.000000 0.000000 2.159250 
# 
# From -- ./inp_files/12889.got.cif
#   From: 2010.05.17/outbox.cif.g08.bks.cpg/sg43_7_cif.got.tgz:12889.got - 2010.06.03 19:21:55.
