data_PCOD9371587
_publ_section_title
;
Structure prediction by ZEFSAII (Michael W. Deem and Ramdas Pophale) SiO2 
 PCOD9371587
Probable space group: F D D 2
;
_chemical_formula_sum "Si O2"
_cell_formula_units_Z 112
_cell_length_a 5.458128
_cell_length_b 32.022627
_cell_length_c 28.974685
_cell_angle_alpha 90.000000
_cell_angle_beta 90.000000
_cell_angle_gamma 90.000000
_cell_volume 5064.299668
_symmetry_space_group_name_H-M "F D D 2"
_symmetry_group_IT_number 43
_symmetry_cell_setting 'orthorhombic'
loop_
_space_group_symop_operation_xyz
x,y,z
-x,-y,z
1/4-x,1/4+y,1/4+z
1/4+x,1/4-y,1/4+z
x,1/2+y,1/2+z
-x,1/2-y,1/2+z
1/4-x,3/4+y,3/4+z
1/4+x,3/4-y,3/4+z
1/2+x,y,1/2+z
1/2-x,-y,1/2+z
3/4-x,1/4+y,3/4+z
3/4+x,1/4-y,3/4+z
1/2+x,1/2+y,z
1/2-x,1/2-y,z
3/4-x,3/4+y,1/4+z
3/4+x,3/4-y,1/4+z
loop_
_atom_site_type_symbol
_atom_site_label
_atom_site_fract_x
_atom_site_fract_y
_atom_site_fract_z
Si Si1 0.939839 0.690195 0.997530
Si Si2 0.826134 0.460116 0.589098
Si Si3 0.951125 0.378252 0.640327
Si Si4 0.000000 0.500000 0.167647
Si Si5 0.336382 0.791190 0.593396
Si Si6 0.712820 0.383300 0.443807
Si Si7 0.000000 0.500000 0.787808
Si Si8 0.506187 0.223714 0.234966
O O1 0.845835 0.715260 0.953204
O O2 0.879408 0.642538 0.988541
O O3 0.830478 0.703981 0.047126
O O4 0.203557 0.711204 0.002578
O O5 0.948037 0.416531 0.604216
O O6 0.661275 0.473581 0.632072
O O7 0.708564 0.458227 0.538341
O O8 0.000000 0.500000 0.585063
O O9 0.866868 0.334806 0.617642
O O10 0.726734 0.384386 0.676873
O O11 0.227028 0.373229 0.660110
O O12 0.250000 0.750000 0.621246
O O13 0.589444 0.776001 0.573449
O O14 0.750906 0.431913 0.454528
O O15 0.250000 0.250000 0.232159
O O16 0.750000 0.250000 0.222832
#
# Coordination Sequence:
#
# PCOD9371587 Si02
#       8
#    16  16  16   8  16  16   8  16
#     4  11  23  41  68 101 142 176 229 292 364 421
#     4  11  25  44  71 101 143 183 233 301 361 425
#     4  12  28  46  70 107 143 185 241 292 352 422
#     4  12  20  40  70  99 138 170 229 290 356 414
#     4  10  24  45  69 100 138 186 231 289 357 420
#     4  12  28  46  71 105 142 187 241 291 346 429
#     4  10  22  42  70 101 136 188 223 292 358 432
#     4  11  25  50  72 101 140 194 241 291 357 419
#
# _framework density 22.115594000000002
#
# number of rings (size 3 to 8) (size 9 to 14) (size 15 to 20)
#    0.000    0.857    4.286    2.571    9.000    1.714 
#    5.143    0.000    0.000    0.000    0.000    0.000 
#    0.000    0.000    0.000    0.000    0.000    0.000 
#
# Total GULP energy -155932.364986 kJ/mol
# GULP energy per Si atom -5569.013035 kJ/mol
# Density = 2.206526 g / cm^3
# Si number density = 22.115594 Si / 1000 Ang^3
#
#
#
# Elastic Constant Matrix: (Units=GPa)
#
#
# Indices 1 2 3 4 5 6 
#
# 1 36.5077 18.7427 9.6644 0.0000 0.0000 0.0000
# 2 18.7427 157.9301 12.5153 0.0000 0.0000 0.0000
# 3 9.6644 12.5153 39.7032 0.0000 0.0000 0.0000
# 4 0.0000 0.0000 0.0000 -133.3150 0.0000 0.0000
# 5 0.0000 0.0000 0.0000 0.0000 10.9040 0.0000
# 6 0.0000 0.0000 0.0000 0.0000 0.0000 -4.3165
#
#
#
# Elastic Compliance Matrix: (Units=1/GPa)
#
#
# Indices 1 2 3 4 5 6 
#
# 1 0.030717 -0.003131 -0.006490 0.000000 0.000000 0.000000
# 2 -0.003131 0.006813 -0.001386 0.000000 0.000000 0.000000
# 3 -0.006490 -0.001386 0.027203 0.000000 0.000000 0.000000
# 4 0.000000 0.000000 0.000000 -0.007501 0.000000 0.000000
# 5 0.000000 0.000000 0.000000 0.000000 0.091710 0.000000
# 6 0.000000 0.000000 0.000000 0.000000 0.000000 -0.231670
#
#
# Mechanical properties :
#
#
# Convention : Reuss Voigt Hill
#
# Bulk Modulus (GPa) = 23.40800 35.10951 29.25876
# Shear Modulus (GPa) = -107.58591 -12.46426 -60.02508
#
# Velocity S-wave (km/s) = -6.98231 -2.37659 -5.21540
# Velocity P-wave (km/s) = 7.37538 2.89465 4.79673
#
# Compressibility (1/GPa) = 0.04272043
#
# Stress axis : x y z
#
# Youngs Moduli (GPa) = 32.55529 146.77170 36.76011
#
# Poissons Ratio (x) = 0.45956 0.23857
# Poissons Ratio (y) = 0.10193 0.05093
# Poissons Ratio (z) = 0.21128 0.20336
#
# Static dielectric constant tensor:
#      x y z
#    x 2.274550 0.000000 0.000000 
#    y 0.000000 1.906370 0.000000 
#    z 0.000000 0.000000 1.940060 
# 
# From -- ./inp_files/27465.got.cif
#   From: 2010.05.17/outbox.cif.g08.bks.cpg/sg43_14_cif.got.tgz:27465.got - 2010.06.03 19:21:55.
