data_PCOD9371853
_publ_section_title
;
Structure prediction by ZEFSAII (Michael W. Deem and Ramdas Pophale) SiO2 
 PCOD9371853
Probable space group: F D D 2
;
_chemical_formula_sum "Si O2"
_cell_formula_units_Z 112
_cell_length_a 12.587252
_cell_length_b 29.601370
_cell_length_c 14.400019
_cell_angle_alpha 90.000000
_cell_angle_beta 90.000000
_cell_angle_gamma 90.000000
_cell_volume 5365.445693
_symmetry_space_group_name_H-M "F D D 2"
_symmetry_group_IT_number 43
_symmetry_cell_setting 'orthorhombic'
loop_
_space_group_symop_operation_xyz
x,y,z
-x,-y,z
1/4-x,1/4+y,1/4+z
1/4+x,1/4-y,1/4+z
x,1/2+y,1/2+z
-x,1/2-y,1/2+z
1/4-x,3/4+y,3/4+z
1/4+x,3/4-y,3/4+z
1/2+x,y,1/2+z
1/2-x,-y,1/2+z
3/4-x,1/4+y,3/4+z
3/4+x,1/4-y,3/4+z
1/2+x,1/2+y,z
1/2-x,1/2-y,z
3/4-x,3/4+y,1/4+z
3/4+x,3/4-y,1/4+z
loop_
_atom_site_type_symbol
_atom_site_label
_atom_site_fract_x
_atom_site_fract_y
_atom_site_fract_z
Si Si1 0.639033 0.347698 0.850100
Si Si2 0.322203 0.205698 0.632715
Si Si3 0.818031 0.832698 0.481455
Si Si4 0.276703 0.151756 0.814197
Si Si5 0.567692 0.260342 0.964838
Si Si6 0.325542 0.648047 0.631900
Si Si7 0.345046 0.714736 0.473703
O O1 0.753952 0.356488 0.898171
O O2 0.600592 0.300428 0.895890
O O3 0.648359 0.346470 0.739812
O O4 0.546809 0.383361 0.872918
O O5 0.250000 0.250000 0.633348
O O6 0.264334 0.169507 0.566624
O O7 0.314653 0.187331 0.736138
O O8 0.423328 0.220523 0.571009
O O9 0.920639 0.856578 0.523578
O O10 0.852147 0.782010 0.454703
O O11 0.154019 0.140014 0.836454
O O12 0.325791 0.171309 0.908378
O O13 0.451894 0.240783 0.948366
O O14 0.346480 0.694225 0.576719
O O15 0.250000 0.750000 0.461242
#
# Coordination Sequence:
#
# PCOD9371853 Si02
#       7
#    16  16  16  16  16  16  16
#     4  11  26  44  72 101 144 184 230 297 364 411
#     4   9  21  39  65  94 124 169 231 287 333 392
#     4  10  23  42  71  98 129 181 240 283 336 421
#     4  12  23  42  69  99 135 187 234 282 345 430
#     4  10  23  46  68  99 139 180 237 297 335 423
#     4  12  26  45  68 104 145 184 227 296 361 420
#     4  12  26  42  67 104 146 185 232 290 359 423
#
# _framework density 20.874313999999998
#
# number of rings (size 3 to 8) (size 9 to 14) (size 15 to 20)
#    0.000    1.143    2.857    3.429    4.000    2.286 
#    0.000    0.000    0.000    0.000    0.000    0.000 
#    0.000    0.000    0.000    0.000    0.000    0.000 
#
# Total GULP energy -156300.229165 kJ/mol
# GULP energy per Si atom -5582.151042 kJ/mol
# Density = 2.082680 g / cm^3
# Si number density = 20.874314 Si / 1000 Ang^3
#
#
#
# Elastic Constant Matrix: (Units=GPa)
#
#
# Indices 1 2 3 4 5 6 
#
# 1 89.1759 1.7529 19.1090 0.0000 0.0000 0.0000
# 2 1.7529 41.2933 18.7318 0.0000 0.0000 0.0000
# 3 19.1090 18.7318 122.5874 0.0000 0.0000 0.0000
# 4 0.0000 0.0000 0.0000 31.0785 0.0000 0.0000
# 5 0.0000 0.0000 0.0000 0.0000 22.9994 0.0000
# 6 0.0000 0.0000 0.0000 0.0000 0.0000 23.7690
#
#
#
# Elastic Compliance Matrix: (Units=1/GPa)
#
#
# Indices 1 2 3 4 5 6 
#
# 1 0.011606 0.000352 -0.001863 0.000000 0.000000 0.000000
# 2 0.000352 0.026031 -0.004033 0.000000 0.000000 0.000000
# 3 -0.001863 -0.004033 0.009064 0.000000 0.000000 0.000000
# 4 0.000000 0.000000 0.000000 0.032177 0.000000 0.000000
# 5 0.000000 0.000000 0.000000 0.000000 0.043479 0.000000
# 6 0.000000 0.000000 0.000000 0.000000 0.000000 0.042072
#
#
# Mechanical properties :
#
#
# Convention : Reuss Voigt Hill
#
# Bulk Modulus (GPa) = 28.07800 36.91601 32.49701
# Shear Modulus (GPa) = 26.68273 29.80024 28.24149
#
# Velocity S-wave (km/s) = 3.57915 3.78246 3.68221
# Velocity P-wave (km/s) = 5.52816 6.06624 5.80344
#
# Compressibility (1/GPa) = 0.03561507
#
# Stress axis : x y z
#
# Youngs Moduli (GPa) = 86.16170 38.41523 110.32585
#
# Poissons Ratio (x) = -0.01354 0.20554
# Poissons Ratio (y) = -0.03037 0.44490
# Poissons Ratio (z) = 0.16052 0.15491
#
# Static dielectric constant tensor:
#      x y z
#    x 1.765510 0.000000 0.000000 
#    y 0.000000 1.764780 0.000000 
#    z 0.000000 0.000000 1.750870 
# 
# From -- ./inp_files/9781.got.cif
#   From: 2010.05.17/outbox.cif.g08.bks.cpg/sg43_5_cif.got.tgz:9781.got - 2010.06.03 19:21:55.
