data_PCOD9371947
_publ_section_title
;
Structure prediction by ZEFSAII (Michael W. Deem and Ramdas Pophale) SiO2 
 PCOD9371947
Probable space group: F D D 2
;
_chemical_formula_sum "Si O2"
_cell_formula_units_Z 64
_cell_length_a 25.912674
_cell_length_b 19.872305
_cell_length_c 4.866955
_cell_angle_alpha 90.000000
_cell_angle_beta 90.000000
_cell_angle_gamma 90.000000
_cell_volume 2506.212006
_symmetry_space_group_name_H-M "F D D 2"
_symmetry_group_IT_number 43
_symmetry_cell_setting 'orthorhombic'
loop_
_space_group_symop_operation_xyz
x,y,z
-x,-y,z
1/4-x,1/4+y,1/4+z
1/4+x,1/4-y,1/4+z
x,1/2+y,1/2+z
-x,1/2-y,1/2+z
1/4-x,3/4+y,3/4+z
1/4+x,3/4-y,3/4+z
1/2+x,y,1/2+z
1/2-x,-y,1/2+z
3/4-x,1/4+y,3/4+z
3/4+x,1/4-y,3/4+z
1/2+x,1/2+y,z
1/2-x,1/2-y,z
3/4-x,3/4+y,1/4+z
3/4+x,3/4-y,1/4+z
loop_
_atom_site_type_symbol
_atom_site_label
_atom_site_fract_x
_atom_site_fract_y
_atom_site_fract_z
Si Si1 0.501264 0.210375 0.503340
Si Si2 0.425893 0.038000 0.340677
Si Si3 0.832857 0.640035 0.245296
Si Si4 0.735820 0.159073 0.082519
O O1 0.473513 0.243707 0.243806
O O2 0.543699 0.163589 0.353849
O O3 0.467692 0.163587 0.707888
O O4 0.381501 0.093979 0.313228
O O5 0.454415 0.043424 0.629076
O O6 0.408138 0.959875 0.334990
O O7 0.468543 0.064309 0.124312
O O8 0.796549 0.655457 0.511999
#
# Coordination Sequence:
#
# PCOD9371947 Si02
#       4
#    16  16  16  16
#     4  10  23  45  76 107 154 200 262 323 403 471
#     4  12  26  49  76 111 160 206 267 332 412 479
#     4  10  29  46  79 117 154 209 270 332 409 494
#     4  10  27  45  75 108 158 205 258 331 407 475
#
# _framework density 25.536549000000001
#
# number of rings (size 3 to 8) (size 9 to 14) (size 15 to 20)
#    1.500    0.000    0.000    2.250    7.000   12.000 
#    0.000    0.000    0.000    0.000    0.000    0.000 
#    0.000    0.000    0.000    0.000    0.000    0.000 
#
# Total GULP energy -89106.186897 kJ/mol
# GULP energy per Si atom -5569.136681 kJ/mol
# Density = 2.547843 g / cm^3
# Si number density = 25.536549 Si / 1000 Ang^3
#
#
#
# Elastic Constant Matrix: (Units=GPa)
#
#
# Indices 1 2 3 4 5 6 
#
# 1 113.4538 66.4775 0.1867 -0.0068 0.0071 0.0025
# 2 66.4775 178.4204 33.7663 0.0825 0.0227 0.0031
# 3 0.1867 33.7663 63.6263 0.1794 0.0441 0.0096
# 4 -0.0068 0.0825 0.1794 -57.3130 0.0511 0.0071
# 5 0.0071 0.0227 0.0441 0.0511 -13.6592 -0.0022
# 6 0.0025 0.0031 0.0096 0.0071 -0.0022 42.6479
#
#
#
# Elastic Compliance Matrix: (Units=1/GPa)
#
#
# Indices 1 2 3 4 5 6 
#
# 1 0.011628 -0.004809 0.002518 0.000000 0.000006 -0.000001
# 2 -0.004809 0.008219 -0.004348 -0.000001 -0.000003 0.000001
# 3 0.002518 -0.004348 0.018017 0.000050 0.000052 -0.000004
# 4 0.000000 -0.000001 0.000050 -0.017448 -0.000065 0.000003
# 5 0.000006 -0.000003 0.000052 -0.000065 -0.073211 -0.000004
# 6 -0.000001 0.000001 -0.000004 0.000003 -0.000004 0.023448
#
#
# Mechanical properties :
#
#
# Convention : Reuss Voigt Hill
#
# Bulk Modulus (GPa) = 40.67348 61.81795 51.24572
# Shear Modulus (GPa) = -634.97057 11.33981 -311.81538
#
# Velocity S-wave (km/s) = -15.78580 2.10956 -11.06212
# Velocity P-wave (km/s) = 17.78463 5.49489 11.96034
#
# Compressibility (1/GPa) = 0.02458604
#
# Stress axis : x y z
#
# Youngs Moduli (GPa) = 86.00107 121.66451 55.50441
#
# Poissons Ratio (x) = 0.58507 -0.13976
# Poissons Ratio (y) = 0.41357 0.24132
# Poissons Ratio (z) = -0.21655 0.52898
#
# Static dielectric constant tensor:
#      x y z
#    x 2.045030 -0.000130 -0.000020 
#    y -0.000130 2.680500 0.000070 
#    z -0.000020 0.000070 2.026160 
# 
# From -- ./inp_files/1111.got.cif
#   From: 2010.05.17/outbox.cif.g08.bks.cpg/sg43_1_cif.got.tgz:1111.got - 2010.06.03 19:21:55.
