data_PCOD9371348
_publ_section_title
;
Structure prediction by ZEFSAII (Michael W. Deem and Ramdas Pophale) SiO2 
 PCOD9371348
Probable space group: F D D 2
;
_chemical_formula_sum "Si O2"
_cell_formula_units_Z 88
_cell_length_a 17.575379
_cell_length_b 9.633727
_cell_length_c 21.158279
_cell_angle_alpha 90.000000
_cell_angle_beta 90.000000
_cell_angle_gamma 90.000000
_cell_volume 3582.443698
_symmetry_space_group_name_H-M "F D D 2"
_symmetry_group_IT_number 43
_symmetry_cell_setting 'orthorhombic'
loop_
_space_group_symop_operation_xyz
x,y,z
-x,-y,z
1/4-x,1/4+y,1/4+z
1/4+x,1/4-y,1/4+z
x,1/2+y,1/2+z
-x,1/2-y,1/2+z
1/4-x,3/4+y,3/4+z
1/4+x,3/4-y,3/4+z
1/2+x,y,1/2+z
1/2-x,-y,1/2+z
3/4-x,1/4+y,3/4+z
3/4+x,1/4-y,3/4+z
1/2+x,1/2+y,z
1/2-x,1/2-y,z
3/4-x,3/4+y,1/4+z
3/4+x,3/4-y,1/4+z
loop_
_atom_site_type_symbol
_atom_site_label
_atom_site_fract_x
_atom_site_fract_y
_atom_site_fract_z
Si Si1 0.067982 0.082477 0.099060
Si Si2 0.405125 0.331546 0.751245
Si Si3 0.742154 0.529893 0.125706
Si Si4 0.750381 0.414531 0.385793
Si Si5 0.888918 0.895460 0.972092
Si Si6 0.500000 0.500000 0.456759
O O1 0.024482 0.228468 0.082466
O O2 0.154254 0.079231 0.124982
O O3 0.084208 0.014782 0.030549
O O4 0.000000 0.000000 0.133958
O O5 0.463921 0.289273 0.807095
O O6 0.428743 0.300073 0.678554
O O7 0.394885 0.498836 0.749963
O O8 0.323337 0.259583 0.752644
O O9 0.795722 0.617103 0.172137
O O10 0.744684 0.380561 0.159578
O O11 0.750000 0.250000 0.375979
O O12 0.818408 0.453640 0.433987
#
# Coordination Sequence:
#
# PCOD9371348 Si02
#       6
#    16  16  16  16  16   8
#     4  12  26  44  69 109 145 186 239 305 367 432
#     4  10  21  46  68  99 140 188 238 300 358 438
#     4  11  24  46  70 100 150 186 244 307 361 440
#     4  10  22  44  73 100 138 190 238 290 362 436
#     4  10  23  42  69 101 133 185 239 290 359 431
#     4  10  24  48  64 108 142 198 242 294 380 438
#
# _framework density 24.564239000000001
#
# number of rings (size 3 to 8) (size 9 to 14) (size 15 to 20)
#    0.000    1.455    1.818    2.182    2.545    1.455 
#   45.818    0.000    0.000    0.000    0.000    0.000 
#    0.000    0.000    0.000    0.000    0.000    0.000 
#
# Total GULP energy -122694.319984 kJ/mol
# GULP energy per Si atom -5577.014545 kJ/mol
# Density = 2.450833 g / cm^3
# Si number density = 24.564239 Si / 1000 Ang^3
#
#
#
# Elastic Constant Matrix: (Units=GPa)
#
#
# Indices 1 2 3 4 5 6 
#
# 1 169.5182 25.3076 19.4203 0.0000 0.0000 0.0000
# 2 25.3076 65.3043 -0.3639 0.0000 0.0000 0.0000
# 3 19.4203 -0.3639 69.0357 0.0000 0.0000 0.0000
# 4 0.0000 0.0000 0.0000 18.5905 0.0000 0.0000
# 5 0.0000 0.0000 0.0000 0.0000 45.9837 0.0000
# 6 0.0000 0.0000 0.0000 0.0000 0.0000 42.9392
#
#
#
# Elastic Compliance Matrix: (Units=1/GPa)
#
#
# Indices 1 2 3 4 5 6 
#
# 1 0.006486 -0.002524 -0.001838 0.000000 0.000000 0.000000
# 2 -0.002524 0.016295 0.000796 0.000000 0.000000 0.000000
# 3 -0.001838 0.000796 0.015006 0.000000 0.000000 0.000000
# 4 0.000000 0.000000 0.000000 0.053791 0.000000 0.000000
# 5 0.000000 0.000000 0.000000 0.000000 0.021747 0.000000
# 6 0.000000 0.000000 0.000000 0.000000 0.000000 0.023289
#
#
# Mechanical properties :
#
#
# Convention : Reuss Voigt Hill
#
# Bulk Modulus (GPa) = 32.61968 43.62068 38.12018
# Shear Modulus (GPa) = 32.47478 38.80231 35.63855
#
# Velocity S-wave (km/s) = 3.63992 3.97876 3.81311
# Velocity P-wave (km/s) = 5.56539 6.23729 5.91089
#
# Compressibility (1/GPa) = 0.03065634
#
# Stress axis : x y z
#
# Youngs Moduli (GPa) = 154.16782 61.36671 66.63784
#
# Poissons Ratio (x) = 0.15489 0.12248
# Poissons Ratio (y) = 0.38911 -0.05304
# Poissons Ratio (z) = 0.28336 -0.04884
#
# Static dielectric constant tensor:
#      x y z
#    x 1.990050 0.000000 0.000000 
#    y 0.000000 2.040240 0.000000 
#    z 0.000000 0.000000 1.999210 
# 
# From -- ./inp_files/17960.got.cif
#   From: 2010.05.17/outbox.cif.g08.bks.cpg/sg43_9_cif.got.tgz:17960.got - 2010.06.03 19:21:55.
