data_PCOD9371006
_publ_section_title
;
Structure prediction by ZEFSAII (Michael W. Deem and Ramdas Pophale) SiO2 
 PCOD9371006
Probable space group: F D D 2
;
_chemical_formula_sum "Si O2"
_cell_formula_units_Z 96
_cell_length_a 12.137056
_cell_length_b 14.229285
_cell_length_c 26.557898
_cell_angle_alpha 90.000000
_cell_angle_beta 90.000000
_cell_angle_gamma 90.000000
_cell_volume 4586.592244
_symmetry_space_group_name_H-M "F D D 2"
_symmetry_group_IT_number 43
_symmetry_cell_setting 'orthorhombic'
loop_
_space_group_symop_operation_xyz
x,y,z
-x,-y,z
1/4-x,1/4+y,1/4+z
1/4+x,1/4-y,1/4+z
x,1/2+y,1/2+z
-x,1/2-y,1/2+z
1/4-x,3/4+y,3/4+z
1/4+x,3/4-y,3/4+z
1/2+x,y,1/2+z
1/2-x,-y,1/2+z
3/4-x,1/4+y,3/4+z
3/4+x,1/4-y,3/4+z
1/2+x,1/2+y,z
1/2-x,1/2-y,z
3/4-x,3/4+y,1/4+z
3/4+x,3/4-y,1/4+z
loop_
_atom_site_type_symbol
_atom_site_label
_atom_site_fract_x
_atom_site_fract_y
_atom_site_fract_z
Si Si1 0.550928 0.601288 0.775120
Si Si2 0.887680 0.559110 0.408038
Si Si3 0.150222 0.042743 0.669017
Si Si4 0.370120 0.522667 0.017003
Si Si5 0.377458 0.260486 0.377363
Si Si6 0.705251 0.620447 0.869231
O O1 0.500000 0.500000 0.790845
O O2 0.610016 0.580649 0.722123
O O3 0.458514 0.680918 0.765433
O O4 0.640797 0.632030 0.816818
O O5 0.853080 0.581147 0.465723
O O6 0.906746 0.649738 0.374244
O O7 0.800260 0.488156 0.384332
O O8 0.000000 0.500000 0.409957
O O9 0.080018 0.093726 0.624908
O O10 0.280786 0.051255 0.664015
O O11 0.110950 0.934674 0.660285
O O12 0.500000 0.500000 0.016645
O O13 0.355960 0.560647 0.073642
O O14 0.250000 0.250000 0.392099
#
# Coordination Sequence:
#
# PCOD9371006 Si02
#       6
#    16  16  16  16  16  16
#     4  12  21  37  64  99 129 166 215 271 321 373
#     4  11  19  37  65  92 118 162 218 257 303 374
#     4  11  22  41  62  94 137 160 212 272 323 375
#     4  10  21  35  62  91 121 164 211 255 311 370
#     4  11  24  44  62  91 131 168 207 265 321 381
#     4  11  21  36  64  97 124 162 213 268 316 373
#
# _framework density 20.930572000000002
#
# number of rings (size 3 to 8) (size 9 to 14) (size 15 to 20)
#    0.000    1.000    6.667    1.500    2.333    0.000 
#    3.000    0.833    0.000    0.000    0.000    0.000 
#    0.000    0.000    0.000    0.000    0.000    0.000 
#
# Total GULP energy -133812.147128 kJ/mol
# GULP energy per Si atom -5575.506130 kJ/mol
# Density = 2.088293 g / cm^3
# Si number density = 20.930572 Si / 1000 Ang^3
#
#
#
# Elastic Constant Matrix: (Units=GPa)
#
#
# Indices 1 2 3 4 5 6 
#
# 1 138.0266 10.2799 44.9101 0.0000 0.0000 0.0000
# 2 10.2799 17.0957 8.7271 0.0000 0.0000 0.0000
# 3 44.9101 8.7271 125.0879 0.0000 0.0000 0.0000
# 4 0.0000 0.0000 0.0000 20.9183 0.0000 0.0000
# 5 0.0000 0.0000 0.0000 0.0000 30.3519 0.0000
# 6 0.0000 0.0000 0.0000 0.0000 0.0000 26.3191
#
#
#
# Elastic Compliance Matrix: (Units=1/GPa)
#
#
# Indices 1 2 3 4 5 6 
#
# 1 0.008417 -0.003649 -0.002767 0.000000 0.000000 0.000000
# 2 -0.003649 0.062236 -0.003032 0.000000 0.000000 0.000000
# 3 -0.002767 -0.003032 0.009200 0.000000 0.000000 0.000000
# 4 0.000000 0.000000 0.000000 0.047805 0.000000 0.000000
# 5 0.000000 0.000000 0.000000 0.000000 0.032947 0.000000
# 6 0.000000 0.000000 0.000000 0.000000 0.000000 0.037995
#
#
# Mechanical properties :
#
#
# Convention : Reuss Voigt Hill
#
# Bulk Modulus (GPa) = 16.40520 45.33828 30.87174
# Shear Modulus (GPa) = 21.02475 29.93739 25.48107
#
# Velocity S-wave (km/s) = 3.17282 3.78606 3.49292
# Velocity P-wave (km/s) = 4.61274 6.38910 5.57216
#
# Compressibility (1/GPa) = 0.06095630
#
# Stress axis : x y z
#
# Youngs Moduli (GPa) = 118.80468 16.06788 108.70135
#
# Poissons Ratio (x) = 0.05863 0.30083
# Poissons Ratio (y) = 0.43347 0.32959
# Poissons Ratio (z) = 0.32879 0.04872
#
# Static dielectric constant tensor:
#      x y z
#    x 1.817870 0.000000 0.000000 
#    y 0.000000 1.802200 0.000000 
#    z 0.000000 0.000000 1.804040 
# 
# From -- ./inp_files/25058.got.cif
#   From: 2010.05.17/outbox.cif.g08.bks.cpg/sg43_13_cif.got.tgz:25058.got - 2010.06.03 19:21:55.
