data_PCOD9371669
_publ_section_title
;
Structure prediction by ZEFSAII (Michael W. Deem and Ramdas Pophale) SiO2 
 PCOD9371669
Probable space group: F D D 2
;
_chemical_formula_sum "Si O2"
_cell_formula_units_Z 64
_cell_length_a 9.180870
_cell_length_b 16.371768
_cell_length_c 20.027646
_cell_angle_alpha 90.000000
_cell_angle_beta 90.000000
_cell_angle_gamma 90.000000
_cell_volume 3010.296863
_symmetry_space_group_name_H-M "F D D 2"
_symmetry_group_IT_number 43
_symmetry_cell_setting 'orthorhombic'
loop_
_space_group_symop_operation_xyz
x,y,z
-x,-y,z
1/4-x,1/4+y,1/4+z
1/4+x,1/4-y,1/4+z
x,1/2+y,1/2+z
-x,1/2-y,1/2+z
1/4-x,3/4+y,3/4+z
1/4+x,3/4-y,3/4+z
1/2+x,y,1/2+z
1/2-x,-y,1/2+z
3/4-x,1/4+y,3/4+z
3/4+x,1/4-y,3/4+z
1/2+x,1/2+y,z
1/2-x,1/2-y,z
3/4-x,3/4+y,1/4+z
3/4+x,3/4-y,1/4+z
loop_
_atom_site_type_symbol
_atom_site_label
_atom_site_fract_x
_atom_site_fract_y
_atom_site_fract_z
Si Si1 0.499585 0.364333 0.482130
Si Si2 0.420915 0.235197 0.377584
Si Si3 0.990056 0.743682 0.727740
Si Si4 0.656809 0.317091 0.606777
O O1 0.508854 0.289852 0.430853
O O2 0.350169 0.411362 0.466658
O O3 0.626319 0.431236 0.475306
O O4 0.256475 0.394698 0.126366
O O5 0.250000 0.250000 0.393247
O O6 0.851213 0.481866 0.420764
O O7 0.442451 0.263094 0.301116
O O8 0.770338 0.910287 0.809584
O O9 0.750000 0.250000 0.566021
#
# Coordination Sequence:
#
# PCOD9371669 Si02
#       4
#    16  16  16  16
#     4  10  23  42  66  98 129 173 220 270 339 398
#     4  11  24  41  68  97 132 174 222 273 332 398
#     4  10  22  44  67  96 132 172 220 277 330 399
#     4  11  24  42  68  96 134 175 221 277 336 395
#
# _framework density 21.260362000000001
#
# number of rings (size 3 to 8) (size 9 to 14) (size 15 to 20)
#    0.000    1.500    0.000    3.750    7.000    2.000 
#   13.500    0.000    0.000    0.000    0.000    0.000 
#    0.000    0.000    0.000    0.000    0.000    0.000 
#
# Total GULP energy -89285.615301 kJ/mol
# GULP energy per Si atom -5580.350956 kJ/mol
# Density = 2.121197 g / cm^3
# Si number density = 21.260362 Si / 1000 Ang^3
#
#
#
# Elastic Constant Matrix: (Units=GPa)
#
#
# Indices 1 2 3 4 5 6 
#
# 1 81.2164 30.8689 41.5031 0.0000 0.0000 0.0000
# 2 30.8689 128.4482 53.3799 0.0000 0.0000 0.0000
# 3 41.5031 53.3799 116.1727 0.0000 0.0000 0.0000
# 4 0.0000 0.0000 0.0000 30.0537 0.0000 0.0000
# 5 0.0000 0.0000 0.0000 0.0000 34.7676 0.0000
# 6 0.0000 0.0000 0.0000 0.0000 0.0000 14.5972
#
#
#
# Elastic Compliance Matrix: (Units=1/GPa)
#
#
# Indices 1 2 3 4 5 6 
#
# 1 0.015373 -0.001745 -0.004690 0.000000 0.000000 0.000000
# 2 -0.001745 0.009821 -0.003889 0.000000 0.000000 0.000000
# 3 -0.004690 -0.003889 0.012070 0.000000 0.000000 0.000000
# 4 0.000000 0.000000 0.000000 0.033274 0.000000 0.000000
# 5 0.000000 0.000000 0.000000 0.000000 0.028762 0.000000
# 6 0.000000 0.000000 0.000000 0.000000 0.000000 0.068506
#
#
# Mechanical properties :
#
#
# Convention : Reuss Voigt Hill
#
# Bulk Modulus (GPa) = 60.18574 64.14904 62.16739
# Shear Modulus (GPa) = 25.77401 29.22272 27.49837
#
# Velocity S-wave (km/s) = 3.48559 3.71147 3.60030
# Velocity P-wave (km/s) = 6.67604 6.97175 6.82549
#
# Compressibility (1/GPa) = 0.01661523
#
# Stress axis : x y z
#
# Youngs Moduli (GPa) = 65.04967 101.82394 82.84753
#
# Poissons Ratio (x) = 0.17772 0.38856
# Poissons Ratio (y) = 0.11354 0.32220
# Poissons Ratio (z) = 0.30509 0.39600
#
# Static dielectric constant tensor:
#      x y z
#    x 1.812650 0.000000 0.000000 
#    y 0.000000 1.790560 0.000000 
#    z 0.000000 0.000000 1.759740 
# 
# From -- ./inp_files/13129.got.cif
#   From: 2010.05.17/outbox.cif.g08.bks.cpg/sg43_7_cif.got.tgz:13129.got - 2010.06.03 19:21:55.
