data_PCOD9371883
_publ_section_title
;
Structure prediction by ZEFSAII (Michael W. Deem and Ramdas Pophale) SiO2 
 PCOD9371883
Probable space group: F D D 2
;
_chemical_formula_sum "Si O2"
_cell_formula_units_Z 80
_cell_length_a 12.393357
_cell_length_b 24.907935
_cell_length_c 10.895921
_cell_angle_alpha 90.000000
_cell_angle_beta 90.000000
_cell_angle_gamma 90.000000
_cell_volume 3363.493785
_symmetry_space_group_name_H-M "F D D 2"
_symmetry_group_IT_number 43
_symmetry_cell_setting 'orthorhombic'
loop_
_space_group_symop_operation_xyz
x,y,z
-x,-y,z
1/4-x,1/4+y,1/4+z
1/4+x,1/4-y,1/4+z
x,1/2+y,1/2+z
-x,1/2-y,1/2+z
1/4-x,3/4+y,3/4+z
1/4+x,3/4-y,3/4+z
1/2+x,y,1/2+z
1/2-x,-y,1/2+z
3/4-x,1/4+y,3/4+z
3/4+x,1/4-y,3/4+z
1/2+x,1/2+y,z
1/2-x,1/2-y,z
3/4-x,3/4+y,1/4+z
3/4+x,3/4-y,1/4+z
loop_
_atom_site_type_symbol
_atom_site_label
_atom_site_fract_x
_atom_site_fract_y
_atom_site_fract_z
Si Si1 0.000000 0.500000 0.122141
Si Si2 0.769717 0.158810 0.927510
Si Si3 0.008284 0.409620 0.956143
Si Si4 0.500000 0.000000 0.522409
Si Si5 0.192606 0.945429 0.301749
Si Si6 0.408855 0.296517 0.071813
O O1 0.082452 0.465639 0.204760
O O2 0.946524 0.453802 0.036915
O O3 0.819003 0.207946 0.852756
O O4 0.647980 0.182531 0.948263
O O5 0.793778 0.105099 0.852159
O O6 0.796523 0.152981 0.071957
O O7 0.124538 0.434394 0.924475
O O8 0.022992 0.353695 0.025593
O O9 0.580861 0.967694 0.435167
O O10 0.247941 0.002168 0.308054
#
# Coordination Sequence:
#
# PCOD9371883 Si02
#       6
#     8  16  16   8  16  16
#     4  11  25  44  78 114 151 195 260 324 380 463
#     4  10  25  45  74 105 152 199 253 315 383 464
#     4  10  23  43  71 108 141 196 249 309 378 453
#     4  11  25  48  74 104 147 203 252 314 388 451
#     4  10  24  42  72 102 150 188 250 307 378 462
#     4  11  26  47  73 114 152 194 257 319 387 459
#
# _framework density 23.784793000000001
#
# number of rings (size 3 to 8) (size 9 to 14) (size 15 to 20)
#    1.200    0.400    0.000    3.000    5.600    3.200 
#    0.000    0.000    0.000    0.000    0.000    0.000 
#    0.000    0.000    0.000    0.000    0.000    0.000 
#
# Total GULP energy -111519.706556 kJ/mol
# GULP energy per Si atom -5575.985328 kJ/mol
# Density = 2.373066 g / cm^3
# Si number density = 23.784793 Si / 1000 Ang^3
#
#
#
# Elastic Constant Matrix: (Units=GPa)
#
#
# Indices 1 2 3 4 5 6 
#
# 1 64.8639 40.3353 17.1176 0.0000 0.0000 0.0000
# 2 40.3353 235.3202 79.8926 0.0000 0.0000 0.0000
# 3 17.1176 79.8926 125.1480 0.0000 0.0000 0.0000
# 4 0.0000 0.0000 0.0000 45.7169 0.0000 0.0000
# 5 0.0000 0.0000 0.0000 0.0000 1.8236 0.0000
# 6 0.0000 0.0000 0.0000 0.0000 0.0000 36.6164
#
#
#
# Elastic Compliance Matrix: (Units=1/GPa)
#
#
# Indices 1 2 3 4 5 6 
#
# 1 0.017292 -0.002759 -0.000604 0.000000 0.000000 0.000000
# 2 -0.002759 0.005866 -0.003367 0.000000 0.000000 0.000000
# 3 -0.000604 -0.003367 0.010223 0.000000 0.000000 0.000000
# 4 0.000000 0.000000 0.000000 0.021874 0.000000 0.000000
# 5 0.000000 0.000000 0.000000 0.000000 0.548371 0.000000
# 6 0.000000 0.000000 0.000000 0.000000 0.000000 0.027310
#
#
# Mechanical properties :
#
#
# Convention : Reuss Voigt Hill
#
# Bulk Modulus (GPa) = 50.20024 77.78034 63.99029
# Shear Modulus (GPa) = 7.68007 36.03048 21.85527
#
# Velocity S-wave (km/s) = 1.79889 3.89633 3.03459
# Velocity P-wave (km/s) = 5.04643 7.28111 6.26423
#
# Compressibility (1/GPa) = 0.01992022
#
# Stress axis : x y z
#
# Youngs Moduli (GPa) = 57.83056 170.48593 97.82174
#
# Poissons Ratio (x) = 0.47035 0.05908
# Poissons Ratio (y) = 0.15955 0.32938
# Poissons Ratio (z) = 0.03493 0.57405
#
# Static dielectric constant tensor:
#      x y z
#    x 1.961960 0.000000 0.000000 
#    y 0.000000 1.993190 0.000000 
#    z 0.000000 0.000000 1.969300 
# 
# From -- ./inp_files/6113.got.cif
#   From: 2010.05.17/outbox.cif.g08.bks.cpg/sg43_4_cif.got.tgz:6113.got - 2010.06.03 19:21:55.
