data_PCOD9371249
_publ_section_title
;
Structure prediction by ZEFSAII (Michael W. Deem and Ramdas Pophale) SiO2 
 PCOD9371249
Probable space group: F D D 2
;
_chemical_formula_sum "Si O2"
_cell_formula_units_Z 128
_cell_length_a 19.088864
_cell_length_b 23.626549
_cell_length_c 13.237244
_cell_angle_alpha 90.000000
_cell_angle_beta 90.000000
_cell_angle_gamma 90.000000
_cell_volume 5970.049737
_symmetry_space_group_name_H-M "F D D 2"
_symmetry_group_IT_number 43
_symmetry_cell_setting 'orthorhombic'
loop_
_space_group_symop_operation_xyz
x,y,z
-x,-y,z
1/4-x,1/4+y,1/4+z
1/4+x,1/4-y,1/4+z
x,1/2+y,1/2+z
-x,1/2-y,1/2+z
1/4-x,3/4+y,3/4+z
1/4+x,3/4-y,3/4+z
1/2+x,y,1/2+z
1/2-x,-y,1/2+z
3/4-x,1/4+y,3/4+z
3/4+x,1/4-y,3/4+z
1/2+x,1/2+y,z
1/2-x,1/2-y,z
3/4-x,3/4+y,1/4+z
3/4+x,3/4-y,1/4+z
loop_
_atom_site_type_symbol
_atom_site_label
_atom_site_fract_x
_atom_site_fract_y
_atom_site_fract_z
Si Si1 0.777142 0.083862 0.705680
Si Si2 0.622622 0.903092 0.833032
Si Si3 0.329060 0.228833 0.496417
Si Si4 0.654102 0.355568 0.542578
Si Si5 0.829617 0.499783 0.348291
Si Si6 0.065481 0.757883 0.825965
Si Si7 0.292702 0.122440 0.628217
Si Si8 0.970906 0.056460 0.901706
O O1 0.846338 0.109811 0.649624
O O2 0.776114 0.043611 0.801622
O O3 0.727574 0.138254 0.719989
O O4 0.748748 0.041752 0.621264
O O5 0.616776 0.969198 0.804244
O O6 0.670971 0.876341 0.741737
O O7 0.541344 0.882281 0.854798
O O8 0.656710 0.891832 0.942034
O O9 0.250000 0.250000 0.479724
O O10 0.368257 0.221021 0.390432
O O11 0.327783 0.172311 0.562772
O O12 0.595549 0.306534 0.534627
O O13 0.726217 0.321272 0.560659
O O14 0.817750 0.478479 0.459546
O O15 0.897093 0.540261 0.358244
O O16 0.059684 0.690531 0.839214
O O17 0.000000 0.000000 0.954116
#
# Coordination Sequence:
#
# PCOD9371249 Si02
#       8
#    16  16  16  16  16  16  16  16
#     4  10  24  39  63  99 127 171 222 277 338 407
#     4  10  21  42  65  94 131 176 225 274 344 411
#     4   9  22  44  64  91 128 177 223 274 346 415
#     4   9  22  39  65  93 134 175 217 279 329 413
#     4  11  23  42  65  93 134 171 221 276 344 404
#     4  11  25  40  66  96 126 170 222 281 345 406
#     4  10  23  41  65  94 132 175 225 286 338 413
#     4   8  20  41  59  92 127 168 214 262 335 396
#
# _framework density 21.440356999999999
#
# number of rings (size 3 to 8) (size 9 to 14) (size 15 to 20)
#    0.750    1.500    0.000    0.750    3.500    8.500 
#    4.500    4.375    0.000    0.000    0.000    0.000 
#    0.000    0.000    0.000    0.000    0.000    0.000 
#
# Total GULP energy -178152.743220 kJ/mol
# GULP energy per Si atom -5567.273226 kJ/mol
# Density = 2.139156 g / cm^3
# Si number density = 21.440357 Si / 1000 Ang^3
#
#
#
# Elastic Constant Matrix: (Units=GPa)
#
#
# Indices 1 2 3 4 5 6 
#
# 1 40.3648 24.8448 22.9890 0.0000 0.0000 0.0000
# 2 24.8448 109.0926 36.0802 0.0000 0.0000 0.0000
# 3 22.9890 36.0802 92.0066 0.0000 0.0000 0.0000
# 4 0.0000 0.0000 0.0000 25.7697 0.0000 0.0000
# 5 0.0000 0.0000 0.0000 0.0000 35.4270 0.0000
# 6 0.0000 0.0000 0.0000 0.0000 0.0000 42.7147
#
#
#
# Elastic Compliance Matrix: (Units=1/GPa)
#
#
# Indices 1 2 3 4 5 6 
#
# 1 0.031268 -0.005213 -0.005768 0.000000 0.000000 0.000000
# 2 -0.005213 0.011402 -0.003169 0.000000 0.000000 0.000000
# 3 -0.005768 -0.003169 0.013553 0.000000 0.000000 0.000000
# 4 0.000000 0.000000 0.000000 0.038805 0.000000 0.000000
# 5 0.000000 0.000000 0.000000 0.000000 0.028227 0.000000
# 6 0.000000 0.000000 0.000000 0.000000 0.000000 0.023411
#
#
# Mechanical properties :
#
#
# Convention : Reuss Voigt Hill
#
# Bulk Modulus (GPa) = 35.81392 45.47691 40.64542
# Shear Modulus (GPa) = 27.13355 31.28560 29.20958
#
# Velocity S-wave (km/s) = 3.56130 3.82408 3.69503
# Velocity P-wave (km/s) = 5.80092 6.38397 6.09942
#
# Compressibility (1/GPa) = 0.02792210
#
# Stress axis : x y z
#
# Youngs Moduli (GPa) = 31.98146 87.70591 73.78633
#
# Poissons Ratio (x) = 0.45723 0.42563
# Poissons Ratio (y) = 0.16673 0.23380
# Poissons Ratio (z) = 0.18448 0.27790
#
# Static dielectric constant tensor:
#      x y z
#    x 1.857090 0.000000 0.000000 
#    y 0.000000 1.740210 0.000000 
#    z 0.000000 0.000000 1.782640 
# 
# From -- ./inp_files/7676.got.cif
#   From: 2010.05.17/outbox.cif.g08.bks.cpg/sg43_4_cif.got.tgz:7676.got - 2010.06.03 19:21:55.
