data_PCOD9371132
_publ_section_title
;
Structure prediction by ZEFSAII (Michael W. Deem and Ramdas Pophale) SiO2 
 PCOD9371132
Probable space group: F D D 2
;
_chemical_formula_sum "Si O2"
_cell_formula_units_Z 112
_cell_length_a 22.572583
_cell_length_b 14.946047
_cell_length_c 15.004766
_cell_angle_alpha 90.000000
_cell_angle_beta 90.000000
_cell_angle_gamma 90.000000
_cell_volume 5062.171206
_symmetry_space_group_name_H-M "F D D 2"
_symmetry_group_IT_number 43
_symmetry_cell_setting 'orthorhombic'
loop_
_space_group_symop_operation_xyz
x,y,z
-x,-y,z
1/4-x,1/4+y,1/4+z
1/4+x,1/4-y,1/4+z
x,1/2+y,1/2+z
-x,1/2-y,1/2+z
1/4-x,3/4+y,3/4+z
1/4+x,3/4-y,3/4+z
1/2+x,y,1/2+z
1/2-x,-y,1/2+z
3/4-x,1/4+y,3/4+z
3/4+x,1/4-y,3/4+z
1/2+x,1/2+y,z
1/2-x,1/2-y,z
3/4-x,3/4+y,1/4+z
3/4+x,3/4-y,1/4+z
loop_
_atom_site_type_symbol
_atom_site_label
_atom_site_fract_x
_atom_site_fract_y
_atom_site_fract_z
Si Si1 0.883845 0.744055 0.482360
Si Si2 0.000000 0.000000 0.824199
Si Si3 0.500000 0.000000 0.728498
Si Si4 0.301076 0.125295 0.206155
Si Si5 0.019617 0.691729 0.646730
Si Si6 0.578637 0.461828 0.657996
Si Si7 0.868525 0.791525 0.275905
Si Si8 0.035836 0.642843 0.097798
O O1 0.816181 0.753952 0.521528
O O2 0.880325 0.759367 0.376429
O O3 0.901158 0.644314 0.514337
O O4 0.933196 0.814140 0.512721
O O5 0.992762 0.908225 0.879557
O O6 0.054002 0.976216 0.758128
O O7 0.499058 0.907763 0.673714
O O8 0.285104 0.064610 0.291435
O O9 0.358255 0.082868 0.159772
O O10 0.320254 0.221813 0.243585
O O11 0.075345 0.715378 0.709448
O O12 0.971895 0.770089 0.660462
O O13 0.578817 0.562505 0.623143
O O14 0.529353 0.403576 0.603726
#
# Coordination Sequence:
#
# PCOD9371132 Si02
#       8
#    16   8   8  16  16  16  16  16
#     4  11  24  42  68  97 143 189 235 296 366 436
#     4  10  25  40  74 107 128 190 244 289 374 424
#     4  10  21  40  60 103 134 178 234 291 358 418
#     4  12  22  41  72 106 140 177 231 313 363 416
#     4  11  22  40  69 100 145 178 228 305 360 431
#     4  10  25  49  67 103 142 185 243 296 349 444
#     4  11  22  39  68 103 141 175 236 298 373 422
#     4  10  23  45  65  94 143 191 230 287 357 436
#
# _framework density 22.124893
#
# number of rings (size 3 to 8) (size 9 to 14) (size 15 to 20)
#    0.000    1.429    4.286    2.143    2.000    0.000 
#   10.286    7.143    0.000    0.000    0.000    0.000 
#    0.000    0.000    0.000    0.000    0.000    0.000 
#
# Total GULP energy -156161.081614 kJ/mol
# GULP energy per Si atom -5577.181486 kJ/mol
# Density = 2.207454 g / cm^3
# Si number density = 22.124893 Si / 1000 Ang^3
#
#
#
# Elastic Constant Matrix: (Units=GPa)
#
#
# Indices 1 2 3 4 5 6 
#
# 1 67.5604 23.8889 4.3251 0.0000 0.0000 0.0000
# 2 23.8889 141.8517 22.3600 0.0000 0.0000 0.0000
# 3 4.3251 22.3600 36.2974 0.0000 0.0000 0.0000
# 4 0.0000 0.0000 0.0000 9.4366 0.0000 0.0000
# 5 0.0000 0.0000 0.0000 0.0000 19.7383 0.0000
# 6 0.0000 0.0000 0.0000 0.0000 0.0000 42.4751
#
#
#
# Elastic Compliance Matrix: (Units=1/GPa)
#
#
# Indices 1 2 3 4 5 6 
#
# 1 0.015741 -0.002609 -0.000269 0.000000 0.000000 0.000000
# 2 -0.002609 0.008240 -0.004765 0.000000 0.000000 0.000000
# 3 -0.000269 -0.004765 0.030518 0.000000 0.000000 0.000000
# 4 0.000000 0.000000 0.000000 0.105970 0.000000 0.000000
# 5 0.000000 0.000000 0.000000 0.000000 0.050663 0.000000
# 6 0.000000 0.000000 0.000000 0.000000 0.000000 0.023543
#
#
# Mechanical properties :
#
#
# Convention : Reuss Voigt Hill
#
# Bulk Modulus (GPa) = 25.50119 38.53971 32.02045
# Shear Modulus (GPa) = 19.00915 27.33904 23.17409
#
# Velocity S-wave (km/s) = 2.93435 3.51902 3.23990
# Velocity P-wave (km/s) = 4.79912 5.82824 5.33853
#
# Compressibility (1/GPa) = 0.03921385
#
# Stress axis : x y z
#
# Youngs Moduli (GPa) = 63.52777 121.35835 32.76789
#
# Poissons Ratio (x) = 0.31657 0.00881
# Poissons Ratio (y) = 0.16572 0.15615
# Poissons Ratio (z) = 0.01707 0.57830
#
# Static dielectric constant tensor:
#      x y z
#    x 1.906930 0.000000 0.000000 
#    y 0.000000 1.951360 0.000000 
#    z 0.000000 0.000000 1.845090 
# 
# From -- ./inp_files/11533.got.cif
#   From: 2010.05.17/outbox.cif.g08.bks.cpg/sg43_6_cif.got.tgz:11533.got - 2010.06.03 19:21:55.
