data_PCOD9371654
_publ_section_title
;
Structure prediction by ZEFSAII (Michael W. Deem and Ramdas Pophale) SiO2 
 PCOD9371654
Probable space group: F D D 2
;
_chemical_formula_sum "Si O2"
_cell_formula_units_Z 112
_cell_length_a 24.758172
_cell_length_b 16.337201
_cell_length_c 11.096298
_cell_angle_alpha 90.000000
_cell_angle_beta 90.000000
_cell_angle_gamma 90.000000
_cell_volume 4488.222097
_symmetry_space_group_name_H-M "F D D 2"
_symmetry_group_IT_number 43
_symmetry_cell_setting 'orthorhombic'
loop_
_space_group_symop_operation_xyz
x,y,z
-x,-y,z
1/4-x,1/4+y,1/4+z
1/4+x,1/4-y,1/4+z
x,1/2+y,1/2+z
-x,1/2-y,1/2+z
1/4-x,3/4+y,3/4+z
1/4+x,3/4-y,3/4+z
1/2+x,y,1/2+z
1/2-x,-y,1/2+z
3/4-x,1/4+y,3/4+z
3/4+x,1/4-y,3/4+z
1/2+x,1/2+y,z
1/2-x,1/2-y,z
3/4-x,3/4+y,1/4+z
3/4+x,3/4-y,1/4+z
loop_
_atom_site_type_symbol
_atom_site_label
_atom_site_fract_x
_atom_site_fract_y
_atom_site_fract_z
Si Si1 0.849678 0.757261 0.452830
Si Si2 0.524984 0.393919 0.864395
Si Si3 0.925232 0.190409 0.423742
Si Si4 0.750000 0.750000 0.316203
Si Si5 0.041963 0.701341 0.862509
Si Si6 0.145638 0.237871 0.728209
Si Si7 0.750000 0.250000 0.391914
Si Si8 0.898275 0.829849 0.116077
O O1 0.793691 0.791631 0.404408
O O2 0.903485 0.810200 0.439498
O O3 0.845722 0.733188 0.591563
O O4 0.854599 0.678825 0.364328
O O5 0.528277 0.297487 0.871281
O O6 0.506485 0.423916 0.733711
O O7 0.584105 0.434725 0.888133
O O8 0.487598 0.427889 0.970602
O O9 0.905085 0.221148 0.293555
O O10 0.892359 0.111248 0.469455
O O11 0.915433 0.267426 0.511804
O O12 0.987397 0.161101 0.411032
O O13 0.061094 0.684748 0.726966
O O14 0.196978 0.256731 0.811515
#
# Coordination Sequence:
#
# PCOD9371654 Si02
#       8
#    16  16  16   8  16  16   8  16
#     4  11  27  45  74 105 151 194 252 309 387 451
#     4  10  22  43  77 109 140 198 252 319 363 470
#     4  12  30  49  78 111 153 202 257 316 388 466
#     4  11  21  42  74 104 141 191 256 300 384 449
#     4  11  26  45  73 106 150 192 256 312 379 447
#     4  12  30  48  77 112 159 199 250 324 393 460
#     4  11  23  46  74 106 151 195 258 308 398 449
#     4  11  24  48  72 105 145 195 255 304 378 460
#
# _framework density 24.954201000000001
#
# number of rings (size 3 to 8) (size 9 to 14) (size 15 to 20)
#    0.000    0.857    2.857    2.143   12.000    0.000 
#    0.000    0.000    0.000    0.000    0.000    0.000 
#    0.000    0.000    0.000    0.000    0.000    0.000 
#
# Total GULP energy -156634.908277 kJ/mol
# GULP energy per Si atom -5594.103867 kJ/mol
# Density = 2.489740 g / cm^3
# Si number density = 24.954201 Si / 1000 Ang^3
#
#
#
# Elastic Constant Matrix: (Units=GPa)
#
#
# Indices 1 2 3 4 5 6 
#
# 1 108.6460 1.4775 48.5865 0.0000 0.0000 0.0000
# 2 1.4775 85.6238 -1.9306 0.0000 0.0000 0.0000
# 3 48.5865 -1.9306 113.0835 0.0000 0.0000 0.0000
# 4 0.0000 0.0000 0.0000 23.3105 0.0000 0.0000
# 5 0.0000 0.0000 0.0000 0.0000 29.0160 0.0000
# 6 0.0000 0.0000 0.0000 0.0000 0.0000 21.2879
#
#
#
# Elastic Compliance Matrix: (Units=1/GPa)
#
#
# Indices 1 2 3 4 5 6 
#
# 1 0.011401 -0.000307 -0.004904 0.000000 0.000000 0.000000
# 2 -0.000307 0.011692 0.000332 0.000000 0.000000 0.000000
# 3 -0.004904 0.000332 0.010956 0.000000 0.000000 0.000000
# 4 0.000000 0.000000 0.000000 0.042899 0.000000 0.000000
# 5 0.000000 0.000000 0.000000 0.000000 0.034464 0.000000
# 6 0.000000 0.000000 0.000000 0.000000 0.000000 0.046975
#
#
# Mechanical properties :
#
#
# Convention : Reuss Voigt Hill
#
# Bulk Modulus (GPa) = 41.16966 44.84667 43.00817
# Shear Modulus (GPa) = 28.37000 32.00420 30.18710
#
# Velocity S-wave (km/s) = 3.37543 3.58511 3.48185
# Velocity P-wave (km/s) = 5.63252 5.92857 5.78244
#
# Compressibility (1/GPa) = 0.02428973
#
# Stress axis : x y z
#
# Youngs Moduli (GPa) = 87.70851 85.53025 91.27711
#
# Poissons Ratio (x) = 0.02628 0.44761
# Poissons Ratio (y) = 0.02695 -0.03027
# Poissons Ratio (z) = 0.43011 -0.02837
#
# Static dielectric constant tensor:
#      x y z
#    x 2.203720 0.000000 0.000000 
#    y 0.000000 2.048310 0.000000 
#    z 0.000000 0.000000 1.908160 
# 
# From -- ./inp_files/7609.got.cif
#   From: 2010.05.17/outbox.cif.g08.bks.cpg/sg43_4_cif.got.tgz:7609.got - 2010.06.03 19:21:55.
