data_PCOD9371372
_publ_section_title
;
Structure prediction by ZEFSAII (Michael W. Deem and Ramdas Pophale) SiO2 
 PCOD9371372
Probable space group: F D D 2
;
_chemical_formula_sum "Si O2"
_cell_formula_units_Z 80
_cell_length_a 16.869006
_cell_length_b 23.774025
_cell_length_c 7.701411
_cell_angle_alpha 90.000000
_cell_angle_beta 90.000000
_cell_angle_gamma 90.000000
_cell_volume 3088.605985
_symmetry_space_group_name_H-M "F D D 2"
_symmetry_group_IT_number 43
_symmetry_cell_setting 'orthorhombic'
loop_
_space_group_symop_operation_xyz
x,y,z
-x,-y,z
1/4-x,1/4+y,1/4+z
1/4+x,1/4-y,1/4+z
x,1/2+y,1/2+z
-x,1/2-y,1/2+z
1/4-x,3/4+y,3/4+z
1/4+x,3/4-y,3/4+z
1/2+x,y,1/2+z
1/2-x,-y,1/2+z
3/4-x,1/4+y,3/4+z
3/4+x,1/4-y,3/4+z
1/2+x,1/2+y,z
1/2-x,1/2-y,z
3/4-x,3/4+y,1/4+z
3/4+x,3/4-y,1/4+z
loop_
_atom_site_type_symbol
_atom_site_label
_atom_site_fract_x
_atom_site_fract_y
_atom_site_fract_z
Si Si1 0.018995 0.637275 0.501220
Si Si2 0.944099 0.560098 0.217215
Si Si3 0.557815 0.246875 0.061416
Si Si4 0.689665 0.163374 0.078566
Si Si5 0.648772 0.544337 0.683719
O O1 0.995376 0.593728 0.354818
O O2 0.962753 0.692364 0.483359
O O3 0.002823 0.608723 0.689188
O O4 0.108241 0.658505 0.483370
O O5 0.919825 0.495459 0.256782
O O6 0.971230 0.565372 0.015106
O O7 0.632437 0.210817 0.995942
O O8 0.577092 0.261438 0.258778
O O9 0.478160 0.209885 0.048984
O O10 0.637969 0.108399 0.127865
#
# Coordination Sequence:
#
# PCOD9371372 Si02
#       5
#    16  16  16  16  16
#     4  10  23  40  63  93 122 165 214 253 317 387
#     4  10  23  40  63  93 122 165 214 253 317 387
#     4   9  20  37  60  88 116 165 212 251 313 382
#     4  10  22  36  64  86 124 158 200 270 304 364
#     4   9  20  37  60  88 116 165 212 251 313 382
#
# _framework density 25.901651999999999
#
# number of rings (size 3 to 8) (size 9 to 14) (size 15 to 20)
#    0.000    2.400    0.000    0.000   16.800    0.000 
#    0.000    4.000    8.800    0.000    0.000    0.000 
#    0.000    0.000    0.000    0.000    0.000    0.000 
#
# Total GULP energy -112020.926456 kJ/mol
# GULP energy per Si atom -5601.046323 kJ/mol
# Density = 2.584270 g / cm^3
# Si number density = 25.901652 Si / 1000 Ang^3
#
#
#
# Elastic Constant Matrix: (Units=GPa)
#
#
# Indices 1 2 3 4 5 6 
#
# 1 50.3088 44.5349 29.0466 0.0000 -0.0001 -0.0001
# 2 44.5349 148.8429 64.0228 0.0000 0.0000 0.0000
# 3 29.0466 64.0228 100.9050 0.0001 -0.0003 -0.0001
# 4 0.0000 0.0000 0.0001 33.5008 -0.0001 0.0000
# 5 -0.0001 0.0000 -0.0003 -0.0001 24.3049 0.0001
# 6 -0.0001 0.0000 -0.0001 0.0000 0.0001 40.1685
#
#
#
# Elastic Compliance Matrix: (Units=1/GPa)
#
#
# Indices 1 2 3 4 5 6 
#
# 1 0.028050 -0.006766 -0.003781 0.000000 0.000000 0.000000
# 2 -0.006766 0.010872 -0.004951 0.000000 0.000000 0.000000
# 3 -0.003781 -0.004951 0.014140 0.000000 0.000000 0.000000
# 4 0.000000 0.000000 0.000000 0.029850 0.000000 0.000000
# 5 0.000000 0.000000 0.000000 0.000000 0.041144 0.000000
# 6 0.000000 0.000000 0.000000 0.000000 0.000000 0.024895
#
#
# Mechanical properties :
#
#
# Convention : Reuss Voigt Hill
#
# Bulk Modulus (GPa) = 45.31892 63.91837 54.61865
# Shear Modulus (GPa) = 26.69457 30.42501 28.55979
#
# Velocity S-wave (km/s) = 3.21380 3.43101 3.32418
# Velocity P-wave (km/s) = 5.59516 6.35820 5.98885
#
# Compressibility (1/GPa) = 0.02206584
#
# Stress axis : x y z
#
# Youngs Moduli (GPa) = 35.65031 91.97523 70.72148
#
# Poissons Ratio (x) = 0.62233 0.26743
# Poissons Ratio (y) = 0.24122 0.35012
# Poissons Ratio (z) = 0.13481 0.45534
#
# Static dielectric constant tensor:
#      x y z
#    x 2.237630 0.000000 0.000000 
#    y 0.000000 2.036380 0.000000 
#    z 0.000000 0.000000 1.986240 
# 
# From -- ./inp_files/2772.got.cif
#   From: 2010.05.17/outbox.cif.g08.bks.cpg/sg43_2_cif.got.tgz:2772.got - 2010.06.03 19:21:55.
