data_PCOD9371052
_publ_section_title
;
Structure prediction by ZEFSAII (Michael W. Deem and Ramdas Pophale) SiO2 
 PCOD9371052
Probable space group: F D D 2
;
_chemical_formula_sum "Si O2"
_cell_formula_units_Z 112
_cell_length_a 21.840932
_cell_length_b 13.052205
_cell_length_c 15.827302
_cell_angle_alpha 90.000000
_cell_angle_beta 90.000000
_cell_angle_gamma 90.000000
_cell_volume 4511.925730
_symmetry_space_group_name_H-M "F D D 2"
_symmetry_group_IT_number 43
_symmetry_cell_setting 'orthorhombic'
loop_
_space_group_symop_operation_xyz
x,y,z
-x,-y,z
1/4-x,1/4+y,1/4+z
1/4+x,1/4-y,1/4+z
x,1/2+y,1/2+z
-x,1/2-y,1/2+z
1/4-x,3/4+y,3/4+z
1/4+x,3/4-y,3/4+z
1/2+x,y,1/2+z
1/2-x,-y,1/2+z
3/4-x,1/4+y,3/4+z
3/4+x,1/4-y,3/4+z
1/2+x,1/2+y,z
1/2-x,1/2-y,z
3/4-x,3/4+y,1/4+z
3/4+x,3/4-y,1/4+z
loop_
_atom_site_type_symbol
_atom_site_label
_atom_site_fract_x
_atom_site_fract_y
_atom_site_fract_z
Si Si1 0.604471 0.440561 0.426190
Si Si2 0.386651 0.098386 0.743417
Si Si3 0.258377 0.901717 0.280511
Si Si4 0.930457 0.959905 0.014344
Si Si5 0.873043 0.629754 0.422786
Si Si6 0.228803 0.364638 0.964706
Si Si7 0.764599 0.572658 0.142538
O O1 0.579732 0.411397 0.333731
O O2 0.638963 0.551440 0.433711
O O3 0.552615 0.438107 0.497363
O O4 0.657001 0.358800 0.444960
O O5 0.314673 0.096488 0.767388
O O6 0.401821 0.991135 0.700102
O O7 0.264199 0.904859 0.381759
O O8 0.276937 0.986281 0.211281
O O9 0.910194 0.873748 0.082208
O O10 0.939215 0.911221 0.921496
O O11 0.000000 0.000000 0.036887
O O12 0.877414 0.045622 0.998053
O O13 0.945113 0.642841 0.406493
O O14 0.250000 0.250000 0.986532
O O15 0.231849 0.441796 0.043206
#
# Coordination Sequence:
#
# PCOD9371052 Si02
#       7
#    16  16  16  16  16  16  16
#     4  11  21  38  62  90 129 171 213 274 329 378
#     4  10  21  38  61  90 125 168 218 269 325 387
#     4  10  22  40  62  91 126 168 218 271 328 390
#     4  10  22  42  64  93 129 168 217 270 324 390
#     4  10  21  40  63  87 127 172 213 267 326 385
#     4  11  23  40  64  96 132 174 224 274 326 393
#     4  10  23  40  61  93 131 167 215 273 325 387
#
# _framework density 24.823103
#
# number of rings (size 3 to 8) (size 9 to 14) (size 15 to 20)
#    0.000    1.714    0.000    5.143    0.000    5.714 
#    0.000    4.286    0.000    0.000    0.000    0.000 
#    0.000    0.000    0.000    0.000    0.000    0.000 
#
# Total GULP energy -156055.529750 kJ/mol
# GULP energy per Si atom -5573.411777 kJ/mol
# Density = 2.476660 g / cm^3
# Si number density = 24.823103 Si / 1000 Ang^3
#
#
#
# Elastic Constant Matrix: (Units=GPa)
#
#
# Indices 1 2 3 4 5 6 
#
# 1 47.2308 7.9895 22.0475 0.0000 0.0000 0.0000
# 2 7.9895 82.5944 54.4707 0.0000 0.0000 0.0000
# 3 22.0475 54.4707 161.9013 0.0000 0.0000 0.0000
# 4 0.0000 0.0000 0.0000 26.4663 0.0000 0.0000
# 5 0.0000 0.0000 0.0000 0.0000 36.3514 0.0000
# 6 0.0000 0.0000 0.0000 0.0000 0.0000 20.5801
#
#
#
# Elastic Compliance Matrix: (Units=1/GPa)
#
#
# Indices 1 2 3 4 5 6 
#
# 1 0.022612 -0.000201 -0.003012 0.000000 0.000000 0.000000
# 2 -0.000201 0.015562 -0.005208 0.000000 0.000000 0.000000
# 3 -0.003012 -0.005208 0.008339 0.000000 0.000000 0.000000
# 4 0.000000 0.000000 0.000000 0.037784 0.000000 0.000000
# 5 0.000000 0.000000 0.000000 0.000000 0.027509 0.000000
# 6 0.000000 0.000000 0.000000 0.000000 0.000000 0.048591
#
#
# Mechanical properties :
#
#
# Convention : Reuss Voigt Hill
#
# Bulk Modulus (GPa) = 33.70290 51.19355 42.44822
# Shear Modulus (GPa) = 26.71949 30.49414 28.60681
#
# Velocity S-wave (km/s) = 3.28441 3.50874 3.39842
# Velocity P-wave (km/s) = 5.29054 6.08959 5.70407
#
# Compressibility (1/GPa) = 0.02967104
#
# Stress axis : x y z
#
# Youngs Moduli (GPa) = 44.22334 64.26067 119.91838
#
# Poissons Ratio (x) = 0.01293 0.36115
# Poissons Ratio (y) = 0.00890 0.62456
# Poissons Ratio (z) = 0.13319 0.33468
#
# Static dielectric constant tensor:
#      x y z
#    x 1.907020 0.000000 0.000000 
#    y 0.000000 2.152070 0.000000 
#    z 0.000000 0.000000 2.056120 
# 
# From -- ./inp_files/11277.got.cif
#   From: 2010.05.17/outbox.cif.g08.bks.cpg/sg43_6_cif.got.tgz:11277.got - 2010.06.03 19:21:55.
