data_PCOD9371308
_publ_section_title
;
Structure prediction by ZEFSAII (Michael W. Deem and Ramdas Pophale) SiO2 
 PCOD9371308
Probable space group: F D D 2
;
_chemical_formula_sum "Si O2"
_cell_formula_units_Z 104
_cell_length_a 11.050436
_cell_length_b 27.135131
_cell_length_c 15.857724
_cell_angle_alpha 90.000000
_cell_angle_beta 90.000000
_cell_angle_gamma 90.000000
_cell_volume 4755.018281
_symmetry_space_group_name_H-M "F D D 2"
_symmetry_group_IT_number 43
_symmetry_cell_setting 'orthorhombic'
loop_
_space_group_symop_operation_xyz
x,y,z
-x,-y,z
1/4-x,1/4+y,1/4+z
1/4+x,1/4-y,1/4+z
x,1/2+y,1/2+z
-x,1/2-y,1/2+z
1/4-x,3/4+y,3/4+z
1/4+x,3/4-y,3/4+z
1/2+x,y,1/2+z
1/2-x,-y,1/2+z
3/4-x,1/4+y,3/4+z
3/4+x,1/4-y,3/4+z
1/2+x,1/2+y,z
1/2-x,1/2-y,z
3/4-x,3/4+y,1/4+z
3/4+x,3/4-y,1/4+z
loop_
_atom_site_type_symbol
_atom_site_label
_atom_site_fract_x
_atom_site_fract_y
_atom_site_fract_z
Si Si1 0.055036 0.777756 0.935360
Si Si2 0.250000 0.750000 0.659666
Si Si3 0.363408 0.136790 0.764343
Si Si4 0.889932 0.911611 0.325358
Si Si5 0.927205 0.915153 0.036467
Si Si6 0.069924 0.937670 0.763639
Si Si7 0.824739 0.433481 0.184950
O O1 0.138659 0.806820 0.871198
O O2 0.033025 0.721307 0.914222
O O3 0.105367 0.788490 0.028067
O O4 0.919022 0.799292 0.943159
O O5 0.313453 0.708025 0.716877
O O6 0.160621 0.716394 0.601786
O O7 0.382216 0.164326 0.675265
O O8 0.476866 0.102511 0.791965
O O9 0.241572 0.107651 0.741053
O O10 0.360322 0.169513 0.847735
O O11 0.801177 0.866691 0.295166
O O12 0.829942 0.871463 0.022348
O O13 0.934556 0.952669 0.740271
#
# Coordination Sequence:
#
# PCOD9371308 Si02
#       7
#    16   8  16  16  16  16  16
#     4  11  23  41  71  98 135 177 229 296 345 422
#     4  12  26  44  74 106 140 198 242 298 370 440
#     4  10  24  41  66  94 140 185 226 285 357 431
#     4  10  21  44  65 101 136 179 235 296 355 416
#     4  11  26  39  75 102 138 181 241 306 359 426
#     4  11  24  47  67 104 144 183 241 296 362 441
#     4  11  25  43  68  97 141 189 230 286 355 441
#
# _framework density 21.871628999999999
#
# number of rings (size 3 to 8) (size 9 to 14) (size 15 to 20)
#    0.000    1.231    3.077    1.846   10.769    0.615 
#    0.000    0.000    3.385    0.000    0.000    0.000 
#    0.000    0.000    0.000    0.000    0.000    0.000 
#
# Total GULP energy -144955.463450 kJ/mol
# GULP energy per Si atom -5575.210133 kJ/mol
# Density = 2.182185 g / cm^3
# Si number density = 21.871629 Si / 1000 Ang^3
#
#
#
# Elastic Constant Matrix: (Units=GPa)
#
#
# Indices 1 2 3 4 5 6 
#
# 1 56.9991 -5.3683 29.8817 0.0000 0.0000 0.0000
# 2 -5.3683 82.4263 42.2956 0.0000 0.0000 0.0000
# 3 29.8817 42.2956 128.1205 0.0000 0.0000 0.0000
# 4 0.0000 0.0000 0.0000 40.3097 0.0000 0.0000
# 5 0.0000 0.0000 0.0000 0.0000 34.7426 0.0000
# 6 0.0000 0.0000 0.0000 0.0000 0.0000 27.5566
#
#
#
# Elastic Compliance Matrix: (Units=1/GPa)
#
#
# Indices 1 2 3 4 5 6 
#
# 1 0.021441 0.004770 -0.006575 0.000000 0.000000 0.000000
# 2 0.004770 0.015668 -0.006285 0.000000 0.000000 0.000000
# 3 -0.006575 -0.006285 0.011414 0.000000 0.000000 0.000000
# 4 0.000000 0.000000 0.000000 0.024808 0.000000 0.000000
# 5 0.000000 0.000000 0.000000 0.000000 0.028783 0.000000
# 6 0.000000 0.000000 0.000000 0.000000 0.000000 0.036289
#
#
# Mechanical properties :
#
#
# Convention : Reuss Voigt Hill
#
# Bulk Modulus (GPa) = 30.91946 44.57377 37.74661
# Shear Modulus (GPa) = 30.23663 33.90424 32.07043
#
# Velocity S-wave (km/s) = 3.72218 3.94146 3.83339
# Velocity P-wave (km/s) = 5.71317 6.41385 6.07362
#
# Compressibility (1/GPa) = 0.03234209
#
# Stress axis : x y z
#
# Youngs Moduli (GPa) = 46.64051 63.82538 87.61510
#
# Poissons Ratio (x) = -0.30448 0.57611
# Poissons Ratio (y) = -0.22250 0.55065
# Poissons Ratio (z) = 0.30668 0.40114
#
# Static dielectric constant tensor:
#      x y z
#    x 1.829540 0.000000 0.000000 
#    y 0.000000 1.880650 0.000000 
#    z 0.000000 0.000000 1.795600 
# 
# From -- ./inp_files/13436.got.cif
#   From: 2010.05.17/outbox.cif.g08.bks.cpg/sg43_7_cif.got.tgz:13436.got - 2010.06.03 19:21:55.
