data_PCOD9371382
_publ_section_title
;
Structure prediction by ZEFSAII (Michael W. Deem and Ramdas Pophale) SiO2 
 PCOD9371382
Probable space group: F D D 2
;
_chemical_formula_sum "Si O2"
_cell_formula_units_Z 96
_cell_length_a 24.402245
_cell_length_b 8.937901
_cell_length_c 18.270042
_cell_angle_alpha 90.000000
_cell_angle_beta 90.000000
_cell_angle_gamma 90.000000
_cell_volume 3984.784770
_symmetry_space_group_name_H-M "F D D 2"
_symmetry_group_IT_number 43
_symmetry_cell_setting 'orthorhombic'
loop_
_space_group_symop_operation_xyz
x,y,z
-x,-y,z
1/4-x,1/4+y,1/4+z
1/4+x,1/4-y,1/4+z
x,1/2+y,1/2+z
-x,1/2-y,1/2+z
1/4-x,3/4+y,3/4+z
1/4+x,3/4-y,3/4+z
1/2+x,y,1/2+z
1/2-x,-y,1/2+z
3/4-x,1/4+y,3/4+z
3/4+x,1/4-y,3/4+z
1/2+x,1/2+y,z
1/2-x,1/2-y,z
3/4-x,3/4+y,1/4+z
3/4+x,3/4-y,1/4+z
loop_
_atom_site_type_symbol
_atom_site_label
_atom_site_fract_x
_atom_site_fract_y
_atom_site_fract_z
Si Si1 0.469823 0.838887 0.863330
Si Si2 0.345798 0.506481 0.897865
Si Si3 0.397834 0.001303 0.760598
Si Si4 0.876461 0.218383 0.479032
Si Si5 0.479104 0.272800 0.729316
Si Si6 0.303607 0.690104 0.260476
O O1 0.498270 0.717668 0.812664
O O2 0.500000 0.000000 0.855761
O O3 0.414830 0.879218 0.820256
O O4 0.466243 0.822323 0.949357
O O5 0.357055 0.515183 0.811741
O O6 0.366908 0.652251 0.940320
O O7 0.378115 0.360514 0.926732
O O8 0.281546 0.489856 0.924989
O O9 0.444213 0.117304 0.731637
O O10 0.352191 0.104518 0.799199
O O11 0.815030 0.152895 0.470083
O O12 0.917250 0.077605 0.467968
O O13 0.250000 0.750000 0.300461
#
# Coordination Sequence:
#
# PCOD9371382 Si02
#       6
#    16  16  16  16  16  16
#     4   8  16  33  64  84 111 159 225 258 321 399
#     4  11  24  43  64 103 134 178 229 290 352 418
#     4   9  20  39  65  90 120 178 224 275 332 419
#     4  11  26  41  67  98 140 175 226 293 354 413
#     4   9  20  44  71  91 126 186 230 274 346 424
#     4  10  22  38  61  90 126 170 219 278 329 415
#
# _framework density 24.091640999999999
#
# number of rings (size 3 to 8) (size 9 to 14) (size 15 to 20)
#    0.000    2.333    0.000    2.000   14.000    1.333 
#    3.000    2.500    0.000    0.000    0.000    0.000 
#    0.000    0.000    0.000    0.000    0.000    0.000 
#
# Total GULP energy -133888.154764 kJ/mol
# GULP energy per Si atom -5578.673115 kJ/mol
# Density = 2.403681 g / cm^3
# Si number density = 24.091641 Si / 1000 Ang^3
#
#
#
# Elastic Constant Matrix: (Units=GPa)
#
#
# Indices 1 2 3 4 5 6 
#
# 1 116.9651 21.7427 -2.2249 0.0000 0.0000 0.0000
# 2 21.7427 66.5517 2.7090 0.0000 0.0000 0.0000
# 3 -2.2249 2.7090 75.4376 0.0000 0.0000 0.0000
# 4 0.0000 0.0000 0.0000 35.5474 0.0000 0.0000
# 5 0.0000 0.0000 0.0000 0.0000 17.0161 0.0000
# 6 0.0000 0.0000 0.0000 0.0000 0.0000 25.0766
#
#
#
# Elastic Compliance Matrix: (Units=1/GPa)
#
#
# Indices 1 2 3 4 5 6 
#
# 1 0.009113 -0.002993 0.000376 0.000000 0.000000 0.000000
# 2 -0.002993 0.016031 -0.000664 0.000000 0.000000 0.000000
# 3 0.000376 -0.000664 0.013291 0.000000 0.000000 0.000000
# 4 0.000000 0.000000 0.000000 0.028131 0.000000 0.000000
# 5 0.000000 0.000000 0.000000 0.000000 0.058768 0.000000
# 6 0.000000 0.000000 0.000000 0.000000 0.000000 0.039878
#
#
# Mechanical properties :
#
#
# Convention : Reuss Voigt Hill
#
# Bulk Modulus (GPa) = 31.37351 33.71201 32.54276
# Shear Modulus (GPa) = 27.41272 31.30984 29.36128
#
# Velocity S-wave (km/s) = 3.37687 3.60893 3.49482
# Velocity P-wave (km/s) = 5.31556 5.60263 5.46098
#
# Compressibility (1/GPa) = 0.03187403
#
# Stress axis : x y z
#
# Youngs Moduli (GPa) = 109.73323 62.38058 75.23924
#
# Poissons Ratio (x) = 0.18668 -0.02831
# Poissons Ratio (y) = 0.32839 0.04995
# Poissons Ratio (z) = -0.04129 0.04142
#
# Static dielectric constant tensor:
#      x y z
#    x 2.064490 0.000000 0.000000 
#    y 0.000000 1.915780 0.000000 
#    z 0.000000 0.000000 1.994590 
# 
# From -- ./inp_files/16473.got.cif
#   From: 2010.05.17/outbox.cif.g08.bks.cpg/sg43_9_cif.got.tgz:16473.got - 2010.06.03 19:21:55.
