data_PCOD9371662
_publ_section_title
;
Structure prediction by ZEFSAII (Michael W. Deem and Ramdas Pophale) SiO2 
 PCOD9371662
Probable space group: F D D 2
;
_chemical_formula_sum "Si O2"
_cell_formula_units_Z 80
_cell_length_a 24.100867
_cell_length_b 7.374355
_cell_length_c 17.416622
_cell_angle_alpha 90.000000
_cell_angle_beta 90.000000
_cell_angle_gamma 90.000000
_cell_volume 3095.427474
_symmetry_space_group_name_H-M "F D D 2"
_symmetry_group_IT_number 43
_symmetry_cell_setting 'orthorhombic'
loop_
_space_group_symop_operation_xyz
x,y,z
-x,-y,z
1/4-x,1/4+y,1/4+z
1/4+x,1/4-y,1/4+z
x,1/2+y,1/2+z
-x,1/2-y,1/2+z
1/4-x,3/4+y,3/4+z
1/4+x,3/4-y,3/4+z
1/2+x,y,1/2+z
1/2-x,-y,1/2+z
3/4-x,1/4+y,3/4+z
3/4+x,1/4-y,3/4+z
1/2+x,1/2+y,z
1/2-x,1/2-y,z
3/4-x,3/4+y,1/4+z
3/4+x,3/4-y,1/4+z
loop_
_atom_site_type_symbol
_atom_site_label
_atom_site_fract_x
_atom_site_fract_y
_atom_site_fract_z
Si Si1 0.757275 0.965136 0.588550
Si Si2 0.283144 0.440566 0.418928
Si Si3 0.169141 0.579935 0.384935
Si Si4 0.655645 0.600523 0.709978
Si Si5 0.358581 0.514900 0.149907
O O1 0.750000 0.750000 0.588237
O O2 0.788579 0.003651 0.508687
O O3 0.794883 0.997912 0.663050
O O4 0.694729 0.037785 0.598700
O O5 0.250000 0.250000 0.426666
O O6 0.234962 0.562868 0.385058
O O7 0.336874 0.375819 0.370455
O O8 0.152615 0.548202 0.297507
O O9 0.147921 0.771110 0.415870
O O10 0.136736 0.419179 0.431000
O O11 0.662499 0.819848 0.704706
#
# Coordination Sequence:
#
# PCOD9371662 Si02
#       5
#    16  16  16  16  16
#     4   9  19  40  64  93 130 177 226 276 350 415
#     4   9  19  40  64  93 130 177 226 276 350 415
#     4  11  24  43  67 102 136 177 242 289 351 434
#     4  11  24  43  67 102 136 177 242 289 351 434
#     4  10  22  44  66  92 140 182 220 292 356 398
#
# _framework density 25.844570999999998
#
# number of rings (size 3 to 8) (size 9 to 14) (size 15 to 20)
#    0.000    2.000    0.000    2.400    0.000    6.400 
#   36.000    4.000    0.000    0.000    0.000    0.000 
#    0.000    0.000    0.000    0.000    0.000    0.000 
#
# Total GULP energy -111526.722077 kJ/mol
# GULP energy per Si atom -5576.336104 kJ/mol
# Density = 2.578575 g / cm^3
# Si number density = 25.844571 Si / 1000 Ang^3
#
#
#
# Elastic Constant Matrix: (Units=GPa)
#
#
# Indices 1 2 3 4 5 6 
#
# 1 129.3084 -4.8923 38.6498 0.0000 0.0000 0.0000
# 2 -4.8923 104.4903 0.3924 0.0000 0.0000 0.0000
# 3 38.6498 0.3924 99.0235 0.0000 0.0000 0.0000
# 4 0.0000 0.0000 0.0000 15.3371 0.0000 0.0000
# 5 0.0000 0.0000 0.0000 0.0000 36.3349 0.0000
# 6 0.0000 0.0000 0.0000 0.0000 0.0000 39.7398
#
#
#
# Elastic Compliance Matrix: (Units=1/GPa)
#
#
# Indices 1 2 3 4 5 6 
#
# 1 0.008774 0.000424 -0.003426 0.000000 0.000000 0.000000
# 2 0.000424 0.009591 -0.000203 0.000000 0.000000 0.000000
# 3 -0.003426 -0.000203 0.011437 0.000000 0.000000 0.000000
# 4 0.000000 0.000000 0.000000 0.065201 0.000000 0.000000
# 5 0.000000 0.000000 0.000000 0.000000 0.027522 0.000000
# 6 0.000000 0.000000 0.000000 0.000000 0.000000 0.025164
#
#
# Mechanical properties :
#
#
# Convention : Reuss Voigt Hill
#
# Bulk Modulus (GPa) = 42.75428 44.56911 43.66170
# Shear Modulus (GPa) = 30.88408 38.19384 34.53896
#
# Velocity S-wave (km/s) = 3.46062 3.84842 3.65966
# Velocity P-wave (km/s) = 5.70496 6.08520 5.89815
#
# Compressibility (1/GPa) = 0.02338947
#
# Stress axis : x y z
#
# Youngs Moduli (GPa) = 113.97936 104.26591 87.43823
#
# Poissons Ratio (x) = -0.04417 0.29957
# Poissons Ratio (y) = -0.04829 0.01778
# Poissons Ratio (z) = 0.39050 0.02120
#
# Static dielectric constant tensor:
#      x y z
#    x 2.225960 0.000000 0.000000 
#    y 0.000000 2.112530 0.000000 
#    z 0.000000 0.000000 1.957440 
# 
# From -- ./inp_files/14971.got.cif
#   From: 2010.05.17/outbox.cif.g08.bks.cpg/sg43_8_cif.got.tgz:14971.got - 2010.06.03 19:21:55.
