data_PCOD9371376
_publ_section_title
;
Structure prediction by ZEFSAII (Michael W. Deem and Ramdas Pophale) SiO2 
 PCOD9371376
Probable space group: F D D 2
;
_chemical_formula_sum "Si O2"
_cell_formula_units_Z 96
_cell_length_a 22.087202
_cell_length_b 13.786022
_cell_length_c 14.490667
_cell_angle_alpha 90.000000
_cell_angle_beta 90.000000
_cell_angle_gamma 90.000000
_cell_volume 4412.330615
_symmetry_space_group_name_H-M "F D D 2"
_symmetry_group_IT_number 43
_symmetry_cell_setting 'orthorhombic'
loop_
_space_group_symop_operation_xyz
x,y,z
-x,-y,z
1/4-x,1/4+y,1/4+z
1/4+x,1/4-y,1/4+z
x,1/2+y,1/2+z
-x,1/2-y,1/2+z
1/4-x,3/4+y,3/4+z
1/4+x,3/4-y,3/4+z
1/2+x,y,1/2+z
1/2-x,-y,1/2+z
3/4-x,1/4+y,3/4+z
3/4+x,1/4-y,3/4+z
1/2+x,1/2+y,z
1/2-x,1/2-y,z
3/4-x,3/4+y,1/4+z
3/4+x,3/4-y,1/4+z
loop_
_atom_site_type_symbol
_atom_site_label
_atom_site_fract_x
_atom_site_fract_y
_atom_site_fract_z
Si Si1 0.500000 0.000000 0.362651
Si Si2 0.791435 0.904961 0.981795
Si Si3 0.126258 0.700471 0.069310
Si Si4 0.585383 0.144072 0.456731
Si Si5 0.250000 0.750000 0.135048
Si Si6 0.006610 0.318040 0.025089
Si Si7 0.666496 0.989662 0.019445
O O1 0.542497 0.943443 0.291410
O O2 0.469618 0.922207 0.426757
O O3 0.861966 0.929050 0.988838
O O4 0.768921 0.890192 0.877195
O O5 0.739432 0.975534 0.021844
O O6 0.188601 0.761389 0.074780
O O7 0.145938 0.600072 0.022469
O O8 0.108508 0.689989 0.177522
O O9 0.061482 0.728426 0.024721
O O10 0.557227 0.234695 0.511422
O O11 0.608961 0.190273 0.360841
O O12 0.242237 0.654543 0.199971
#
# Coordination Sequence:
#
# PCOD9371376 Si02
#       7
#     8  16  16  16   8  16  16
#     4  10  23  40  60  95 122 170 220 266 319 394
#     4  10  22  37  65  96 126 165 221 275 336 386
#     4  11  22  40  61  99 133 173 225 279 347 404
#     4  11  22  40  61  94 134 173 214 275 332 399
#     4  12  21  36  66  91 134 170 224 282 339 402
#     4  11  23  37  66 101 131 172 219 289 335 400
#     4  10  22  37  64  98 133 164 225 284 338 395
#
# _framework density 21.757209
#
# number of rings (size 3 to 8) (size 9 to 14) (size 15 to 20)
#    0.000    1.333    3.333    2.500    7.000    0.000 
#    3.000    0.000    0.000    0.000    0.000    0.000 
#    0.000    0.000    0.000    0.000    0.000    0.000 
#
# Total GULP energy -133727.000486 kJ/mol
# GULP energy per Si atom -5571.958354 kJ/mol
# Density = 2.170769 g / cm^3
# Si number density = 21.757209 Si / 1000 Ang^3
#
#
#
# Elastic Constant Matrix: (Units=GPa)
#
#
# Indices 1 2 3 4 5 6 
#
# 1 157.0708 23.7803 15.1989 0.0000 0.0000 0.0000
# 2 23.7803 50.8227 11.6230 0.0000 0.0000 0.0000
# 3 15.1989 11.6230 30.0214 0.0000 0.0000 0.0000
# 4 0.0000 0.0000 0.0000 13.4246 0.0000 0.0000
# 5 0.0000 0.0000 0.0000 0.0000 14.2179 0.0000
# 6 0.0000 0.0000 0.0000 0.0000 0.0000 28.3215
#
#
#
# Elastic Compliance Matrix: (Units=1/GPa)
#
#
# Indices 1 2 3 4 5 6 
#
# 1 0.007019 -0.002712 -0.002504 0.000000 0.000000 0.000000
# 2 -0.002712 0.022635 -0.007391 0.000000 0.000000 0.000000
# 3 -0.002504 -0.007391 0.037439 0.000000 0.000000 0.000000
# 4 0.000000 0.000000 0.000000 0.074490 0.000000 0.000000
# 5 0.000000 0.000000 0.000000 0.000000 0.070334 0.000000
# 6 0.000000 0.000000 0.000000 0.000000 0.000000 0.035309
#
#
# Mechanical properties :
#
#
# Convention : Reuss Voigt Hill
#
# Bulk Modulus (GPa) = 23.87722 37.67993 30.77858
# Shear Modulus (GPa) = 17.45817 23.68030 20.56924
#
# Velocity S-wave (km/s) = 2.83576 3.30265 3.07807
# Velocity P-wave (km/s) = 4.66050 5.64795 5.17782
#
# Compressibility (1/GPa) = 0.04188092
#
# Stress axis : x y z
#
# Youngs Moduli (GPa) = 142.46225 44.17870 26.71046
#
# Poissons Ratio (x) = 0.11980 0.06688
# Poissons Ratio (y) = 0.38633 0.19740
# Poissons Ratio (z) = 0.35670 0.32650
#
# Static dielectric constant tensor:
#      x y z
#    x 2.049920 0.000000 0.000000 
#    y 0.000000 1.784920 0.000000 
#    z 0.000000 0.000000 1.785300 
# 
# From -- ./inp_files/10106.got.cif
#   From: 2010.05.17/outbox.cif.g08.bks.cpg/sg43_6_cif.got.tgz:10106.got - 2010.06.03 19:21:55.
