data_PCOD9371177
_publ_section_title
;
Structure prediction by ZEFSAII (Michael W. Deem and Ramdas Pophale) SiO2 
 PCOD9371177
Probable space group: F D D 2
;
_chemical_formula_sum "Si O2"
_cell_formula_units_Z 96
_cell_length_a 15.104481
_cell_length_b 25.137338
_cell_length_c 10.098739
_cell_angle_alpha 90.000000
_cell_angle_beta 90.000000
_cell_angle_gamma 90.000000
_cell_volume 3834.354302
_symmetry_space_group_name_H-M "F D D 2"
_symmetry_group_IT_number 43
_symmetry_cell_setting 'orthorhombic'
loop_
_space_group_symop_operation_xyz
x,y,z
-x,-y,z
1/4-x,1/4+y,1/4+z
1/4+x,1/4-y,1/4+z
x,1/2+y,1/2+z
-x,1/2-y,1/2+z
1/4-x,3/4+y,3/4+z
1/4+x,3/4-y,3/4+z
1/2+x,y,1/2+z
1/2-x,-y,1/2+z
3/4-x,1/4+y,3/4+z
3/4+x,1/4-y,3/4+z
1/2+x,1/2+y,z
1/2-x,1/2-y,z
3/4-x,3/4+y,1/4+z
3/4+x,3/4-y,1/4+z
loop_
_atom_site_type_symbol
_atom_site_label
_atom_site_fract_x
_atom_site_fract_y
_atom_site_fract_z
Si Si1 0.867000 0.236277 0.246810
Si Si2 0.500000 0.500000 0.253687
Si Si3 0.302170 0.635354 0.561830
Si Si4 0.233243 0.152696 0.330572
Si Si5 0.713952 0.932806 0.538954
Si Si6 0.751673 0.372267 0.289229
Si Si7 0.500000 0.000000 0.229798
O O1 0.830527 0.258210 0.107751
O O2 0.812652 0.178743 0.262239
O O3 0.829301 0.265193 0.378001
O O4 0.972624 0.232347 0.257343
O O5 0.525853 0.547258 0.155229
O O6 0.280867 0.622052 0.711367
O O7 0.240798 0.614626 0.444303
O O8 0.395704 0.617296 0.504024
O O9 0.286744 0.699664 0.558536
O O10 0.234761 0.111226 0.451266
O O11 0.140676 0.174741 0.269076
O O12 0.720804 0.918941 0.693673
#
# Coordination Sequence:
#
# PCOD9371177 Si02
#       7
#    16   8  16  16  16  16   8
#     4  10  21  40  68  94 119 171 221 260 310 390
#     4  11  23  42  64  90 136 178 208 268 332 374
#     4  11  23  38  63  94 127 165 207 264 322 374
#     4  12  24  40  64  96 134 165 208 273 324 378
#     4  12  21  42  68  93 124 169 222 260 314 393
#     4  11  19  39  67  92 116 167 221 257 306 384
#     4   9  19  38  60  82 128 160 198 256 312 368
#
# _framework density 25.036811
#
# number of rings (size 3 to 8) (size 9 to 14) (size 15 to 20)
#    0.000    1.000    6.667    1.500    0.000    0.000 
#    3.000    0.000    7.333    0.000    0.000    0.000 
#    0.000    0.000    0.000    0.000    0.000    0.000 
#
# Total GULP energy -133778.368065 kJ/mol
# GULP energy per Si atom -5574.098669 kJ/mol
# Density = 2.497983 g / cm^3
# Si number density = 25.036811 Si / 1000 Ang^3
#
#
#
# Elastic Constant Matrix: (Units=GPa)
#
#
# Indices 1 2 3 4 5 6 
#
# 1 109.2797 -2.8267 11.5016 0.0000 0.0000 0.0000
# 2 -2.8267 51.6625 13.1312 0.0000 0.0000 0.0000
# 3 11.5016 13.1312 126.5218 0.0000 0.0000 0.0000
# 4 0.0000 0.0000 0.0000 0.7590 0.0000 0.0000
# 5 0.0000 0.0000 0.0000 0.0000 15.9848 0.0000
# 6 0.0000 0.0000 0.0000 0.0000 0.0000 30.0224
#
#
#
# Elastic Compliance Matrix: (Units=1/GPa)
#
#
# Indices 1 2 3 4 5 6 
#
# 1 0.009267 0.000741 -0.000919 0.000000 0.000000 0.000000
# 2 0.000741 0.019940 -0.002137 0.000000 0.000000 0.000000
# 3 -0.000919 -0.002137 0.008209 0.000000 0.000000 0.000000
# 4 0.000000 0.000000 0.000000 1.317472 0.000000 0.000000
# 5 0.000000 0.000000 0.000000 0.000000 0.062559 0.000000
# 6 0.000000 0.000000 0.000000 0.000000 0.000000 0.033308
#
#
# Mechanical properties :
#
#
# Convention : Reuss Voigt Hill
#
# Bulk Modulus (GPa) = 30.50170 36.78626 33.64398
# Shear Modulus (GPa) = 3.40991 27.06378 15.23684
#
# Velocity S-wave (km/s) = 1.16830 3.29136 2.46961
# Velocity P-wave (km/s) = 3.74554 5.40082 4.64747
#
# Compressibility (1/GPa) = 0.03278506
#
# Stress axis : x y z
#
# Youngs Moduli (GPa) = 107.91281 50.15029 121.81573
#
# Poissons Ratio (x) = -0.03715 0.11198
# Poissons Ratio (y) = -0.07993 0.26030
# Poissons Ratio (z) = 0.09920 0.10716
#
# Static dielectric constant tensor:
#      x y z
#    x 2.027040 0.000000 0.000000 
#    y 0.000000 3.357150 0.000000 
#    z 0.000000 0.000000 1.927950 
# 
# From -- ./inp_files/6295.got.cif
#   From: 2010.05.17/outbox.cif.g08.bks.cpg/sg43_4_cif.got.tgz:6295.got - 2010.06.03 19:21:55.
