data_PCOD9371094
_publ_section_title
;
Structure prediction by ZEFSAII (Michael W. Deem and Ramdas Pophale) SiO2 
 PCOD9371094
Probable space group: F D D 2
;
_chemical_formula_sum "Si O2"
_cell_formula_units_Z 80
_cell_length_a 16.627064
_cell_length_b 20.938401
_cell_length_c 9.203603
_cell_angle_alpha 90.000000
_cell_angle_beta 90.000000
_cell_angle_gamma 90.000000
_cell_volume 3204.180391
_symmetry_space_group_name_H-M "F D D 2"
_symmetry_group_IT_number 43
_symmetry_cell_setting 'orthorhombic'
loop_
_space_group_symop_operation_xyz
x,y,z
-x,-y,z
1/4-x,1/4+y,1/4+z
1/4+x,1/4-y,1/4+z
x,1/2+y,1/2+z
-x,1/2-y,1/2+z
1/4-x,3/4+y,3/4+z
1/4+x,3/4-y,3/4+z
1/2+x,y,1/2+z
1/2-x,-y,1/2+z
3/4-x,1/4+y,3/4+z
3/4+x,1/4-y,3/4+z
1/2+x,1/2+y,z
1/2-x,1/2-y,z
3/4-x,3/4+y,1/4+z
3/4+x,3/4-y,1/4+z
loop_
_atom_site_type_symbol
_atom_site_label
_atom_site_fract_x
_atom_site_fract_y
_atom_site_fract_z
Si Si1 0.004490 0.129643 0.917260
Si Si2 0.028547 0.097583 0.377888
Si Si3 0.724801 0.469398 0.927365
Si Si4 0.650780 0.413479 0.408347
Si Si5 0.150411 0.300156 0.353864
O O1 0.066760 0.119383 0.788301
O O2 0.915304 0.141744 0.859663
O O3 0.028124 0.192394 0.012854
O O4 0.018331 0.071380 0.025094
O O5 0.005936 0.158171 0.275774
O O6 0.080692 0.127302 0.507687
O O7 0.075337 0.047840 0.273293
O O8 0.942752 0.073229 0.432595
O O9 0.791313 0.524995 0.922706
O O10 0.647058 0.498591 0.009353
#
# Coordination Sequence:
#
# PCOD9371094 Si02
#       5
#    16  16  16  16  16
#     4  10  21  39  62  91 122 168 212 257 316 379
#     4  11  23  40  64  96 127 165 214 264 318 382
#     4  10  22  42  64  88 129 178 211 254 321 382
#     4  11  21  38  64  92 127 161 208 268 317 373
#     4  10  21  41  64  87 127 168 211 259 312 380
#
# _framework density 24.967383999999999
#
# number of rings (size 3 to 8) (size 9 to 14) (size 15 to 20)
#    0.000    1.600    0.000    7.200    0.000    0.000 
#    0.000   21.000    0.000   21.600    0.000    0.000 
#    0.000    0.000    0.000    0.000    0.000    0.000 
#
# Total GULP energy -111811.290951 kJ/mol
# GULP energy per Si atom -5590.564548 kJ/mol
# Density = 2.491056 g / cm^3
# Si number density = 24.967384 Si / 1000 Ang^3
#
#
#
# Elastic Constant Matrix: (Units=GPa)
#
#
# Indices 1 2 3 4 5 6 
#
# 1 149.1334 7.6535 1.8708 0.0000 0.0000 0.0000
# 2 7.6535 60.0820 -4.5119 0.0000 0.0000 0.0000
# 3 1.8708 -4.5119 94.3121 0.0000 0.0000 0.0000
# 4 0.0000 0.0000 0.0000 15.0054 0.0000 0.0000
# 5 0.0000 0.0000 0.0000 0.0000 43.6421 0.0000
# 6 0.0000 0.0000 0.0000 0.0000 0.0000 27.0255
#
#
#
# Elastic Compliance Matrix: (Units=1/GPa)
#
#
# Indices 1 2 3 4 5 6 
#
# 1 0.006752 -0.000873 -0.000176 0.000000 0.000000 0.000000
# 2 -0.000873 0.016817 0.000822 0.000000 0.000000 0.000000
# 3 -0.000176 0.000822 0.010646 0.000000 0.000000 0.000000
# 4 0.000000 0.000000 0.000000 0.066643 0.000000 0.000000
# 5 0.000000 0.000000 0.000000 0.000000 0.022914 0.000000
# 6 0.000000 0.000000 0.000000 0.000000 0.000000 0.037002
#
#
# Mechanical properties :
#
#
# Convention : Reuss Voigt Hill
#
# Bulk Modulus (GPa) = 29.62021 34.83917 32.22969
# Shear Modulus (GPa) = 28.98858 37.03561 33.01210
#
# Velocity S-wave (km/s) = 3.41113 3.85562 3.64016
# Velocity P-wave (km/s) = 5.23485 5.81423 5.53213
#
# Compressibility (1/GPa) = 0.03376073
#
# Stress axis : x y z
#
# Youngs Moduli (GPa) = 148.09483 59.46406 93.93293
#
# Poissons Ratio (x) = 0.05193 0.01651
# Poissons Ratio (y) = 0.12934 -0.07720
# Poissons Ratio (z) = 0.02602 -0.04887
#
# Static dielectric constant tensor:
#      x y z
#    x 1.927840 0.000000 0.000000 
#    y 0.000000 1.996740 0.000000 
#    z 0.000000 0.000000 1.989140 
# 
# From -- ./inp_files/2808.got.cif
#   From: 2010.05.17/outbox.cif.g08.bks.cpg/sg43_2_cif.got.tgz:2808.got - 2010.06.03 19:21:55.
