data_PCOD9371059
_publ_section_title
;
Structure prediction by ZEFSAII (Michael W. Deem and Ramdas Pophale) SiO2 
 PCOD9371059
Probable space group: F D D 2
;
_chemical_formula_sum "Si O2"
_cell_formula_units_Z 104
_cell_length_a 16.471291
_cell_length_b 12.752604
_cell_length_c 21.029804
_cell_angle_alpha 90.000000
_cell_angle_beta 90.000000
_cell_angle_gamma 90.000000
_cell_volume 4417.349267
_symmetry_space_group_name_H-M "F D D 2"
_symmetry_group_IT_number 43
_symmetry_cell_setting 'orthorhombic'
loop_
_space_group_symop_operation_xyz
x,y,z
-x,-y,z
1/4-x,1/4+y,1/4+z
1/4+x,1/4-y,1/4+z
x,1/2+y,1/2+z
-x,1/2-y,1/2+z
1/4-x,3/4+y,3/4+z
1/4+x,3/4-y,3/4+z
1/2+x,y,1/2+z
1/2-x,-y,1/2+z
3/4-x,1/4+y,3/4+z
3/4+x,1/4-y,3/4+z
1/2+x,1/2+y,z
1/2-x,1/2-y,z
3/4-x,3/4+y,1/4+z
3/4+x,3/4-y,1/4+z
loop_
_atom_site_type_symbol
_atom_site_label
_atom_site_fract_x
_atom_site_fract_y
_atom_site_fract_z
Si Si1 0.750000 0.750000 0.928781
Si Si2 0.133863 0.997599 0.067818
Si Si3 0.712547 0.413392 0.609324
Si Si4 0.663266 0.562866 0.394120
Si Si5 0.750000 0.250000 0.918138
Si Si6 0.591441 0.347970 0.444158
Si Si7 0.290690 0.926109 0.327795
Si Si8 0.500000 0.500000 0.962238
O O1 0.669387 0.778277 0.966079
O O2 0.741128 0.655197 0.879857
O O3 0.215523 0.063179 0.060315
O O4 0.073516 0.040824 0.122921
O O5 0.043645 0.894823 0.194035
O O6 0.080232 0.998229 0.005149
O O7 0.685775 0.528226 0.634181
O O8 0.636972 0.341620 0.589173
O O9 0.749702 0.352669 0.669056
O O10 0.604965 0.631157 0.347854
O O11 0.618358 0.465384 0.426261
O O12 0.736063 0.524381 0.347637
O O13 0.529750 0.348220 0.503204
#
# Coordination Sequence:
#
# PCOD9371059 Si02
#       8
#     8  16  16  16   8  16  16   8
#     4   8  20  39  52  87 119 151 200 252 306 380
#     4   9  21  42  61  93 124 160 221 264 317 389
#     4  11  25  37  62 102 120 157 229 263 310 394
#     4   9  19  39  66  83 128 174 202 266 322 394
#     4   7  18  38  64  81 125 166 206 258 325 374
#     4  10  21  38  62  88 122 168 198 263 329 373
#     4  10  21  38  62  87 126 160 207 253 317 381
#     4  11  24  41  68  88 132 181 204 276 341 384
#
# _framework density 23.543531000000002
#
# number of rings (size 3 to 8) (size 9 to 14) (size 15 to 20)
#    0.923    1.538    0.000    0.923    2.154    6.154 
#    0.000    1.538    0.000    1.846    0.000    0.000 
#    0.000    0.000    0.000    0.000    0.000    0.000 
#
# Total GULP energy -144741.016957 kJ/mol
# GULP energy per Si atom -5566.962191 kJ/mol
# Density = 2.348994 g / cm^3
# Si number density = 23.543531 Si / 1000 Ang^3
#
#
#
# Elastic Constant Matrix: (Units=GPa)
#
#
# Indices 1 2 3 4 5 6 
#
# 1 81.8736 6.2262 -4.2599 0.0000 0.0000 0.0000
# 2 6.2262 90.4432 3.0850 0.0000 0.0000 0.0000
# 3 -4.2599 3.0850 42.0933 0.0000 0.0000 0.0000
# 4 0.0000 0.0000 0.0000 55.4468 0.0000 0.0000
# 5 0.0000 0.0000 0.0000 0.0000 10.3318 0.0000
# 6 0.0000 0.0000 0.0000 0.0000 0.0000 38.7027
#
#
#
# Elastic Compliance Matrix: (Units=1/GPa)
#
#
# Indices 1 2 3 4 5 6 
#
# 1 0.012350 -0.000895 0.001315 0.000000 0.000000 0.000000
# 2 -0.000895 0.011149 -0.000908 0.000000 0.000000 0.000000
# 3 0.001315 -0.000908 0.023956 0.000000 0.000000 0.000000
# 4 0.000000 0.000000 0.000000 0.018035 0.000000 0.000000
# 5 0.000000 0.000000 0.000000 0.000000 0.096788 0.000000
# 6 0.000000 0.000000 0.000000 0.000000 0.000000 0.025838
#
#
# Mechanical properties :
#
#
# Convention : Reuss Voigt Hill
#
# Bulk Modulus (GPa) = 21.51395 24.94586 23.22991
# Shear Modulus (GPa) = 24.43956 34.85350 29.64653
#
# Velocity S-wave (km/s) = 3.22539 3.85175 3.55240
# Velocity P-wave (km/s) = 4.79881 5.51362 5.16859
#
# Compressibility (1/GPa) = 0.04648146
#
# Stress axis : x y z
#
# Youngs Moduli (GPa) = 80.96864 89.69214 41.74250
#
# Poissons Ratio (x) = 0.08028 -0.05491
# Poissons Ratio (y) = 0.07247 0.03789
# Poissons Ratio (z) = -0.10651 0.08141
#
# Static dielectric constant tensor:
#      x y z
#    x 1.992460 0.000000 0.000000 
#    y 0.000000 2.034640 0.000000 
#    z 0.000000 0.000000 1.906910 
# 
# From -- ./inp_files/14262.got.cif
#   From: 2010.05.17/outbox.cif.g08.bks.cpg/sg43_8_cif.got.tgz:14262.got - 2010.06.03 19:21:55.
