data_PCOD9371401
_publ_section_title
;
Structure prediction by ZEFSAII (Michael W. Deem and Ramdas Pophale) SiO2 
 PCOD9371401
Probable space group: F D D 2
;
_chemical_formula_sum "Si O2"
_cell_formula_units_Z 112
_cell_length_a 10.959564
_cell_length_b 21.270284
_cell_length_c 22.154021
_cell_angle_alpha 90.000000
_cell_angle_beta 90.000000
_cell_angle_gamma 90.000000
_cell_volume 5164.391157
_symmetry_space_group_name_H-M "F D D 2"
_symmetry_group_IT_number 43
_symmetry_cell_setting 'orthorhombic'
loop_
_space_group_symop_operation_xyz
x,y,z
-x,-y,z
1/4-x,1/4+y,1/4+z
1/4+x,1/4-y,1/4+z
x,1/2+y,1/2+z
-x,1/2-y,1/2+z
1/4-x,3/4+y,3/4+z
1/4+x,3/4-y,3/4+z
1/2+x,y,1/2+z
1/2-x,-y,1/2+z
3/4-x,1/4+y,3/4+z
3/4+x,1/4-y,3/4+z
1/2+x,1/2+y,z
1/2-x,1/2-y,z
3/4-x,3/4+y,1/4+z
3/4+x,3/4-y,1/4+z
loop_
_atom_site_type_symbol
_atom_site_label
_atom_site_fract_x
_atom_site_fract_y
_atom_site_fract_z
Si Si1 0.368870 0.710237 0.989300
Si Si2 0.441576 0.382124 0.635021
Si Si3 0.869613 0.466405 0.244013
Si Si4 0.739375 0.089982 0.032723
Si Si5 0.628800 0.522112 0.096123
Si Si6 0.346786 0.594929 0.565220
Si Si7 0.869059 0.011188 0.450975
O O1 0.250000 0.750000 0.009824
O O2 0.364420 0.712618 0.916370
O O3 0.500720 0.740348 0.003143
O O4 0.340489 0.641299 0.015408
O O5 0.365670 0.423293 0.683340
O O6 0.372498 0.380785 0.570695
O O7 0.572872 0.415064 0.624872
O O8 0.453829 0.312034 0.661871
O O9 0.878271 0.415687 0.297039
O O10 0.000000 0.500000 0.242374
O O11 0.788563 0.037143 0.078365
O O12 0.694793 0.052976 0.972490
O O13 0.500000 0.500000 0.070404
O O14 0.703858 0.580374 0.069507
O O15 0.395010 0.548331 0.513533
O O16 0.000000 0.000000 0.420848
#
# Coordination Sequence:
#
# PCOD9371401 Si02
#       7
#    16  16  16  16  16  16  16
#     4  11  24  42  66 100 135 175 231 281 343 418
#     4  11  22  40  71  99 131 179 230 280 347 403
#     4  11  24  41  68 100 132 178 233 279 344 420
#     4  11  23  42  68  96 137 182 221 287 341 409
#     4  10  23  42  65  91 132 181 218 274 349 401
#     4  10  22  42  65  97 133 171 226 287 333 412
#     4  10  22  38  67 102 132 173 236 273 336 421
#
# _framework density 21.686969999999999
#
# number of rings (size 3 to 8) (size 9 to 14) (size 15 to 20)
#    0.000    1.429    2.857    1.714    6.000    1.714 
#    5.143    0.000    0.000    0.000    0.000    0.000 
#    0.000    0.000    0.000    0.000    0.000    0.000 
#
# Total GULP energy -156212.950948 kJ/mol
# GULP energy per Si atom -5579.033962 kJ/mol
# Density = 2.163761 g / cm^3
# Si number density = 21.686970 Si / 1000 Ang^3
#
#
#
# Elastic Constant Matrix: (Units=GPa)
#
#
# Indices 1 2 3 4 5 6 
#
# 1 122.5640 39.7378 23.7071 0.0000 0.0000 0.0000
# 2 39.7378 95.9367 32.0591 0.0000 0.0000 0.0000
# 3 23.7071 32.0591 50.5571 0.0000 0.0000 0.0000
# 4 0.0000 0.0000 0.0000 10.8006 0.0000 0.0000
# 5 0.0000 0.0000 0.0000 0.0000 19.5164 0.0000
# 6 0.0000 0.0000 0.0000 0.0000 0.0000 45.6774
#
#
#
# Elastic Compliance Matrix: (Units=1/GPa)
#
#
# Indices 1 2 3 4 5 6 
#
# 1 0.009674 -0.003161 -0.002532 0.000000 0.000000 0.000000
# 2 -0.003161 0.014259 -0.007560 0.000000 0.000000 0.000000
# 3 -0.002532 -0.007560 0.025761 0.000000 0.000000 0.000000
# 4 0.000000 0.000000 0.000000 0.092587 0.000000 0.000000
# 5 0.000000 0.000000 0.000000 0.000000 0.051239 0.000000
# 6 0.000000 0.000000 0.000000 0.000000 0.000000 0.021893
#
#
# Mechanical properties :
#
#
# Convention : Reuss Voigt Hill
#
# Bulk Modulus (GPa) = 43.12485 51.11844 47.12164
# Shear Modulus (GPa) = 20.02836 26.76913 23.39875
#
# Velocity S-wave (km/s) = 3.04224 3.51713 3.28827
# Velocity P-wave (km/s) = 5.68055 6.33371 6.01600
#
# Compressibility (1/GPa) = 0.02318849
#
# Stress axis : x y z
#
# Youngs Moduli (GPa) = 103.37499 70.13107 38.81905
#
# Poissons Ratio (x) = 0.22167 0.09828
# Poissons Ratio (y) = 0.32675 0.29346
# Poissons Ratio (z) = 0.26172 0.53017
#
# Static dielectric constant tensor:
#      x y z
#    x 1.864850 0.000000 0.000000 
#    y 0.000000 1.815450 0.000000 
#    z 0.000000 0.000000 1.804830 
# 
# From -- ./inp_files/21165.got.cif
#   From: 2010.05.17/outbox.cif.g08.bks.cpg/sg43_11_cif.got.tgz:21165.got - 2010.06.03 19:21:55.
