data_PCOD9371731
_publ_section_title
;
Structure prediction by ZEFSAII (Michael W. Deem and Ramdas Pophale) SiO2 
 PCOD9371731
Probable space group: F D D 2
;
_chemical_formula_sum "Si O2"
_cell_formula_units_Z 72
_cell_length_a 21.841163
_cell_length_b 13.589729
_cell_length_c 10.044104
_cell_angle_alpha 90.000000
_cell_angle_beta 90.000000
_cell_angle_gamma 90.000000
_cell_volume 2981.245612
_symmetry_space_group_name_H-M "F D D 2"
_symmetry_group_IT_number 43
_symmetry_cell_setting 'orthorhombic'
loop_
_space_group_symop_operation_xyz
x,y,z
-x,-y,z
1/4-x,1/4+y,1/4+z
1/4+x,1/4-y,1/4+z
x,1/2+y,1/2+z
-x,1/2-y,1/2+z
1/4-x,3/4+y,3/4+z
1/4+x,3/4-y,3/4+z
1/2+x,y,1/2+z
1/2-x,-y,1/2+z
3/4-x,1/4+y,3/4+z
3/4+x,1/4-y,3/4+z
1/2+x,1/2+y,z
1/2-x,1/2-y,z
3/4-x,3/4+y,1/4+z
3/4+x,3/4-y,1/4+z
loop_
_atom_site_type_symbol
_atom_site_label
_atom_site_fract_x
_atom_site_fract_y
_atom_site_fract_z
Si Si1 0.653183 0.776320 0.612130
Si Si2 0.218059 0.406520 0.248312
Si Si3 0.750000 0.750000 0.841821
Si Si4 0.585292 0.465693 0.072859
Si Si5 0.771148 0.041995 0.457204
O O1 0.692906 0.755882 0.741355
O O2 0.681060 0.730665 0.478570
O O3 0.642226 0.891920 0.582432
O O4 0.586325 0.730577 0.638344
O O5 0.164228 0.324941 0.260003
O O6 0.281087 0.343817 0.251573
O O7 0.223256 0.475044 0.377329
O O8 0.218869 0.470496 0.114597
O O9 0.752095 0.653823 0.931725
#
# Coordination Sequence:
#
# PCOD9371731 Si02
#       5
#    16  16   8  16  16
#     4  11  24  45  73 114 142 200 249 311 379 447
#     4  10  24  46  74 105 149 192 246 304 380 447
#     4  12  24  44  76 100 158 194 250 312 368 450
#     4  10  22  45  71 103 149 187 249 300 372 445
#     4  11  26  46  75 113 150 195 251 307 379 455
#
# _framework density 24.150980000000001
#
# number of rings (size 3 to 8) (size 9 to 14) (size 15 to 20)
#    0.000    1.333    2.222    2.667    9.333    0.000 
#   16.000    0.000    0.000    0.000    0.000    0.000 
#    0.000    0.000    0.000    0.000    0.000    0.000 
#
# Total GULP energy -100696.765942 kJ/mol
# GULP energy per Si atom -5594.264775 kJ/mol
# Density = 2.409601 g / cm^3
# Si number density = 24.150980 Si / 1000 Ang^3
#
#
#
# Elastic Constant Matrix: (Units=GPa)
#
#
# Indices 1 2 3 4 5 6 
#
# 1 67.6135 30.3578 21.8053 0.0000 0.0000 0.0000
# 2 30.3578 119.6993 25.4244 0.0000 0.0000 0.0000
# 3 21.8053 25.4244 138.7382 0.0000 0.0000 0.0000
# 4 0.0000 0.0000 0.0000 29.9334 0.0000 0.0000
# 5 0.0000 0.0000 0.0000 0.0000 29.3647 0.0000
# 6 0.0000 0.0000 0.0000 0.0000 0.0000 19.1236
#
#
#
# Elastic Compliance Matrix: (Units=1/GPa)
#
#
# Indices 1 2 3 4 5 6 
#
# 1 0.017198 -0.003941 -0.001981 0.000000 0.000000 0.000000
# 2 -0.003941 0.009596 -0.001139 0.000000 0.000000 0.000000
# 3 -0.001981 -0.001139 0.007728 0.000000 0.000000 0.000000
# 4 0.000000 0.000000 0.000000 0.033407 0.000000 0.000000
# 5 0.000000 0.000000 0.000000 0.000000 0.034055 0.000000
# 6 0.000000 0.000000 0.000000 0.000000 0.000000 0.052291
#
#
# Mechanical properties :
#
#
# Convention : Reuss Voigt Hill
#
# Bulk Modulus (GPa) = 49.01955 53.46957 51.24456
# Shear Modulus (GPa) = 28.53931 32.24859 30.39395
#
# Velocity S-wave (km/s) = 3.44132 3.65813 3.55138
# Velocity P-wave (km/s) = 6.01094 6.32695 6.17097
#
# Compressibility (1/GPa) = 0.02040003
#
# Stress axis : x y z
#
# Youngs Moduli (GPa) = 58.14546 104.21316 129.40166
#
# Poissons Ratio (x) = 0.41071 0.25632
# Poissons Ratio (y) = 0.22915 0.14739
# Poissons Ratio (z) = 0.11518 0.11870
#
# Static dielectric constant tensor:
#      x y z
#    x 1.968230 0.000000 0.000000 
#    y 0.000000 1.954850 0.000000 
#    z 0.000000 0.000000 1.870610 
# 
# From -- ./inp_files/2325.got.cif
#   From: 2010.05.17/outbox.cif.g08.bks.cpg/sg43_2_cif.got.tgz:2325.got - 2010.06.03 19:21:55.
