data_PCOD9371365
_publ_section_title
;
Structure prediction by ZEFSAII (Michael W. Deem and Ramdas Pophale) SiO2 
 PCOD9371365
Probable space group: F D D 2
;
_chemical_formula_sum "Si O2"
_cell_formula_units_Z 120
_cell_length_a 21.708735
_cell_length_b 19.903397
_cell_length_c 11.031901
_cell_angle_alpha 90.000000
_cell_angle_beta 90.000000
_cell_angle_gamma 90.000000
_cell_volume 4766.636988
_symmetry_space_group_name_H-M "F D D 2"
_symmetry_group_IT_number 43
_symmetry_cell_setting 'orthorhombic'
loop_
_space_group_symop_operation_xyz
x,y,z
-x,-y,z
1/4-x,1/4+y,1/4+z
1/4+x,1/4-y,1/4+z
x,1/2+y,1/2+z
-x,1/2-y,1/2+z
1/4-x,3/4+y,3/4+z
1/4+x,3/4-y,3/4+z
1/2+x,y,1/2+z
1/2-x,-y,1/2+z
3/4-x,1/4+y,3/4+z
3/4+x,1/4-y,3/4+z
1/2+x,1/2+y,z
1/2-x,1/2-y,z
3/4-x,3/4+y,1/4+z
3/4+x,3/4-y,1/4+z
loop_
_atom_site_type_symbol
_atom_site_label
_atom_site_fract_x
_atom_site_fract_y
_atom_site_fract_z
Si Si1 0.332574 0.080924 0.935610
Si Si2 0.409773 0.970187 0.799440
Si Si3 0.716096 0.033599 0.057503
Si Si4 0.594165 0.716288 0.024808
Si Si5 0.600561 0.852453 0.137440
Si Si6 0.268804 0.129055 0.722827
Si Si7 0.500000 0.500000 0.087137
Si Si8 0.964268 0.643866 0.567693
O O1 0.320045 0.127906 0.823731
O O2 0.383504 0.029576 0.884218
O O3 0.276300 0.031525 0.973255
O O4 0.343329 0.124601 0.052429
O O5 0.462971 0.934588 0.877637
O O6 0.441223 0.988114 0.673922
O O7 0.350727 0.922662 0.773013
O O8 0.661740 0.010493 0.149663
O O9 0.768790 0.059562 0.146520
O O10 0.705993 0.095098 0.964414
O O11 0.604618 0.771194 0.131672
O O12 0.525695 0.686183 0.039880
O O13 0.640205 0.653181 0.001277
O O14 0.543217 0.877154 0.052733
O O15 0.481859 0.569488 0.024680
#
# Coordination Sequence:
#
# PCOD9371365 Si02
#       8
#    16  16  16  16  16  16   8  16
#     4  10  22  35  61  97 130 174 219 286 354 412
#     4  11  22  37  65 100 138 170 229 300 352 401
#     4   9  18  38  61  89 128 169 225 282 339 408
#     4  10  23  44  70  98 140 188 237 289 361 431
#     4  10  22  42  66  99 136 177 232 292 347 427
#     4  11  21  36  64  97 126 175 227 287 351 408
#     4  12  24  44  66 106 136 182 240 282 358 432
#     4  11  24  45  67 102 141 184 233 287 356 433
#
# _framework density 25.174982
#
# number of rings (size 3 to 8) (size 9 to 14) (size 15 to 20)
#    0.000    1.600    1.333    4.800   11.200    0.000 
#    2.400    4.000    0.000    0.000    0.000    0.000 
#    0.000    0.000    0.000    0.000    0.000    0.000 
#
# Total GULP energy -167325.503156 kJ/mol
# GULP energy per Si atom -5577.516772 kJ/mol
# Density = 2.511768 g / cm^3
# Si number density = 25.174982 Si / 1000 Ang^3
#
#
#
# Elastic Constant Matrix: (Units=GPa)
#
#
# Indices 1 2 3 4 5 6 
#
# 1 86.3626 59.5308 23.1335 0.0000 0.0000 0.0000
# 2 59.5308 140.4434 12.7450 0.0000 0.0000 0.0000
# 3 23.1335 12.7450 38.8523 0.0000 0.0000 0.0000
# 4 0.0000 0.0000 0.0000 36.2068 0.0000 0.0000
# 5 0.0000 0.0000 0.0000 0.0000 32.1970 0.0000
# 6 0.0000 0.0000 0.0000 0.0000 0.0000 32.4426
#
#
#
# Elastic Compliance Matrix: (Units=1/GPa)
#
#
# Indices 1 2 3 4 5 6 
#
# 1 0.018944 -0.007221 -0.008911 0.000000 0.000000 0.000000
# 2 -0.007221 0.010091 0.000989 0.000000 0.000000 0.000000
# 3 -0.008911 0.000989 0.030720 0.000000 0.000000 0.000000
# 4 0.000000 0.000000 0.000000 0.027619 0.000000 0.000000
# 5 0.000000 0.000000 0.000000 0.000000 0.031059 0.000000
# 6 0.000000 0.000000 0.000000 0.000000 0.000000 0.030824
#
#
# Mechanical properties :
#
#
# Convention : Reuss Voigt Hill
#
# Bulk Modulus (GPa) = 33.93331 50.71966 42.32649
# Shear Modulus (GPa) = 26.40414 31.51920 28.96167
#
# Velocity S-wave (km/s) = 3.24207 3.54221 3.39546
# Velocity P-wave (km/s) = 5.24623 6.07620 5.67641
#
# Compressibility (1/GPa) = 0.02946957
#
# Stress axis : x y z
#
# Youngs Moduli (GPa) = 52.78848 99.09430 32.55256
#
# Poissons Ratio (x) = 0.71557 0.29006
# Poissons Ratio (y) = 0.38119 -0.03220
# Poissons Ratio (z) = 0.47038 -0.09803
#
# Static dielectric constant tensor:
#      x y z
#    x 2.096650 0.000000 0.000000 
#    y 0.000000 2.061200 0.000000 
#    z 0.000000 0.000000 2.013570 
# 
# From -- ./inp_files/7614.got.cif
#   From: 2010.05.17/outbox.cif.g08.bks.cpg/sg43_4_cif.got.tgz:7614.got - 2010.06.03 19:21:55.
