data_PCOD9371969
_publ_section_title
;
Structure prediction by ZEFSAII (Michael W. Deem and Ramdas Pophale) SiO2 
 PCOD9371969
Probable space group: F D D 2
;
_chemical_formula_sum "Si O2"
_cell_formula_units_Z 88
_cell_length_a 29.910075
_cell_length_b 5.132478
_cell_length_c 22.316652
_cell_angle_alpha 90.000000
_cell_angle_beta 90.000000
_cell_angle_gamma 90.000000
_cell_volume 3425.891778
_symmetry_space_group_name_H-M "F D D 2"
_symmetry_group_IT_number 43
_symmetry_cell_setting 'orthorhombic'
loop_
_space_group_symop_operation_xyz
x,y,z
-x,-y,z
1/4-x,1/4+y,1/4+z
1/4+x,1/4-y,1/4+z
x,1/2+y,1/2+z
-x,1/2-y,1/2+z
1/4-x,3/4+y,3/4+z
1/4+x,3/4-y,3/4+z
1/2+x,y,1/2+z
1/2-x,-y,1/2+z
3/4-x,1/4+y,3/4+z
3/4+x,1/4-y,3/4+z
1/2+x,1/2+y,z
1/2-x,1/2-y,z
3/4-x,3/4+y,1/4+z
3/4+x,3/4-y,1/4+z
loop_
_atom_site_type_symbol
_atom_site_label
_atom_site_fract_x
_atom_site_fract_y
_atom_site_fract_z
Si Si1 0.277443 0.984577 0.440100
Si Si2 0.370016 0.637900 0.216931
Si Si3 0.441199 0.387286 0.984385
Si Si4 0.430970 0.337286 0.309043
Si Si5 0.343226 0.189203 0.357725
Si Si6 0.250000 0.750000 0.160854
O O1 0.250000 0.250000 0.431932
O O2 0.286893 0.957136 0.510480
O O3 0.323810 0.991151 0.405363
O O4 0.250000 0.750000 0.415053
O O5 0.342722 0.892852 0.232113
O O6 0.404497 0.555124 0.269473
O O7 0.395778 0.673157 0.153926
O O8 0.335018 0.393297 0.210201
O O9 0.443104 0.460343 0.055106
O O10 0.483730 0.246362 0.951847
O O11 0.391556 0.145382 0.329209
O O12 0.459385 0.438574 0.364951
#
# Coordination Sequence:
#
# PCOD9371969 Si02
#       6
#    16  16  16  16  16   8
#     4  11  26  47  73 108 147 201 260 318 375 455
#     4  10  24  46  71 101 139 201 245 293 370 463
#     4  11  26  43  71 108 142 189 244 309 377 439
#     4  10  23  46  74 106 147 199 250 312 381 466
#     4  10  24  47  73 103 151 197 252 303 389 458
#     4  12  24  46  76 116 152 188 254 328 382 450
#
# _framework density 25.686741000000001
#
# number of rings (size 3 to 8) (size 9 to 14) (size 15 to 20)
#    0.000    1.455    2.727    0.000    3.818   13.818 
#    0.000    0.000    0.000    0.000    0.000    0.000 
#    0.000    0.000    0.000    0.000    0.000    0.000 
#
# Total GULP energy -122897.740445 kJ/mol
# GULP energy per Si atom -5586.260929 kJ/mol
# Density = 2.562828 g / cm^3
# Si number density = 25.686741 Si / 1000 Ang^3
#
#
#
# Elastic Constant Matrix: (Units=GPa)
#
#
# Indices 1 2 3 4 5 6 
#
# 1 135.1934 61.3740 44.1674 -0.0015 -0.0574 -0.0009
# 2 61.3740 129.5383 32.0124 0.0362 -0.0294 -0.0111
# 3 44.1674 32.0124 167.0594 -0.0011 -0.0104 -0.0057
# 4 -0.0015 0.0362 -0.0011 26.6823 -0.1529 -0.0035
# 5 -0.0574 -0.0294 -0.0104 -0.1529 113.5860 0.0067
# 6 -0.0009 -0.0111 -0.0057 -0.0035 0.0067 46.2089
#
#
#
# Elastic Compliance Matrix: (Units=1/GPa)
#
#
# Indices 1 2 3 4 5 6 
#
# 1 0.009918 -0.004252 -0.001807 0.000006 0.000004 -0.000001
# 2 -0.004252 0.009927 -0.000778 -0.000014 0.000000 0.000002
# 3 -0.001807 -0.000778 0.006613 0.000001 -0.000001 0.000001
# 4 0.000006 -0.000014 0.000001 0.037478 0.000050 0.000003
# 5 0.000004 0.000000 -0.000001 0.000050 0.008804 -0.000001
# 6 -0.000001 0.000002 0.000001 0.000003 -0.000001 0.021641
#
#
# Mechanical properties :
#
#
# Convention : Reuss Voigt Hill
#
# Bulk Modulus (GPa) = 78.23383 78.54432 78.38908
# Shear Modulus (GPa) = 44.51735 56.91127 50.71431
#
# Velocity S-wave (km/s) = 4.16755 4.71211 4.44817
# Velocity P-wave (km/s) = 7.32673 7.76205 7.54753
#
# Compressibility (1/GPa) = 0.01278219
#
# Stress axis : x y z
#
# Youngs Moduli (GPa) = 100.83051 100.73866 151.22283
#
# Poissons Ratio (x) = 0.42837 0.27329
# Poissons Ratio (y) = 0.42876 0.11765
# Poissons Ratio (z) = 0.18222 0.07837
#
# Static dielectric constant tensor:
#      x y z
#    x 2.068610 -0.000220 0.000020 
#    y -0.000220 1.966590 0.000000 
#    z 0.000020 0.000000 2.067570 
# 
# From -- ./inp_files/22943.got.cif
#   From: 2010.05.17/outbox.cif.g08.bks.cpg/sg43_12_cif.got.tgz:22943.got - 2010.06.03 19:21:55.
