data_PCOD9371771
_publ_section_title
;
Structure prediction by ZEFSAII (Michael W. Deem and Ramdas Pophale) SiO2 
 PCOD9371771
Probable space group: F D D 2
;
_chemical_formula_sum "Si O2"
_cell_formula_units_Z 88
_cell_length_a 20.440523
_cell_length_b 28.046734
_cell_length_c 6.813973
_cell_angle_alpha 90.000000
_cell_angle_beta 90.000000
_cell_angle_gamma 90.000000
_cell_volume 3906.381977
_symmetry_space_group_name_H-M "F D D 2"
_symmetry_group_IT_number 43
_symmetry_cell_setting 'orthorhombic'
loop_
_space_group_symop_operation_xyz
x,y,z
-x,-y,z
1/4-x,1/4+y,1/4+z
1/4+x,1/4-y,1/4+z
x,1/2+y,1/2+z
-x,1/2-y,1/2+z
1/4-x,3/4+y,3/4+z
1/4+x,3/4-y,3/4+z
1/2+x,y,1/2+z
1/2-x,-y,1/2+z
3/4-x,1/4+y,3/4+z
3/4+x,1/4-y,3/4+z
1/2+x,1/2+y,z
1/2-x,1/2-y,z
3/4-x,3/4+y,1/4+z
3/4+x,3/4-y,1/4+z
loop_
_atom_site_type_symbol
_atom_site_label
_atom_site_fract_x
_atom_site_fract_y
_atom_site_fract_z
Si Si1 0.250000 0.250000 0.496511
Si Si2 0.391532 0.302824 0.022837
Si Si3 0.560836 0.406998 0.085236
Si Si4 0.655026 0.287713 0.330660
Si Si5 0.507577 0.818572 0.773553
Si Si6 0.431742 0.855612 0.132677
O O1 0.221403 0.207671 0.368878
O O2 0.304338 0.227058 0.639561
O O3 0.347153 0.257334 0.973793
O O4 0.421889 0.324141 0.824824
O O5 0.347136 0.342834 0.127893
O O6 0.448603 0.288757 0.177598
O O7 0.511692 0.364678 0.131977
O O8 0.616839 0.401362 0.250288
O O9 0.578621 0.295301 0.275605
O O10 0.684026 0.337260 0.414671
O O11 0.489078 0.836723 0.990811
#
# Coordination Sequence:
#
# PCOD9371771 Si02
#       6
#     8  16  16  16  16  16
#     4  12  22  44  72  94 144 182 232 288 348 426
#     4  11  25  42  70 104 134 175 242 286 348 418
#     4  10  23  44  65  99 137 180 227 281 348 419
#     4  11  25  43  71 101 137 185 230 290 354 419
#     4  10  24  44  68  98 138 182 225 287 353 419
#     4  10  22  47  68  95 139 181 227 289 350 415
#
# _framework density 22.527239000000002
#
# number of rings (size 3 to 8) (size 9 to 14) (size 15 to 20)
#    0.000    1.455    3.636    0.000    2.545    6.545 
#    0.000    0.000    0.000    0.000    0.000    0.000 
#    0.000    0.000    0.000    0.000    0.000    0.000 
#
# Total GULP energy -123047.171730 kJ/mol
# GULP energy per Si atom -5593.053260 kJ/mol
# Density = 2.247597 g / cm^3
# Si number density = 22.527239 Si / 1000 Ang^3
#
#
#
# Elastic Constant Matrix: (Units=GPa)
#
#
# Indices 1 2 3 4 5 6 
#
# 1 68.0594 5.9029 37.1046 0.0009 -0.0027 -0.0004
# 2 5.9029 64.5867 39.2679 -0.0043 0.0030 0.0032
# 3 37.1046 39.2679 104.6346 -0.0018 -0.0085 -0.0024
# 4 0.0009 -0.0043 -0.0018 19.8661 0.0022 0.0024
# 5 -0.0027 0.0030 -0.0085 0.0022 38.6345 0.0014
# 6 -0.0004 0.0032 -0.0024 0.0024 0.0014 39.6111
#
#
#
# Elastic Compliance Matrix: (Units=1/GPa)
#
#
# Indices 1 2 3 4 5 6 
#
# 1 0.018653 0.003002 -0.007741 -0.000001 -0.000001 -0.000001
# 2 0.003002 0.020543 -0.008774 0.000004 -0.000003 -0.000002
# 3 -0.007741 -0.008774 0.015595 0.000000 0.000004 0.000002
# 4 -0.000001 0.000004 0.000000 0.050337 -0.000003 -0.000003
# 5 -0.000001 -0.000003 0.000004 -0.000003 0.025884 -0.000001
# 6 -0.000001 -0.000002 0.000002 -0.000003 -0.000001 0.025245
#
#
# Mechanical properties :
#
#
# Convention : Reuss Voigt Hill
#
# Bulk Modulus (GPa) = 36.01747 44.64795 40.33271
# Shear Modulus (GPa) = 25.96883 29.95604 27.96243
#
# Velocity S-wave (km/s) = 3.39894 3.65056 3.52699
# Velocity P-wave (km/s) = 5.60596 6.13444 5.87614
#
# Compressibility (1/GPa) = 0.02776430
#
# Stress axis : x y z
#
# Youngs Moduli (GPa) = 53.61079 48.67790 64.12360
#
# Poissons Ratio (x) = -0.14611 0.49638
# Poissons Ratio (y) = -0.16092 0.56262
# Poissons Ratio (z) = 0.41500 0.42710
#
# Static dielectric constant tensor:
#      x y z
#    x 1.852540 0.000010 0.000010 
#    y 0.000010 1.868360 0.000000 
#    z 0.000010 0.000000 1.792870 
# 
# From -- ./inp_files/1006.got.cif
#   From: 2010.05.17/outbox.cif.g08.bks.cpg/sg43_1_cif.got.tgz:1006.got - 2010.06.03 19:21:55.
