data_PCOD9371060
_publ_section_title
;
Structure prediction by ZEFSAII (Michael W. Deem and Ramdas Pophale) SiO2 
 PCOD9371060
Probable space group: F D D 2
;
_chemical_formula_sum "Si O2"
_cell_formula_units_Z 112
_cell_length_a 14.252348
_cell_length_b 27.538744
_cell_length_c 12.794517
_cell_angle_alpha 90.000000
_cell_angle_beta 90.000000
_cell_angle_gamma 90.000000
_cell_volume 5021.742534
_symmetry_space_group_name_H-M "F D D 2"
_symmetry_group_IT_number 43
_symmetry_cell_setting 'orthorhombic'
loop_
_space_group_symop_operation_xyz
x,y,z
-x,-y,z
1/4-x,1/4+y,1/4+z
1/4+x,1/4-y,1/4+z
x,1/2+y,1/2+z
-x,1/2-y,1/2+z
1/4-x,3/4+y,3/4+z
1/4+x,3/4-y,3/4+z
1/2+x,y,1/2+z
1/2-x,-y,1/2+z
3/4-x,1/4+y,3/4+z
3/4+x,1/4-y,3/4+z
1/2+x,1/2+y,z
1/2-x,1/2-y,z
3/4-x,3/4+y,1/4+z
3/4+x,3/4-y,1/4+z
loop_
_atom_site_type_symbol
_atom_site_label
_atom_site_fract_x
_atom_site_fract_y
_atom_site_fract_z
Si Si1 0.532897 0.616953 0.590810
Si Si2 0.849231 0.238507 0.859153
Si Si3 0.149305 0.258174 0.125343
Si Si4 0.826403 0.637044 0.080660
Si Si5 0.081579 0.828833 0.157113
Si Si6 0.619870 0.618606 0.179898
Si Si7 0.039978 0.232649 0.550290
O O1 0.421001 0.604097 0.583055
O O2 0.562125 0.603510 0.708015
O O3 0.601286 0.593152 0.503999
O O4 0.546420 0.675927 0.578719
O O5 0.750000 0.250000 0.909575
O O6 0.852752 0.261092 0.743520
O O7 0.851296 0.180856 0.866409
O O8 0.925940 0.260986 0.933118
O O9 0.250000 0.250000 0.077839
O O10 0.138091 0.315278 0.139168
O O11 0.064734 0.245191 0.052607
O O12 0.723574 0.630724 0.132980
O O13 0.117213 0.855534 0.051752
O O14 0.088076 0.771025 0.129986
O O15 0.972896 0.847399 0.170627
#
# Coordination Sequence:
#
# PCOD9371060 Si02
#       7
#    16  16  16  16  16  16  16
#     4  11  24  43  63  92 133 170 210 271 339 402
#     4  10  21  38  62  90 123 161 209 270 321 376
#     4  10  21  39  63  91 122 163 211 263 320 385
#     4  11  23  41  62  90 131 171 208 265 338 396
#     4  11  23  40  65  94 125 170 223 272 324 393
#     4  11  21  38  64  93 124 168 222 266 321 399
#     4  10  23  39  62  94 125 161 213 267 325 389
#
# _framework density 22.303016
#
# number of rings (size 3 to 8) (size 9 to 14) (size 15 to 20)
#    0.000    1.429    0.000    6.000    0.000    8.000 
#    0.000    1.429    0.000    0.857    0.000    0.000 
#    0.000    0.000    0.000    0.000    0.000    0.000 
#
# Total GULP energy -155971.755895 kJ/mol
# GULP energy per Si atom -5570.419853 kJ/mol
# Density = 2.225225 g / cm^3
# Si number density = 22.303016 Si / 1000 Ang^3
#
#
#
# Elastic Constant Matrix: (Units=GPa)
#
#
# Indices 1 2 3 4 5 6 
#
# 1 128.6685 -4.4536 51.6901 0.0000 0.0000 0.0000
# 2 -4.4536 43.3779 -19.2900 0.0000 0.0000 0.0000
# 3 51.6901 -19.2900 116.1357 0.0000 0.0000 0.0000
# 4 0.0000 0.0000 0.0000 17.5584 0.0000 0.0000
# 5 0.0000 0.0000 0.0000 0.0000 -204.3188 0.0000
# 6 0.0000 0.0000 0.0000 0.0000 0.0000 26.7673
#
#
#
# Elastic Compliance Matrix: (Units=1/GPa)
#
#
# Indices 1 2 3 4 5 6 
#
# 1 0.009502 -0.000977 -0.004392 0.000000 0.000000 0.000000
# 2 -0.000977 0.024992 0.004586 0.000000 0.000000 0.000000
# 3 -0.004392 0.004586 0.011327 0.000000 0.000000 0.000000
# 4 0.000000 0.000000 0.000000 0.056953 0.000000 0.000000
# 5 0.000000 0.000000 0.000000 0.000000 -0.004894 0.000000
# 6 0.000000 0.000000 0.000000 0.000000 0.000000 0.037359
#
#
# Mechanical properties :
#
#
# Convention : Reuss Voigt Hill
#
# Bulk Modulus (GPa) = 22.59578 38.23058 30.41318
# Shear Modulus (GPa) = 32.99091 -14.64959 9.17066
#
# Velocity S-wave (km/s) = 3.85023 -2.56568 2.02997
# Velocity P-wave (km/s) = 5.46982 2.89857 4.37725
#
# Compressibility (1/GPa) = 0.04425605
#
# Stress axis : x y z
#
# Youngs Moduli (GPa) = 105.23716 40.01225 88.28434
#
# Poissons Ratio (x) = 0.03911 0.38772
# Poissons Ratio (y) = 0.10285 -0.40489
# Poissons Ratio (z) = 0.46217 -0.18350
#
# Static dielectric constant tensor:
#      x y z
#    x 5.470470 0.000000 0.000000 
#    y 0.000000 1.881140 0.000000 
#    z 0.000000 0.000000 1.799810 
# 
# From -- ./inp_files/6341.got.cif
#   From: 2010.05.17/outbox.cif.g08.bks.cpg/sg43_4_cif.got.tgz:6341.got - 2010.06.03 19:21:55.
