data_PCOD9371770
_publ_section_title
;
Structure prediction by ZEFSAII (Michael W. Deem and Ramdas Pophale) SiO2 
 PCOD9371770
Probable space group: F D D 2
;
_chemical_formula_sum "Si O2"
_cell_formula_units_Z 104
_cell_length_a 18.104866
_cell_length_b 8.507013
_cell_length_c 29.201935
_cell_angle_alpha 90.000000
_cell_angle_beta 90.000000
_cell_angle_gamma 90.000000
_cell_volume 4497.633274
_symmetry_space_group_name_H-M "F D D 2"
_symmetry_group_IT_number 43
_symmetry_cell_setting 'orthorhombic'
loop_
_space_group_symop_operation_xyz
x,y,z
-x,-y,z
1/4-x,1/4+y,1/4+z
1/4+x,1/4-y,1/4+z
x,1/2+y,1/2+z
-x,1/2-y,1/2+z
1/4-x,3/4+y,3/4+z
1/4+x,3/4-y,3/4+z
1/2+x,y,1/2+z
1/2-x,-y,1/2+z
3/4-x,1/4+y,3/4+z
3/4+x,1/4-y,3/4+z
1/2+x,1/2+y,z
1/2-x,1/2-y,z
3/4-x,3/4+y,1/4+z
3/4+x,3/4-y,1/4+z
loop_
_atom_site_type_symbol
_atom_site_label
_atom_site_fract_x
_atom_site_fract_y
_atom_site_fract_z
Si Si1 0.894627 0.231833 0.297780
Si Si2 0.750000 0.250000 0.522621
Si Si3 0.612915 0.872617 0.624420
Si Si4 0.663033 0.237731 0.971358
Si Si5 0.500000 0.500000 0.047328
Si Si6 0.584361 0.009438 0.141683
Si Si7 0.860631 0.662127 0.226584
Si Si8 0.750000 0.250000 0.095252
O O1 0.838586 0.283558 0.337476
O O2 0.956385 0.364388 0.298027
O O3 0.934668 0.076917 0.316981
O O4 0.877311 0.165396 0.247000
O O5 0.815130 0.334716 0.495560
O O6 0.601692 0.694268 0.642311
O O7 0.702193 0.884280 0.619795
O O8 0.588970 0.976342 0.666830
O O9 0.561416 0.919329 0.580998
O O10 0.750000 0.250000 0.983297
O O11 0.622099 0.400928 0.980900
O O12 0.456218 0.382413 0.012394
O O13 0.500000 0.000000 0.156836
O O14 0.638299 0.907615 0.174692
#
# Coordination Sequence:
#
# PCOD9371770 Si02
#       8
#    16   8  16  16   8  16  16   8
#     4  11  23  41  71  94 140 179 249 290 373 439
#     4  12  22  41  66 101 128 193 228 303 366 452
#     4  11  25  45  73  99 149 190 253 299 385 444
#     4  12  22  46  72 101 137 204 242 309 374 461
#     4  12  28  46  74 118 146 200 254 328 360 464
#     4  11  25  45  64 106 141 191 242 314 370 455
#     4  12  26  43  72  99 152 182 256 304 385 436
#     4  10  22  47  64  97 134 193 232 293 358 460
#
# _framework density 23.123273000000001
#
# number of rings (size 3 to 8) (size 9 to 14) (size 15 to 20)
#    0.000    0.615    3.846    4.615    2.154    4.308 
#    1.385    0.000    0.000    0.000    0.000    0.000 
#    0.000    0.000    0.000    0.000    0.000    0.000 
#
# Total GULP energy -144833.400109 kJ/mol
# GULP energy per Si atom -5570.515389 kJ/mol
# Density = 2.307064 g / cm^3
# Si number density = 23.123273 Si / 1000 Ang^3
#
#
#
# Elastic Constant Matrix: (Units=GPa)
#
#
# Indices 1 2 3 4 5 6 
#
# 1 105.1661 5.1898 58.8747 0.0000 0.0000 0.0000
# 2 5.1898 54.8266 19.7913 0.0000 0.0000 0.0000
# 3 58.8747 19.7913 143.9105 0.0000 0.0000 0.0000
# 4 0.0000 0.0000 0.0000 19.7008 0.0000 0.0000
# 5 0.0000 0.0000 0.0000 0.0000 46.7726 0.0000
# 6 0.0000 0.0000 0.0000 0.0000 0.0000 -13.1338
#
#
#
# Elastic Compliance Matrix: (Units=1/GPa)
#
#
# Indices 1 2 3 4 5 6 
#
# 1 0.012358 0.000689 -0.005151 0.000000 0.000000 0.000000
# 2 0.000689 0.019231 -0.002927 0.000000 0.000000 0.000000
# 3 -0.005151 -0.002927 0.009458 0.000000 0.000000 0.000000
# 4 0.000000 0.000000 0.000000 0.050759 0.000000 0.000000
# 5 0.000000 0.000000 0.000000 0.000000 0.021380 0.000000
# 6 0.000000 0.000000 0.000000 0.000000 0.000000 -0.076140
#
#
# Mechanical properties :
#
#
# Convention : Reuss Voigt Hill
#
# Bulk Modulus (GPa) = 38.06430 52.40165 45.23297
# Shear Modulus (GPa) = 82.53586 25.33777 53.93681
#
# Velocity S-wave (km/s) = 5.98091 3.31383 4.83492
# Velocity P-wave (km/s) = 8.01201 6.11171 7.12549
#
# Compressibility (1/GPa) = 0.02627134
#
# Stress axis : x y z
#
# Youngs Moduli (GPa) = 80.91796 52.00058 105.72583
#
# Poissons Ratio (x) = -0.03585 0.54456
# Poissons Ratio (y) = -0.05579 0.30943
# Poissons Ratio (z) = 0.41678 0.15219
#
# Static dielectric constant tensor:
#      x y z
#    x 1.914430 0.000000 0.000000 
#    y 0.000000 1.842290 0.000000 
#    z 0.000000 0.000000 2.047100 
# 
# From -- ./inp_files/24349.got.cif
#   From: 2010.05.17/outbox.cif.g08.bks.cpg/sg43_13_cif.got.tgz:24349.got - 2010.06.03 19:21:55.
