data_PCOD9371744
_publ_section_title
;
Structure prediction by ZEFSAII (Michael W. Deem and Ramdas Pophale) SiO2 
 PCOD9371744
Probable space group: F D D 2
;
_chemical_formula_sum "Si O2"
_cell_formula_units_Z 88
_cell_length_a 14.632716
_cell_length_b 24.914525
_cell_length_c 10.035792
_cell_angle_alpha 90.000000
_cell_angle_beta 90.000000
_cell_angle_gamma 90.000000
_cell_volume 3658.720274
_symmetry_space_group_name_H-M "F D D 2"
_symmetry_group_IT_number 43
_symmetry_cell_setting 'orthorhombic'
loop_
_space_group_symop_operation_xyz
x,y,z
-x,-y,z
1/4-x,1/4+y,1/4+z
1/4+x,1/4-y,1/4+z
x,1/2+y,1/2+z
-x,1/2-y,1/2+z
1/4-x,3/4+y,3/4+z
1/4+x,3/4-y,3/4+z
1/2+x,y,1/2+z
1/2-x,-y,1/2+z
3/4-x,1/4+y,3/4+z
3/4+x,1/4-y,3/4+z
1/2+x,1/2+y,z
1/2-x,1/2-y,z
3/4-x,3/4+y,1/4+z
3/4+x,3/4-y,1/4+z
loop_
_atom_site_type_symbol
_atom_site_label
_atom_site_fract_x
_atom_site_fract_y
_atom_site_fract_z
Si Si1 0.133579 0.439956 0.864970
Si Si2 0.500000 0.000000 0.693994
Si Si3 0.156727 0.309343 0.231332
Si Si4 0.601991 0.889086 0.442395
Si Si5 0.051583 0.809850 0.181045
Si Si6 0.816360 0.410665 0.231469
O O1 0.040253 0.452493 0.784010
O O2 0.173316 0.497995 0.904816
O O3 0.108140 0.399464 0.983992
O O4 0.210480 0.413578 0.771463
O O5 0.416521 0.983921 0.597999
O O6 0.260714 0.326909 0.207362
O O7 0.100292 0.356260 0.303974
O O8 0.114388 0.300590 0.088147
O O9 0.596310 0.846930 0.565728
O O10 0.694372 0.923772 0.434998
O O11 0.082928 0.821889 0.330787
#
# Coordination Sequence:
#
# PCOD9371744 Si02
#       6
#    16   8  16  16  16  16
#     4  12  29  50  78 110 155 203 254 310 386 454
#     4  12  26  48  78 104 142 208 252 302 388 466
#     4  11  24  45  72 110 150 194 249 315 369 446
#     4  10  22  45  78 109 155 199 251 304 377 460
#     4  11  24  48  77 111 150 204 248 315 381 453
#     4  12  28  48  75 113 155 191 261 317 374 452
#
# _framework density 24.052126000000001
#
# number of rings (size 3 to 8) (size 9 to 14) (size 15 to 20)
#    0.000    0.727    1.818    5.455    7.636    2.909 
#    3.273    0.000    0.000    0.000    0.000    0.000 
#    0.000    0.000    0.000    0.000    0.000    0.000 
#
# Total GULP energy -123106.698918 kJ/mol
# GULP energy per Si atom -5595.759042 kJ/mol
# Density = 2.399738 g / cm^3
# Si number density = 24.052126 Si / 1000 Ang^3
#
#
#
# Elastic Constant Matrix: (Units=GPa)
#
#
# Indices 1 2 3 4 5 6 
#
# 1 114.4046 47.5245 43.9665 0.0000 0.0000 0.0000
# 2 47.5245 69.9175 4.6024 0.0000 0.0000 0.0000
# 3 43.9665 4.6024 112.3838 0.0000 0.0000 0.0000
# 4 0.0000 0.0000 0.0000 37.3966 0.0000 0.0000
# 5 0.0000 0.0000 0.0000 0.0000 42.5058 0.0000
# 6 0.0000 0.0000 0.0000 0.0000 0.0000 34.3049
#
#
#
# Elastic Compliance Matrix: (Units=1/GPa)
#
#
# Indices 1 2 3 4 5 6 
#
# 1 0.014876 -0.009755 -0.005420 0.000000 0.000000 0.000000
# 2 -0.009755 0.020738 0.002967 0.000000 0.000000 0.000000
# 3 -0.005420 0.002967 0.010897 0.000000 0.000000 0.000000
# 4 0.000000 0.000000 0.000000 0.026740 0.000000 0.000000
# 5 0.000000 0.000000 0.000000 0.000000 0.023526 0.000000
# 6 0.000000 0.000000 0.000000 0.000000 0.000000 0.029150
#
#
# Mechanical properties :
#
#
# Convention : Reuss Voigt Hill
#
# Bulk Modulus (GPa) = 45.25959 54.32140 49.79049
# Shear Modulus (GPa) = 31.70382 36.21563 33.95972
#
# Velocity S-wave (km/s) = 3.63454 3.88456 3.76163
# Velocity P-wave (km/s) = 6.03915 6.53863 6.29385
#
# Compressibility (1/GPa) = 0.02209477
#
# Stress axis : x y z
#
# Youngs Moduli (GPa) = 67.22114 48.22083 91.76741
#
# Poissons Ratio (x) = 0.47039 0.49741
# Poissons Ratio (y) = 0.65574 -0.27228
# Poissons Ratio (z) = 0.36436 -0.14307
#
# Static dielectric constant tensor:
#      x y z
#    x 1.926040 0.000000 0.000000 
#    y 0.000000 2.002900 0.000000 
#    z 0.000000 0.000000 1.874130 
# 
# From -- ./inp_files/6155.got.cif
#   From: 2010.05.17/outbox.cif.g08.bks.cpg/sg43_4_cif.got.tgz:6155.got - 2010.06.03 19:21:55.
