data_PCOD9371914
_publ_section_title
;
Structure prediction by ZEFSAII (Michael W. Deem and Ramdas Pophale) SiO2 
 PCOD9371914
Probable space group: F D D 2
;
_chemical_formula_sum "Si O2"
_cell_formula_units_Z 88
_cell_length_a 30.906785
_cell_length_b 11.301853
_cell_length_c 11.040096
_cell_angle_alpha 90.000000
_cell_angle_beta 90.000000
_cell_angle_gamma 90.000000
_cell_volume 3856.349039
_symmetry_space_group_name_H-M "F D D 2"
_symmetry_group_IT_number 43
_symmetry_cell_setting 'orthorhombic'
loop_
_space_group_symop_operation_xyz
x,y,z
-x,-y,z
1/4-x,1/4+y,1/4+z
1/4+x,1/4-y,1/4+z
x,1/2+y,1/2+z
-x,1/2-y,1/2+z
1/4-x,3/4+y,3/4+z
1/4+x,3/4-y,3/4+z
1/2+x,y,1/2+z
1/2-x,-y,1/2+z
3/4-x,1/4+y,3/4+z
3/4+x,1/4-y,3/4+z
1/2+x,1/2+y,z
1/2-x,1/2-y,z
3/4-x,3/4+y,1/4+z
3/4+x,3/4-y,1/4+z
loop_
_atom_site_type_symbol
_atom_site_label
_atom_site_fract_x
_atom_site_fract_y
_atom_site_fract_z
Si Si1 0.000000 0.000000 0.209960
Si Si2 0.805852 0.674325 0.683768
Si Si3 0.390501 0.868039 0.571496
Si Si4 0.313352 0.882538 0.378394
Si Si5 0.019470 0.749333 0.109302
Si Si6 0.601764 0.377309 0.087717
O O1 0.003070 0.881732 0.131111
O O2 0.961359 0.979974 0.309087
O O3 0.807407 0.772827 0.788710
O O4 0.774852 0.567626 0.730091
O O5 0.854192 0.629108 0.662994
O O6 0.351638 0.861962 0.474353
O O7 0.419835 0.751862 0.561502
O O8 0.366931 0.881583 0.699731
O O9 0.417305 0.990079 0.574931
O O10 0.265648 0.918010 0.428561
O O11 0.070043 0.775692 0.137683
#
# Coordination Sequence:
#
# PCOD9371914 Si02
#       6
#     8  16  16  16  16  16
#     4  12  26  48  76 106 150 208 254 320 382 460
#     4  12  26  49  72 110 153 200 261 319 393 469
#     4  10  23  44  72 101 152 190 255 320 390 462
#     4  11  25  45  69 113 151 196 257 328 389 471
#     4  12  25  45  78 108 151 201 262 321 385 463
#     4  11  22  44  73 102 140 206 254 316 391 462
#
# _framework density 22.819513000000001
#
# number of rings (size 3 to 8) (size 9 to 14) (size 15 to 20)
#    0.000    0.727    3.636    4.364    2.545    0.000 
#    3.273    0.000    4.000    0.000    0.000    0.000 
#    0.000    0.000    0.000    0.000    0.000    0.000 
#
# Total GULP energy -122516.475207 kJ/mol
# GULP energy per Si atom -5568.930691 kJ/mol
# Density = 2.276757 g / cm^3
# Si number density = 22.819513 Si / 1000 Ang^3
#
#
#
# Elastic Constant Matrix: (Units=GPa)
#
#
# Indices 1 2 3 4 5 6 
#
# 1 91.8263 27.8894 27.1675 0.0000 0.0000 0.0000
# 2 27.8894 139.6951 57.2881 0.0000 0.0000 0.0000
# 3 27.1675 57.2881 63.1734 0.0000 0.0000 0.0000
# 4 0.0000 0.0000 0.0000 19.0993 0.0000 0.0000
# 5 0.0000 0.0000 0.0000 0.0000 27.7684 0.0000
# 6 0.0000 0.0000 0.0000 0.0000 0.0000 42.8059
#
#
#
# Elastic Compliance Matrix: (Units=1/GPa)
#
#
# Indices 1 2 3 4 5 6 
#
# 1 0.012496 -0.000463 -0.004954 0.000000 0.000000 0.000000
# 2 -0.000463 0.011414 -0.010151 0.000000 0.000000 0.000000
# 3 -0.004954 -0.010151 0.027166 0.000000 0.000000 0.000000
# 4 0.000000 0.000000 0.000000 0.052358 0.000000 0.000000
# 5 0.000000 0.000000 0.000000 0.000000 0.036012 0.000000
# 6 0.000000 0.000000 0.000000 0.000000 0.000000 0.023361
#
#
# Mechanical properties :
#
#
# Convention : Reuss Voigt Hill
#
# Bulk Modulus (GPa) = 50.15356 57.70944 53.93150
# Shear Modulus (GPa) = 24.92634 30.09135 27.50885
#
# Velocity S-wave (km/s) = 3.30862 3.63529 3.47579
# Velocity P-wave (km/s) = 6.05161 6.55476 6.30820
#
# Compressibility (1/GPa) = 0.01993876
#
# Stress axis : x y z
#
# Youngs Moduli (GPa) = 80.02243 87.61193 36.81128
#
# Poissons Ratio (x) = 0.04059 0.18236
# Poissons Ratio (y) = 0.03707 0.37369
# Poissons Ratio (z) = 0.39643 0.88938
#
# Static dielectric constant tensor:
#      x y z
#    x 1.972020 0.000000 0.000000 
#    y 0.000000 1.929560 0.000000 
#    z 0.000000 0.000000 1.813010 
# 
# From -- ./inp_files/5766.got.cif
#   From: 2010.05.17/outbox.cif.g08.bks.cpg/sg43_3_cif.got.tgz:5766.got - 2010.06.03 19:21:55.
