data_PCOD9371972
_publ_section_title
;
Structure prediction by ZEFSAII (Michael W. Deem and Ramdas Pophale) SiO2 
 PCOD9371972
Probable space group: F D D 2
;
_chemical_formula_sum "Si O2"
_cell_formula_units_Z 88
_cell_length_a 5.191470
_cell_length_b 23.669249
_cell_length_c 31.041153
_cell_angle_alpha 90.000000
_cell_angle_beta 90.000000
_cell_angle_gamma 90.000000
_cell_volume 3814.280886
_symmetry_space_group_name_H-M "F D D 2"
_symmetry_group_IT_number 43
_symmetry_cell_setting 'orthorhombic'
loop_
_space_group_symop_operation_xyz
x,y,z
-x,-y,z
1/4-x,1/4+y,1/4+z
1/4+x,1/4-y,1/4+z
x,1/2+y,1/2+z
-x,1/2-y,1/2+z
1/4-x,3/4+y,3/4+z
1/4+x,3/4-y,3/4+z
1/2+x,y,1/2+z
1/2-x,-y,1/2+z
3/4-x,1/4+y,3/4+z
3/4+x,1/4-y,3/4+z
1/2+x,1/2+y,z
1/2-x,1/2-y,z
3/4-x,3/4+y,1/4+z
3/4+x,3/4-y,1/4+z
loop_
_atom_site_type_symbol
_atom_site_label
_atom_site_fract_x
_atom_site_fract_y
_atom_site_fract_z
Si Si1 0.254879 0.466867 0.517400
Si Si2 0.250000 0.250000 0.945793
Si Si3 0.311364 0.064031 0.422039
Si Si4 0.000000 0.000000 0.842336
Si Si5 0.000000 0.500000 0.754909
Si Si6 0.614622 0.653234 0.557687
Si Si7 0.175612 0.868185 0.405153
O O1 0.500000 0.500000 0.534004
O O2 0.234896 0.470219 0.465524
O O3 0.325594 0.402082 0.528743
O O4 0.000000 0.500000 0.534088
O O5 0.502631 0.242015 0.974980
O O6 0.261617 0.305802 0.917096
O O7 0.299250 0.027811 0.377554
O O8 0.594845 0.091304 0.421127
O O9 0.096707 0.112627 0.424166
O O10 0.123791 0.051774 0.814969
O O11 0.942372 0.447569 0.786138
O O12 0.622124 0.627206 0.604845
#
# Coordination Sequence:
#
# PCOD9371972 Si02
#       7
#    16   8  16   8   8  16  16
#     4  12  27  45  72 105 152 192 236 299 371 448
#     4  12  25  46  72 104 147 192 243 286 378 440
#     4  11  23  45  71 106 136 190 246 295 354 430
#     4  10  23  46  80 109 142 192 252 313 356 436
#     4  12  26  48  76 105 141 194 245 311 352 440
#     4  11  26  46  74 109 149 186 248 306 377 423
#     4  11  25  43  73 102 147 186 240 300 362 442
#
# _framework density 23.071190000000001
#
# number of rings (size 3 to 8) (size 9 to 14) (size 15 to 20)
#    0.000    0.727    0.909    6.000    3.818    7.273 
#    1.636    0.000    0.000    0.000    0.000    0.000 
#    0.000    0.000    0.000    0.000    0.000    0.000 
#
# Total GULP energy -122721.723184 kJ/mol
# GULP energy per Si atom -5578.260145 kJ/mol
# Density = 2.301868 g / cm^3
# Si number density = 23.071190 Si / 1000 Ang^3
#
#
#
# Elastic Constant Matrix: (Units=GPa)
#
#
# Indices 1 2 3 4 5 6 
#
# 1 107.3916 48.1719 33.0987 0.0000 0.0000 0.0000
# 2 48.1719 178.4404 46.6928 0.0000 0.0000 0.0000
# 3 33.0987 46.6928 77.0565 0.0000 0.0000 0.0000
# 4 0.0000 0.0000 0.0000 38.5999 0.0000 0.0000
# 5 0.0000 0.0000 0.0000 0.0000 -19.9573 0.0000
# 6 0.0000 0.0000 0.0000 0.0000 0.0000 28.9321
#
#
#
# Elastic Compliance Matrix: (Units=1/GPa)
#
#
# Indices 1 2 3 4 5 6 
#
# 1 0.011375 -0.002130 -0.003595 0.000000 0.000000 0.000000
# 2 -0.002130 0.007059 -0.003363 0.000000 0.000000 0.000000
# 3 -0.003595 -0.003363 0.016559 0.000000 0.000000 0.000000
# 4 0.000000 0.000000 0.000000 0.025907 0.000000 0.000000
# 5 0.000000 0.000000 0.000000 0.000000 -0.050107 0.000000
# 6 0.000000 0.000000 0.000000 0.000000 0.000000 0.034564
#
#
# Mechanical properties :
#
#
# Convention : Reuss Voigt Hill
#
# Bulk Modulus (GPa) = 59.46094 68.75725 64.10909
# Shear Modulus (GPa) = 72.31796 25.17661 48.74728
#
# Velocity S-wave (km/s) = 5.60479 3.30700 4.60162
# Velocity P-wave (km/s) = 8.22883 6.66698 7.48873
#
# Compressibility (1/GPa) = 0.01681776
#
# Stress axis : x y z
#
# Youngs Moduli (GPa) = 87.90966 141.66266 60.38871
#
# Poissons Ratio (x) = 0.30175 0.21712
# Poissons Ratio (y) = 0.18725 0.20306
# Poissons Ratio (z) = 0.31607 0.47634
#
# Static dielectric constant tensor:
#      x y z
#    x 1.963220 0.000000 0.000000 
#    y 0.000000 2.057620 0.000000 
#    z 0.000000 0.000000 1.886030 
# 
# From -- ./inp_files/27271.got.cif
#   From: 2010.05.17/outbox.cif.g08.bks.cpg/sg43_14_cif.got.tgz:27271.got - 2010.06.03 19:21:55.
