data_PCOD9371149
_publ_section_title
;
Structure prediction by ZEFSAII (Michael W. Deem and Ramdas Pophale) SiO2 
 PCOD9371149
Probable space group: F D D 2
;
_chemical_formula_sum "Si O2"
_cell_formula_units_Z 112
_cell_length_a 24.971964
_cell_length_b 21.210324
_cell_length_c 10.250740
_cell_angle_alpha 90.000000
_cell_angle_beta 90.000000
_cell_angle_gamma 90.000000
_cell_volume 5429.442286
_symmetry_space_group_name_H-M "F D D 2"
_symmetry_group_IT_number 43
_symmetry_cell_setting 'orthorhombic'
loop_
_space_group_symop_operation_xyz
x,y,z
-x,-y,z
1/4-x,1/4+y,1/4+z
1/4+x,1/4-y,1/4+z
x,1/2+y,1/2+z
-x,1/2-y,1/2+z
1/4-x,3/4+y,3/4+z
1/4+x,3/4-y,3/4+z
1/2+x,y,1/2+z
1/2-x,-y,1/2+z
3/4-x,1/4+y,3/4+z
3/4+x,1/4-y,3/4+z
1/2+x,1/2+y,z
1/2-x,1/2-y,z
3/4-x,3/4+y,1/4+z
3/4+x,3/4-y,1/4+z
loop_
_atom_site_type_symbol
_atom_site_label
_atom_site_fract_x
_atom_site_fract_y
_atom_site_fract_z
Si Si1 0.448097 0.266964 0.088260
Si Si2 0.806944 0.919378 0.424008
Si Si3 0.265789 0.176260 0.577244
Si Si4 0.315930 0.378774 0.934558
Si Si5 0.369001 0.622633 0.950028
Si Si6 0.967231 0.935341 0.625179
Si Si7 0.119737 0.238978 0.851001
O O1 0.506286 0.294213 0.114479
O O2 0.441837 0.193712 0.112210
O O3 0.406316 0.303508 0.181384
O O4 0.429646 0.279042 0.941409
O O5 0.781526 0.870719 0.529675
O O6 0.839048 0.880299 0.316136
O O7 0.846392 0.973831 0.478394
O O8 0.250000 0.250000 0.572932
O O9 0.317198 0.164955 0.484622
O O10 0.282719 0.159784 0.726483
O O11 0.254909 0.356804 0.965085
O O12 0.344443 0.324504 0.845461
O O13 0.350998 0.386798 0.064372
O O14 0.908640 0.957981 0.666841
O O15 0.000000 0.000000 0.617207
#
# Coordination Sequence:
#
# PCOD9371149 Si02
#       7
#    16  16  16  16  16  16  16
#     4  10  24  41  61  94 130 167 217 267 327 403
#     4  11  23  41  66  93 131 170 219 272 331 394
#     4  10  21  40  64  95 124 166 224 272 326 397
#     4  10  22  41  64  93 130 166 215 273 332 394
#     4  10  23  43  61  92 132 169 213 275 333 392
#     4   9  18  38  64  91 122 159 213 267 315 381
#     4  10  21  42  65  93 127 169 220 268 330 389
#
# _framework density 20.628270000000001
#
# number of rings (size 3 to 8) (size 9 to 14) (size 15 to 20)
#    0.000    2.000    1.429    0.857    4.000    1.143 
#    7.714    0.714    0.000    0.000    0.000    0.000 
#    0.000    0.000    0.000    0.000    0.000    0.000 
#
# Total GULP energy -156098.263259 kJ/mol
# GULP energy per Si atom -5574.937974 kJ/mol
# Density = 2.058132 g / cm^3
# Si number density = 20.628270 Si / 1000 Ang^3
#
#
#
# Elastic Constant Matrix: (Units=GPa)
#
#
# Indices 1 2 3 4 5 6 
#
# 1 75.7936 11.2831 12.9418 0.0000 0.0000 0.0000
# 2 11.2831 74.3657 2.4186 -0.0001 0.0000 0.0000
# 3 12.9418 2.4186 32.9606 -0.0001 0.0001 0.0000
# 4 0.0000 -0.0001 -0.0001 21.1461 0.0000 0.0000
# 5 0.0000 0.0000 0.0001 0.0000 38.9177 0.0000
# 6 0.0000 0.0000 0.0000 0.0000 0.0000 14.0144
#
#
#
# Elastic Compliance Matrix: (Units=1/GPa)
#
#
# Indices 1 2 3 4 5 6 
#
# 1 0.014436 -0.002011 -0.005521 0.000000 0.000000 0.000000
# 2 -0.002011 0.013759 -0.000220 0.000000 0.000000 0.000000
# 3 -0.005521 -0.000220 0.032523 0.000000 0.000000 0.000000
# 4 0.000000 0.000000 0.000000 0.047290 0.000000 0.000000
# 5 0.000000 0.000000 0.000000 0.000000 0.025695 0.000000
# 6 0.000000 0.000000 0.000000 0.000000 0.000000 0.071355
#
#
# Mechanical properties :
#
#
# Convention : Reuss Voigt Hill
#
# Bulk Modulus (GPa) = 22.11643 26.26742 24.19192
# Shear Modulus (GPa) = 21.21943 25.24740 23.23342
#
# Velocity S-wave (km/s) = 3.21075 3.50226 3.35967
# Velocity P-wave (km/s) = 4.94873 5.39590 5.17714
#
# Compressibility (1/GPa) = 0.04521526
#
# Stress axis : x y z
#
# Youngs Moduli (GPa) = 69.27278 72.67820 30.74741
#
# Poissons Ratio (x) = 0.14613 0.16974
# Poissons Ratio (y) = 0.13929 0.00677
# Poissons Ratio (z) = 0.38242 0.01600
#
# Static dielectric constant tensor:
#      x y z
#    x 1.764610 0.000000 0.000000 
#    y 0.000000 1.732340 0.000000 
#    z 0.000000 0.000000 1.751590 
# 
# From -- ./inp_files/7578.got.cif
#   From: 2010.05.17/outbox.cif.g08.bks.cpg/sg43_4_cif.got.tgz:7578.got - 2010.06.03 19:21:55.
