data_PCOD9371307
_publ_section_title
;
Structure prediction by ZEFSAII (Michael W. Deem and Ramdas Pophale) SiO2 
 PCOD9371307
Probable space group: F D D 2
;
_chemical_formula_sum "Si O2"
_cell_formula_units_Z 112
_cell_length_a 13.954348
_cell_length_b 24.866945
_cell_length_c 13.837448
_cell_angle_alpha 90.000000
_cell_angle_beta 90.000000
_cell_angle_gamma 90.000000
_cell_volume 4801.622189
_symmetry_space_group_name_H-M "F D D 2"
_symmetry_group_IT_number 43
_symmetry_cell_setting 'orthorhombic'
loop_
_space_group_symop_operation_xyz
x,y,z
-x,-y,z
1/4-x,1/4+y,1/4+z
1/4+x,1/4-y,1/4+z
x,1/2+y,1/2+z
-x,1/2-y,1/2+z
1/4-x,3/4+y,3/4+z
1/4+x,3/4-y,3/4+z
1/2+x,y,1/2+z
1/2-x,-y,1/2+z
3/4-x,1/4+y,3/4+z
3/4+x,1/4-y,3/4+z
1/2+x,1/2+y,z
1/2-x,1/2-y,z
3/4-x,3/4+y,1/4+z
3/4+x,3/4-y,1/4+z
loop_
_atom_site_type_symbol
_atom_site_label
_atom_site_fract_x
_atom_site_fract_y
_atom_site_fract_z
Si Si1 0.862899 0.171229 0.695910
Si Si2 0.921371 0.890395 0.459198
Si Si3 0.280796 0.079549 0.514567
Si Si4 0.750000 0.250000 0.186271
Si Si5 0.698909 0.512843 0.156167
Si Si6 0.048308 0.711470 0.093862
Si Si7 0.750000 0.250000 0.839210
Si Si8 0.683983 0.139156 0.608663
O O1 0.798459 0.206224 0.769981
O O2 0.791164 0.161999 0.607479
O O3 0.886773 0.116554 0.753772
O O4 0.961717 0.199499 0.667242
O O5 0.809519 0.902711 0.453175
O O6 0.954127 0.870928 0.353279
O O7 0.936006 0.844912 0.538864
O O8 0.975546 0.944625 0.489408
O O9 0.369384 0.081567 0.439965
O O10 0.258193 0.023718 0.570474
O O11 0.850402 0.264828 0.131368
O O12 0.740911 0.500719 0.260371
O O13 0.590333 0.487009 0.156278
O O14 0.693976 0.576210 0.139839
#
# Coordination Sequence:
#
# PCOD9371307 Si02
#       8
#    16  16  16   8  16  16   8  16
#     4  11  26  41  72  97 154 181 235 294 374 432
#     4  11  25  41  71 100 142 181 241 293 355 418
#     4  11  22  43  67 102 136 182 240 298 340 420
#     4  12  25  44  72  97 142 196 226 295 360 418
#     4  10  23  39  71  98 140 177 244 288 352 420
#     4  11  26  45  68 108 142 186 241 303 356 429
#     4  10  21  44  64 105 128 190 240 295 342 440
#     4  11  24  44  67 105 141 190 233 296 363 430
#
# _framework density 23.32545
#
# number of rings (size 3 to 8) (size 9 to 14) (size 15 to 20)
#    0.000    1.143    2.857    2.143   12.000    1.143 
#    0.000    0.000    0.000    4.286    0.000    0.000 
#    0.000    0.000    0.000    0.000    0.000    0.000 
#
# Total GULP energy -156329.149493 kJ/mol
# GULP energy per Si atom -5583.183910 kJ/mol
# Density = 2.327236 g / cm^3
# Si number density = 23.325450 Si / 1000 Ang^3
#
#
#
# Elastic Constant Matrix: (Units=GPa)
#
#
# Indices 1 2 3 4 5 6 
#
# 1 105.8145 14.6399 28.0750 0.0000 0.0000 0.0000
# 2 14.6399 64.8990 2.4894 0.0000 0.0000 0.0000
# 3 28.0750 2.4894 52.1184 0.0000 0.0000 0.0000
# 4 0.0000 0.0000 0.0000 23.1770 0.0000 0.0000
# 5 0.0000 0.0000 0.0000 0.0000 27.4071 0.0000
# 6 0.0000 0.0000 0.0000 0.0000 0.0000 38.4053
#
#
#
# Elastic Compliance Matrix: (Units=1/GPa)
#
#
# Indices 1 2 3 4 5 6 
#
# 1 0.011369 -0.002334 -0.006013 0.000000 0.000000 0.000000
# 2 -0.002334 0.015916 0.000497 0.000000 0.000000 0.000000
# 3 -0.006013 0.000497 0.022402 0.000000 0.000000 0.000000
# 4 0.000000 0.000000 0.000000 0.043146 0.000000 0.000000
# 5 0.000000 0.000000 0.000000 0.000000 0.036487 0.000000
# 6 0.000000 0.000000 0.000000 0.000000 0.000000 0.026038
#
#
# Mechanical properties :
#
#
# Convention : Reuss Voigt Hill
#
# Bulk Modulus (GPa) = 29.42226 34.80451 32.11339
# Shear Modulus (GPa) = 27.41436 29.63972 28.52704
#
# Velocity S-wave (km/s) = 3.43198 3.56856 3.50094
# Velocity P-wave (km/s) = 5.32408 5.65094 5.48994
#
# Compressibility (1/GPa) = 0.03398787
#
# Stress axis : x y z
#
# Youngs Moduli (GPa) = 87.96098 62.82996 44.63855
#
# Poissons Ratio (x) = 0.14664 0.26839
# Poissons Ratio (y) = 0.20529 -0.02219
# Poissons Ratio (z) = 0.52887 -0.03123
#
# Static dielectric constant tensor:
#      x y z
#    x 1.919030 0.000000 0.000000 
#    y 0.000000 1.958950 0.000000 
#    z 0.000000 0.000000 1.909390 
# 
# From -- ./inp_files/10306.got.cif
#   From: 2010.05.17/outbox.cif.g08.bks.cpg/sg43_6_cif.got.tgz:10306.got - 2010.06.03 19:21:55.
