data_PCOD9371100
_publ_section_title
;
Structure prediction by ZEFSAII (Michael W. Deem and Ramdas Pophale) SiO2 
 PCOD9371100
Probable space group: F D D 2
;
_chemical_formula_sum "Si O2"
_cell_formula_units_Z 120
_cell_length_a 30.575191
_cell_length_b 11.428040
_cell_length_c 17.937603
_cell_angle_alpha 90.000000
_cell_angle_beta 90.000000
_cell_angle_gamma 90.000000
_cell_volume 6267.658687
_symmetry_space_group_name_H-M "F D D 2"
_symmetry_group_IT_number 43
_symmetry_cell_setting 'orthorhombic'
loop_
_space_group_symop_operation_xyz
x,y,z
-x,-y,z
1/4-x,1/4+y,1/4+z
1/4+x,1/4-y,1/4+z
x,1/2+y,1/2+z
-x,1/2-y,1/2+z
1/4-x,3/4+y,3/4+z
1/4+x,3/4-y,3/4+z
1/2+x,y,1/2+z
1/2-x,-y,1/2+z
3/4-x,1/4+y,3/4+z
3/4+x,1/4-y,3/4+z
1/2+x,1/2+y,z
1/2-x,1/2-y,z
3/4-x,3/4+y,1/4+z
3/4+x,3/4-y,1/4+z
loop_
_atom_site_type_symbol
_atom_site_label
_atom_site_fract_x
_atom_site_fract_y
_atom_site_fract_z
Si Si1 0.325724 0.367598 0.123110
Si Si2 0.337664 0.287325 0.872579
Si Si3 0.928992 0.202084 0.316832
Si Si4 0.856650 0.005300 0.977971
Si Si5 0.794320 0.182009 0.503949
Si Si6 0.258881 0.069003 0.656900
Si Si7 0.793802 0.208132 0.012455
Si Si8 0.500000 0.000000 0.032250
O O1 0.350526 0.320101 0.196064
O O2 0.310163 0.254821 0.075915
O O3 0.285367 0.448753 0.148746
O O4 0.353396 0.444832 0.060820
O O5 0.380868 0.253247 0.827255
O O6 0.345720 0.406038 0.917831
O O7 0.292827 0.290456 0.826883
O O8 0.328998 0.193499 0.937874
O O9 0.958837 0.295570 0.271949
O O10 0.956829 0.193324 0.393189
O O11 0.928649 0.074398 0.280229
O O12 0.820470 0.106369 0.974520
O O13 0.750000 0.250000 0.481696
O O14 0.277003 0.149798 0.589586
O O15 0.265569 0.141444 0.731574
O O16 0.750000 0.250000 0.971302
#
# Coordination Sequence:
#
# PCOD9371100 Si02
#       8
#    16  16  16  16  16  16  16   8
#     4  10  21  40  64  90 121 165 209 255 316 376
#     4  11  26  38  61  91 126 164 202 264 316 370
#     4  11  21  38  63  92 115 162 210 251 307 376
#     4  10  22  42  62  88 127 161 209 259 320 369
#     4  11  21  40  61  88 118 160 209 248 309 379
#     4  10  21  39  64  85 128 163 205 257 308 371
#     4   9  20  39  62  88 117 165 206 249 306 374
#     4  12  24  40  56  96 134 160 208 264 322 362
#
# _framework density 19.145906
#
# number of rings (size 3 to 8) (size 9 to 14) (size 15 to 20)
#    0.000    1.600    5.333    0.000    5.600    0.000 
#    2.400    1.333    0.000    0.000    0.000    0.000 
#    0.000    0.000    0.000    0.000    0.000    0.000 
#
# Total GULP energy -167183.048972 kJ/mol
# GULP energy per Si atom -5572.768299 kJ/mol
# Density = 1.910233 g / cm^3
# Si number density = 19.145906 Si / 1000 Ang^3
#
#
#
# Elastic Constant Matrix: (Units=GPa)
#
#
# Indices 1 2 3 4 5 6 
#
# 1 78.9840 13.2432 13.7171 0.0000 0.0000 0.0000
# 2 13.2432 80.9660 5.2912 0.0000 0.0000 0.0000
# 3 13.7171 5.2912 24.6877 0.0000 0.0000 0.0000
# 4 0.0000 0.0000 0.0000 2.0081 0.0000 0.0000
# 5 0.0000 0.0000 0.0000 0.0000 30.2619 0.0000
# 6 0.0000 0.0000 0.0000 0.0000 0.0000 33.4228
#
#
#
# Elastic Compliance Matrix: (Units=1/GPa)
#
#
# Indices 1 2 3 4 5 6 
#
# 1 0.014279 -0.001843 -0.007539 0.000000 0.000000 0.000000
# 2 -0.001843 0.012764 -0.001712 0.000000 0.000000 0.000000
# 3 -0.007539 -0.001712 0.045062 0.000000 0.000000 0.000000
# 4 0.000000 0.000000 0.000000 0.497973 0.000000 0.000000
# 5 0.000000 0.000000 0.000000 0.000000 0.033045 0.000000
# 6 0.000000 0.000000 0.000000 0.000000 0.000000 0.029920
#
#
# Mechanical properties :
#
#
# Convention : Reuss Voigt Hill
#
# Bulk Modulus (GPa) = 20.03286 27.68229 23.85757
# Shear Modulus (GPa) = 7.44194 23.29765 15.36980
#
# Velocity S-wave (km/s) = 1.97368 3.49212 2.83640
# Velocity P-wave (km/s) = 3.95978 5.54525 4.81818
#
# Compressibility (1/GPa) = 0.04991799
#
# Stress axis : x y z
#
# Youngs Moduli (GPa) = 70.03270 78.34443 22.19184
#
# Poissons Ratio (x) = 0.14438 0.16730
# Poissons Ratio (y) = 0.12906 0.03799
# Poissons Ratio (z) = 0.52796 0.13410
#
# Static dielectric constant tensor:
#      x y z
#    x 1.722760 0.000000 0.000000 
#    y 0.000000 1.687430 0.000000 
#    z 0.000000 0.000000 1.673660 
# 
# From -- ./inp_files/13541.got.cif
#   From: 2010.05.17/outbox.cif.g08.bks.cpg/sg43_7_cif.got.tgz:13541.got - 2010.06.03 19:21:55.
