data_PCOD9371488
_publ_section_title
;
Structure prediction by ZEFSAII (Michael W. Deem and Ramdas Pophale) SiO2 
 PCOD9371488
Probable space group: F D D 2
;
_chemical_formula_sum "Si O2"
_cell_formula_units_Z 72
_cell_length_a 22.352693
_cell_length_b 26.236949
_cell_length_c 6.128733
_cell_angle_alpha 90.000000
_cell_angle_beta 90.000000
_cell_angle_gamma 90.000000
_cell_volume 3594.296385
_symmetry_space_group_name_H-M "F D D 2"
_symmetry_group_IT_number 43
_symmetry_cell_setting 'orthorhombic'
loop_
_space_group_symop_operation_xyz
x,y,z
-x,-y,z
1/4-x,1/4+y,1/4+z
1/4+x,1/4-y,1/4+z
x,1/2+y,1/2+z
-x,1/2-y,1/2+z
1/4-x,3/4+y,3/4+z
1/4+x,3/4-y,3/4+z
1/2+x,y,1/2+z
1/2-x,-y,1/2+z
3/4-x,1/4+y,3/4+z
3/4+x,1/4-y,3/4+z
1/2+x,1/2+y,z
1/2-x,1/2-y,z
3/4-x,3/4+y,1/4+z
3/4+x,3/4-y,1/4+z
loop_
_atom_site_type_symbol
_atom_site_label
_atom_site_fract_x
_atom_site_fract_y
_atom_site_fract_z
Si Si1 0.060085 0.269349 0.736920
Si Si2 0.000000 0.500000 0.044826
Si Si3 0.081728 0.572865 0.759186
Si Si4 0.433931 0.310332 0.386385
Si Si5 0.100485 0.006724 0.870130
O O1 0.101862 0.304277 0.581976
O O2 0.060359 0.212641 0.631152
O O3 0.993307 0.289545 0.765278
O O4 0.094049 0.271285 0.966691
O O5 0.948077 0.517590 0.209269
O O6 0.967593 0.459154 0.892833
O O7 0.072103 0.630540 0.832928
O O8 0.076782 0.555436 0.506472
O O9 0.374544 0.283833 0.292099
#
# Coordination Sequence:
#
# PCOD9371488 Si02
#       5
#    16   8  16  16  16
#     4  10  22  41  61  95 130 172 225 274 327 402
#     4  10  22  42  60  94 136 166 226 268 336 404
#     4  10  24  39  64  96 129 177 220 273 337 399
#     4  11  22  41  66  94 132 174 223 279 332 396
#     4  10  22  41  63  91 133 174 220 278 326 403
#
# _framework density 20.031737
#
# number of rings (size 3 to 8) (size 9 to 14) (size 15 to 20)
#    0.000    1.778    2.222    0.667    0.000   12.444 
#    0.000    0.000    0.000    0.000    0.000    0.000 
#    0.000    0.000    0.000    0.000    0.000    0.000 
#
# Total GULP energy -100355.673298 kJ/mol
# GULP energy per Si atom -5575.315183 kJ/mol
# Density = 1.998614 g / cm^3
# Si number density = 20.031737 Si / 1000 Ang^3
#
#
#
# Elastic Constant Matrix: (Units=GPa)
#
#
# Indices 1 2 3 4 5 6 
#
# 1 86.7386 33.5898 23.5601 -0.0018 -0.0006 0.0068
# 2 33.5898 135.6429 50.1765 -0.0057 0.0023 0.0033
# 3 23.5601 50.1765 99.2140 -0.0005 0.0019 0.0156
# 4 -0.0018 -0.0057 -0.0005 11.3938 0.0013 0.0126
# 5 -0.0006 0.0023 0.0019 0.0013 37.3350 -0.0063
# 6 0.0068 0.0033 0.0156 0.0126 -0.0063 21.6710
#
#
#
# Elastic Compliance Matrix: (Units=1/GPa)
#
#
# Indices 1 2 3 4 5 6 
#
# 1 0.013007 -0.002557 -0.001796 0.000001 0.000000 -0.000002
# 2 -0.002557 0.009571 -0.004234 0.000004 0.000000 0.000002
# 3 -0.001796 -0.004234 0.012647 -0.000002 0.000000 -0.000008
# 4 0.000001 0.000004 -0.000002 0.087767 -0.000003 -0.000051
# 5 0.000000 0.000000 0.000000 -0.000003 0.026785 0.000008
# 6 -0.000002 0.000002 -0.000008 -0.000051 0.000008 0.046145
#
#
# Mechanical properties :
#
#
# Convention : Reuss Voigt Hill
#
# Bulk Modulus (GPa) = 55.39202 59.58314 57.48758
# Shear Modulus (GPa) = 22.81950 28.36456 25.59203
#
# Velocity S-wave (km/s) = 3.37882 3.76703 3.57819
# Velocity P-wave (km/s) = 6.55241 6.98066 6.76992
#
# Compressibility (1/GPa) = 0.01805314
#
# Stress axis : x y z
#
# Youngs Moduli (GPa) = 76.88335 104.47711 79.07191
#
# Poissons Ratio (x) = 0.26711 0.14199
# Poissons Ratio (y) = 0.19656 0.33475
# Poissons Ratio (z) = 0.13806 0.44231
#
# Static dielectric constant tensor:
#      x y z
#    x 1.726500 0.000000 0.000000 
#    y 0.000000 1.683540 0.000000 
#    z 0.000000 0.000000 1.770920 
# 
# From -- ./inp_files/707.got.cif
#   From: 2010.05.17/outbox.cif.g08.bks.cpg/sg43_1_cif.got.tgz:707.got - 2010.06.03 19:21:55.
