data_PCOD9371769
_publ_section_title
;
Structure prediction by ZEFSAII (Michael W. Deem and Ramdas Pophale) SiO2 
 PCOD9371769
Probable space group: F D D 2
;
_chemical_formula_sum "Si O2"
_cell_formula_units_Z 56
_cell_length_a 5.561723
_cell_length_b 15.002229
_cell_length_c 26.874855
_cell_angle_alpha 90.000000
_cell_angle_beta 90.000000
_cell_angle_gamma 90.000000
_cell_volume 2242.390657
_symmetry_space_group_name_H-M "F D D 2"
_symmetry_group_IT_number 43
_symmetry_cell_setting 'orthorhombic'
loop_
_space_group_symop_operation_xyz
x,y,z
-x,-y,z
1/4-x,1/4+y,1/4+z
1/4+x,1/4-y,1/4+z
x,1/2+y,1/2+z
-x,1/2-y,1/2+z
1/4-x,3/4+y,3/4+z
1/4+x,3/4-y,3/4+z
1/2+x,y,1/2+z
1/2-x,-y,1/2+z
3/4-x,1/4+y,3/4+z
3/4+x,1/4-y,3/4+z
1/2+x,1/2+y,z
1/2-x,1/2-y,z
3/4-x,3/4+y,1/4+z
3/4+x,3/4-y,1/4+z
loop_
_atom_site_type_symbol
_atom_site_label
_atom_site_fract_x
_atom_site_fract_y
_atom_site_fract_z
Si Si1 0.250000 0.750000 0.148100
Si Si2 0.250000 0.250000 0.489095
Si Si3 0.713991 0.557852 0.652684
Si Si4 0.279604 0.847104 0.798701
Si Si5 0.750000 0.250000 0.585192
O O1 0.280159 0.843146 0.176334
O O2 0.502231 0.754973 0.116632
O O3 0.462969 0.246804 0.449023
O O4 0.281314 0.162692 0.522259
O O5 0.500000 0.500000 0.630061
O O6 0.880066 0.577036 0.604811
O O7 0.250000 0.750000 0.774394
O O8 0.043911 0.910011 0.803667
#
# Coordination Sequence:
#
# PCOD9371769 Si02
#       5
#     8   8  16  16   8
#     4  10  23  42  82 108 151 208 255 314 405 452
#     4  12  29  48  72 127 150 199 284 314 379 506
#     4  11  25  50  76 108 159 206 261 331 389 471
#     4  11  24  49  78 108 160 211 255 332 406 452
#     4  10  22  46  76 119 147 203 269 314 378 488
#
# _framework density 24.973345999999999
#
# number of rings (size 3 to 8) (size 9 to 14) (size 15 to 20)
#    0.000    1.143    1.429    5.143    6.000    2.286 
#    5.143    0.000    0.000    0.000    0.000    0.000 
#    0.000    0.000    0.000    0.000    0.000    0.000 
#
# Total GULP energy -77950.323210 kJ/mol
# GULP energy per Si atom -5567.880229 kJ/mol
# Density = 2.491651 g / cm^3
# Si number density = 24.973346 Si / 1000 Ang^3
#
#
#
# Elastic Constant Matrix: (Units=GPa)
#
#
# Indices 1 2 3 4 5 6 
#
# 1 112.2987 34.9967 18.5968 0.0000 0.0000 0.0000
# 2 34.9967 179.1771 32.3737 0.0000 0.0000 0.0000
# 3 18.5968 32.3737 94.6471 0.0000 0.0000 0.0000
# 4 0.0000 0.0000 0.0000 156.7106 0.0000 0.0000
# 5 0.0000 0.0000 0.0000 0.0000 17.4658 0.0000
# 6 0.0000 0.0000 0.0000 0.0000 0.0000 52.6175
#
#
#
# Elastic Compliance Matrix: (Units=1/GPa)
#
#
# Indices 1 2 3 4 5 6 
#
# 1 0.009637 -0.001642 -0.001332 0.000000 0.000000 0.000000
# 2 -0.001642 0.006228 -0.001808 0.000000 0.000000 0.000000
# 3 -0.001332 -0.001808 0.011446 0.000000 0.000000 0.000000
# 4 0.000000 0.000000 0.000000 0.006381 0.000000 0.000000
# 5 0.000000 0.000000 0.000000 0.000000 0.057255 0.000000
# 6 0.000000 0.000000 0.000000 0.000000 0.000000 0.019005
#
#
# Mechanical properties :
#
#
# Convention : Reuss Voigt Hill
#
# Bulk Modulus (GPa) = 56.34422 62.00638 59.17530
# Shear Modulus (GPa) = 39.86254 65.36915 52.61585
#
# Velocity S-wave (km/s) = 3.99959 5.12176 4.59506
# Velocity P-wave (km/s) = 6.62870 7.73689 7.20413
#
# Compressibility (1/GPa) = 0.01774805
#
# Stress axis : x y z
#
# Youngs Moduli (GPa) = 103.76669 160.55614 87.36948
#
# Poissons Ratio (x) = 0.26357 0.11638
# Poissons Ratio (y) = 0.17035 0.15795
# Poissons Ratio (z) = 0.13822 0.29026
#
# Static dielectric constant tensor:
#      x y z
#    x 1.556220 0.000000 0.000000 
#    y 0.000000 0.509290 0.000000 
#    z 0.000000 0.000000 1.924540 
# 
# From -- ./inp_files/23284.got.cif
#   From: 2010.05.17/outbox.cif.g08.bks.cpg/sg43_12_cif.got.tgz:23284.got - 2010.06.03 19:21:55.
