data_PCOD9371349
_publ_section_title
;
Structure prediction by ZEFSAII (Michael W. Deem and Ramdas Pophale) SiO2 
 PCOD9371349
Probable space group: F D D 2
;
_chemical_formula_sum "Si O2"
_cell_formula_units_Z 112
_cell_length_a 14.247490
_cell_length_b 22.384695
_cell_length_c 14.955627
_cell_angle_alpha 90.000000
_cell_angle_beta 90.000000
_cell_angle_gamma 90.000000
_cell_volume 4769.734082
_symmetry_space_group_name_H-M "F D D 2"
_symmetry_group_IT_number 43
_symmetry_cell_setting 'orthorhombic'
loop_
_space_group_symop_operation_xyz
x,y,z
-x,-y,z
1/4-x,1/4+y,1/4+z
1/4+x,1/4-y,1/4+z
x,1/2+y,1/2+z
-x,1/2-y,1/2+z
1/4-x,3/4+y,3/4+z
1/4+x,3/4-y,3/4+z
1/2+x,y,1/2+z
1/2-x,-y,1/2+z
3/4-x,1/4+y,3/4+z
3/4+x,1/4-y,3/4+z
1/2+x,1/2+y,z
1/2-x,1/2-y,z
3/4-x,3/4+y,1/4+z
3/4+x,3/4-y,1/4+z
loop_
_atom_site_type_symbol
_atom_site_label
_atom_site_fract_x
_atom_site_fract_y
_atom_site_fract_z
Si Si1 0.250000 0.750000 0.089471
Si Si2 0.355043 0.694033 0.234764
Si Si3 0.889401 0.429576 0.697118
Si Si4 0.680681 0.021403 0.381329
Si Si5 0.312425 0.840782 0.358990
Si Si6 0.250000 0.250000 0.013596
Si Si7 0.273777 0.394483 0.343403
Si Si8 0.747341 0.481504 0.578022
O O1 0.336201 0.746322 0.160203
O O2 0.283712 0.700071 0.019453
O O3 0.257427 0.680162 0.280783
O O4 0.401554 0.642720 0.174776
O O5 0.426745 0.713372 0.312151
O O6 0.824760 0.383057 0.750603
O O7 0.819266 0.479957 0.660003
O O8 0.939993 0.399350 0.614554
O O9 0.710688 0.089575 0.365543
O O10 0.583316 0.018061 0.329165
O O11 0.690451 0.017134 0.488443
O O12 0.735382 0.962579 0.345608
O O13 0.283924 0.803409 0.447665
O O14 0.421303 0.822861 0.338429
#
# Coordination Sequence:
#
# PCOD9371349 Si02
#       8
#     8  16  16  16  16   8  16  16
#     4  10  21  47  70 100 136 190 236 301 351 432
#     4  10  21  46  74  99 143 177 248 298 353 427
#     4  11  26  44  75  99 153 185 243 294 369 435
#     4  11  28  43  70 107 146 187 239 296 366 422
#     4  12  23  47  75 105 143 190 243 306 357 426
#     4  12  25  47  74 110 140 190 246 293 365 438
#     4  10  26  47  67 106 144 194 237 297 357 445
#     4  11  23  43  69 105 138 188 230 298 357 428
#
# _framework density 23.481393000000001
#
# number of rings (size 3 to 8) (size 9 to 14) (size 15 to 20)
#    0.000    1.143    2.857    1.714    6.000    6.286 
#    5.143    0.000    0.000    0.000    0.000    0.000 
#    0.000    0.000    0.000    0.000    0.000    0.000 
#
# Total GULP energy -156105.901377 kJ/mol
# GULP energy per Si atom -5575.210763 kJ/mol
# Density = 2.342795 g / cm^3
# Si number density = 23.481393 Si / 1000 Ang^3
#
#
#
# Elastic Constant Matrix: (Units=GPa)
#
#
# Indices 1 2 3 4 5 6 
#
# 1 89.0952 19.4493 45.3785 0.0000 0.0000 0.0000
# 2 19.4493 36.0679 -1.8113 0.0000 0.0000 0.0000
# 3 45.3785 -1.8113 66.6804 0.0000 0.0000 0.0000
# 4 0.0000 0.0000 0.0000 16.3834 0.0000 0.0000
# 5 0.0000 0.0000 0.0000 0.0000 31.0495 0.0000
# 6 0.0000 0.0000 0.0000 0.0000 0.0000 13.5884
#
#
#
# Elastic Compliance Matrix: (Units=1/GPa)
#
#
# Indices 1 2 3 4 5 6 
#
# 1 0.021581 -0.012392 -0.015023 0.000000 0.000000 0.000000
# 2 -0.012392 0.034879 0.009380 0.000000 0.000000 0.000000
# 3 -0.015023 0.009380 0.025475 0.000000 0.000000 0.000000
# 4 0.000000 0.000000 0.000000 0.061037 0.000000 0.000000
# 5 0.000000 0.000000 0.000000 0.000000 0.032207 0.000000
# 6 0.000000 0.000000 0.000000 0.000000 0.000000 0.073592
#
#
# Mechanical properties :
#
#
# Convention : Reuss Voigt Hill
#
# Bulk Modulus (GPa) = 21.80254 35.31960 28.56107
# Shear Modulus (GPa) = 16.65956 20.79274 18.72615
#
# Velocity S-wave (km/s) = 2.66649 2.97896 2.82705
# Velocity P-wave (km/s) = 4.33422 5.18714 4.77974
#
# Compressibility (1/GPa) = 0.04586622
#
# Stress axis : x y z
#
# Youngs Moduli (GPa) = 46.33779 28.67085 39.25345
#
# Poissons Ratio (x) = 0.35528 0.58971
# Poissons Ratio (y) = 0.57420 -0.36821
# Poissons Ratio (z) = 0.69613 -0.26894
#
# Static dielectric constant tensor:
#      x y z
#    x 1.935350 0.000000 0.000000 
#    y 0.000000 1.950410 0.000000 
#    z 0.000000 0.000000 1.878360 
# 
# From -- ./inp_files/10215.got.cif
#   From: 2010.05.17/outbox.cif.g08.bks.cpg/sg43_6_cif.got.tgz:10215.got - 2010.06.03 19:21:55.
