data_PCOD9371570
_publ_section_title
;
Structure prediction by ZEFSAII (Michael W. Deem and Ramdas Pophale) SiO2 
 PCOD9371570
Probable space group: F D D 2
;
_chemical_formula_sum "Si O2"
_cell_formula_units_Z 120
_cell_length_a 22.869599
_cell_length_b 28.084220
_cell_length_c 8.069994
_cell_angle_alpha 90.000000
_cell_angle_beta 90.000000
_cell_angle_gamma 90.000000
_cell_volume 5183.154183
_symmetry_space_group_name_H-M "F D D 2"
_symmetry_group_IT_number 43
_symmetry_cell_setting 'orthorhombic'
loop_
_space_group_symop_operation_xyz
x,y,z
-x,-y,z
1/4-x,1/4+y,1/4+z
1/4+x,1/4-y,1/4+z
x,1/2+y,1/2+z
-x,1/2-y,1/2+z
1/4-x,3/4+y,3/4+z
1/4+x,3/4-y,3/4+z
1/2+x,y,1/2+z
1/2-x,-y,1/2+z
3/4-x,1/4+y,3/4+z
3/4+x,1/4-y,3/4+z
1/2+x,1/2+y,z
1/2-x,1/2-y,z
3/4-x,3/4+y,1/4+z
3/4+x,3/4-y,1/4+z
loop_
_atom_site_type_symbol
_atom_site_label
_atom_site_fract_x
_atom_site_fract_y
_atom_site_fract_z
Si Si1 0.500000 0.500000 0.263880
Si Si2 0.150680 0.232166 0.092156
Si Si3 0.330615 0.596758 0.651660
Si Si4 0.733342 0.171332 0.747541
Si Si5 0.288048 0.061070 0.794735
Si Si6 0.596877 0.825358 0.981880
Si Si7 0.377016 0.883358 0.876980
Si Si8 0.130152 0.265724 0.471940
O O1 0.494540 0.454376 0.145514
O O2 0.434732 0.503910 0.335665
O O3 0.213303 0.205204 0.095298
O O4 0.141241 0.280955 0.993364
O O5 0.140576 0.250155 0.281556
O O6 0.103467 0.194535 0.021994
O O7 0.278717 0.629797 0.718082
O O8 0.306366 0.575711 0.479811
O O9 0.383135 0.633032 0.606727
O O10 0.671634 0.150569 0.803059
O O11 0.218804 0.059174 0.771117
O O12 0.316188 0.101603 0.672879
O O13 0.320224 0.010853 0.765584
O O14 0.602655 0.846589 0.799706
O O15 0.380079 0.928385 0.755869
#
# Coordination Sequence:
#
# PCOD9371570 Si02
#       8
#     8  16  16  16  16  16  16  16
#     4  10  22  42  68 100 138 172 246 288 342 430
#     4  11  25  44  71 106 141 188 244 298 363 438
#     4  11  25  44  73 103 141 192 237 300 363 437
#     4  11  24  43  72 104 137 191 239 302 353 442
#     4  11  25  46  67 109 142 185 240 294 376 433
#     4  11  27  46  70 103 149 188 237 314 368 443
#     4  11  26  45  69 103 143 190 243 298 372 438
#     4  11  25  41  72 103 140 191 235 295 361 424
#
# _framework density 23.151926
#
# number of rings (size 3 to 8) (size 9 to 14) (size 15 to 20)
#    0.000    1.067    2.667    3.200   11.200    0.000 
#    0.000    2.667    0.000    0.800    0.000    0.000 
#    0.000    0.000    0.000    0.000    0.000    0.000 
#
# Total GULP energy -167729.456456 kJ/mol
# GULP energy per Si atom -5590.981882 kJ/mol
# Density = 2.309923 g / cm^3
# Si number density = 23.151926 Si / 1000 Ang^3
#
#
#
# Elastic Constant Matrix: (Units=GPa)
#
#
# Indices 1 2 3 4 5 6 
#
# 1 77.2574 10.4180 9.4222 0.0089 -0.0025 -0.0016
# 2 10.4180 125.5206 37.0903 0.0027 0.0002 -0.0004
# 3 9.4222 37.0903 59.1722 0.0062 -0.0003 -0.0012
# 4 0.0089 0.0027 0.0062 51.3545 -0.0049 -0.0046
# 5 -0.0025 0.0002 -0.0003 -0.0049 11.4556 0.0009
# 6 -0.0016 -0.0004 -0.0012 -0.0046 0.0009 43.0751
#
#
#
# Elastic Compliance Matrix: (Units=1/GPa)
#
#
# Indices 1 2 3 4 5 6 
#
# 1 0.013235 -0.000584 -0.001741 -0.000002 0.000003 0.000000
# 2 -0.000584 0.009804 -0.006052 0.000000 0.000000 0.000000
# 3 -0.001741 -0.006052 0.020971 -0.000002 0.000000 0.000000
# 4 -0.000002 0.000000 -0.000002 0.019472 0.000008 0.000002
# 5 0.000003 0.000000 0.000000 0.000008 0.087294 -0.000002
# 6 0.000000 0.000000 0.000000 0.000002 -0.000002 0.023215
#
#
# Mechanical properties :
#
#
# Convention : Reuss Voigt Hill
#
# Bulk Modulus (GPa) = 36.69148 41.75681 39.22414
# Shear Modulus (GPa) = 25.02119 34.84501 29.93310
#
# Velocity S-wave (km/s) = 3.29103 3.88372 3.59959
# Velocity P-wave (km/s) = 5.50669 6.17950 5.85277
#
# Compressibility (1/GPa) = 0.02725429
#
# Stress axis : x y z
#
# Youngs Moduli (GPa) = 75.55798 102.00293 47.68552
#
# Poissons Ratio (x) = 0.05956 0.08304
# Poissons Ratio (y) = 0.04412 0.28860
# Poissons Ratio (z) = 0.13158 0.61734
#
# Static dielectric constant tensor:
#      x y z
#    x 1.939360 0.000020 0.000000 
#    y 0.000020 1.982780 0.000010 
#    z 0.000000 0.000010 1.887760 
# 
# From -- ./inp_files/3909.got.cif
#   From: 2010.05.17/outbox.cif.g08.bks.cpg/sg43_2_cif.got.tgz:3909.got - 2010.06.03 19:21:55.
