data_PCOD9371953
_publ_section_title
;
Structure prediction by ZEFSAII (Michael W. Deem and Ramdas Pophale) SiO2 
 PCOD9371953
Probable space group: F D D 2
;
_chemical_formula_sum "Si O2"
_cell_formula_units_Z 72
_cell_length_a 26.358813
_cell_length_b 21.281907
_cell_length_c 5.022160
_cell_angle_alpha 90.000000
_cell_angle_beta 90.000000
_cell_angle_gamma 90.000000
_cell_volume 2817.260037
_symmetry_space_group_name_H-M "F D D 2"
_symmetry_group_IT_number 43
_symmetry_cell_setting 'orthorhombic'
loop_
_space_group_symop_operation_xyz
x,y,z
-x,-y,z
1/4-x,1/4+y,1/4+z
1/4+x,1/4-y,1/4+z
x,1/2+y,1/2+z
-x,1/2-y,1/2+z
1/4-x,3/4+y,3/4+z
1/4+x,3/4-y,3/4+z
1/2+x,y,1/2+z
1/2-x,-y,1/2+z
3/4-x,1/4+y,3/4+z
3/4+x,1/4-y,3/4+z
1/2+x,1/2+y,z
1/2-x,1/2-y,z
3/4-x,3/4+y,1/4+z
3/4+x,3/4-y,1/4+z
loop_
_atom_site_type_symbol
_atom_site_label
_atom_site_fract_x
_atom_site_fract_y
_atom_site_fract_z
Si Si1 0.725458 0.974639 0.541290
Si Si2 0.750000 0.250000 0.313181
Si Si3 0.093219 0.821490 0.976769
Si Si4 0.673323 0.144362 0.223934
Si Si5 0.317217 0.641428 0.300883
O O1 0.818715 0.912682 0.513578
O O2 0.721302 0.907558 0.676539
O O3 0.741045 0.981009 0.236505
O O4 0.708740 0.204065 0.168681
O O5 0.712699 0.302250 0.445692
O O6 0.071022 0.873291 0.777362
O O7 0.079814 0.756540 0.837391
O O8 0.151780 0.829211 0.050969
O O9 0.611399 0.147336 0.201858
#
# Coordination Sequence:
#
# PCOD9371953 Si02
#       5
#    16   8  16  16  16
#     4  12  25  42  67  98 134 177 225 280 344 411
#     4  12  22  50  70 108 140 196 226 294 354 418
#     4  10  23  46  66  97 138 176 229 291 337 407
#     4  10  25  44  70 104 137 180 236 289 346 416
#     4  10  26  43  72  99 141 181 239 284 346 415
#
# _framework density 25.556746
#
# number of rings (size 3 to 8) (size 9 to 14) (size 15 to 20)
#    1.333    0.000    0.000    5.333    3.111    2.667 
#    4.000    0.000    0.000    0.000    0.000    0.000 
#    0.000    0.000    0.000    0.000    0.000    0.000 
#
# Total GULP energy -100262.238724 kJ/mol
# GULP energy per Si atom -5570.124374 kJ/mol
# Density = 2.549858 g / cm^3
# Si number density = 25.556746 Si / 1000 Ang^3
#
#
#
# Elastic Constant Matrix: (Units=GPa)
#
#
# Indices 1 2 3 4 5 6 
#
# 1 109.8522 36.9826 28.5800 0.0385 -0.0083 -0.0141
# 2 36.9826 100.9947 -0.7770 -0.0578 -0.0199 -0.0299
# 3 28.5800 -0.7770 86.7337 -0.0517 -0.0260 -0.0230
# 4 0.0385 -0.0578 -0.0517 18.0948 -0.0231 -0.0185
# 5 -0.0083 -0.0199 -0.0260 -0.0231 22.0759 0.0073
# 6 -0.0141 -0.0299 -0.0230 -0.0185 0.0073 55.4073
#
#
#
# Elastic Compliance Matrix: (Units=1/GPa)
#
#
# Indices 1 2 3 4 5 6 
#
# 1 0.011534 -0.004253 -0.003839 -0.000049 -0.000004 -0.000001
# 2 -0.004253 0.011470 0.001504 0.000050 0.000011 0.000006
# 3 -0.003839 0.001504 0.012808 0.000050 0.000015 0.000005
# 4 -0.000049 0.000050 0.000050 0.055265 0.000058 0.000018
# 5 -0.000004 0.000011 0.000015 0.000058 0.045298 -0.000006
# 6 -0.000001 0.000006 0.000005 0.000018 -0.000006 0.018048
#
#
# Mechanical properties :
#
#
# Convention : Reuss Voigt Hill
#
# Bulk Modulus (GPa) = 44.17498 47.46132 45.81815
# Shear Modulus (GPa) = 28.54789 34.63525 31.59157
#
# Velocity S-wave (km/s) = 3.34584 3.68534 3.51968
# Velocity P-wave (km/s) = 5.67880 6.05972 5.87235
#
# Compressibility (1/GPa) = 0.02263725
#
# Stress axis : x y z
#
# Youngs Moduli (GPa) = 86.70282 87.18023 78.07657
#
# Poissons Ratio (x) = 0.37078 0.29971
# Poissons Ratio (y) = 0.36875 -0.11744
# Poissons Ratio (z) = 0.33282 -0.13114
#
# Static dielectric constant tensor:
#      x y z
#    x 2.190590 0.000020 0.000040 
#    y 0.000020 2.016240 -0.000020 
#    z 0.000040 -0.000020 1.926200 
# 
# From -- ./inp_files/1159.got.cif
#   From: 2010.05.17/outbox.cif.g08.bks.cpg/sg43_1_cif.got.tgz:1159.got - 2010.06.03 19:21:55.
