data_PCOD9371311
_publ_section_title
;
Structure prediction by ZEFSAII (Michael W. Deem and Ramdas Pophale) SiO2 
 PCOD9371311
Probable space group: F D D 2
;
_chemical_formula_sum "Si O2"
_cell_formula_units_Z 88
_cell_length_a 13.319448
_cell_length_b 17.838582
_cell_length_c 18.667653
_cell_angle_alpha 90.000000
_cell_angle_beta 90.000000
_cell_angle_gamma 90.000000
_cell_volume 4435.435573
_symmetry_space_group_name_H-M "F D D 2"
_symmetry_group_IT_number 43
_symmetry_cell_setting 'orthorhombic'
loop_
_space_group_symop_operation_xyz
x,y,z
-x,-y,z
1/4-x,1/4+y,1/4+z
1/4+x,1/4-y,1/4+z
x,1/2+y,1/2+z
-x,1/2-y,1/2+z
1/4-x,3/4+y,3/4+z
1/4+x,3/4-y,3/4+z
1/2+x,y,1/2+z
1/2-x,-y,1/2+z
3/4-x,1/4+y,3/4+z
3/4+x,1/4-y,3/4+z
1/2+x,1/2+y,z
1/2-x,1/2-y,z
3/4-x,3/4+y,1/4+z
3/4+x,3/4-y,1/4+z
loop_
_atom_site_type_symbol
_atom_site_label
_atom_site_fract_x
_atom_site_fract_y
_atom_site_fract_z
Si Si1 0.242382 0.347273 0.945490
Si Si2 0.662393 0.990550 0.639079
Si Si3 0.738853 0.879146 0.383236
Si Si4 0.326218 0.507357 0.756336
Si Si5 0.960943 0.245319 0.247372
Si Si6 0.000000 0.500000 0.059948
O O1 0.352376 0.316924 0.965581
O O2 0.157379 0.312536 0.000407
O O3 0.246265 0.435204 0.950213
O O4 0.224371 0.317135 0.865484
O O5 0.588666 0.921192 0.620470
O O6 0.739602 0.998539 0.574631
O O7 0.598337 0.067247 0.640331
O O8 0.728202 0.983435 0.711313
O O9 0.709484 0.944643 0.325934
O O10 0.759111 0.920066 0.457864
O O11 0.844278 0.257806 0.259496
#
# Coordination Sequence:
#
# PCOD9371311 Si02
#       6
#    16  16  16  16  16   8
#     4  10  22  41  70  95 125 170 215 279 325 383
#     4  11  23  46  63  90 142 168 224 273 320 404
#     4  11  26  40  65 100 127 182 216 269 337 389
#     4  10  21  44  65  94 131 168 217 277 324 388
#     4  12  24  41  70  98 127 177 218 270 339 388
#     4  10  24  42  62 100 136 162 214 276 324 392
#
# _framework density 19.840215000000001
#
# number of rings (size 3 to 8) (size 9 to 14) (size 15 to 20)
#    0.000    1.455    5.455    1.091    5.091    0.000 
#    0.000    1.818    0.000    0.000    0.000    0.000 
#    0.000    0.000    0.000    0.000    0.000    0.000 
#
# Total GULP energy -122578.860289 kJ/mol
# GULP energy per Si atom -5571.766377 kJ/mol
# Density = 1.979506 g / cm^3
# Si number density = 19.840215 Si / 1000 Ang^3
#
#
#
# Elastic Constant Matrix: (Units=GPa)
#
#
# Indices 1 2 3 4 5 6 
#
# 1 97.0446 2.5261 2.0454 0.0000 0.0000 0.0000
# 2 2.5261 58.6719 9.2641 0.0000 0.0000 0.0000
# 3 2.0454 9.2641 35.4442 0.0000 0.0000 0.0000
# 4 0.0000 0.0000 0.0000 28.2971 0.0000 0.0000
# 5 0.0000 0.0000 0.0000 0.0000 31.2925 0.0000
# 6 0.0000 0.0000 0.0000 0.0000 0.0000 -11.4680
#
#
#
# Elastic Compliance Matrix: (Units=1/GPa)
#
#
# Indices 1 2 3 4 5 6 
#
# 1 0.010325 -0.000366 -0.000500 0.000000 0.000000 0.000000
# 2 -0.000366 0.017791 -0.004629 0.000000 0.000000 0.000000
# 3 -0.000500 -0.004629 0.029452 0.000000 0.000000 0.000000
# 4 0.000000 0.000000 0.000000 0.035339 0.000000 0.000000
# 5 0.000000 0.000000 0.000000 0.000000 0.031957 0.000000
# 6 0.000000 0.000000 0.000000 0.000000 0.000000 -0.087199
#
#
# Mechanical properties :
#
#
# Convention : Reuss Voigt Hill
#
# Bulk Modulus (GPa) = 21.46942 24.31468 22.89205
# Shear Modulus (GPa) = 77.90727 21.44600 49.67663
#
# Velocity S-wave (km/s) = 6.27316 3.29133 5.00926
# Velocity P-wave (km/s) = 7.95706 5.16968 6.70971
#
# Compressibility (1/GPa) = 0.04657787
#
# Stress axis : x y z
#
# Youngs Moduli (GPa) = 96.85605 56.20959 33.95350
#
# Poissons Ratio (x) = 0.02055 0.01699
# Poissons Ratio (y) = 0.03540 0.15717
# Poissons Ratio (z) = 0.04846 0.26019
#
# Static dielectric constant tensor:
#      x y z
#    x 1.632800 0.000000 0.000000 
#    y 0.000000 1.732730 0.000000 
#    z 0.000000 0.000000 1.713420 
# 
# From -- ./inp_files/14202.got.cif
#   From: 2010.05.17/outbox.cif.g08.bks.cpg/sg43_8_cif.got.tgz:14202.got - 2010.06.03 19:21:55.
