data_PCOD9371145
_publ_section_title
;
Structure prediction by ZEFSAII (Michael W. Deem and Ramdas Pophale) SiO2 
 PCOD9371145
Probable space group: F D D 2
;
_chemical_formula_sum "Si O2"
_cell_formula_units_Z 48
_cell_length_a 18.330073
_cell_length_b 14.738735
_cell_length_c 7.687154
_cell_angle_alpha 90.000000
_cell_angle_beta 90.000000
_cell_angle_gamma 90.000000
_cell_volume 2076.777579
_symmetry_space_group_name_H-M "F D D 2"
_symmetry_group_IT_number 43
_symmetry_cell_setting 'orthorhombic'
loop_
_space_group_symop_operation_xyz
x,y,z
-x,-y,z
1/4-x,1/4+y,1/4+z
1/4+x,1/4-y,1/4+z
x,1/2+y,1/2+z
-x,1/2-y,1/2+z
1/4-x,3/4+y,3/4+z
1/4+x,3/4-y,3/4+z
1/2+x,y,1/2+z
1/2-x,-y,1/2+z
3/4-x,1/4+y,3/4+z
3/4+x,1/4-y,3/4+z
1/2+x,1/2+y,z
1/2-x,1/2-y,z
3/4-x,3/4+y,1/4+z
3/4+x,3/4-y,1/4+z
loop_
_atom_site_type_symbol
_atom_site_label
_atom_site_fract_x
_atom_site_fract_y
_atom_site_fract_z
Si Si1 0.842937 0.813442 0.544950
Si Si2 0.747628 0.112944 0.346872
Si Si3 0.790197 0.922102 0.235765
O O1 0.799937 0.824417 0.723595
O O2 0.792556 0.851877 0.392590
O O3 0.879375 0.718852 0.488520
O O4 0.915838 0.874467 0.571547
O O5 0.727761 0.117547 0.548719
O O6 0.762209 0.992564 0.782608
#
# Coordination Sequence:
#
# PCOD9371145 Si02
#       3
#    16  16  16
#     4  10  22  40  66  94 126 176 220 270 338 398
#     4  10  21  40  64  90 134 166 221 275 329 389
#     4  10  21  40  64  90 134 166 221 275 329 389
#
# _framework density 23.112729999999999
#
# number of rings (size 3 to 8) (size 9 to 14) (size 15 to 20)
#    2.000    0.000    3.333    0.000    0.000    9.333 
#    0.000    0.000    0.000    0.000    0.000    0.000 
#    0.000    0.000    0.000    0.000    0.000    0.000 
#
# Total GULP energy -66980.359361 kJ/mol
# GULP energy per Si atom -5581.696613 kJ/mol
# Density = 2.306012 g / cm^3
# Si number density = 23.112730 Si / 1000 Ang^3
#
#
#
# Elastic Constant Matrix: (Units=GPa)
#
#
# Indices 1 2 3 4 5 6 
#
# 1 92.9862 3.2348 34.8563 0.0001 -0.0001 -0.0001
# 2 3.2348 44.4038 14.8739 0.0001 -0.0001 -0.0001
# 3 34.8563 14.8739 199.4225 0.0002 -0.0002 -0.0002
# 4 0.0001 0.0001 0.0002 8.2289 -0.0001 -0.0001
# 5 -0.0001 -0.0001 -0.0002 -0.0001 38.8979 0.0001
# 6 -0.0001 -0.0001 -0.0002 -0.0001 0.0001 17.3481
#
#
#
# Elastic Compliance Matrix: (Units=1/GPa)
#
#
# Indices 1 2 3 4 5 6 
#
# 1 0.011510 -0.000169 -0.001999 0.000000 0.000000 0.000000
# 2 -0.000169 0.023100 -0.001693 0.000000 0.000000 0.000000
# 3 -0.001999 -0.001693 0.005490 0.000000 0.000000 0.000000
# 4 0.000000 0.000000 0.000000 0.121523 0.000000 0.000001
# 5 0.000000 0.000000 0.000000 0.000000 0.025708 0.000000
# 6 0.000000 0.000000 0.000000 0.000001 0.000000 0.057643
#
#
# Mechanical properties :
#
#
# Convention : Reuss Voigt Hill
#
# Bulk Modulus (GPa) = 30.88594 49.19361 40.03977
# Shear Modulus (GPa) = 18.97611 31.81814 25.39712
#
# Velocity S-wave (km/s) = 2.86846 3.71435 3.31847
# Velocity P-wave (km/s) = 4.93588 6.30282 5.66077
#
# Compressibility (1/GPa) = 0.03237719
#
# Stress axis : x y z
#
# Youngs Moduli (GPa) = 86.88453 43.28976 182.14276
#
# Poissons Ratio (x) = 0.00731 0.36412
# Poissons Ratio (y) = 0.01467 0.30844
# Poissons Ratio (z) = 0.17369 0.07331
#
# Static dielectric constant tensor:
#      x y z
#    x 1.868570 0.000000 0.000000 
#    y 0.000000 1.916840 0.000000 
#    z 0.000000 0.000000 1.770900 
# 
# From -- ./inp_files/283.got.cif
#   From: 2010.05.17/outbox.cif.g08.bks.cpg/sg43_1_cif.got.tgz:283.got - 2010.06.03 19:21:55.
