data_PCOD9371065
_publ_section_title
;
Structure prediction by ZEFSAII (Michael W. Deem and Ramdas Pophale) SiO2 
 PCOD9371065
Probable space group: F D D 2
;
_chemical_formula_sum "Si O2"
_cell_formula_units_Z 120
_cell_length_a 25.840282
_cell_length_b 23.321877
_cell_length_c 9.504713
_cell_angle_alpha 90.000000
_cell_angle_beta 90.000000
_cell_angle_gamma 90.000000
_cell_volume 5727.957106
_symmetry_space_group_name_H-M "F D D 2"
_symmetry_group_IT_number 43
_symmetry_cell_setting 'orthorhombic'
loop_
_space_group_symop_operation_xyz
x,y,z
-x,-y,z
1/4-x,1/4+y,1/4+z
1/4+x,1/4-y,1/4+z
x,1/2+y,1/2+z
-x,1/2-y,1/2+z
1/4-x,3/4+y,3/4+z
1/4+x,3/4-y,3/4+z
1/2+x,y,1/2+z
1/2-x,-y,1/2+z
3/4-x,1/4+y,3/4+z
3/4+x,1/4-y,3/4+z
1/2+x,1/2+y,z
1/2-x,1/2-y,z
3/4-x,3/4+y,1/4+z
3/4+x,3/4-y,1/4+z
loop_
_atom_site_type_symbol
_atom_site_label
_atom_site_fract_x
_atom_site_fract_y
_atom_site_fract_z
Si Si1 0.043682 0.278690 0.473480
Si Si2 0.344337 0.273134 0.428702
Si Si3 0.170765 0.598497 0.964618
Si Si4 0.557566 0.070601 0.244038
Si Si5 0.493578 0.815051 0.193416
Si Si6 0.413633 0.001034 0.990972
Si Si7 0.583949 0.366385 0.527806
Si Si8 0.250000 0.750000 0.718238
O O1 0.101740 0.262037 0.419659
O O2 0.045329 0.333872 0.577699
O O3 0.022892 0.229200 0.574959
O O4 0.006010 0.286483 0.342106
O O5 0.357490 0.341093 0.434502
O O6 0.318848 0.256447 0.579403
O O7 0.300504 0.263708 0.311823
O O8 0.135050 0.542157 0.979144
O O9 0.191968 0.607444 0.122741
O O10 0.548751 0.135984 0.203302
O O11 0.617547 0.073167 0.289280
O O12 0.518896 0.050702 0.365021
O O13 0.552013 0.030425 0.107605
O O14 0.544471 0.848968 0.146770
O O15 0.402625 0.066103 0.038967
#
# Coordination Sequence:
#
# PCOD9371065 Si02
#       8
#    16  16  16  16  16  16  16   8
#     4  11  23  42  63  91 125 160 206 258 308 370
#     4  10  22  41  63  91 126 163 206 253 304 365
#     4   9  18  38  63  88 120 160 201 250 303 360
#     4  11  23  41  61  92 125 159 205 257 305 367
#     4  12  24  40  64  91 121 164 205 253 314 370
#     4   9  19  38  65  87 119 165 203 247 301 364
#     4  10  21  38  63  91 121 159 206 252 306 366
#     4  12  24  38  60  92 130 166 204 258 314 358
#
# _framework density 20.949877000000001
#
# number of rings (size 3 to 8) (size 9 to 14) (size 15 to 20)
#    0.000    1.600    0.000    6.400    0.000    3.733 
#    0.000    9.333    0.000    0.000    0.000    0.000 
#    0.000    0.000    0.000    0.000    0.000    0.000 
#
# Total GULP energy -167338.345171 kJ/mol
# GULP energy per Si atom -5577.944839 kJ/mol
# Density = 2.090219 g / cm^3
# Si number density = 20.949877 Si / 1000 Ang^3
#
#
#
# Elastic Constant Matrix: (Units=GPa)
#
#
# Indices 1 2 3 4 5 6 
#
# 1 51.2556 13.3198 26.2233 -0.0003 0.0000 0.0000
# 2 13.3198 101.8449 55.1038 -0.0005 0.0002 0.0001
# 3 26.2233 55.1038 112.1497 -0.0020 0.0008 0.0008
# 4 -0.0003 -0.0005 -0.0020 37.1346 0.0005 0.0004
# 5 0.0000 0.0002 0.0008 0.0005 39.9405 -0.0002
# 6 0.0000 0.0001 0.0008 0.0004 -0.0002 22.6520
#
#
#
# Elastic Compliance Matrix: (Units=1/GPa)
#
#
# Indices 1 2 3 4 5 6 
#
# 1 0.022162 -0.000129 -0.005119 0.000000 0.000000 0.000000
# 2 -0.000129 0.013375 -0.006542 0.000000 0.000000 0.000000
# 3 -0.005119 -0.006542 0.013328 0.000001 0.000000 0.000000
# 4 0.000000 0.000000 0.000001 0.026929 0.000000 0.000000
# 5 0.000000 0.000000 0.000000 0.000000 0.025037 0.000000
# 6 0.000000 0.000000 0.000000 0.000000 0.000000 0.044146
#
#
# Mechanical properties :
#
#
# Convention : Reuss Voigt Hill
#
# Bulk Modulus (GPa) = 39.54665 50.50489 45.02577
# Shear Modulus (GPa) = 28.25095 31.31897 29.78496
#
# Velocity S-wave (km/s) = 3.67618 3.87065 3.77467
# Velocity P-wave (km/s) = 6.07757 6.64347 6.36681
#
# Compressibility (1/GPa) = 0.02528659
#
# Stress axis : x y z
#
# Youngs Moduli (GPa) = 45.12140 74.76591 75.03182
#
# Poissons Ratio (x) = 0.00964 0.38407
# Poissons Ratio (y) = 0.00582 0.49083
# Poissons Ratio (z) = 0.23096 0.48909
#
# Static dielectric constant tensor:
#      x y z
#    x 1.880400 0.000000 0.000000 
#    y 0.000000 1.726210 0.000000 
#    z 0.000000 0.000000 1.765030 
# 
# From -- ./inp_files/3906.got.cif
#   From: 2010.05.17/outbox.cif.g08.bks.cpg/sg43_2_cif.got.tgz:3906.got - 2010.06.03 19:21:55.
