data_PCOD9371908
_publ_section_title
;
Structure prediction by ZEFSAII (Michael W. Deem and Ramdas Pophale) SiO2 
 PCOD9371908
Probable space group: F D D 2
;
_chemical_formula_sum "Si O2"
_cell_formula_units_Z 112
_cell_length_a 10.638805
_cell_length_b 34.847606
_cell_length_c 13.291638
_cell_angle_alpha 90.000000
_cell_angle_beta 90.000000
_cell_angle_gamma 90.000000
_cell_volume 4927.700468
_symmetry_space_group_name_H-M "F D D 2"
_symmetry_group_IT_number 43
_symmetry_cell_setting 'orthorhombic'
loop_
_space_group_symop_operation_xyz
x,y,z
-x,-y,z
1/4-x,1/4+y,1/4+z
1/4+x,1/4-y,1/4+z
x,1/2+y,1/2+z
-x,1/2-y,1/2+z
1/4-x,3/4+y,3/4+z
1/4+x,3/4-y,3/4+z
1/2+x,y,1/2+z
1/2-x,-y,1/2+z
3/4-x,1/4+y,3/4+z
3/4+x,1/4-y,3/4+z
1/2+x,1/2+y,z
1/2-x,1/2-y,z
3/4-x,3/4+y,1/4+z
3/4+x,3/4-y,1/4+z
loop_
_atom_site_type_symbol
_atom_site_label
_atom_site_fract_x
_atom_site_fract_y
_atom_site_fract_z
Si Si1 0.611760 0.972679 0.228370
Si Si2 0.948081 0.673062 0.734715
Si Si3 0.940344 0.903466 0.280643
Si Si4 0.320469 0.000000 0.437834
Si Si5 0.198082 0.923062 0.390952
Si Si6 0.638239 0.777321 0.397299
Si Si7 0.690343 0.653465 0.845024
O O1 0.610539 0.977542 0.348435
O O2 0.750000 0.983730 0.187835
O O3 0.589545 0.929500 0.190699
O O4 0.500000 0.000000 0.188040
O O5 0.902306 0.664290 0.621319
O O6 0.829180 0.665362 0.806379
O O7 0.053806 0.641917 0.762238
O O8 0.990281 0.716698 0.740657
O O9 0.910455 0.929501 0.184967
O O10 0.079181 0.915362 0.319288
O O11 0.240283 0.966698 0.385010
O O12 0.389460 0.977543 0.527234
O O13 0.303808 0.891917 0.363429
O O14 0.152307 0.914290 0.504348
O O15 0.750000 0.750000 0.437629
#
# Coordination Sequence:
#
# PCOD9371908 Si02
#       7
#    16  16  16  16  16  16  16
#     4  12  26  47  71 107 146 196 243 305 369 437
#     4  10  23  44  72 105 143 194 248 300 361 445
#     4  10  23  44  70 103 143 197 246 299 362 441
#     4  12  25  45  70 108 145 192 243 310 375 434
#     4  10  23  44  72 105 143 194 248 300 361 445
#     4  12  26  47  71 107 146 196 243 305 369 437
#     4  10  23  44  70 103 143 197 246 299 362 441
#
# _framework density 22.728653999999999
#
# number of rings (size 3 to 8) (size 9 to 14) (size 15 to 20)
#    0.000    1.143    2.857    2.143    4.000    2.286 
#    0.000    0.000    0.000    0.000    0.000    0.000 
#    0.000    0.000    0.000    0.000    0.000    0.000 
#
# Total GULP energy -156598.533645 kJ/mol
# GULP energy per Si atom -5592.804773 kJ/mol
# Density = 2.267692 g / cm^3
# Si number density = 22.728654 Si / 1000 Ang^3
#
#
#
# Elastic Constant Matrix: (Units=GPa)
#
#
# Indices 1 2 3 4 5 6 
#
# 1 55.6321 20.5643 13.3063 0.0000 0.0000 0.0000
# 2 20.5643 147.9506 35.8695 0.0000 0.0000 0.0000
# 3 13.3063 35.8695 122.7342 0.0000 0.0000 0.0000
# 4 0.0000 0.0000 0.0000 43.9451 0.0000 0.0000
# 5 0.0000 0.0000 0.0000 0.0000 131.9641 0.0000
# 6 0.0000 0.0000 0.0000 0.0000 0.0000 16.2321
#
#
#
# Elastic Compliance Matrix: (Units=1/GPa)
#
#
# Indices 1 2 3 4 5 6 
#
# 1 0.019169 -0.002325 -0.001399 0.000000 0.000000 0.000000
# 2 -0.002325 0.007557 -0.001956 0.000000 0.000000 0.000000
# 3 -0.001399 -0.001956 0.008871 0.000000 0.000000 0.000000
# 4 0.000000 0.000000 0.000000 0.022756 0.000000 0.000000
# 5 0.000000 0.000000 0.000000 0.000000 0.007578 0.000000
# 6 0.000000 0.000000 0.000000 0.000000 0.000000 0.061606
#
#
# Mechanical properties :
#
#
# Convention : Reuss Voigt Hill
#
# Bulk Modulus (GPa) = 41.26044 51.75522 46.50783
# Shear Modulus (GPa) = 34.01918 55.53340 44.77629
#
# Velocity S-wave (km/s) = 3.87299 4.94836 4.44333
# Velocity P-wave (km/s) = 6.18004 7.44773 6.84330
#
# Compressibility (1/GPa) = 0.02423629
#
# Stress axis : x y z
#
# Youngs Moduli (GPa) = 52.16663 132.33612 112.72610
#
# Poissons Ratio (x) = 0.30773 0.15767
# Poissons Ratio (y) = 0.12131 0.22053
# Poissons Ratio (z) = 0.07296 0.25889
#
# Static dielectric constant tensor:
#      x y z
#    x 1.911320 0.000000 0.000000 
#    y 0.000000 1.811530 0.000000 
#    z 0.000000 0.000000 1.834020 
# 
# From -- ./inp_files/9772.got.cif
#   From: 2010.05.17/outbox.cif.g08.bks.cpg/sg43_5_cif.got.tgz:9772.got - 2010.06.03 19:21:55.
