data_PCOD9371508
_publ_section_title
;
Structure prediction by ZEFSAII (Michael W. Deem and Ramdas Pophale) SiO2 
 PCOD9371508
Probable space group: F D D 2
;
_chemical_formula_sum "Si O2"
_cell_formula_units_Z 80
_cell_length_a 26.522654
_cell_length_b 5.070499
_cell_length_c 24.819342
_cell_angle_alpha 90.000000
_cell_angle_beta 90.000000
_cell_angle_gamma 90.000000
_cell_volume 3337.781818
_symmetry_space_group_name_H-M "F D D 2"
_symmetry_group_IT_number 43
_symmetry_cell_setting 'orthorhombic'
loop_
_space_group_symop_operation_xyz
x,y,z
-x,-y,z
1/4-x,1/4+y,1/4+z
1/4+x,1/4-y,1/4+z
x,1/2+y,1/2+z
-x,1/2-y,1/2+z
1/4-x,3/4+y,3/4+z
1/4+x,3/4-y,3/4+z
1/2+x,y,1/2+z
1/2-x,-y,1/2+z
3/4-x,1/4+y,3/4+z
3/4+x,1/4-y,3/4+z
1/2+x,1/2+y,z
1/2-x,1/2-y,z
3/4-x,3/4+y,1/4+z
3/4+x,3/4-y,1/4+z
loop_
_atom_site_type_symbol
_atom_site_label
_atom_site_fract_x
_atom_site_fract_y
_atom_site_fract_z
Si Si1 0.604630 0.411462 0.970310
Si Si2 0.556645 0.073690 0.644597
Si Si3 0.120004 0.449956 0.829880
Si Si4 0.557502 0.928922 0.359339
Si Si5 0.285198 0.989960 0.280661
O O1 0.659180 0.432262 0.942571
O O2 0.567157 0.344476 0.921321
O O3 0.606344 0.210243 0.020241
O O4 0.582449 0.680522 0.994392
O O5 0.551782 0.270577 0.593369
O O6 0.500000 0.000000 0.660683
O O7 0.588361 0.824424 0.620547
O O8 0.092452 0.183656 0.847461
O O9 0.077586 0.680061 0.826494
O O10 0.500000 0.000000 0.349867
O O11 0.250000 0.750000 0.265080
O O12 0.250000 0.250000 0.278795
#
# Coordination Sequence:
#
# PCOD9371508 Si02
#       5
#    16  16  16  16  16
#     4  10  23  42  69 100 135 180 230 282 343 412
#     4   9  21  40  66  97 136 179 226 277 336 406
#     4  10  24  43  65  99 139 177 226 286 343 409
#     4  11  24  44  68  98 136 180 228 284 346 412
#     4  10  22  41  66  96 131 174 225 281 339 403
#
# _framework density 23.968014
#
# number of rings (size 3 to 8) (size 9 to 14) (size 15 to 20)
#    0.000    2.000    0.000    1.200    0.000   24.800 
#    0.000    1.000    0.000    0.000    0.000    0.000 
#    0.000    0.000    0.000    0.000    0.000    0.000 
#
# Total GULP energy -111942.491317 kJ/mol
# GULP energy per Si atom -5597.124566 kJ/mol
# Density = 2.391346 g / cm^3
# Si number density = 23.968014 Si / 1000 Ang^3
#
#
#
# Elastic Constant Matrix: (Units=GPa)
#
#
# Indices 1 2 3 4 5 6 
#
# 1 208.7290 44.2917 41.7068 -0.0042 -0.0067 0.0130
# 2 44.2917 116.7397 40.0684 -0.0080 -0.0056 0.0013
# 3 41.7068 40.0684 117.9211 0.0012 0.0017 0.0041
# 4 -0.0042 -0.0080 0.0012 11.3410 -0.0034 0.0013
# 5 -0.0067 -0.0056 0.0017 -0.0034 27.1585 -0.0015
# 6 0.0130 0.0013 0.0041 0.0013 -0.0015 36.3115
#
#
#
# Elastic Compliance Matrix: (Units=1/GPa)
#
#
# Indices 1 2 3 4 5 6 
#
# 1 0.005400 -0.001577 -0.001374 0.000001 0.000001 -0.000002
# 2 -0.001577 0.010158 -0.002894 0.000007 0.000002 0.000001
# 3 -0.001374 -0.002894 0.009949 -0.000004 -0.000002 -0.000001
# 4 0.000001 0.000007 -0.000004 0.088176 0.000011 -0.000003
# 5 0.000001 0.000002 -0.000002 0.000011 0.036821 0.000002
# 6 -0.000002 0.000001 -0.000001 -0.000003 0.000002 0.027539
#
#
# Mechanical properties :
#
#
# Convention : Reuss Voigt Hill
#
# Bulk Modulus (GPa) = 72.37213 77.28040 74.82627
# Shear Modulus (GPa) = 25.72823 36.11706 30.92264
#
# Velocity S-wave (km/s) = 3.27989 3.88607 3.59578
# Velocity P-wave (km/s) = 6.67866 7.24214 6.96610
#
# Compressibility (1/GPa) = 0.01381747
#
# Stress axis : x y z
#
# Youngs Moduli (GPa) = 185.18068 98.44787 100.50823
#
# Poissons Ratio (x) = 0.15528 0.13810
# Poissons Ratio (y) = 0.29207 0.29083
# Poissons Ratio (z) = 0.25444 0.28487
#
# Static dielectric constant tensor:
#      x y z
#    x 1.979660 -0.000010 0.000000 
#    y -0.000010 1.961620 0.000000 
#    z 0.000000 0.000000 1.947060 
# 
# From -- ./inp_files/26688.got.cif
#   From: 2010.05.17/outbox.cif.g08.bks.cpg/sg43_14_cif.got.tgz:26688.got - 2010.06.03 19:21:55.
