data_PCOD9371120
_publ_section_title
;
Structure prediction by ZEFSAII (Michael W. Deem and Ramdas Pophale) SiO2 
 PCOD9371120
Probable space group: F D D 2
;
_chemical_formula_sum "Si O2"
_cell_formula_units_Z 104
_cell_length_a 13.837432
_cell_length_b 21.398523
_cell_length_c 15.211117
_cell_angle_alpha 90.000000
_cell_angle_beta 90.000000
_cell_angle_gamma 90.000000
_cell_volume 4504.020976
_symmetry_space_group_name_H-M "F D D 2"
_symmetry_group_IT_number 43
_symmetry_cell_setting 'orthorhombic'
loop_
_space_group_symop_operation_xyz
x,y,z
-x,-y,z
1/4-x,1/4+y,1/4+z
1/4+x,1/4-y,1/4+z
x,1/2+y,1/2+z
-x,1/2-y,1/2+z
1/4-x,3/4+y,3/4+z
1/4+x,3/4-y,3/4+z
1/2+x,y,1/2+z
1/2-x,-y,1/2+z
3/4-x,1/4+y,3/4+z
3/4+x,1/4-y,3/4+z
1/2+x,1/2+y,z
1/2-x,1/2-y,z
3/4-x,3/4+y,1/4+z
3/4+x,3/4-y,1/4+z
loop_
_atom_site_type_symbol
_atom_site_label
_atom_site_fract_x
_atom_site_fract_y
_atom_site_fract_z
Si Si1 0.750000 0.750000 0.375000
Si Si2 0.214022 0.454633 0.917862
Si Si3 0.340383 0.646470 0.750806
Si Si4 0.811091 0.053385 0.211256
Si Si5 0.357937 0.677309 0.421036
Si Si6 0.514119 0.433647 0.844279
Si Si7 0.574143 0.551451 0.477381
O O1 0.718665 0.809057 0.315864
O O2 0.844010 0.767451 0.431932
O O3 0.313767 0.430844 0.960876
O O4 0.215498 0.459350 0.812771
O O5 0.137717 0.397802 0.932199
O O6 0.176344 0.518021 0.960115
O O7 0.383809 0.588459 0.805736
O O8 0.275838 0.633284 0.664323
O O9 0.710992 0.040300 0.161935
O O10 0.827772 0.127580 0.195015
O O11 0.304121 0.693942 0.510043
O O12 0.301896 0.690469 0.331309
O O13 0.500000 0.500000 0.892109
O O14 0.500000 0.500000 0.439175
#
# Coordination Sequence:
#
# PCOD9371120 Si02
#       7
#     8  16  16  16  16  16  16
#     4  12  28  48  66 106 154 190 230 286 366 450
#     4  10  22  41  69  97 136 180 238 293 345 424
#     4  11  25  48  71 100 144 190 238 292 354 429
#     4  11  24  43  66 100 141 183 232 289 361 422
#     4  10  21  39  68 100 131 182 237 293 352 408
#     4  11  24  45  76 103 139 184 244 296 357 423
#     4  11  22  39  69 101 136 178 234 296 355 416
#
# _framework density 23.090478999999998
#
# number of rings (size 3 to 8) (size 9 to 14) (size 15 to 20)
#    0.000    1.231    3.846    1.385    1.077    4.923 
#    8.308    0.000    0.000    0.000    0.000    0.000 
#    0.000    0.000    0.000    0.000    0.000    0.000 
#
# Total GULP energy -145167.716028 kJ/mol
# GULP energy per Si atom -5583.373693 kJ/mol
# Density = 2.303792 g / cm^3
# Si number density = 23.090479 Si / 1000 Ang^3
#
#
#
# Elastic Constant Matrix: (Units=GPa)
#
#
# Indices 1 2 3 4 5 6 
#
# 1 58.2627 0.0288 5.3052 0.0000 0.0000 0.0000
# 2 0.0288 65.7381 12.3617 0.0000 0.0000 0.0000
# 3 5.3052 12.3617 49.8749 0.0000 0.0000 0.0000
# 4 0.0000 0.0000 0.0000 17.4648 0.0000 0.0000
# 5 0.0000 0.0000 0.0000 0.0000 21.3327 0.0000
# 6 0.0000 0.0000 0.0000 0.0000 0.0000 42.1620
#
#
#
# Elastic Compliance Matrix: (Units=1/GPa)
#
#
# Indices 1 2 3 4 5 6 
#
# 1 0.017339 0.000356 -0.001933 0.000000 0.000000 0.000000
# 2 0.000356 0.015963 -0.003994 0.000000 0.000000 0.000000
# 3 -0.001933 -0.003994 0.021246 0.000000 0.000000 0.000000
# 4 0.000000 0.000000 0.000000 0.057258 0.000000 0.000000
# 5 0.000000 0.000000 0.000000 0.000000 0.046876 0.000000
# 6 0.000000 0.000000 0.000000 0.000000 0.000000 0.023718
#
#
# Mechanical properties :
#
#
# Convention : Reuss Voigt Hill
#
# Bulk Modulus (GPa) = 23.03836 23.25190 23.14513
# Shear Modulus (GPa) = 24.03719 26.60391 25.32055
#
# Velocity S-wave (km/s) = 3.22995 3.39803 3.31506
# Velocity P-wave (km/s) = 4.88971 5.04849 4.96973
#
# Compressibility (1/GPa) = 0.04340587
#
# Stress axis : x y z
#
# Youngs Moduli (GPa) = 57.67197 62.64556 47.06828
#
# Poissons Ratio (x) = -0.02229 0.09096
# Poissons Ratio (y) = -0.02052 0.18800
# Poissons Ratio (z) = 0.11146 0.25022
#
# Static dielectric constant tensor:
#      x y z
#    x 1.919790 0.000000 0.000000 
#    y 0.000000 1.999490 0.000000 
#    z 0.000000 0.000000 1.840410 
# 
# From -- ./inp_files/13903.got.cif
#   From: 2010.05.17/outbox.cif.g08.bks.cpg/sg43_7_cif.got.tgz:13903.got - 2010.06.03 19:21:55.
