data_PCOD9371949
_publ_section_title
;
Structure prediction by ZEFSAII (Michael W. Deem and Ramdas Pophale) SiO2 
 PCOD9371949
Probable space group: F D D 2
;
_chemical_formula_sum "Si O2"
_cell_formula_units_Z 96
_cell_length_a 10.628173
_cell_length_b 18.788004
_cell_length_c 19.955887
_cell_angle_alpha 90.000000
_cell_angle_beta 90.000000
_cell_angle_gamma 90.000000
_cell_volume 3984.834558
_symmetry_space_group_name_H-M "F D D 2"
_symmetry_group_IT_number 43
_symmetry_cell_setting 'orthorhombic'
loop_
_space_group_symop_operation_xyz
x,y,z
-x,-y,z
1/4-x,1/4+y,1/4+z
1/4+x,1/4-y,1/4+z
x,1/2+y,1/2+z
-x,1/2-y,1/2+z
1/4-x,3/4+y,3/4+z
1/4+x,3/4-y,3/4+z
1/2+x,y,1/2+z
1/2-x,-y,1/2+z
3/4-x,1/4+y,3/4+z
3/4+x,1/4-y,3/4+z
1/2+x,1/2+y,z
1/2-x,1/2-y,z
3/4-x,3/4+y,1/4+z
3/4+x,3/4-y,1/4+z
loop_
_atom_site_type_symbol
_atom_site_label
_atom_site_fract_x
_atom_site_fract_y
_atom_site_fract_z
Si Si1 0.165155 0.623923 0.368450
Si Si2 0.500000 0.000000 0.743423
Si Si3 0.124832 0.909957 0.467544
Si Si4 0.934803 0.229590 0.873337
Si Si5 0.455648 0.277477 0.171430
Si Si6 0.821231 0.143540 0.106041
Si Si7 0.250000 0.250000 0.264646
O O1 0.178409 0.635993 0.288775
O O2 0.275588 0.638496 0.423744
O O3 0.202649 0.425048 0.132714
O O4 0.153737 0.538403 0.376716
O O5 0.616761 0.006550 0.693745
O O6 0.485325 0.933199 0.792047
O O7 0.010655 0.919225 0.418100
O O8 0.199979 0.984454 0.471176
O O9 0.957141 0.310482 0.850355
O O10 0.837984 0.204839 0.814734
O O11 0.537494 0.331842 0.127589
O O12 0.336876 0.298928 0.216819
#
# Coordination Sequence:
#
# PCOD9371949 Si02
#       7
#    16   8  16  16  16  16   8
#     4  10  23  49  71 114 150 206 262 340 397 489
#     4  11  26  48  66 110 153 202 264 332 397 486
#     4  10  23  45  78 104 157 197 269 321 420 476
#     4  11  27  42  77 109 157 197 273 326 398 482
#     4  10  24  46  74 100 155 202 265 317 411 474
#     4  12  26  47  76 110 150 212 258 331 406 495
#     4  11  24  48  70 114 145 220 252 332 397 498
#
# _framework density 24.091338
#
# number of rings (size 3 to 8) (size 9 to 14) (size 15 to 20)
#    1.000    0.333    3.333    0.000    9.333    2.000 
#    6.000    0.000    0.000    0.000    0.000    0.000 
#    0.000    0.000    0.000    0.000    0.000    0.000 
#
# Total GULP energy -133862.624135 kJ/mol
# GULP energy per Si atom -5577.609339 kJ/mol
# Density = 2.403651 g / cm^3
# Si number density = 24.091338 Si / 1000 Ang^3
#
#
#
# Elastic Constant Matrix: (Units=GPa)
#
#
# Indices 1 2 3 4 5 6 
#
# 1 123.8736 61.5222 44.2465 0.0000 0.0000 0.0000
# 2 61.5222 126.4188 43.0484 0.0000 0.0000 0.0000
# 3 44.2465 43.0484 151.3415 0.0000 0.0000 0.0000
# 4 0.0000 0.0000 0.0000 -29.6813 0.0000 0.0000
# 5 0.0000 0.0000 0.0000 0.0000 44.1090 0.0000
# 6 0.0000 0.0000 0.0000 0.0000 0.0000 44.5022
#
#
#
# Elastic Compliance Matrix: (Units=1/GPa)
#
#
# Indices 1 2 3 4 5 6 
#
# 1 0.011116 -0.004764 -0.001895 0.000000 0.000000 0.000000
# 2 -0.004764 0.010801 -0.001679 0.000000 0.000000 0.000000
# 3 -0.001895 -0.001679 0.007639 0.000000 0.000000 0.000000
# 4 0.000000 0.000000 0.000000 -0.033691 0.000000 0.000000
# 5 0.000000 0.000000 0.000000 0.000000 0.022671 0.000000
# 6 0.000000 0.000000 0.000000 0.000000 0.000000 0.022471
#
#
# Mechanical properties :
#
#
# Convention : Reuss Voigt Hill
#
# Bulk Modulus (GPa) = 77.64567 77.69645 77.67106
# Shear Modulus (GPa) = 80.67675 28.64042 54.65858
#
# Velocity S-wave (km/s) = 5.79315 3.45168 4.76837
# Velocity P-wave (km/s) = 8.77765 6.94307 7.91370
#
# Compressibility (1/GPa) = 0.01287902
#
# Stress axis : x y z
#
# Youngs Moduli (GPa) = 89.96270 92.58713 130.90458
#
# Poissons Ratio (x) = 0.44112 0.24801
# Poissons Ratio (y) = 0.42861 0.21983
# Poissons Ratio (z) = 0.17044 0.15548
#
# Static dielectric constant tensor:
#      x y z
#    x 2.013340 0.000000 0.000000 
#    y 0.000000 1.996810 0.000000 
#    z 0.000000 0.000000 1.952770 
# 
# From -- ./inp_files/17317.got.cif
#   From: 2010.05.17/outbox.cif.g08.bks.cpg/sg43_9_cif.got.tgz:17317.got - 2010.06.03 19:21:55.
