data_PCOD9371470
_publ_section_title
;
Structure prediction by ZEFSAII (Michael W. Deem and Ramdas Pophale) SiO2 
 PCOD9371470
Probable space group: F D D 2
;
_chemical_formula_sum "Si O2"
_cell_formula_units_Z 112
_cell_length_a 30.708393
_cell_length_b 15.913157
_cell_length_c 10.857263
_cell_angle_alpha 90.000000
_cell_angle_beta 90.000000
_cell_angle_gamma 90.000000
_cell_volume 5305.591339
_symmetry_space_group_name_H-M "F D D 2"
_symmetry_group_IT_number 43
_symmetry_cell_setting 'orthorhombic'
loop_
_space_group_symop_operation_xyz
x,y,z
-x,-y,z
1/4-x,1/4+y,1/4+z
1/4+x,1/4-y,1/4+z
x,1/2+y,1/2+z
-x,1/2-y,1/2+z
1/4-x,3/4+y,3/4+z
1/4+x,3/4-y,3/4+z
1/2+x,y,1/2+z
1/2-x,-y,1/2+z
3/4-x,1/4+y,3/4+z
3/4+x,1/4-y,3/4+z
1/2+x,1/2+y,z
1/2-x,1/2-y,z
3/4-x,3/4+y,1/4+z
3/4+x,3/4-y,1/4+z
loop_
_atom_site_type_symbol
_atom_site_label
_atom_site_fract_x
_atom_site_fract_y
_atom_site_fract_z
Si Si1 0.818699 0.328990 0.114760
Si Si2 0.425727 0.674491 0.784276
Si Si3 0.764758 0.846383 0.844836
Si Si4 0.791707 0.496502 0.788820
Si Si5 0.850671 0.590062 0.436352
Si Si6 0.255587 0.660426 0.901714
Si Si7 0.372493 0.426646 0.424090
O O1 0.799992 0.366368 0.239263
O O2 0.836457 0.237883 0.158057
O O3 0.778168 0.329569 0.017365
O O4 0.857187 0.381887 0.048937
O O5 0.462870 0.617303 0.724763
O O6 0.410595 0.742420 0.683627
O O7 0.384943 0.622395 0.836169
O O8 0.444814 0.728601 0.898462
O O9 0.750000 0.750000 0.836607
O O10 0.726786 0.912038 0.814671
O O11 0.759184 0.421410 0.826810
O O12 0.832437 0.482679 0.877874
O O13 0.805971 0.643228 0.432067
O O14 0.872760 0.605746 0.569418
O O15 0.250000 0.750000 0.834219
#
# Coordination Sequence:
#
# PCOD9371470 Si02
#       7
#    16  16  16  16  16  16  16
#     4  11  24  39  67 101 137 178 229 284 355 415
#     4  11  26  46  69 101 138 185 229 293 356 419
#     4  12  28  47  67 100 142 190 237 293 357 425
#     4  10  24  45  69  96 138 183 235 281 353 426
#     4  11  22  44  72  99 142 174 239 287 352 423
#     4  11  21  40  74 105 131 180 234 290 346 414
#     4  10  22  40  68 104 133 178 230 289 348 422
#
# _framework density 21.109805999999999
#
# number of rings (size 3 to 8) (size 9 to 14) (size 15 to 20)
#    0.000    1.143    2.857    3.000   10.000    1.714 
#    0.000    0.000    0.000    0.000    0.000    0.000 
#    0.000    0.000    0.000    0.000    0.000    0.000 
#
# Total GULP energy -156375.256518 kJ/mol
# GULP energy per Si atom -5584.830590 kJ/mol
# Density = 2.106176 g / cm^3
# Si number density = 21.109806 Si / 1000 Ang^3
#
#
#
# Elastic Constant Matrix: (Units=GPa)
#
#
# Indices 1 2 3 4 5 6 
#
# 1 87.7273 55.1507 29.1868 0.0000 0.0000 0.0000
# 2 55.1507 145.9874 56.6601 0.0000 0.0000 0.0000
# 3 29.1868 56.6601 39.6135 0.0000 0.0000 0.0000
# 4 0.0000 0.0000 0.0000 -4.4916 0.0000 0.0000
# 5 0.0000 0.0000 0.0000 0.0000 11.0888 0.0000
# 6 0.0000 0.0000 0.0000 0.0000 0.0000 36.9811
#
#
#
# Elastic Compliance Matrix: (Units=1/GPa)
#
#
# Indices 1 2 3 4 5 6 
#
# 1 0.015759 -0.003253 -0.006959 0.000000 0.000000 0.000000
# 2 -0.003253 0.016069 -0.020587 0.000000 0.000000 0.000000
# 3 -0.006959 -0.020587 0.059818 0.000000 0.000000 0.000000
# 4 0.000000 0.000000 0.000000 -0.222639 0.000000 0.000000
# 5 0.000000 0.000000 0.000000 0.000000 0.090181 0.000000
# 6 0.000000 0.000000 0.000000 0.000000 0.000000 0.027041
#
#
# Mechanical properties :
#
#
# Convention : Reuss Voigt Hill
#
# Bulk Modulus (GPa) = 33.27999 61.70261 47.49130
# Shear Modulus (GPa) = 86.44358 17.53770 51.99064
#
# Velocity S-wave (km/s) = 6.40612 2.88546 4.96811
# Velocity P-wave (km/s) = 8.39746 6.35563 7.44685
#
# Compressibility (1/GPa) = 0.03004809
#
# Stress axis : x y z
#
# Youngs Moduli (GPa) = 63.45626 62.23195 16.71748
#
# Poissons Ratio (x) = 0.20241 0.11633
# Poissons Ratio (y) = 0.20639 0.34417
# Poissons Ratio (z) = 0.44158 1.28119
#
# Static dielectric constant tensor:
#      x y z
#    x 1.814180 0.000000 0.000000 
#    y 0.000000 1.814630 0.000000 
#    z 0.000000 0.000000 1.755150 
# 
# From -- ./inp_files/8266.got.cif
#   From: 2010.05.17/outbox.cif.g08.bks.cpg/sg43_5_cif.got.tgz:8266.got - 2010.06.03 19:21:55.
