data_PCOD9371430
_publ_section_title
;
Structure prediction by ZEFSAII (Michael W. Deem and Ramdas Pophale) SiO2 
 PCOD9371430
Probable space group: F D D 2
;
_chemical_formula_sum "Si O2"
_cell_formula_units_Z 104
_cell_length_a 33.834701
_cell_length_b 17.628355
_cell_length_c 8.567089
_cell_angle_alpha 90.000000
_cell_angle_beta 90.000000
_cell_angle_gamma 90.000000
_cell_volume 5109.841267
_symmetry_space_group_name_H-M "F D D 2"
_symmetry_group_IT_number 43
_symmetry_cell_setting 'orthorhombic'
loop_
_space_group_symop_operation_xyz
x,y,z
-x,-y,z
1/4-x,1/4+y,1/4+z
1/4+x,1/4-y,1/4+z
x,1/2+y,1/2+z
-x,1/2-y,1/2+z
1/4-x,3/4+y,3/4+z
1/4+x,3/4-y,3/4+z
1/2+x,y,1/2+z
1/2-x,-y,1/2+z
3/4-x,1/4+y,3/4+z
3/4+x,1/4-y,3/4+z
1/2+x,1/2+y,z
1/2-x,1/2-y,z
3/4-x,3/4+y,1/4+z
3/4+x,3/4-y,1/4+z
loop_
_atom_site_type_symbol
_atom_site_label
_atom_site_fract_x
_atom_site_fract_y
_atom_site_fract_z
Si Si1 0.948668 0.959779 0.961750
Si Si2 0.750000 0.250000 0.971931
Si Si3 0.931787 0.738752 0.719960
Si Si4 0.431418 0.132709 0.430977
Si Si5 0.745417 0.383424 0.476398
Si Si6 0.451522 0.605784 0.431510
Si Si7 0.874887 0.602548 0.137856
O O1 0.974036 0.936354 0.811397
O O2 0.908440 0.915666 0.923831
O O3 0.941374 0.048414 0.991831
O O4 0.976440 0.940072 0.110463
O O5 0.784067 0.285325 0.079819
O O6 0.918220 0.691392 0.566128
O O7 0.961987 0.806245 0.681150
O O8 0.955532 0.678703 0.822925
O O9 0.898674 0.777074 0.832418
O O10 0.471266 0.163763 0.347767
O O11 0.400302 0.110448 0.295903
O O12 0.769458 0.359044 0.326838
O O13 0.407079 0.609663 0.499402
#
# Coordination Sequence:
#
# PCOD9371430 Si02
#       7
#    16   8  16  16  16  16  16
#     4  11  21  44  64  97 126 187 225 281 351 434
#     4  12  24  38  72  96 132 178 242 290 342 428
#     4  11  22  42  64  97 134 175 228 289 344 427
#     4  11  21  40  65  88 136 181 216 287 355 417
#     4  10  22  39  68  93 129 173 226 284 350 407
#     4  11  24  42  63 103 132 173 235 292 339 429
#     4  10  26  40  65  96 141 179 232 286 358 415
#
# _framework density 20.352882000000001
#
# number of rings (size 3 to 8) (size 9 to 14) (size 15 to 20)
#    0.000    1.231    3.077    1.846    6.462    1.231 
#    0.000    1.538    0.000    0.000    0.000    0.000 
#    0.000    0.000    0.000    0.000    0.000    0.000 
#
# Total GULP energy -144796.338984 kJ/mol
# GULP energy per Si atom -5569.089961 kJ/mol
# Density = 2.030656 g / cm^3
# Si number density = 20.352882 Si / 1000 Ang^3
#
#
#
# Elastic Constant Matrix: (Units=GPa)
#
#
# Indices 1 2 3 4 5 6 
#
# 1 103.6599 31.0290 38.9877 0.0000 0.0000 0.0000
# 2 31.0290 90.7764 44.3682 0.0000 0.0000 0.0000
# 3 38.9877 44.3682 108.0234 0.0000 0.0000 0.0000
# 4 0.0000 0.0000 0.0000 37.0396 0.0000 0.0000
# 5 0.0000 0.0000 0.0000 0.0000 25.8558 0.0000
# 6 0.0000 0.0000 0.0000 0.0000 0.0000 25.6327
#
#
#
# Elastic Compliance Matrix: (Units=1/GPa)
#
#
# Indices 1 2 3 4 5 6 
#
# 1 0.011563 -0.002393 -0.003190 0.000000 0.000000 0.000000
# 2 -0.002393 0.014278 -0.005001 0.000000 0.000000 0.000000
# 3 -0.003190 -0.005001 0.012463 0.000000 0.000000 0.000000
# 4 0.000000 0.000000 0.000000 0.026998 0.000000 0.000000
# 5 0.000000 0.000000 0.000000 0.000000 0.038676 0.000000
# 6 0.000000 0.000000 0.000000 0.000000 0.000000 0.039013
#
#
# Mechanical properties :
#
#
# Convention : Reuss Voigt Hill
#
# Bulk Modulus (GPa) = 58.35835 59.02550 58.69192
# Shear Modulus (GPa) = 29.43400 30.24395 29.83898
#
# Velocity S-wave (km/s) = 3.80700 3.85902 3.83310
# Velocity P-wave (km/s) = 6.93252 6.99429 6.96347
#
# Compressibility (1/GPa) = 0.01713551
#
# Stress axis : x y z
#
# Youngs Moduli (GPa) = 86.48080 70.03644 80.23942
#
# Poissons Ratio (x) = 0.16761 0.25600
# Poissons Ratio (y) = 0.20696 0.40126
# Poissons Ratio (z) = 0.27592 0.35024
#
# Static dielectric constant tensor:
#      x y z
#    x 1.776360 0.000000 0.000000 
#    y 0.000000 1.751020 0.000000 
#    z 0.000000 0.000000 1.741960 
# 
# From -- ./inp_files/4753.got.cif
#   From: 2010.05.17/outbox.cif.g08.bks.cpg/sg43_3_cif.got.tgz:4753.got - 2010.06.03 19:21:55.
