data_PCOD9371614
_publ_section_title
;
Structure prediction by ZEFSAII (Michael W. Deem and Ramdas Pophale) SiO2 
 PCOD9371614
Probable space group: F D D 2
;
_chemical_formula_sum "Si O2"
_cell_formula_units_Z 72
_cell_length_a 14.366531
_cell_length_b 10.807035
_cell_length_c 21.412168
_cell_angle_alpha 90.000000
_cell_angle_beta 90.000000
_cell_angle_gamma 90.000000
_cell_volume 3324.444710
_symmetry_space_group_name_H-M "F D D 2"
_symmetry_group_IT_number 43
_symmetry_cell_setting 'orthorhombic'
loop_
_space_group_symop_operation_xyz
x,y,z
-x,-y,z
1/4-x,1/4+y,1/4+z
1/4+x,1/4-y,1/4+z
x,1/2+y,1/2+z
-x,1/2-y,1/2+z
1/4-x,3/4+y,3/4+z
1/4+x,3/4-y,3/4+z
1/2+x,y,1/2+z
1/2-x,-y,1/2+z
3/4-x,1/4+y,3/4+z
3/4+x,1/4-y,3/4+z
1/2+x,1/2+y,z
1/2-x,1/2-y,z
3/4-x,3/4+y,1/4+z
3/4+x,3/4-y,1/4+z
loop_
_atom_site_type_symbol
_atom_site_label
_atom_site_fract_x
_atom_site_fract_y
_atom_site_fract_z
Si Si1 0.000000 0.000000 0.304590
Si Si2 0.789370 0.013490 0.275905
Si Si3 0.756206 0.000071 0.635149
Si Si4 0.795959 0.864982 0.889783
Si Si5 0.307085 0.633817 0.877947
O O1 0.100283 0.005115 0.271277
O O2 0.004098 0.875822 0.346223
O O3 0.747719 0.034670 0.208332
O O4 0.765280 0.118553 0.326730
O O5 0.738865 0.898972 0.310710
O O6 0.848735 0.079485 0.624381
O O7 0.664025 0.079887 0.622020
O O8 0.750000 0.750000 0.926177
O O9 0.794329 0.005137 0.916259
O O10 0.250000 0.750000 0.902720
#
# Coordination Sequence:
#
# PCOD9371614 Si02
#       5
#     8  16  16  16  16
#     4  12  24  42  68 102 140 166 240 274 318 432
#     4  10  26  43  69  98 134 182 220 279 342 389
#     4  12  23  44  71  94 137 187 210 287 342 381
#     4  10  22  46  65 100 135 165 237 275 315 421
#     4  10  22  43  64 102 136 164 236 273 320 417
#
# _framework density 21.657751000000001
#
# number of rings (size 3 to 8) (size 9 to 14) (size 15 to 20)
#    1.333    0.000    4.444    0.667    3.111    1.778 
#    4.000    0.000    0.000    0.000    0.000    0.000 
#    0.000    0.000    0.000    0.000    0.000    0.000 
#
# Total GULP energy -100371.053317 kJ/mol
# GULP energy per Si atom -5576.169629 kJ/mol
# Density = 2.160846 g / cm^3
# Si number density = 21.657751 Si / 1000 Ang^3
#
#
#
# Elastic Constant Matrix: (Units=GPa)
#
#
# Indices 1 2 3 4 5 6 
#
# 1 152.2077 36.7564 -8.3748 0.0000 0.0000 0.0000
# 2 36.7564 169.7387 -21.2142 0.0000 0.0000 0.0000
# 3 -8.3748 -21.2142 25.5479 0.0000 0.0000 0.0000
# 4 0.0000 0.0000 0.0000 -9.6491 0.0000 0.0000
# 5 0.0000 0.0000 0.0000 0.0000 19.3035 0.0000
# 6 0.0000 0.0000 0.0000 0.0000 0.0000 35.6831
#
#
#
# Elastic Compliance Matrix: (Units=1/GPa)
#
#
# Indices 1 2 3 4 5 6 
#
# 1 0.006963 -0.001364 0.001150 0.000000 0.000000 0.000000
# 2 -0.001364 0.006841 0.005233 0.000000 0.000000 0.000000
# 3 0.001150 0.005233 0.043865 0.000000 0.000000 0.000000
# 4 0.000000 0.000000 0.000000 -0.103636 0.000000 0.000000
# 5 0.000000 0.000000 0.000000 0.000000 0.051804 0.000000
# 6 0.000000 0.000000 0.000000 0.000000 0.000000 0.028024
#
#
# Mechanical properties :
#
#
# Convention : Reuss Voigt Hill
#
# Bulk Modulus (GPa) = 14.76973 40.20324 27.48648
# Shear Modulus (GPa) = 107.77966 31.75595 69.76781
#
# Velocity S-wave (km/s) = 7.06208 3.83334 5.68188
# Velocity P-wave (km/s) = 8.56339 6.18028 7.46752
#
# Compressibility (1/GPa) = 0.06770603
#
# Stress axis : x y z
#
# Youngs Moduli (GPa) = 143.62386 146.18068 22.79744
#
# Poissons Ratio (x) = 0.19940 -0.02621
# Poissons Ratio (y) = 0.19591 -0.11931
# Poissons Ratio (z) = -0.16513 -0.76500
#
# Static dielectric constant tensor:
#      x y z
#    x 1.758710 0.000000 0.000000 
#    y 0.000000 1.845130 0.000000 
#    z 0.000000 0.000000 1.758470 
# 
# From -- ./inp_files/21566.got.cif
#   From: 2010.05.17/outbox.cif.g08.bks.cpg/sg43_11_cif.got.tgz:21566.got - 2010.06.03 19:21:55.
