data_PCOD9371155
_publ_section_title
;
Structure prediction by ZEFSAII (Michael W. Deem and Ramdas Pophale) SiO2 
 PCOD9371155
Probable space group: F D D 2
;
_chemical_formula_sum "Si O2"
_cell_formula_units_Z 96
_cell_length_a 18.442324
_cell_length_b 21.166479
_cell_length_c 10.875278
_cell_angle_alpha 90.000000
_cell_angle_beta 90.000000
_cell_angle_gamma 90.000000
_cell_volume 4245.263337
_symmetry_space_group_name_H-M "F D D 2"
_symmetry_group_IT_number 43
_symmetry_cell_setting 'orthorhombic'
loop_
_space_group_symop_operation_xyz
x,y,z
-x,-y,z
1/4-x,1/4+y,1/4+z
1/4+x,1/4-y,1/4+z
x,1/2+y,1/2+z
-x,1/2-y,1/2+z
1/4-x,3/4+y,3/4+z
1/4+x,3/4-y,3/4+z
1/2+x,y,1/2+z
1/2-x,-y,1/2+z
3/4-x,1/4+y,3/4+z
3/4+x,1/4-y,3/4+z
1/2+x,1/2+y,z
1/2-x,1/2-y,z
3/4-x,3/4+y,1/4+z
3/4+x,3/4-y,1/4+z
loop_
_atom_site_type_symbol
_atom_site_label
_atom_site_fract_x
_atom_site_fract_y
_atom_site_fract_z
Si Si1 0.309868 0.447102 0.492070
Si Si2 0.300467 0.435245 0.998324
Si Si3 0.295960 0.812776 0.612451
Si Si4 0.668099 0.515666 0.753411
Si Si5 0.911238 0.736530 0.488510
Si Si6 0.457328 0.066125 0.655522
O O1 0.253321 0.505379 0.492081
O O2 0.350698 0.454474 0.621604
O O3 0.358158 0.456420 0.369301
O O4 0.268517 0.380736 0.470899
O O5 0.262975 0.370897 0.037653
O O6 0.354319 0.447317 0.113573
O O7 0.338034 0.435162 0.866404
O O8 0.250000 0.750000 0.597990
O O9 0.372021 0.794503 0.548229
O O10 0.299290 0.825971 0.758498
O O11 0.752293 0.495625 0.742061
O O12 0.871069 0.801961 0.465206
O O13 0.500000 0.000000 0.677534
#
# Coordination Sequence:
#
# PCOD9371155 Si02
#       6
#    16  16  16  16  16  16
#     4  10  23  42  67 102 142 184 226 291 365 420
#     4  10  21  42  68  99 138 188 226 285 359 426
#     4  11  24  42  71 106 136 181 243 295 346 427
#     4  10  23  40  64  99 138 184 226 276 352 420
#     4  10  21  40  65  96 136 182 224 279 346 420
#     4  11  24  42  71 108 136 177 243 300 348 421
#
# _framework density 22.613437999999999
#
# number of rings (size 3 to 8) (size 9 to 14) (size 15 to 20)
#    0.000    1.667    3.333    0.000    0.000   12.000 
#    0.000    1.667    0.000    0.000    0.000    0.000 
#    0.000    0.000    0.000    0.000    0.000    0.000 
#
# Total GULP energy -133856.043682 kJ/mol
# GULP energy per Si atom -5577.335153 kJ/mol
# Density = 2.256197 g / cm^3
# Si number density = 22.613438 Si / 1000 Ang^3
#
#
#
# Elastic Constant Matrix: (Units=GPa)
#
#
# Indices 1 2 3 4 5 6 
#
# 1 61.0214 21.5237 -2.2052 0.0000 0.0000 0.0000
# 2 21.5237 154.9782 51.1452 0.0000 0.0000 0.0000
# 3 -2.2052 51.1452 206.7849 0.0000 0.0000 0.0000
# 4 0.0000 0.0000 0.0000 45.4946 0.0000 0.0000
# 5 0.0000 0.0000 0.0000 0.0000 15.9975 0.0000
# 6 0.0000 0.0000 0.0000 0.0000 0.0000 25.4467
#
#
#
# Elastic Compliance Matrix: (Units=1/GPa)
#
#
# Indices 1 2 3 4 5 6 
#
# 1 0.017368 -0.002693 0.000851 0.000000 0.000000 0.000000
# 2 -0.002693 0.007444 -0.001870 0.000000 0.000000 0.000000
# 3 0.000851 -0.001870 0.005307 0.000000 0.000000 0.000000
# 4 0.000000 0.000000 0.000000 0.021981 0.000000 0.000000
# 5 0.000000 0.000000 0.000000 0.000000 0.062510 0.000000
# 6 0.000000 0.000000 0.000000 0.000000 0.000000 0.039298
#
#
# Mechanical properties :
#
#
# Convention : Reuss Voigt Hill
#
# Bulk Modulus (GPa) = 44.05999 62.63466 53.34732
# Shear Modulus (GPa) = 29.60395 40.87579 35.23987
#
# Velocity S-wave (km/s) = 3.62212 4.25619 3.95189
# Velocity P-wave (km/s) = 6.08435 7.20497 6.66824
#
# Compressibility (1/GPa) = 0.02269633
#
# Stress axis : x y z
#
# Youngs Moduli (GPa) = 57.57589 134.34354 188.41315
#
# Poissons Ratio (x) = 0.36180 -0.16040
# Poissons Ratio (y) = 0.15506 0.35229
# Poissons Ratio (z) = -0.04902 0.25119
#
# Static dielectric constant tensor:
#      x y z
#    x 1.847030 0.000000 0.000000 
#    y 0.000000 1.905750 0.000000 
#    z 0.000000 0.000000 1.942000 
# 
# From -- ./inp_files/7086.got.cif
#   From: 2010.05.17/outbox.cif.g08.bks.cpg/sg43_4_cif.got.tgz:7086.got - 2010.06.03 19:21:55.
