data_PCOD9371873
_publ_section_title
;
Structure prediction by ZEFSAII (Michael W. Deem and Ramdas Pophale) SiO2 
 PCOD9371873
Probable space group: F D D 2
;
_chemical_formula_sum "Si O2"
_cell_formula_units_Z 120
_cell_length_a 32.263525
_cell_length_b 18.462772
_cell_length_c 10.314147
_cell_angle_alpha 90.000000
_cell_angle_beta 90.000000
_cell_angle_gamma 90.000000
_cell_volume 6143.870293
_symmetry_space_group_name_H-M "F D D 2"
_symmetry_group_IT_number 43
_symmetry_cell_setting 'orthorhombic'
loop_
_space_group_symop_operation_xyz
x,y,z
-x,-y,z
1/4-x,1/4+y,1/4+z
1/4+x,1/4-y,1/4+z
x,1/2+y,1/2+z
-x,1/2-y,1/2+z
1/4-x,3/4+y,3/4+z
1/4+x,3/4-y,3/4+z
1/2+x,y,1/2+z
1/2-x,-y,1/2+z
3/4-x,1/4+y,3/4+z
3/4+x,1/4-y,3/4+z
1/2+x,1/2+y,z
1/2-x,1/2-y,z
3/4-x,3/4+y,1/4+z
3/4+x,3/4-y,1/4+z
loop_
_atom_site_type_symbol
_atom_site_label
_atom_site_fract_x
_atom_site_fract_y
_atom_site_fract_z
Si Si1 0.099140 0.250000 0.425430
Si Si2 0.500000 0.500000 0.675430
Si Si3 0.610266 0.873151 0.828043
Si Si4 0.548932 0.735083 0.162370
Si Si5 0.430514 0.599909 0.592078
Si Si6 0.951068 0.235083 0.188490
Si Si7 0.889734 0.873151 0.022817
Si Si8 0.430514 0.900091 0.258782
O O1 0.126641 0.181878 0.471330
O O2 0.070311 0.231659 0.303211
O O3 0.070311 0.268341 0.547649
O O4 0.126641 0.318122 0.379530
O O5 0.470781 0.551187 0.592115
O O6 0.470781 0.448813 0.758745
O O7 0.574855 0.820030 0.777394
O O8 0.651582 0.833852 0.883230
O O9 0.594257 0.911366 0.959418
O O10 0.556151 0.816147 0.107546
O O11 0.500000 0.720234 0.175430
O O12 0.574855 0.679970 0.073466
O O13 0.401582 0.583852 0.717630
O O14 0.943849 0.316147 0.243314
O O15 0.905743 0.911366 0.891442
#
# Coordination Sequence:
#
# PCOD9371873 Si02
#       8
#    16   8  16  16  16  16  16  16
#     4  10  24  42  62 100 126 170 216 260 332 388
#     4  12  24  40  62  98 132 154 224 278 306 380
#     4  10  23  43  68  91 131 172 212 261 328 394
#     4  11  23  42  67  95 130 168 217 269 320 387
#     4  10  24  41  66  94 124 172 217 263 324 380
#     4  11  23  42  67  95 130 168 217 269 320 387
#     4  10  23  43  68  91 131 172 212 261 328 394
#     4  10  24  41  66  94 124 172 217 263 324 380
#
# _framework density 19.531662000000001
#
# number of rings (size 3 to 8) (size 9 to 14) (size 15 to 20)
#    0.000    1.600    1.333    1.600   14.933    0.000 
#    4.800    0.000    0.000    0.000    0.000    0.000 
#    0.000    0.000    0.000    0.000    0.000    0.000 
#
# Total GULP energy -167628.956041 kJ/mol
# GULP energy per Si atom -5587.631868 kJ/mol
# Density = 1.948721 g / cm^3
# Si number density = 19.531662 Si / 1000 Ang^3
#
#
#
# Elastic Constant Matrix: (Units=GPa)
#
#
# Indices 1 2 3 4 5 6 
#
# 1 149.5606 70.7019 30.2664 0.0000 0.0000 0.0000
# 2 70.7019 106.7684 39.7476 0.0000 0.0000 0.0000
# 3 30.2664 39.7476 82.9367 0.0000 0.0000 0.0000
# 4 0.0000 0.0000 0.0000 22.7427 0.0000 0.0000
# 5 0.0000 0.0000 0.0000 0.0000 8.4559 0.0000
# 6 0.0000 0.0000 0.0000 0.0000 0.0000 46.1201
#
#
#
# Elastic Compliance Matrix: (Units=1/GPa)
#
#
# Indices 1 2 3 4 5 6 
#
# 1 0.009755 -0.006249 -0.000565 0.000000 0.000000 0.000000
# 2 -0.006249 0.015404 -0.005102 0.000000 0.000000 0.000000
# 3 -0.000565 -0.005102 0.014708 0.000000 0.000000 0.000000
# 4 0.000000 0.000000 0.000000 0.043970 0.000000 0.000000
# 5 0.000000 0.000000 0.000000 0.000000 0.118260 0.000000
# 6 0.000000 0.000000 0.000000 0.000000 0.000000 0.021683
#
#
# Mechanical properties :
#
#
# Convention : Reuss Voigt Hill
#
# Bulk Modulus (GPa) = 62.36250 68.96639 65.66444
# Shear Modulus (GPa) = 19.76624 28.70039 24.23331
#
# Velocity S-wave (km/s) = 3.18466 3.83747 3.52621
# Velocity P-wave (km/s) = 6.74693 7.41766 7.09023
#
# Compressibility (1/GPa) = 0.01603528
#
# Stress axis : x y z
#
# Youngs Moduli (GPa) = 102.51348 64.91987 67.98799
#
# Poissons Ratio (x) = 0.40571 0.03840
# Poissons Ratio (y) = 0.64064 0.34685
# Poissons Ratio (z) = 0.05790 0.33120
#
# Static dielectric constant tensor:
#      x y z
#    x 1.705760 0.000000 0.000000 
#    y 0.000000 1.700960 0.000000 
#    z 0.000000 0.000000 1.672320 
# 
# From -- ./inp_files/8388.got.cif
#   From: 2010.05.17/outbox.cif.g08.bks.cpg/sg43_5_cif.got.tgz:8388.got - 2010.06.03 19:21:55.
