data_PCOD9371506
_publ_section_title
;
Structure prediction by ZEFSAII (Michael W. Deem and Ramdas Pophale) SiO2 
 PCOD9371506
Probable space group: F D D 2
;
_chemical_formula_sum "Si O2"
_cell_formula_units_Z 72
_cell_length_a 22.845090
_cell_length_b 21.166490
_cell_length_c 7.400208
_cell_angle_alpha 90.000000
_cell_angle_beta 90.000000
_cell_angle_gamma 90.000000
_cell_volume 3578.373309
_symmetry_space_group_name_H-M "F D D 2"
_symmetry_group_IT_number 43
_symmetry_cell_setting 'orthorhombic'
loop_
_space_group_symop_operation_xyz
x,y,z
-x,-y,z
1/4-x,1/4+y,1/4+z
1/4+x,1/4-y,1/4+z
x,1/2+y,1/2+z
-x,1/2-y,1/2+z
1/4-x,3/4+y,3/4+z
1/4+x,3/4-y,3/4+z
1/2+x,y,1/2+z
1/2-x,-y,1/2+z
3/4-x,1/4+y,3/4+z
3/4+x,1/4-y,3/4+z
1/2+x,1/2+y,z
1/2-x,1/2-y,z
3/4-x,3/4+y,1/4+z
3/4+x,3/4-y,1/4+z
loop_
_atom_site_type_symbol
_atom_site_label
_atom_site_fract_x
_atom_site_fract_y
_atom_site_fract_z
Si Si1 0.561424 0.218501 0.614060
Si Si2 0.262369 0.585864 0.498039
Si Si3 0.178511 0.169765 0.231542
Si Si4 0.320505 0.136062 0.648743
Si Si5 0.750000 0.250000 0.017726
O O1 0.545550 0.195964 0.415235
O O2 0.631282 0.217380 0.642858
O O3 0.541317 0.164258 0.757719
O O4 0.469558 0.216291 0.160914
O O5 0.221872 0.640196 0.585540
O O6 0.307395 0.610453 0.347706
O O7 0.137466 0.116673 0.328517
O O8 0.212173 0.205985 0.387024
O O9 0.292073 0.204303 0.629389
#
# Coordination Sequence:
#
# PCOD9371506 Si02
#       5
#    16  16  16  16   8
#     4  10  22  41  66  95 130 171 222 274 329 409
#     4  12  21  45  68  95 132 179 219 279 344 395
#     4  10  23  42  68  99 133 172 227 277 333 410
#     4  10  25  40  66  97 129 180 217 275 338 390
#     4  12  22  48  64  96 142 170 222 286 324 406
#
# _framework density 20.120873
#
# number of rings (size 3 to 8) (size 9 to 14) (size 15 to 20)
#    1.333    0.000    4.444    1.333    0.000    2.667 
#    0.000    6.667    0.000    0.000    0.000    0.000 
#    0.000    0.000    0.000    0.000    0.000    0.000 
#
# Total GULP energy -100430.097464 kJ/mol
# GULP energy per Si atom -5579.449859 kJ/mol
# Density = 2.007508 g / cm^3
# Si number density = 20.120873 Si / 1000 Ang^3
#
#
#
# Elastic Constant Matrix: (Units=GPa)
#
#
# Indices 1 2 3 4 5 6 
#
# 1 38.1148 -21.5501 3.0687 -0.0003 0.0001 0.0004
# 2 -21.5501 35.0734 3.0486 -0.0003 0.0002 0.0004
# 3 3.0687 3.0486 116.8302 -0.0009 -0.0003 0.0011
# 4 -0.0003 -0.0003 -0.0009 -7.7454 -0.0001 0.0004
# 5 0.0001 0.0002 -0.0003 -0.0001 2.0967 0.0000
# 6 0.0004 0.0004 0.0011 0.0004 0.0000 19.6658
#
#
#
# Elastic Compliance Matrix: (Units=1/GPa)
#
#
# Indices 1 2 3 4 5 6 
#
# 1 0.040544 0.025061 -0.001719 -0.000002 -0.000004 -0.000001
# 2 0.025061 0.044067 -0.001808 -0.000002 -0.000005 -0.000001
# 3 -0.001719 -0.001808 0.008652 -0.000001 0.000001 0.000000
# 4 -0.000002 -0.000002 -0.000001 -0.129109 -0.000008 0.000002
# 5 -0.000004 -0.000005 0.000001 -0.000008 0.476943 0.000000
# 6 -0.000001 -0.000001 0.000000 0.000002 0.000000 0.050850
#
#
# Mechanical properties :
#
#
# Convention : Reuss Voigt Hill
#
# Bulk Modulus (GPa) = 7.33508 17.68365 12.50936
# Shear Modulus (GPa) = 10.11485 16.50017 13.30751
#
# Velocity S-wave (km/s) = 2.24454 2.86676 2.57452
# Velocity P-wave (km/s) = 3.22036 4.44585 3.88177
#
# Compressibility (1/GPa) = 0.13633115
#
# Stress axis : x y z
#
# Youngs Moduli (GPa) = 24.66433 22.69270 115.58340
#
# Poissons Ratio (x) = -0.56870 0.19868
# Poissons Ratio (y) = -0.61811 0.20899
# Poissons Ratio (z) = 0.04240 0.04103
#
# Static dielectric constant tensor:
#      x y z
#    x 1.724430 0.000000 0.000000 
#    y 0.000000 1.725140 0.000000 
#    z 0.000000 0.000000 1.671930 
# 
# From -- ./inp_files/1158.got.cif
#   From: 2010.05.17/outbox.cif.g08.bks.cpg/sg43_1_cif.got.tgz:1158.got - 2010.06.03 19:21:55.
