data_PCOD9371595
_publ_section_title
;
Structure prediction by ZEFSAII (Michael W. Deem and Ramdas Pophale) SiO2 
 PCOD9371595
Probable space group: F D D 2
;
_chemical_formula_sum "Si O2"
_cell_formula_units_Z 64
_cell_length_a 26.190610
_cell_length_b 5.213903
_cell_length_c 17.978178
_cell_angle_alpha 90.000000
_cell_angle_beta 90.000000
_cell_angle_gamma 90.000000
_cell_volume 2455.015491
_symmetry_space_group_name_H-M "F D D 2"
_symmetry_group_IT_number 43
_symmetry_cell_setting 'orthorhombic'
loop_
_space_group_symop_operation_xyz
x,y,z
-x,-y,z
1/4-x,1/4+y,1/4+z
1/4+x,1/4-y,1/4+z
x,1/2+y,1/2+z
-x,1/2-y,1/2+z
1/4-x,3/4+y,3/4+z
1/4+x,3/4-y,3/4+z
1/2+x,y,1/2+z
1/2-x,-y,1/2+z
3/4-x,1/4+y,3/4+z
3/4+x,1/4-y,3/4+z
1/2+x,1/2+y,z
1/2-x,1/2-y,z
3/4-x,3/4+y,1/4+z
3/4+x,3/4-y,1/4+z
loop_
_atom_site_type_symbol
_atom_site_label
_atom_site_fract_x
_atom_site_fract_y
_atom_site_fract_z
Si Si1 0.439435 0.471540 0.700420
Si Si2 0.439905 0.968255 0.486036
Si Si3 0.108804 0.519168 0.643454
Si Si4 0.534175 0.755570 0.847260
O O1 0.500000 0.500000 0.688940
O O2 0.420840 0.760509 0.689756
O O3 0.430863 0.321670 0.778471
O O4 0.413319 0.267653 0.646447
O O5 0.404845 0.918721 0.557505
O O6 0.440443 0.732592 0.427757
O O7 0.500000 0.000000 0.508895
O O8 0.414185 0.186935 0.432198
O O9 0.500000 0.500000 0.852842
O O10 0.500000 0.000000 0.829879
#
# Coordination Sequence:
#
# PCOD9371595 Si02
#       4
#    16  16  16  16
#     4  11  23  46  76 114 154 199 261 331 403 489
#     4  11  27  50  75 111 156 205 265 335 399 483
#     4  12  27  46  76 112 154 208 265 327 412 488
#     4  10  22  42  71 103 146 200 249 315 398 466
#
# _framework density 26.069084
#
# number of rings (size 3 to 8) (size 9 to 14) (size 15 to 20)
#    0.000    1.000    0.000    6.750    0.000   15.000 
#    0.000    0.000    0.000    0.000    0.000    0.000 
#    0.000    0.000    0.000    0.000    0.000    0.000 
#
# Total GULP energy -89297.964736 kJ/mol
# GULP energy per Si atom -5581.122796 kJ/mol
# Density = 2.600975 g / cm^3
# Si number density = 26.069084 Si / 1000 Ang^3
#
#
#
# Elastic Constant Matrix: (Units=GPa)
#
#
# Indices 1 2 3 4 5 6 
#
# 1 152.7529 73.1684 30.7072 0.0003 -0.0002 -0.0004
# 2 73.1684 149.0466 -9.3838 0.0007 0.0000 -0.0018
# 3 30.7072 -9.3838 116.6803 -0.0005 -0.0002 -0.0002
# 4 0.0003 0.0007 -0.0005 -18.0347 -0.0005 -0.0010
# 5 -0.0002 0.0000 -0.0002 -0.0005 1.1936 0.0003
# 6 -0.0004 -0.0018 -0.0002 -0.0010 0.0003 52.8771
#
#
#
# Elastic Compliance Matrix: (Units=1/GPa)
#
#
# Indices 1 2 3 4 5 6 
#
# 1 0.009426 -0.004808 -0.002867 0.000000 0.000001 0.000000
# 2 -0.004808 0.009196 0.002005 0.000000 -0.000001 0.000000
# 3 -0.002867 0.002005 0.009486 0.000000 0.000001 0.000000
# 4 0.000000 0.000000 0.000000 -0.055449 -0.000024 -0.000001
# 5 0.000001 -0.000001 0.000001 -0.000024 0.837825 -0.000005
# 6 0.000000 0.000000 0.000000 -0.000001 -0.000005 0.018912
#
#
# Mechanical properties :
#
#
# Convention : Reuss Voigt Hill
#
# Bulk Modulus (GPa) = 59.63971 67.49595 63.56783
# Shear Modulus (GPa) = 5.90789 28.80640 17.35715
#
# Velocity S-wave (km/s) = 1.50704 3.32776 2.58314
# Velocity P-wave (km/s) = 5.09465 6.38065 5.77357
#
# Compressibility (1/GPa) = 0.01676735
#
# Stress axis : x y z
#
# Youngs Moduli (GPa) = 106.09151 108.74641 105.41569
#
# Poissons Ratio (x) = 0.52283 0.30226
# Poissons Ratio (y) = 0.51006 -0.21134
# Poissons Ratio (z) = 0.30419 -0.21802
#
# Static dielectric constant tensor:
#      x y z
#    x 2.252360 0.000000 0.000000 
#    y 0.000000 2.136720 0.000000 
#    z 0.000000 0.000000 2.238450 
# 
# From -- ./inp_files/18739.got.cif
#   From: 2010.05.17/outbox.cif.g08.bks.cpg/sg43_10_cif.got.tgz:18739.got - 2010.06.03 19:21:55.
