data_PCOD9371863
_publ_section_title
;
Structure prediction by ZEFSAII (Michael W. Deem and Ramdas Pophale) SiO2 
 PCOD9371863
Probable space group: F D D 2
;
_chemical_formula_sum "Si O2"
_cell_formula_units_Z 88
_cell_length_a 11.226505
_cell_length_b 21.698492
_cell_length_c 16.174952
_cell_angle_alpha 90.000000
_cell_angle_beta 90.000000
_cell_angle_gamma 90.000000
_cell_volume 3940.189660
_symmetry_space_group_name_H-M "F D D 2"
_symmetry_group_IT_number 43
_symmetry_cell_setting 'orthorhombic'
loop_
_space_group_symop_operation_xyz
x,y,z
-x,-y,z
1/4-x,1/4+y,1/4+z
1/4+x,1/4-y,1/4+z
x,1/2+y,1/2+z
-x,1/2-y,1/2+z
1/4-x,3/4+y,3/4+z
1/4+x,3/4-y,3/4+z
1/2+x,y,1/2+z
1/2-x,-y,1/2+z
3/4-x,1/4+y,3/4+z
3/4+x,1/4-y,3/4+z
1/2+x,1/2+y,z
1/2-x,1/2-y,z
3/4-x,3/4+y,1/4+z
3/4+x,3/4-y,1/4+z
loop_
_atom_site_type_symbol
_atom_site_label
_atom_site_fract_x
_atom_site_fract_y
_atom_site_fract_z
Si Si1 0.000000 0.500000 0.776260
Si Si2 0.133703 0.172530 0.655963
Si Si3 0.255195 0.678035 0.318381
Si Si4 0.380422 0.543189 0.043761
Si Si5 0.215685 0.868270 0.910625
Si Si6 0.749081 0.073097 0.568486
O O1 0.898455 0.524893 0.838227
O O2 0.962982 0.441893 0.720836
O O3 0.245245 0.170259 0.719140
O O4 0.110219 0.109611 0.608004
O O5 0.025913 0.180900 0.720630
O O6 0.250000 0.750000 0.334753
O O7 0.126799 0.655605 0.352036
O O8 0.500000 0.500000 0.024967
O O9 0.424911 0.599959 0.100663
O O10 0.293919 0.495598 0.090901
O O11 0.307253 0.572429 0.967592
O O12 0.103105 0.867193 0.849015
#
# Coordination Sequence:
#
# PCOD9371863 Si02
#       6
#     8  16  16  16  16  16
#     4  12  24  42  64 108 124 186 224 284 324 408
#     4  10  24  41  68  94 141 173 232 263 348 389
#     4  10  23  43  68  97 134 184 216 279 324 410
#     4  10  23  43  65  99 134 177 216 287 328 406
#     4  11  24  41  71  97 134 172 232 273 345 385
#     4   9  22  45  61  95 135 175 217 280 329 397
#
# _framework density 22.333950999999999
#
# number of rings (size 3 to 8) (size 9 to 14) (size 15 to 20)
#    1.091    0.727    3.636    0.000   10.182    2.909 
#    0.000    2.727    0.000    0.000    0.000    0.000 
#    0.000    0.000    0.000    0.000    0.000    0.000 
#
# Total GULP energy -122538.393568 kJ/mol
# GULP energy per Si atom -5569.926980 kJ/mol
# Density = 2.228312 g / cm^3
# Si number density = 22.333951 Si / 1000 Ang^3
#
#
#
# Elastic Constant Matrix: (Units=GPa)
#
#
# Indices 1 2 3 4 5 6 
#
# 1 37.3674 -1.0625 19.2441 0.0000 0.0000 0.0000
# 2 -1.0625 63.2512 6.7321 0.0000 0.0000 0.0000
# 3 19.2441 6.7321 67.8108 0.0000 0.0000 0.0000
# 4 0.0000 0.0000 0.0000 -85.5068 0.0000 0.0000
# 5 0.0000 0.0000 0.0000 0.0000 27.1152 0.0000
# 6 0.0000 0.0000 0.0000 0.0000 0.0000 27.4838
#
#
#
# Elastic Compliance Matrix: (Units=1/GPa)
#
#
# Indices 1 2 3 4 5 6 
#
# 1 0.031481 0.001496 -0.009083 0.000000 0.000000 0.000000
# 2 0.001496 0.016050 -0.002018 0.000000 0.000000 0.000000
# 3 -0.009083 -0.002018 0.017525 0.000000 0.000000 0.000000
# 4 0.000000 0.000000 0.000000 -0.011695 0.000000 0.000000
# 5 0.000000 0.000000 0.000000 0.000000 0.036880 0.000000
# 6 0.000000 0.000000 0.000000 0.000000 0.000000 0.036385
#
#
# Mechanical properties :
#
#
# Convention : Reuss Voigt Hill
#
# Bulk Modulus (GPa) = 21.81203 24.25075 23.03139
# Shear Modulus (GPa) = 31.03324 3.38615 17.20970
#
# Velocity S-wave (km/s) = 3.73166 1.23265 2.77891
# Velocity P-wave (km/s) = 5.32490 3.59273 4.54215
#
# Compressibility (1/GPa) = 0.04584625
#
# Stress axis : x y z
#
# Youngs Moduli (GPa) = 31.76485 62.30579 57.06204
#
# Poissons Ratio (x) = -0.09318 0.51827
# Poissons Ratio (y) = -0.04751 0.11514
# Poissons Ratio (z) = 0.28851 0.12572
#
# Static dielectric constant tensor:
#      x y z
#    x 1.895090 0.000000 0.000000 
#    y 0.000000 1.837550 0.000000 
#    z 0.000000 0.000000 1.854000 
# 
# From -- ./inp_files/13879.got.cif
#   From: 2010.05.17/outbox.cif.g08.bks.cpg/sg43_7_cif.got.tgz:13879.got - 2010.06.03 19:21:55.
