data_PCOD9371822
_publ_section_title
;
Structure prediction by ZEFSAII (Michael W. Deem and Ramdas Pophale) SiO2 
 PCOD9371822
Probable space group: F D D 2
;
_chemical_formula_sum "Si O2"
_cell_formula_units_Z 104
_cell_length_a 23.026503
_cell_length_b 13.668807
_cell_length_c 16.830166
_cell_angle_alpha 90.000000
_cell_angle_beta 90.000000
_cell_angle_gamma 90.000000
_cell_volume 5297.207659
_symmetry_space_group_name_H-M "F D D 2"
_symmetry_group_IT_number 43
_symmetry_cell_setting 'orthorhombic'
loop_
_space_group_symop_operation_xyz
x,y,z
-x,-y,z
1/4-x,1/4+y,1/4+z
1/4+x,1/4-y,1/4+z
x,1/2+y,1/2+z
-x,1/2-y,1/2+z
1/4-x,3/4+y,3/4+z
1/4+x,3/4-y,3/4+z
1/2+x,y,1/2+z
1/2-x,-y,1/2+z
3/4-x,1/4+y,3/4+z
3/4+x,1/4-y,3/4+z
1/2+x,1/2+y,z
1/2-x,1/2-y,z
3/4-x,3/4+y,1/4+z
3/4+x,3/4-y,1/4+z
loop_
_atom_site_type_symbol
_atom_site_label
_atom_site_fract_x
_atom_site_fract_y
_atom_site_fract_z
Si Si1 0.144435 0.169189 0.172300
Si Si2 0.910811 0.522991 0.748777
Si Si3 0.210974 0.893378 0.271836
Si Si4 0.750000 0.250000 0.407499
Si Si5 0.389872 0.614386 0.732289
Si Si6 0.764636 0.599140 0.242796
Si Si7 0.500000 0.000000 0.888299
Si Si8 0.250000 0.750000 0.872515
O O1 0.116122 0.271997 0.202146
O O2 0.212843 0.152553 0.194339
O O3 0.111974 0.082892 0.220057
O O4 0.141282 0.152236 0.077705
O O5 0.856905 0.594120 0.755858
O O6 0.945461 0.514493 0.830460
O O7 0.954944 0.554037 0.679555
O O8 0.221981 0.830833 0.349807
O O9 0.239692 0.840724 0.196377
O O10 0.238190 0.000383 0.277403
O O11 0.803096 0.306132 0.451840
O O12 0.326432 0.575747 0.702381
O O13 0.778733 0.672001 0.314897
#
# Coordination Sequence:
#
# PCOD9371822 Si02
#       8
#    16  16  16   8  16  16   8   8
#     4  11  23  42  70 101 134 179 230 294 349 404
#     4  10  23  40  71  95 134 171 227 287 338 408
#     4  10  25  46  63  95 138 182 226 277 333 421
#     4  11  28  46  64  99 142 190 222 265 354 418
#     4  12  25  44  68 100 141 176 233 285 344 426
#     4  11  22  40  71  95 137 173 225 293 340 402
#     4  10  24  42  66  98 132 180 228 266 340 410
#     4  11  20  42  64 107 122 172 228 283 356 384
#
# _framework density 19.632985000000001
#
# number of rings (size 3 to 8) (size 9 to 14) (size 15 to 20)
#    0.000    1.231    3.077    0.923   12.923    0.000 
#    0.000    0.000    0.000    0.000    0.000    0.000 
#    0.000    0.000    0.000    0.000    0.000    0.000 
#
# Total GULP energy -144983.619861 kJ/mol
# GULP energy per Si atom -5576.293072 kJ/mol
# Density = 1.958830 g / cm^3
# Si number density = 19.632985 Si / 1000 Ang^3
#
#
#
# Elastic Constant Matrix: (Units=GPa)
#
#
# Indices 1 2 3 4 5 6 
#
# 1 154.7801 47.7158 60.9487 0.0000 0.0000 0.0000
# 2 47.7158 100.6762 59.5278 0.0000 0.0000 0.0000
# 3 60.9487 59.5278 127.8699 0.0000 0.0000 0.0000
# 4 0.0000 0.0000 0.0000 3.6738 0.0000 0.0000
# 5 0.0000 0.0000 0.0000 0.0000 6.8319 0.0000
# 6 0.0000 0.0000 0.0000 0.0000 0.0000 36.9590
#
#
#
# Elastic Compliance Matrix: (Units=1/GPa)
#
#
# Indices 1 2 3 4 5 6 
#
# 1 0.008292 -0.002198 -0.002929 0.000000 0.000000 0.000000
# 2 -0.002198 0.014288 -0.005604 0.000000 0.000000 0.000000
# 3 -0.002929 -0.005604 0.011825 0.000000 0.000000 0.000000
# 4 0.000000 0.000000 0.000000 0.272196 0.000000 0.000000
# 5 0.000000 0.000000 0.000000 0.000000 0.146372 0.000000
# 6 0.000000 0.000000 0.000000 0.000000 0.000000 0.027057
#
#
# Mechanical properties :
#
#
# Convention : Reuss Voigt Hill
#
# Bulk Modulus (GPa) = 77.25988 79.96789 78.61388
# Shear Modulus (GPa) = 9.88520 23.83521 16.86020
#
# Velocity S-wave (km/s) = 2.24631 3.48809 2.93366
# Velocity P-wave (km/s) = 6.79451 7.55263 7.18358
#
# Compressibility (1/GPa) = 0.01294333
#
# Stress axis : x y z
#
# Youngs Moduli (GPa) = 120.60167 69.98841 84.56420
#
# Poissons Ratio (x) = 0.15384 0.24769
# Poissons Ratio (y) = 0.26509 0.47389
# Poissons Ratio (z) = 0.35324 0.39221
#
# Static dielectric constant tensor:
#      x y z
#    x 1.734630 0.000000 0.000000 
#    y 0.000000 1.699360 0.000000 
#    z 0.000000 0.000000 1.676300 
# 
# From -- ./inp_files/13951.got.cif
#   From: 2010.05.17/outbox.cif.g08.bks.cpg/sg43_7_cif.got.tgz:13951.got - 2010.06.03 19:21:55.
