data_PCOD9371801
_publ_section_title
;
Structure prediction by ZEFSAII (Michael W. Deem and Ramdas Pophale) SiO2 
 PCOD9371801
Probable space group: F D D 2
;
_chemical_formula_sum "Si O2"
_cell_formula_units_Z 112
_cell_length_a 28.759133
_cell_length_b 13.660330
_cell_length_c 11.960432
_cell_angle_alpha 90.000000
_cell_angle_beta 90.000000
_cell_angle_gamma 90.000000
_cell_volume 4698.766313
_symmetry_space_group_name_H-M "F D D 2"
_symmetry_group_IT_number 43
_symmetry_cell_setting 'orthorhombic'
loop_
_space_group_symop_operation_xyz
x,y,z
-x,-y,z
1/4-x,1/4+y,1/4+z
1/4+x,1/4-y,1/4+z
x,1/2+y,1/2+z
-x,1/2-y,1/2+z
1/4-x,3/4+y,3/4+z
1/4+x,3/4-y,3/4+z
1/2+x,y,1/2+z
1/2-x,-y,1/2+z
3/4-x,1/4+y,3/4+z
3/4+x,1/4-y,3/4+z
1/2+x,1/2+y,z
1/2-x,1/2-y,z
3/4-x,3/4+y,1/4+z
3/4+x,3/4-y,1/4+z
loop_
_atom_site_type_symbol
_atom_site_label
_atom_site_fract_x
_atom_site_fract_y
_atom_site_fract_z
Si Si1 0.582360 0.627459 0.941400
Si Si2 0.940166 0.670078 0.541585
Si Si3 0.000000 0.000000 0.512002
Si Si4 0.322356 0.874222 0.028335
Si Si5 0.500000 0.500000 0.964374
Si Si6 0.719838 0.913984 0.618954
Si Si7 0.843720 0.658958 0.441287
Si Si8 0.416827 0.648399 0.517772
O O1 0.538616 0.562848 0.896472
O O2 0.625557 0.620261 0.856468
O O3 0.571612 0.737059 0.990306
O O4 0.593481 0.580228 0.059886
O O5 0.922903 0.690762 0.667649
O O6 0.978035 0.584235 0.541721
O O7 0.959527 0.754755 0.461369
O O8 0.895330 0.633428 0.476544
O O9 0.962853 0.083982 0.555728
O O10 0.035604 0.063378 0.437553
O O11 0.328462 0.765047 0.984597
O O12 0.271840 0.904572 0.073452
O O13 0.351923 0.874833 0.141982
O O14 0.688401 0.917101 0.508632
#
# Coordination Sequence:
#
# PCOD9371801 Si02
#       8
#    16  16   8  16   8  16  16  16
#     4  12  28  50  80 120 167 219 274 359 433 511
#     4  12  27  42  79 116 148 212 274 338 407 492
#     4  10  22  53  77 110 166 214 268 342 422 510
#     4  11  24  49  80 113 154 213 269 339 414 510
#     4  12  24  51  75 114 168 212 278 334 426 492
#     4  11  23  46  78 117 153 204 274 338 403 494
#     4  12  24  48  79 110 156 204 283 336 410 502
#     4  11  27  51  82 120 168 214 277 356 438 505
#
# _framework density 23.836044000000001
#
# number of rings (size 3 to 8) (size 9 to 14) (size 15 to 20)
#    0.000    0.571    4.286    4.286    4.000    1.143 
#    0.000    2.857    0.000    0.000    0.000    0.000 
#    0.000    0.000    0.000    0.000    0.000    0.000 
#
# Total GULP energy -156007.385563 kJ/mol
# GULP energy per Si atom -5571.692342 kJ/mol
# Density = 2.378179 g / cm^3
# Si number density = 23.836044 Si / 1000 Ang^3
#
#
#
# Elastic Constant Matrix: (Units=GPa)
#
#
# Indices 1 2 3 4 5 6 
#
# 1 110.8050 50.7108 42.0834 0.0000 0.0000 0.0000
# 2 50.7108 131.9943 61.7947 0.0000 0.0000 0.0000
# 3 42.0834 61.7947 141.4676 0.0000 0.0000 0.0000
# 4 0.0000 0.0000 0.0000 21.0670 0.0000 0.0000
# 5 0.0000 0.0000 0.0000 0.0000 47.5949 0.0000
# 6 0.0000 0.0000 0.0000 0.0000 0.0000 30.3225
#
#
#
# Elastic Compliance Matrix: (Units=1/GPa)
#
#
# Indices 1 2 3 4 5 6 
#
# 1 0.011321 -0.003485 -0.001845 0.000000 0.000000 0.000000
# 2 -0.003485 0.010597 -0.003592 0.000000 0.000000 0.000000
# 3 -0.001845 -0.003592 0.009187 0.000000 0.000000 0.000000
# 4 0.000000 0.000000 0.000000 0.047468 0.000000 0.000000
# 5 0.000000 0.000000 0.000000 0.000000 0.021011 0.000000
# 6 0.000000 0.000000 0.000000 0.000000 0.000000 0.032979
#
#
# Mechanical properties :
#
#
# Convention : Reuss Voigt Hill
#
# Bulk Modulus (GPa) = 75.42033 77.04941 76.23487
# Shear Modulus (GPa) = 32.29424 35.10873 33.70149
#
# Velocity S-wave (km/s) = 3.68482 3.84204 3.76425
# Velocity P-wave (km/s) = 7.05789 7.21641 7.13759
#
# Compressibility (1/GPa) = 0.01325902
#
# Stress axis : x y z
#
# Youngs Moduli (GPa) = 88.33279 94.36824 108.85353
#
# Poissons Ratio (x) = 0.32892 0.20085
# Poissons Ratio (y) = 0.30788 0.39100
# Poissons Ratio (z) = 0.16299 0.33897
#
# Static dielectric constant tensor:
#      x y z
#    x 1.966130 0.000000 0.000000 
#    y 0.000000 2.123590 0.000000 
#    z 0.000000 0.000000 1.972290 
# 
# From -- ./inp_files/8303.got.cif
#   From: 2010.05.17/outbox.cif.g08.bks.cpg/sg43_5_cif.got.tgz:8303.got - 2010.06.03 19:21:55.
