data_PCOD9371511
_publ_section_title
;
Structure prediction by ZEFSAII (Michael W. Deem and Ramdas Pophale) SiO2 
 PCOD9371511
Probable space group: F D D 2
;
_chemical_formula_sum "Si O2"
_cell_formula_units_Z 120
_cell_length_a 23.332900
_cell_length_b 12.236685
_cell_length_c 19.131027
_cell_angle_alpha 90.000000
_cell_angle_beta 90.000000
_cell_angle_gamma 90.000000
_cell_volume 5462.240083
_symmetry_space_group_name_H-M "F D D 2"
_symmetry_group_IT_number 43
_symmetry_cell_setting 'orthorhombic'
loop_
_space_group_symop_operation_xyz
x,y,z
-x,-y,z
1/4-x,1/4+y,1/4+z
1/4+x,1/4-y,1/4+z
x,1/2+y,1/2+z
-x,1/2-y,1/2+z
1/4-x,3/4+y,3/4+z
1/4+x,3/4-y,3/4+z
1/2+x,y,1/2+z
1/2-x,-y,1/2+z
3/4-x,1/4+y,3/4+z
3/4+x,1/4-y,3/4+z
1/2+x,1/2+y,z
1/2-x,1/2-y,z
3/4-x,3/4+y,1/4+z
3/4+x,3/4-y,1/4+z
loop_
_atom_site_type_symbol
_atom_site_label
_atom_site_fract_x
_atom_site_fract_y
_atom_site_fract_z
Si Si1 0.236377 0.963360 0.068800
Si Si2 0.539528 0.891981 0.685518
Si Si3 0.366025 0.449058 0.150647
Si Si4 0.853911 0.044691 0.627554
Si Si5 0.809247 0.246665 0.694142
Si Si6 0.965085 0.832781 0.068635
Si Si7 0.750000 0.750000 0.648499
Si Si8 0.087940 0.370346 0.991727
O O1 0.224987 0.843555 0.099517
O O2 0.177355 0.025636 0.086091
O O3 0.287200 0.015042 0.115115
O O4 0.265911 0.942104 0.993735
O O5 0.524104 0.839991 0.610680
O O6 0.500000 0.000000 0.693433
O O7 0.603601 0.943589 0.683331
O O8 0.331639 0.369381 0.203014
O O9 0.416133 0.370963 0.122497
O O10 0.855105 0.166540 0.658670
O O11 0.881601 0.057240 0.551250
O O12 0.873805 0.955033 0.685548
O O13 0.750000 0.250000 0.650004
O O14 0.791320 0.176372 0.760872
O O15 0.950739 0.718490 0.032931
O O16 0.701037 0.698709 0.695813
#
# Coordination Sequence:
#
# PCOD9371511 Si02
#       8
#    16  16  16  16  16  16   8  16
#     4  11  23  42  65  95 133 177 224 275 331 425
#     4  10  23  43  59  94 136 166 226 275 330 408
#     4  11  23  37  66  96 127 179 210 279 346 385
#     4  10  22  41  67  95 131 175 221 279 336 418
#     4  11  20  39  63  96 131 161 223 265 334 409
#     4  10  23  41  65  94 127 168 220 282 337 408
#     4  10  24  44  62  88 136 174 222 264 344 414
#     4  10  22  44  68  93 130 177 218 283 345 403
#
# _framework density 21.969007999999999
#
# number of rings (size 3 to 8) (size 9 to 14) (size 15 to 20)
#    0.000    1.600    3.333    1.200    5.600    0.000 
#    2.400    0.000    0.000    0.000    0.000    0.000 
#    0.000    0.000    0.000    0.000    0.000    0.000 
#
# Total GULP energy -167155.532034 kJ/mol
# GULP energy per Si atom -5571.851068 kJ/mol
# Density = 2.191901 g / cm^3
# Si number density = 21.969008 Si / 1000 Ang^3
#
#
#
# Elastic Constant Matrix: (Units=GPa)
#
#
# Indices 1 2 3 4 5 6 
#
# 1 51.0193 25.2796 19.0468 0.0000 0.0000 0.0000
# 2 25.2796 85.7069 33.8036 0.0000 0.0000 0.0000
# 3 19.0468 33.8036 107.6423 0.0000 0.0000 0.0000
# 4 0.0000 0.0000 0.0000 20.6424 0.0000 0.0000
# 5 0.0000 0.0000 0.0000 0.0000 27.1216 0.0000
# 6 0.0000 0.0000 0.0000 0.0000 0.0000 30.2987
#
#
#
# Elastic Compliance Matrix: (Units=1/GPa)
#
#
# Indices 1 2 3 4 5 6 
#
# 1 0.023425 -0.006020 -0.002254 0.000000 0.000000 0.000000
# 2 -0.006020 0.014864 -0.003603 0.000000 0.000000 0.000000
# 3 -0.002254 -0.003603 0.010820 0.000000 0.000000 0.000000
# 4 0.000000 0.000000 0.000000 0.048444 0.000000 0.000000
# 5 0.000000 0.000000 0.000000 0.000000 0.036871 0.000000
# 6 0.000000 0.000000 0.000000 0.000000 0.000000 0.033005
#
#
# Mechanical properties :
#
#
# Convention : Reuss Voigt Hill
#
# Bulk Modulus (GPa) = 39.43979 44.51428 41.97704
# Shear Modulus (GPa) = 25.04566 26.69510 25.87038
#
# Velocity S-wave (km/s) = 3.38012 3.48965 3.43532
# Velocity P-wave (km/s) = 5.76412 6.04509 5.90628
#
# Compressibility (1/GPa) = 0.02535510
#
# Stress axis : x y z
#
# Youngs Moduli (GPa) = 42.68953 67.27541 92.41872
#
# Poissons Ratio (x) = 0.40501 0.20835
# Poissons Ratio (y) = 0.25700 0.33296
# Poissons Ratio (z) = 0.09624 0.24237
#
# Static dielectric constant tensor:
#      x y z
#    x 1.919830 0.000000 0.000000 
#    y 0.000000 1.834770 0.000000 
#    z 0.000000 0.000000 1.916760 
# 
# From -- ./inp_files/18666.got.cif
#   From: 2010.05.17/outbox.cif.g08.bks.cpg/sg43_10_cif.got.tgz:18666.got - 2010.06.03 19:21:55.
