data_PCOD9371617
_publ_section_title
;
Structure prediction by ZEFSAII (Michael W. Deem and Ramdas Pophale) SiO2 
 PCOD9371617
Probable space group: F D D 2
;
_chemical_formula_sum "Si O2"
_cell_formula_units_Z 96
_cell_length_a 8.006869
_cell_length_b 25.242333
_cell_length_c 21.075100
_cell_angle_alpha 90.000000
_cell_angle_beta 90.000000
_cell_angle_gamma 90.000000
_cell_volume 4259.531741
_symmetry_space_group_name_H-M "F D D 2"
_symmetry_group_IT_number 43
_symmetry_cell_setting 'orthorhombic'
loop_
_space_group_symop_operation_xyz
x,y,z
-x,-y,z
1/4-x,1/4+y,1/4+z
1/4+x,1/4-y,1/4+z
x,1/2+y,1/2+z
-x,1/2-y,1/2+z
1/4-x,3/4+y,3/4+z
1/4+x,3/4-y,3/4+z
1/2+x,y,1/2+z
1/2-x,-y,1/2+z
3/4-x,1/4+y,3/4+z
3/4+x,1/4-y,3/4+z
1/2+x,1/2+y,z
1/2-x,1/2-y,z
3/4-x,3/4+y,1/4+z
3/4+x,3/4-y,1/4+z
loop_
_atom_site_type_symbol
_atom_site_label
_atom_site_fract_x
_atom_site_fract_y
_atom_site_fract_z
Si Si1 0.250000 0.250000 0.005461
Si Si2 0.000000 0.500000 0.545461
Si Si3 0.896412 0.287048 0.258593
Si Si4 0.726980 0.357197 0.588808
Si Si5 0.908932 0.282806 0.984396
Si Si6 0.426227 0.604088 0.129200
Si Si7 0.371885 0.574518 0.370703
O O1 0.243471 0.196060 0.047063
O O2 0.418528 0.244473 0.965258
O O3 0.170742 0.509952 0.507135
O O4 0.042034 0.448916 0.588594
O O5 0.750000 0.250000 0.288012
O O6 0.931655 0.342189 0.295120
O O7 0.837046 0.299294 0.187583
O O8 0.559872 0.350789 0.630052
O O9 0.896199 0.366764 0.627658
O O10 0.750000 0.250000 0.964566
O O11 0.887039 0.338298 0.949252
O O12 0.906592 0.286807 0.060348
O O13 0.274582 0.637890 0.100956
#
# Coordination Sequence:
#
# PCOD9371617 Si02
#       7
#     8   8  16  16  16  16  16
#     4  10  22  43  64  96 134 173 224 274 328 398
#     4  10  24  45  66  98 132 179 226 274 340 396
#     4  11  24  44  68 100 135 175 224 281 340 403
#     4  10  24  43  66  97 135 176 225 274 337 401
#     4  11  23  40  64  94 131 175 226 277 337 399
#     4  11  23  43  66  97 134 175 228 278 335 403
#     4  11  23  39  65  97 132 177 221 277 339 399
#
# _framework density 22.537687999999999
#
# number of rings (size 3 to 8) (size 9 to 14) (size 15 to 20)
#    0.000    1.333    0.833    4.500    0.000   10.667 
#    1.500    0.000    0.000    0.000    0.000    0.000 
#    0.000    0.000    0.000    0.000    0.000    0.000 
#
# Total GULP energy -134070.470040 kJ/mol
# GULP energy per Si atom -5586.269585 kJ/mol
# Density = 2.248639 g / cm^3
# Si number density = 22.537688 Si / 1000 Ang^3
#
#
#
# Elastic Constant Matrix: (Units=GPa)
#
#
# Indices 1 2 3 4 5 6 
#
# 1 213.8294 65.9448 4.2964 0.0000 0.0000 0.0000
# 2 65.9448 88.2379 9.0481 0.0000 0.0000 0.0000
# 3 4.2964 9.0481 34.4395 0.0000 0.0000 0.0000
# 4 0.0000 0.0000 0.0000 -11.4205 0.0000 0.0000
# 5 0.0000 0.0000 0.0000 0.0000 169.9173 0.0000
# 6 0.0000 0.0000 0.0000 0.0000 0.0000 45.6221
#
#
#
# Elastic Compliance Matrix: (Units=1/GPa)
#
#
# Indices 1 2 3 4 5 6 
#
# 1 0.006084 -0.004593 0.000448 0.000000 0.000000 0.000000
# 2 -0.004593 0.015114 -0.003398 0.000000 0.000000 0.000000
# 3 0.000448 -0.003398 0.029873 0.000000 0.000000 0.000000
# 4 0.000000 0.000000 0.000000 -0.087562 0.000000 0.000000
# 5 0.000000 0.000000 0.000000 0.000000 0.005885 0.000000
# 6 0.000000 0.000000 0.000000 0.000000 0.000000 0.021919
#
#
# Mechanical properties :
#
#
# Convention : Reuss Voigt Hill
#
# Bulk Modulus (GPa) = 27.78918 55.00950 41.39934
# Shear Modulus (GPa) = 271.81148 57.97160 164.89154
#
# Velocity S-wave (km/s) = 10.99386 5.07720 8.56279
# Velocity P-wave (km/s) = 13.17232 7.67016 10.77825
#
# Compressibility (1/GPa) = 0.03598522
#
# Stress axis : x y z
#
# Youngs Moduli (GPa) = 164.36398 66.16433 33.47473
#
# Poissons Ratio (x) = 0.30388 -0.01498
# Poissons Ratio (y) = 0.75490 0.11374
# Poissons Ratio (z) = -0.07358 0.22481
#
# Static dielectric constant tensor:
#      x y z
#    x 1.861190 0.000000 0.000000 
#    y 0.000000 1.926590 0.000000 
#    z 0.000000 0.000000 1.809790 
# 
# From -- ./inp_files/16503.got.cif
#   From: 2010.05.17/outbox.cif.g08.bks.cpg/sg43_9_cif.got.tgz:16503.got - 2010.06.03 19:21:55.
