data_PCOD9371648
_publ_section_title
;
Structure prediction by ZEFSAII (Michael W. Deem and Ramdas Pophale) SiO2 
 PCOD9371648
Probable space group: F D D 2
;
_chemical_formula_sum "Si O2"
_cell_formula_units_Z 96
_cell_length_a 16.628855
_cell_length_b 27.143203
_cell_length_c 9.783732
_cell_angle_alpha 90.000000
_cell_angle_beta 90.000000
_cell_angle_gamma 90.000000
_cell_volume 4415.989061
_symmetry_space_group_name_H-M "F D D 2"
_symmetry_group_IT_number 43
_symmetry_cell_setting 'orthorhombic'
loop_
_space_group_symop_operation_xyz
x,y,z
-x,-y,z
1/4-x,1/4+y,1/4+z
1/4+x,1/4-y,1/4+z
x,1/2+y,1/2+z
-x,1/2-y,1/2+z
1/4-x,3/4+y,3/4+z
1/4+x,3/4-y,3/4+z
1/2+x,y,1/2+z
1/2-x,-y,1/2+z
3/4-x,1/4+y,3/4+z
3/4+x,1/4-y,3/4+z
1/2+x,1/2+y,z
1/2-x,1/2-y,z
3/4-x,3/4+y,1/4+z
3/4+x,3/4-y,1/4+z
loop_
_atom_site_type_symbol
_atom_site_label
_atom_site_fract_x
_atom_site_fract_y
_atom_site_fract_z
Si Si1 0.500000 0.500000 0.561260
Si Si2 0.631487 0.246000 0.543701
Si Si3 0.476038 0.831021 0.431501
Si Si4 0.640007 0.610918 0.738687
Si Si5 0.750000 0.750000 0.286319
Si Si6 0.811662 0.149768 0.215541
Si Si7 0.586445 0.592740 0.156199
O O1 0.563056 0.477363 0.668540
O O2 0.457121 0.458069 0.475498
O O3 0.431636 0.166373 0.385933
O O4 0.629740 0.305356 0.537258
O O5 0.678162 0.232170 0.682953
O O6 0.420826 0.850368 0.306771
O O7 0.451128 0.868975 0.550465
O O8 0.452527 0.778811 0.501919
O O9 0.731428 0.623570 0.768876
O O10 0.629943 0.612067 0.574828
O O11 0.712770 0.792889 0.377789
O O12 0.829434 0.137829 0.060303
#
# Coordination Sequence:
#
# PCOD9371648 Si02
#       7
#     8  16  16  16   8  16  16
#     4   9  19  40  70  86 128 174 222 276 334 412
#     4  10  22  43  72 102 127 183 240 285 342 431
#     4  12  24  47  71 103 139 185 241 285 357 428
#     4  11  23  44  71  97 133 185 233 288 344 431
#     4  11  23  46  70  98 142 186 236 294 362 420
#     4  11  23  44  63  98 134 174 224 283 352 410
#     4  12  26  44  68 104 142 183 225 302 358 418
#
# _framework density 21.739183000000001
#
# number of rings (size 3 to 8) (size 9 to 14) (size 15 to 20)
#    0.000    1.000    3.333    3.500    2.333    0.000 
#   18.000    0.000    0.000    0.000    0.000    0.000 
#    0.000    0.000    0.000    0.000    0.000    0.000 
#
# Total GULP energy -134084.152003 kJ/mol
# GULP energy per Si atom -5586.839667 kJ/mol
# Density = 2.168970 g / cm^3
# Si number density = 21.739183 Si / 1000 Ang^3
#
#
#
# Elastic Constant Matrix: (Units=GPa)
#
#
# Indices 1 2 3 4 5 6 
#
# 1 79.5303 21.4575 -4.2311 0.0000 0.0000 0.0000
# 2 21.4575 37.3050 16.3811 0.0000 0.0000 0.0000
# 3 -4.2311 16.3811 90.8832 0.0000 0.0000 0.0000
# 4 0.0000 0.0000 0.0000 11.0648 0.0000 0.0000
# 5 0.0000 0.0000 0.0000 0.0000 26.6916 0.0000
# 6 0.0000 0.0000 0.0000 0.0000 0.0000 26.8525
#
#
#
# Elastic Compliance Matrix: (Units=1/GPa)
#
#
# Indices 1 2 3 4 5 6 
#
# 1 0.015394 -0.009957 0.002511 0.000000 0.000000 0.000000
# 2 -0.009957 0.035551 -0.006871 0.000000 0.000000 0.000000
# 3 0.002511 -0.006871 0.012359 0.000000 0.000000 0.000000
# 4 0.000000 0.000000 0.000000 0.090377 0.000000 0.000000
# 5 0.000000 0.000000 0.000000 0.000000 0.037465 0.000000
# 6 0.000000 0.000000 0.000000 0.000000 0.000000 0.037240
#
#
# Mechanical properties :
#
#
# Convention : Reuss Voigt Hill
#
# Bulk Modulus (GPa) = 28.84440 30.54818 29.69629
# Shear Modulus (GPa) = 18.61670 24.52917 21.57293
#
# Velocity S-wave (km/s) = 2.92955 3.36272 3.15358
# Velocity P-wave (km/s) = 4.97395 5.39998 5.19134
#
# Compressibility (1/GPa) = 0.03466877
#
# Stress axis : x y z
#
# Youngs Moduli (GPa) = 64.96059 28.12885 80.91547
#
# Poissons Ratio (x) = 0.28009 -0.20321
# Poissons Ratio (y) = 0.64683 0.55600
# Poissons Ratio (z) = -0.16314 0.19328
#
# Static dielectric constant tensor:
#      x y z
#    x 1.794450 0.000000 0.000000 
#    y 0.000000 1.818750 0.000000 
#    z 0.000000 0.000000 1.777680 
# 
# From -- ./inp_files/3334.got.cif
#   From: 2010.05.17/outbox.cif.g08.bks.cpg/sg43_2_cif.got.tgz:3334.got - 2010.06.03 19:21:55.
