data_PCOD9371186
_publ_section_title
;
Structure prediction by ZEFSAII (Michael W. Deem and Ramdas Pophale) SiO2 
 PCOD9371186
Probable space group: F D D 2
;
_chemical_formula_sum "Si O2"
_cell_formula_units_Z 80
_cell_length_a 27.726187
_cell_length_b 9.348052
_cell_length_c 12.589373
_cell_angle_alpha 90.000000
_cell_angle_beta 90.000000
_cell_angle_gamma 90.000000
_cell_volume 3262.987189
_symmetry_space_group_name_H-M "F D D 2"
_symmetry_group_IT_number 43
_symmetry_cell_setting 'orthorhombic'
loop_
_space_group_symop_operation_xyz
x,y,z
-x,-y,z
1/4-x,1/4+y,1/4+z
1/4+x,1/4-y,1/4+z
x,1/2+y,1/2+z
-x,1/2-y,1/2+z
1/4-x,3/4+y,3/4+z
1/4+x,3/4-y,3/4+z
1/2+x,y,1/2+z
1/2-x,-y,1/2+z
3/4-x,1/4+y,3/4+z
3/4+x,1/4-y,3/4+z
1/2+x,1/2+y,z
1/2-x,1/2-y,z
3/4-x,3/4+y,1/4+z
3/4+x,3/4-y,1/4+z
loop_
_atom_site_type_symbol
_atom_site_label
_atom_site_fract_x
_atom_site_fract_y
_atom_site_fract_z
Si Si1 0.504813 0.731665 0.844940
Si Si2 0.411970 0.401278 0.330359
Si Si3 0.920396 0.620640 0.999079
Si Si4 0.750000 0.750000 0.911950
Si Si5 0.500000 0.000000 0.506855
Si Si6 0.151002 0.349903 0.354086
O O1 0.468348 0.862927 0.833472
O O2 0.511974 0.635948 0.739154
O O3 0.551599 0.790510 0.905907
O O4 0.480071 0.623416 0.929709
O O5 0.396559 0.495336 0.430202
O O6 0.399065 0.472688 0.220023
O O7 0.388293 0.248867 0.300236
O O8 0.957089 0.548872 0.083438
O O9 0.891151 0.738332 0.066070
O O10 0.543969 0.066923 0.570529
#
# Coordination Sequence:
#
# PCOD9371186 Si02
#       6
#    16  16  16   8   8  16
#     4  10  21  40  71 103 134 177 236 283 346 424
#     4  12  24  43  67 102 139 180 232 289 355 421
#     4  11  24  44  71 103 139 187 238 286 355 428
#     4  11  20  41  74 102 136 187 230 285 346 422
#     4   9  22  43  68  94 132 181 224 289 346 416
#     4  11  26  44  67 100 142 181 235 295 353 424
#
# _framework density 24.517410999999999
#
# number of rings (size 3 to 8) (size 9 to 14) (size 15 to 20)
#    0.000    1.200    4.000    1.200    2.800    1.600 
#    3.600    0.000    0.000    0.000    0.000    0.000 
#    0.000    0.000    0.000    0.000    0.000    0.000 
#
# Total GULP energy -111550.218540 kJ/mol
# GULP energy per Si atom -5577.510927 kJ/mol
# Density = 2.446161 g / cm^3
# Si number density = 24.517411 Si / 1000 Ang^3
#
#
#
# Elastic Constant Matrix: (Units=GPa)
#
#
# Indices 1 2 3 4 5 6 
#
# 1 8.1860 17.6985 -8.2001 0.0000 0.0000 0.0000
# 2 17.6985 135.7182 46.3554 0.0000 0.0000 0.0000
# 3 -8.2001 46.3554 126.5851 0.0000 0.0000 0.0000
# 4 0.0000 0.0000 0.0000 10.0128 0.0000 0.0000
# 5 0.0000 0.0000 0.0000 0.0000 -0.1906 0.0000
# 6 0.0000 0.0000 0.0000 0.0000 0.000013472.1817
#
#
#
# Elastic Compliance Matrix: (Units=1/GPa)
#
#
# Indices 1 2 3 4 5 6 
#
# 1 0.247173 -0.043092 0.031792 0.000000 0.000000 0.000000
# 2 -0.043092 0.015934 -0.008626 0.000000 0.000000 0.000000
# 3 0.031792 -0.008626 0.013118 0.000000 0.000000 0.000000
# 4 0.000000 0.000000 0.000000 0.099872 0.000000 0.000000
# 5 0.000000 0.000000 0.000000 0.000000 -5.245816 0.000000
# 6 0.000000 0.000000 0.000000 0.000000 0.000000 0.000074
#
#
# Mechanical properties :
#
#
# Convention : Reuss Voigt Hill
#
# Bulk Modulus (GPa) = 4.23061 42.46633 23.34847
# Shear Modulus (GPa) = -1.05241 2710.70982 1354.82871
#
# Velocity S-wave (km/s) = -0.65588 33.28703 23.53292
# Velocity P-wave (km/s) = 1.07504 38.66170 27.34852
#
# Compressibility (1/GPa) = 0.23637280
#
# Stress axis : x y z
#
# Youngs Moduli (GPa) = 4.04575 62.75857 76.22947
#
# Poissons Ratio (x) = 2.70437 -2.42347
# Poissons Ratio (y) = 0.17434 0.65759
# Poissons Ratio (z) = -0.12862 0.54139
#
# Static dielectric constant tensor:
#      x y z
#    x 2.036990 0.000000 0.000000 
#    y 0.000000 2.167550 0.000000 
#    z 0.000000 0.000000 2.005100 
# 
# From -- ./inp_files/8207.got.cif
#   From: 2010.05.17/outbox.cif.g08.bks.cpg/sg43_5_cif.got.tgz:8207.got - 2010.06.03 19:21:55.
