data_PCOD9371732
_publ_section_title
;
Structure prediction by ZEFSAII (Michael W. Deem and Ramdas Pophale) SiO2 
 PCOD9371732
Probable space group: F D D 2
;
_chemical_formula_sum "Si O2"
_cell_formula_units_Z 72
_cell_length_a 17.716041
_cell_length_b 19.923896
_cell_length_c 7.380031
_cell_angle_alpha 90.000000
_cell_angle_beta 90.000000
_cell_angle_gamma 90.000000
_cell_volume 2604.948423
_symmetry_space_group_name_H-M "F D D 2"
_symmetry_group_IT_number 43
_symmetry_cell_setting 'orthorhombic'
loop_
_space_group_symop_operation_xyz
x,y,z
-x,-y,z
1/4-x,1/4+y,1/4+z
1/4+x,1/4-y,1/4+z
x,1/2+y,1/2+z
-x,1/2-y,1/2+z
1/4-x,3/4+y,3/4+z
1/4+x,3/4-y,3/4+z
1/2+x,y,1/2+z
1/2-x,-y,1/2+z
3/4-x,1/4+y,3/4+z
3/4+x,1/4-y,3/4+z
1/2+x,1/2+y,z
1/2-x,1/2-y,z
3/4-x,3/4+y,1/4+z
3/4+x,3/4-y,1/4+z
loop_
_atom_site_type_symbol
_atom_site_label
_atom_site_fract_x
_atom_site_fract_y
_atom_site_fract_z
Si Si1 0.122812 0.471994 0.208160
Si Si2 0.750000 0.250000 0.861547
Si Si3 0.658653 0.488596 0.297982
Si Si4 0.704710 0.606161 0.746460
Si Si5 0.997038 0.139520 0.085465
O O1 0.141009 0.548003 0.287974
O O2 0.057695 0.422369 0.120709
O O3 0.170373 0.422925 0.339999
O O4 0.160750 0.487481 0.014031
O O5 0.754237 0.317001 0.745673
O O6 0.674756 0.252394 0.978400
O O7 0.711422 0.425053 0.259876
O O8 0.702264 0.554121 0.229420
O O9 0.707221 0.622780 0.530515
#
# Coordination Sequence:
#
# PCOD9371732 Si02
#       5
#    16   8  16  16  16
#     4  10  22  45  71 105 139 198 240 314 376 446
#     4  12  24  40  74 100 146 202 240 300 386 452
#     4  10  24  45  69 101 146 192 248 310 372 446
#     4  10  22  46  72 106 149 190 250 313 378 452
#     4  10  24  42  71 106 141 190 245 306 371 453
#
# _framework density 27.639703999999998
#
# number of rings (size 3 to 8) (size 9 to 14) (size 15 to 20)
#    0.000    1.778    2.222    0.000    3.111    7.111 
#    4.000    0.000    0.000    1.333    0.000    0.000 
#    0.000    0.000    0.000    0.000    0.000    0.000 
#
# Total GULP energy -100286.058226 kJ/mol
# GULP energy per Si atom -5571.447679 kJ/mol
# Density = 2.757679 g / cm^3
# Si number density = 27.639704 Si / 1000 Ang^3
#
#
#
# Elastic Constant Matrix: (Units=GPa)
#
#
# Indices 1 2 3 4 5 6 
#
# 1 174.3664 25.2970 39.0495 0.0007 -0.0004 -0.0003
# 2 25.2970 71.7244 33.9908 0.0014 -0.0005 -0.0006
# 3 39.0495 33.9908 101.0263 0.0015 -0.0014 -0.0008
# 4 0.0007 0.0014 0.0015 14.9812 -0.0006 -0.0004
# 5 -0.0004 -0.0005 -0.0014 -0.0006 31.9542 0.0003
# 6 -0.0003 -0.0006 -0.0008 -0.0004 0.0003 43.8929
#
#
#
# Elastic Compliance Matrix: (Units=1/GPa)
#
#
# Indices 1 2 3 4 5 6 
#
# 1 0.006377 -0.001286 -0.002032 0.000000 0.000000 0.000000
# 2 -0.001286 0.016846 -0.005171 -0.000001 0.000000 0.000000
# 3 -0.002032 -0.005171 0.012424 -0.000001 0.000000 0.000000
# 4 0.000000 -0.000001 -0.000001 0.066750 0.000001 0.000001
# 5 0.000000 0.000000 0.000000 0.000001 0.031295 0.000000
# 6 0.000000 0.000000 0.000000 0.000001 0.000000 0.022783
#
#
# Mechanical properties :
#
#
# Convention : Reuss Voigt Hill
#
# Bulk Modulus (GPa) = 53.56585 60.42130 56.99358
# Shear Modulus (GPa) = 27.82792 34.75099 31.28945
#
# Velocity S-wave (km/s) = 3.17647 3.54967 3.36824
# Velocity P-wave (km/s) = 5.73371 6.22157 5.98261
#
# Compressibility (1/GPa) = 0.01866861
#
# Stress axis : x y z
#
# Youngs Moduli (GPa) = 156.82054 59.35987 80.49145
#
# Poissons Ratio (x) = 0.07634 0.16357
# Poissons Ratio (y) = 0.20168 0.41622
# Poissons Ratio (z) = 0.31867 0.30695
#
# Static dielectric constant tensor:
#      x y z
#    x 2.270910 0.000000 0.000000 
#    y 0.000000 2.365440 0.000000 
#    z 0.000000 0.000000 2.114790 
# 
# From -- ./inp_files/2665.got.cif
#   From: 2010.05.17/outbox.cif.g08.bks.cpg/sg43_2_cif.got.tgz:2665.got - 2010.06.03 19:21:55.
