data_PCOD9371220
_publ_section_title
;
Structure prediction by ZEFSAII (Michael W. Deem and Ramdas Pophale) SiO2 
 PCOD9371220
Probable space group: F D D 2
;
_chemical_formula_sum "Si O2"
_cell_formula_units_Z 104
_cell_length_a 9.694470
_cell_length_b 16.798684
_cell_length_c 26.788116
_cell_angle_alpha 90.000000
_cell_angle_beta 90.000000
_cell_angle_gamma 90.000000
_cell_volume 4362.560900
_symmetry_space_group_name_H-M "F D D 2"
_symmetry_group_IT_number 43
_symmetry_cell_setting 'orthorhombic'
loop_
_space_group_symop_operation_xyz
x,y,z
-x,-y,z
1/4-x,1/4+y,1/4+z
1/4+x,1/4-y,1/4+z
x,1/2+y,1/2+z
-x,1/2-y,1/2+z
1/4-x,3/4+y,3/4+z
1/4+x,3/4-y,3/4+z
1/2+x,y,1/2+z
1/2-x,-y,1/2+z
3/4-x,1/4+y,3/4+z
3/4+x,1/4-y,3/4+z
1/2+x,1/2+y,z
1/2-x,1/2-y,z
3/4-x,3/4+y,1/4+z
3/4+x,3/4-y,1/4+z
loop_
_atom_site_type_symbol
_atom_site_label
_atom_site_fract_x
_atom_site_fract_y
_atom_site_fract_z
Si Si1 0.000000 0.500000 0.194710
Si Si2 0.643160 0.125775 0.268131
Si Si3 0.207870 0.841289 0.625578
Si Si4 0.016896 0.821021 0.381493
Si Si5 0.194279 0.457661 0.931753
Si Si6 0.514216 0.612714 0.171138
Si Si7 0.037706 0.410379 0.781748
O O1 0.048600 0.566711 0.234819
O O2 0.128810 0.506035 0.155489
O O3 0.604603 0.127089 0.325510
O O4 0.607153 0.206347 0.238775
O O5 0.800988 0.097159 0.266723
O O6 0.250000 0.750000 0.613201
O O7 0.344999 0.886709 0.641055
O O8 0.093307 0.831200 0.668813
O O9 0.086039 0.902976 0.402536
O O10 0.009753 0.842288 0.322936
O O11 0.863560 0.810244 0.402737
O O12 0.207489 0.547326 0.914443
O O13 0.542759 0.600511 0.229705
O O14 0.000000 0.500000 0.799908
#
# Coordination Sequence:
#
# PCOD9371220 Si02
#       7
#     8  16  16  16  16  16  16
#     4  10  22  40  66 102 136 176 240 284 350 416
#     4  11  22  41  69 102 136 188 233 294 351 426
#     4  10  22  40  67 100 138 187 232 283 356 419
#     4  11  23  41  70  98 140 178 240 291 347 425
#     4  10  21  41  68  97 138 183 236 281 348 429
#     4  11  24  44  65 105 142 181 233 301 346 415
#     4  12  26  42  68 105 137 186 239 290 360 421
#
# _framework density 23.839207999999999
#
# number of rings (size 3 to 8) (size 9 to 14) (size 15 to 20)
#    0.000    1.231    5.385    1.385    2.154    4.923 
#    0.000    0.000    0.000    0.000    0.000    0.000 
#    0.000    0.000    0.000    0.000    0.000    0.000 
#
# Total GULP energy -145288.482499 kJ/mol
# GULP energy per Si atom -5588.018558 kJ/mol
# Density = 2.378495 g / cm^3
# Si number density = 23.839208 Si / 1000 Ang^3
#
#
#
# Elastic Constant Matrix: (Units=GPa)
#
#
# Indices 1 2 3 4 5 6 
#
# 1 133.1711 24.7407 21.3237 0.0000 0.0000 0.0000
# 2 24.7407 67.8588 1.3060 0.0000 0.0000 0.0000
# 3 21.3237 1.3060 109.6841 0.0000 0.0000 0.0000
# 4 0.0000 0.0000 0.0000 29.7442 0.0000 0.0000
# 5 0.0000 0.0000 0.0000 0.0000 34.2348 0.0000
# 6 0.0000 0.0000 0.0000 0.0000 0.0000 44.9924
#
#
#
# Elastic Compliance Matrix: (Units=1/GPa)
#
#
# Indices 1 2 3 4 5 6 
#
# 1 0.008320 -0.003003 -0.001582 0.000000 0.000000 0.000000
# 2 -0.003003 0.015824 0.000395 0.000000 0.000000 0.000000
# 3 -0.001582 0.000395 0.009420 0.000000 0.000000 0.000000
# 4 0.000000 0.000000 0.000000 0.033620 0.000000 0.000000
# 5 0.000000 0.000000 0.000000 0.000000 0.029210 0.000000
# 6 0.000000 0.000000 0.000000 0.000000 0.000000 0.022226
#
#
# Mechanical properties :
#
#
# Convention : Reuss Voigt Hill
#
# Bulk Modulus (GPa) = 39.70608 45.05056 42.37832
# Shear Modulus (GPa) = 36.92926 39.35051 38.13988
#
# Velocity S-wave (km/s) = 3.94013 4.06724 4.00419
# Velocity P-wave (km/s) = 6.11485 6.40276 6.26046
#
# Compressibility (1/GPa) = 0.02518506
#
# Stress axis : x y z
#
# Youngs Moduli (GPa) = 120.18750 63.19611 106.15825
#
# Poissons Ratio (x) = 0.18978 0.16792
# Poissons Ratio (y) = 0.36093 -0.04198
# Poissons Ratio (z) = 0.19011 -0.02499
#
# Static dielectric constant tensor:
#      x y z
#    x 1.853140 0.000000 0.000000 
#    y 0.000000 2.070430 0.000000 
#    z 0.000000 0.000000 1.911560 
# 
# From -- ./inp_files/24325.got.cif
#   From: 2010.05.17/outbox.cif.g08.bks.cpg/sg43_13_cif.got.tgz:24325.got - 2010.06.03 19:21:55.
