data_PCOD9371093
_publ_section_title
;
Structure prediction by ZEFSAII (Michael W. Deem and Ramdas Pophale) SiO2 
 PCOD9371093
Probable space group: F D D 2
;
_chemical_formula_sum "Si O2"
_cell_formula_units_Z 88
_cell_length_a 21.853635
_cell_length_b 29.392824
_cell_length_c 5.285111
_cell_angle_alpha 90.000000
_cell_angle_beta 90.000000
_cell_angle_gamma 90.000000
_cell_volume 3394.838450
_symmetry_space_group_name_H-M "F D D 2"
_symmetry_group_IT_number 43
_symmetry_cell_setting 'orthorhombic'
loop_
_space_group_symop_operation_xyz
x,y,z
-x,-y,z
1/4-x,1/4+y,1/4+z
1/4+x,1/4-y,1/4+z
x,1/2+y,1/2+z
-x,1/2-y,1/2+z
1/4-x,3/4+y,3/4+z
1/4+x,3/4-y,3/4+z
1/2+x,y,1/2+z
1/2-x,-y,1/2+z
3/4-x,1/4+y,3/4+z
3/4+x,1/4-y,3/4+z
1/2+x,1/2+y,z
1/2-x,1/2-y,z
3/4-x,3/4+y,1/4+z
3/4+x,3/4-y,1/4+z
loop_
_atom_site_type_symbol
_atom_site_label
_atom_site_fract_x
_atom_site_fract_y
_atom_site_fract_z
Si Si1 0.422963 0.685151 0.582070
Si Si2 0.500000 0.000000 0.989633
Si Si3 0.638644 0.228172 0.626597
Si Si4 0.788479 0.854685 0.158486
Si Si5 0.281009 0.077827 0.508584
Si Si6 0.064258 0.082427 0.504186
O O1 0.387761 0.724625 0.738469
O O2 0.423279 0.635246 0.706467
O O3 0.491395 0.695891 0.481550
O O4 0.379932 0.683939 0.337392
O O5 0.560216 0.987302 0.159545
O O6 0.473566 0.955735 0.849585
O O7 0.674945 0.188132 0.770561
O O8 0.573600 0.202855 0.581532
O O9 0.766603 0.892600 0.350565
O O10 0.728516 0.838087 0.004008
O O11 0.319380 0.118453 0.634249
#
# Coordination Sequence:
#
# PCOD9371093 Si02
#       6
#    16   8  16  16  16  16
#     4  10  22  39  59  89 126 167 208 261 326 386
#     4   8  18  40  64  86 124 166 210 258 322 376
#     4  10  21  39  63  89 123 164 211 257 317 392
#     4  10  21  39  62  89 126 167 210 267 322 375
#     4  11  22  36  62  92 125 159 215 262 319 381
#     4   9  19  39  61  87 122 167 210 261 317 382
#
# _framework density 25.921703000000001
#
# number of rings (size 3 to 8) (size 9 to 14) (size 15 to 20)
#    0.000    2.182    0.000    2.182    2.545    0.000 
#    0.000   14.545    0.000    0.000    0.000    0.000 
#    0.000    0.000    0.000    0.000    0.000    0.000 
#
# Total GULP energy -122590.229851 kJ/mol
# GULP energy per Si atom -5572.283175 kJ/mol
# Density = 2.586270 g / cm^3
# Si number density = 25.921703 Si / 1000 Ang^3
#
#
#
# Elastic Constant Matrix: (Units=GPa)
#
#
# Indices 1 2 3 4 5 6 
#
# 1 108.0892 56.8105 18.5401 0.1313 -0.1823 -0.1135
# 2 56.8105 99.1609 4.4975 0.0291 0.0223 0.0085
# 3 18.5401 4.4975 31.8534 0.1369 -0.1729 -0.0873
# 4 0.1313 0.0291 0.1369 -1.9675 -0.0877 -0.0814
# 5 -0.1823 0.0223 -0.1729 -0.0877 39.9749 0.0729
# 6 -0.1135 0.0085 -0.0873 -0.0814 0.0729 48.6635
#
#
#
# Elastic Compliance Matrix: (Units=1/GPa)
#
#
# Indices 1 2 3 4 5 6 
#
# 1 0.014817 -0.008150 -0.007475 0.000345 0.000041 0.000023
# 2 -0.008150 0.014632 0.002678 -0.000139 -0.000034 -0.000017
# 3 -0.007475 0.002678 0.035358 0.001994 0.000122 0.000049
# 4 0.000345 -0.000139 0.001994 -0.508009 -0.001102 -0.000844
# 5 0.000041 -0.000034 0.000122 -0.001102 0.025014 -0.000039
# 6 0.000023 -0.000017 0.000049 -0.000844 -0.000039 0.020548
#
#
# Mechanical properties :
#
#
# Convention : Reuss Voigt Hill
#
# Bulk Modulus (GPa) = 25.69720 44.31107 35.00414
# Shear Modulus (GPa) = -13.93632 27.95120 7.00744
#
# Velocity S-wave (km/s) = -2.32120 3.28730 1.64596
# Velocity P-wave (km/s) = 1.65859 5.61603 4.14069
#
# Compressibility (1/GPa) = 0.03891474
#
# Stress axis : x y z
#
# Youngs Moduli (GPa) = 67.49082 68.34170 28.28178
#
# Poissons Ratio (x) = 0.55697 0.21139
# Poissons Ratio (y) = 0.55004 -0.07574
# Poissons Ratio (z) = 0.50446 -0.18302
#
# Static dielectric constant tensor:
#      x y z
#    x 1.996620 0.000210 0.000350 
#    y 0.000210 2.197860 0.000140 
#    z 0.000350 0.000140 2.295440 
# 
# From -- ./inp_files/1001.got.cif
#   From: 2010.05.17/outbox.cif.g08.bks.cpg/sg43_1_cif.got.tgz:1001.got - 2010.06.03 19:21:55.
