data_PCOD9371510
_publ_section_title
;
Structure prediction by ZEFSAII (Michael W. Deem and Ramdas Pophale) SiO2 
 PCOD9371510
Probable space group: F D D 2
;
_chemical_formula_sum "Si O2"
_cell_formula_units_Z 88
_cell_length_a 21.781596
_cell_length_b 9.693713
_cell_length_c 16.542832
_cell_angle_alpha 90.000000
_cell_angle_beta 90.000000
_cell_angle_gamma 90.000000
_cell_volume 3492.928658
_symmetry_space_group_name_H-M "F D D 2"
_symmetry_group_IT_number 43
_symmetry_cell_setting 'orthorhombic'
loop_
_space_group_symop_operation_xyz
x,y,z
-x,-y,z
1/4-x,1/4+y,1/4+z
1/4+x,1/4-y,1/4+z
x,1/2+y,1/2+z
-x,1/2-y,1/2+z
1/4-x,3/4+y,3/4+z
1/4+x,3/4-y,3/4+z
1/2+x,y,1/2+z
1/2-x,-y,1/2+z
3/4-x,1/4+y,3/4+z
3/4+x,1/4-y,3/4+z
1/2+x,1/2+y,z
1/2-x,1/2-y,z
3/4-x,3/4+y,1/4+z
3/4+x,3/4-y,1/4+z
loop_
_atom_site_type_symbol
_atom_site_label
_atom_site_fract_x
_atom_site_fract_y
_atom_site_fract_z
Si Si1 0.609058 0.347399 0.778680
Si Si2 0.756035 0.956391 0.906869
Si Si3 0.940924 0.434373 0.762978
Si Si4 0.362320 0.973926 0.992505
Si Si5 0.684659 0.826351 0.130944
Si Si6 0.500000 0.000000 0.013488
O O1 0.551210 0.379776 0.717730
O O2 0.593349 0.192371 0.805776
O O3 0.668581 0.354682 0.723221
O O4 0.610487 0.456620 0.849085
O O5 0.757394 0.884495 0.821151
O O6 0.779015 0.109079 0.933708
O O7 0.684351 0.958870 0.929250
O O8 0.897285 0.560578 0.745632
O O9 0.000000 0.500000 0.806677
O O10 0.334390 0.044023 0.075208
O O11 0.433225 0.997999 0.973636
O O12 0.750000 0.750000 0.123356
#
# Coordination Sequence:
#
# PCOD9371510 Si02
#       6
#    16  16  16  16  16   8
#     4  10  22  41  66  99 135 186 230 293 368 440
#     4   9  19  40  64  92 132 175 231 285 369 418
#     4   8  17  40  61  90 125 175 221 285 358 413
#     4  11  21  38  70  95 134 182 239 289 358 434
#     4  12  22  43  71 100 139 188 246 296 369 453
#     4  12  22  40  70 102 126 194 240 286 350 464
#
# _framework density 25.193757999999999
#
# number of rings (size 3 to 8) (size 9 to 14) (size 15 to 20)
#    1.091    0.727    3.636    1.091    0.000    0.000 
#    9.818    0.909    6.000    0.000    0.000    0.000 
#    0.000    0.000    0.000    0.000    0.000    0.000 
#
# Total GULP energy -122837.150188 kJ/mol
# GULP energy per Si atom -5583.506827 kJ/mol
# Density = 2.513642 g / cm^3
# Si number density = 25.193758 Si / 1000 Ang^3
#
#
#
# Elastic Constant Matrix: (Units=GPa)
#
#
# Indices 1 2 3 4 5 6 
#
# 1 163.1626 27.1342 33.8800 0.0000 0.0000 0.0000
# 2 27.1342 157.3096 29.3222 0.0000 0.0000 0.0000
# 3 33.8800 29.3222 49.4303 0.0000 0.0000 0.0000
# 4 0.0000 0.0000 0.0000 7.3745 0.0000 0.0000
# 5 0.0000 0.0000 0.0000 0.0000 31.9868 0.0000
# 6 0.0000 0.0000 0.0000 0.0000 0.0000 25.6117
#
#
#
# Elastic Compliance Matrix: (Units=1/GPa)
#
#
# Indices 1 2 3 4 5 6 
#
# 1 0.007164 -0.000360 -0.004697 0.000000 0.000000 0.000000
# 2 -0.000360 0.007165 -0.004004 0.000000 0.000000 0.000000
# 3 -0.004697 -0.004004 0.025824 0.000000 0.000000 0.000000
# 4 0.000000 0.000000 0.000000 0.135603 0.000000 0.000000
# 5 0.000000 0.000000 0.000000 0.000000 0.031263 0.000000
# 6 0.000000 0.000000 0.000000 0.000000 0.000000 0.039045
#
#
# Mechanical properties :
#
#
# Convention : Reuss Voigt Hill
#
# Bulk Modulus (GPa) = 45.38644 61.17506 53.28075
# Shear Modulus (GPa) = 18.41424 31.63234 25.02329
#
# Velocity S-wave (km/s) = 2.70646 3.54724 3.15498
# Velocity P-wave (km/s) = 5.27453 6.41184 5.87079
#
# Compressibility (1/GPa) = 0.02203301
#
# Stress axis : x y z
#
# Youngs Moduli (GPa) = 139.58708 139.56175 38.72300
#
# Poissons Ratio (x) = 0.05028 0.18186
# Poissons Ratio (y) = 0.05029 0.15503
# Poissons Ratio (z) = 0.65558 0.55874
#
# Static dielectric constant tensor:
#      x y z
#    x 2.130310 0.000000 0.000000 
#    y 0.000000 1.986630 0.000000 
#    z 0.000000 0.000000 2.004170 
# 
# From -- ./inp_files/18546.got.cif
#   From: 2010.05.17/outbox.cif.g08.bks.cpg/sg43_10_cif.got.tgz:18546.got - 2010.06.03 19:21:55.
