data_PCOD9371353
_publ_section_title
;
Structure prediction by ZEFSAII (Michael W. Deem and Ramdas Pophale) SiO2 
 PCOD9371353
Probable space group: F D D 2
;
_chemical_formula_sum "Si O2"
_cell_formula_units_Z 56
_cell_length_a 5.404368
_cell_length_b 16.856151
_cell_length_c 24.218129
_cell_angle_alpha 90.000000
_cell_angle_beta 90.000000
_cell_angle_gamma 90.000000
_cell_volume 2206.195097
_symmetry_space_group_name_H-M "F D D 2"
_symmetry_group_IT_number 43
_symmetry_cell_setting 'orthorhombic'
loop_
_space_group_symop_operation_xyz
x,y,z
-x,-y,z
1/4-x,1/4+y,1/4+z
1/4+x,1/4-y,1/4+z
x,1/2+y,1/2+z
-x,1/2-y,1/2+z
1/4-x,3/4+y,3/4+z
1/4+x,3/4-y,3/4+z
1/2+x,y,1/2+z
1/2-x,-y,1/2+z
3/4-x,1/4+y,3/4+z
3/4+x,1/4-y,3/4+z
1/2+x,1/2+y,z
1/2-x,1/2-y,z
3/4-x,3/4+y,1/4+z
3/4+x,3/4-y,1/4+z
loop_
_atom_site_type_symbol
_atom_site_label
_atom_site_fract_x
_atom_site_fract_y
_atom_site_fract_z
Si Si1 0.277717 0.410245 0.332310
Si Si2 0.528112 0.909881 0.054238
Si Si3 0.500000 0.000000 0.417159
Si Si4 0.434679 0.583098 0.717411
O O1 0.538107 0.368170 0.336850
O O2 0.238400 0.440952 0.269854
O O3 0.037033 0.352592 0.336491
O O4 0.224694 0.477586 0.376422
O O5 0.500000 0.000000 0.038868
O O6 0.564126 0.861940 0.997576
O O7 0.567745 0.082537 0.447568
O O8 0.500000 0.500000 0.686443
#
# Coordination Sequence:
#
# PCOD9371353 Si02
#       4
#    16  16   8  16
#     4  10  23  45  73 112 161 198 262 338 390 469
#     4  10  21  46  79 106 155 209 256 334 400 462
#     4  12  24  48  82 120 160 226 262 340 410 484
#     4  10  24  47  77 116 156 208 270 331 398 489
#
# _framework density 25.383067
#
# number of rings (size 3 to 8) (size 9 to 14) (size 15 to 20)
#    1.714    0.000    1.429    2.571    0.000    5.714 
#   15.429    0.000    0.000    0.000    0.000    0.000 
#    0.000    0.000    0.000    0.000    0.000    0.000 
#
# Total GULP energy -78065.718178 kJ/mol
# GULP energy per Si atom -5576.122727 kJ/mol
# Density = 2.532529 g / cm^3
# Si number density = 25.383067 Si / 1000 Ang^3
#
#
#
# Elastic Constant Matrix: (Units=GPa)
#
#
# Indices 1 2 3 4 5 6 
#
# 1 181.9880 75.5068 11.2002 0.0000 0.0000 0.0000
# 2 75.5068 268.4789 69.4106 0.0000 0.0000 0.0000
# 3 11.2002 69.4106 74.0768 0.0000 0.0000 0.0000
# 4 0.0000 0.0000 0.0000 -14.4559 0.0000 0.0000
# 5 0.0000 0.0000 0.0000 0.0000 -5.5311 0.0000
# 6 0.0000 0.0000 0.0000 0.0000 0.0000 33.3606
#
#
#
# Elastic Compliance Matrix: (Units=1/GPa)
#
#
# Indices 1 2 3 4 5 6 
#
# 1 0.006269 -0.002003 0.000929 0.000000 0.000000 0.000000
# 2 -0.002003 0.005556 -0.004903 0.000000 0.000000 0.000000
# 3 0.000929 -0.004903 0.017953 0.000000 0.000000 0.000000
# 4 0.000000 0.000000 0.000000 -0.069176 0.000000 0.000000
# 5 0.000000 0.000000 0.000000 0.000000 -0.180796 0.000000
# 6 0.000000 0.000000 0.000000 0.000000 0.000000 0.029975
#
#
# Mechanical properties :
#
#
# Convention : Reuss Voigt Hill
#
# Bulk Modulus (GPa) = 56.10470 92.97543 74.54006
# Shear Modulus (GPa) = -29.01498 27.23648 -0.88925
#
# Velocity S-wave (km/s) = -3.38462 3.27925 -0.59253
# Velocity P-wave (km/s) = 2.62240 7.14468 5.38161
#
# Compressibility (1/GPa) = 0.01782382
#
# Stress axis : x y z
#
# Youngs Moduli (GPa) = 159.51906 179.99797 55.70117
#
# Poissons Ratio (x) = 0.36059 -0.05176
# Poissons Ratio (y) = 0.31956 0.27309
# Poissons Ratio (z) = -0.14824 0.88249
#
# Static dielectric constant tensor:
#      x y z
#    x 2.006110 0.000000 0.000000 
#    y 0.000000 2.202230 0.000000 
#    z 0.000000 0.000000 2.142970 
# 
# From -- ./inp_files/23299.got.cif
#   From: 2010.05.17/outbox.cif.g08.bks.cpg/sg43_12_cif.got.tgz:23299.got - 2010.06.03 19:21:55.
