data_PCOD9371703
_publ_section_title
;
Structure prediction by ZEFSAII (Michael W. Deem and Ramdas Pophale) SiO2 
 PCOD9371703
Probable space group: F D D 2
;
_chemical_formula_sum "Si O2"
_cell_formula_units_Z 88
_cell_length_a 20.548258
_cell_length_b 17.893198
_cell_length_c 10.436841
_cell_angle_alpha 90.000000
_cell_angle_beta 90.000000
_cell_angle_gamma 90.000000
_cell_volume 3837.355589
_symmetry_space_group_name_H-M "F D D 2"
_symmetry_group_IT_number 43
_symmetry_cell_setting 'orthorhombic'
loop_
_space_group_symop_operation_xyz
x,y,z
-x,-y,z
1/4-x,1/4+y,1/4+z
1/4+x,1/4-y,1/4+z
x,1/2+y,1/2+z
-x,1/2-y,1/2+z
1/4-x,3/4+y,3/4+z
1/4+x,3/4-y,3/4+z
1/2+x,y,1/2+z
1/2-x,-y,1/2+z
3/4-x,1/4+y,3/4+z
3/4+x,1/4-y,3/4+z
1/2+x,1/2+y,z
1/2-x,1/2-y,z
3/4-x,3/4+y,1/4+z
3/4+x,3/4-y,1/4+z
loop_
_atom_site_type_symbol
_atom_site_label
_atom_site_fract_x
_atom_site_fract_y
_atom_site_fract_z
Si Si1 0.124831 0.363060 0.011130
Si Si2 0.750000 0.250000 0.844439
Si Si3 0.599762 0.279344 0.247109
Si Si4 0.997604 0.137831 0.909711
Si Si5 0.543886 0.237890 0.640654
Si Si6 0.862387 0.159542 0.973597
O O1 0.200139 0.357892 0.058041
O O2 0.080777 0.313944 0.106240
O O3 0.111808 0.330828 0.869916
O O4 0.111739 0.451569 0.013724
O O5 0.767919 0.318620 0.753606
O O6 0.808473 0.218534 0.928812
O O7 0.524284 0.257156 0.216983
O O8 0.620498 0.321940 0.119042
O O9 0.925475 0.167478 0.881931
O O10 0.030293 0.200329 0.000451
O O11 0.585303 0.173890 0.709562
#
# Coordination Sequence:
#
# PCOD9371703 Si02
#       6
#    16   8  16  16  16  16
#     4  12  25  52  72 116 155 204 259 332 401 454
#     4  10  22  44  74 104 144 206 266 306 384 480
#     4  11  28  48  77 113 155 201 264 331 387 474
#     4  10  22  44  73 106 148 201 257 317 384 473
#     4  10  24  50  72 105 158 201 255 320 398 467
#     4  10  24  46  76 111 148 209 263 315 389 474
#
# _framework density 22.932461
#
# number of rings (size 3 to 8) (size 9 to 14) (size 15 to 20)
#    0.000    1.455    1.818    1.091    7.636    5.818 
#    6.545    0.000    0.000    0.000    0.000    0.000 
#    0.000    0.000    0.000    0.000    0.000    0.000 
#
# Total GULP energy -123084.812717 kJ/mol
# GULP energy per Si atom -5594.764214 kJ/mol
# Density = 2.288027 g / cm^3
# Si number density = 22.932461 Si / 1000 Ang^3
#
#
#
# Elastic Constant Matrix: (Units=GPa)
#
#
# Indices 1 2 3 4 5 6 
#
# 1 143.9045 25.9517 62.5958 0.0000 0.0000 0.0000
# 2 25.9517 85.4027 29.4006 0.0000 0.0000 0.0000
# 3 62.5958 29.4006 147.4199 0.0000 0.0000 0.0000
# 4 0.0000 0.0000 0.0000 17.0082 0.0000 0.0000
# 5 0.0000 0.0000 0.0000 0.0000 30.5659 0.0000
# 6 0.0000 0.0000 0.0000 0.0000 0.0000 39.4144
#
#
#
# Elastic Compliance Matrix: (Units=1/GPa)
#
#
# Indices 1 2 3 4 5 6 
#
# 1 0.008692 -0.001472 -0.003397 0.000000 0.000000 0.000000
# 2 -0.001472 0.012822 -0.001932 0.000000 0.000000 0.000000
# 3 -0.003397 -0.001932 0.008611 0.000000 0.000000 0.000000
# 4 0.000000 0.000000 0.000000 0.058795 0.000000 0.000000
# 5 0.000000 0.000000 0.000000 0.000000 0.032716 0.000000
# 6 0.000000 0.000000 0.000000 0.000000 0.000000 0.025371
#
#
# Mechanical properties :
#
#
# Convention : Reuss Voigt Hill
#
# Bulk Modulus (GPa) = 60.52304 68.06925 64.29614
# Shear Modulus (GPa) = 30.09914 34.64964 32.37439
#
# Velocity S-wave (km/s) = 3.62679 3.89130 3.76137
# Velocity P-wave (km/s) = 6.63229 7.06658 6.85288
#
# Compressibility (1/GPa) = 0.01652263
#
# Stress axis : x y z
#
# Youngs Moduli (GPa) = 115.04534 77.99317 116.12800
#
# Poissons Ratio (x) = 0.11479 0.39452
# Poissons Ratio (y) = 0.16932 0.22437
# Poissons Ratio (z) = 0.39084 0.15069
#
# Static dielectric constant tensor:
#      x y z
#    x 1.904610 0.000000 0.000000 
#    y 0.000000 1.865610 0.000000 
#    z 0.000000 0.000000 1.883660 
# 
# From -- ./inp_files/7055.got.cif
#   From: 2010.05.17/outbox.cif.g08.bks.cpg/sg43_4_cif.got.tgz:7055.got - 2010.06.03 19:21:55.
