data_PCOD9371327
_publ_section_title
;
Structure prediction by ZEFSAII (Michael W. Deem and Ramdas Pophale) SiO2 
 PCOD9371327
Probable space group: F D D 2
;
_chemical_formula_sum "Si O2"
_cell_formula_units_Z 96
_cell_length_a 24.819777
_cell_length_b 19.406146
_cell_length_c 8.597456
_cell_angle_alpha 90.000000
_cell_angle_beta 90.000000
_cell_angle_gamma 90.000000
_cell_volume 4141.018125
_symmetry_space_group_name_H-M "F D D 2"
_symmetry_group_IT_number 43
_symmetry_cell_setting 'orthorhombic'
loop_
_space_group_symop_operation_xyz
x,y,z
-x,-y,z
1/4-x,1/4+y,1/4+z
1/4+x,1/4-y,1/4+z
x,1/2+y,1/2+z
-x,1/2-y,1/2+z
1/4-x,3/4+y,3/4+z
1/4+x,3/4-y,3/4+z
1/2+x,y,1/2+z
1/2-x,-y,1/2+z
3/4-x,1/4+y,3/4+z
3/4+x,1/4-y,3/4+z
1/2+x,1/2+y,z
1/2-x,1/2-y,z
3/4-x,3/4+y,1/4+z
3/4+x,3/4-y,1/4+z
loop_
_atom_site_type_symbol
_atom_site_label
_atom_site_fract_x
_atom_site_fract_y
_atom_site_fract_z
Si Si1 0.317187 0.686749 0.705390
Si Si2 0.947880 0.082935 0.029997
Si Si3 0.823359 0.861239 0.922720
Si Si4 0.941880 0.209227 0.239822
Si Si5 0.229004 0.927292 0.253377
Si Si6 0.824240 0.712037 0.849873
O O1 0.332173 0.759356 0.786191
O O2 0.262794 0.668802 0.795184
O O3 0.364214 0.632050 0.684391
O O4 0.303117 0.701204 0.525237
O O5 0.940602 0.104815 0.852834
O O6 0.929654 0.137901 0.152755
O O7 0.784223 0.916816 0.849563
O O8 0.810757 0.792360 0.821359
O O9 0.945791 0.268108 0.107216
O O10 0.889131 0.216356 0.346768
O O11 0.997315 0.203810 0.338884
O O12 0.198310 0.852939 0.252459
#
# Coordination Sequence:
#
# PCOD9371327 Si02
#       6
#    16  16  16  16  16  16
#     4  10  21  44  74 102 140 187 239 292 373 440
#     4  10  24  43  68 105 141 185 242 298 358 444
#     4  11  22  43  77  99 136 195 238 297 371 447
#     4  12  28  45  70 108 148 190 246 308 367 443
#     4  12  26  46  70 104 147 190 247 309 369 442
#     4  11  24  45  72 104 143 188 244 296 374 443
#
# _framework density 23.182703
#
# number of rings (size 3 to 8) (size 9 to 14) (size 15 to 20)
#    0.000    1.000    3.333    2.500    2.333    4.000 
#    6.000    0.000    0.000    0.000    0.000    0.000 
#    0.000    0.000    0.000    0.000    0.000    0.000 
#
# Total GULP energy -133870.191198 kJ/mol
# GULP energy per Si atom -5577.924633 kJ/mol
# Density = 2.312994 g / cm^3
# Si number density = 23.182703 Si / 1000 Ang^3
#
#
#
# Elastic Constant Matrix: (Units=GPa)
#
#
# Indices 1 2 3 4 5 6 
#
# 1 81.7853 34.0554 9.2343 0.0000 0.0000 0.0000
# 2 34.0554 92.7812 25.3495 -0.0001 0.0000 0.0000
# 3 9.2343 25.3495 32.9112 -0.0001 0.0000 0.0000
# 4 0.0000 -0.0001 -0.0001 26.4134 0.0000 0.0000
# 5 0.0000 0.0000 0.0000 0.0000 22.1387 0.0000
# 6 0.0000 0.0000 0.0000 0.0000 0.0000 38.5350
#
#
#
# Elastic Compliance Matrix: (Units=1/GPa)
#
#
# Indices 1 2 3 4 5 6 
#
# 1 0.014433 -0.005308 0.000039 0.000000 0.000000 0.000000
# 2 -0.005308 0.015603 -0.010529 0.000000 0.000000 0.000000
# 3 0.000039 -0.010529 0.038483 0.000000 0.000000 0.000000
# 4 0.000000 0.000000 0.000000 0.037860 0.000000 0.000000
# 5 0.000000 0.000000 0.000000 0.000000 0.045170 0.000000
# 6 0.000000 0.000000 0.000000 0.000000 0.000000 0.025950
#
#
# Mechanical properties :
#
#
# Convention : Reuss Voigt Hill
#
# Bulk Modulus (GPa) = 27.08290 38.30620 32.69455
# Shear Modulus (GPa) = 22.58322 26.67333 24.62827
#
# Velocity S-wave (km/s) = 3.12451 3.39569 3.26292
# Velocity P-wave (km/s) = 4.97237 5.65099 5.32251
#
# Compressibility (1/GPa) = 0.03692367
#
# Stress axis : x y z
#
# Youngs Moduli (GPa) = 69.28505 64.08983 25.98519
#
# Poissons Ratio (x) = 0.34021 -0.00101
# Poissons Ratio (y) = 0.36779 0.27359
# Poissons Ratio (z) = -0.00270 0.67478
#
# Static dielectric constant tensor:
#      x y z
#    x 1.936000 0.000000 0.000000 
#    y 0.000000 1.965320 0.000000 
#    z 0.000000 0.000000 1.819220 
# 
# From -- ./inp_files/4201.got.cif
#   From: 2010.05.17/outbox.cif.g08.bks.cpg/sg43_3_cif.got.tgz:4201.got - 2010.06.03 19:21:55.
