data_PCOD9371399
_publ_section_title
;
Structure prediction by ZEFSAII (Michael W. Deem and Ramdas Pophale) SiO2 
 PCOD9371399
Probable space group: F D D 2
;
_chemical_formula_sum "Si O2"
_cell_formula_units_Z 80
_cell_length_a 11.760969
_cell_length_b 12.608431
_cell_length_c 25.659632
_cell_angle_alpha 90.000000
_cell_angle_beta 90.000000
_cell_angle_gamma 90.000000
_cell_volume 3804.999245
_symmetry_space_group_name_H-M "F D D 2"
_symmetry_group_IT_number 43
_symmetry_cell_setting 'orthorhombic'
loop_
_space_group_symop_operation_xyz
x,y,z
-x,-y,z
1/4-x,1/4+y,1/4+z
1/4+x,1/4-y,1/4+z
x,1/2+y,1/2+z
-x,1/2-y,1/2+z
1/4-x,3/4+y,3/4+z
1/4+x,3/4-y,3/4+z
1/2+x,y,1/2+z
1/2-x,-y,1/2+z
3/4-x,1/4+y,3/4+z
3/4+x,1/4-y,3/4+z
1/2+x,1/2+y,z
1/2-x,1/2-y,z
3/4-x,3/4+y,1/4+z
3/4+x,3/4-y,1/4+z
loop_
_atom_site_type_symbol
_atom_site_label
_atom_site_fract_x
_atom_site_fract_y
_atom_site_fract_z
Si Si1 0.500000 0.500000 0.325830
Si Si2 0.604902 0.589697 0.068556
Si Si3 0.307349 0.980753 0.753686
Si Si4 0.826574 0.157634 0.176713
Si Si5 0.932656 0.269662 0.717818
Si Si6 0.750000 0.250000 0.639721
O O1 0.399152 0.541311 0.289886
O O2 0.448890 0.412542 0.365111
O O3 0.500000 0.500000 0.081874
O O4 0.540569 0.687327 0.040300
O O5 0.686843 0.651807 0.109614
O O6 0.683842 0.539541 0.023187
O O7 0.370027 0.877880 0.732383
O O8 0.285844 0.052196 0.704037
O O9 0.750000 0.250000 0.200323
O O10 0.953583 0.193653 0.189185
O O11 0.850556 0.208101 0.677753
#
# Coordination Sequence:
#
# PCOD9371399 Si02
#       6
#     8  16  16  16  16   8
#     4  10  22  38  66  97 127 180 234 268 366 422
#     4  10  25  44  71 102 145 187 237 299 370 437
#     4  11  20  45  68  91 142 184 228 301 355 438
#     4  10  24  40  68  97 136 179 238 288 359 445
#     4  11  22  46  64 103 136 180 243 290 362 442
#     4  12  24  42  76 105 137 190 248 296 364 446
#
# _framework density 21.024971000000001
#
# number of rings (size 3 to 8) (size 9 to 14) (size 15 to 20)
#    0.600    0.800    5.000    1.200    2.800    4.800 
#    0.000    0.000    0.000    0.000    0.000    0.000 
#    0.000    0.000    0.000    0.000    0.000    0.000 
#
# Total GULP energy -111350.399302 kJ/mol
# GULP energy per Si atom -5567.519965 kJ/mol
# Density = 2.097712 g / cm^3
# Si number density = 21.024971 Si / 1000 Ang^3
#
#
#
# Elastic Constant Matrix: (Units=GPa)
#
#
# Indices 1 2 3 4 5 6 
#
# 1 63.5956 18.6540 22.6650 0.0000 0.0000 0.0000
# 2 18.6540 56.9460 35.8651 0.0000 0.0000 0.0000
# 3 22.6650 35.8651 101.0425 0.0000 0.0000 0.0000
# 4 0.0000 0.0000 0.0000 39.9330 0.0000 0.0000
# 5 0.0000 0.0000 0.0000 0.0000 41.8776 0.0000
# 6 0.0000 0.0000 0.0000 0.0000 0.0000 19.4129
#
#
#
# Elastic Compliance Matrix: (Units=1/GPa)
#
#
# Indices 1 2 3 4 5 6 
#
# 1 0.017868 -0.004287 -0.002486 0.000000 0.000000 0.000000
# 2 -0.004287 0.023645 -0.007431 0.000000 0.000000 0.000000
# 3 -0.002486 -0.007431 0.013092 0.000000 0.000000 0.000000
# 4 0.000000 0.000000 0.000000 0.025042 0.000000 0.000000
# 5 0.000000 0.000000 0.000000 0.000000 0.023879 0.000000
# 6 0.000000 0.000000 0.000000 0.000000 0.000000 0.051512
#
#
# Mechanical properties :
#
#
# Convention : Reuss Voigt Hill
#
# Bulk Modulus (GPa) = 38.17373 41.77248 39.97310
# Shear Modulus (GPa) = 26.01729 29.87136 27.94432
#
# Velocity S-wave (km/s) = 3.52155 3.77338 3.64964
# Velocity P-wave (km/s) = 5.89329 6.23664 6.06740
#
# Compressibility (1/GPa) = 0.02619602
#
# Stress axis : x y z
#
# Youngs Moduli (GPa) = 55.96602 42.29208 76.38124
#
# Poissons Ratio (x) = 0.18132 0.18990
# Poissons Ratio (y) = 0.23994 0.56760
# Poissons Ratio (z) = 0.13915 0.31428
#
# Static dielectric constant tensor:
#      x y z
#    x 3.289510 0.000000 0.000000 
#    y 0.000000 2.010540 0.000000 
#    z 0.000000 0.000000 1.815560 
# 
# From -- ./inp_files/24946.got.cif
#   From: 2010.05.17/outbox.cif.g08.bks.cpg/sg43_13_cif.got.tgz:24946.got - 2010.06.03 19:21:55.
