data_PCOD9371726
_publ_section_title
;
Structure prediction by ZEFSAII (Michael W. Deem and Ramdas Pophale) SiO2 
 PCOD9371726
Probable space group: F D D 2
;
_chemical_formula_sum "Si O2"
_cell_formula_units_Z 112
_cell_length_a 12.072237
_cell_length_b 31.402441
_cell_length_c 12.262797
_cell_angle_alpha 90.000000
_cell_angle_beta 90.000000
_cell_angle_gamma 90.000000
_cell_volume 4648.798262
_symmetry_space_group_name_H-M "F D D 2"
_symmetry_group_IT_number 43
_symmetry_cell_setting 'orthorhombic'
loop_
_space_group_symop_operation_xyz
x,y,z
-x,-y,z
1/4-x,1/4+y,1/4+z
1/4+x,1/4-y,1/4+z
x,1/2+y,1/2+z
-x,1/2-y,1/2+z
1/4-x,3/4+y,3/4+z
1/4+x,3/4-y,3/4+z
1/2+x,y,1/2+z
1/2-x,-y,1/2+z
3/4-x,1/4+y,3/4+z
3/4+x,1/4-y,3/4+z
1/2+x,1/2+y,z
1/2-x,1/2-y,z
3/4-x,3/4+y,1/4+z
3/4+x,3/4-y,1/4+z
loop_
_atom_site_type_symbol
_atom_site_label
_atom_site_fract_x
_atom_site_fract_y
_atom_site_fract_z
Si Si1 0.247790 0.797773 0.528320
Si Si2 0.441949 0.365747 0.663056
Si Si3 0.893859 0.437640 0.508469
Si Si4 0.378901 0.826642 0.815630
Si Si5 0.984424 0.797168 0.111339
Si Si6 0.209540 0.847753 0.169966
Si Si7 0.877404 0.002613 0.216551
O O1 0.250000 0.750000 0.476685
O O2 0.185401 0.837219 0.470781
O O3 0.188360 0.791396 0.646048
O O4 0.376873 0.812870 0.542181
O O5 0.541499 0.341246 0.723556
O O6 0.452453 0.379335 0.537248
O O7 0.336801 0.333927 0.672191
O O8 0.875593 0.468978 0.613048
O O9 0.002983 0.410427 0.541839
O O10 0.426820 0.794413 0.727295
O O11 0.455214 0.867063 0.824336
O O12 0.381390 0.799872 0.923848
O O13 0.101489 0.820543 0.138820
O O14 0.028395 0.756925 0.046876
O O15 0.000000 0.000000 0.266438
#
# Coordination Sequence:
#
# PCOD9371726 Si02
#       7
#    16  16  16  16  16  16  16
#     4  11  25  47  74 101 141 193 244 301 358 439
#     4  12  26  44  72 103 143 185 238 301 370 429
#     4  10  22  45  69 101 135 188 244 281 355 445
#     4  10  23  45  70  95 140 185 236 294 356 430
#     4  11  25  44  70 104 137 185 242 294 363 431
#     4  12  26  44  67 102 143 188 233 300 366 428
#     4  10  24  43  71 103 136 188 236 294 356 432
#
# _framework density 24.092248000000001
#
# number of rings (size 3 to 8) (size 9 to 14) (size 15 to 20)
#    0.000    1.143    2.857    3.000    8.000    3.429 
#    0.000    0.714    0.000    0.000    0.000    0.000 
#    0.000    0.000    0.000    0.000    0.000    0.000 
#
# Total GULP energy -156068.472555 kJ/mol
# GULP energy per Si atom -5573.874020 kJ/mol
# Density = 2.403741 g / cm^3
# Si number density = 24.092248 Si / 1000 Ang^3
#
#
#
# Elastic Constant Matrix: (Units=GPa)
#
#
# Indices 1 2 3 4 5 6 
#
# 1 173.6523 49.0509 31.6463 0.0000 0.0000 0.0000
# 2 49.0509 63.6915 14.1472 0.0000 0.0000 0.0000
# 3 31.6463 14.1472 51.8135 0.0000 0.0000 0.0000
# 4 0.0000 0.0000 0.0000 23.2492 0.0000 0.0000
# 5 0.0000 0.0000 0.0000 0.0000 20.2664 0.0000
# 6 0.0000 0.0000 0.0000 0.0000 0.0000 43.1812
#
#
#
# Elastic Compliance Matrix: (Units=1/GPa)
#
#
# Indices 1 2 3 4 5 6 
#
# 1 0.007872 -0.005317 -0.003356 0.000000 0.000000 0.000000
# 2 -0.005317 0.020306 -0.002297 0.000000 0.000000 0.000000
# 3 -0.003356 -0.002297 0.021977 0.000000 0.000000 0.000000
# 4 0.000000 0.000000 0.000000 0.043012 0.000000 0.000000
# 5 0.000000 0.000000 0.000000 0.000000 0.049343 0.000000
# 6 0.000000 0.000000 0.000000 0.000000 0.000000 0.023158
#
#
# Mechanical properties :
#
#
# Convention : Reuss Voigt Hill
#
# Bulk Modulus (GPa) = 35.44268 53.20512 44.32390
# Shear Modulus (GPa) = 25.37896 30.29354 27.83625
#
# Velocity S-wave (km/s) = 3.24915 3.54983 3.40281
# Velocity P-wave (km/s) = 5.36834 6.23968 5.82034
#
# Compressibility (1/GPa) = 0.02821457
#
# Stress axis : x y z
#
# Youngs Moduli (GPa) = 127.02937 49.24717 45.50198
#
# Poissons Ratio (x) = 0.26185 0.15272
# Poissons Ratio (y) = 0.67543 0.10451
# Poissons Ratio (z) = 0.42635 0.11311
#
# Static dielectric constant tensor:
#      x y z
#    x 1.928430 0.000000 0.000000 
#    y 0.000000 1.975380 0.000000 
#    z 0.000000 0.000000 1.924700 
# 
# From -- ./inp_files/9793.got.cif
#   From: 2010.05.17/outbox.cif.g08.bks.cpg/sg43_5_cif.got.tgz:9793.got - 2010.06.03 19:21:55.
