data_PCOD9371202
_publ_section_title
;
Structure prediction by ZEFSAII (Michael W. Deem and Ramdas Pophale) SiO2 
 PCOD9371202
Probable space group: F D D 2
;
_chemical_formula_sum "Si O2"
_cell_formula_units_Z 104
_cell_length_a 16.990176
_cell_length_b 28.611010
_cell_length_c 9.781538
_cell_angle_alpha 90.000000
_cell_angle_beta 90.000000
_cell_angle_gamma 90.000000
_cell_volume 4754.865245
_symmetry_space_group_name_H-M "F D D 2"
_symmetry_group_IT_number 43
_symmetry_cell_setting 'orthorhombic'
loop_
_space_group_symop_operation_xyz
x,y,z
-x,-y,z
1/4-x,1/4+y,1/4+z
1/4+x,1/4-y,1/4+z
x,1/2+y,1/2+z
-x,1/2-y,1/2+z
1/4-x,3/4+y,3/4+z
1/4+x,3/4-y,3/4+z
1/2+x,y,1/2+z
1/2-x,-y,1/2+z
3/4-x,1/4+y,3/4+z
3/4+x,1/4-y,3/4+z
1/2+x,1/2+y,z
1/2-x,1/2-y,z
3/4-x,3/4+y,1/4+z
3/4+x,3/4-y,1/4+z
loop_
_atom_site_type_symbol
_atom_site_label
_atom_site_fract_x
_atom_site_fract_y
_atom_site_fract_z
Si Si1 0.750000 0.250000 0.753450
Si Si2 0.159307 0.836230 0.747483
Si Si3 0.941937 0.150512 0.980307
Si Si4 0.914752 0.321964 0.071942
Si Si5 0.158856 0.586046 0.205926
Si Si6 0.365762 0.055952 0.528202
Si Si7 0.807064 0.476558 0.959332
O O1 0.801092 0.208673 0.819546
O O2 0.817120 0.281850 0.686135
O O3 0.222237 0.878346 0.756627
O O4 0.144038 0.826892 0.588650
O O5 0.075859 0.842194 0.821222
O O6 0.876073 0.111316 0.013763
O O7 0.928560 0.194978 0.075065
O O8 0.868360 0.365544 0.135819
O O9 0.925378 0.280136 0.179354
O O10 0.000284 0.336652 0.009139
O O11 0.870005 0.300148 0.940214
O O12 0.151204 0.546069 0.090884
O O13 0.284771 0.032393 0.489976
#
# Coordination Sequence:
#
# PCOD9371202 Si02
#       7
#     8  16  16  16  16  16  16
#     4  10  22  38  62  92 132 164 232 276 340 408
#     4  11  23  40  65  99 136 179 228 294 346 419
#     4  11  21  41  71  98 138 186 237 285 356 421
#     4  11  24  44  71  99 141 184 232 298 359 424
#     4  11  25  46  67 103 145 179 239 292 360 430
#     4  10  21  41  66 103 133 180 233 297 338 431
#     4  11  23  44  74  98 139 190 239 284 366 434
#
# _framework density 21.872335
#
# number of rings (size 3 to 8) (size 9 to 14) (size 15 to 20)
#    0.000    1.231    3.077    2.769    0.000    3.692 
#   11.077    0.000    0.000    0.000    0.000    0.000 
#    0.000    0.000    0.000    0.000    0.000    0.000 
#
# Total GULP energy -145003.597826 kJ/mol
# GULP energy per Si atom -5577.061455 kJ/mol
# Density = 2.182255 g / cm^3
# Si number density = 21.872335 Si / 1000 Ang^3
#
#
#
# Elastic Constant Matrix: (Units=GPa)
#
#
# Indices 1 2 3 4 5 6 
#
# 1 64.4538 33.4088 37.4193 0.0000 0.0000 0.0000
# 2 33.4088 124.3034 44.0550 0.0000 0.0000 0.0000
# 3 37.4193 44.0550 127.4460 0.0000 0.0000 0.0000
# 4 0.0000 0.0000 0.0000 31.3746 0.0000 0.0000
# 5 0.0000 0.0000 0.0000 0.0000 28.9735 0.0000
# 6 0.0000 0.0000 0.0000 0.0000 0.0000 26.5289
#
#
#
# Elastic Compliance Matrix: (Units=1/GPa)
#
#
# Indices 1 2 3 4 5 6 
#
# 1 0.020152 -0.003783 -0.004609 0.000000 0.000000 0.000000
# 2 -0.003783 0.009878 -0.002304 0.000000 0.000000 0.000000
# 3 -0.004609 -0.002304 0.009996 0.000000 0.000000 0.000000
# 4 0.000000 0.000000 0.000000 0.031873 0.000000 0.000000
# 5 0.000000 0.000000 0.000000 0.000000 0.034514 0.000000
# 6 0.000000 0.000000 0.000000 0.000000 0.000000 0.037695
#
#
# Mechanical properties :
#
#
# Convention : Reuss Voigt Hill
#
# Bulk Modulus (GPa) = 53.66431 60.66328 57.16379
# Shear Modulus (GPa) = 29.11876 30.79672 29.95774
#
# Velocity S-wave (km/s) = 3.65266 3.75643 3.70491
# Velocity P-wave (km/s) = 6.50982 6.82713 6.67036
#
# Compressibility (1/GPa) = 0.01863436
#
# Stress axis : x y z
#
# Youngs Moduli (GPa) = 49.62407 101.23471 100.03817
#
# Poissons Ratio (x) = 0.38292 0.46109
# Poissons Ratio (y) = 0.18770 0.23049
# Poissons Ratio (z) = 0.22872 0.23325
#
# Static dielectric constant tensor:
#      x y z
#    x 1.844910 0.000000 0.000000 
#    y 0.000000 1.815280 0.000000 
#    z 0.000000 0.000000 1.873030 
# 
# From -- ./inp_files/3488.got.cif
#   From: 2010.05.17/outbox.cif.g08.bks.cpg/sg43_2_cif.got.tgz:3488.got - 2010.06.03 19:21:55.
