data_PCOD9371009
_publ_section_title
;
Structure prediction by ZEFSAII (Michael W. Deem and Ramdas Pophale) SiO2 
 PCOD9371009
Probable space group: F D D 2
;
_chemical_formula_sum "Si O2"
_cell_formula_units_Z 80
_cell_length_a 7.786943
_cell_length_b 29.760146
_cell_length_c 18.568441
_cell_angle_alpha 90.000000
_cell_angle_beta 90.000000
_cell_angle_gamma 90.000000
_cell_volume 4303.060926
_symmetry_space_group_name_H-M "F D D 2"
_symmetry_group_IT_number 43
_symmetry_cell_setting 'orthorhombic'
loop_
_space_group_symop_operation_xyz
x,y,z
-x,-y,z
1/4-x,1/4+y,1/4+z
1/4+x,1/4-y,1/4+z
x,1/2+y,1/2+z
-x,1/2-y,1/2+z
1/4-x,3/4+y,3/4+z
1/4+x,3/4-y,3/4+z
1/2+x,y,1/2+z
1/2-x,-y,1/2+z
3/4-x,1/4+y,3/4+z
3/4+x,1/4-y,3/4+z
1/2+x,1/2+y,z
1/2-x,1/2-y,z
3/4-x,3/4+y,1/4+z
3/4+x,3/4-y,1/4+z
loop_
_atom_site_type_symbol
_atom_site_label
_atom_site_fract_x
_atom_site_fract_y
_atom_site_fract_z
Si Si1 0.860295 0.624117 0.373330
Si Si2 0.594166 0.544839 0.613933
Si Si3 0.811716 0.369059 0.457732
Si Si4 0.574500 0.609911 0.480546
Si Si5 0.309959 0.797104 0.947708
O O1 0.863276 0.618289 0.288242
O O2 0.701080 0.600133 0.413510
O O3 0.829339 0.676038 0.398819
O O4 0.043399 0.610122 0.406231
O O5 0.500000 0.500000 0.590778
O O6 0.483974 0.570278 0.675284
O O7 0.611519 0.579136 0.548147
O O8 0.780572 0.535783 0.646218
O O9 0.625822 0.392832 0.460669
O O10 0.621300 0.662284 0.498102
O O11 0.250000 0.750000 0.980089
#
# Coordination Sequence:
#
# PCOD9371009 Si02
#       5
#    16  16  16  16  16
#     4  10  21  35  65  89 127 163 216 254 331 375
#     4  11  21  39  64  93 128 168 224 262 323 396
#     4  11  20  37  63  90 119 174 204 264 323 380
#     4   9  22  37  60  96 124 164 214 266 322 383
#     4   9  20  36  60  96 120 163 218 268 312 390
#
# _framework density 18.591418000000001
#
# number of rings (size 3 to 8) (size 9 to 14) (size 15 to 20)
#    1.200    0.800    2.000    2.400    0.000    0.000 
#    0.000    0.000    4.400    8.400    0.000    0.000 
#    0.000    0.000    0.000    0.000    0.000    0.000 
#
# Total GULP energy -111339.752748 kJ/mol
# GULP energy per Si atom -5566.987637 kJ/mol
# Density = 1.854910 g / cm^3
# Si number density = 18.591418 Si / 1000 Ang^3
#
#
#
# Elastic Constant Matrix: (Units=GPa)
#
#
# Indices 1 2 3 4 5 6 
#
# 1 83.3715 6.6169 -0.2700 0.0000 0.0000 0.0000
# 2 6.6169 46.6288 12.8837 0.0000 0.0000 0.0000
# 3 -0.2700 12.8837 61.1405 0.0000 0.0000 0.0000
# 4 0.0000 0.0000 0.0000 17.8620 0.0000 0.0000
# 5 0.0000 0.0000 0.0000 0.0000 19.2508 0.0000
# 6 0.0000 0.0000 0.0000 0.0000 0.0000 19.1341
#
#
#
# Elastic Compliance Matrix: (Units=1/GPa)
#
#
# Indices 1 2 3 4 5 6 
#
# 1 0.012142 -0.001845 0.000442 0.000000 0.000000 0.000000
# 2 -0.001845 0.023052 -0.004866 0.000000 0.000000 0.000000
# 3 0.000442 -0.004866 0.017383 0.000000 0.000000 0.000000
# 4 0.000000 0.000000 0.000000 0.055985 0.000000 0.000000
# 5 0.000000 0.000000 0.000000 0.000000 0.051946 0.000000
# 6 0.000000 0.000000 0.000000 0.000000 0.000000 0.052263
#
#
# Mechanical properties :
#
#
# Convention : Reuss Voigt Hill
#
# Bulk Modulus (GPa) = 24.97473 25.51131 25.24302
# Shear Modulus (GPa) = 20.95073 22.71006 21.83039
#
# Velocity S-wave (km/s) = 3.36058 3.49884 3.43041
# Velocity P-wave (km/s) = 5.34047 5.48401 5.41272
#
# Compressibility (1/GPa) = 0.04004047
#
# Stress axis : x y z
#
# Youngs Moduli (GPa) = 82.35602 43.37964 57.52731
#
# Poissons Ratio (x) = 0.08005 -0.02545
# Poissons Ratio (y) = 0.15197 0.27992
# Poissons Ratio (z) = -0.03644 0.21108
#
# Static dielectric constant tensor:
#      x y z
#    x 1.690450 0.000000 0.000000 
#    y 0.000000 1.659120 0.000000 
#    z 0.000000 0.000000 1.622560 
# 
# From -- ./inp_files/12742.got.cif
#   From: 2010.05.17/outbox.cif.g08.bks.cpg/sg43_7_cif.got.tgz:12742.got - 2010.06.03 19:21:55.
