data_PCOD9371688
_publ_section_title
;
Structure prediction by ZEFSAII (Michael W. Deem and Ramdas Pophale) SiO2 
 PCOD9371688
Probable space group: F D D 2
;
_chemical_formula_sum "Si O2"
_cell_formula_units_Z 120
_cell_length_a 10.132256
_cell_length_b 20.207370
_cell_length_c 25.691581
_cell_angle_alpha 90.000000
_cell_angle_beta 90.000000
_cell_angle_gamma 90.000000
_cell_volume 5260.254762
_symmetry_space_group_name_H-M "F D D 2"
_symmetry_group_IT_number 43
_symmetry_cell_setting 'orthorhombic'
loop_
_space_group_symop_operation_xyz
x,y,z
-x,-y,z
1/4-x,1/4+y,1/4+z
1/4+x,1/4-y,1/4+z
x,1/2+y,1/2+z
-x,1/2-y,1/2+z
1/4-x,3/4+y,3/4+z
1/4+x,3/4-y,3/4+z
1/2+x,y,1/2+z
1/2-x,-y,1/2+z
3/4-x,1/4+y,3/4+z
3/4+x,1/4-y,3/4+z
1/2+x,1/2+y,z
1/2-x,1/2-y,z
3/4-x,3/4+y,1/4+z
3/4+x,3/4-y,1/4+z
loop_
_atom_site_type_symbol
_atom_site_label
_atom_site_fract_x
_atom_site_fract_y
_atom_site_fract_z
Si Si1 0.163097 0.424529 0.259840
Si Si2 0.523735 0.298658 0.709144
Si Si3 0.649765 0.982034 0.566430
Si Si4 0.150495 0.118286 0.549707
Si Si5 0.083562 0.294547 0.091278
Si Si6 0.191525 0.819952 0.955609
Si Si7 0.834172 0.888088 0.105432
Si Si8 0.250000 0.250000 0.744885
O O1 0.067222 0.375813 0.223823
O O2 0.143001 0.492840 0.293540
O O3 0.295518 0.437452 0.228799
O O4 0.183165 0.375327 0.308032
O O5 0.580738 0.251687 0.755374
O O6 0.571888 0.275213 0.652364
O O7 0.366565 0.286285 0.713028
O O8 0.722272 0.913488 0.578134
O O9 0.500000 0.000000 0.578943
O O10 0.723451 0.038368 0.600133
O O11 0.210671 0.153272 0.499126
O O12 0.052392 0.166985 0.579347
O O13 0.065392 0.055960 0.530587
O O14 0.211092 0.341448 0.093720
O O15 0.250000 0.750000 0.938587
O O16 0.165190 0.868627 0.907787
#
# Coordination Sequence:
#
# PCOD9371688 Si02
#       8
#    16  16  16  16  16  16  16   8
#     4  11  24  46  70 112 150 190 259 317 377 473
#     4  10  23  44  71 105 147 191 249 311 378 466
#     4  10  22  44  70  97 138 190 247 304 367 457
#     4  11  23  43  72 100 145 186 241 311 376 466
#     4  12  24  43  74 108 146 197 246 319 396 456
#     4  12  25  47  71 106 152 197 246 325 395 462
#     4  11  25  44  72 101 144 199 258 308 388 467
#     4  10  24  46  68  96 140 190 240 302 382 438
#
# _framework density 22.812584000000001
#
# number of rings (size 3 to 8) (size 9 to 14) (size 15 to 20)
#    0.000    1.067    2.667    4.800    3.733    1.067 
#    4.800    0.000    0.000    0.000    0.000    0.000 
#    0.000    0.000    0.000    0.000    0.000    0.000 
#
# Total GULP energy -167173.146641 kJ/mol
# GULP energy per Si atom -5572.438221 kJ/mol
# Density = 2.276066 g / cm^3
# Si number density = 22.812584 Si / 1000 Ang^3
#
#
#
# Elastic Constant Matrix: (Units=GPa)
#
#
# Indices 1 2 3 4 5 6 
#
# 1 131.3925 46.8973 35.5370 0.0000 0.0000 0.0000
# 2 46.8973 113.4906 30.3728 0.0000 0.0000 0.0000
# 3 35.5370 30.3728 93.2454 0.0000 0.0000 0.0000
# 4 0.0000 0.0000 0.0000 29.7452 0.0000 0.0000
# 5 0.0000 0.0000 0.0000 0.0000 -3.5862 0.0000
# 6 0.0000 0.0000 0.0000 0.0000 0.0000 35.6479
#
#
#
# Elastic Compliance Matrix: (Units=1/GPa)
#
#
# Indices 1 2 3 4 5 6 
#
# 1 0.009451 -0.003222 -0.002552 0.000000 0.000000 0.000000
# 2 -0.003222 0.010751 -0.002274 0.000000 0.000000 0.000000
# 3 -0.002552 -0.002274 0.012438 0.000000 0.000000 0.000000
# 4 0.000000 0.000000 0.000000 0.033619 0.000000 0.000000
# 5 0.000000 0.000000 0.000000 0.000000 -0.278845 0.000000
# 6 0.000000 0.000000 0.000000 0.000000 0.000000 0.028052
#
#
# Mechanical properties :
#
#
# Convention : Reuss Voigt Hill
#
# Bulk Modulus (GPa) = 60.44836 62.63809 61.54323
# Shear Modulus (GPa) = -30.68958 27.38281 -1.65339
#
# Velocity S-wave (km/s) = -3.67180 3.46835 -0.85226
# Velocity P-wave (km/s) = 2.92902 6.59974 5.10567
#
# Compressibility (1/GPa) = 0.01654304
#
# Stress axis : x y z
#
# Youngs Moduli (GPa) = 105.80580 93.01062 80.39999
#
# Poissons Ratio (x) = 0.29972 0.20521
# Poissons Ratio (y) = 0.34095 0.18283
# Poissons Ratio (z) = 0.27005 0.21150
#
# Static dielectric constant tensor:
#      x y z
#    x 1.909700 0.000000 0.000000 
#    y 0.000000 2.035030 0.000000 
#    z 0.000000 0.000000 1.869710 
# 
# From -- ./inp_files/25276.got.cif
#   From: 2010.05.17/outbox.cif.g08.bks.cpg/sg43_13_cif.got.tgz:25276.got - 2010.06.03 19:21:55.
