data_PCOD9371820
_publ_section_title
;
Structure prediction by ZEFSAII (Michael W. Deem and Ramdas Pophale) SiO2 
 PCOD9371820
Probable space group: F D D 2
;
_chemical_formula_sum "Si O2"
_cell_formula_units_Z 112
_cell_length_a 26.101065
_cell_length_b 16.488125
_cell_length_c 10.337791
_cell_angle_alpha 90.000000
_cell_angle_beta 90.000000
_cell_angle_gamma 90.000000
_cell_volume 4448.947155
_symmetry_space_group_name_H-M "F D D 2"
_symmetry_group_IT_number 43
_symmetry_cell_setting 'orthorhombic'
loop_
_space_group_symop_operation_xyz
x,y,z
-x,-y,z
1/4-x,1/4+y,1/4+z
1/4+x,1/4-y,1/4+z
x,1/2+y,1/2+z
-x,1/2-y,1/2+z
1/4-x,3/4+y,3/4+z
1/4+x,3/4-y,3/4+z
1/2+x,y,1/2+z
1/2-x,-y,1/2+z
3/4-x,1/4+y,3/4+z
3/4+x,1/4-y,3/4+z
1/2+x,1/2+y,z
1/2-x,1/2-y,z
3/4-x,3/4+y,1/4+z
3/4+x,3/4-y,1/4+z
loop_
_atom_site_type_symbol
_atom_site_label
_atom_site_fract_x
_atom_site_fract_y
_atom_site_fract_z
Si Si1 0.197665 0.355160 0.785010
Si Si2 0.751249 0.990578 0.201084
Si Si3 0.264128 0.161276 0.063113
Si Si4 0.588785 0.186528 0.633098
Si Si5 0.880385 0.642465 0.156396
Si Si6 0.802009 0.224637 0.013630
Si Si7 0.664800 0.107803 0.120344
O O1 0.204545 0.450475 0.751493
O O2 0.212935 0.310710 0.654358
O O3 0.140548 0.327131 0.823175
O O4 0.233669 0.340968 0.908190
O O5 0.768403 0.911873 0.122572
O O6 0.716029 0.959709 0.319880
O O7 0.711751 0.044372 0.112153
O O8 0.250000 0.250000 0.108231
O O9 0.321463 0.143070 0.111161
O O10 0.606218 0.267249 0.705789
O O11 0.630304 0.174049 0.518121
O O12 0.582182 0.100139 0.700852
O O13 0.911071 0.625719 0.024759
O O14 0.750000 0.250000 0.940170
O O15 0.828721 0.309759 0.041175
#
# Coordination Sequence:
#
# PCOD9371820 Si02
#       7
#    16  16  16  16  16  16  16
#     4  11  25  41  72  99 132 190 230 285 353 416
#     4  10  23  46  67  99 141 179 227 293 350 416
#     4  10  23  40  68  99 131 175 230 282 340 427
#     4  10  24  42  67  94 138 175 221 290 349 410
#     4   9  22  44  66  96 129 180 225 282 345 418
#     4  12  26  44  67 103 140 181 232 296 350 414
#     4  10  24  44  72  96 138 178 241 283 346 423
#
# _framework density 25.174495
#
# number of rings (size 3 to 8) (size 9 to 14) (size 15 to 20)
#    0.000    1.714    1.429    0.429   14.000    4.571 
#    0.000    0.000    0.000    0.000    0.000    0.000 
#    0.000    0.000    0.000    0.000    0.000    0.000 
#
# Total GULP energy -156691.952620 kJ/mol
# GULP energy per Si atom -5596.141165 kJ/mol
# Density = 2.511720 g / cm^3
# Si number density = 25.174495 Si / 1000 Ang^3
#
#
#
# Elastic Constant Matrix: (Units=GPa)
#
#
# Indices 1 2 3 4 5 6 
#
# 1 56.0649 20.9464 12.6401 0.0000 0.0000 0.0000
# 2 20.9464 153.4795 33.8829 0.0000 0.0000 0.0000
# 3 12.6401 33.8829 57.1873 0.0000 0.0000 0.0000
# 4 0.0000 0.0000 0.0000 104.5434 0.0000 0.0000
# 5 0.0000 0.0000 0.0000 0.0000 4.3319 0.0000
# 6 0.0000 0.0000 0.0000 0.0000 0.0000 41.4147
#
#
#
# Elastic Compliance Matrix: (Units=1/GPa)
#
#
# Indices 1 2 3 4 5 6 
#
# 1 0.019263 -0.001943 -0.003106 0.000000 0.000000 0.000000
# 2 -0.001943 0.007692 -0.004128 0.000000 0.000000 0.000000
# 3 -0.003106 -0.004128 0.020619 0.000000 0.000000 0.000000
# 4 0.000000 0.000000 0.000000 0.009565 0.000000 0.000000
# 5 0.000000 0.000000 0.000000 0.000000 0.230845 0.000000
# 6 0.000000 0.000000 0.000000 0.000000 0.000000 0.024146
#
#
# Mechanical properties :
#
#
# Convention : Reuss Voigt Hill
#
# Bulk Modulus (GPa) = 34.22471 44.63006 39.42738
# Shear Modulus (GPa) = 14.69618 43.34216 29.01917
#
# Velocity S-wave (km/s) = 2.41876 4.15380 3.39886
# Velocity P-wave (km/s) = 4.62872 6.38531 5.57661
#
# Compressibility (1/GPa) = 0.02921865
#
# Stress axis : x y z
#
# Youngs Moduli (GPa) = 51.91360 130.00468 48.49949
#
# Poissons Ratio (x) = 0.25262 0.15066
# Poissons Ratio (y) = 0.10088 0.20020
# Poissons Ratio (z) = 0.16126 0.53665
#
# Static dielectric constant tensor:
#      x y z
#    x 2.007380 0.000000 0.000000 
#    y 0.000000 1.949930 0.000000 
#    z 0.000000 0.000000 1.996620 
# 
# From -- ./inp_files/8297.got.cif
#   From: 2010.05.17/outbox.cif.g08.bks.cpg/sg43_5_cif.got.tgz:8297.got - 2010.06.03 19:21:55.
