data_PCOD9371328
_publ_section_title
;
Structure prediction by ZEFSAII (Michael W. Deem and Ramdas Pophale) SiO2 
 PCOD9371328
Probable space group: F D D 2
;
_chemical_formula_sum "Si O2"
_cell_formula_units_Z 64
_cell_length_a 18.854683
_cell_length_b 7.747583
_cell_length_c 18.847485
_cell_angle_alpha 90.000000
_cell_angle_beta 90.000000
_cell_angle_gamma 90.000000
_cell_volume 2753.207088
_symmetry_space_group_name_H-M "F D D 2"
_symmetry_group_IT_number 43
_symmetry_cell_setting 'orthorhombic'
loop_
_space_group_symop_operation_xyz
x,y,z
-x,-y,z
1/4-x,1/4+y,1/4+z
1/4+x,1/4-y,1/4+z
x,1/2+y,1/2+z
-x,1/2-y,1/2+z
1/4-x,3/4+y,3/4+z
1/4+x,3/4-y,3/4+z
1/2+x,y,1/2+z
1/2-x,-y,1/2+z
3/4-x,1/4+y,3/4+z
3/4+x,1/4-y,3/4+z
1/2+x,1/2+y,z
1/2-x,1/2-y,z
3/4-x,3/4+y,1/4+z
3/4+x,3/4-y,1/4+z
loop_
_atom_site_type_symbol
_atom_site_label
_atom_site_fract_x
_atom_site_fract_y
_atom_site_fract_z
Si Si1 0.661011 0.908726 0.966000
Si Si2 0.470459 0.817297 0.794659
Si Si3 0.971813 0.307417 0.444120
Si Si4 0.412816 0.773837 0.050643
O O1 0.609927 0.741652 0.958503
O O2 0.668110 0.961160 0.884403
O O3 0.739048 0.922444 0.000423
O O4 0.619567 0.054025 0.013350
O O5 0.497720 0.796327 0.875739
O O6 0.500000 0.000000 0.767182
O O7 0.387214 0.855206 0.788760
O O8 0.000000 0.500000 0.429246
O O9 0.012439 0.251415 0.514409
#
# Coordination Sequence:
#
# PCOD9371328 Si02
#       4
#    16  16  16  16
#     4  11  22  46  76 103 145 200 251 314 380 452
#     4  10  21  44  75 104 142 195 250 316 375 447
#     4  12  25  43  68 108 153 193 251 316 383 459
#     4  11  22  45  78 101 146 196 257 309 388 442
#
# _framework density 23.245615999999998
#
# number of rings (size 3 to 8) (size 9 to 14) (size 15 to 20)
#    0.000    1.000    7.500    0.750    0.000    5.000 
#    4.500    2.500    0.000    0.000    0.000    0.000 
#    0.000    0.000    0.000    0.000    0.000    0.000 
#
# Total GULP energy -89252.294512 kJ/mol
# GULP energy per Si atom -5578.268407 kJ/mol
# Density = 2.319271 g / cm^3
# Si number density = 23.245616 Si / 1000 Ang^3
#
#
#
# Elastic Constant Matrix: (Units=GPa)
#
#
# Indices 1 2 3 4 5 6 
#
# 1 130.0272 29.3956 46.3758 0.0000 0.0000 0.0000
# 2 29.3956 125.5020 33.9619 0.0000 0.0000 0.0000
# 3 46.3758 33.9619 155.1237 0.0000 0.0000 0.0000
# 4 0.0000 0.0000 0.0000 15.7925 0.0000 0.0000
# 5 0.0000 0.0000 0.0000 0.0000 56.5192 0.0000
# 6 0.0000 0.0000 0.0000 0.0000 0.0000 25.7290
#
#
#
# Elastic Compliance Matrix: (Units=1/GPa)
#
#
# Indices 1 2 3 4 5 6 
#
# 1 0.008847 -0.001442 -0.002329 0.000000 0.000000 0.000000
# 2 -0.001442 0.008705 -0.001475 0.000000 0.000000 0.000000
# 3 -0.002329 -0.001475 0.007466 0.000000 0.000000 0.000000
# 4 0.000000 0.000000 0.000000 0.063321 0.000000 0.000000
# 5 0.000000 0.000000 0.000000 0.000000 0.017693 0.000000
# 6 0.000000 0.000000 0.000000 0.000000 0.000000 0.038867
#
#
# Mechanical properties :
#
#
# Convention : Reuss Voigt Hill
#
# Bulk Modulus (GPa) = 68.84205 70.01327 69.42766
# Shear Modulus (GPa) = 31.20454 39.66944 35.43699
#
# Velocity S-wave (km/s) = 3.66783 4.13550 3.90867
# Velocity P-wave (km/s) = 6.90048 7.27925 7.09240
#
# Compressibility (1/GPa) = 0.01452600
#
# Stress axis : x y z
#
# Youngs Moduli (GPa) = 113.02655 114.87911 133.94569
#
# Poissons Ratio (x) = 0.16565 0.31201
# Poissons Ratio (y) = 0.16298 0.19753
# Poissons Ratio (z) = 0.26328 0.16941
#
# Static dielectric constant tensor:
#      x y z
#    x 1.842300 0.000000 0.000000 
#    y 0.000000 1.974010 0.000000 
#    z 0.000000 0.000000 1.785590 
# 
# From -- ./inp_files/12491.got.cif
#   From: 2010.05.17/outbox.cif.g08.bks.cpg/sg43_7_cif.got.tgz:12491.got - 2010.06.03 19:21:55.
