data_PCOD9371258
_publ_section_title
;
Structure prediction by ZEFSAII (Michael W. Deem and Ramdas Pophale) SiO2 
 PCOD9371258
Probable space group: F D D 2
;
_chemical_formula_sum "Si O2"
_cell_formula_units_Z 88
_cell_length_a 18.552917
_cell_length_b 28.329234
_cell_length_c 7.415648
_cell_angle_alpha 90.000000
_cell_angle_beta 90.000000
_cell_angle_gamma 90.000000
_cell_volume 3897.589892
_symmetry_space_group_name_H-M "F D D 2"
_symmetry_group_IT_number 43
_symmetry_cell_setting 'orthorhombic'
loop_
_space_group_symop_operation_xyz
x,y,z
-x,-y,z
1/4-x,1/4+y,1/4+z
1/4+x,1/4-y,1/4+z
x,1/2+y,1/2+z
-x,1/2-y,1/2+z
1/4-x,3/4+y,3/4+z
1/4+x,3/4-y,3/4+z
1/2+x,y,1/2+z
1/2-x,-y,1/2+z
3/4-x,1/4+y,3/4+z
3/4+x,1/4-y,3/4+z
1/2+x,1/2+y,z
1/2-x,1/2-y,z
3/4-x,3/4+y,1/4+z
3/4+x,3/4-y,1/4+z
loop_
_atom_site_type_symbol
_atom_site_label
_atom_site_fract_x
_atom_site_fract_y
_atom_site_fract_z
Si Si1 0.675662 0.416776 0.344380
Si Si2 0.129310 0.940139 0.731620
Si Si3 0.333669 0.909604 0.466138
Si Si4 0.500000 0.500000 0.669709
Si Si5 0.288996 0.479269 0.268598
Si Si6 0.866486 0.181109 0.311690
O O1 0.627278 0.432817 0.513698
O O2 0.750325 0.396396 0.426168
O O3 0.697103 0.465164 0.248501
O O4 0.641034 0.372689 0.242929
O O5 0.123292 0.886218 0.795750
O O6 0.060589 0.971583 0.781453
O O7 0.204934 0.965227 0.770299
O O8 0.327877 0.951887 0.606569
O O9 0.366303 0.924984 0.274429
O O10 0.455770 0.461994 0.553074
O O11 0.323757 0.459474 0.451981
#
# Coordination Sequence:
#
# PCOD9371258 Si02
#       6
#    16  16  16   8  16  16
#     4  10  21  42  67  98 133 179 235 283 345 424
#     4  10  22  42  68  97 141 179 230 288 351 421
#     4  10  23  44  65  98 139 173 231 290 342 414
#     4  12  20  44  70  96 134 186 224 284 350 414
#     4  11  24  45  67 104 134 180 237 289 339 425
#     4  11  24  43  71  97 134 188 225 283 360 409
#
# _framework density 22.578053000000001
#
# number of rings (size 3 to 8) (size 9 to 14) (size 15 to 20)
#    0.000    1.455    3.636    1.091    2.545    1.455 
#    3.273    0.909    0.000    0.000    0.000    0.000 
#    0.000    0.000    0.000    0.000    0.000    0.000 
#
# Total GULP energy -122970.896769 kJ/mol
# GULP energy per Si atom -5589.586217 kJ/mol
# Density = 2.252666 g / cm^3
# Si number density = 22.578053 Si / 1000 Ang^3
#
#
#
# Elastic Constant Matrix: (Units=GPa)
#
#
# Indices 1 2 3 4 5 6 
#
# 1 111.2426 61.4940 32.5814 -0.0001 -0.0001 0.0000
# 2 61.4940 203.6271 44.8021 -0.0001 0.0001 0.0000
# 3 32.5814 44.8021 74.7776 -0.0002 -0.0004 0.0001
# 4 -0.0001 -0.0001 -0.0002 28.6137 0.0001 0.0000
# 5 -0.0001 0.0001 -0.0004 0.0001 26.9862 -0.0001
# 6 0.0000 0.0000 0.0001 0.0000 -0.0001 34.7601
#
#
#
# Elastic Compliance Matrix: (Units=1/GPa)
#
#
# Indices 1 2 3 4 5 6 
#
# 1 0.011484 -0.002726 -0.003370 0.000000 0.000000 0.000000
# 2 -0.002726 0.006304 -0.002589 0.000000 0.000000 0.000000
# 3 -0.003370 -0.002589 0.016392 0.000000 0.000000 0.000000
# 4 0.000000 0.000000 0.000000 0.034948 0.000000 0.000000
# 5 0.000000 0.000000 0.000000 0.000000 0.037056 0.000000
# 6 0.000000 0.000000 0.000000 0.000000 0.000000 0.028769
#
#
# Mechanical properties :
#
#
# Convention : Reuss Voigt Hill
#
# Bulk Modulus (GPa) = 59.49152 74.15581 66.82367
# Shear Modulus (GPa) = 31.66026 34.79000 33.22513
#
# Velocity S-wave (km/s) = 3.74874 3.92966 3.84026
# Velocity P-wave (km/s) = 6.71892 7.31472 7.02314
#
# Compressibility (1/GPa) = 0.01680912
#
# Stress axis : x y z
#
# Youngs Moduli (GPa) = 87.08100 158.63081 61.00362
#
# Poissons Ratio (x) = 0.43251 0.20558
# Poissons Ratio (y) = 0.23743 0.15794
# Poissons Ratio (z) = 0.29346 0.41069
#
# Static dielectric constant tensor:
#      x y z
#    x 1.820230 0.000000 0.000000 
#    y 0.000000 1.907580 0.000000 
#    z 0.000000 0.000000 1.863310 
# 
# From -- ./inp_files/2928.got.cif
#   From: 2010.05.17/outbox.cif.g08.bks.cpg/sg43_2_cif.got.tgz:2928.got - 2010.06.03 19:21:55.
