data_PCOD9371096
_publ_section_title
;
Structure prediction by ZEFSAII (Michael W. Deem and Ramdas Pophale) SiO2 
 PCOD9371096
Probable space group: F D D 2
;
_chemical_formula_sum "Si O2"
_cell_formula_units_Z 72
_cell_length_a 10.953584
_cell_length_b 12.803239
_cell_length_c 23.051389
_cell_angle_alpha 90.000000
_cell_angle_beta 90.000000
_cell_angle_gamma 90.000000
_cell_volume 3232.758002
_symmetry_space_group_name_H-M "F D D 2"
_symmetry_group_IT_number 43
_symmetry_cell_setting 'orthorhombic'
loop_
_space_group_symop_operation_xyz
x,y,z
-x,-y,z
1/4-x,1/4+y,1/4+z
1/4+x,1/4-y,1/4+z
x,1/2+y,1/2+z
-x,1/2-y,1/2+z
1/4-x,3/4+y,3/4+z
1/4+x,3/4-y,3/4+z
1/2+x,y,1/2+z
1/2-x,-y,1/2+z
3/4-x,1/4+y,3/4+z
3/4+x,1/4-y,3/4+z
1/2+x,1/2+y,z
1/2-x,1/2-y,z
3/4-x,3/4+y,1/4+z
3/4+x,3/4-y,1/4+z
loop_
_atom_site_type_symbol
_atom_site_label
_atom_site_fract_x
_atom_site_fract_y
_atom_site_fract_z
Si Si1 0.475381 0.620508 0.886050
Si Si2 0.867074 0.453687 0.167143
Si Si3 0.274619 0.129492 0.552820
Si Si4 0.250000 0.250000 0.344435
Si Si5 0.132926 0.953687 0.521727
O O1 0.500000 0.500000 0.898260
O O2 0.536624 0.695599 0.933302
O O3 0.341248 0.669484 0.877272
O O4 0.551023 0.647094 0.826240
O O5 0.801022 0.397094 0.112630
O O6 0.875000 0.375000 0.219435
O O7 0.000000 0.500000 0.154610
O O8 0.250000 0.250000 0.540610
O O9 0.091248 0.419484 0.561598
O O10 0.213376 0.054400 0.505568
O O11 0.000000 0.000000 0.534261
#
# Coordination Sequence:
#
# PCOD9371096 Si02
#       5
#    16  16  16   8  16
#     4  10  21  39  69  91 125 182 214 276 342 388
#     4  10  21  39  62  94 127 169 215 270 332 400
#     4  10  21  39  69  91 125 182 214 276 342 388
#     4   8  20  36  62  98 124 160 236 274 318 408
#     4  10  21  39  62  94 127 169 215 270 332 400
#
# _framework density 22.272003999999999
#
# number of rings (size 3 to 8) (size 9 to 14) (size 15 to 20)
#    0.000    2.667    0.000    4.000    6.222    0.000 
#    0.000    2.222    9.778    0.000    0.000    0.000 
#    0.000    0.000    0.000    0.000    0.000    0.000 
#
# Total GULP energy -100389.071546 kJ/mol
# GULP energy per Si atom -5577.170641 kJ/mol
# Density = 2.222131 g / cm^3
# Si number density = 22.272004 Si / 1000 Ang^3
#
#
#
# Elastic Constant Matrix: (Units=GPa)
#
#
# Indices 1 2 3 4 5 6 
#
# 1 177.4016 72.3139 16.6336 0.0000 0.0000 0.0000
# 2 72.3139 257.0618 48.3057 0.0000 0.0000 0.0000
# 3 16.6336 48.3057 72.8275 0.0000 0.0000 0.0000
# 4 0.0000 0.0000 0.0000 -23.3397 0.0000 0.0000
# 5 0.0000 0.0000 0.0000 0.0000 -19.6499 0.0000
# 6 0.0000 0.0000 0.0000 0.0000 0.0000 27.1618
#
#
#
# Elastic Compliance Matrix: (Units=1/GPa)
#
#
# Indices 1 2 3 4 5 6 
#
# 1 0.006373 -0.001736 -0.000304 0.000000 0.000000 0.000000
# 2 -0.001736 0.004917 -0.002865 0.000000 0.000000 0.000000
# 3 -0.000304 -0.002865 0.015701 0.000000 0.000000 0.000000
# 4 0.000000 0.000000 0.000000 -0.042846 0.000000 0.000000
# 5 0.000000 0.000000 0.000000 0.000000 -0.050891 0.000000
# 6 0.000000 0.000000 0.000000 0.000000 0.000000 0.036816
#
#
# Mechanical properties :
#
#
# Convention : Reuss Voigt Hill
#
# Bulk Modulus (GPa) = 58.20405 86.86636 72.53520
# Shear Modulus (GPa) = -347.38913 21.50362 -162.94275
#
# Velocity S-wave (km/s) = -12.50257 3.11062 -8.56266
# Velocity P-wave (km/s) = 13.49922 7.21030 8.06972
#
# Compressibility (1/GPa) = 0.01718094
#
# Stress axis : x y z
#
# Youngs Moduli (GPa) = 156.91354 203.38920 63.69113
#
# Poissons Ratio (x) = 0.35300 0.01939
# Poissons Ratio (y) = 0.27233 0.18246
# Poissons Ratio (z) = 0.04776 0.58267
#
# Static dielectric constant tensor:
#      x y z
#    x 1.984780 0.000000 0.000000 
#    y 0.000000 1.821750 0.000000 
#    z 0.000000 0.000000 1.883300 
# 
# From -- ./inp_files/24854.got.cif
#   From: 2010.05.17/outbox.cif.g08.bks.cpg/sg43_13_cif.got.tgz:24854.got - 2010.06.03 19:21:55.
