data_PCOD9371161
_publ_section_title
;
Structure prediction by ZEFSAII (Michael W. Deem and Ramdas Pophale) SiO2 
 PCOD9371161
Probable space group: F D D 2
;
_chemical_formula_sum "Si O2"
_cell_formula_units_Z 96
_cell_length_a 11.220584
_cell_length_b 27.511797
_cell_length_c 16.768260
_cell_angle_alpha 90.000000
_cell_angle_beta 90.000000
_cell_angle_gamma 90.000000
_cell_volume 5176.335523
_symmetry_space_group_name_H-M "F D D 2"
_symmetry_group_IT_number 43
_symmetry_cell_setting 'orthorhombic'
loop_
_space_group_symop_operation_xyz
x,y,z
-x,-y,z
1/4-x,1/4+y,1/4+z
1/4+x,1/4-y,1/4+z
x,1/2+y,1/2+z
-x,1/2-y,1/2+z
1/4-x,3/4+y,3/4+z
1/4+x,3/4-y,3/4+z
1/2+x,y,1/2+z
1/2-x,-y,1/2+z
3/4-x,1/4+y,3/4+z
3/4+x,1/4-y,3/4+z
1/2+x,1/2+y,z
1/2-x,1/2-y,z
3/4-x,3/4+y,1/4+z
3/4+x,3/4-y,1/4+z
loop_
_atom_site_type_symbol
_atom_site_label
_atom_site_fract_x
_atom_site_fract_y
_atom_site_fract_z
Si Si1 0.090064 0.817117 0.165750
Si Si2 0.960694 0.728768 0.832769
Si Si3 0.000000 0.500000 0.807946
Si Si4 0.398906 0.832848 0.529469
Si Si5 0.585434 0.429343 0.179579
Si Si6 0.939071 0.667766 0.377418
Si Si7 0.750000 0.750000 0.944815
O O1 0.067351 0.785157 0.243078
O O2 0.189382 0.790859 0.112436
O O3 0.113744 0.872546 0.194448
O O4 0.977190 0.819382 0.106621
O O5 0.844932 0.722368 0.888550
O O6 0.071374 0.697067 0.863872
O O7 0.998657 0.784513 0.843368
O O8 0.910933 0.531186 0.751160
O O9 0.317103 0.876589 0.560343
O O10 0.489448 0.847107 0.457652
O O11 0.322270 0.788071 0.497947
O O12 0.447664 0.430086 0.150985
#
# Coordination Sequence:
#
# PCOD9371161 Si02
#       7
#    16  16   8  16  16  16   8
#     4  11  24  37  65  98 120 163 218 257 305 392
#     4  11  22  42  62  89 131 162 205 251 320 367
#     4  12  19  42  63  90 132 162 206 270 315 360
#     4  10  22  41  64  90 127 161 217 254 312 369
#     4  11  21  41  66  92 122 169 209 259 316 372
#     4  10  21  40  66  92 122 165 207 266 301 375
#     4  10  23  46  57  90 132 170 192 266 313 378
#
# _framework density 18.545938
#
# number of rings (size 3 to 8) (size 9 to 14) (size 15 to 20)
#    0.000    1.333    3.333    2.500    7.000    1.333 
#   12.000    0.000    0.000    0.000    0.000    0.000 
#    0.000    0.000    0.000    0.000    0.000    0.000 
#
# Total GULP energy -133960.460493 kJ/mol
# GULP energy per Si atom -5581.685854 kJ/mol
# Density = 1.850373 g / cm^3
# Si number density = 18.545938 Si / 1000 Ang^3
#
#
#
# Elastic Constant Matrix: (Units=GPa)
#
#
# Indices 1 2 3 4 5 6 
#
# 1 44.2338 4.7584 7.6896 0.0000 0.0000 0.0000
# 2 4.7584 73.4099 30.6122 0.0000 0.0000 0.0000
# 3 7.6896 30.6122 88.0565 0.0000 0.0000 0.0000
# 4 0.0000 0.0000 0.0000 -3.2996 0.0000 0.0000
# 5 0.0000 0.0000 0.0000 0.0000 16.6818 0.0000
# 6 0.0000 0.0000 0.0000 0.0000 0.0000 20.4155
#
#
#
# Elastic Compliance Matrix: (Units=1/GPa)
#
#
# Indices 1 2 3 4 5 6 
#
# 1 0.022992 -0.000764 -0.001742 0.000000 0.000000 0.000000
# 2 -0.000764 0.015957 -0.005481 0.000000 0.000000 0.000000
# 3 -0.001742 -0.005481 0.013414 0.000000 0.000000 0.000000
# 4 0.000000 0.000000 0.000000 -0.303063 0.000000 0.000000
# 5 0.000000 0.000000 0.000000 0.000000 0.059946 0.000000
# 6 0.000000 0.000000 0.000000 0.000000 0.000000 0.048982
#
#
# Mechanical properties :
#
#
# Convention : Reuss Voigt Hill
#
# Bulk Modulus (GPa) = 27.48040 32.42453 29.95247
# Shear Modulus (GPa) = -43.98741 17.60219 -13.19261
#
# Velocity S-wave (km/s) = -4.87540 3.08411 -2.67000
# Velocity P-wave (km/s) = 4.10404 5.49578 2.58462
#
# Compressibility (1/GPa) = 0.03638957
#
# Stress axis : x y z
#
# Youngs Moduli (GPa) = 43.49301 62.66798 74.55007
#
# Poissons Ratio (x) = 0.04787 0.12989
# Poissons Ratio (y) = 0.03322 0.40858
# Poissons Ratio (z) = 0.07578 0.34346
#
# Static dielectric constant tensor:
#      x y z
#    x 1.653920 0.000000 0.000000 
#    y 0.000000 1.659210 0.000000 
#    z 0.000000 0.000000 1.617290 
# 
# From -- ./inp_files/9744.got.cif
#   From: 2010.05.17/outbox.cif.g08.bks.cpg/sg43_5_cif.got.tgz:9744.got - 2010.06.03 19:21:55.
