data_PCOD9371139
_publ_section_title
;
Structure prediction by ZEFSAII (Michael W. Deem and Ramdas Pophale) SiO2 
 PCOD9371139
Probable space group: F D D 2
;
_chemical_formula_sum "Si O2"
_cell_formula_units_Z 120
_cell_length_a 17.619095
_cell_length_b 12.617647
_cell_length_c 22.783301
_cell_angle_alpha 90.000000
_cell_angle_beta 90.000000
_cell_angle_gamma 90.000000
_cell_volume 5064.990303
_symmetry_space_group_name_H-M "F D D 2"
_symmetry_group_IT_number 43
_symmetry_cell_setting 'orthorhombic'
loop_
_space_group_symop_operation_xyz
x,y,z
-x,-y,z
1/4-x,1/4+y,1/4+z
1/4+x,1/4-y,1/4+z
x,1/2+y,1/2+z
-x,1/2-y,1/2+z
1/4-x,3/4+y,3/4+z
1/4+x,3/4-y,3/4+z
1/2+x,y,1/2+z
1/2-x,-y,1/2+z
3/4-x,1/4+y,3/4+z
3/4+x,1/4-y,3/4+z
1/2+x,1/2+y,z
1/2-x,1/2-y,z
3/4-x,3/4+y,1/4+z
3/4+x,3/4-y,1/4+z
loop_
_atom_site_type_symbol
_atom_site_label
_atom_site_fract_x
_atom_site_fract_y
_atom_site_fract_z
Si Si1 0.247415 0.986235 0.613980
Si Si2 0.057924 0.337563 0.558136
Si Si3 0.625632 0.364063 0.296491
Si Si4 0.892265 0.768619 0.014030
Si Si5 0.000000 0.000000 0.849866
Si Si6 0.521375 0.881323 0.688032
Si Si7 0.493150 0.611815 0.463475
Si Si8 0.651665 0.504162 0.994560
O O1 0.167677 0.042971 0.594623
O O2 0.277968 0.050689 0.669848
O O3 0.299242 0.993381 0.555551
O O4 0.246039 0.863015 0.631320
O O5 0.117808 0.239808 0.559712
O O6 0.053167 0.383038 0.623136
O O7 0.083227 0.427368 0.512618
O O8 0.973348 0.298354 0.542423
O O9 0.580068 0.343784 0.236642
O O10 0.710710 0.343864 0.273847
O O11 0.825169 0.749042 0.059481
O O12 0.868183 0.875052 0.979658
O O13 0.911236 0.661430 0.978585
O O14 0.449788 0.803415 0.694418
O O15 0.500000 0.000000 0.705106
O O16 0.500000 0.500000 0.431623
#
# Coordination Sequence:
#
# PCOD9371139 Si02
#       8
#    16  16  16  16   8  16  16  16
#     4  10  23  40  70  96 131 183 219 282 353 407
#     4  11  22  39  65  98 141 174 230 291 349 415
#     4  10  23  41  61 102 135 173 228 291 336 427
#     4  10  23  43  64  93 130 184 223 288 342 415
#     4  10  22  48  66  88 136 172 230 274 342 428
#     4  11  21  36  64  96 136 187 225 286 361 407
#     4  11  24  41  67  98 132 176 227 278 353 415
#     4  10  21  40  62  96 135 172 233 284 339 427
#
# _framework density 23.692050999999999
#
# number of rings (size 3 to 8) (size 9 to 14) (size 15 to 20)
#    0.000    1.600    1.333    2.800    3.733    2.133 
#    4.800    0.000    0.000    0.000    0.000    0.000 
#    0.000    0.000    0.000    0.000    0.000    0.000 
#
# Total GULP energy -167596.141129 kJ/mol
# GULP energy per Si atom -5586.538038 kJ/mol
# Density = 2.363813 g / cm^3
# Si number density = 23.692051 Si / 1000 Ang^3
#
#
#
# Elastic Constant Matrix: (Units=GPa)
#
#
# Indices 1 2 3 4 5 6 
#
# 1 89.3236 46.1089 13.2594 0.0000 0.0000 0.0000
# 2 46.1089 189.5962 14.5815 0.0000 0.0000 0.0000
# 3 13.2594 14.5815 35.0868 0.0000 0.0000 0.0000
# 4 0.0000 0.0000 0.0000 13.2561 0.0000 0.0000
# 5 0.0000 0.0000 0.0000 0.0000 20.5329 0.0000
# 6 0.0000 0.0000 0.0000 0.0000 0.0000 36.8058
#
#
#
# Elastic Compliance Matrix: (Units=1/GPa)
#
#
# Indices 1 2 3 4 5 6 
#
# 1 0.013274 -0.002936 -0.003796 0.000000 0.000000 0.000000
# 2 -0.002936 0.006098 -0.001425 0.000000 0.000000 0.000000
# 3 -0.003796 -0.001425 0.030527 0.000000 0.000000 0.000000
# 4 0.000000 0.000000 0.000000 0.075437 0.000000 0.000000
# 5 0.000000 0.000000 0.000000 0.000000 0.048702 0.000000
# 6 0.000000 0.000000 0.000000 0.000000 0.000000 0.027170
#
#
# Mechanical properties :
#
#
# Convention : Reuss Voigt Hill
#
# Bulk Modulus (GPa) = 29.77457 51.32292 40.54875
# Shear Modulus (GPa) = 21.86095 30.12274 25.99185
#
# Velocity S-wave (km/s) = 3.04091 3.56958 3.31580
# Velocity P-wave (km/s) = 4.99241 6.22083 5.64016
#
# Compressibility (1/GPa) = 0.03358571
#
# Stress axis : x y z
#
# Youngs Moduli (GPa) = 75.33241 163.98734 32.75744
#
# Poissons Ratio (x) = 0.48152 0.12435
# Poissons Ratio (y) = 0.22120 0.04667
# Poissons Ratio (z) = 0.28598 0.23361
#
# Static dielectric constant tensor:
#      x y z
#    x 1.998950 0.000000 0.000000 
#    y 0.000000 1.980100 0.000000 
#    z 0.000000 0.000000 1.850360 
# 
# From -- ./inp_files/26093.got.cif
#   From: 2010.05.17/outbox.cif.g08.bks.cpg/sg43_14_cif.got.tgz:26093.got - 2010.06.03 19:21:55.
