data_PCOD9371324
_publ_section_title
;
Structure prediction by ZEFSAII (Michael W. Deem and Ramdas Pophale) SiO2 
 PCOD9371324
Probable space group: F D D 2
;
_chemical_formula_sum "Si O2"
_cell_formula_units_Z 80
_cell_length_a 23.120246
_cell_length_b 15.487435
_cell_length_c 9.707707
_cell_angle_alpha 90.000000
_cell_angle_beta 90.000000
_cell_angle_gamma 90.000000
_cell_volume 3476.070750
_symmetry_space_group_name_H-M "F D D 2"
_symmetry_group_IT_number 43
_symmetry_cell_setting 'orthorhombic'
loop_
_space_group_symop_operation_xyz
x,y,z
-x,-y,z
1/4-x,1/4+y,1/4+z
1/4+x,1/4-y,1/4+z
x,1/2+y,1/2+z
-x,1/2-y,1/2+z
1/4-x,3/4+y,3/4+z
1/4+x,3/4-y,3/4+z
1/2+x,y,1/2+z
1/2-x,-y,1/2+z
3/4-x,1/4+y,3/4+z
3/4+x,1/4-y,3/4+z
1/2+x,1/2+y,z
1/2-x,1/2-y,z
3/4-x,3/4+y,1/4+z
3/4+x,3/4-y,1/4+z
loop_
_atom_site_type_symbol
_atom_site_label
_atom_site_fract_x
_atom_site_fract_y
_atom_site_fract_z
Si Si1 0.068239 0.571960 0.630810
Si Si2 0.140575 0.502136 0.384675
Si Si3 0.548285 0.385524 0.229155
Si Si4 0.517421 0.368377 0.531648
Si Si5 0.653940 0.284401 0.326518
O O1 0.096173 0.547627 0.485782
O O2 0.104728 0.653484 0.681326
O O3 0.068715 0.486576 0.726471
O O4 0.002354 0.606491 0.616015
O O5 0.203590 0.546463 0.377152
O O6 0.120504 0.513952 0.227541
O O7 0.514169 0.355304 0.367395
O O8 0.603029 0.322199 0.230920
O O9 0.563351 0.447529 0.533533
O O10 0.455026 0.395541 0.584725
#
# Coordination Sequence:
#
# PCOD9371324 Si02
#       5
#    16  16  16  16  16
#     4  11  24  45  63 103 137 175 222 291 345 409
#     4  11  24  44  66  99 142 170 225 285 353 402
#     4  10  25  42  68  98 138 176 230 282 344 410
#     4  10  22  44  71  96 130 186 231 271 338 422
#     4  10  21  44  71  94 129 183 228 279 328 423
#
# _framework density 23.014491
#
# number of rings (size 3 to 8) (size 9 to 14) (size 15 to 20)
#    0.000    1.600    2.000    2.400    5.600    6.400 
#    3.600    0.000    0.000    0.000    0.000    0.000 
#    0.000    0.000    0.000    0.000    0.000    0.000 
#
# Total GULP energy -111631.110330 kJ/mol
# GULP energy per Si atom -5581.555517 kJ/mol
# Density = 2.296211 g / cm^3
# Si number density = 23.014491 Si / 1000 Ang^3
#
#
#
# Elastic Constant Matrix: (Units=GPa)
#
#
# Indices 1 2 3 4 5 6 
#
# 1 80.6809 45.1127 8.6628 0.0000 0.0000 0.0000
# 2 45.1127 80.8058 19.0551 0.0000 0.0000 0.0000
# 3 8.6628 19.0551 49.0059 0.0000 0.0000 0.0000
# 4 0.0000 0.0000 0.0000 26.2743 0.0000 0.0000
# 5 0.0000 0.0000 0.0000 0.0000 28.8872 0.0000
# 6 0.0000 0.0000 0.0000 0.0000 0.0000 34.2397
#
#
#
# Elastic Compliance Matrix: (Units=1/GPa)
#
#
# Indices 1 2 3 4 5 6 
#
# 1 0.018048 -0.010265 0.000801 0.000000 0.000000 0.000000
# 2 -0.010265 0.019463 -0.005753 0.000000 0.000000 0.000000
# 3 0.000801 -0.005753 0.022501 0.000000 0.000000 0.000000
# 4 0.000000 0.000000 0.000000 0.038060 0.000000 0.000000
# 5 0.000000 0.000000 0.000000 0.000000 0.034617 0.000000
# 6 0.000000 0.000000 0.000000 0.000000 0.000000 0.029206
#
#
# Mechanical properties :
#
#
# Convention : Reuss Voigt Hill
#
# Bulk Modulus (GPa) = 33.80925 39.57265 36.69095
# Shear Modulus (GPa) = 24.72936 27.05771 25.89353
#
# Velocity S-wave (km/s) = 3.28153 3.43254 3.35789
# Velocity P-wave (km/s) = 5.39261 5.73949 5.56875
#
# Compressibility (1/GPa) = 0.02957771
#
# Stress axis : x y z
#
# Youngs Moduli (GPa) = 55.40745 51.38018 44.44218
#
# Poissons Ratio (x) = 0.52741 -0.03559
# Poissons Ratio (y) = 0.56875 0.25569
# Poissons Ratio (z) = -0.04438 0.29560
#
# Static dielectric constant tensor:
#      x y z
#    x 1.894620 0.000000 0.000000 
#    y 0.000000 1.934590 0.000000 
#    z 0.000000 0.000000 1.864160 
# 
# From -- ./inp_files/4147.got.cif
#   From: 2010.05.17/outbox.cif.g08.bks.cpg/sg43_3_cif.got.tgz:4147.got - 2010.06.03 19:21:55.
