data_PCOD9371903
_publ_section_title
;
Structure prediction by ZEFSAII (Michael W. Deem and Ramdas Pophale) SiO2 
 PCOD9371903
Probable space group: F D D 2
;
_chemical_formula_sum "Si O2"
_cell_formula_units_Z 88
_cell_length_a 29.538727
_cell_length_b 5.929147
_cell_length_c 21.585305
_cell_angle_alpha 90.000000
_cell_angle_beta 90.000000
_cell_angle_gamma 90.000000
_cell_volume 3780.438545
_symmetry_space_group_name_H-M "F D D 2"
_symmetry_group_IT_number 43
_symmetry_cell_setting 'orthorhombic'
loop_
_space_group_symop_operation_xyz
x,y,z
-x,-y,z
1/4-x,1/4+y,1/4+z
1/4+x,1/4-y,1/4+z
x,1/2+y,1/2+z
-x,1/2-y,1/2+z
1/4-x,3/4+y,3/4+z
1/4+x,3/4-y,3/4+z
1/2+x,y,1/2+z
1/2-x,-y,1/2+z
3/4-x,1/4+y,3/4+z
3/4+x,1/4-y,3/4+z
1/2+x,1/2+y,z
1/2-x,1/2-y,z
3/4-x,3/4+y,1/4+z
3/4+x,3/4-y,1/4+z
loop_
_atom_site_type_symbol
_atom_site_label
_atom_site_fract_x
_atom_site_fract_y
_atom_site_fract_z
Si Si1 0.951784 0.373351 0.922860
Si Si2 0.411992 0.562591 0.826176
Si Si3 0.000000 0.500000 0.631380
Si Si4 0.209542 0.404221 0.980325
Si Si5 0.669706 0.142498 0.793325
Si Si6 0.631167 0.798316 0.893615
O O1 0.947482 0.230808 0.858671
O O2 0.909952 0.550763 0.920366
O O3 0.000000 0.500000 0.927811
O O4 0.942441 0.208113 0.981402
O O5 0.431886 0.333576 0.794383
O O6 0.374943 0.701844 0.786772
O O7 0.384143 0.453733 0.881477
O O8 0.018908 0.323734 0.681767
O O9 0.042560 0.526198 0.584387
O O10 0.250000 0.250000 0.000789
O O11 0.172825 0.280050 0.939415
O O12 0.651809 0.931586 0.834462
#
# Coordination Sequence:
#
# PCOD9371903 Si02
#       6
#    16  16   8  16  16  16
#     4  11  26  43  68 104 145 185 238 296 364 434
#     4  11  24  43  70  99 144 186 237 292 364 427
#     4  10  24  44  70 100 140 180 242 290 350 424
#     4  11  24  41  68 101 135 184 233 288 355 426
#     4  10  23  44  69 101 140 190 239 298 355 434
#     4  10  23  44  69  98 138 185 241 296 363 429
#
# _framework density 23.277723000000002
#
# number of rings (size 3 to 8) (size 9 to 14) (size 15 to 20)
#    0.000    1.455    0.000    3.273    2.545   13.091 
#    0.000    0.000    0.000    0.000    0.000    0.000 
#    0.000    0.000    0.000    0.000    0.000    0.000 
#
# Total GULP energy -122565.700279 kJ/mol
# GULP energy per Si atom -5571.168194 kJ/mol
# Density = 2.322474 g / cm^3
# Si number density = 23.277723 Si / 1000 Ang^3
#
#
#
# Elastic Constant Matrix: (Units=GPa)
#
#
# Indices 1 2 3 4 5 6 
#
# 1 138.9862 42.3692 72.1171 0.0006 0.0000 0.0003
# 2 42.3692 52.0093 34.3136 -0.0006 0.0009 0.0015
# 3 72.1171 34.3136 99.8243 -0.0002 0.0002 0.0001
# 4 0.0006 -0.0006 -0.0002 25.0587 0.0000 -0.0004
# 5 0.0000 0.0009 0.0002 0.0000 40.7551 0.0002
# 6 0.0003 0.0015 0.0001 -0.0004 0.0002 30.1877
#
#
#
# Elastic Compliance Matrix: (Units=1/GPa)
#
#
# Indices 1 2 3 4 5 6 
#
# 1 0.012626 -0.005519 -0.007224 0.000000 0.000000 0.000000
# 2 -0.005519 0.027280 -0.005390 0.000001 -0.000001 -0.000001
# 3 -0.007224 -0.005390 0.017089 0.000000 0.000000 0.000000
# 4 0.000000 0.000001 0.000000 0.039906 0.000000 0.000000
# 5 0.000000 -0.000001 0.000000 0.000000 0.024537 0.000000
# 6 0.000000 -0.000001 0.000000 0.000000 0.000000 0.033126
#
#
# Mechanical properties :
#
#
# Convention : Reuss Voigt Hill
#
# Bulk Modulus (GPa) = 48.24337 65.37996 56.81166
# Shear Modulus (GPa) = 25.28568 28.66831 26.97699
#
# Velocity S-wave (km/s) = 3.29942 3.51319 3.40798
# Velocity P-wave (km/s) = 5.94012 6.67867 6.32019
#
# Compressibility (1/GPa) = 0.02072824
#
# Stress axis : x y z
#
# Youngs Moduli (GPa) = 79.20091 36.65746 58.51588
#
# Poissons Ratio (x) = 0.20233 0.42274
# Poissons Ratio (y) = 0.43715 0.31538
# Poissons Ratio (z) = 0.57218 0.19757
#
# Static dielectric constant tensor:
#      x y z
#    x 1.817760 0.000000 0.000000 
#    y 0.000000 2.014860 0.000000 
#    z 0.000000 0.000000 1.896800 
# 
# From -- ./inp_files/22940.got.cif
#   From: 2010.05.17/outbox.cif.g08.bks.cpg/sg43_12_cif.got.tgz:22940.got - 2010.06.03 19:21:55.
