data_PCOD9371711
_publ_section_title
;
Structure prediction by ZEFSAII (Michael W. Deem and Ramdas Pophale) SiO2 
 PCOD9371711
Probable space group: F D D 2
;
_chemical_formula_sum "Si O2"
_cell_formula_units_Z 104
_cell_length_a 21.441177
_cell_length_b 9.371904
_cell_length_c 19.259454
_cell_angle_alpha 90.000000
_cell_angle_beta 90.000000
_cell_angle_gamma 90.000000
_cell_volume 3870.084291
_symmetry_space_group_name_H-M "F D D 2"
_symmetry_group_IT_number 43
_symmetry_cell_setting 'orthorhombic'
loop_
_space_group_symop_operation_xyz
x,y,z
-x,-y,z
1/4-x,1/4+y,1/4+z
1/4+x,1/4-y,1/4+z
x,1/2+y,1/2+z
-x,1/2-y,1/2+z
1/4-x,3/4+y,3/4+z
1/4+x,3/4-y,3/4+z
1/2+x,y,1/2+z
1/2-x,-y,1/2+z
3/4-x,1/4+y,3/4+z
3/4+x,1/4-y,3/4+z
1/2+x,1/2+y,z
1/2-x,1/2-y,z
3/4-x,3/4+y,1/4+z
3/4+x,3/4-y,1/4+z
loop_
_atom_site_type_symbol
_atom_site_label
_atom_site_fract_x
_atom_site_fract_y
_atom_site_fract_z
Si Si1 0.469864 0.764802 0.240400
Si Si2 0.206790 0.627766 0.687134
Si Si3 0.939126 0.087484 0.357880
Si Si4 0.250000 0.750000 0.382737
Si Si5 0.554405 0.308157 0.512760
Si Si6 0.634612 0.562193 0.013242
Si Si7 0.109353 0.404847 0.637470
O O1 0.562552 0.265828 0.314997
O O2 0.464718 0.893221 0.185016
O O3 0.542896 0.775150 0.260980
O O4 0.559963 0.366826 0.195998
O O5 0.250000 0.750000 0.649866
O O6 0.252026 0.563201 0.746665
O O7 0.146175 0.722417 0.702349
O O8 0.174301 0.481045 0.661077
O O9 0.943344 0.104900 0.440710
O O10 0.879497 0.988476 0.346658
O O11 0.000000 0.000000 0.333759
O O12 0.210429 0.651355 0.329939
O O13 0.620223 0.227989 0.514224
O O14 0.591738 0.512672 0.077929
#
# Coordination Sequence:
#
# PCOD9371711 Si02
#       7
#    16  16  16   8  16  16  16
#     4  12  30  51  82 131 175 225 312 377 457 556
#     4  10  22  44  75 117 155 216 288 351 435 541
#     4  12  24  52  83 116 165 234 292 364 457 562
#     4  12  28  52  78 130 178 236 310 386 444 558
#     4  11  24  51  83 114 172 231 298 365 463 543
#     4  11  26  48  76 124 167 229 282 385 451 543
#     4  12  25  48  83 116 169 229 287 363 468 548
#
# _framework density 26.872798
#
# number of rings (size 3 to 8) (size 9 to 14) (size 15 to 20)
#    0.000    0.615    3.846    1.846    4.308    1.231 
#   11.077    0.000    0.000    0.000    0.000    0.000 
#    0.000    0.000    0.000    0.000    0.000    0.000 
#
# Total GULP energy -145125.813833 kJ/mol
# GULP energy per Si atom -5581.762070 kJ/mol
# Density = 2.681163 g / cm^3
# Si number density = 26.872798 Si / 1000 Ang^3
#
#
#
# Elastic Constant Matrix: (Units=GPa)
#
#
# Indices 1 2 3 4 5 6 
#
# 1 100.1700 54.0462 31.2748 0.0000 0.0000 0.0000
# 2 54.0462 144.4457 72.4636 0.0000 0.0000 0.0000
# 3 31.2748 72.4636 124.2681 0.0000 0.0000 0.0000
# 4 0.0000 0.0000 0.0000 60.0962 0.0000 0.0000
# 5 0.0000 0.0000 0.0000 0.0000 22.2084 0.0000
# 6 0.0000 0.0000 0.0000 0.0000 0.0000 39.9074
#
#
#
# Elastic Compliance Matrix: (Units=1/GPa)
#
#
# Indices 1 2 3 4 5 6 
#
# 1 0.012539 -0.004394 -0.000594 0.000000 0.000000 0.000000
# 2 -0.004394 0.011325 -0.005498 0.000000 0.000000 0.000000
# 3 -0.000594 -0.005498 0.011403 0.000000 0.000000 0.000000
# 4 0.000000 0.000000 0.000000 0.016640 0.000000 0.000000
# 5 0.000000 0.000000 0.000000 0.000000 0.045028 0.000000
# 6 0.000000 0.000000 0.000000 0.000000 0.000000 0.025058
#
#
# Mechanical properties :
#
#
# Convention : Reuss Voigt Hill
#
# Bulk Modulus (GPa) = 69.95127 76.05034 73.00080
# Shear Modulus (GPa) = 33.84565 38.51569 36.18067
#
# Velocity S-wave (km/s) = 3.55276 3.78995 3.67327
# Velocity P-wave (km/s) = 6.55107 6.89298 6.72420
#
# Compressibility (1/GPa) = 0.01429567
#
# Stress axis : x y z
#
# Youngs Moduli (GPa) = 79.75098 88.29774 87.69892
#
# Poissons Ratio (x) = 0.38797 0.05205
# Poissons Ratio (y) = 0.35042 0.48219
# Poissons Ratio (z) = 0.04734 0.48548
#
# Static dielectric constant tensor:
#      x y z
#    x 2.120960 0.000000 0.000000 
#    y 0.000000 2.201570 0.000000 
#    z 0.000000 0.000000 2.179620 
# 
# From -- ./inp_files/18982.got.cif
#   From: 2010.05.17/outbox.cif.g08.bks.cpg/sg43_10_cif.got.tgz:18982.got - 2010.06.03 19:21:55.
