data_PCOD9371144
_publ_section_title
;
Structure prediction by ZEFSAII (Michael W. Deem and Ramdas Pophale) SiO2 
 PCOD9371144
Probable space group: F D D 2
;
_chemical_formula_sum "Si O2"
_cell_formula_units_Z 112
_cell_length_a 31.598499
_cell_length_b 15.657497
_cell_length_c 9.420947
_cell_angle_alpha 90.000000
_cell_angle_beta 90.000000
_cell_angle_gamma 90.000000
_cell_volume 4661.045591
_symmetry_space_group_name_H-M "F D D 2"
_symmetry_group_IT_number 43
_symmetry_cell_setting 'orthorhombic'
loop_
_space_group_symop_operation_xyz
x,y,z
-x,-y,z
1/4-x,1/4+y,1/4+z
1/4+x,1/4-y,1/4+z
x,1/2+y,1/2+z
-x,1/2-y,1/2+z
1/4-x,3/4+y,3/4+z
1/4+x,3/4-y,3/4+z
1/2+x,y,1/2+z
1/2-x,-y,1/2+z
3/4-x,1/4+y,3/4+z
3/4+x,1/4-y,3/4+z
1/2+x,1/2+y,z
1/2-x,1/2-y,z
3/4-x,3/4+y,1/4+z
3/4+x,3/4-y,1/4+z
loop_
_atom_site_type_symbol
_atom_site_label
_atom_site_fract_x
_atom_site_fract_y
_atom_site_fract_z
Si Si1 0.650673 0.813515 0.563930
Si Si2 0.530615 0.579812 0.064445
Si Si3 0.243635 0.538050 0.001415
Si Si4 0.166901 0.498360 0.623967
Si Si5 0.324374 0.087972 0.077453
Si Si6 0.652549 0.554258 0.813022
Si Si7 0.787721 0.314948 0.212402
O O1 0.681189 0.821134 0.426317
O O2 0.603932 0.800832 0.501058
O O3 0.672995 0.740477 0.655176
O O4 0.654138 0.900516 0.650271
O O5 0.500000 0.500000 0.081076
O O6 0.509618 0.670302 0.106377
O O7 0.547174 0.589847 0.906499
O O8 0.283425 0.500123 0.088334
O O9 0.206714 0.469556 0.984304
O O10 0.228552 0.621784 0.088568
O O11 0.145351 0.521871 0.472433
O O12 0.363409 0.138169 0.012554
O O13 0.340365 0.022308 0.201512
O O14 0.693136 0.617312 0.822473
O O15 0.750000 0.250000 0.252685
#
# Coordination Sequence:
#
# PCOD9371144 Si02
#       7
#    16  16  16  16  16  16  16
#     4  11  21  37  67  89 127 161 216 251 309 380
#     4  11  19  40  67  90 121 165 209 263 305 368
#     4  10  21  40  64  88 127 160 212 255 316 370
#     4  11  21  41  62  93 120 167 205 262 314 375
#     4  11  24  44  62  91 127 170 204 260 320 378
#     4  11  23  42  65  87 133 166 200 264 323 372
#     4  11  21  43  64  92 126 168 211 265 316 375
#
# _framework density 24.028942000000001
#
# number of rings (size 3 to 8) (size 9 to 14) (size 15 to 20)
#    0.000    1.143    8.571    0.000    0.000    3.429 
#    7.714    0.000    0.000    0.000    0.000    0.000 
#    0.000    0.000    0.000    0.000    0.000    0.000 
#
# Total GULP energy -156656.173503 kJ/mol
# GULP energy per Si atom -5594.863339 kJ/mol
# Density = 2.397425 g / cm^3
# Si number density = 24.028942 Si / 1000 Ang^3
#
#
#
# Elastic Constant Matrix: (Units=GPa)
#
#
# Indices 1 2 3 4 5 6 
#
# 1 70.5175 33.1835 10.3246 0.0000 0.0000 0.0000
# 2 33.1835 72.4770 5.1304 0.0000 0.0000 0.0000
# 3 10.3246 5.1304 26.0480 0.0000 0.0000 0.0000
# 4 0.0000 0.0000 0.0000 10.9315 0.0000 0.0000
# 5 0.0000 0.0000 0.0000 0.0000 32.1226 0.0000
# 6 0.0000 0.0000 0.0000 0.0000 0.0000 42.9259
#
#
#
# Elastic Compliance Matrix: (Units=1/GPa)
#
#
# Indices 1 2 3 4 5 6 
#
# 1 0.018922 -0.008248 -0.005876 0.000000 0.000000 0.000000
# 2 -0.008248 0.017587 -0.000195 0.000000 0.000000 0.000000
# 3 -0.005876 -0.000195 0.040758 0.000000 0.000000 0.000000
# 4 0.000000 0.000000 0.000000 0.091479 0.000000 0.000000
# 5 0.000000 0.000000 0.000000 0.000000 0.031131 0.000000
# 6 0.000000 0.000000 0.000000 0.000000 0.000000 0.023296
#
#
# Mechanical properties :
#
#
# Convention : Reuss Voigt Hill
#
# Bulk Modulus (GPa) = 20.56294 29.59107 25.07700
# Shear Modulus (GPa) = 18.65532 25.22293 21.93912
#
# Velocity S-wave (km/s) = 2.78936 3.24341 3.02492
# Velocity P-wave (km/s) = 4.35318 5.13495 4.76014
#
# Compressibility (1/GPa) = 0.04863118
#
# Stress axis : x y z
#
# Youngs Moduli (GPa) = 52.84779 56.85873 24.53503
#
# Poissons Ratio (x) = 0.46895 0.14416
# Poissons Ratio (y) = 0.43587 0.00478
# Poissons Ratio (z) = 0.31052 0.01108
#
# Static dielectric constant tensor:
#      x y z
#    x 1.964860 0.000000 0.000000 
#    y 0.000000 1.900100 0.000000 
#    z 0.000000 0.000000 1.910980 
# 
# From -- ./inp_files/8279.got.cif
#   From: 2010.05.17/outbox.cif.g08.bks.cpg/sg43_5_cif.got.tgz:8279.got - 2010.06.03 19:21:55.
