data_PCOD9371656
_publ_section_title
;
Structure prediction by ZEFSAII (Michael W. Deem and Ramdas Pophale) SiO2 
 PCOD9371656
Probable space group: F D D 2
;
_chemical_formula_sum "Si O2"
_cell_formula_units_Z 88
_cell_length_a 15.493063
_cell_length_b 16.736984
_cell_length_c 15.293212
_cell_angle_alpha 90.000000
_cell_angle_beta 90.000000
_cell_angle_gamma 90.000000
_cell_volume 3965.639180
_symmetry_space_group_name_H-M "F D D 2"
_symmetry_group_IT_number 43
_symmetry_cell_setting 'orthorhombic'
loop_
_space_group_symop_operation_xyz
x,y,z
-x,-y,z
1/4-x,1/4+y,1/4+z
1/4+x,1/4-y,1/4+z
x,1/2+y,1/2+z
-x,1/2-y,1/2+z
1/4-x,3/4+y,3/4+z
1/4+x,3/4-y,3/4+z
1/2+x,y,1/2+z
1/2-x,-y,1/2+z
3/4-x,1/4+y,3/4+z
3/4+x,1/4-y,3/4+z
1/2+x,1/2+y,z
1/2-x,1/2-y,z
3/4-x,3/4+y,1/4+z
3/4+x,3/4-y,1/4+z
loop_
_atom_site_type_symbol
_atom_site_label
_atom_site_fract_x
_atom_site_fract_y
_atom_site_fract_z
Si Si1 0.062455 0.732953 0.173760
Si Si2 0.823821 0.696540 0.952612
Si Si3 0.098657 0.020604 0.064111
Si Si4 0.108739 0.708177 0.614537
Si Si5 0.757453 0.425946 0.091763
Si Si6 0.000000 0.500000 0.843643
O O1 0.037685 0.642242 0.195063
O O2 0.160633 0.741138 0.145386
O O3 0.993062 0.770624 0.108112
O O4 0.050581 0.777594 0.263405
O O5 0.750000 0.750000 0.906073
O O6 0.920323 0.685494 0.915288
O O7 0.839798 0.737570 0.045893
O O8 0.117587 0.114216 0.087421
O O9 0.167446 0.966859 0.117053
O O10 0.114187 0.988836 0.962807
O O11 0.000000 0.000000 0.085716
O O12 0.741495 0.337447 0.053216
#
# Coordination Sequence:
#
# PCOD9371656 Si02
#       6
#    16  16  16  16  16   8
#     4  10  24  42  64 101 133 181 235 289 359 430
#     4  11  24  40  73  98 140 183 237 299 357 429
#     4  11  25  46  72 105 147 193 241 306 364 446
#     4  11  25  44  71 106 147 187 250 297 372 430
#     4  10  24  42  68  98 133 176 236 290 362 431
#     4  10  22  44  62  94 128 176 224 286 356 424
#
# _framework density 22.190621
#
# number of rings (size 3 to 8) (size 9 to 14) (size 15 to 20)
#    0.000    1.455    0.000    3.818    8.909    4.364 
#   13.091    0.000    0.000    0.000    0.000    0.000 
#    0.000    0.000    0.000    0.000    0.000    0.000 
#
# Total GULP energy -122638.319667 kJ/mol
# GULP energy per Si atom -5574.469076 kJ/mol
# Density = 2.214011 g / cm^3
# Si number density = 22.190621 Si / 1000 Ang^3
#
#
#
# Elastic Constant Matrix: (Units=GPa)
#
#
# Indices 1 2 3 4 5 6 
#
# 1 125.1205 24.8226 4.6552 0.0000 0.0000 0.0000
# 2 24.8226 185.0936 19.9187 0.0000 0.0000 0.0000
# 3 4.6552 19.9187 25.6721 0.0000 0.0000 0.0000
# 4 0.0000 0.0000 0.0000 19.4460 0.0000 0.0000
# 5 0.0000 0.0000 0.0000 0.0000 26.7735 0.0000
# 6 0.0000 0.0000 0.0000 0.0000 0.0000 33.0929
#
#
#
# Elastic Compliance Matrix: (Units=1/GPa)
#
#
# Indices 1 2 3 4 5 6 
#
# 1 0.008222 -0.001028 -0.000693 0.000000 0.000000 0.000000
# 2 -0.001028 0.006023 -0.004487 0.000000 0.000000 0.000000
# 3 -0.000693 -0.004487 0.042560 0.000000 0.000000 0.000000
# 4 0.000000 0.000000 0.000000 0.051425 0.000000 0.000000
# 5 0.000000 0.000000 0.000000 0.000000 0.037350 0.000000
# 6 0.000000 0.000000 0.000000 0.000000 0.000000 0.030218
#
#
# Mechanical properties :
#
#
# Convention : Reuss Voigt Hill
#
# Bulk Modulus (GPa) = 22.52826 48.29769 35.41298
# Shear Modulus (GPa) = 24.62914 34.96177 29.79546
#
# Velocity S-wave (km/s) = 3.33511 3.97359 3.66827
# Velocity P-wave (km/s) = 5.00048 6.54711 5.82536
#
# Compressibility (1/GPa) = 0.04438868
#
# Stress axis : x y z
#
# Youngs Moduli (GPa) = 121.62434 166.01873 23.49620
#
# Poissons Ratio (x) = 0.17067 0.01629
# Poissons Ratio (y) = 0.12503 0.10543
# Poissons Ratio (z) = 0.08432 0.74494
#
# Static dielectric constant tensor:
#      x y z
#    x 1.913680 0.000000 0.000000 
#    y 0.000000 1.815880 0.000000 
#    z 0.000000 0.000000 1.860460 
# 
# From -- ./inp_files/14212.got.cif
#   From: 2010.05.17/outbox.cif.g08.bks.cpg/sg43_8_cif.got.tgz:14212.got - 2010.06.03 19:21:55.
