data_PCOD9371784
_publ_section_title
;
Structure prediction by ZEFSAII (Michael W. Deem and Ramdas Pophale) SiO2 
 PCOD9371784
Probable space group: F D D 2
;
_chemical_formula_sum "Si O2"
_cell_formula_units_Z 64
_cell_length_a 18.816007
_cell_length_b 17.293303
_cell_length_c 7.570061
_cell_angle_alpha 90.000000
_cell_angle_beta 90.000000
_cell_angle_gamma 90.000000
_cell_volume 2463.229040
_symmetry_space_group_name_H-M "F D D 2"
_symmetry_group_IT_number 43
_symmetry_cell_setting 'orthorhombic'
loop_
_space_group_symop_operation_xyz
x,y,z
-x,-y,z
1/4-x,1/4+y,1/4+z
1/4+x,1/4-y,1/4+z
x,1/2+y,1/2+z
-x,1/2-y,1/2+z
1/4-x,3/4+y,3/4+z
1/4+x,3/4-y,3/4+z
1/2+x,y,1/2+z
1/2-x,-y,1/2+z
3/4-x,1/4+y,3/4+z
3/4+x,1/4-y,3/4+z
1/2+x,1/2+y,z
1/2-x,1/2-y,z
3/4-x,3/4+y,1/4+z
3/4+x,3/4-y,1/4+z
loop_
_atom_site_type_symbol
_atom_site_label
_atom_site_fract_x
_atom_site_fract_y
_atom_site_fract_z
Si Si1 0.323805 0.702486 0.420670
Si Si2 0.975864 0.589021 0.618616
Si Si3 0.388417 0.791769 0.104143
Si Si4 0.845909 0.043758 0.953940
O O1 0.250000 0.750000 0.427572
O O2 0.366169 0.726900 0.242085
O O3 0.312778 0.610434 0.427107
O O4 0.376267 0.726586 0.579062
O O5 0.033389 0.655053 0.625840
O O6 0.000000 0.500000 0.588258
O O7 0.937364 0.582341 0.808072
O O8 0.914254 0.600019 0.476234
O O9 0.416707 0.770679 0.908681
#
# Coordination Sequence:
#
# PCOD9371784 Si02
#       4
#    16  16  16  16
#     4  12  26  46  74 106 145 195 248 304 382 453
#     4  10  22  48  72  99 148 191 232 310 378 434
#     4  10  25  43  74 101 146 188 245 303 375 446
#     4  10  25  43  74 102 143 192 241 303 373 437
#
# _framework density 25.982154000000001
#
# number of rings (size 3 to 8) (size 9 to 14) (size 15 to 20)
#    1.500    0.000    0.000    4.500    7.000    0.000 
#   13.500    0.000    0.000    0.000    0.000    0.000 
#    0.000    0.000    0.000    0.000    0.000    0.000 
#
# Total GULP energy -89431.124964 kJ/mol
# GULP energy per Si atom -5589.445310 kJ/mol
# Density = 2.592302 g / cm^3
# Si number density = 25.982154 Si / 1000 Ang^3
#
#
#
# Elastic Constant Matrix: (Units=GPa)
#
#
# Indices 1 2 3 4 5 6 
#
# 1 51.0718 -4.4153 7.9260 0.0000 0.0000 0.0000
# 2 -4.4153 82.3605 23.1765 0.0000 -0.0001 0.0000
# 3 7.9260 23.1765 133.0040 0.0007 -0.0005 -0.0001
# 4 0.0000 0.0000 0.0007 36.0274 -0.0002 0.0000
# 5 0.0000 -0.0001 -0.0005 -0.0002 30.3551 0.0000
# 6 0.0000 0.0000 -0.0001 0.0000 0.0000 36.4167
#
#
#
# Elastic Compliance Matrix: (Units=1/GPa)
#
#
# Indices 1 2 3 4 5 6 
#
# 1 0.019932 0.001475 -0.001445 0.000000 0.000000 0.000000
# 2 0.001475 0.012877 -0.002332 0.000000 0.000000 0.000000
# 3 -0.001445 -0.002332 0.008011 0.000000 0.000000 0.000000
# 4 0.000000 0.000000 0.000000 0.027757 0.000000 0.000000
# 5 0.000000 0.000000 0.000000 0.000000 0.032943 0.000000
# 6 0.000000 0.000000 0.000000 0.000000 0.000000 0.027460
#
#
# Mechanical properties :
#
#
# Convention : Reuss Voigt Hill
#
# Bulk Modulus (GPa) = 27.61131 35.53452 31.57292
# Shear Modulus (GPa) = 34.32760 36.54309 35.43535
#
# Velocity S-wave (km/s) = 3.63877 3.75436 3.69702
# Velocity P-wave (km/s) = 5.32018 5.70086 5.51381
#
# Compressibility (1/GPa) = 0.03621704
#
# Stress axis : x y z
#
# Youngs Moduli (GPa) = 50.17053 77.65789 124.82839
#
# Poissons Ratio (x) = -0.11456 0.18036
# Poissons Ratio (y) = -0.07401 0.29107
# Poissons Ratio (z) = 0.07249 0.18108
#
# Static dielectric constant tensor:
#      x y z
#    x 2.107130 0.000000 0.000000 
#    y 0.000000 2.082230 0.000000 
#    z 0.000000 0.000000 2.041520 
# 
# From -- ./inp_files/2606.got.cif
#   From: 2010.05.17/outbox.cif.g08.bks.cpg/sg43_2_cif.got.tgz:2606.got - 2010.06.03 19:21:55.
