data_PCOD9371724
_publ_section_title
;
Structure prediction by ZEFSAII (Michael W. Deem and Ramdas Pophale) SiO2 
 PCOD9371724
Probable space group: F D D 2
;
_chemical_formula_sum "Si O2"
_cell_formula_units_Z 88
_cell_length_a 18.159166
_cell_length_b 6.680133
_cell_length_c 31.307860
_cell_angle_alpha 90.000000
_cell_angle_beta 90.000000
_cell_angle_gamma 90.000000
_cell_volume 3797.820121
_symmetry_space_group_name_H-M "F D D 2"
_symmetry_group_IT_number 43
_symmetry_cell_setting 'orthorhombic'
loop_
_space_group_symop_operation_xyz
x,y,z
-x,-y,z
1/4-x,1/4+y,1/4+z
1/4+x,1/4-y,1/4+z
x,1/2+y,1/2+z
-x,1/2-y,1/2+z
1/4-x,3/4+y,3/4+z
1/4+x,3/4-y,3/4+z
1/2+x,y,1/2+z
1/2-x,-y,1/2+z
3/4-x,1/4+y,3/4+z
3/4+x,1/4-y,3/4+z
1/2+x,1/2+y,z
1/2-x,1/2-y,z
3/4-x,3/4+y,1/4+z
3/4+x,3/4-y,1/4+z
loop_
_atom_site_type_symbol
_atom_site_label
_atom_site_fract_x
_atom_site_fract_y
_atom_site_fract_z
Si Si1 0.916487 0.928069 0.224360
Si Si2 0.687349 0.423907 0.726893
Si Si3 0.163641 0.806422 0.880400
Si Si4 0.368625 0.274082 0.569475
Si Si5 0.250000 0.750000 0.291204
Si Si6 0.564009 0.162734 0.379949
O O1 0.890309 0.696411 0.229605
O O2 0.884310 0.995941 0.178440
O O3 0.892992 0.018606 0.269126
O O4 0.000000 0.000000 0.220614
O O5 0.750000 0.250000 0.732932
O O6 0.703865 0.597361 0.760742
O O7 0.692186 0.496788 0.677992
O O8 0.250000 0.750000 0.878361
O O9 0.122796 0.685718 0.843384
O O10 0.140248 0.037046 0.876342
O O11 0.449451 0.367296 0.571328
O O12 0.313760 0.419264 0.594187
O O13 0.500000 0.000000 0.374600
#
# Coordination Sequence:
#
# PCOD9371724 Si02
#       6
#    16  16  16  16   8  16
#     4  10  24  45  67  98 138 189 223 290 361 417
#     4  10  22  45  68  97 140 184 238 286 356 430
#     4  10  24  47  66  91 143 181 226 281 349 426
#     4  12  26  38  72 101 131 178 231 284 349 418
#     4  12  26  40  74 108 132 184 240 292 348 432
#     4  10  25  42  67 100 133 180 229 290 350 418
#
# _framework density 23.171187
#
# number of rings (size 3 to 8) (size 9 to 14) (size 15 to 20)
#    0.000    1.455    1.818    1.091   10.182    0.000 
#    0.000    0.000    2.000    0.000    0.000    0.000 
#    0.000    0.000    0.000    0.000    0.000    0.000 
#
# Total GULP energy -122841.610898 kJ/mol
# GULP energy per Si atom -5583.709586 kJ/mol
# Density = 2.311845 g / cm^3
# Si number density = 23.171187 Si / 1000 Ang^3
#
#
#
# Elastic Constant Matrix: (Units=GPa)
#
#
# Indices 1 2 3 4 5 6 
#
# 1 75.2358 17.7568 8.6036 0.0000 0.0000 0.0000
# 2 17.7568 67.0601 30.3917 0.0000 0.0000 0.0000
# 3 8.6036 30.3917 78.3760 0.0000 0.0000 0.0000
# 4 0.0000 0.0000 0.0000 -29.2658 0.0000 0.0000
# 5 0.0000 0.0000 0.0000 0.0000 31.8823 0.0000
# 6 0.0000 0.0000 0.0000 0.0000 0.0000 39.0585
#
#
#
# Elastic Compliance Matrix: (Units=1/GPa)
#
#
# Indices 1 2 3 4 5 6 
#
# 1 0.014179 -0.003699 -0.000122 0.000000 0.000000 0.000000
# 2 -0.003699 0.019056 -0.006983 0.000000 0.000000 0.000000
# 3 -0.000122 -0.006983 0.015480 0.000000 0.000000 0.000000
# 4 0.000000 0.000000 0.000000 -0.034170 0.000000 0.000000
# 5 0.000000 0.000000 0.000000 0.000000 0.031365 0.000000
# 6 0.000000 0.000000 0.000000 0.000000 0.000000 0.025603
#
#
# Mechanical properties :
#
#
# Convention : Reuss Voigt Hill
#
# Bulk Modulus (GPa) = 36.89180 37.13066 37.01123
# Shear Modulus (GPa) = 48.94383 19.26298 34.10341
#
# Velocity S-wave (km/s) = 4.60093 2.88641 3.84057
# Velocity P-wave (km/s) = 6.64686 5.21227 5.97279
#
# Compressibility (1/GPa) = 0.02710630
#
# Stress axis : x y z
#
# Youngs Moduli (GPa) = 70.52925 52.47603 64.59811
#
# Poissons Ratio (x) = 0.19411 0.00789
# Poissons Ratio (y) = 0.26089 0.45111
# Poissons Ratio (z) = 0.00861 0.36646
#
# Static dielectric constant tensor:
#      x y z
#    x 2.334550 0.000000 0.000000 
#    y 0.000000 1.866100 0.000000 
#    z 0.000000 0.000000 1.853260 
# 
# From -- ./inp_files/27253.got.cif
#   From: 2010.05.17/outbox.cif.g08.bks.cpg/sg43_14_cif.got.tgz:27253.got - 2010.06.03 19:21:55.
