data_PCOD9371038
_publ_section_title
;
Structure prediction by ZEFSAII (Michael W. Deem and Ramdas Pophale) SiO2 
 PCOD9371038
Probable space group: F D D 2
;
_chemical_formula_sum "Si O2"
_cell_formula_units_Z 80
_cell_length_a 23.603513
_cell_length_b 11.509620
_cell_length_c 12.463465
_cell_angle_alpha 90.000000
_cell_angle_beta 90.000000
_cell_angle_gamma 90.000000
_cell_volume 3385.917945
_symmetry_space_group_name_H-M "F D D 2"
_symmetry_group_IT_number 43
_symmetry_cell_setting 'orthorhombic'
loop_
_space_group_symop_operation_xyz
x,y,z
-x,-y,z
1/4-x,1/4+y,1/4+z
1/4+x,1/4-y,1/4+z
x,1/2+y,1/2+z
-x,1/2-y,1/2+z
1/4-x,3/4+y,3/4+z
1/4+x,3/4-y,3/4+z
1/2+x,y,1/2+z
1/2-x,-y,1/2+z
3/4-x,1/4+y,3/4+z
3/4+x,1/4-y,3/4+z
1/2+x,1/2+y,z
1/2-x,1/2-y,z
3/4-x,3/4+y,1/4+z
3/4+x,3/4-y,1/4+z
loop_
_atom_site_type_symbol
_atom_site_label
_atom_site_fract_x
_atom_site_fract_y
_atom_site_fract_z
Si Si1 0.050342 0.095666 0.344880
Si Si2 0.418774 0.307715 0.131259
Si Si3 0.807544 0.807128 0.990907
Si Si4 0.855826 0.276698 0.273412
Si Si5 0.792826 0.002667 0.671240
O O1 0.074366 0.101539 0.226074
O O2 0.098725 0.066268 0.430276
O O3 0.017840 0.211787 0.382598
O O4 0.000000 0.000000 0.348692
O O5 0.437803 0.186943 0.189230
O O6 0.355790 0.302098 0.081642
O O7 0.456410 0.333738 0.025525
O O8 0.750000 0.750000 0.031739
O O9 0.821299 0.737675 0.879543
O O10 0.826182 0.390170 0.221803
O O11 0.918437 0.292693 0.321721
#
# Coordination Sequence:
#
# PCOD9371038 Si02
#       5
#    16  16  16  16  16
#     4  10  21  38  58  86 122 160 205 258 313 373
#     4  10  22  38  62  96 123 158 214 261 314 381
#     4  10  21  41  63  87 125 166 206 258 318 383
#     4   9  18  34  57  83 112 155 201 237 296 379
#     4   9  19  35  56  80 113 153 195 244 300 366
#
# _framework density 23.627271
#
# number of rings (size 3 to 8) (size 9 to 14) (size 15 to 20)
#    0.000    2.400    0.000    3.000    0.000   11.200 
#    0.000    5.000    0.000    0.000    0.000    0.000 
#    0.000    0.000    0.000    0.000    0.000    0.000 
#
# Total GULP energy -111552.089552 kJ/mol
# GULP energy per Si atom -5577.604478 kJ/mol
# Density = 2.357349 g / cm^3
# Si number density = 23.627271 Si / 1000 Ang^3
#
#
#
# Elastic Constant Matrix: (Units=GPa)
#
#
# Indices 1 2 3 4 5 6 
#
# 1 47.7505 13.5555 50.2589 0.0000 0.0000 0.0000
# 2 13.5555 21.8986 33.5909 0.0000 0.0000 0.0000
# 3 50.2589 33.5909 190.6834 0.0000 0.0000 0.0000
# 4 0.0000 0.0000 0.0000 36.6421 0.0000 0.0000
# 5 0.0000 0.0000 0.0000 0.0000 36.3345 0.0000
# 6 0.0000 0.0000 0.0000 0.0000 0.0000 19.9315
#
#
#
# Elastic Compliance Matrix: (Units=1/GPa)
#
#
# Indices 1 2 3 4 5 6 
#
# 1 0.030193 -0.008883 -0.006393 0.000000 0.000000 0.000000
# 2 -0.008883 0.065187 -0.009142 0.000000 0.000000 0.000000
# 3 -0.006393 -0.009142 0.008540 0.000000 0.000000 0.000000
# 4 0.000000 0.000000 0.000000 0.027291 0.000000 0.000000
# 5 0.000000 0.000000 0.000000 0.000000 0.027522 0.000000
# 6 0.000000 0.000000 0.000000 0.000000 0.000000 0.050172
#
#
# Mechanical properties :
#
#
# Convention : Reuss Voigt Hill
#
# Bulk Modulus (GPa) = 18.15433 50.57144 34.36289
# Shear Modulus (GPa) = 18.10921 29.44343 23.77632
#
# Velocity S-wave (km/s) = 2.77149 3.53393 3.17568
# Velocity P-wave (km/s) = 4.23579 6.17267 5.29357
#
# Compressibility (1/GPa) = 0.05508329
#
# Stress axis : x y z
#
# Youngs Moduli (GPa) = 33.12036 15.34043 117.09828
#
# Poissons Ratio (x) = 0.13627 0.74863
# Poissons Ratio (y) = 0.29421 1.07052
# Poissons Ratio (z) = 0.21174 0.14024
#
# Static dielectric constant tensor:
#      x y z
#    x 1.924410 0.000000 0.000000 
#    y 0.000000 2.111610 0.000000 
#    z 0.000000 0.000000 1.898450 
# 
# From -- ./inp_files/6077.got.cif
#   From: 2010.05.17/outbox.cif.g08.bks.cpg/sg43_4_cif.got.tgz:6077.got - 2010.06.03 19:21:55.
