data_PCOD9371827
_publ_section_title
;
Structure prediction by ZEFSAII (Michael W. Deem and Ramdas Pophale) SiO2 
 PCOD9371827
Probable space group: F D D 2
;
_chemical_formula_sum "Si O2"
_cell_formula_units_Z 112
_cell_length_a 14.566670
_cell_length_b 24.737422
_cell_length_c 14.070222
_cell_angle_alpha 90.000000
_cell_angle_beta 90.000000
_cell_angle_gamma 90.000000
_cell_volume 5070.090007
_symmetry_space_group_name_H-M "F D D 2"
_symmetry_group_IT_number 43
_symmetry_cell_setting 'orthorhombic'
loop_
_space_group_symop_operation_xyz
x,y,z
-x,-y,z
1/4-x,1/4+y,1/4+z
1/4+x,1/4-y,1/4+z
x,1/2+y,1/2+z
-x,1/2-y,1/2+z
1/4-x,3/4+y,3/4+z
1/4+x,3/4-y,3/4+z
1/2+x,y,1/2+z
1/2-x,-y,1/2+z
3/4-x,1/4+y,3/4+z
3/4+x,1/4-y,3/4+z
1/2+x,1/2+y,z
1/2-x,1/2-y,z
3/4-x,3/4+y,1/4+z
3/4+x,3/4-y,1/4+z
loop_
_atom_site_type_symbol
_atom_site_label
_atom_site_fract_x
_atom_site_fract_y
_atom_site_fract_z
Si Si1 0.750000 0.250000 0.703390
Si Si2 0.952634 0.082261 0.110661
Si Si3 0.070357 0.230673 0.639700
Si Si4 0.849061 0.818316 0.817701
Si Si5 0.137561 0.062189 0.829815
Si Si6 0.513172 0.669639 0.246868
Si Si7 0.500000 0.000000 0.777573
Si Si8 0.103727 0.552107 0.118617
O O1 0.750511 0.300570 0.774595
O O2 0.664980 0.265532 0.637155
O O3 0.004389 0.134332 0.151281
O O4 0.960826 0.045005 0.204828
O O5 0.852476 0.089523 0.062344
O O6 0.109797 0.186370 0.712352
O O7 0.011235 0.271156 0.706058
O O8 0.158875 0.260015 0.592043
O O9 0.994939 0.203773 0.571271
O O10 0.869906 0.875772 0.866517
O O11 0.739691 0.811856 0.812487
O O12 0.879245 0.762075 0.867183
O O13 0.090950 0.064811 0.727731
O O14 0.429393 0.661095 0.319148
#
# Coordination Sequence:
#
# PCOD9371827 Si02
#       8
#     8  16  16  16  16  16   8  16
#     4  11  26  50  63 100 150 192 249 306 356 453
#     4  11  25  45  68  99 146 190 238 298 368 444
#     4  11  23  43  69 104 139 179 234 299 357 440
#     4  10  23  42  64 106 138 179 230 300 362 429
#     4  12  24  43  73  96 140 187 241 295 361 430
#     4  11  23  43  69 102 140 185 237 291 369 442
#     4  11  24  42  69 104 144 180 235 302 364 435
#     4  10  23  41  68 103 139 172 237 298 360 433
#
# _framework density 22.090337000000002
#
# number of rings (size 3 to 8) (size 9 to 14) (size 15 to 20)
#    0.000    1.143    1.429    5.143    6.000    1.143 
#    5.143    0.000    0.000    0.000    0.000    0.000 
#    0.000    0.000    0.000    0.000    0.000    0.000 
#
# Total GULP energy -155952.166325 kJ/mol
# GULP energy per Si atom -5569.720226 kJ/mol
# Density = 2.204006 g / cm^3
# Si number density = 22.090337 Si / 1000 Ang^3
#
#
#
# Elastic Constant Matrix: (Units=GPa)
#
#
# Indices 1 2 3 4 5 6 
#
# 1 117.5876 25.3028 44.1290 0.0000 0.0000 0.0000
# 2 25.3028 77.2184 17.4431 0.0000 0.0000 0.0000
# 3 44.1290 17.4431 66.6414 0.0000 0.0000 0.0000
# 4 0.0000 0.0000 0.0000-1119.8283 0.0000 0.0000
# 5 0.0000 0.0000 0.0000 0.0000 532.0652 0.0000
# 6 0.0000 0.0000 0.0000 0.0000 0.0000 14.8088
#
#
#
# Elastic Compliance Matrix: (Units=1/GPa)
#
#
# Indices 1 2 3 4 5 6 
#
# 1 0.011660 -0.002207 -0.007143 0.000000 0.000000 0.000000
# 2 -0.002207 0.014182 -0.002251 0.000000 0.000000 0.000000
# 3 -0.007143 -0.002251 0.020325 0.000000 0.000000 0.000000
# 4 0.000000 0.000000 0.000000 -0.000893 0.000000 0.000000
# 5 0.000000 0.000000 0.000000 0.000000 0.001879 0.000000
# 6 0.000000 0.000000 0.000000 0.000000 0.000000 0.067528
#
#
# Mechanical properties :
#
#
# Convention : Reuss Voigt Hill
#
# Bulk Modulus (GPa) = 43.54479 48.35524 45.95001
# Shear Modulus (GPa) = 34.35526 -102.95270 -34.29872
#
# Velocity S-wave (km/s) = 3.94790 -6.83421 -3.94465
# Velocity P-wave (km/s) = 6.36680 6.35122 0.31476
#
# Compressibility (1/GPa) = 0.02296486
#
# Stress axis : x y z
#
# Youngs Moduli (GPa) = 85.76290 70.51248 49.20043
#
# Poissons Ratio (x) = 0.15563 0.35146
# Poissons Ratio (y) = 0.18929 0.11073
# Poissons Ratio (z) = 0.61264 0.15869
#
# Static dielectric constant tensor:
#      x y z
#    x 1.783930 0.000000 0.000000 
#    y 0.000000 2.371030 0.000000 
#    z 0.000000 0.000000 1.780290 
# 
# From -- ./inp_files/10299.got.cif
#   From: 2010.05.17/outbox.cif.g08.bks.cpg/sg43_6_cif.got.tgz:10299.got - 2010.06.03 19:21:55.
