data_PCOD9371444
_publ_section_title
;
Structure prediction by ZEFSAII (Michael W. Deem and Ramdas Pophale) SiO2 
 PCOD9371444
Probable space group: F D D 2
;
_chemical_formula_sum "Si O2"
_cell_formula_units_Z 72
_cell_length_a 13.550577
_cell_length_b 18.065107
_cell_length_c 13.926868
_cell_angle_alpha 90.000000
_cell_angle_beta 90.000000
_cell_angle_gamma 90.000000
_cell_volume 3409.194554
_symmetry_space_group_name_H-M "F D D 2"
_symmetry_group_IT_number 43
_symmetry_cell_setting 'orthorhombic'
loop_
_space_group_symop_operation_xyz
x,y,z
-x,-y,z
1/4-x,1/4+y,1/4+z
1/4+x,1/4-y,1/4+z
x,1/2+y,1/2+z
-x,1/2-y,1/2+z
1/4-x,3/4+y,3/4+z
1/4+x,3/4-y,3/4+z
1/2+x,y,1/2+z
1/2-x,-y,1/2+z
3/4-x,1/4+y,3/4+z
3/4+x,1/4-y,3/4+z
1/2+x,1/2+y,z
1/2-x,1/2-y,z
3/4-x,3/4+y,1/4+z
3/4+x,3/4-y,1/4+z
loop_
_atom_site_type_symbol
_atom_site_label
_atom_site_fract_x
_atom_site_fract_y
_atom_site_fract_z
Si Si1 0.346462 0.999815 0.114990
Si Si2 0.267785 0.640557 0.041699
Si Si3 0.000000 0.500000 0.636584
Si Si4 0.000000 0.000000 0.459436
Si Si5 0.079937 0.857125 0.884575
Si Si6 0.250000 0.250000 0.023527
O O1 0.289404 0.931928 0.068966
O O2 0.268331 0.060010 0.148552
O O3 0.414030 0.972392 0.202219
O O4 0.416570 0.030552 0.030601
O O5 0.287194 0.687242 0.137186
O O6 0.368429 0.623801 0.985346
O O7 0.206122 0.690614 0.964338
O O8 0.913402 0.450167 0.588752
O O9 0.048631 0.931949 0.831042
#
# Coordination Sequence:
#
# PCOD9371444 Si02
#       6
#    16  16   8   8  16   8
#     4  11  24  40  69 100 144 185 232 298 369 429
#     4   9  21  42  70  97 129 181 248 288 350 428
#     4   7  20  43  67 102 123 184 240 293 351 427
#     4  10  22  40  64 101 129 174 238 288 346 429
#     4  10  23  45  66 104 140 188 236 298 361 438
#     4  11  26  45  65 111 148 186 236 309 373 432
#
# _framework density 21.119357999999998
#
# number of rings (size 3 to 8) (size 9 to 14) (size 15 to 20)
#    1.333    0.889    0.000    1.333    3.111    5.333 
#    0.000    0.000    0.000    0.000    0.000    0.000 
#    0.000    0.000    0.000    0.000    0.000    0.000 
#
# Total GULP energy -100285.255760 kJ/mol
# GULP energy per Si atom -5571.403098 kJ/mol
# Density = 2.107129 g / cm^3
# Si number density = 21.119358 Si / 1000 Ang^3
#
#
#
# Elastic Constant Matrix: (Units=GPa)
#
#
# Indices 1 2 3 4 5 6 
#
# 1 133.9969 64.1863 73.2634 0.0000 0.0000 0.0000
# 2 64.1863 116.0086 62.7260 0.0000 0.0000 0.0000
# 3 73.2634 62.7260 110.4847 0.0000 0.0000 0.0000
# 4 0.0000 0.0000 0.0000 73.1745 0.0000 0.0000
# 5 0.0000 0.0000 0.0000 0.0000 38.1423 0.0000
# 6 0.0000 0.0000 0.0000 0.0000 0.0000 36.1915
#
#
#
# Elastic Compliance Matrix: (Units=1/GPa)
#
#
# Indices 1 2 3 4 5 6 
#
# 1 0.012648 -0.003554 -0.006369 0.000000 0.000000 0.000000
# 2 -0.003554 0.013437 -0.005272 0.000000 0.000000 0.000000
# 3 -0.006369 -0.005272 0.016267 0.000000 0.000000 0.000000
# 4 0.000000 0.000000 0.000000 0.013666 0.000000 0.000000
# 5 0.000000 0.000000 0.000000 0.000000 0.026218 0.000000
# 6 0.000000 0.000000 0.000000 0.000000 0.000000 0.027631
#
#
# Mechanical properties :
#
#
# Convention : Reuss Voigt Hill
#
# Bulk Modulus (GPa) = 83.59745 84.53797 84.06771
# Shear Modulus (GPa) = 34.66359 40.18928 37.42644
#
# Velocity S-wave (km/s) = 4.05571 4.36702 4.21425
# Velocity P-wave (km/s) = 7.84863 8.09589 7.97322
#
# Compressibility (1/GPa) = 0.01196209
#
# Stress axis : x y z
#
# Youngs Moduli (GPa) = 79.06665 74.42137 61.47271
#
# Poissons Ratio (x) = 0.26450 0.39152
# Poissons Ratio (y) = 0.28101 0.32408
# Poissons Ratio (z) = 0.50357 0.39234
#
# Static dielectric constant tensor:
#      x y z
#    x 1.811600 0.000000 0.000000 
#    y 0.000000 1.667420 0.000000 
#    z 0.000000 0.000000 1.786280 
# 
# From -- ./inp_files/9978.got.cif
#   From: 2010.05.17/outbox.cif.g08.bks.cpg/sg43_5_cif.got.tgz:9978.got - 2010.06.03 19:21:55.
