data_PCOD9371843
_publ_section_title
;
Structure prediction by ZEFSAII (Michael W. Deem and Ramdas Pophale) SiO2 
 PCOD9371843
Probable space group: F D D 2
;
_chemical_formula_sum "Si O2"
_cell_formula_units_Z 64
_cell_length_a 16.046396
_cell_length_b 10.747568
_cell_length_c 14.785763
_cell_angle_alpha 90.000000
_cell_angle_beta 90.000000
_cell_angle_gamma 90.000000
_cell_volume 2549.948727
_symmetry_space_group_name_H-M "F D D 2"
_symmetry_group_IT_number 43
_symmetry_cell_setting 'orthorhombic'
loop_
_space_group_symop_operation_xyz
x,y,z
-x,-y,z
1/4-x,1/4+y,1/4+z
1/4+x,1/4-y,1/4+z
x,1/2+y,1/2+z
-x,1/2-y,1/2+z
1/4-x,3/4+y,3/4+z
1/4+x,3/4-y,3/4+z
1/2+x,y,1/2+z
1/2-x,-y,1/2+z
3/4-x,1/4+y,3/4+z
3/4+x,1/4-y,3/4+z
1/2+x,1/2+y,z
1/2-x,1/2-y,z
3/4-x,3/4+y,1/4+z
3/4+x,3/4-y,1/4+z
loop_
_atom_site_type_symbol
_atom_site_label
_atom_site_fract_x
_atom_site_fract_y
_atom_site_fract_z
Si Si1 0.995671 0.636353 0.687760
Si Si2 0.814236 0.547914 0.254347
Si Si3 0.317195 0.160104 0.715511
Si Si4 0.181926 0.910358 0.555961
O O1 0.898812 0.642376 0.655877
O O2 0.002488 0.757253 0.754125
O O3 0.000000 0.500000 0.731042
O O4 0.055225 0.639355 0.601533
O O5 0.733297 0.458051 0.247195
O O6 0.807816 0.620905 0.160692
O O7 0.896560 0.460961 0.256758
O O8 0.250000 0.250000 0.671572
O O9 0.356525 0.238101 0.798752
#
# Coordination Sequence:
#
# PCOD9371843 Si02
#       4
#    16  16  16  16
#     4  10  23  42  67 105 133 173 237 294 349 406
#     4  11  20  44  66  97 134 175 233 283 352 416
#     4   8  19  38  68  92 127 174 232 269 339 424
#     4   9  22  40  68  94 129 184 222 280 345 428
#
# _framework density 25.098542999999999
#
# number of rings (size 3 to 8) (size 9 to 14) (size 15 to 20)
#    1.500    1.000    0.000    1.500    0.000    5.000 
#    9.000    0.000    0.000    0.000    0.000    0.000 
#    0.000    0.000    0.000    0.000    0.000    0.000 
#
# Total GULP energy -89149.687535 kJ/mol
# GULP energy per Si atom -5571.855471 kJ/mol
# Density = 2.504142 g / cm^3
# Si number density = 25.098543 Si / 1000 Ang^3
#
#
#
# Elastic Constant Matrix: (Units=GPa)
#
#
# Indices 1 2 3 4 5 6 
#
# 1 47.7269 11.0924 6.0262 0.0000 0.0000 0.0000
# 2 11.0924 77.0523 37.6433 0.0000 0.0000 0.0000
# 3 6.0262 37.6433 174.3896 0.0000 0.0000 0.0000
# 4 0.0000 0.0000 0.0000 -26.5287 0.0000 0.0000
# 5 0.0000 0.0000 0.0000 0.0000 26.4158 0.0000
# 6 0.0000 0.0000 0.0000 0.0000 0.0000 8.0844
#
#
#
# Elastic Compliance Matrix: (Units=1/GPa)
#
#
# Indices 1 2 3 4 5 6 
#
# 1 0.021679 -0.003080 -0.000084 0.000000 0.000000 0.000000
# 2 -0.003080 0.014946 -0.003120 0.000000 0.000000 0.000000
# 3 -0.000084 -0.003120 0.006411 0.000000 0.000000 0.000000
# 4 0.000000 0.000000 0.000000 -0.037695 0.000000 0.000000
# 5 0.000000 0.000000 0.000000 0.000000 0.037856 0.000000
# 6 0.000000 0.000000 0.000000 0.000000 0.000000 0.123695
#
#
# Mechanical properties :
#
#
# Convention : Reuss Voigt Hill
#
# Bulk Modulus (GPa) = 32.82163 45.41030 39.11596
# Shear Modulus (GPa) = 26.36927 17.88810 22.12869
#
# Velocity S-wave (km/s) = 3.24486 2.67257 2.97252
# Velocity P-wave (km/s) = 5.21002 5.25886 5.23449
#
# Compressibility (1/GPa) = 0.03046771
#
# Stress axis : x y z
#
# Youngs Moduli (GPa) = 46.12773 66.90910 155.99128
#
# Poissons Ratio (x) = 0.20606 0.01316
# Poissons Ratio (y) = 0.14206 0.48665
# Poissons Ratio (z) = 0.00389 0.20874
#
# Static dielectric constant tensor:
#      x y z
#    x 2.018510 0.000000 0.000000 
#    y 0.000000 2.085920 0.000000 
#    z 0.000000 0.000000 2.023700 
# 
# From -- ./inp_files/5959.got.cif
#   From: 2010.05.17/outbox.cif.g08.bks.cpg/sg43_3_cif.got.tgz:5959.got - 2010.06.03 19:21:55.
