data_PCOD9371850
_publ_section_title
;
Structure prediction by ZEFSAII (Michael W. Deem and Ramdas Pophale) SiO2 
 PCOD9371850
Probable space group: F D D 2
;
_chemical_formula_sum "Si O2"
_cell_formula_units_Z 120
_cell_length_a 12.008642
_cell_length_b 23.346834
_cell_length_c 16.218641
_cell_angle_alpha 90.000000
_cell_angle_beta 90.000000
_cell_angle_gamma 90.000000
_cell_volume 4547.119357
_symmetry_space_group_name_H-M "F D D 2"
_symmetry_group_IT_number 43
_symmetry_cell_setting 'orthorhombic'
loop_
_space_group_symop_operation_xyz
x,y,z
-x,-y,z
1/4-x,1/4+y,1/4+z
1/4+x,1/4-y,1/4+z
x,1/2+y,1/2+z
-x,1/2-y,1/2+z
1/4-x,3/4+y,3/4+z
1/4+x,3/4-y,3/4+z
1/2+x,y,1/2+z
1/2-x,-y,1/2+z
3/4-x,1/4+y,3/4+z
3/4+x,1/4-y,3/4+z
1/2+x,1/2+y,z
1/2-x,1/2-y,z
3/4-x,3/4+y,1/4+z
3/4+x,3/4-y,1/4+z
loop_
_atom_site_type_symbol
_atom_site_label
_atom_site_fract_x
_atom_site_fract_y
_atom_site_fract_z
Si Si1 0.657146 0.353374 0.608980
Si Si2 0.850353 0.856925 0.268781
Si Si3 0.500000 0.000000 0.545327
Si Si4 0.954083 0.564289 0.989778
Si Si5 0.931321 0.284369 0.094263
Si Si6 0.820136 0.412297 0.940439
Si Si7 0.081507 0.448722 0.233456
Si Si8 0.829529 0.978247 0.188074
O O1 0.636935 0.409014 0.548929
O O2 0.555446 0.309069 0.595425
O O3 0.614141 0.387652 0.691369
O O4 0.768686 0.323004 0.568473
O O5 0.770314 0.805709 0.240806
O O6 0.813273 0.871220 0.361174
O O7 0.851329 0.912435 0.211678
O O8 0.974912 0.836174 0.257665
O O9 0.391181 0.991577 0.603049
O O10 0.903866 0.570105 0.898987
O O11 0.000000 0.500000 0.006948
O O12 0.066486 0.600407 0.988140
O O13 0.932043 0.223913 0.144491
O O14 0.874786 0.271540 0.006843
O O15 0.199465 0.480440 0.213449
O O16 0.000000 0.500000 0.202770
#
# Coordination Sequence:
#
# PCOD9371850 Si02
#       8
#    16  16   8  16  16  16  16  16
#     4  12  25  45  75 107 155 207 264 330 405 479
#     4  11  25  47  71 115 148 205 260 329 398 480
#     4  12  28  46  80 114 154 220 266 334 414 486
#     4  10  23  42  70 109 144 196 256 321 389 473
#     4  10  23  44  70 105 148 203 253 321 399 463
#     4  10  24  42  73 104 153 193 259 319 392 473
#     4  12  28  49  76 115 159 212 273 333 411 494
#     4  11  27  48  73 109 161 201 271 334 398 492
#
# _framework density 26.390335
#
# number of rings (size 3 to 8) (size 9 to 14) (size 15 to 20)
#    0.000    1.067    4.000    0.400   10.267    4.267 
#    0.000    0.000    0.000    0.000    0.000    0.000 
#    0.000    0.000    0.000    0.000    0.000    0.000 
#
# Total GULP energy -167299.846612 kJ/mol
# GULP energy per Si atom -5576.661554 kJ/mol
# Density = 2.633027 g / cm^3
# Si number density = 26.390335 Si / 1000 Ang^3
#
#
#
# Elastic Constant Matrix: (Units=GPa)
#
#
# Indices 1 2 3 4 5 6 
#
# 1 134.9520 16.4024 42.6590 0.0000 0.0000 0.0000
# 2 16.4024 88.1883 19.4036 0.0000 0.0000 0.0000
# 3 42.6590 19.4036 104.2928 0.0000 0.0000 0.0000
# 4 0.0000 0.0000 0.0000 -17.8968 0.0000 0.0000
# 5 0.0000 0.0000 0.0000 0.0000 20.9765 0.0000
# 6 0.0000 0.0000 0.0000 0.0000 0.0000 34.7560
#
#
#
# Elastic Compliance Matrix: (Units=1/GPa)
#
#
# Indices 1 2 3 4 5 6 
#
# 1 0.008572 -0.000858 -0.003347 0.000000 0.000000 0.000000
# 2 -0.000858 0.011909 -0.001865 0.000000 0.000000 0.000000
# 3 -0.003347 -0.001865 0.011304 0.000000 0.000000 0.000000
# 4 0.000000 0.000000 0.000000 -0.055876 0.000000 0.000000
# 5 0.000000 0.000000 0.000000 0.000000 0.047672 0.000000
# 6 0.000000 0.000000 0.000000 0.000000 0.000000 0.028772
#
#
# Mechanical properties :
#
#
# Convention : Reuss Voigt Hill
#
# Bulk Modulus (GPa) = 50.89887 53.81812 52.35849
# Shear Modulus (GPa) = 70.38096 24.16502 47.27299
#
# Velocity S-wave (km/s) = 5.16983 3.02930 4.23697
# Velocity P-wave (km/s) = 7.41384 5.71602 6.61959
#
# Compressibility (1/GPa) = 0.01964680
#
# Stress axis : x y z
#
# Youngs Moduli (GPa) = 116.65572 83.96839 88.46256
#
# Poissons Ratio (x) = 0.07205 0.29606
# Poissons Ratio (y) = 0.10009 0.16496
# Poissons Ratio (z) = 0.39041 0.15658
#
# Static dielectric constant tensor:
#      x y z
#    x 2.160760 0.000000 0.000000 
#    y 0.000000 2.189660 0.000000 
#    z 0.000000 0.000000 2.102000 
# 
# From -- ./inp_files/17264.got.cif
#   From: 2010.05.17/outbox.cif.g08.bks.cpg/sg43_9_cif.got.tgz:17264.got - 2010.06.03 19:21:55.
