data_PCOD9371362
_publ_section_title
;
Structure prediction by ZEFSAII (Michael W. Deem and Ramdas Pophale) SiO2 
 PCOD9371362
Probable space group: F D D 2
;
_chemical_formula_sum "Si O2"
_cell_formula_units_Z 72
_cell_length_a 25.090830
_cell_length_b 4.968992
_cell_length_c 22.618452
_cell_angle_alpha 90.000000
_cell_angle_beta 90.000000
_cell_angle_gamma 90.000000
_cell_volume 2819.981142
_symmetry_space_group_name_H-M "F D D 2"
_symmetry_group_IT_number 43
_symmetry_cell_setting 'orthorhombic'
loop_
_space_group_symop_operation_xyz
x,y,z
-x,-y,z
1/4-x,1/4+y,1/4+z
1/4+x,1/4-y,1/4+z
x,1/2+y,1/2+z
-x,1/2-y,1/2+z
1/4-x,3/4+y,3/4+z
1/4+x,3/4-y,3/4+z
1/2+x,y,1/2+z
1/2-x,-y,1/2+z
3/4-x,1/4+y,3/4+z
3/4+x,1/4-y,3/4+z
1/2+x,1/2+y,z
1/2-x,1/2-y,z
3/4-x,3/4+y,1/4+z
3/4+x,3/4-y,1/4+z
loop_
_atom_site_type_symbol
_atom_site_label
_atom_site_fract_x
_atom_site_fract_y
_atom_site_fract_z
Si Si1 0.801573 0.554543 0.826970
Si Si2 0.500000 0.500000 0.389169
Si Si3 0.750000 0.750000 0.992417
Si Si4 0.085564 0.354773 0.803026
Si Si5 0.941869 0.914669 0.187838
Si Si6 0.000000 0.500000 0.472630
O O1 0.750000 0.750000 0.829744
O O2 0.856556 0.721188 0.826341
O O3 0.809096 0.327322 0.877933
O O4 0.792567 0.378606 0.767723
O O5 0.552454 0.543259 0.348235
O O6 0.515033 0.247369 0.430289
O O7 0.792618 0.623093 0.038424
O O8 0.704466 0.647535 0.944441
O O9 0.096530 0.494322 0.739431
O O10 0.000000 0.000000 0.215784
#
# Coordination Sequence:
#
# PCOD9371362 Si02
#       6
#    16   8   8  16  16   8
#     4  12  29  53  75 121 171 214 265 347 424 501
#     4  12  26  56  76 119 163 218 282 334 402 502
#     4  10  21  51  82 122 149 213 290 340 406 492
#     4  11  26  50  84 117 158 220 276 345 407 500
#     4  10  23  46  81 110 152 206 281 331 398 483
#     4  12  29  51  78 117 172 221 268 330 434 490
#
# _framework density 25.532084999999999
#
# number of rings (size 3 to 8) (size 9 to 14) (size 15 to 20)
#    0.000    0.889    5.556    0.667    9.333    2.667 
#    8.000    0.000    0.000    0.000    0.000    0.000 
#    0.000    0.000    0.000    0.000    0.000    0.000 
#
# Total GULP energy -100239.247782 kJ/mol
# GULP energy per Si atom -5568.847099 kJ/mol
# Density = 2.547397 g / cm^3
# Si number density = 25.532085 Si / 1000 Ang^3
#
#
#
# Elastic Constant Matrix: (Units=GPa)
#
#
# Indices 1 2 3 4 5 6 
#
# 1 200.1366 45.6229 52.9691 -0.0006 -0.0002 0.0010
# 2 45.6229 100.5178 58.4385 0.0039 -0.0052 -0.0071
# 3 52.9691 58.4385 164.7676 0.0022 -0.0010 -0.0008
# 4 -0.0006 0.0039 0.0022 39.1573 -0.0017 -0.0005
# 5 -0.0002 -0.0052 -0.0010 -0.0017 19.5074 0.0020
# 6 0.0010 -0.0071 -0.0008 -0.0005 0.0020 21.9106
#
#
#
# Elastic Compliance Matrix: (Units=1/GPa)
#
#
# Indices 1 2 3 4 5 6 
#
# 1 0.005744 -0.001932 -0.001161 0.000000 -0.000001 -0.000001
# 2 -0.001932 0.013183 -0.004054 -0.000001 0.000003 0.000004
# 3 -0.001161 -0.004054 0.007881 0.000000 -0.000001 -0.000001
# 4 0.000000 -0.000001 0.000000 0.025538 0.000002 0.000001
# 5 -0.000001 0.000003 -0.000001 0.000002 0.051263 -0.000005
# 6 -0.000001 0.000004 -0.000001 0.000001 -0.000005 0.045640
#
#
# Mechanical properties :
#
#
# Convention : Reuss Voigt Hill
#
# Bulk Modulus (GPa) = 79.92508 86.60922 83.26715
# Shear Modulus (GPa) = 29.81262 36.67450 33.24356
#
# Velocity S-wave (km/s) = 3.42080 3.79411 3.61228
# Velocity P-wave (km/s) = 6.85378 7.29308 7.07684
#
# Compressibility (1/GPa) = 0.01251172
#
# Stress axis : x y z
#
# Youngs Moduli (GPa) = 174.08239 75.85813 126.89534
#
# Poissons Ratio (x) = 0.14656 0.14738
# Poissons Ratio (y) = 0.33633 0.51448
# Poissons Ratio (z) = 0.20219 0.30756
#
# Static dielectric constant tensor:
#      x y z
#    x 1.925570 0.000000 0.000000 
#    y 0.000000 1.366670 0.000000 
#    z 0.000000 0.000000 2.094950 
# 
# From -- ./inp_files/22904.got.cif
#   From: 2010.05.17/outbox.cif.g08.bks.cpg/sg43_12_cif.got.tgz:22904.got - 2010.06.03 19:21:55.
