data_PCOD9371956
_publ_section_title
;
Structure prediction by ZEFSAII (Michael W. Deem and Ramdas Pophale) SiO2 
 PCOD9371956
Probable space group: F D D 2
;
_chemical_formula_sum "Si O2"
_cell_formula_units_Z 80
_cell_length_a 16.706062
_cell_length_b 8.744895
_cell_length_c 24.772395
_cell_angle_alpha 90.000000
_cell_angle_beta 90.000000
_cell_angle_gamma 90.000000
_cell_volume 3619.067509
_symmetry_space_group_name_H-M "F D D 2"
_symmetry_group_IT_number 43
_symmetry_cell_setting 'orthorhombic'
loop_
_space_group_symop_operation_xyz
x,y,z
-x,-y,z
1/4-x,1/4+y,1/4+z
1/4+x,1/4-y,1/4+z
x,1/2+y,1/2+z
-x,1/2-y,1/2+z
1/4-x,3/4+y,3/4+z
1/4+x,3/4-y,3/4+z
1/2+x,y,1/2+z
1/2-x,-y,1/2+z
3/4-x,1/4+y,3/4+z
3/4+x,1/4-y,3/4+z
1/2+x,1/2+y,z
1/2-x,1/2-y,z
3/4-x,3/4+y,1/4+z
3/4+x,3/4-y,1/4+z
loop_
_atom_site_type_symbol
_atom_site_label
_atom_site_fract_x
_atom_site_fract_y
_atom_site_fract_z
Si Si1 0.250000 0.750000 0.625000
Si Si2 0.837439 0.746074 0.535882
Si Si3 0.750000 0.250000 0.447738
Si Si4 0.747159 0.592173 0.754853
Si Si5 0.112545 0.356870 0.287679
Si Si6 0.161441 0.564038 0.147144
O O1 0.181198 0.678038 0.588612
O O2 0.296800 0.605058 0.650273
O O3 0.750000 0.750000 0.509358
O O4 0.910177 0.801391 0.499002
O O5 0.864322 0.573011 0.548023
O O6 0.826805 0.851543 0.589801
O O7 0.698124 0.140501 0.487447
O O8 0.682266 0.320686 0.410219
O O9 0.750000 0.750000 0.788805
O O10 0.694533 0.451780 0.778540
O O11 0.701226 0.634157 0.700158
#
# Coordination Sequence:
#
# PCOD9371956 Si02
#       6
#     8  16   8  16  16  16
#     4  11  22  40  68  98 146 180 230 306 352 439
#     4  12  25  45  71 107 143 187 243 303 365 438
#     4   9  24  44  74 100 140 188 238 302 358 445
#     4  11  26  45  73 100 142 192 238 303 370 440
#     4  10  23  46  69 103 139 189 238 297 372 432
#     4  11  25  44  72 108 139 189 249 300 366 447
#
# _framework density 22.105142000000001
#
# number of rings (size 3 to 8) (size 9 to 14) (size 15 to 20)
#    0.000    1.200    2.000    2.400   15.400    0.000 
#    0.000    0.000    0.000    0.000    0.000    0.000 
#    0.000    0.000    0.000    0.000    0.000    0.000 
#
# Total GULP energy -111469.151501 kJ/mol
# GULP energy per Si atom -5573.457575 kJ/mol
# Density = 2.205483 g / cm^3
# Si number density = 22.105142 Si / 1000 Ang^3
#
#
#
# Elastic Constant Matrix: (Units=GPa)
#
#
# Indices 1 2 3 4 5 6 
#
# 1 209.8084 39.6838 27.1351 0.0000 0.0000 0.0000
# 2 39.6838 135.3093 7.1442 0.0000 0.0000 0.0000
# 3 27.1351 7.1442 45.2670 0.0000 0.0000 0.0000
# 4 0.0000 0.0000 0.0000 7.1985 0.0000 0.0000
# 5 0.0000 0.0000 0.0000 0.0000 -71.8635 0.0000
# 6 0.0000 0.0000 0.0000 0.0000 0.0000 39.2130
#
#
#
# Elastic Compliance Matrix: (Units=1/GPa)
#
#
# Indices 1 2 3 4 5 6 
#
# 1 0.005429 -0.001432 -0.003028 0.000000 0.000000 0.000000
# 2 -0.001432 0.007830 -0.000377 0.000000 0.000000 0.000000
# 3 -0.003028 -0.000377 0.023966 0.000000 0.000000 0.000000
# 4 0.000000 0.000000 0.000000 0.138918 0.000000 0.000000
# 5 0.000000 0.000000 0.000000 0.000000 -0.013915 0.000000
# 6 0.000000 0.000000 0.000000 0.000000 0.000000 0.025502
#
#
# Mechanical properties :
#
#
# Convention : Reuss Voigt Hill
#
# Bulk Modulus (GPa) = 36.29807 59.81229 48.05518
# Shear Modulus (GPa) = 24.20267 16.00438 20.10353
#
# Velocity S-wave (km/s) = 3.31250 2.69367 3.01898
# Velocity P-wave (km/s) = 5.57553 6.06558 5.82571
#
# Compressibility (1/GPa) = 0.02754968
#
# Stress axis : x y z
#
# Youngs Moduli (GPa) = 184.20248 127.70643 41.72592
#
# Poissons Ratio (x) = 0.18291 0.12636
# Poissons Ratio (y) = 0.26383 0.01574
# Poissons Ratio (z) = 0.55781 0.04818
#
# Static dielectric constant tensor:
#      x y z
#    x 1.873870 0.000000 0.000000 
#    y 0.000000 2.135040 0.000000 
#    z 0.000000 0.000000 1.815350 
# 
# From -- ./inp_files/24139.got.cif
#   From: 2010.05.17/outbox.cif.g08.bks.cpg/sg43_13_cif.got.tgz:24139.got - 2010.06.03 19:21:55.
