data_PCOD9371127
_publ_section_title
;
Structure prediction by ZEFSAII (Michael W. Deem and Ramdas Pophale) SiO2 
 PCOD9371127
Probable space group: F D D 2
;
_chemical_formula_sum "Si O2"
_cell_formula_units_Z 104
_cell_length_a 15.259724
_cell_length_b 11.811638
_cell_length_c 24.950333
_cell_angle_alpha 90.000000
_cell_angle_beta 90.000000
_cell_angle_gamma 90.000000
_cell_volume 4497.106301
_symmetry_space_group_name_H-M "F D D 2"
_symmetry_group_IT_number 43
_symmetry_cell_setting 'orthorhombic'
loop_
_space_group_symop_operation_xyz
x,y,z
-x,-y,z
1/4-x,1/4+y,1/4+z
1/4+x,1/4-y,1/4+z
x,1/2+y,1/2+z
-x,1/2-y,1/2+z
1/4-x,3/4+y,3/4+z
1/4+x,3/4-y,3/4+z
1/2+x,y,1/2+z
1/2-x,-y,1/2+z
3/4-x,1/4+y,3/4+z
3/4+x,1/4-y,3/4+z
1/2+x,1/2+y,z
1/2-x,1/2-y,z
3/4-x,3/4+y,1/4+z
3/4+x,3/4-y,1/4+z
loop_
_atom_site_type_symbol
_atom_site_label
_atom_site_fract_x
_atom_site_fract_y
_atom_site_fract_z
Si Si1 0.250000 0.750000 0.129861
Si Si2 0.097448 0.048080 0.155714
Si Si3 0.658845 0.274779 0.437154
Si Si4 0.157768 0.920637 0.332529
Si Si5 0.104264 0.520983 0.435661
Si Si6 0.593765 0.437466 0.051417
Si Si7 0.718580 0.402440 0.220302
O O1 0.196754 0.667675 0.091844
O O2 0.308818 0.683586 0.173008
O O3 0.095644 0.182255 0.148449
O O4 0.138318 0.995655 0.102239
O O5 0.162523 0.013021 0.203908
O O6 0.000000 0.000000 0.165783
O O7 0.750000 0.250000 0.467955
O O8 0.685593 0.356342 0.387048
O O9 0.624235 0.149833 0.422339
O O10 0.572860 0.326857 0.465807
O O11 0.191837 0.863043 0.278895
O O12 0.170495 0.055676 0.318698
O O13 0.134170 0.479453 0.495344
O O14 0.000000 0.500000 0.431185
O O15 0.500000 0.500000 0.049847
#
# Coordination Sequence:
#
# PCOD9371127 Si02
#       7
#     8  16  16  16  16  16  16
#     4  10  24  40  68 108 150 184 252 308 390 464
#     4  11  23  38  69 104 133 181 254 313 370 443
#     4  11  27  46  71 108 156 204 255 326 405 478
#     4  11  23  43  70 107 149 195 250 324 389 464
#     4  11  22  47  70  97 145 196 247 311 383 460
#     4  10  21  39  69  97 133 188 250 302 362 459
#     4  11  22  45  68 106 146 200 245 319 383 460
#
# _framework density 23.125980999999999
#
# number of rings (size 3 to 8) (size 9 to 14) (size 15 to 20)
#    0.000    1.231    4.615    0.923    6.462    0.000 
#    0.000    2.308    0.000    0.000    0.000    0.000 
#    0.000    0.000    0.000    0.000    0.000    0.000 
#
# Total GULP energy -144795.016874 kJ/mol
# GULP energy per Si atom -5569.039111 kJ/mol
# Density = 2.307335 g / cm^3
# Si number density = 23.125981 Si / 1000 Ang^3
#
#
#
# Elastic Constant Matrix: (Units=GPa)
#
#
# Indices 1 2 3 4 5 6 
#
# 1 108.7824 5.6225 28.7163 0.0000 0.0000 0.0000
# 2 5.6225 135.6431 23.4146 0.0000 0.0000 0.0000
# 3 28.7163 23.4146 117.7795 0.0000 0.0000 0.0000
# 4 0.0000 0.0000 0.0000 11.4101 0.0000 0.0000
# 5 0.0000 0.0000 0.0000 0.0000 12.4947 0.0000
# 6 0.0000 0.0000 0.0000 0.0000 0.0000 38.1454
#
#
#
# Elastic Compliance Matrix: (Units=1/GPa)
#
#
# Indices 1 2 3 4 5 6 
#
# 1 0.009825 0.000006 -0.002397 0.000000 0.000000 0.000000
# 2 0.000006 0.007634 -0.001519 0.000000 0.000000 0.000000
# 3 -0.002397 -0.001519 0.009377 0.000000 0.000000 0.000000
# 4 0.000000 0.000000 0.000000 0.087642 0.000000 0.000000
# 5 0.000000 0.000000 0.000000 0.000000 0.080034 0.000000
# 6 0.000000 0.000000 0.000000 0.000000 0.000000 0.026216
#
#
# Mechanical properties :
#
#
# Convention : Reuss Voigt Hill
#
# Bulk Modulus (GPa) = 52.58449 53.07907 52.83178
# Shear Modulus (GPa) = 21.28698 32.70681 26.99690
#
# Velocity S-wave (km/s) = 3.03723 3.76478 3.42041
# Velocity P-wave (km/s) = 5.92346 6.47303 6.20433
#
# Compressibility (1/GPa) = 0.01901701
#
# Stress axis : x y z
#
# Youngs Moduli (GPa) = 101.78089 130.98820 106.64576
#
# Poissons Ratio (x) = -0.00085 0.25561
# Poissons Ratio (y) = -0.00066 0.16202
# Poissons Ratio (z) = 0.24395 0.19901
#
# Static dielectric constant tensor:
#      x y z
#    x 1.937590 0.000000 0.000000 
#    y 0.000000 1.995470 0.000000 
#    z 0.000000 0.000000 1.941170 
# 
# From -- ./inp_files/26013.got.cif
#   From: 2010.05.17/outbox.cif.g08.bks.cpg/sg43_14_cif.got.tgz:26013.got - 2010.06.03 19:21:55.
