data_PCOD9371795
_publ_section_title
;
Structure prediction by ZEFSAII (Michael W. Deem and Ramdas Pophale) SiO2 
 PCOD9371795
Probable space group: F D D 2
;
_chemical_formula_sum "Si O2"
_cell_formula_units_Z 64
_cell_length_a 11.855238
_cell_length_b 8.093165
_cell_length_c 31.759565
_cell_angle_alpha 90.000000
_cell_angle_beta 90.000000
_cell_angle_gamma 90.000000
_cell_volume 3047.215840
_symmetry_space_group_name_H-M "F D D 2"
_symmetry_group_IT_number 43
_symmetry_cell_setting 'orthorhombic'
loop_
_space_group_symop_operation_xyz
x,y,z
-x,-y,z
1/4-x,1/4+y,1/4+z
1/4+x,1/4-y,1/4+z
x,1/2+y,1/2+z
-x,1/2-y,1/2+z
1/4-x,3/4+y,3/4+z
1/4+x,3/4-y,3/4+z
1/2+x,y,1/2+z
1/2-x,-y,1/2+z
3/4-x,1/4+y,3/4+z
3/4+x,1/4-y,3/4+z
1/2+x,1/2+y,z
1/2-x,1/2-y,z
3/4-x,3/4+y,1/4+z
3/4+x,3/4-y,1/4+z
loop_
_atom_site_type_symbol
_atom_site_label
_atom_site_fract_x
_atom_site_fract_y
_atom_site_fract_z
Si Si1 0.153230 0.112262 0.244820
Si Si2 0.500000 0.500000 0.788168
Si Si3 0.750000 0.750000 0.651106
Si Si4 0.337880 0.993752 0.972632
Si Si5 0.124879 0.973501 0.087413
O O1 0.250000 0.250000 0.237189
O O2 0.133369 0.111337 0.295280
O O3 0.041100 0.179251 0.221517
O O4 0.162455 0.920042 0.232835
O O5 0.576938 0.616279 0.758364
O O6 0.422075 0.609279 0.817716
O O7 0.856174 0.804857 0.679723
O O8 0.793644 0.603835 0.621530
O O9 0.000000 0.000000 0.104992
#
# Coordination Sequence:
#
# PCOD9371795 Si02
#       5
#    16   8   8  16  16
#     4   9  20  45  74  90 129 184 232 274 332 430
#     4  10  22  50  70  95 126 192 238 265 330 436
#     4  12  26  42  62 105 144 164 216 303 348 392
#     4  10  23  39  69 101 133 170 234 283 341 399
#     4  10  23  45  65  92 134 176 221 271 345 404
#
# _framework density 21.002779
#
# number of rings (size 3 to 8) (size 9 to 14) (size 15 to 20)
#    0.000    2.000    0.000    3.000   14.000    0.000 
#    6.750    0.000    0.000    0.000    0.000    0.000 
#    0.000    0.000    0.000    0.000    0.000    0.000 
#
# Total GULP energy -89304.927752 kJ/mol
# GULP energy per Si atom -5581.557984 kJ/mol
# Density = 2.095498 g / cm^3
# Si number density = 21.002779 Si / 1000 Ang^3
#
#
#
# Elastic Constant Matrix: (Units=GPa)
#
#
# Indices 1 2 3 4 5 6 
#
# 1 125.3576 63.4325 75.6216 0.0000 0.0000 0.0000
# 2 63.4325 144.7970 64.7215 0.0000 0.0000 0.0000
# 3 75.6216 64.7215 88.5022 0.0000 0.0000 0.0000
# 4 0.0000 0.0000 0.0000 3.3422 0.0000 0.0000
# 5 0.0000 0.0000 0.0000 0.0000 30.7753 0.0000
# 6 0.0000 0.0000 0.0000 0.0000 0.0000 27.1482
#
#
#
# Elastic Compliance Matrix: (Units=1/GPa)
#
#
# Indices 1 2 3 4 5 6 
#
# 1 0.016649 -0.001389 -0.013210 0.000000 0.000000 0.000000
# 2 -0.001389 0.010376 -0.006401 0.000000 0.000000 0.000000
# 3 -0.013210 -0.006401 0.027268 0.000000 0.000000 0.000000
# 4 0.000000 0.000000 0.000000 0.299209 0.000000 0.000000
# 5 0.000000 0.000000 0.000000 0.000000 0.032494 0.000000
# 6 0.000000 0.000000 0.000000 0.000000 0.000000 0.036835
#
#
# Mechanical properties :
#
#
# Convention : Reuss Voigt Hill
#
# Bulk Modulus (GPa) = 81.35158 85.13421 83.24289
# Shear Modulus (GPa) = 10.66263 22.57854 16.62059
#
# Velocity S-wave (km/s) = 2.25561 3.28232 2.81615
# Velocity P-wave (km/s) = 6.75289 7.41536 7.09186
#
# Compressibility (1/GPa) = 0.01229233
#
# Stress axis : x y z
#
# Youngs Moduli (GPa) = 60.06369 96.37802 36.67320
#
# Poissons Ratio (x) = 0.13385 0.48446
# Poissons Ratio (y) = 0.08342 0.23475
# Poissons Ratio (z) = 0.79346 0.61692
#
# Static dielectric constant tensor:
#      x y z
#    x 1.787680 0.000000 0.000000 
#    y 0.000000 1.826600 0.000000 
#    z 0.000000 0.000000 1.743510 
# 
# From -- ./inp_files/27686.got.cif
#   From: 2010.05.17/outbox.cif.g08.bks.cpg/sg43_14_cif.got.tgz:27686.got - 2010.06.03 19:21:55.
