data_PCOD9371948
_publ_section_title
;
Structure prediction by ZEFSAII (Michael W. Deem and Ramdas Pophale) SiO2 
 PCOD9371948
Probable space group: F D D 2
;
_chemical_formula_sum "Si O2"
_cell_formula_units_Z 72
_cell_length_a 24.268528
_cell_length_b 23.767364
_cell_length_c 4.817190
_cell_angle_alpha 90.000000
_cell_angle_beta 90.000000
_cell_angle_gamma 90.000000
_cell_volume 2778.550080
_symmetry_space_group_name_H-M "F D D 2"
_symmetry_group_IT_number 43
_symmetry_cell_setting 'orthorhombic'
loop_
_space_group_symop_operation_xyz
x,y,z
-x,-y,z
1/4-x,1/4+y,1/4+z
1/4+x,1/4-y,1/4+z
x,1/2+y,1/2+z
-x,1/2-y,1/2+z
1/4-x,3/4+y,3/4+z
1/4+x,3/4-y,3/4+z
1/2+x,y,1/2+z
1/2-x,-y,1/2+z
3/4-x,1/4+y,3/4+z
3/4+x,1/4-y,3/4+z
1/2+x,1/2+y,z
1/2-x,1/2-y,z
3/4-x,3/4+y,1/4+z
3/4+x,3/4-y,1/4+z
loop_
_atom_site_type_symbol
_atom_site_label
_atom_site_fract_x
_atom_site_fract_y
_atom_site_fract_z
Si Si1 0.816595 0.670006 0.724610
Si Si2 0.140679 0.074511 0.958625
Si Si3 0.500000 0.000000 0.323190
Si Si4 0.217015 0.481477 0.207895
Si Si5 0.762758 0.869370 0.326069
O O1 0.842541 0.685026 0.429573
O O2 0.797724 0.726404 0.876616
O O3 0.760090 0.635162 0.648316
O O4 0.864355 0.646622 0.931653
O O5 0.185054 0.106221 0.154284
O O6 0.168291 0.017832 0.837710
O O7 0.516379 0.945764 0.497275
O O8 0.230433 0.501731 0.900234
O O9 0.216202 0.414560 0.225971
#
# Coordination Sequence:
#
# PCOD9371948 Si02
#       5
#    16  16   8  16  16
#     4  12  27  48  76 117 156 217 257 319 421 469
#     4  11  26  47  79 117 150 211 276 318 403 493
#     4  12  28  52  70 112 166 210 244 336 396 482
#     4  10  23  45  77 108 146 193 253 337 392 445
#     4  11  27  51  78 111 165 204 262 348 396 471
#
# _framework density 25.912797000000001
#
# number of rings (size 3 to 8) (size 9 to 14) (size 15 to 20)
#    0.000    0.889    2.222    3.333    9.333    3.556 
#    0.000    0.000    0.000    0.000    0.000    0.000 
#    0.000    0.000    0.000    0.000    0.000    0.000 
#
# Total GULP energy -100314.323730 kJ/mol
# GULP energy per Si atom -5573.017985 kJ/mol
# Density = 2.585382 g / cm^3
# Si number density = 25.912797 Si / 1000 Ang^3
#
#
#
# Elastic Constant Matrix: (Units=GPa)
#
#
# Indices 1 2 3 4 5 6 
#
# 1 98.6916 13.9010 43.7057 -0.0333 -0.0203 -0.0023
# 2 13.9010 123.0758 29.1309 -0.0816 0.0020 -0.0339
# 3 43.7057 29.1309 156.9736 0.0820 -0.0688 0.0234
# 4 -0.0333 -0.0816 0.0820 42.6892 -0.0153 -0.0003
# 5 -0.0203 0.0020 -0.0688 -0.0153 65.3933 0.0135
# 6 -0.0023 -0.0339 0.0234 -0.0003 0.0135 28.0771
#
#
#
# Elastic Compliance Matrix: (Units=1/GPa)
#
#
# Indices 1 2 3 4 5 6 
#
# 1 0.011596 -0.000571 -0.003123 0.000014 0.000000 0.000003
# 2 -0.000571 0.008526 -0.001423 0.000019 -0.000002 0.000011
# 3 -0.003123 -0.001423 0.007504 -0.000020 0.000007 -0.000008
# 4 0.000014 0.000019 -0.000020 0.023425 0.000005 0.000000
# 5 0.000000 -0.000002 0.000007 0.000005 0.015292 -0.000007
# 6 0.000003 0.000011 -0.000008 0.000000 -0.000007 0.035616
#
#
# Mechanical properties :
#
#
# Convention : Reuss Voigt Hill
#
# Bulk Modulus (GPa) = 57.49479 61.35737 59.42608
# Shear Modulus (GPa) = 42.37605 46.69881 44.53743
#
# Velocity S-wave (km/s) = 4.04831 4.24978 4.15027
# Velocity P-wave (km/s) = 6.63986 6.91453 6.77858
#
# Compressibility (1/GPa) = 0.01739288
#
# Stress axis : x y z
#
# Youngs Moduli (GPa) = 86.23774 117.28200 133.26001
#
# Poissons Ratio (x) = 0.06692 0.41613
# Poissons Ratio (y) = 0.04921 0.18969
# Poissons Ratio (z) = 0.26930 0.16695
#
# Static dielectric constant tensor:
#      x y z
#    x 2.188840 0.000040 0.000000 
#    y 0.000040 2.018390 -0.000030 
#    z 0.000000 -0.000030 2.060390 
# 
# From -- ./inp_files/1168.got.cif
#   From: 2010.05.17/outbox.cif.g08.bks.cpg/sg43_1_cif.got.tgz:1168.got - 2010.06.03 19:21:55.
