data_PCOD9371900
_publ_section_title
;
Structure prediction by ZEFSAII (Michael W. Deem and Ramdas Pophale) SiO2 
 PCOD9371900
Probable space group: F D D 2
;
_chemical_formula_sum "Si O2"
_cell_formula_units_Z 104
_cell_length_a 7.777381
_cell_length_b 21.313847
_cell_length_c 27.989273
_cell_angle_alpha 90.000000
_cell_angle_beta 90.000000
_cell_angle_gamma 90.000000
_cell_volume 4639.667273
_symmetry_space_group_name_H-M "F D D 2"
_symmetry_group_IT_number 43
_symmetry_cell_setting 'orthorhombic'
loop_
_space_group_symop_operation_xyz
x,y,z
-x,-y,z
1/4-x,1/4+y,1/4+z
1/4+x,1/4-y,1/4+z
x,1/2+y,1/2+z
-x,1/2-y,1/2+z
1/4-x,3/4+y,3/4+z
1/4+x,3/4-y,3/4+z
1/2+x,y,1/2+z
1/2-x,-y,1/2+z
3/4-x,1/4+y,3/4+z
3/4+x,1/4-y,3/4+z
1/2+x,1/2+y,z
1/2-x,1/2-y,z
3/4-x,3/4+y,1/4+z
3/4+x,3/4-y,1/4+z
loop_
_atom_site_type_symbol
_atom_site_label
_atom_site_fract_x
_atom_site_fract_y
_atom_site_fract_z
Si Si1 0.059037 0.779478 0.757720
Si Si2 0.433610 0.283744 0.442970
Si Si3 0.321523 0.960832 0.785565
Si Si4 0.831171 0.028063 0.606750
Si Si5 0.338048 0.647687 0.670859
Si Si6 0.750696 0.603153 0.480824
Si Si7 0.500000 0.500000 0.847907
O O1 0.250000 0.750000 0.753898
O O2 0.052652 0.833318 0.717625
O O3 0.951367 0.716952 0.744789
O O4 0.031952 0.799852 0.812204
O O5 0.250000 0.250000 0.436515
O O6 0.504334 0.241997 0.486601
O O7 0.512541 0.276959 0.391091
O O8 0.403320 0.352934 0.463052
O O9 0.397637 0.892119 0.772443
O O10 0.500000 0.000000 0.797873
O O11 0.156649 0.965695 0.819768
O O12 0.870812 0.083143 0.644043
O O13 0.000000 0.000000 0.583819
O O14 0.139912 0.647718 0.688275
O O15 0.350043 0.701468 0.631603
#
# Coordination Sequence:
#
# PCOD9371900 Si02
#       7
#    16  16  16  16  16  16   8
#     4  10  23  44  68  93 130 179 223 283 343 415
#     4   9  18  38  67  92 125 174 221 280 335 403
#     4   9  21  38  64 100 135 173 233 279 340 409
#     4  12  26  41  66 103 133 177 235 282 346 413
#     4  11  23  43  64 100 133 177 231 274 345 427
#     4   9  18  41  65  92 130 170 224 283 344 405
#     4  12  24  38  70  98 132 194 222 280 348 402
#
# _framework density 22.415400999999999
#
# number of rings (size 3 to 8) (size 9 to 14) (size 15 to 20)
#    0.000    2.154    5.385    0.462    5.385    2.462 
#    2.769    0.769    0.000    0.000    0.000    0.000 
#    0.000    0.000    0.000    0.000    0.000    0.000 
#
# Total GULP energy -144918.384335 kJ/mol
# GULP energy per Si atom -5573.784013 kJ/mol
# Density = 2.236438 g / cm^3
# Si number density = 22.415401 Si / 1000 Ang^3
#
#
#
# Elastic Constant Matrix: (Units=GPa)
#
#
# Indices 1 2 3 4 5 6 
#
# 1 43.6030 11.9217 36.3396 0.0000 0.0000 0.0000
# 2 11.9217 86.8725 39.6618 0.0000 0.0000 0.0000
# 3 36.3396 39.6618 127.2727 0.0000 0.0000 0.0000
# 4 0.0000 0.0000 0.0000 39.8994 0.0000 0.0000
# 5 0.0000 0.0000 0.0000 0.0000 -18.3831 0.0000
# 6 0.0000 0.0000 0.0000 0.0000 0.0000 13.1317
#
#
#
# Elastic Compliance Matrix: (Units=1/GPa)
#
#
# Indices 1 2 3 4 5 6 
#
# 1 0.030100 -0.000241 -0.008519 0.000000 0.000000 0.000000
# 2 -0.000241 0.013422 -0.004114 0.000000 0.000000 0.000000
# 3 -0.008519 -0.004114 0.011572 0.000000 0.000000 0.000000
# 4 0.000000 0.000000 0.000000 0.025063 0.000000 0.000000
# 5 0.000000 0.000000 0.000000 0.000000 -0.054398 0.000000
# 6 0.000000 0.000000 0.000000 0.000000 0.000000 0.076151
#
#
# Mechanical properties :
#
#
# Convention : Reuss Voigt Hill
#
# Bulk Modulus (GPa) = 34.07680 48.17716 41.12698
# Shear Modulus (GPa) = 36.37912 18.25129 27.31520
#
# Velocity S-wave (km/s) = 4.03296 2.85657 3.49462
# Velocity P-wave (km/s) = 6.07633 5.69381 5.88818
#
# Compressibility (1/GPa) = 0.02934548
#
# Stress axis : x y z
#
# Youngs Moduli (GPa) = 33.22235 74.50203 86.41840
#
# Poissons Ratio (x) = 0.01798 0.73622
# Poissons Ratio (y) = 0.00802 0.35552
# Poissons Ratio (z) = 0.28303 0.30650
#
# Static dielectric constant tensor:
#      x y z
#    x 1.893240 0.000000 0.000000 
#    y 0.000000 1.823670 0.000000 
#    z 0.000000 0.000000 1.858730 
# 
# From -- ./inp_files/24330.got.cif
#   From: 2010.05.17/outbox.cif.g08.bks.cpg/sg43_13_cif.got.tgz:24330.got - 2010.06.03 19:21:55.
