data_PCOD9371527
_publ_section_title
;
Structure prediction by ZEFSAII (Michael W. Deem and Ramdas Pophale) SiO2 
 PCOD9371527
Probable space group: F D D 2
;
_chemical_formula_sum "Si O2"
_cell_formula_units_Z 64
_cell_length_a 18.970663
_cell_length_b 5.465749
_cell_length_c 28.585322
_cell_angle_alpha 90.000000
_cell_angle_beta 90.000000
_cell_angle_gamma 90.000000
_cell_volume 2963.980089
_symmetry_space_group_name_H-M "F D D 2"
_symmetry_group_IT_number 43
_symmetry_cell_setting 'orthorhombic'
loop_
_space_group_symop_operation_xyz
x,y,z
-x,-y,z
1/4-x,1/4+y,1/4+z
1/4+x,1/4-y,1/4+z
x,1/2+y,1/2+z
-x,1/2-y,1/2+z
1/4-x,3/4+y,3/4+z
1/4+x,3/4-y,3/4+z
1/2+x,y,1/2+z
1/2-x,-y,1/2+z
3/4-x,1/4+y,3/4+z
3/4+x,1/4-y,3/4+z
1/2+x,1/2+y,z
1/2-x,1/2-y,z
3/4-x,3/4+y,1/4+z
3/4+x,3/4-y,1/4+z
loop_
_atom_site_type_symbol
_atom_site_label
_atom_site_fract_x
_atom_site_fract_y
_atom_site_fract_z
Si Si1 0.211443 0.497977 0.592200
Si Si2 0.918624 0.001958 0.026942
Si Si3 0.669348 0.754372 0.954048
Si Si4 0.362247 0.493836 0.183377
O O1 0.250000 0.750000 0.578885
O O2 0.133865 0.481356 0.570152
O O3 0.202950 0.499563 0.648271
O O4 0.250000 0.250000 0.576813
O O5 0.886910 0.776824 0.996185
O O6 0.000000 0.000000 0.039707
O O7 0.908514 0.213741 0.987793
O O8 0.750000 0.750000 0.970577
O O9 0.655043 0.507950 0.924160
O O10 0.654717 0.006357 0.928040
#
# Coordination Sequence:
#
# PCOD9371527 Si02
#       4
#    16  16  16  16
#     4  12  27  47  73 102 142 187 237 283 351 426
#     4  10  26  43  70 103 141 181 231 294 344 411
#     4  10  22  41  70  98 138 178 232 278 350 406
#     4  10  24  42  71  98 134 188 227 284 341 419
#
# _framework density 21.592587000000002
#
# number of rings (size 3 to 8) (size 9 to 14) (size 15 to 20)
#    1.500    0.000    0.000    3.750   10.500    2.000 
#    0.000    0.000    0.000    0.000    0.000    0.000 
#    0.000    0.000    0.000    0.000    0.000    0.000 
#
# Total GULP energy -89155.559546 kJ/mol
# GULP energy per Si atom -5572.222472 kJ/mol
# Density = 2.154344 g / cm^3
# Si number density = 21.592587 Si / 1000 Ang^3
#
#
#
# Elastic Constant Matrix: (Units=GPa)
#
#
# Indices 1 2 3 4 5 6 
#
# 1 158.3783 70.6697 14.1135 0.0002 0.0007 -0.0013
# 2 70.6697 186.2563 27.0209 -0.0009 0.0039 0.0026
# 3 14.1135 27.0209 43.3442 -0.0003 0.0010 0.0009
# 4 0.0002 -0.0009 -0.0003 -10.1946 -0.0006 -0.0006
# 5 0.0007 0.0039 0.0010 -0.0006 45.0509 -0.0001
# 6 -0.0013 0.0026 0.0009 -0.0006 -0.0001 17.9901
#
#
#
# Elastic Compliance Matrix: (Units=1/GPa)
#
#
# Indices 1 2 3 4 5 6 
#
# 1 0.007623 -0.002784 -0.000747 0.000000 0.000000 0.000001
# 2 -0.002784 0.006920 -0.003407 -0.000001 0.000000 -0.000001
# 3 -0.000747 -0.003407 0.025438 0.000000 0.000000 -0.000001
# 4 0.000000 -0.000001 0.000000 -0.098092 -0.000001 -0.000003
# 5 0.000000 0.000000 0.000000 -0.000001 0.022197 0.000000
# 6 0.000001 -0.000001 -0.000001 -0.000003 0.000000 0.055586
#
#
# Mechanical properties :
#
#
# Convention : Reuss Voigt Hill
#
# Bulk Modulus (GPa) = 38.30652 67.95411 53.13032
# Shear Modulus (GPa) = 118.34542 28.98093 73.66317
#
# Velocity S-wave (km/s) = 7.41130 3.66754 5.84714
# Velocity P-wave (km/s) = 9.54021 7.03376 8.38121
#
# Compressibility (1/GPa) = 0.02610521
#
# Stress axis : x y z
#
# Youngs Moduli (GPa) = 131.18646 144.51869 39.31083
#
# Poissons Ratio (x) = 0.40233 0.02935
# Poissons Ratio (y) = 0.36521 0.13394
# Poissons Ratio (z) = 0.09794 0.49240
#
# Static dielectric constant tensor:
#      x y z
#    x 1.744630 0.000000 0.000000 
#    y 0.000000 1.847080 0.000000 
#    z 0.000000 0.000000 1.820280 
# 
# From -- ./inp_files/29308.got.cif
#   From: 2010.05.17/outbox.cif.g08.bks.cpg/sg43_15_cif.got.tgz:29308.got - 2010.06.03 19:21:55.
