data_PCOD9371636
_publ_section_title
;
Structure prediction by ZEFSAII (Michael W. Deem and Ramdas Pophale) SiO2 
 PCOD9371636
Probable space group: F D D 2
;
_chemical_formula_sum "Si O2"
_cell_formula_units_Z 104
_cell_length_a 17.735669
_cell_length_b 17.735677
_cell_length_c 15.320353
_cell_angle_alpha 90.000000
_cell_angle_beta 90.000000
_cell_angle_gamma 90.000000
_cell_volume 4819.079800
_symmetry_space_group_name_H-M "F D D 2"
_symmetry_group_IT_number 43
_symmetry_cell_setting 'orthorhombic'
loop_
_space_group_symop_operation_xyz
x,y,z
-x,-y,z
1/4-x,1/4+y,1/4+z
1/4+x,1/4-y,1/4+z
x,1/2+y,1/2+z
-x,1/2-y,1/2+z
1/4-x,3/4+y,3/4+z
1/4+x,3/4-y,3/4+z
1/2+x,y,1/2+z
1/2-x,-y,1/2+z
3/4-x,1/4+y,3/4+z
3/4+x,1/4-y,3/4+z
1/2+x,1/2+y,z
1/2-x,1/2-y,z
3/4-x,3/4+y,1/4+z
3/4+x,3/4-y,1/4+z
loop_
_atom_site_type_symbol
_atom_site_label
_atom_site_fract_x
_atom_site_fract_y
_atom_site_fract_z
Si Si1 0.003415 0.233312 0.825860
Si Si2 0.266688 0.003415 0.371817
Si Si3 0.871477 0.134029 0.548975
Si Si4 0.101763 0.025616 0.309990
Si Si5 0.134029 0.628523 0.648702
Si Si6 0.224384 0.648236 0.137687
Si Si7 0.750000 0.250000 0.598839
O O1 0.000959 0.250959 0.723839
O O2 0.928541 0.186493 0.848117
O O3 0.076937 0.182996 0.846373
O O4 0.009053 0.311162 0.875223
O O5 0.188838 0.009053 0.322454
O O6 0.317004 0.076937 0.351305
O O7 0.313507 0.928540 0.349560
O O8 0.912106 0.100194 0.463773
O O9 0.804789 0.197106 0.540301
O O10 0.100194 0.087894 0.233904
O O11 0.056231 0.061420 0.392688
O O12 0.061420 0.943769 0.304989
O O13 0.197106 0.695211 0.657377
#
# Coordination Sequence:
#
# PCOD9371636 Si02
#       7
#    16  16  16  16  16  16   8
#     4  11  23  43  67  99 132 177 231 284 348 410
#     4  11  23  43  67  99 132 177 231 284 348 410
#     4  10  22  43  69 100 134 175 225 294 341 415
#     4  11  24  45  65  94 139 181 226 275 345 419
#     4  10  22  43  69 100 134 175 225 294 341 415
#     4  11  24  45  65  94 139 181 226 275 345 419
#     4   8  20  40  76 104 136 164 242 288 360 396
#
# _framework density 21.580884000000001
#
# number of rings (size 3 to 8) (size 9 to 14) (size 15 to 20)
#    0.000    1.538    3.077    0.923    0.000    9.846 
#    0.000    0.000    0.000    0.000    0.000    0.000 
#    0.000    0.000    0.000    0.000    0.000    0.000 
#
# Total GULP energy -144947.958622 kJ/mol
# GULP energy per Si atom -5574.921485 kJ/mol
# Density = 2.153176 g / cm^3
# Si number density = 21.580884 Si / 1000 Ang^3
#
#
#
# Elastic Constant Matrix: (Units=GPa)
#
#
# Indices 1 2 3 4 5 6 
#
# 1 126.9127 50.2005 4.1964 0.0000 0.0000 0.0000
# 2 50.2005 126.9128 4.1964 0.0000 0.0000 0.0000
# 3 4.1964 4.1964 25.9954 0.0000 0.0000 0.0000
# 4 0.0000 0.0000 0.0000 31.4458 0.0000 0.0000
# 5 0.0000 0.0000 0.0000 0.0000 31.4458 0.0000
# 6 0.0000 0.0000 0.0000 0.0000 0.0000 7.7951
#
#
#
# Elastic Compliance Matrix: (Units=1/GPa)
#
#
# Indices 1 2 3 4 5 6 
#
# 1 0.009363 -0.003673 -0.000918 0.000000 0.000000 0.000000
# 2 -0.003673 0.009363 -0.000918 0.000000 0.000000 0.000000
# 3 -0.000918 -0.000918 0.038765 0.000000 0.000000 0.000000
# 4 0.000000 0.000000 0.000000 0.031801 0.000000 0.000000
# 5 0.000000 0.000000 0.000000 0.000000 0.031801 0.000000
# 6 0.000000 0.000000 0.000000 0.000000 0.000000 0.128286
#
#
# Mechanical properties :
#
#
# Convention : Reuss Voigt Hill
#
# Bulk Modulus (GPa) = 21.51912 44.11195 32.81553
# Shear Modulus (GPa) = 18.12332 28.88584 23.50458
#
# Velocity S-wave (km/s) = 2.90105 3.66251 3.30379
# Velocity P-wave (km/s) = 4.60592 6.19435 5.45823
#
# Compressibility (1/GPa) = 0.04647031
#
# Stress axis : x y z
#
# Youngs Moduli (GPa) = 106.80697 106.80707 25.79651
#
# Poissons Ratio (x) = 0.39231 0.02369
# Poissons Ratio (y) = 0.39231 0.02369
# Poissons Ratio (z) = 0.09810 0.09810
#
# Static dielectric constant tensor:
#      x y z
#    x 1.801110 0.000000 0.000000 
#    y 0.000000 1.801110 0.000000 
#    z 0.000000 0.000000 1.788070 
# 
# From -- ./inp_files/14260.got.cif
#   From: 2010.05.17/outbox.cif.g08.bks.cpg/sg43_8_cif.got.tgz:14260.got - 2010.06.03 19:21:55.
