data_PCOD9371001
_publ_section_title
;
Structure prediction by ZEFSAII (Michael W. Deem and Ramdas Pophale) SiO2 
 PCOD9371001
Probable space group: F D D 2
;
_chemical_formula_sum "Si O2"
_cell_formula_units_Z 80
_cell_length_a 5.386887
_cell_length_b 29.132236
_cell_length_c 20.421117
_cell_angle_alpha 90.000000
_cell_angle_beta 90.000000
_cell_angle_gamma 90.000000
_cell_volume 3204.728028
_symmetry_space_group_name_H-M "F D D 2"
_symmetry_group_IT_number 43
_symmetry_cell_setting 'orthorhombic'
loop_
_space_group_symop_operation_xyz
x,y,z
-x,-y,z
1/4-x,1/4+y,1/4+z
1/4+x,1/4-y,1/4+z
x,1/2+y,1/2+z
-x,1/2-y,1/2+z
1/4-x,3/4+y,3/4+z
1/4+x,3/4-y,3/4+z
1/2+x,y,1/2+z
1/2-x,-y,1/2+z
3/4-x,1/4+y,3/4+z
3/4+x,1/4-y,3/4+z
1/2+x,1/2+y,z
1/2-x,1/2-y,z
3/4-x,3/4+y,1/4+z
3/4+x,3/4-y,1/4+z
loop_
_atom_site_type_symbol
_atom_site_label
_atom_site_fract_x
_atom_site_fract_y
_atom_site_fract_z
Si Si1 0.000001 0.726079 0.332760
Si Si2 0.593450 0.914169 0.763687
Si Si3 0.353183 0.319934 0.964751
Si Si4 0.906546 0.914168 0.401832
Si Si5 0.353187 0.180066 0.200769
O O1 0.250000 0.750000 0.303804
O O2 0.133365 0.698929 0.391589
O O3 0.750000 0.750000 0.361715
O O4 0.866638 0.698929 0.273931
O O5 0.358800 0.945590 0.747419
O O6 0.499998 0.893082 0.832759
O O7 0.624998 0.875001 0.707759
O O8 0.857916 0.939058 0.757118
O O9 0.374998 0.375000 0.957760
O O10 0.642081 0.939057 0.408402
O O11 0.141196 0.945589 0.418100
#
# Coordination Sequence:
#
# PCOD9371001 Si02
#       5
#    16  16  16  16  16
#     4  12  26  46  72 106 153 200 251 312 392 458
#     4  10  21  34  61  98 143 179 233 305 367 420
#     4  10  23  38  68  99 144 182 254 298 366 431
#     4  10  21  34  61  98 143 179 233 305 367 420
#     4  10  23  38  68  99 144 182 254 298 366 431
#
# _framework density 24.963118999999999
#
# number of rings (size 3 to 8) (size 9 to 14) (size 15 to 20)
#    0.000    1.600    0.000    3.600   22.400    0.000 
#    0.000    0.000    0.000   18.000    0.000    0.000 
#    0.000    0.000    0.000    0.000    0.000    0.000 
#
# Total GULP energy -111418.040286 kJ/mol
# GULP energy per Si atom -5570.902014 kJ/mol
# Density = 2.490630 g / cm^3
# Si number density = 24.963119 Si / 1000 Ang^3
#
#
#
# Elastic Constant Matrix: (Units=GPa)
#
#
# Indices 1 2 3 4 5 6 
#
# 1 311.6953 26.7154 68.6241 0.0000 0.0000 0.0000
# 2 26.7154 44.5143 22.5142 0.0000 0.0000 0.0000
# 3 68.6241 22.5142 182.9925 0.0000 0.0000 0.0000
# 4 0.0000 0.0000 0.0000 -74.8214 0.0000 0.0000
# 5 0.0000 0.0000 0.0000 0.0000 56.4704 0.0000
# 6 0.0000 0.0000 0.0000 0.0000 0.0000 18.2074
#
#
#
# Elastic Compliance Matrix: (Units=1/GPa)
#
#
# Indices 1 2 3 4 5 6 
#
# 1 0.003598 -0.001575 -0.001155 0.000000 0.000000 0.000000
# 2 -0.001575 0.024645 -0.002442 0.000000 0.000000 0.000000
# 3 -0.001155 -0.002442 0.006198 0.000000 0.000000 0.000000
# 4 0.000000 0.000000 0.000000 -0.013365 0.000000 0.000000
# 5 0.000000 0.000000 0.000000 0.000000 0.017708 0.000000
# 6 0.000000 0.000000 0.000000 0.000000 0.000000 0.054923
#
#
# Mechanical properties :
#
#
# Convention : Reuss Voigt Hill
#
# Bulk Modulus (GPa) = 41.49858 86.10107 63.79982
# Shear Modulus (GPa) = 44.61008 28.06119 36.33563
#
# Velocity S-wave (km/s) = 4.23192 3.35641 3.81934
# Velocity P-wave (km/s) = 6.36702 7.04179 6.71289
#
# Compressibility (1/GPa) = 0.02409721
#
# Stress axis : x y z
#
# Youngs Moduli (GPa) = 277.96236 40.57677 161.33232
#
# Poissons Ratio (x) = 0.06390 0.18640
# Poissons Ratio (y) = 0.43772 0.39390
# Poissons Ratio (z) = 0.32116 0.09907
#
# Static dielectric constant tensor:
#      x y z
#    x 2.466590 0.000000 0.000000 
#    y 0.000000 2.019180 0.000000 
#    z 0.000000 0.000000 2.001280 
# 
# From -- ./inp_files/19507.got.cif
#   From: 2010.05.17/outbox.cif.g08.bks.cpg/sg43_10_cif.got.tgz:19507.got - 2010.06.03 19:21:55.
