data_PCOD9371343
_publ_section_title
;
Structure prediction by ZEFSAII (Michael W. Deem and Ramdas Pophale) SiO2 
 PCOD9371343
Probable space group: F D D 2
;
_chemical_formula_sum "Si O2"
_cell_formula_units_Z 112
_cell_length_a 27.666118
_cell_length_b 14.996157
_cell_length_c 10.883267
_cell_angle_alpha 90.000000
_cell_angle_beta 90.000000
_cell_angle_gamma 90.000000
_cell_volume 4515.309117
_symmetry_space_group_name_H-M "F D D 2"
_symmetry_group_IT_number 43
_symmetry_cell_setting 'orthorhombic'
loop_
_space_group_symop_operation_xyz
x,y,z
-x,-y,z
1/4-x,1/4+y,1/4+z
1/4+x,1/4-y,1/4+z
x,1/2+y,1/2+z
-x,1/2-y,1/2+z
1/4-x,3/4+y,3/4+z
1/4+x,3/4-y,3/4+z
1/2+x,y,1/2+z
1/2-x,-y,1/2+z
3/4-x,1/4+y,3/4+z
3/4+x,1/4-y,3/4+z
1/2+x,1/2+y,z
1/2-x,1/2-y,z
3/4-x,3/4+y,1/4+z
3/4+x,3/4-y,1/4+z
loop_
_atom_site_type_symbol
_atom_site_label
_atom_site_fract_x
_atom_site_fract_y
_atom_site_fract_z
Si Si1 0.582082 0.852614 0.123800
Si Si2 0.904814 0.018105 0.018017
Si Si3 0.529920 0.087093 0.686469
Si Si4 0.834713 0.603218 0.679998
Si Si5 0.613861 0.048078 0.159080
Si Si6 0.278090 0.435310 0.250127
Si Si7 0.236982 0.353613 0.020910
O O1 0.612707 0.771486 0.183191
O O2 0.527674 0.865632 0.172145
O O3 0.608500 0.942405 0.168930
O O4 0.589467 0.836857 0.978406
O O5 0.942058 0.943610 0.062575
O O6 0.880766 0.045067 0.145657
O O7 0.931417 0.107795 0.973260
O O8 0.561542 0.115478 0.802003
O O9 0.494690 0.162351 0.631754
O O10 0.500000 0.000000 0.724378
O O11 0.854247 0.679766 0.767428
O O12 0.799147 0.533584 0.744370
O O13 0.567674 0.094859 0.224921
O O14 0.242659 0.419379 0.135428
O O15 0.250000 0.250000 0.054233
#
# Coordination Sequence:
#
# PCOD9371343 Si02
#       7
#    16  16  16  16  16  16  16
#     4  11  24  46  76 102 141 197 238 303 380 434
#     4  11  23  45  74 102 139 185 244 292 366 453
#     4  10  25  47  70  99 140 197 236 297 376 438
#     4  12  27  43  71 102 149 183 240 301 368 439
#     4  11  28  46  67 108 147 191 244 308 369 451
#     4  11  23  44  75 105 139 184 245 307 365 445
#     4  10  21  45  72 102 140 184 244 307 360 436
#
# _framework density 24.804504000000001
#
# number of rings (size 3 to 8) (size 9 to 14) (size 15 to 20)
#    0.000    1.143    1.429    4.714    8.000    1.714 
#    5.143    0.000    0.000    0.000    0.000    0.000 
#    0.000    0.000    0.000    0.000    0.000    0.000 
#
# Total GULP energy -156717.619902 kJ/mol
# GULP energy per Si atom -5597.057854 kJ/mol
# Density = 2.474805 g / cm^3
# Si number density = 24.804504 Si / 1000 Ang^3
#
#
#
# Elastic Constant Matrix: (Units=GPa)
#
#
# Indices 1 2 3 4 5 6 
#
# 1 57.4436 17.1926 23.4567 0.0000 0.0000 0.0000
# 2 17.1926 80.6426 28.6901 0.0000 0.0000 0.0000
# 3 23.4567 28.6901 88.2677 0.0000 0.0000 0.0000
# 4 0.0000 0.0000 0.0000 37.1833 0.0000 0.0000
# 5 0.0000 0.0000 0.0000 0.0000 40.1005 0.0000
# 6 0.0000 0.0000 0.0000 0.0000 0.0000 17.5705
#
#
#
# Elastic Compliance Matrix: (Units=1/GPa)
#
#
# Indices 1 2 3 4 5 6 
#
# 1 0.020029 -0.002687 -0.004449 0.000000 0.000000 0.000000
# 2 -0.002687 0.014382 -0.003961 0.000000 0.000000 0.000000
# 3 -0.004449 -0.003961 0.013799 0.000000 0.000000 0.000000
# 4 0.000000 0.000000 0.000000 0.026894 0.000000 0.000000
# 5 0.000000 0.000000 0.000000 0.000000 0.024937 0.000000
# 6 0.000000 0.000000 0.000000 0.000000 0.000000 0.056914
#
#
# Mechanical properties :
#
#
# Convention : Reuss Voigt Hill
#
# Bulk Modulus (GPa) = 38.43735 40.55919 39.49827
# Shear Modulus (GPa) = 26.62093 29.43848 28.02970
#
# Velocity S-wave (km/s) = 3.27957 3.44876 3.36523
# Velocity P-wave (km/s) = 5.46540 5.67853 5.57298
#
# Compressibility (1/GPa) = 0.02601636
#
# Stress axis : x y z
#
# Youngs Moduli (GPa) = 49.92638 69.52955 72.46950
#
# Poissons Ratio (x) = 0.18684 0.32244
# Poissons Ratio (y) = 0.13417 0.28703
# Poissons Ratio (z) = 0.22214 0.27538
#
# Static dielectric constant tensor:
#      x y z
#    x 2.118590 0.000000 0.000000 
#    y 0.000000 1.985310 0.000000 
#    z 0.000000 0.000000 1.989770 
# 
# From -- ./inp_files/8294.got.cif
#   From: 2010.05.17/outbox.cif.g08.bks.cpg/sg43_5_cif.got.tgz:8294.got - 2010.06.03 19:21:55.
