data_PCOD9371228
_publ_section_title
;
Structure prediction by ZEFSAII (Michael W. Deem and Ramdas Pophale) SiO2 
 PCOD9371228
Probable space group: F D D 2
;
_chemical_formula_sum "Si O2"
_cell_formula_units_Z 96
_cell_length_a 19.304064
_cell_length_b 12.857983
_cell_length_c 18.645003
_cell_angle_alpha 90.000000
_cell_angle_beta 90.000000
_cell_angle_gamma 90.000000
_cell_volume 4627.900932
_symmetry_space_group_name_H-M "F D D 2"
_symmetry_group_IT_number 43
_symmetry_cell_setting 'orthorhombic'
loop_
_space_group_symop_operation_xyz
x,y,z
-x,-y,z
1/4-x,1/4+y,1/4+z
1/4+x,1/4-y,1/4+z
x,1/2+y,1/2+z
-x,1/2-y,1/2+z
1/4-x,3/4+y,3/4+z
1/4+x,3/4-y,3/4+z
1/2+x,y,1/2+z
1/2-x,-y,1/2+z
3/4-x,1/4+y,3/4+z
3/4+x,1/4-y,3/4+z
1/2+x,1/2+y,z
1/2-x,1/2-y,z
3/4-x,3/4+y,1/4+z
3/4+x,3/4-y,1/4+z
loop_
_atom_site_type_symbol
_atom_site_label
_atom_site_fract_x
_atom_site_fract_y
_atom_site_fract_z
Si Si1 0.120145 0.741374 0.736580
Si Si2 0.293372 0.394333 0.712860
Si Si3 0.510324 0.874661 0.804859
Si Si4 0.542152 0.900366 0.599103
Si Si5 0.847000 0.546419 0.323925
Si Si6 0.603684 0.584716 0.466370
O O1 0.183648 0.675745 0.769002
O O2 0.128157 0.742712 0.650011
O O3 0.124335 0.848139 0.784756
O O4 0.050204 0.680060 0.759116
O O5 0.269842 0.425447 0.633185
O O6 0.343275 0.464074 0.760027
O O7 0.216766 0.383876 0.746896
O O8 0.331367 0.283931 0.705081
O O9 0.583407 0.853008 0.768737
O O10 0.500000 0.000000 0.810586
O O11 0.483226 0.815147 0.595884
O O12 0.611864 0.877401 0.642920
O O13 0.500000 0.000000 0.629858
#
# Coordination Sequence:
#
# PCOD9371228 Si02
#       6
#    16  16  16  16  16  16
#     4  11  25  45  69 105 137 183 240 293 356 418
#     4  11  26  43  65 100 142 185 225 289 348 433
#     4  12  24  41  76 104 133 174 234 298 347 415
#     4  10  21  41  70 102 130 173 235 300 339 411
#     4  11  27  44  68 100 148 192 231 286 367 431
#     4  11  23  43  68 103 133 173 232 288 358 405
#
# _framework density 20.743746000000002
#
# number of rings (size 3 to 8) (size 9 to 14) (size 15 to 20)
#    0.000    1.000    5.000    0.500   11.667    0.000 
#    0.000    0.833    0.000    0.000    0.000    0.000 
#    0.000    0.000    0.000    0.000    0.000    0.000 
#
# Total GULP energy -133732.400618 kJ/mol
# GULP energy per Si atom -5572.183359 kJ/mol
# Density = 2.069653 g / cm^3
# Si number density = 20.743746 Si / 1000 Ang^3
#
#
#
# Elastic Constant Matrix: (Units=GPa)
#
#
# Indices 1 2 3 4 5 6 
#
# 1 93.2833 27.2188 36.2180 0.0000 0.0000 0.0000
# 2 27.2188 66.9896 46.8751 0.0000 0.0000 0.0000
# 3 36.2180 46.8751 118.1989 0.0000 0.0000 0.0000
# 4 0.0000 0.0000 0.0000 23.7588 0.0000 0.0000
# 5 0.0000 0.0000 0.0000 0.0000 40.8536 0.0000
# 6 0.0000 0.0000 0.0000 0.0000 0.0000 19.7249
#
#
#
# Elastic Compliance Matrix: (Units=1/GPa)
#
#
# Indices 1 2 3 4 5 6 
#
# 1 0.012695 -0.003372 -0.002553 0.000000 0.000000 0.000000
# 2 -0.003372 0.021557 -0.007516 0.000000 0.000000 0.000000
# 3 -0.002553 -0.007516 0.012223 0.000000 0.000000 0.000000
# 4 0.000000 0.000000 0.000000 0.042090 0.000000 0.000000
# 5 0.000000 0.000000 0.000000 0.000000 0.024478 0.000000
# 6 0.000000 0.000000 0.000000 0.000000 0.000000 0.050697
#
#
# Mechanical properties :
#
#
# Convention : Reuss Voigt Hill
#
# Bulk Modulus (GPa) = 51.03573 55.45510 53.24541
# Shear Modulus (GPa) = 25.36117 28.07812 26.71965
#
# Velocity S-wave (km/s) = 3.50035 3.68308 3.59288
# Velocity P-wave (km/s) = 6.40258 6.69912 6.55253
#
# Compressibility (1/GPa) = 0.01959411
#
# Stress axis : x y z
#
# Youngs Moduli (GPa) = 78.77098 46.38907 81.81240
#
# Poissons Ratio (x) = 0.15642 0.20884
# Poissons Ratio (y) = 0.26561 0.61488
# Poissons Ratio (z) = 0.20108 0.34865
#
# Static dielectric constant tensor:
#      x y z
#    x 1.753280 0.000000 0.000000 
#    y 0.000000 1.792810 0.000000 
#    z 0.000000 0.000000 1.876500 
# 
# From -- ./inp_files/18314.got.cif
#   From: 2010.05.17/outbox.cif.g08.bks.cpg/sg43_10_cif.got.tgz:18314.got - 2010.06.03 19:21:55.
