data_PCOD9371296
_publ_section_title
;
Structure prediction by ZEFSAII (Michael W. Deem and Ramdas Pophale) SiO2 
 PCOD9371296
Probable space group: F D D 2
;
_chemical_formula_sum "Si O2"
_cell_formula_units_Z 112
_cell_length_a 11.593728
_cell_length_b 27.818870
_cell_length_c 14.508167
_cell_angle_alpha 90.000000
_cell_angle_beta 90.000000
_cell_angle_gamma 90.000000
_cell_volume 4679.238032
_symmetry_space_group_name_H-M "F D D 2"
_symmetry_group_IT_number 43
_symmetry_cell_setting 'orthorhombic'
loop_
_space_group_symop_operation_xyz
x,y,z
-x,-y,z
1/4-x,1/4+y,1/4+z
1/4+x,1/4-y,1/4+z
x,1/2+y,1/2+z
-x,1/2-y,1/2+z
1/4-x,3/4+y,3/4+z
1/4+x,3/4-y,3/4+z
1/2+x,y,1/2+z
1/2-x,-y,1/2+z
3/4-x,1/4+y,3/4+z
3/4+x,1/4-y,3/4+z
1/2+x,1/2+y,z
1/2-x,1/2-y,z
3/4-x,3/4+y,1/4+z
3/4+x,3/4-y,1/4+z
loop_
_atom_site_type_symbol
_atom_site_label
_atom_site_fract_x
_atom_site_fract_y
_atom_site_fract_z
Si Si1 0.223249 0.155988 0.063330
Si Si2 0.048769 0.190763 0.906869
Si Si3 0.366455 0.375280 0.474163
Si Si4 0.875596 0.271869 0.216240
Si Si5 0.675548 0.947196 0.457750
Si Si6 0.626629 0.227135 0.917658
Si Si7 0.386370 0.627834 0.418526
O O1 0.228417 0.102801 0.108325
O O2 0.187791 0.192437 0.144802
O O3 0.128555 0.166066 0.983893
O O4 0.343880 0.158449 0.005973
O O5 0.119377 0.218422 0.826722
O O6 0.964766 0.232154 0.944661
O O7 0.247358 0.397796 0.442647
O O8 0.363249 0.318273 0.484119
O O9 0.477441 0.381819 0.411273
O O10 0.399243 0.399786 0.571428
O O11 0.750000 0.250000 0.191527
O O12 0.910429 0.324456 0.179970
O O13 0.977839 0.236720 0.185167
O O14 0.648524 0.956727 0.564782
O O15 0.750000 0.250000 0.912960
#
# Coordination Sequence:
#
# PCOD9371296 Si02
#       7
#    16  16  16  16  16  16  16
#     4  11  25  45  72 105 143 195 237 294 375 433
#     4  10  25  44  72  99 148 186 234 299 364 436
#     4  12  24  45  75 103 138 190 241 294 357 433
#     4  10  21  43  71 103 138 179 241 296 350 415
#     4  11  25  43  73 102 145 194 238 292 373 428
#     4  11  26  47  69 108 149 184 245 311 360 430
#     4  11  24  44  73 105 142 184 241 299 352 438
#
# _framework density 23.935521000000001
#
# number of rings (size 3 to 8) (size 9 to 14) (size 15 to 20)
#    0.000    1.143    2.857    2.571    6.000    1.714 
#    2.571    0.714    0.000    0.000    0.000    0.000 
#    0.000    0.000    0.000    0.000    0.000    0.000 
#
# Total GULP energy -156363.028467 kJ/mol
# GULP energy per Si atom -5584.393874 kJ/mol
# Density = 2.388104 g / cm^3
# Si number density = 23.935521 Si / 1000 Ang^3
#
#
#
# Elastic Constant Matrix: (Units=GPa)
#
#
# Indices 1 2 3 4 5 6 
#
# 1 47.9954 17.1300 2.3540 0.0000 0.0000 0.0000
# 2 17.1300 67.7139 4.4157 0.0000 0.0000 0.0000
# 3 2.3540 4.4157 73.8126 0.0000 0.0000 0.0000
# 4 0.0000 0.0000 0.0000 20.1774 0.0000 0.0000
# 5 0.0000 0.0000 0.0000 0.0000 23.1421 0.0000
# 6 0.0000 0.0000 0.0000 0.0000 0.0000 43.7611
#
#
#
# Elastic Compliance Matrix: (Units=1/GPa)
#
#
# Indices 1 2 3 4 5 6 
#
# 1 0.022914 -0.005772 -0.000385 0.000000 0.000000 0.000000
# 2 -0.005772 0.016280 -0.000790 0.000000 0.000000 0.000000
# 3 -0.000385 -0.000790 0.013607 0.000000 0.000000 0.000000
# 4 0.000000 0.000000 0.000000 0.049560 0.000000 0.000000
# 5 0.000000 0.000000 0.000000 0.000000 0.043211 0.000000
# 6 0.000000 0.000000 0.000000 0.000000 0.000000 0.022851
#
#
# Mechanical properties :
#
#
# Convention : Reuss Voigt Hill
#
# Bulk Modulus (GPa) = 25.70212 26.36902 26.03557
# Shear Modulus (GPa) = 25.60334 28.45760 27.03047
#
# Velocity S-wave (km/s) = 3.27414 3.45182 3.36416
# Velocity P-wave (km/s) = 5.00547 5.18916 5.09814
#
# Compressibility (1/GPa) = 0.03890730
#
# Stress axis : x y z
#
# Youngs Moduli (GPa) = 43.64113 61.42658 73.48957
#
# Poissons Ratio (x) = 0.35453 0.02833
# Poissons Ratio (y) = 0.25188 0.05804
# Poissons Ratio (z) = 0.01682 0.04852
#
# Static dielectric constant tensor:
#      x y z
#    x 1.884370 0.000000 0.000000 
#    y 0.000000 1.943720 0.000000 
#    z 0.000000 0.000000 1.966960 
# 
# From -- ./inp_files/9774.got.cif
#   From: 2010.05.17/outbox.cif.g08.bks.cpg/sg43_5_cif.got.tgz:9774.got - 2010.06.03 19:21:55.
