data_PCOD9371593
_publ_section_title
;
Structure prediction by ZEFSAII (Michael W. Deem and Ramdas Pophale) SiO2 
 PCOD9371593
Probable space group: F D D 2
;
_chemical_formula_sum "Si O2"
_cell_formula_units_Z 80
_cell_length_a 13.146186
_cell_length_b 12.823384
_cell_length_c 23.806570
_cell_angle_alpha 90.000000
_cell_angle_beta 90.000000
_cell_angle_gamma 90.000000
_cell_volume 4013.278032
_symmetry_space_group_name_H-M "F D D 2"
_symmetry_group_IT_number 43
_symmetry_cell_setting 'orthorhombic'
loop_
_space_group_symop_operation_xyz
x,y,z
-x,-y,z
1/4-x,1/4+y,1/4+z
1/4+x,1/4-y,1/4+z
x,1/2+y,1/2+z
-x,1/2-y,1/2+z
1/4-x,3/4+y,3/4+z
1/4+x,3/4-y,3/4+z
1/2+x,y,1/2+z
1/2-x,-y,1/2+z
3/4-x,1/4+y,3/4+z
3/4+x,1/4-y,3/4+z
1/2+x,1/2+y,z
1/2-x,1/2-y,z
3/4-x,3/4+y,1/4+z
3/4+x,3/4-y,1/4+z
loop_
_atom_site_type_symbol
_atom_site_label
_atom_site_fract_x
_atom_site_fract_y
_atom_site_fract_z
Si Si1 0.785858 0.858683 0.924850
Si Si2 0.513514 0.876118 0.385919
Si Si3 0.116514 0.042866 0.241142
Si Si4 0.817979 0.151464 0.305988
Si Si5 0.537554 0.745425 0.281049
O O1 0.750000 0.750000 0.952024
O O2 0.899553 0.840217 0.901937
O O3 0.716870 0.875707 0.869345
O O4 0.781541 0.951309 0.969791
O O5 0.588754 0.829953 0.432299
O O6 0.554096 0.834954 0.326545
O O7 0.500000 0.000000 0.386498
O O8 0.114438 0.148326 0.278406
O O9 0.184679 0.951873 0.268119
O O10 0.000000 0.000000 0.236258
O O11 0.750000 0.250000 0.287232
O O12 0.932093 0.193014 0.300146
#
# Coordination Sequence:
#
# PCOD9371593 Si02
#       5
#    16  16  16  16  16
#     4  11  23  43  67 102 135 176 237 284 339 422
#     4  12  24  45  67 102 135 181 233 289 351 413
#     4  10  25  45  66 101 140 178 231 283 357 425
#     4  10  22  42  70  99 133 177 233 280 342 420
#     4  11  23  44  66  96 142 179 220 294 345 410
#
# _framework density 19.933828999999999
#
# number of rings (size 3 to 8) (size 9 to 14) (size 15 to 20)
#    0.000    1.200    6.000    0.600    2.800    4.800 
#    3.600    2.000    0.000    0.000    0.000    0.000 
#    0.000    0.000    0.000    0.000    0.000    0.000 
#
# Total GULP energy -111583.238921 kJ/mol
# GULP energy per Si atom -5579.161946 kJ/mol
# Density = 1.988846 g / cm^3
# Si number density = 19.933829 Si / 1000 Ang^3
#
#
#
# Elastic Constant Matrix: (Units=GPa)
#
#
# Indices 1 2 3 4 5 6 
#
# 1 35.1809 19.2174 35.8081 0.0000 0.0000 0.0000
# 2 19.2174 164.0034 74.7009 0.0000 0.0000 0.0000
# 3 35.8081 74.7009 119.7650 0.0000 0.0000 0.0000
# 4 0.0000 0.0000 0.0000 31.0596 0.0000 0.0000
# 5 0.0000 0.0000 0.0000 0.0000 22.2971 0.0000
# 6 0.0000 0.0000 0.0000 0.0000 0.0000 33.2470
#
#
#
# Elastic Compliance Matrix: (Units=1/GPa)
#
#
# Indices 1 2 3 4 5 6 
#
# 1 0.040997 0.001088 -0.012936 0.000000 0.000000 0.000000
# 2 0.001088 0.008546 -0.005656 0.000000 0.000000 0.000000
# 3 -0.012936 -0.005656 0.015745 0.000000 0.000000 0.000000
# 4 0.000000 0.000000 0.000000 0.032196 0.000000 0.000000
# 5 0.000000 0.000000 0.000000 0.000000 0.044849 0.000000
# 6 0.000000 0.000000 0.000000 0.000000 0.000000 0.030078
#
#
# Mechanical properties :
#
#
# Convention : Reuss Voigt Hill
#
# Bulk Modulus (GPa) = 33.02447 64.26692 48.64570
# Shear Modulus (GPa) = 22.98718 29.93558 26.46138
#
# Velocity S-wave (km/s) = 3.39953 3.87944 3.64739
# Velocity P-wave (km/s) = 5.65792 7.23719 6.49573
#
# Compressibility (1/GPa) = 0.03028057
#
# Stress axis : x y z
#
# Youngs Moduli (GPa) = 24.39203 117.01326 63.51134
#
# Poissons Ratio (x) = -0.12736 0.82161
# Poissons Ratio (y) = -0.02655 0.35921
# Poissons Ratio (z) = 0.31555 0.66181
#
# Static dielectric constant tensor:
#      x y z
#    x 1.746260 0.000000 0.000000 
#    y 0.000000 1.744670 0.000000 
#    z 0.000000 0.000000 1.685610 
# 
# From -- ./inp_files/17507.got.cif
#   From: 2010.05.17/outbox.cif.g08.bks.cpg/sg43_9_cif.got.tgz:17507.got - 2010.06.03 19:21:55.
