data_PCOD9371773
_publ_section_title
;
Structure prediction by ZEFSAII (Michael W. Deem and Ramdas Pophale) SiO2 
 PCOD9371773
Probable space group: F D D 2
;
_chemical_formula_sum "Si O2"
_cell_formula_units_Z 112
_cell_length_a 31.937675
_cell_length_b 13.083161
_cell_length_c 12.374200
_cell_angle_alpha 90.000000
_cell_angle_beta 90.000000
_cell_angle_gamma 90.000000
_cell_volume 5170.506805
_symmetry_space_group_name_H-M "F D D 2"
_symmetry_group_IT_number 43
_symmetry_cell_setting 'orthorhombic'
loop_
_space_group_symop_operation_xyz
x,y,z
-x,-y,z
1/4-x,1/4+y,1/4+z
1/4+x,1/4-y,1/4+z
x,1/2+y,1/2+z
-x,1/2-y,1/2+z
1/4-x,3/4+y,3/4+z
1/4+x,3/4-y,3/4+z
1/2+x,y,1/2+z
1/2-x,-y,1/2+z
3/4-x,1/4+y,3/4+z
3/4+x,1/4-y,3/4+z
1/2+x,1/2+y,z
1/2-x,1/2-y,z
3/4-x,3/4+y,1/4+z
3/4+x,3/4-y,1/4+z
loop_
_atom_site_type_symbol
_atom_site_label
_atom_site_fract_x
_atom_site_fract_y
_atom_site_fract_z
Si Si1 0.574370 0.197670 0.640180
Si Si2 0.551045 0.775503 0.381186
Si Si3 0.206715 0.797636 0.165694
Si Si4 0.863470 0.741134 0.486562
Si Si5 0.603807 0.553764 0.585209
Si Si6 0.479128 0.900093 0.473448
Si Si7 0.850419 0.153305 0.577232
O O1 0.564529 0.247519 0.757996
O O2 0.535263 0.185766 0.559783
O O3 0.612574 0.265326 0.596775
O O4 0.588337 0.077366 0.648909
O O5 0.535149 0.667248 0.425187
O O6 0.590189 0.802742 0.459681
O O7 0.514326 0.855383 0.393555
O O8 0.250000 0.750000 0.128875
O O9 0.187936 0.760330 0.278719
O O10 0.167563 0.779480 0.086185
O O11 0.874465 0.861107 0.506581
O O12 0.634221 0.459859 0.606289
O O13 0.591922 0.601383 0.699494
O O14 0.439091 0.928518 0.400977
O O15 0.500000 0.000000 0.526748
#
# Coordination Sequence:
#
# PCOD9371773 Si02
#       7
#    16  16  16  16  16  16  16
#     4  11  25  48  72  97 145 193 243 303 380 449
#     4  10  25  44  71 102 139 187 239 308 358 446
#     4  10  23  42  72 104 141 185 243 301 360 440
#     4  10  22  47  70 102 134 193 239 296 370 449
#     4  11  24  43  73 104 143 188 243 298 371 444
#     4  12  28  46  69 108 146 190 248 306 380 455
#     4  12  25  46  72 106 142 198 234 311 376 449
#
# _framework density 21.66132
#
# number of rings (size 3 to 8) (size 9 to 14) (size 15 to 20)
#    0.000    1.143    2.857    1.714    6.000    7.429 
#    0.000    0.000    0.000    0.000    0.000    0.000 
#    0.000    0.000    0.000    0.000    0.000    0.000 
#
# Total GULP energy -155932.779472 kJ/mol
# GULP energy per Si atom -5569.027838 kJ/mol
# Density = 2.161202 g / cm^3
# Si number density = 21.661320 Si / 1000 Ang^3
#
#
#
# Elastic Constant Matrix: (Units=GPa)
#
#
# Indices 1 2 3 4 5 6 
#
# 1 101.9904 42.0453 69.3384 0.0000 0.0000 0.0000
# 2 42.0453 72.3039 15.4141 0.0000 0.0000 0.0000
# 3 69.3384 15.4141 68.9369 0.0000 0.0000 0.0000
# 4 0.0000 0.0000 0.0000 11.1434 0.0000 0.0000
# 5 0.0000 0.0000 0.0000 0.0000 23.7692 0.0000
# 6 0.0000 0.0000 0.0000 0.0000 0.0000 36.4342
#
#
#
# Elastic Compliance Matrix: (Units=1/GPa)
#
#
# Indices 1 2 3 4 5 6 
#
# 1 0.045418 -0.017507 -0.041768 0.000000 0.000000 0.000000
# 2 -0.017507 0.021271 0.012853 0.000000 0.000000 0.000000
# 3 -0.041768 0.012853 0.053644 0.000000 0.000000 0.000000
# 4 0.000000 0.000000 0.000000 0.089739 0.000000 0.000000
# 5 0.000000 0.000000 0.000000 0.000000 0.042071 0.000000
# 6 0.000000 0.000000 0.000000 0.000000 0.000000 0.027447
#
#
# Mechanical properties :
#
#
# Convention : Reuss Voigt Hill
#
# Bulk Modulus (GPa) = 36.37950 55.20299 45.79124
# Shear Modulus (GPa) = 13.10280 22.03159 17.56720
#
# Velocity S-wave (km/s) = 2.46213 3.19265 2.85088
# Velocity P-wave (km/s) = 4.99138 6.25545 5.65882
#
# Compressibility (1/GPa) = 0.02748801
#
# Stress axis : x y z
#
# Youngs Moduli (GPa) = 22.01755 47.01271 18.64143
#
# Poissons Ratio (x) = 0.82304 0.77862
# Poissons Ratio (y) = 0.38546 -0.23959
# Poissons Ratio (z) = 0.91964 -0.60424
#
# Static dielectric constant tensor:
#      x y z
#    x 1.807860 0.000000 0.000000 
#    y 0.000000 1.834980 0.000000 
#    z 0.000000 0.000000 1.812260 
# 
# From -- ./inp_files/8282.got.cif
#   From: 2010.05.17/outbox.cif.g08.bks.cpg/sg43_5_cif.got.tgz:8282.got - 2010.06.03 19:21:55.
