data_PCOD9371364
_publ_section_title
;
Structure prediction by ZEFSAII (Michael W. Deem and Ramdas Pophale) SiO2 
 PCOD9371364
Probable space group: F D D 2
;
_chemical_formula_sum "Si O2"
_cell_formula_units_Z 120
_cell_length_a 21.511092
_cell_length_b 13.245309
_cell_length_c 18.742207
_cell_angle_alpha 90.000000
_cell_angle_beta 90.000000
_cell_angle_gamma 90.000000
_cell_volume 5340.049494
_symmetry_space_group_name_H-M "F D D 2"
_symmetry_group_IT_number 43
_symmetry_cell_setting 'orthorhombic'
loop_
_space_group_symop_operation_xyz
x,y,z
-x,-y,z
1/4-x,1/4+y,1/4+z
1/4+x,1/4-y,1/4+z
x,1/2+y,1/2+z
-x,1/2-y,1/2+z
1/4-x,3/4+y,3/4+z
1/4+x,3/4-y,3/4+z
1/2+x,y,1/2+z
1/2-x,-y,1/2+z
3/4-x,1/4+y,3/4+z
3/4+x,1/4-y,3/4+z
1/2+x,1/2+y,z
1/2-x,1/2-y,z
3/4-x,3/4+y,1/4+z
3/4+x,3/4-y,1/4+z
loop_
_atom_site_type_symbol
_atom_site_label
_atom_site_fract_x
_atom_site_fract_y
_atom_site_fract_z
Si Si1 0.425696 0.511193 0.777870
Si Si2 0.424897 0.409974 0.007419
Si Si3 0.647059 0.661851 0.179089
Si Si4 0.769544 0.637333 0.415671
Si Si5 0.083604 0.902757 0.456373
Si Si6 0.981632 0.748176 0.451884
Si Si7 0.942189 0.294002 0.113360
Si Si8 0.500000 0.000000 0.073004
O O1 0.500000 0.500000 0.771622
O O2 0.395026 0.615617 0.749065
O O3 0.406800 0.515411 0.861456
O O4 0.383850 0.423841 0.742091
O O5 0.431377 0.527014 0.990938
O O6 0.466601 0.339074 0.957771
O O7 0.448923 0.391865 0.087015
O O8 0.578802 0.647151 0.209818
O O9 0.676687 0.554191 0.158821
O O10 0.750000 0.750000 0.434806
O O11 0.720458 0.547454 0.409931
O O12 0.121776 0.946662 0.390304
O O13 0.021323 0.844937 0.430371
O O14 0.057675 0.972800 0.520341
O O15 0.952841 0.767963 0.530267
O O16 0.979487 0.401365 0.117954
#
# Coordination Sequence:
#
# PCOD9371364 Si02
#       8
#    16  16  16  16  16  16  16   8
#     4  10  22  34  54  95 125 153 204 271 335 382
#     4   9  18  34  57  83 113 157 201 250 313 377
#     4  11  20  35  63  83 124 161 207 276 316 386
#     4  10  22  38  59  89 117 163 216 256 319 384
#     4  10  23  39  62  90 129 169 213 263 323 409
#     4   9  19  37  60  89 115 165 212 248 324 373
#     4  10  22  40  66  88 126 171 214 269 319 396
#     4  10  22  42  66  96 124 180 222 256 338 398
#
# _framework density 22.471703000000002
#
# number of rings (size 3 to 8) (size 9 to 14) (size 15 to 20)
#    0.000    2.133    0.000    5.200    2.800    6.400 
#    0.000    0.000   10.267    0.000    0.000    0.000 
#    0.000    0.000    0.000    0.000    0.000    0.000 
#
# Total GULP energy -167239.686367 kJ/mol
# GULP energy per Si atom -5574.656212 kJ/mol
# Density = 2.242056 g / cm^3
# Si number density = 22.471703 Si / 1000 Ang^3
#
#
#
# Elastic Constant Matrix: (Units=GPa)
#
#
# Indices 1 2 3 4 5 6 
#
# 1 117.5615 37.2596 20.5444 0.0000 0.0000 0.0000
# 2 37.2596 108.0210 10.9838 0.0000 0.0000 0.0000
# 3 20.5444 10.9838 18.2346 0.0000 0.0000 0.0000
# 4 0.0000 0.0000 0.0000 11.0847 0.0000 0.0000
# 5 0.0000 0.0000 0.0000 0.0000 30.8730 0.0000
# 6 0.0000 0.0000 0.0000 0.0000 0.0000 36.4192
#
#
#
# Elastic Compliance Matrix: (Units=1/GPa)
#
#
# Indices 1 2 3 4 5 6 
#
# 1 0.011324 -0.002779 -0.011085 0.000000 0.000000 0.000000
# 2 -0.002779 0.010543 -0.003220 0.000000 0.000000 0.000000
# 3 -0.011085 -0.003220 0.069269 0.000000 0.000000 0.000000
# 4 0.000000 0.000000 0.000000 0.090214 0.000000 0.000000
# 5 0.000000 0.000000 0.000000 0.000000 0.032391 0.000000
# 6 0.000000 0.000000 0.000000 0.000000 0.000000 0.027458
#
#
# Mechanical properties :
#
#
# Convention : Reuss Voigt Hill
#
# Bulk Modulus (GPa) = 17.55326 42.37695 29.96510
# Shear Modulus (GPa) = 16.98622 27.34399 22.16510
#
# Velocity S-wave (km/s) = 2.75233 3.49208 3.14404
# Velocity P-wave (km/s) = 4.23423 5.92945 5.15204
#
# Compressibility (1/GPa) = 0.05696949
#
# Stress axis : x y z
#
# Youngs Moduli (GPa) = 88.30814 94.84615 14.43649
#
# Poissons Ratio (x) = 0.26357 0.16002
# Poissons Ratio (y) = 0.24540 0.04649
# Poissons Ratio (z) = 0.97885 0.30541
#
# Static dielectric constant tensor:
#      x y z
#    x 1.949870 0.000000 0.000000 
#    y 0.000000 1.904460 0.000000 
#    z 0.000000 0.000000 1.852710 
# 
# From -- ./inp_files/22487.got.cif
#   From: 2010.05.17/outbox.cif.g08.bks.cpg/sg43_12_cif.got.tgz:22487.got - 2010.06.03 19:21:55.
