data_PCOD9371521
_publ_section_title
;
Structure prediction by ZEFSAII (Michael W. Deem and Ramdas Pophale) SiO2 
 PCOD9371521
Probable space group: F D D 2
;
_chemical_formula_sum "Si O2"
_cell_formula_units_Z 96
_cell_length_a 8.462389
_cell_length_b 15.887912
_cell_length_c 27.194242
_cell_angle_alpha 90.000000
_cell_angle_beta 90.000000
_cell_angle_gamma 90.000000
_cell_volume 3656.257454
_symmetry_space_group_name_H-M "F D D 2"
_symmetry_group_IT_number 43
_symmetry_cell_setting 'orthorhombic'
loop_
_space_group_symop_operation_xyz
x,y,z
-x,-y,z
1/4-x,1/4+y,1/4+z
1/4+x,1/4-y,1/4+z
x,1/2+y,1/2+z
-x,1/2-y,1/2+z
1/4-x,3/4+y,3/4+z
1/4+x,3/4-y,3/4+z
1/2+x,y,1/2+z
1/2-x,-y,1/2+z
3/4-x,1/4+y,3/4+z
3/4+x,1/4-y,3/4+z
1/2+x,1/2+y,z
1/2-x,1/2-y,z
3/4-x,3/4+y,1/4+z
3/4+x,3/4-y,1/4+z
loop_
_atom_site_type_symbol
_atom_site_label
_atom_site_fract_x
_atom_site_fract_y
_atom_site_fract_z
Si Si1 0.500000 0.500000 0.152580
Si Si2 0.987233 0.383624 0.311220
Si Si3 0.472441 0.598198 0.471927
Si Si4 0.160781 0.886167 0.959209
Si Si5 0.785230 0.650544 0.876941
Si Si6 0.570047 0.686645 0.315230
Si Si7 0.000000 0.500000 0.377989
O O1 0.365853 0.451617 0.183488
O O2 0.579751 0.434470 0.114908
O O3 0.880848 0.393314 0.263618
O O4 0.880197 0.394850 0.362766
O O5 0.039154 0.286944 0.308621
O O6 0.106228 0.452395 0.329866
O O7 0.500000 0.500000 0.485058
O O8 0.651000 0.627486 0.464673
O O9 0.370969 0.609505 0.422649
O O10 0.116168 0.959029 0.921959
O O11 0.107021 0.902982 0.014819
O O12 0.750000 0.750000 0.884688
O O13 0.901593 0.646860 0.829968
#
# Coordination Sequence:
#
# PCOD9371521 Si02
#       7
#     8  16  16  16  16  16   8
#     4  12  25  48  70 108 152 186 253 310 372 450
#     4  11  23  43  68 100 140 185 242 296 365 447
#     4  12  22  42  71  97 135 183 240 291 360 438
#     4  12  25  47  72 104 142 197 243 305 376 449
#     4  10  22  41  69  97 132 182 234 293 359 427
#     4  11  22  47  70  96 141 188 234 308 365 433
#     4  12  27  46  70 108 150 188 245 306 384 452
#
# _framework density 26.256357000000001
#
# number of rings (size 3 to 8) (size 9 to 14) (size 15 to 20)
#    0.000    0.667    6.667    2.000    1.167    0.000 
#    4.500    0.000    0.000    0.000    0.000    0.000 
#    0.000    0.000    0.000    0.000    0.000    0.000 
#
# Total GULP energy -133913.550972 kJ/mol
# GULP energy per Si atom -5579.731290 kJ/mol
# Density = 2.619660 g / cm^3
# Si number density = 26.256357 Si / 1000 Ang^3
#
#
#
# Elastic Constant Matrix: (Units=GPa)
#
#
# Indices 1 2 3 4 5 6 
#
# 1 59.2067 13.3796 30.8468 0.0000 0.0000 0.0000
# 2 13.3796 110.7137 60.8387 0.0000 0.0000 0.0000
# 3 30.8468 60.8387 225.4510 0.0000 0.0000 0.0000
# 4 0.0000 0.0000 0.0000 34.9665 0.0000 0.0000
# 5 0.0000 0.0000 0.0000 0.0000 37.7490 0.0000
# 6 0.0000 0.0000 0.0000 0.0000 0.0000 28.4812
#
#
#
# Elastic Compliance Matrix: (Units=1/GPa)
#
#
# Indices 1 2 3 4 5 6 
#
# 1 0.018276 -0.000980 -0.002236 0.000000 0.000000 0.000000
# 2 -0.000980 0.010657 -0.002742 0.000000 0.000000 0.000000
# 3 -0.002236 -0.002742 0.005481 0.000000 0.000000 0.000000
# 4 0.000000 0.000000 0.000000 0.028599 0.000000 0.000000
# 5 0.000000 0.000000 0.000000 0.000000 0.026491 0.000000
# 6 0.000000 0.000000 0.000000 0.000000 0.000000 0.035111
#
#
# Mechanical properties :
#
#
# Convention : Reuss Voigt Hill
#
# Bulk Modulus (GPa) = 44.44561 67.27797 55.86179
# Shear Modulus (GPa) = 34.71464 39.59310 37.15387
#
# Velocity S-wave (km/s) = 3.64007 3.88744 3.76579
# Velocity P-wave (km/s) = 5.88482 6.76969 6.34271
#
# Compressibility (1/GPa) = 0.02249941
#
# Stress axis : x y z
#
# Youngs Moduli (GPa) = 54.71516 93.83142 182.43450
#
# Poissons Ratio (x) = 0.09194 0.40796
# Poissons Ratio (y) = 0.05361 0.50021
# Poissons Ratio (z) = 0.12235 0.25727
#
# Static dielectric constant tensor:
#      x y z
#    x 2.354500 0.000000 0.000000 
#    y 0.000000 2.976710 0.000000 
#    z 0.000000 0.000000 2.053590 
# 
# From -- ./inp_files/21100.got.cif
#   From: 2010.05.17/outbox.cif.g08.bks.cpg/sg43_11_cif.got.tgz:21100.got - 2010.06.03 19:21:55.
