data_PCOD9371620
_publ_section_title
;
Structure prediction by ZEFSAII (Michael W. Deem and Ramdas Pophale) SiO2 
 PCOD9371620
Probable space group: F D D 2
;
_chemical_formula_sum "Si O2"
_cell_formula_units_Z 120
_cell_length_a 9.158481
_cell_length_b 20.134419
_cell_length_c 25.372314
_cell_angle_alpha 90.000000
_cell_angle_beta 90.000000
_cell_angle_gamma 90.000000
_cell_volume 4678.672306
_symmetry_space_group_name_H-M "F D D 2"
_symmetry_group_IT_number 43
_symmetry_cell_setting 'orthorhombic'
loop_
_space_group_symop_operation_xyz
x,y,z
-x,-y,z
1/4-x,1/4+y,1/4+z
1/4+x,1/4-y,1/4+z
x,1/2+y,1/2+z
-x,1/2-y,1/2+z
1/4-x,3/4+y,3/4+z
1/4+x,3/4-y,3/4+z
1/2+x,y,1/2+z
1/2-x,-y,1/2+z
3/4-x,1/4+y,3/4+z
3/4+x,1/4-y,3/4+z
1/2+x,1/2+y,z
1/2-x,1/2-y,z
3/4-x,3/4+y,1/4+z
3/4+x,3/4-y,1/4+z
loop_
_atom_site_type_symbol
_atom_site_label
_atom_site_fract_x
_atom_site_fract_y
_atom_site_fract_z
Si Si1 0.411452 0.626143 0.142740
Si Si2 0.248429 0.129958 0.858802
Si Si3 0.975405 0.576786 0.422802
Si Si4 0.317875 0.435229 0.701971
Si Si5 0.070182 0.180033 0.767857
Si Si6 0.751774 0.345056 0.794692
Si Si7 0.924446 0.747288 0.538371
Si Si8 0.750000 0.750000 0.680851
O O1 0.580211 0.642016 0.149746
O O2 0.344500 0.595188 0.196002
O O3 0.403425 0.573205 0.094925
O O4 0.312685 0.692672 0.144166
O O5 0.116264 0.112685 0.898567
O O6 0.362583 0.171113 0.894887
O O7 0.190747 0.177282 0.812844
O O8 0.290611 0.060096 0.828178
O O9 0.950834 0.580808 0.485524
O O10 0.000000 0.500000 0.408679
O O11 0.418634 0.392119 0.740437
O O12 0.276039 0.498905 0.735242
O O13 0.118955 0.227540 0.719859
O O14 0.911592 0.183329 0.793050
O O15 0.775918 0.423862 0.806171
O O16 0.750000 0.750000 0.528564
#
# Coordination Sequence:
#
# PCOD9371620 Si02
#       8
#    16  16  16  16  16  16  16   8
#     4  11  24  42  70  98 138 188 244 293 366 446
#     4  11  23  43  72 101 138 195 245 296 369 452
#     4  12  25  43  67 102 142 186 240 305 367 443
#     4  10  23  44  69  98 146 186 240 306 369 442
#     4  10  22  43  66 103 139 179 246 302 360 448
#     4  12  24  42  71 107 139 184 249 306 368 441
#     4  11  25  44  73 107 144 193 251 317 376 453
#     4  10  24  46  72 102 138 200 242 302 378 456
#
# _framework density 25.648302000000001
#
# number of rings (size 3 to 8) (size 9 to 14) (size 15 to 20)
#    0.000    1.067    2.667    3.200    6.533    3.733 
#    2.400    2.000    0.000    0.000    0.000    0.000 
#    0.000    0.000    0.000    0.000    0.000    0.000 
#
# Total GULP energy -167461.335590 kJ/mol
# GULP energy per Si atom -5582.044520 kJ/mol
# Density = 2.558993 g / cm^3
# Si number density = 25.648302 Si / 1000 Ang^3
#
#
#
# Elastic Constant Matrix: (Units=GPa)
#
#
# Indices 1 2 3 4 5 6 
#
# 1 117.2140 32.0015 62.7040 0.0000 0.0000 0.0000
# 2 32.0015 55.8838 28.5519 0.0000 0.0000 0.0000
# 3 62.7040 28.5519 102.7186 0.0000 0.0000 0.0000
# 4 0.0000 0.0000 0.0000 19.3722 0.0000 0.0000
# 5 0.0000 0.0000 0.0000 0.0000 36.7194 0.0000
# 6 0.0000 0.0000 0.0000 0.0000 0.0000 18.2392
#
#
#
# Elastic Compliance Matrix: (Units=1/GPa)
#
#
# Indices 1 2 3 4 5 6 
#
# 1 0.013421 -0.004079 -0.007059 0.000000 0.000000 0.000000
# 2 -0.004079 0.022096 -0.003652 0.000000 0.000000 0.000000
# 3 -0.007059 -0.003652 0.015060 0.000000 0.000000 0.000000
# 4 0.000000 0.000000 0.000000 0.051620 0.000000 0.000000
# 5 0.000000 0.000000 0.000000 0.000000 0.027234 0.000000
# 6 0.000000 0.000000 0.000000 0.000000 0.000000 0.054827
#
#
# Mechanical properties :
#
#
# Convention : Reuss Voigt Hill
#
# Bulk Modulus (GPa) = 47.62621 58.03682 52.83152
# Shear Modulus (GPa) = 22.64117 25.03676 23.83897
#
# Velocity S-wave (km/s) = 2.97434 3.12774 3.05201
# Velocity P-wave (km/s) = 5.51406 5.97668 5.75003
#
# Compressibility (1/GPa) = 0.02099684
#
# Stress axis : x y z
#
# Youngs Moduli (GPa) = 74.50801 45.25736 66.40270
#
# Poissons Ratio (x) = 0.18461 0.46875
# Poissons Ratio (y) = 0.30392 0.24249
# Poissons Ratio (z) = 0.52597 0.16527
#
# Static dielectric constant tensor:
#      x y z
#    x 2.003850 0.000000 0.000000 
#    y 0.000000 2.136740 0.000000 
#    z 0.000000 0.000000 2.126490 
# 
# From -- ./inp_files/24560.got.cif
#   From: 2010.05.17/outbox.cif.g08.bks.cpg/sg43_13_cif.got.tgz:24560.got - 2010.06.03 19:21:55.
