data_PCOD9371218
_publ_section_title
;
Structure prediction by ZEFSAII (Michael W. Deem and Ramdas Pophale) SiO2 
 PCOD9371218
Probable space group: F D D 2
;
_chemical_formula_sum "Si O2"
_cell_formula_units_Z 120
_cell_length_a 26.627098
_cell_length_b 7.425797
_cell_length_c 26.936140
_cell_angle_alpha 90.000000
_cell_angle_beta 90.000000
_cell_angle_gamma 90.000000
_cell_volume 5326.013587
_symmetry_space_group_name_H-M "F D D 2"
_symmetry_group_IT_number 43
_symmetry_cell_setting 'orthorhombic'
loop_
_space_group_symop_operation_xyz
x,y,z
-x,-y,z
1/4-x,1/4+y,1/4+z
1/4+x,1/4-y,1/4+z
x,1/2+y,1/2+z
-x,1/2-y,1/2+z
1/4-x,3/4+y,3/4+z
1/4+x,3/4-y,3/4+z
1/2+x,y,1/2+z
1/2-x,-y,1/2+z
3/4-x,1/4+y,3/4+z
3/4+x,1/4-y,3/4+z
1/2+x,1/2+y,z
1/2-x,1/2-y,z
3/4-x,3/4+y,1/4+z
3/4+x,3/4-y,1/4+z
loop_
_atom_site_type_symbol
_atom_site_label
_atom_site_fract_x
_atom_site_fract_y
_atom_site_fract_z
Si Si1 0.148487 0.534320 0.358110
Si Si2 0.841059 0.579011 0.610570
Si Si3 0.479398 0.794378 0.526989
Si Si4 0.598013 0.330030 0.299365
Si Si5 0.862261 0.648685 0.214457
Si Si6 0.076114 0.185647 0.471708
Si Si7 0.500000 0.500000 0.256529
Si Si8 0.039926 0.840778 0.769814
O O1 0.132493 0.326939 0.364187
O O2 0.199626 0.531837 0.325312
O O3 0.106708 0.649020 0.328591
O O4 0.140685 0.623115 0.412204
O O5 0.864685 0.752050 0.583811
O O6 0.819750 0.623067 0.664819
O O7 0.798355 0.495660 0.574420
O O8 0.438587 0.799914 0.481824
O O9 0.527027 0.686190 0.506111
O O10 0.500000 0.000000 0.536164
O O11 0.630323 0.328407 0.249489
O O12 0.541915 0.386457 0.285861
O O13 0.845568 0.857646 0.218908
O O14 0.904784 0.602831 0.253822
O O15 0.528190 0.669857 0.232924
O O16 0.000000 0.000000 0.767308
#
# Coordination Sequence:
#
# PCOD9371218 Si02
#       8
#    16  16  16  16  16  16   8  16
#     4  11  23  41  70  96 135 179 219 279 347 401
#     4  10  21  42  67  94 129 175 219 277 337 395
#     4  10  21  42  69  97 135 178 225 283 336 408
#     4  11  23  43  63  99 137 168 227 292 323 410
#     4  10  21  42  63 100 133 168 231 270 333 416
#     4  10  21  41  68  92 135 179 222 276 341 405
#     4  10  22  38  66  90 126 174 214 272 342 378
#     4  11  21  41  65  94 131 167 216 284 328 399
#
# _framework density 22.530923999999999
#
# number of rings (size 3 to 8) (size 9 to 14) (size 15 to 20)
#    0.000    1.600    4.000    1.600    0.000    6.400 
#    3.600    2.667    0.000    0.000    0.000    0.000 
#    0.000    0.000    0.000    0.000    0.000    0.000 
#
# Total GULP energy -167323.993520 kJ/mol
# GULP energy per Si atom -5577.466451 kJ/mol
# Density = 2.247964 g / cm^3
# Si number density = 22.530924 Si / 1000 Ang^3
#
#
#
# Elastic Constant Matrix: (Units=GPa)
#
#
# Indices 1 2 3 4 5 6 
#
# 1 122.3748 7.5372 54.3958 0.0000 0.0001 0.0006
# 2 7.5372 70.8643 19.1532 0.0001 0.0000 0.0001
# 3 54.3958 19.1532 97.0881 0.0001 0.0000 -0.0003
# 4 0.0000 0.0001 0.0001 13.6045 0.0000 -0.0001
# 5 0.0001 0.0000 0.0000 0.0000 27.0597 0.0000
# 6 0.0006 0.0001 -0.0003 -0.0001 0.0000 34.3368
#
#
#
# Elastic Compliance Matrix: (Units=1/GPa)
#
#
# Indices 1 2 3 4 5 6 
#
# 1 0.010900 0.000519 -0.006209 0.000000 0.000000 0.000000
# 2 0.000519 0.014931 -0.003236 0.000000 0.000000 0.000000
# 3 -0.006209 -0.003236 0.014417 0.000000 0.000000 0.000000
# 4 0.000000 0.000000 0.000000 0.073505 0.000000 0.000000
# 5 0.000000 0.000000 0.000000 0.000000 0.036955 0.000000
# 6 0.000000 0.000000 0.000000 0.000000 0.000000 0.029123
#
#
# Mechanical properties :
#
#
# Convention : Reuss Voigt Hill
#
# Bulk Modulus (GPa) = 44.65320 50.27773 47.46547
# Shear Modulus (GPa) = 24.37249 28.94960 26.66104
#
# Velocity S-wave (km/s) = 3.29254 3.58842 3.44366
# Velocity P-wave (km/s) = 5.85799 6.28748 6.07653
#
# Compressibility (1/GPa) = 0.02239481
#
# Stress axis : x y z
#
# Youngs Moduli (GPa) = 91.74627 66.97483 69.36170
#
# Poissons Ratio (x) = -0.03475 0.43068
# Poissons Ratio (y) = -0.04761 0.22447
# Poissons Ratio (z) = 0.56967 0.21675
#
# Static dielectric constant tensor:
#      x y z
#    x 1.842750 0.000000 0.000000 
#    y 0.000000 1.899440 0.000000 
#    z 0.000000 0.000000 1.884950 
# 
# From -- ./inp_files/26595.got.cif
#   From: 2010.05.17/outbox.cif.g08.bks.cpg/sg43_14_cif.got.tgz:26595.got - 2010.06.03 19:21:55.
