data_PCOD9371046
_publ_section_title
;
Structure prediction by ZEFSAII (Michael W. Deem and Ramdas Pophale) SiO2 
 PCOD9371046
Probable space group: F D D 2
;
_chemical_formula_sum "Si O2"
_cell_formula_units_Z 80
_cell_length_a 14.755979
_cell_length_b 11.004204
_cell_length_c 24.547399
_cell_angle_alpha 90.000000
_cell_angle_beta 90.000000
_cell_angle_gamma 90.000000
_cell_volume 3985.952722
_symmetry_space_group_name_H-M "F D D 2"
_symmetry_group_IT_number 43
_symmetry_cell_setting 'orthorhombic'
loop_
_space_group_symop_operation_xyz
x,y,z
-x,-y,z
1/4-x,1/4+y,1/4+z
1/4+x,1/4-y,1/4+z
x,1/2+y,1/2+z
-x,1/2-y,1/2+z
1/4-x,3/4+y,3/4+z
1/4+x,3/4-y,3/4+z
1/2+x,y,1/2+z
1/2-x,-y,1/2+z
3/4-x,1/4+y,3/4+z
3/4+x,1/4-y,3/4+z
1/2+x,1/2+y,z
1/2-x,1/2-y,z
3/4-x,3/4+y,1/4+z
3/4+x,3/4-y,1/4+z
loop_
_atom_site_type_symbol
_atom_site_label
_atom_site_fract_x
_atom_site_fract_y
_atom_site_fract_z
Si Si1 0.246284 0.104680 0.868670
Si Si2 0.661135 0.162666 0.469569
Si Si3 0.028263 0.229830 0.497109
Si Si4 0.842323 0.683191 0.652739
Si Si5 0.353991 0.290566 0.298273
O O1 0.250000 0.250000 0.863451
O O2 0.167331 0.088345 0.912816
O O3 0.245287 0.057794 0.807397
O O4 0.329592 0.033945 0.897001
O O5 0.750000 0.250000 0.474332
O O6 0.565648 0.232988 0.468230
O O7 0.656941 0.068167 0.519321
O O8 0.078758 0.127816 0.461772
O O9 0.095165 0.343109 0.508213
O O10 0.750000 0.750000 0.638473
O O11 0.859622 0.582087 0.606590
O O12 0.250000 0.250000 0.305772
#
# Coordination Sequence:
#
# PCOD9371046 Si02
#       5
#    16  16  16  16  16
#     4  10  22  38  58  87 120 153 195 246 295 348
#     4  10  21  38  61  88 119 157 199 241 295 353
#     4  10  22  40  60  85 121 158 196 246 295 352
#     4  11  22  37  60  87 118 158 202 244 294 351
#     4   9  22  41  59  87 122 156 197 243 297 356
#
# _framework density 20.070484
#
# number of rings (size 3 to 8) (size 9 to 14) (size 15 to 20)
#    0.000    2.000    0.000    3.000    0.000   11.200 
#    0.000    3.000    0.000    0.000    0.000    0.000 
#    0.000    0.000    0.000    0.000    0.000    0.000 
#
# Total GULP energy -111494.617375 kJ/mol
# GULP energy per Si atom -5574.730869 kJ/mol
# Density = 2.002480 g / cm^3
# Si number density = 20.070484 Si / 1000 Ang^3
#
#
#
# Elastic Constant Matrix: (Units=GPa)
#
#
# Indices 1 2 3 4 5 6 
#
# 1 60.5186 26.5371 51.2815 0.0000 0.0000 0.0000
# 2 26.5371 86.4258 47.9024 0.0000 0.0000 0.0000
# 3 51.2815 47.9024 123.1413 0.0000 0.0000 0.0000
# 4 0.0000 0.0000 0.0000 32.0386 0.0000 0.0000
# 5 0.0000 0.0000 0.0000 0.0000 21.6425 0.0000
# 6 0.0000 0.0000 0.0000 0.0000 0.0000 23.3663
#
#
#
# Elastic Compliance Matrix: (Units=1/GPa)
#
#
# Indices 1 2 3 4 5 6 
#
# 1 0.025959 -0.002523 -0.009829 0.000000 0.000000 0.000000
# 2 -0.002523 0.014996 -0.004783 0.000000 0.000000 0.000000
# 3 -0.009829 -0.004783 0.014075 0.000000 0.000000 0.000000
# 4 0.000000 0.000000 0.000000 0.031212 0.000000 0.000000
# 5 0.000000 0.000000 0.000000 0.000000 0.046205 0.000000
# 6 0.000000 0.000000 0.000000 0.000000 0.000000 0.042797
#
#
# Mechanical properties :
#
#
# Convention : Reuss Voigt Hill
#
# Bulk Modulus (GPa) = 48.16945 57.94752 53.05848
# Shear Modulus (GPa) = 23.10172 25.03378 24.06775
#
# Velocity S-wave (km/s) = 3.39636 3.53554 3.46665
# Velocity P-wave (km/s) = 6.27954 6.75288 6.52051
#
# Compressibility (1/GPa) = 0.02076005
#
# Stress axis : x y z
#
# Youngs Moduli (GPa) = 38.52236 66.68320 71.05001
#
# Poissons Ratio (x) = 0.16823 0.69835
# Poissons Ratio (y) = 0.09719 0.33983
# Poissons Ratio (z) = 0.37864 0.31894
#
# Static dielectric constant tensor:
#      x y z
#    x 1.693600 0.000000 0.000000 
#    y 0.000000 1.784120 0.000000 
#    z 0.000000 0.000000 1.741960 
# 
# From -- ./inp_files/20915.got.cif
#   From: 2010.05.17/outbox.cif.g08.bks.cpg/sg43_11_cif.got.tgz:20915.got - 2010.06.03 19:21:55.
