data_PCOD9371747
_publ_section_title
;
Structure prediction by ZEFSAII (Michael W. Deem and Ramdas Pophale) SiO2 
 PCOD9371747
Probable space group: F D D 2
;
_chemical_formula_sum "Si O2"
_cell_formula_units_Z 96
_cell_length_a 19.871447
_cell_length_b 21.882807
_cell_length_c 10.327879
_cell_angle_alpha 90.000000
_cell_angle_beta 90.000000
_cell_angle_gamma 90.000000
_cell_volume 4491.006296
_symmetry_space_group_name_H-M "F D D 2"
_symmetry_group_IT_number 43
_symmetry_cell_setting 'orthorhombic'
loop_
_space_group_symop_operation_xyz
x,y,z
-x,-y,z
1/4-x,1/4+y,1/4+z
1/4+x,1/4-y,1/4+z
x,1/2+y,1/2+z
-x,1/2-y,1/2+z
1/4-x,3/4+y,3/4+z
1/4+x,3/4-y,3/4+z
1/2+x,y,1/2+z
1/2-x,-y,1/2+z
3/4-x,1/4+y,3/4+z
3/4+x,1/4-y,3/4+z
1/2+x,1/2+y,z
1/2-x,1/2-y,z
3/4-x,3/4+y,1/4+z
3/4+x,3/4-y,1/4+z
loop_
_atom_site_type_symbol
_atom_site_label
_atom_site_fract_x
_atom_site_fract_y
_atom_site_fract_z
Si Si1 0.060279 0.047755 0.551380
Si Si2 0.290510 0.392284 0.254396
Si Si3 0.816997 0.964376 0.017252
Si Si4 0.196865 0.305269 0.105296
Si Si5 0.098839 0.669011 0.920874
Si Si6 0.317951 0.009966 0.912831
O O1 0.057683 0.066791 0.701810
O O2 0.059898 0.106638 0.456621
O O3 0.131275 0.014798 0.520365
O O4 0.000000 0.000000 0.527642
O O5 0.333086 0.415821 0.130318
O O6 0.225875 0.359869 0.193899
O O7 0.333757 0.347701 0.344181
O O8 0.282164 0.453187 0.339274
O O9 0.811420 0.031035 0.083486
O O10 0.874369 0.963005 0.910451
O O11 0.743464 0.950173 0.963486
O O12 0.250000 0.250000 0.121502
O O13 0.110588 0.702981 0.056847
#
# Coordination Sequence:
#
# PCOD9371747 Si02
#       6
#    16  16  16  16  16  16
#     4  10  24  45  70 101 137 177 225 278 340 402
#     4  10  23  43  66  99 133 178 225 274 337 402
#     4  11  24  42  70  98 137 178 228 279 337 404
#     4  11  23  43  67 100 136 180 227 278 340 404
#     4  10  22  46  65 101 133 177 225 273 341 400
#     4  10  24  44  67 102 134 178 226 278 345 396
#
# _framework density 21.376055000000001
#
# number of rings (size 3 to 8) (size 9 to 14) (size 15 to 20)
#    0.000    1.667    1.667    1.000    7.000    2.667 
#   18.000    0.000    0.000    0.000    0.000    0.000 
#    0.000    0.000    0.000    0.000    0.000    0.000 
#
# Total GULP energy -134002.850852 kJ/mol
# GULP energy per Si atom -5583.452119 kJ/mol
# Density = 2.132740 g / cm^3
# Si number density = 21.376055 Si / 1000 Ang^3
#
#
#
# Elastic Constant Matrix: (Units=GPa)
#
#
# Indices 1 2 3 4 5 6 
#
# 1 106.8088 53.7099 62.2845 0.0000 0.0000 0.0000
# 2 53.7099 74.8233 49.9730 0.0000 0.0000 0.0000
# 3 62.2845 49.9730 104.7516 0.0000 0.0000 0.0000
# 4 0.0000 0.0000 0.0000 16.7805 0.0000 0.0000
# 5 0.0000 0.0000 0.0000 0.0000 36.8660 0.0000
# 6 0.0000 0.0000 0.0000 0.0000 0.0000 29.7151
#
#
#
# Elastic Compliance Matrix: (Units=1/GPa)
#
#
# Indices 1 2 3 4 5 6 
#
# 1 0.017100 -0.008048 -0.006328 0.000000 0.000000 0.000000
# 2 -0.008048 0.023402 -0.006379 0.000000 0.000000 0.000000
# 3 -0.006328 -0.006379 0.016352 0.000000 0.000000 0.000000
# 4 0.000000 0.000000 0.000000 0.059593 0.000000 0.000000
# 5 0.000000 0.000000 0.000000 0.000000 0.027125 0.000000
# 6 0.000000 0.000000 0.000000 0.000000 0.000000 0.033653
#
#
# Mechanical properties :
#
#
# Convention : Reuss Voigt Hill
#
# Bulk Modulus (GPa) = 65.17200 68.70204 66.93702
# Shear Modulus (GPa) = 22.33636 24.70007 23.51822
#
# Velocity S-wave (km/s) = 3.23604 3.40295 3.32054
# Velocity P-wave (km/s) = 6.67211 6.90287 6.78847
#
# Compressibility (1/GPa) = 0.01534401
#
# Stress axis : x y z
#
# Youngs Moduli (GPa) = 58.48049 42.73048 61.15460
#
# Poissons Ratio (x) = 0.34391 0.38697
# Poissons Ratio (y) = 0.47067 0.39010
# Poissons Ratio (z) = 0.37005 0.27258
#
# Static dielectric constant tensor:
#      x y z
#    x 1.727110 0.000000 0.000000 
#    y 0.000000 1.823400 0.000000 
#    z 0.000000 0.000000 1.767770 
# 
# From -- ./inp_files/6691.got.cif
#   From: 2010.05.17/outbox.cif.g08.bks.cpg/sg43_4_cif.got.tgz:6691.got - 2010.06.03 19:21:55.
