data_PCOD9371745
_publ_section_title
;
Structure prediction by ZEFSAII (Michael W. Deem and Ramdas Pophale) SiO2 
 PCOD9371745
Probable space group: F D D 2
;
_chemical_formula_sum "Si O2"
_cell_formula_units_Z 72
_cell_length_a 20.507053
_cell_length_b 4.799466
_cell_length_c 31.831748
_cell_angle_alpha 90.000000
_cell_angle_beta 90.000000
_cell_angle_gamma 90.000000
_cell_volume 3132.973066
_symmetry_space_group_name_H-M "F D D 2"
_symmetry_group_IT_number 43
_symmetry_cell_setting 'orthorhombic'
loop_
_space_group_symop_operation_xyz
x,y,z
-x,-y,z
1/4-x,1/4+y,1/4+z
1/4+x,1/4-y,1/4+z
x,1/2+y,1/2+z
-x,1/2-y,1/2+z
1/4-x,3/4+y,3/4+z
1/4+x,3/4-y,3/4+z
1/2+x,y,1/2+z
1/2-x,-y,1/2+z
3/4-x,1/4+y,3/4+z
3/4+x,1/4-y,3/4+z
1/2+x,1/2+y,z
1/2-x,1/2-y,z
3/4-x,3/4+y,1/4+z
3/4+x,3/4-y,1/4+z
loop_
_atom_site_type_symbol
_atom_site_label
_atom_site_fract_x
_atom_site_fract_y
_atom_site_fract_z
Si Si1 0.000000 0.500000 0.603740
Si Si2 0.178877 0.623061 0.482023
Si Si3 0.178458 0.347913 0.603080
Si Si4 0.150383 0.599615 0.926904
Si Si5 0.389551 0.662906 0.562729
O O1 0.946386 0.595522 0.637317
O O2 0.961010 0.272083 0.576263
O O3 0.250000 0.750000 0.495205
O O4 0.168794 0.303842 0.466081
O O5 0.127228 0.735958 0.515822
O O6 0.164335 0.786647 0.439643
O O7 0.250000 0.250000 0.591149
O O8 0.168819 0.350568 0.653531
O O9 0.162840 0.659580 0.589352
O O10 0.128802 0.151541 0.575535
#
# Coordination Sequence:
#
# PCOD9371745 Si02
#       5
#     8  16  16  16  16
#     4  10  22  46  64 100 130 184 224 280 334 438
#     4  12  22  40  63 101 131 173 226 292 340 405
#     4  11  23  43  65  97 131 183 228 282 340 426
#     4  11  23  39  68  92 132 178 229 277 341 412
#     4  11  25  40  70  96 138 176 232 284 356 402
#
# _framework density 22.981365
#
# number of rings (size 3 to 8) (size 9 to 14) (size 15 to 20)
#    0.000    0.889    2.222    6.000    0.000    2.667 
#    4.000    0.000    0.000    0.000    0.000    0.000 
#    0.000    0.000    0.000    0.000    0.000    0.000 
#
# Total GULP energy -100315.147509 kJ/mol
# GULP energy per Si atom -5573.063751 kJ/mol
# Density = 2.292906 g / cm^3
# Si number density = 22.981365 Si / 1000 Ang^3
#
#
#
# Elastic Constant Matrix: (Units=GPa)
#
#
# Indices 1 2 3 4 5 6 
#
# 1 59.8665 10.9729 31.0538 0.0000 0.0016 -0.0016
# 2 10.9729 67.8414 0.1922 -0.0064 -0.0035 -0.0017
# 3 31.0538 0.1922 73.9916 0.0008 0.0001 0.0011
# 4 0.0000 -0.0064 0.0008 29.2990 0.0004 0.0010
# 5 0.0016 -0.0035 0.0001 0.0004 15.1512 0.0000
# 6 -0.0016 -0.0017 0.0011 0.0010 0.0000 25.5601
#
#
#
# Elastic Compliance Matrix: (Units=1/GPa)
#
#
# Indices 1 2 3 4 5 6 
#
# 1 0.022181 -0.003561 -0.009300 -0.000001 -0.000003 0.000002
# 2 -0.003561 0.015312 0.001455 0.000003 0.000004 0.000001
# 3 -0.009300 0.001455 0.017414 0.000000 0.000001 -0.000001
# 4 -0.000001 0.000003 0.000000 0.034131 -0.000001 -0.000001
# 5 -0.000003 0.000004 0.000001 -0.000001 0.066002 0.000000
# 6 0.000002 0.000001 -0.000001 -0.000001 0.000000 0.039124
#
#
# Mechanical properties :
#
#
# Convention : Reuss Voigt Hill
#
# Bulk Modulus (GPa) = 31.15777 31.79302 31.47539
# Shear Modulus (GPa) = 21.96129 24.63410 23.29770
#
# Velocity S-wave (km/s) = 3.09465 3.27757 3.18742
# Velocity P-wave (km/s) = 5.13385 5.30919 5.22226
#
# Compressibility (1/GPa) = 0.03209473
#
# Stress axis : x y z
#
# Youngs Moduli (GPa) = 45.08463 65.30771 57.42405
#
# Poissons Ratio (x) = 0.23257 0.53403
# Poissons Ratio (y) = 0.16056 -0.08354
# Poissons Ratio (z) = 0.41928 -0.09501
#
# Static dielectric constant tensor:
#      x y z
#    x 2.111750 0.000000 0.000000 
#    y 0.000000 1.828030 0.000000 
#    z 0.000000 0.000000 1.872050 
# 
# From -- ./inp_files/23500.got.cif
#   From: 2010.05.17/outbox.cif.g08.bks.cpg/sg43_12_cif.got.tgz:23500.got - 2010.06.03 19:21:55.
