data_PCOD9371507
_publ_section_title
;
Structure prediction by ZEFSAII (Michael W. Deem and Ramdas Pophale) SiO2 
 PCOD9371507
Probable space group: F D D 2
;
_chemical_formula_sum "Si O2"
_cell_formula_units_Z 120
_cell_length_a 24.140733
_cell_length_b 18.008891
_cell_length_c 13.323697
_cell_angle_alpha 90.000000
_cell_angle_beta 90.000000
_cell_angle_gamma 90.000000
_cell_volume 5792.448348
_symmetry_space_group_name_H-M "F D D 2"
_symmetry_group_IT_number 43
_symmetry_cell_setting 'orthorhombic'
loop_
_space_group_symop_operation_xyz
x,y,z
-x,-y,z
1/4-x,1/4+y,1/4+z
1/4+x,1/4-y,1/4+z
x,1/2+y,1/2+z
-x,1/2-y,1/2+z
1/4-x,3/4+y,3/4+z
1/4+x,3/4-y,3/4+z
1/2+x,y,1/2+z
1/2-x,-y,1/2+z
3/4-x,1/4+y,3/4+z
3/4+x,1/4-y,3/4+z
1/2+x,1/2+y,z
1/2-x,1/2-y,z
3/4-x,3/4+y,1/4+z
3/4+x,3/4-y,1/4+z
loop_
_atom_site_type_symbol
_atom_site_label
_atom_site_fract_x
_atom_site_fract_y
_atom_site_fract_z
Si Si1 0.823766 0.036088 0.711920
Si Si2 0.000000 0.000000 0.685991
Si Si3 0.868291 0.171404 0.973400
Si Si4 0.148533 0.840811 0.386042
Si Si5 0.775765 0.536586 0.992011
Si Si6 0.643982 0.157258 0.928881
Si Si7 0.928190 0.621812 0.284310
Si Si8 0.744469 0.392491 0.886652
O O1 0.794773 0.042998 0.605710
O O2 0.872486 0.096456 0.728510
O O3 0.777583 0.058459 0.793304
O O4 0.855409 0.955433 0.707461
O O5 0.049877 0.033903 0.621037
O O6 0.973136 0.059365 0.760232
O O7 0.876864 0.258877 0.952154
O O8 0.913077 0.131847 0.900403
O O9 0.809096 0.145393 0.932432
O O10 0.869345 0.141935 0.087373
O O11 0.180620 0.911606 0.432847
O O12 0.119509 0.865761 0.283806
O O13 0.775067 0.453494 0.954508
O O14 0.710585 0.558786 0.987631
O O15 0.706491 0.167292 0.885584
#
# Coordination Sequence:
#
# PCOD9371507 Si02
#       8
#    16   8  16  16  16  16  16  16
#     4  10  22  41  66  96 130 172 224 279 342 400
#     4   8  18  42  66 102 124 154 226 280 346 380
#     4  11  25  44  67  95 136 181 230 274 348 412
#     4  10  22  41  66  97 130 171 216 280 335 407
#     4  11  21  39  66  97 129 170 224 280 342 403
#     4  12  24  46  65  97 140 181 224 279 336 416
#     4   9  20  40  65  96 127 167 218 283 334 403
#     4  11  24  42  64  98 131 178 224 278 343 415
#
# _framework density 20.716626999999999
#
# number of rings (size 3 to 8) (size 9 to 14) (size 15 to 20)
#    0.000    1.600    1.333    2.800    1.867    1.067 
#   16.800    0.000    0.000    0.000    0.000    0.000 
#    0.000    0.000    0.000    0.000    0.000    0.000 
#
# Total GULP energy -167045.088208 kJ/mol
# GULP energy per Si atom -5568.169607 kJ/mol
# Density = 2.066948 g / cm^3
# Si number density = 20.716627 Si / 1000 Ang^3
#
#
#
# Elastic Constant Matrix: (Units=GPa)
#
#
# Indices 1 2 3 4 5 6 
#
# 1 85.3299 17.9000 42.1066 0.0000 0.0000 0.0000
# 2 17.9000 74.1364 34.7314 0.0000 0.0000 0.0000
# 3 42.1066 34.7314 112.3308 0.0000 0.0000 0.0000
# 4 0.0000 0.0000 0.0000 22.6564 0.0000 0.0000
# 5 0.0000 0.0000 0.0000 0.0000 28.5970 0.0000
# 6 0.0000 0.0000 0.0000 0.0000 0.0000 15.0581
#
#
#
# Elastic Compliance Matrix: (Units=1/GPa)
#
#
# Indices 1 2 3 4 5 6 
#
# 1 0.014457 -0.001113 -0.005075 0.000000 0.000000 0.000000
# 2 -0.001113 0.015859 -0.004486 0.000000 0.000000 0.000000
# 3 -0.005075 -0.004486 0.012192 0.000000 0.000000 0.000000
# 4 0.000000 0.000000 0.000000 0.044138 0.000000 0.000000
# 5 0.000000 0.000000 0.000000 0.000000 0.034969 0.000000
# 6 0.000000 0.000000 0.000000 0.000000 0.000000 0.066409
#
#
# Mechanical properties :
#
#
# Convention : Reuss Voigt Hill
#
# Bulk Modulus (GPa) = 47.26069 51.25258 49.25664
# Shear Modulus (GPa) = 23.10269 25.06625 24.08447
#
# Velocity S-wave (km/s) = 3.34305 3.48222 3.41334
# Velocity P-wave (km/s) = 6.14522 6.40010 6.27396
#
# Compressibility (1/GPa) = 0.02115923
#
# Stress axis : x y z
#
# Youngs Moduli (GPa) = 69.17067 63.05530 82.02303
#
# Poissons Ratio (x) = 0.07019 0.41627
# Poissons Ratio (y) = 0.07699 0.36797
# Poissons Ratio (z) = 0.35104 0.28288
#
# Static dielectric constant tensor:
#      x y z
#    x 1.853280 0.000000 0.000000 
#    y 0.000000 1.853350 0.000000 
#    z 0.000000 0.000000 1.714010 
# 
# From -- ./inp_files/7624.got.cif
#   From: 2010.05.17/outbox.cif.g08.bks.cpg/sg43_4_cif.got.tgz:7624.got - 2010.06.03 19:21:55.
