data_PCOD9371368
_publ_section_title
;
Structure prediction by ZEFSAII (Michael W. Deem and Ramdas Pophale) SiO2 
 PCOD9371368
Probable space group: F D D 2
;
_chemical_formula_sum "Si O2"
_cell_formula_units_Z 88
_cell_length_a 13.883552
_cell_length_b 10.338708
_cell_length_c 29.311925
_cell_angle_alpha 90.000000
_cell_angle_beta 90.000000
_cell_angle_gamma 90.000000
_cell_volume 4207.374801
_symmetry_space_group_name_H-M "F D D 2"
_symmetry_group_IT_number 43
_symmetry_cell_setting 'orthorhombic'
loop_
_space_group_symop_operation_xyz
x,y,z
-x,-y,z
1/4-x,1/4+y,1/4+z
1/4+x,1/4-y,1/4+z
x,1/2+y,1/2+z
-x,1/2-y,1/2+z
1/4-x,3/4+y,3/4+z
1/4+x,3/4-y,3/4+z
1/2+x,y,1/2+z
1/2-x,-y,1/2+z
3/4-x,1/4+y,3/4+z
3/4+x,1/4-y,3/4+z
1/2+x,1/2+y,z
1/2-x,1/2-y,z
3/4-x,3/4+y,1/4+z
3/4+x,3/4-y,1/4+z
loop_
_atom_site_type_symbol
_atom_site_label
_atom_site_fract_x
_atom_site_fract_y
_atom_site_fract_z
Si Si1 0.504533 0.709620 0.927300
Si Si2 0.750000 0.750000 0.707811
Si Si3 0.885591 0.378574 0.506347
Si Si4 0.429142 0.829591 0.262929
Si Si5 0.077867 0.105401 0.112042
Si Si6 0.412849 0.596479 0.607992
O O1 0.496540 0.864527 0.931276
O O2 0.420018 0.655909 0.895295
O O3 0.606734 0.681542 0.904044
O O4 0.518197 0.636186 0.975754
O O5 0.654305 0.750324 0.738653
O O6 0.850046 0.229020 0.505316
O O7 0.785431 0.451253 0.494039
O O8 0.902338 0.420893 0.558451
O O9 0.414476 0.821776 0.317467
O O10 0.049689 0.256619 0.110449
O O11 0.000000 0.000000 0.127636
O O12 0.500000 0.500000 0.600704
#
# Coordination Sequence:
#
# PCOD9371368 Si02
#       6
#    16   8  16  16  16  16
#     4  11  24  40  68  97 140 180 236 276 342 415
#     4  10  22  36  60 106 138 172 222 290 336 404
#     4   9  20  39  65  93 129 181 224 276 338 412
#     4   9  17  38  64  93 131 173 226 275 338 405
#     4  11  25  44  65  98 140 177 223 291 344 398
#     4  11  23  40  69  97 129 183 228 273 344 415
#
# _framework density 20.915655000000001
#
# number of rings (size 3 to 8) (size 9 to 14) (size 15 to 20)
#    0.000    1.818    2.727    0.545    7.636    1.455 
#    0.000    0.000    0.000    0.000    0.000    0.000 
#    0.000    0.000    0.000    0.000    0.000    0.000 
#
# Total GULP energy -122640.758327 kJ/mol
# GULP energy per Si atom -5574.579924 kJ/mol
# Density = 2.086805 g / cm^3
# Si number density = 20.915655 Si / 1000 Ang^3
#
#
#
# Elastic Constant Matrix: (Units=GPa)
#
#
# Indices 1 2 3 4 5 6 
#
# 1 109.3706 37.8591 34.9993 0.0000 0.0000 0.0000
# 2 37.8591 105.0479 15.5267 0.0000 0.0000 0.0000
# 3 34.9993 15.5267 82.2604 0.0000 0.0000 0.0000
# 4 0.0000 0.0000 0.0000 24.8818 0.0000 0.0000
# 5 0.0000 0.0000 0.0000 0.0000 7.1824 0.0000
# 6 0.0000 0.0000 0.0000 0.0000 0.0000 32.2323
#
#
#
# Elastic Compliance Matrix: (Units=1/GPa)
#
#
# Indices 1 2 3 4 5 6 
#
# 1 0.011777 -0.003604 -0.004330 0.000000 0.000000 0.000000
# 2 -0.003604 0.010896 -0.000523 0.000000 0.000000 0.000000
# 3 -0.004330 -0.000523 0.014098 0.000000 0.000000 0.000000
# 4 0.000000 0.000000 0.000000 0.040190 0.000000 0.000000
# 5 0.000000 0.000000 0.000000 0.000000 0.139230 0.000000
# 6 0.000000 0.000000 0.000000 0.000000 0.000000 0.031025
#
#
# Mechanical properties :
#
#
# Convention : Reuss Voigt Hill
#
# Bulk Modulus (GPa) = 50.36569 52.60546 51.48558
# Shear Modulus (GPa) = 18.46736 26.74553 22.60645
#
# Velocity S-wave (km/s) = 2.97466 3.57982 3.29118
# Velocity P-wave (km/s) = 5.99423 6.50328 6.25394
#
# Compressibility (1/GPa) = 0.01985478
#
# Stress axis : x y z
#
# Youngs Moduli (GPa) = 84.91452 91.77902 70.93380
#
# Poissons Ratio (x) = 0.33079 0.30716
# Poissons Ratio (y) = 0.30605 0.03711
# Poissons Ratio (z) = 0.36770 0.04801
#
# Static dielectric constant tensor:
#      x y z
#    x 1.813820 0.000000 0.000000 
#    y 0.000000 1.740270 0.000000 
#    z 0.000000 0.000000 1.812680 
# 
# From -- ./inp_files/28451.got.cif
#   From: 2010.05.17/outbox.cif.g08.bks.cpg/sg43_15_cif.got.tgz:28451.got - 2010.06.03 19:21:55.
