data_PCOD9371950
_publ_section_title
;
Structure prediction by ZEFSAII (Michael W. Deem and Ramdas Pophale) SiO2 
 PCOD9371950
Probable space group: F D D 2
;
_chemical_formula_sum "Si O2"
_cell_formula_units_Z 72
_cell_length_a 20.272676
_cell_length_b 29.411030
_cell_length_c 4.932867
_cell_angle_alpha 90.000000
_cell_angle_beta 90.000000
_cell_angle_gamma 90.000000
_cell_volume 2941.174011
_symmetry_space_group_name_H-M "F D D 2"
_symmetry_group_IT_number 43
_symmetry_cell_setting 'orthorhombic'
loop_
_space_group_symop_operation_xyz
x,y,z
-x,-y,z
1/4-x,1/4+y,1/4+z
1/4+x,1/4-y,1/4+z
x,1/2+y,1/2+z
-x,1/2-y,1/2+z
1/4-x,3/4+y,3/4+z
1/4+x,3/4-y,3/4+z
1/2+x,y,1/2+z
1/2-x,-y,1/2+z
3/4-x,1/4+y,3/4+z
3/4+x,1/4-y,3/4+z
1/2+x,1/2+y,z
1/2-x,1/2-y,z
3/4-x,3/4+y,1/4+z
3/4+x,3/4-y,1/4+z
loop_
_atom_site_type_symbol
_atom_site_label
_atom_site_fract_x
_atom_site_fract_y
_atom_site_fract_z
Si Si1 0.606446 0.960224 0.064350
Si Si2 0.244345 0.831993 0.994194
Si Si3 0.782775 0.978896 0.724807
Si Si4 0.500000 0.500000 0.962118
Si Si5 0.974586 0.357332 0.241932
O O1 0.650407 0.005711 0.078904
O O2 0.548864 0.971008 0.275808
O O3 0.564517 0.940764 0.815990
O O4 0.660890 0.920585 0.092372
O O5 0.208274 0.787072 0.881707
O O6 0.252019 0.868550 0.757664
O O7 0.212909 0.855395 0.257332
O O8 0.773168 0.929057 0.848149
O O9 0.729254 0.988618 0.487363
#
# Coordination Sequence:
#
# PCOD9371950 Si02
#       5
#    16  16  16   8  16
#     4  11  27  51  79 109 164 197 250 319 385 462
#     4  12  27  49  73 113 156 201 259 306 385 450
#     4  10  23  45  78 113 150 201 249 310 383 447
#     4  12  28  52  72 118 154 214 238 318 400 460
#     4  11  26  48  79 117 147 202 268 314 368 459
#
# _framework density 24.480022000000002
#
# number of rings (size 3 to 8) (size 9 to 14) (size 15 to 20)
#    0.000    0.889    2.222    3.333    9.333    3.556 
#    0.000    0.000    0.000    0.000    0.000    0.000 
#    0.000    0.000    0.000    0.000    0.000    0.000 
#
# Total GULP energy -100520.105436 kJ/mol
# GULP energy per Si atom -5584.450302 kJ/mol
# Density = 2.442430 g / cm^3
# Si number density = 24.480022 Si / 1000 Ang^3
#
#
#
# Elastic Constant Matrix: (Units=GPa)
#
#
# Indices 1 2 3 4 5 6 
#
# 1 86.0040 55.3516 53.0513 -0.1029 0.1540 0.1934
# 2 55.3516 152.4845 82.7464 -0.0479 -0.0106 0.0499
# 3 53.0513 82.7464 179.7181 -0.2081 0.1233 0.2330
# 4 -0.1029 -0.0479 -0.2081 61.8230 0.1179 0.1117
# 5 0.1540 -0.0106 0.1233 0.1179 14.8777 -0.1154
# 6 0.1934 0.0499 0.2330 0.1117 -0.1154 15.0908
#
#
#
# Elastic Compliance Matrix: (Units=1/GPa)
#
#
# Indices 1 2 3 4 5 6 
#
# 1 0.016134 -0.004362 -0.002754 0.000015 -0.000149 -0.000151
# 2 -0.004362 0.009922 -0.003281 -0.000011 0.000080 0.000074
# 3 -0.002754 -0.003281 0.007888 0.000020 -0.000040 -0.000076
# 4 0.000015 -0.000011 0.000020 0.016176 -0.000129 -0.000121
# 5 -0.000149 0.000080 -0.000040 -0.000129 0.067221 0.000517
# 6 -0.000151 0.000074 -0.000076 -0.000121 0.000517 0.066273
#
#
# Mechanical properties :
#
#
# Convention : Reuss Voigt Hill
#
# Bulk Modulus (GPa) = 76.04438 88.94504 82.49471
# Shear Modulus (GPa) = 23.94733 33.49545 28.72139
#
# Velocity S-wave (km/s) = 3.13108 3.70304 3.42900
# Velocity P-wave (km/s) = 6.64852 7.39567 7.03202
#
# Compressibility (1/GPa) = 0.01315022
#
# Stress axis : x y z
#
# Youngs Moduli (GPa) = 61.98000 100.78832 126.77723
#
# Poissons Ratio (x) = 0.43966 0.34913
# Poissons Ratio (y) = 0.27037 0.41592
# Poissons Ratio (z) = 0.17069 0.33066
#
# Static dielectric constant tensor:
#      x y z
#    x 2.010830 0.000020 -0.000030 
#    y 0.000020 1.991320 0.000010 
#    z -0.000030 0.000010 2.014510 
# 
# From -- ./inp_files/781.got.cif
#   From: 2010.05.17/outbox.cif.g08.bks.cpg/sg43_1_cif.got.tgz:781.got - 2010.06.03 19:21:55.
