data_PCOD9371649
_publ_section_title
;
Structure prediction by ZEFSAII (Michael W. Deem and Ramdas Pophale) SiO2 
 PCOD9371649
Probable space group: F D D 2
;
_chemical_formula_sum "Si O2"
_cell_formula_units_Z 120
_cell_length_a 19.318143
_cell_length_b 11.011215
_cell_length_c 25.972867
_cell_angle_alpha 90.000000
_cell_angle_beta 90.000000
_cell_angle_gamma 90.000000
_cell_volume 5524.850246
_symmetry_space_group_name_H-M "F D D 2"
_symmetry_group_IT_number 43
_symmetry_cell_setting 'orthorhombic'
loop_
_space_group_symop_operation_xyz
x,y,z
-x,-y,z
1/4-x,1/4+y,1/4+z
1/4+x,1/4-y,1/4+z
x,1/2+y,1/2+z
-x,1/2-y,1/2+z
1/4-x,3/4+y,3/4+z
1/4+x,3/4-y,3/4+z
1/2+x,y,1/2+z
1/2-x,-y,1/2+z
3/4-x,1/4+y,3/4+z
3/4+x,1/4-y,3/4+z
1/2+x,1/2+y,z
1/2-x,1/2-y,z
3/4-x,3/4+y,1/4+z
3/4+x,3/4-y,1/4+z
loop_
_atom_site_type_symbol
_atom_site_label
_atom_site_fract_x
_atom_site_fract_y
_atom_site_fract_z
Si Si1 0.880409 0.231595 0.322320
Si Si2 0.706397 0.558961 0.668271
Si Si3 0.176151 0.690832 0.999166
Si Si4 0.923528 0.371995 0.502792
Si Si5 0.250000 0.250000 0.754436
Si Si6 0.082675 0.490878 0.336768
Si Si7 0.322221 0.874180 0.794936
Si Si8 0.390122 0.251472 0.390956
O O1 0.899654 0.162323 0.375020
O O2 0.808768 0.205472 0.293465
O O3 0.886940 0.373312 0.336188
O O4 0.933144 0.188280 0.277496
O O5 0.686289 0.435089 0.697396
O O6 0.716753 0.652815 0.715102
O O7 0.779612 0.543135 0.639101
O O8 0.250000 0.750000 0.992796
O O9 0.136720 0.699888 0.945316
O O10 0.127894 0.772529 0.035836
O O11 0.858322 0.317021 0.532652
O O12 0.917712 0.516884 0.502963
O O13 0.992492 0.339540 0.536670
O O14 0.108888 0.393096 0.379247
O O15 0.000000 0.500000 0.340176
O O16 0.340827 0.811049 0.848395
#
# Coordination Sequence:
#
# PCOD9371649 Si02
#       8
#    16  16  16  16   8  16  16  16
#     4  12  27  46  74 106 146 197 249 310 382 455
#     4  12  24  46  74 104 142 203 239 300 391 444
#     4  12  27  43  67 107 145 186 248 304 367 455
#     4  10  22  43  72  98 135 183 230 305 363 427
#     4  12  26  52  70 110 156 192 254 312 382 476
#     4  11  24  44  70  99 142 181 246 302 361 442
#     4  10  23  43  69 102 139 182 244 296 365 439
#     4  11  24  43  71 103 139 191 239 300 367 440
#
# _framework density 21.720047000000001
#
# number of rings (size 3 to 8) (size 9 to 14) (size 15 to 20)
#    0.000    0.800    5.333    0.800   10.267    0.000 
#    1.200    1.333    0.000    0.000    0.000    0.000 
#    0.000    0.000    0.000    0.000    0.000    0.000 
#
# Total GULP energy -167575.024677 kJ/mol
# GULP energy per Si atom -5585.834156 kJ/mol
# Density = 2.167061 g / cm^3
# Si number density = 21.720047 Si / 1000 Ang^3
#
#
#
# Elastic Constant Matrix: (Units=GPa)
#
#
# Indices 1 2 3 4 5 6 
#
# 1 57.8915 12.1370 41.6004 0.0000 0.0000 0.0000
# 2 12.1370 72.2736 40.2383 0.0000 0.0000 0.0000
# 3 41.6004 40.2383 135.9668 0.0000 0.0000 0.0000
# 4 0.0000 0.0000 0.0000 30.3575 0.0000 0.0000
# 5 0.0000 0.0000 0.0000 0.0000 39.4316 0.0000
# 6 0.0000 0.0000 0.0000 0.0000 0.0000 24.1019
#
#
#
# Elastic Compliance Matrix: (Units=1/GPa)
#
#
# Indices 1 2 3 4 5 6 
#
# 1 0.022142 0.000064 -0.006794 0.000000 0.000000 0.000000
# 2 0.000064 0.016566 -0.004922 0.000000 0.000000 0.000000
# 3 -0.006794 -0.004922 0.010890 0.000000 0.000000 0.000000
# 4 0.000000 0.000000 0.000000 0.032941 0.000000 0.000000
# 5 0.000000 0.000000 0.000000 0.000000 0.025360 0.000000
# 6 0.000000 0.000000 0.000000 0.000000 0.000000 0.041491
#
#
# Mechanical properties :
#
#
# Convention : Reuss Voigt Hill
#
# Bulk Modulus (GPa) = 38.03064 50.45370 44.24217
# Shear Modulus (GPa) = 27.55460 30.25528 28.90494
#
# Velocity S-wave (km/s) = 3.56564 3.73629 3.65196
# Velocity P-wave (km/s) = 5.87360 6.47246 6.18029
#
# Compressibility (1/GPa) = 0.02629459
#
# Stress axis : x y z
#
# Youngs Moduli (GPa) = 45.16291 60.36477 91.82786
#
# Poissons Ratio (x) = -0.00386 0.62383
# Poissons Ratio (y) = -0.00289 0.45199
# Poissons Ratio (z) = 0.30681 0.29712
#
# Static dielectric constant tensor:
#      x y z
#    x 1.808170 0.000000 0.000000 
#    y 0.000000 1.879500 0.000000 
#    z 0.000000 0.000000 1.772060 
# 
# From -- ./inp_files/22466.got.cif
#   From: 2010.05.17/outbox.cif.g08.bks.cpg/sg43_12_cif.got.tgz:22466.got - 2010.06.03 19:21:55.
