data_PCOD9371198
_publ_section_title
;
Structure prediction by ZEFSAII (Michael W. Deem and Ramdas Pophale) SiO2 
 PCOD9371198
Probable space group: F D D 2
;
_chemical_formula_sum "Si O2"
_cell_formula_units_Z 120
_cell_length_a 24.921863
_cell_length_b 20.054106
_cell_length_c 11.089581
_cell_angle_alpha 90.000000
_cell_angle_beta 90.000000
_cell_angle_gamma 90.000000
_cell_volume 5542.413807
_symmetry_space_group_name_H-M "F D D 2"
_symmetry_group_IT_number 43
_symmetry_cell_setting 'orthorhombic'
loop_
_space_group_symop_operation_xyz
x,y,z
-x,-y,z
1/4-x,1/4+y,1/4+z
1/4+x,1/4-y,1/4+z
x,1/2+y,1/2+z
-x,1/2-y,1/2+z
1/4-x,3/4+y,3/4+z
1/4+x,3/4-y,3/4+z
1/2+x,y,1/2+z
1/2-x,-y,1/2+z
3/4-x,1/4+y,3/4+z
3/4+x,1/4-y,3/4+z
1/2+x,1/2+y,z
1/2-x,1/2-y,z
3/4-x,3/4+y,1/4+z
3/4+x,3/4-y,1/4+z
loop_
_atom_site_type_symbol
_atom_site_label
_atom_site_fract_x
_atom_site_fract_y
_atom_site_fract_z
Si Si1 0.831490 0.769570 0.625000
Si Si2 0.915903 0.268445 0.950872
Si Si3 0.734227 0.361343 0.111107
Si Si4 0.014358 0.821620 0.113440
Si Si5 0.250000 0.250000 0.000468
Si Si6 0.550645 0.795288 0.211784
Si Si7 0.900394 0.572668 0.116968
Si Si8 0.717104 0.380591 0.634501
O O1 0.861064 0.795739 0.505956
O O2 0.781666 0.816655 0.663126
O O3 0.811890 0.694851 0.596442
O O4 0.864872 0.782246 0.745527
O O5 0.958922 0.327773 0.935092
O O6 0.911840 0.232807 0.820670
O O7 0.935309 0.217091 0.054861
O O8 0.760360 0.392301 0.991059
O O9 0.969542 0.764387 0.129530
O O10 0.998820 0.872407 0.009232
O O11 0.278884 0.191934 0.076229
O O12 0.301005 0.281039 0.928556
O O13 0.575550 0.852356 0.128670
O O14 0.499973 0.823206 0.289460
O O15 0.840505 0.588166 0.165656
#
# Coordination Sequence:
#
# PCOD9371198 Si02
#       8
#    16  16  16  16   8  16  16  16
#     4  11  24  40  66  97 129 175 218 275 342 391
#     4  10  22  42  66  93 132 172 219 274 332 402
#     4  10  24  43  61  98 135 167 223 279 326 400
#     4  10  21  41  65  90 129 171 216 268 327 405
#     4  10  24  46  62 102 140 162 232 288 312 418
#     4   9  21  42  62  94 132 164 227 278 318 408
#     4  11  23  40  68  94 130 176 220 277 341 389
#     4  10  23  41  65  97 127 180 217 273 341 388
#
# _framework density 21.651216000000002
#
# number of rings (size 3 to 8) (size 9 to 14) (size 15 to 20)
#    0.000    1.867    0.000    2.400    5.600    4.267 
#    0.000    0.000    0.000    0.000    0.000    0.000 
#    0.000    0.000    0.000    0.000    0.000    0.000 
#
# Total GULP energy -167012.685413 kJ/mol
# GULP energy per Si atom -5567.089514 kJ/mol
# Density = 2.160194 g / cm^3
# Si number density = 21.651216 Si / 1000 Ang^3
#
#
#
# Elastic Constant Matrix: (Units=GPa)
#
#
# Indices 1 2 3 4 5 6 
#
# 1 62.9641 6.1563 5.6149 0.0000 0.0000 0.0000
# 2 6.1563 85.6042 31.3236 0.0000 0.0000 0.0000
# 3 5.6149 31.3236 51.9008 -0.0001 0.0000 0.0000
# 4 0.0000 0.0000 -0.0001 28.7804 0.0000 0.0000
# 5 0.0000 0.0000 0.0000 0.0000 -27.0561 0.0000
# 6 0.0000 0.0000 0.0000 0.0000 0.0000 17.2464
#
#
#
# Elastic Compliance Matrix: (Units=1/GPa)
#
#
# Indices 1 2 3 4 5 6 
#
# 1 0.016066 -0.000667 -0.001336 0.000000 0.000000 0.000000
# 2 -0.000667 0.015020 -0.008993 0.000000 0.000000 0.000000
# 3 -0.001336 -0.008993 0.024840 0.000000 0.000000 0.000000
# 4 0.000000 0.000000 0.000000 0.034746 0.000000 0.000000
# 5 0.000000 0.000000 0.000000 0.000000 -0.036960 0.000000
# 6 0.000000 0.000000 0.000000 0.000000 0.000000 0.057983
#
#
# Mechanical properties :
#
#
# Convention : Reuss Voigt Hill
#
# Bulk Modulus (GPa) = 29.46787 31.85096 30.65942
# Shear Modulus (GPa) = 34.48329 14.28575 24.38452
#
# Velocity S-wave (km/s) = 3.99516 2.57147 3.35959
# Velocity P-wave (km/s) = 5.90944 4.85381 5.40745
#
# Compressibility (1/GPa) = 0.03393526
#
# Stress axis : x y z
#
# Youngs Moduli (GPa) = 62.24184 66.57672 40.25839
#
# Poissons Ratio (x) = 0.04438 0.05378
# Poissons Ratio (y) = 0.04149 0.36204
# Poissons Ratio (z) = 0.08314 0.59873
#
# Static dielectric constant tensor:
#      x y z
#    x 2.044580 0.000000 0.000000 
#    y 0.000000 1.804730 0.000000 
#    z 0.000000 0.000000 1.789520 
# 
# From -- ./inp_files/7622.got.cif
#   From: 2010.05.17/outbox.cif.g08.bks.cpg/sg43_4_cif.got.tgz:7622.got - 2010.06.03 19:21:55.
