data_PCOD9371779
_publ_section_title
;
Structure prediction by ZEFSAII (Michael W. Deem and Ramdas Pophale) SiO2 
 PCOD9371779
Probable space group: F D D 2
;
_chemical_formula_sum "Si O2"
_cell_formula_units_Z 112
_cell_length_a 14.595509
_cell_length_b 11.748676
_cell_length_c 27.923993
_cell_angle_alpha 90.000000
_cell_angle_beta 90.000000
_cell_angle_gamma 90.000000
_cell_volume 4788.347855
_symmetry_space_group_name_H-M "F D D 2"
_symmetry_group_IT_number 43
_symmetry_cell_setting 'orthorhombic'
loop_
_space_group_symop_operation_xyz
x,y,z
-x,-y,z
1/4-x,1/4+y,1/4+z
1/4+x,1/4-y,1/4+z
x,1/2+y,1/2+z
-x,1/2-y,1/2+z
1/4-x,3/4+y,3/4+z
1/4+x,3/4-y,3/4+z
1/2+x,y,1/2+z
1/2-x,-y,1/2+z
3/4-x,1/4+y,3/4+z
3/4+x,1/4-y,3/4+z
1/2+x,1/2+y,z
1/2-x,1/2-y,z
3/4-x,3/4+y,1/4+z
3/4+x,3/4-y,1/4+z
loop_
_atom_site_type_symbol
_atom_site_label
_atom_site_fract_x
_atom_site_fract_y
_atom_site_fract_z
Si Si1 0.417408 0.380197 0.895140
Si Si2 0.108012 0.815596 0.044874
Si Si3 0.837483 0.521706 0.616689
Si Si4 0.637634 0.118336 0.235164
Si Si5 0.250000 0.250000 0.912919
Si Si6 0.893532 0.867933 0.469652
Si Si7 0.339952 0.043814 0.326238
Si Si8 0.000000 0.000000 0.982479
O O1 0.493735 0.292127 0.879089
O O2 0.319063 0.326201 0.883796
O O3 0.404054 0.497821 0.868152
O O4 0.437463 0.417760 0.949412
O O5 0.019207 0.775523 0.075587
O O6 0.177127 0.872143 0.081675
O O7 0.141552 0.717887 0.009970
O O8 0.064099 0.913259 0.010858
O O9 0.880645 0.570737 0.666367
O O10 0.895708 0.429236 0.585545
O O11 0.568464 0.071756 0.195723
O O12 0.744968 0.111373 0.221335
O O13 0.617768 0.254052 0.235857
O O14 0.627096 0.032442 0.280561
#
# Coordination Sequence:
#
# PCOD9371779 Si02
#       8
#    16  16  16  16   8  16  16   8
#     4  12  25  41  72 104 146 184 245 303 368 436
#     4  11  23  40  76 107 147 194 245 304 381 444
#     4  12  22  42  74 108 146 191 249 304 371 440
#     4  10  24  45  74  98 152 192 246 294 383 445
#     4  12  26  43  68 106 134 200 242 287 362 462
#     4  10  22  48  70 107 150 198 232 319 380 439
#     4  11  23  43  71 108 139 190 246 309 352 454
#     4  12  20  45  68 106 142 194 240 311 370 434
#
# _framework density 23.390114000000001
#
# number of rings (size 3 to 8) (size 9 to 14) (size 15 to 20)
#    0.000    0.857    5.714    0.857    4.000    2.286 
#    0.000    0.000    0.000    1.714    0.000    0.000 
#    0.000    0.000    0.000    0.000    0.000    0.000 
#
# Total GULP energy -156280.816388 kJ/mol
# GULP energy per Si atom -5581.457728 kJ/mol
# Density = 2.333688 g / cm^3
# Si number density = 23.390114 Si / 1000 Ang^3
#
#
#
# Elastic Constant Matrix: (Units=GPa)
#
#
# Indices 1 2 3 4 5 6 
#
# 1 44.8412 12.5727 -2.1596 0.0000 0.0000 0.0000
# 2 12.5727 153.1879 64.5034 0.0000 0.0000 0.0000
# 3 -2.1596 64.5034 86.3551 0.0000 0.0000 0.0000
# 4 0.0000 0.0000 0.0000 28.1151 0.0000 0.0000
# 5 0.0000 0.0000 0.0000 0.0000 17.7395 0.0000
# 6 0.0000 0.0000 0.0000 0.0000 0.0000 30.9666
#
#
#
# Elastic Compliance Matrix: (Units=1/GPa)
#
#
# Indices 1 2 3 4 5 6 
#
# 1 0.023326 -0.003151 0.002937 0.000000 0.000000 0.000000
# 2 -0.003151 0.009949 -0.007510 0.000000 0.000000 0.000000
# 3 0.002937 -0.007510 0.017263 0.000000 0.000000 0.000000
# 4 0.000000 0.000000 0.000000 0.035568 0.000000 0.000000
# 5 0.000000 0.000000 0.000000 0.000000 0.056371 0.000000
# 6 0.000000 0.000000 0.000000 0.000000 0.000000 0.032293
#
#
# Mechanical properties :
#
#
# Convention : Reuss Voigt Hill
#
# Bulk Modulus (GPa) = 28.49844 48.24637 38.37241
# Shear Modulus (GPa) = 24.76282 29.32874 27.04578
#
# Velocity S-wave (km/s) = 3.25728 3.54488 3.40412
# Velocity P-wave (km/s) = 5.13390 6.11772 5.64727
#
# Compressibility (1/GPa) = 0.03508964
#
# Stress axis : x y z
#
# Youngs Moduli (GPa) = 42.87076 100.51350 57.92627
#
# Poissons Ratio (x) = 0.31674 -0.17014
# Poissons Ratio (y) = 0.13509 0.43504
# Poissons Ratio (z) = -0.12592 0.75488
#
# Static dielectric constant tensor:
#      x y z
#    x 1.892020 0.000000 0.000000 
#    y 0.000000 2.040220 0.000000 
#    z 0.000000 0.000000 1.889570 
# 
# From -- ./inp_files/29118.got.cif
#   From: 2010.05.17/outbox.cif.g08.bks.cpg/sg43_15_cif.got.tgz:29118.got - 2010.06.03 19:21:55.
