data_PCOD9371316
_publ_section_title
;
Structure prediction by ZEFSAII (Michael W. Deem and Ramdas Pophale) SiO2 
 PCOD9371316
Probable space group: F D D 2
;
_chemical_formula_sum "Si O2"
_cell_formula_units_Z 112
_cell_length_a 14.050043
_cell_length_b 14.672684
_cell_length_c 25.637904
_cell_angle_alpha 90.000000
_cell_angle_beta 90.000000
_cell_angle_gamma 90.000000
_cell_volume 5285.301112
_symmetry_space_group_name_H-M "F D D 2"
_symmetry_group_IT_number 43
_symmetry_cell_setting 'orthorhombic'
loop_
_space_group_symop_operation_xyz
x,y,z
-x,-y,z
1/4-x,1/4+y,1/4+z
1/4+x,1/4-y,1/4+z
x,1/2+y,1/2+z
-x,1/2-y,1/2+z
1/4-x,3/4+y,3/4+z
1/4+x,3/4-y,3/4+z
1/2+x,y,1/2+z
1/2-x,-y,1/2+z
3/4-x,1/4+y,3/4+z
3/4+x,1/4-y,3/4+z
1/2+x,1/2+y,z
1/2-x,1/2-y,z
3/4-x,3/4+y,1/4+z
3/4+x,3/4-y,1/4+z
loop_
_atom_site_type_symbol
_atom_site_label
_atom_site_fract_x
_atom_site_fract_y
_atom_site_fract_z
Si Si1 0.979351 0.164946 0.656630
Si Si2 0.800123 0.848241 0.685531
Si Si3 0.933330 0.611967 0.268458
Si Si4 0.148713 0.068147 0.795288
Si Si5 0.404665 0.051671 0.529708
Si Si6 0.874105 0.552479 0.643995
Si Si7 0.057026 0.627281 0.685027
O O1 0.093276 0.159223 0.663000
O O2 0.938037 0.105914 0.705009
O O3 0.944056 0.145324 0.598469
O O4 0.944587 0.268608 0.666882
O O5 0.750000 0.750000 0.684556
O O6 0.806009 0.886240 0.744335
O O7 0.732039 0.915657 0.653457
O O8 0.853393 0.542333 0.289179
O O9 0.917468 0.716933 0.281756
O O10 0.036486 0.589507 0.291436
O O11 0.412557 0.086834 0.588337
O O12 0.363190 0.123532 0.489460
O O13 0.500000 0.000000 0.511505
O O14 0.889865 0.444350 0.647917
O O15 0.947303 0.594600 0.686426
#
# Coordination Sequence:
#
# PCOD9371316 Si02
#       7
#    16  16  16  16  16  16  16
#     4  10  21  44  67  94 133 173 218 280 334 393
#     4  11  24  42  63  96 135 172 225 274 323 403
#     4   9  22  42  62 101 128 163 229 271 321 410
#     4  10  22  42  69  88 133 177 217 271 335 391
#     4  11  23  41  66  95 134 169 210 284 335 382
#     4  11  23  42  65  93 134 172 221 274 330 399
#     4  10  22  41  65  94 130 169 221 266 328 406
#
# _framework density 21.190846000000001
#
# number of rings (size 3 to 8) (size 9 to 14) (size 15 to 20)
#    0.000    1.714    2.857    0.857    2.000    2.286 
#   20.571    0.000    0.000    0.000    0.000    0.000 
#    0.000    0.000    0.000    0.000    0.000    0.000 
#
# Total GULP energy -156338.821812 kJ/mol
# GULP energy per Si atom -5583.529350 kJ/mol
# Density = 2.114261 g / cm^3
# Si number density = 21.190846 Si / 1000 Ang^3
#
#
#
# Elastic Constant Matrix: (Units=GPa)
#
#
# Indices 1 2 3 4 5 6 
#
# 1 74.0665 13.4853 62.1860 0.0000 0.0000 0.0000
# 2 13.4853 28.2678 16.4679 0.0000 0.0000 0.0000
# 3 62.1860 16.4679 141.1888 0.0000 0.0000 0.0000
# 4 0.0000 0.0000 0.0000 23.9373 0.0000 0.0000
# 5 0.0000 0.0000 0.0000 0.0000 21.8797 0.0000
# 6 0.0000 0.0000 0.0000 0.0000 0.0000 26.9812
#
#
#
# Elastic Compliance Matrix: (Units=1/GPa)
#
#
# Indices 1 2 3 4 5 6 
#
# 1 0.022123 -0.005233 -0.009133 0.000000 0.000000 0.000000
# 2 -0.005233 0.039193 -0.002267 0.000000 0.000000 0.000000
# 3 -0.009133 -0.002267 0.011370 0.000000 0.000000 0.000000
# 4 0.000000 0.000000 0.000000 0.041776 0.000000 0.000000
# 5 0.000000 0.000000 0.000000 0.000000 0.045704 0.000000
# 6 0.000000 0.000000 0.000000 0.000000 0.000000 0.037063
#
#
# Mechanical properties :
#
#
# Convention : Reuss Voigt Hill
#
# Bulk Modulus (GPa) = 25.36817 47.53353 36.45085
# Shear Modulus (GPa) = 20.52260 24.65189 22.58724
#
# Velocity S-wave (km/s) = 3.11539 3.41446 3.26835
# Velocity P-wave (km/s) = 4.99381 6.16641 5.61083
#
# Compressibility (1/GPa) = 0.03941948
#
# Stress axis : x y z
#
# Youngs Moduli (GPa) = 45.20280 25.51489 87.95185
#
# Poissons Ratio (x) = 0.13352 0.80330
# Poissons Ratio (y) = 0.23654 0.19935
# Poissons Ratio (z) = 0.41286 0.05783
#
# Static dielectric constant tensor:
#      x y z
#    x 1.784540 0.000000 0.000000 
#    y 0.000000 1.829100 0.000000 
#    z 0.000000 0.000000 1.801290 
# 
# From -- ./inp_files/21736.got.cif
#   From: 2010.05.17/outbox.cif.g08.bks.cpg/sg43_11_cif.got.tgz:21736.got - 2010.06.03 19:21:55.
