data_PCOD9371031
_publ_section_title
;
Structure prediction by ZEFSAII (Michael W. Deem and Ramdas Pophale) SiO2 
 PCOD9371031
Probable space group: F D D 2
;
_chemical_formula_sum "Si O2"
_cell_formula_units_Z 112
_cell_length_a 11.594730
_cell_length_b 15.313137
_cell_length_c 30.051529
_cell_angle_alpha 90.000000
_cell_angle_beta 90.000000
_cell_angle_gamma 90.000000
_cell_volume 5335.699730
_symmetry_space_group_name_H-M "F D D 2"
_symmetry_group_IT_number 43
_symmetry_cell_setting 'orthorhombic'
loop_
_space_group_symop_operation_xyz
x,y,z
-x,-y,z
1/4-x,1/4+y,1/4+z
1/4+x,1/4-y,1/4+z
x,1/2+y,1/2+z
-x,1/2-y,1/2+z
1/4-x,3/4+y,3/4+z
1/4+x,3/4-y,3/4+z
1/2+x,y,1/2+z
1/2-x,-y,1/2+z
3/4-x,1/4+y,3/4+z
3/4+x,1/4-y,3/4+z
1/2+x,1/2+y,z
1/2-x,1/2-y,z
3/4-x,3/4+y,1/4+z
3/4+x,3/4-y,1/4+z
loop_
_atom_site_type_symbol
_atom_site_label
_atom_site_fract_x
_atom_site_fract_y
_atom_site_fract_z
Si Si1 0.051181 0.871424 0.717530
Si Si2 0.858604 0.188569 0.981876
Si Si3 0.436623 0.212753 0.961370
Si Si4 0.339841 0.052648 0.410007
Si Si5 0.877517 0.388906 0.570419
Si Si6 0.067444 0.083598 0.402374
Si Si7 0.152893 0.916804 0.066727
O O1 0.092622 0.787084 0.689011
O O2 0.090350 0.876322 0.769322
O O3 0.913472 0.890988 0.720495
O O4 0.113309 0.954524 0.695490
O O5 0.750000 0.250000 0.973141
O O6 0.891681 0.131428 0.939069
O O7 0.969655 0.246689 0.996343
O O8 0.820048 0.115730 0.017546
O O9 0.523130 0.168429 0.927253
O O10 0.389255 0.067123 0.359707
O O11 0.202922 0.070592 0.407296
O O12 0.820425 0.483718 0.579637
O O13 0.014808 0.405807 0.570228
O O14 0.039908 0.100667 0.350948
O O15 0.000000 0.000000 0.419389
#
# Coordination Sequence:
#
# PCOD9371031 Si02
#       7
#    16  16  16  16  16  16  16
#     4  11  23  45  67  96 142 186 225 288 358 427
#     4  12  22  38  66 101 132 176 230 282 349 414
#     4  11  24  40  67  96 138 178 228 284 359 416
#     4  11  23  39  73  98 132 185 233 284 352 424
#     4  10  21  40  65  95 134 174 233 287 342 418
#     4  11  21  41  66  98 130 175 229 283 347 421
#     4  10  21  37  64  95 134 169 224 294 337 403
#
# _framework density 20.990687000000001
#
# number of rings (size 3 to 8) (size 9 to 14) (size 15 to 20)
#    0.000    1.143    5.714    1.286    2.000    0.571 
#    0.000    5.714    0.000    0.000    0.000    0.000 
#    0.000    0.000    0.000    0.000    0.000    0.000 
#
# Total GULP energy -155881.369782 kJ/mol
# GULP energy per Si atom -5567.191778 kJ/mol
# Density = 2.094291 g / cm^3
# Si number density = 20.990687 Si / 1000 Ang^3
#
#
#
# Elastic Constant Matrix: (Units=GPa)
#
#
# Indices 1 2 3 4 5 6 
#
# 1 75.0410 35.9645 9.3965 0.0000 0.0000 0.0000
# 2 35.9645 124.7567 56.0062 0.0000 0.0000 0.0000
# 3 9.3965 56.0062 109.1817 0.0000 0.0000 0.0000
# 4 0.0000 0.0000 0.0000 -62.3954 0.0000 0.0000
# 5 0.0000 0.0000 0.0000 0.0000 14.2880 0.0000
# 6 0.0000 0.0000 0.0000 0.0000 0.0000 26.2792
#
#
#
# Elastic Compliance Matrix: (Units=1/GPa)
#
#
# Indices 1 2 3 4 5 6 
#
# 1 0.015593 -0.005057 0.001252 0.000000 0.000000 0.000000
# 2 -0.005057 0.012054 -0.005748 0.000000 0.000000 0.000000
# 3 0.001252 -0.005748 0.012000 0.000000 0.000000 0.000000
# 4 0.000000 0.000000 0.000000 -0.016027 0.000000 0.000000
# 5 0.000000 0.000000 0.000000 0.000000 0.069989 0.000000
# 6 0.000000 0.000000 0.000000 0.000000 0.000000 0.038053
#
#
# Mechanical properties :
#
#
# Convention : Reuss Voigt Hill
#
# Bulk Modulus (GPa) = 48.68397 56.85710 52.77054
# Shear Modulus (GPa) = 31.72299 9.47517 20.59908
#
# Velocity S-wave (km/s) = 3.89175 2.12692 3.13604
# Velocity P-wave (km/s) = 6.59073 5.75998 6.18931
#
# Compressibility (1/GPa) = 0.02054064
#
# Stress axis : x y z
#
# Youngs Moduli (GPa) = 64.13128 82.96087 83.33504
#
# Poissons Ratio (x) = 0.41955 -0.10435
# Poissons Ratio (y) = 0.32433 0.47901
# Poissons Ratio (z) = -0.08030 0.47685
#
# Static dielectric constant tensor:
#      x y z
#    x 1.763320 0.000000 0.000000 
#    y 0.000000 1.875730 0.000000 
#    z 0.000000 0.000000 1.798420 
# 
# From -- ./inp_files/28648.got.cif
#   From: 2010.05.17/outbox.cif.g08.bks.cpg/sg43_15_cif.got.tgz:28648.got - 2010.06.03 19:21:55.
