data_PCOD9371183
_publ_section_title
;
Structure prediction by ZEFSAII (Michael W. Deem and Ramdas Pophale) SiO2 
 PCOD9371183
Probable space group: F D D 2
;
_chemical_formula_sum "Si O2"
_cell_formula_units_Z 72
_cell_length_a 14.700244
_cell_length_b 9.213238
_cell_length_c 24.368906
_cell_angle_alpha 90.000000
_cell_angle_beta 90.000000
_cell_angle_gamma 90.000000
_cell_volume 3300.447784
_symmetry_space_group_name_H-M "F D D 2"
_symmetry_group_IT_number 43
_symmetry_cell_setting 'orthorhombic'
loop_
_space_group_symop_operation_xyz
x,y,z
-x,-y,z
1/4-x,1/4+y,1/4+z
1/4+x,1/4-y,1/4+z
x,1/2+y,1/2+z
-x,1/2-y,1/2+z
1/4-x,3/4+y,3/4+z
1/4+x,3/4-y,3/4+z
1/2+x,y,1/2+z
1/2-x,-y,1/2+z
3/4-x,1/4+y,3/4+z
3/4+x,1/4-y,3/4+z
1/2+x,1/2+y,z
1/2-x,1/2-y,z
3/4-x,3/4+y,1/4+z
3/4+x,3/4-y,1/4+z
loop_
_atom_site_type_symbol
_atom_site_label
_atom_site_fract_x
_atom_site_fract_y
_atom_site_fract_z
Si Si1 0.006312 0.286758 0.776890
Si Si2 0.426684 0.887667 0.955443
Si Si3 0.696308 0.600569 0.278922
Si Si4 0.884824 0.845425 0.617359
Si Si5 0.250000 0.250000 0.960079
O O1 0.077987 0.350548 0.733117
O O2 0.064888 0.306753 0.832447
O O3 0.911020 0.366878 0.781331
O O4 0.980063 0.131265 0.751610
O O5 0.500000 0.000000 0.980336
O O6 0.409416 0.952829 0.895652
O O7 0.463301 0.728686 0.970463
O O8 0.750000 0.750000 0.286762
O O9 0.708911 0.476043 0.325734
O O10 0.924564 0.939162 0.667570
#
# Coordination Sequence:
#
# PCOD9371183 Si02
#       5
#    16  16  16  16   8
#     4  10  23  43  63 102 141 176 229 293 340 410
#     4  10  21  40  70  92 130 182 225 272 349 417
#     4  11  25  40  66  99 138 174 229 293 344 410
#     4  10  22  42  69  93 139 188 224 277 363 404
#     4  10  24  40  74 106 136 182 244 284 338 426
#
# _framework density 21.815221999999999
#
# number of rings (size 3 to 8) (size 9 to 14) (size 15 to 20)
#    0.000    1.778    0.000    4.000   12.444    3.556 
#    0.000    2.222    0.000    0.000    0.000    0.000 
#    0.000    0.000    0.000    0.000    0.000    0.000 
#
# Total GULP energy -100229.043358 kJ/mol
# GULP energy per Si atom -5568.280187 kJ/mol
# Density = 2.176557 g / cm^3
# Si number density = 21.815222 Si / 1000 Ang^3
#
#
#
# Elastic Constant Matrix: (Units=GPa)
#
#
# Indices 1 2 3 4 5 6 
#
# 1 80.4911 25.4370 25.0974 0.0000 0.0000 0.0000
# 2 25.4370 132.6642 65.6647 0.0000 0.0000 0.0000
# 3 25.0974 65.6647 128.1418 0.0000 0.0000 0.0000
# 4 0.0000 0.0000 0.0000 46.6927 0.0000 0.0000
# 5 0.0000 0.0000 0.0000 0.0000 30.3022 0.0000
# 6 0.0000 0.0000 0.0000 0.0000 0.0000 21.6529
#
#
#
# Elastic Compliance Matrix: (Units=1/GPa)
#
#
# Indices 1 2 3 4 5 6 
#
# 1 0.013517 -0.001717 -0.001768 0.000000 0.000000 0.000000
# 2 -0.001717 0.010318 -0.004951 0.000000 0.000000 0.000000
# 3 -0.001768 -0.004951 0.010687 0.000000 0.000000 0.000000
# 4 0.000000 0.000000 0.000000 0.021417 0.000000 0.000000
# 5 0.000000 0.000000 0.000000 0.000000 0.033001 0.000000
# 6 0.000000 0.000000 0.000000 0.000000 0.000000 0.046183
#
#
# Mechanical properties :
#
#
# Convention : Reuss Voigt Hill
#
# Bulk Modulus (GPa) = 56.65316 63.74391 60.19853
# Shear Modulus (GPa) = 31.67016 34.73610 33.20313
#
# Velocity S-wave (km/s) = 3.81431 3.99468 3.90554
# Velocity P-wave (km/s) = 6.73977 7.11055 6.92764
#
# Compressibility (1/GPa) = 0.01765127
#
# Stress axis : x y z
#
# Youngs Moduli (GPa) = 73.97827 96.92240 93.57113
#
# Poissons Ratio (x) = 0.16640 0.16540
# Poissons Ratio (y) = 0.12701 0.46325
# Poissons Ratio (z) = 0.13077 0.47985
#
# Static dielectric constant tensor:
#      x y z
#    x 1.837540 0.000000 0.000000 
#    y 0.000000 1.888980 0.000000 
#    z 0.000000 0.000000 1.851500 
# 
# From -- ./inp_files/21988.got.cif
#   From: 2010.05.17/outbox.cif.g08.bks.cpg/sg43_11_cif.got.tgz:21988.got - 2010.06.03 19:21:55.
