data_PCOD9371404
_publ_section_title
;
Structure prediction by ZEFSAII (Michael W. Deem and Ramdas Pophale) SiO2 
 PCOD9371404
Probable space group: F D D 2
;
_chemical_formula_sum "Si O2"
_cell_formula_units_Z 88
_cell_length_a 10.491505
_cell_length_b 13.074505
_cell_length_c 29.559035
_cell_angle_alpha 90.000000
_cell_angle_beta 90.000000
_cell_angle_gamma 90.000000
_cell_volume 4054.649324
_symmetry_space_group_name_H-M "F D D 2"
_symmetry_group_IT_number 43
_symmetry_cell_setting 'orthorhombic'
loop_
_space_group_symop_operation_xyz
x,y,z
-x,-y,z
1/4-x,1/4+y,1/4+z
1/4+x,1/4-y,1/4+z
x,1/2+y,1/2+z
-x,1/2-y,1/2+z
1/4-x,3/4+y,3/4+z
1/4+x,3/4-y,3/4+z
1/2+x,y,1/2+z
1/2-x,-y,1/2+z
3/4-x,1/4+y,3/4+z
3/4+x,1/4-y,3/4+z
1/2+x,1/2+y,z
1/2-x,1/2-y,z
3/4-x,3/4+y,1/4+z
3/4+x,3/4-y,1/4+z
loop_
_atom_site_type_symbol
_atom_site_label
_atom_site_fract_x
_atom_site_fract_y
_atom_site_fract_z
Si Si1 0.163435 0.848813 0.541170
Si Si2 0.750000 0.750000 0.216679
Si Si3 0.695985 0.367607 0.226066
Si Si4 0.109350 0.791857 0.633528
Si Si5 0.645247 0.339741 0.127406
Si Si6 0.452692 0.315534 0.281050
O O1 0.250000 0.750000 0.538464
O O2 0.092367 0.864955 0.590247
O O3 0.057476 0.829892 0.503341
O O4 0.248077 0.948900 0.533401
O O5 0.855684 0.688324 0.186107
O O6 0.668240 0.676734 0.248309
O O7 0.750000 0.250000 0.223650
O O8 0.670211 0.399552 0.174398
O O9 0.569711 0.373001 0.256729
O O10 0.250000 0.750000 0.622627
O O11 0.994134 0.711821 0.631568
O O12 0.750000 0.250000 0.125276
O O13 0.663824 0.400990 0.081250
#
# Coordination Sequence:
#
# PCOD9371404 Si02
#       6
#    16   8  16  16  16  16
#     4  10  22  42  66  93 133 170 216 265 322 389
#     4  10  22  38  68  88 136 170 210 266 338 370
#     4   9  19  41  64  95 132 167 211 273 327 382
#     4   9  20  41  62  88 128 172 201 264 324 376
#     4  11  22  41  68  97 129 168 217 269 323 384
#     4  11  23  41  67  98 126 172 218 269 324 388
#
# _framework density 21.703479000000002
#
# number of rings (size 3 to 8) (size 9 to 14) (size 15 to 20)
#    0.545    1.455    1.818    1.091    5.091    0.000 
#    3.273    0.909    0.000    0.000    0.000    0.000 
#    0.000    0.000    0.000    0.000    0.000    0.000 
#
# Total GULP energy -122475.921220 kJ/mol
# GULP energy per Si atom -5567.087328 kJ/mol
# Density = 2.165408 g / cm^3
# Si number density = 21.703479 Si / 1000 Ang^3
#
#
#
# Elastic Constant Matrix: (Units=GPa)
#
#
# Indices 1 2 3 4 5 6 
#
# 1 149.5206 31.5021 84.1902 0.0000 0.0000 0.0000
# 2 31.5021 33.4497 35.1347 0.0000 0.0000 0.0000
# 3 84.1902 35.1347 211.6296 0.0000 0.0000 0.0000
# 4 0.0000 0.0000 0.0000 47.3663 0.0000 0.0000
# 5 0.0000 0.0000 0.0000 0.0000 64.8937 0.0000
# 6 0.0000 0.0000 0.0000 0.0000 0.0000 21.0230
#
#
#
# Elastic Compliance Matrix: (Units=1/GPa)
#
#
# Indices 1 2 3 4 5 6 
#
# 1 0.009532 -0.006049 -0.002788 0.000000 0.000000 0.000000
# 2 -0.006049 0.040048 -0.004242 0.000000 0.000000 0.000000
# 3 -0.002788 -0.004242 0.006539 0.000000 0.000000 0.000000
# 4 0.000000 0.000000 0.000000 0.021112 0.000000 0.000000
# 5 0.000000 0.000000 0.000000 0.000000 0.015410 0.000000
# 6 0.000000 0.000000 0.000000 0.000000 0.000000 0.047567
#
#
# Mechanical properties :
#
#
# Convention : Reuss Voigt Hill
#
# Bulk Modulus (GPa) = 33.37688 77.36156 55.36922
# Shear Modulus (GPa) = 28.35214 42.90815 35.63014
#
# Velocity S-wave (km/s) = 3.61825 4.45119 4.05616
# Velocity P-wave (km/s) = 5.73303 7.88287 6.89229
#
# Compressibility (1/GPa) = 0.02996086
#
# Stress axis : x y z
#
# Youngs Moduli (GPa) = 104.90737 24.96974 152.93712
#
# Poissons Ratio (x) = 0.15104 0.42637
# Poissons Ratio (y) = 0.63457 0.64883
# Poissons Ratio (z) = 0.29247 0.10593
#
# Static dielectric constant tensor:
#      x y z
#    x 1.758800 0.000000 0.000000 
#    y 0.000000 1.802420 0.000000 
#    z 0.000000 0.000000 1.993730 
# 
# From -- ./inp_files/24996.got.cif
#   From: 2010.05.17/outbox.cif.g08.bks.cpg/sg43_13_cif.got.tgz:24996.got - 2010.06.03 19:21:55.
