data_PCOD9371358
_publ_section_title
;
Structure prediction by ZEFSAII (Michael W. Deem and Ramdas Pophale) SiO2 
 PCOD9371358
Probable space group: F D D 2
;
_chemical_formula_sum "Si O2"
_cell_formula_units_Z 80
_cell_length_a 25.560290
_cell_length_b 8.275803
_cell_length_c 15.757866
_cell_angle_alpha 90.000000
_cell_angle_beta 90.000000
_cell_angle_gamma 90.000000
_cell_volume 3333.291724
_symmetry_space_group_name_H-M "F D D 2"
_symmetry_group_IT_number 43
_symmetry_cell_setting 'orthorhombic'
loop_
_space_group_symop_operation_xyz
x,y,z
-x,-y,z
1/4-x,1/4+y,1/4+z
1/4+x,1/4-y,1/4+z
x,1/2+y,1/2+z
-x,1/2-y,1/2+z
1/4-x,3/4+y,3/4+z
1/4+x,3/4-y,3/4+z
1/2+x,y,1/2+z
1/2-x,-y,1/2+z
3/4-x,1/4+y,3/4+z
3/4+x,1/4-y,3/4+z
1/2+x,1/2+y,z
1/2-x,1/2-y,z
3/4-x,3/4+y,1/4+z
3/4+x,3/4-y,1/4+z
loop_
_atom_site_type_symbol
_atom_site_label
_atom_site_fract_x
_atom_site_fract_y
_atom_site_fract_z
Si Si1 0.356818 0.621977 0.550690
Si Si2 0.022660 0.666090 0.425363
Si Si3 0.299341 0.650922 0.251980
Si Si4 0.203858 0.024519 0.413593
Si Si5 0.185311 0.377652 0.368162
O O1 0.323037 0.530484 0.622296
O O2 0.403687 0.524552 0.505738
O O3 0.316023 0.619097 0.473329
O O4 0.382373 0.772781 0.600604
O O5 0.041464 0.621313 0.521227
O O6 0.000000 0.500000 0.388553
O O7 0.977962 0.803784 0.425636
O O8 0.250000 0.750000 0.288086
O O9 0.314065 0.516047 0.318901
O O10 0.181179 0.208141 0.418923
O O11 0.266769 0.035274 0.416654
#
# Coordination Sequence:
#
# PCOD9371358 Si02
#       5
#    16  16  16  16  16
#     4  12  25  41  72 109 130 191 249 294 363 441
#     4  11  23  46  67 102 144 188 245 299 362 437
#     4  11  22  43  67  92 146 185 228 295 359 440
#     4  10  22  43  70  99 138 189 237 294 364 431
#     4  10  21  48  70  92 148 194 232 298 373 440
#
# _framework density 24.000299999999999
#
# number of rings (size 3 to 8) (size 9 to 14) (size 15 to 20)
#    0.000    1.200    8.000    1.200    2.800    0.800 
#    7.200    0.000    0.000    0.000    0.000    0.000 
#    0.000    0.000    0.000    0.000    0.000    0.000 
#
# Total GULP energy -111334.380755 kJ/mol
# GULP energy per Si atom -5566.719038 kJ/mol
# Density = 2.394567 g / cm^3
# Si number density = 24.000300 Si / 1000 Ang^3
#
#
#
# Elastic Constant Matrix: (Units=GPa)
#
#
# Indices 1 2 3 4 5 6 
#
# 1 98.9005 34.9686 40.1492 0.0000 0.0000 0.0000
# 2 34.9686 96.1773 5.4238 0.0000 0.0000 0.0000
# 3 40.1492 5.4238 35.5936 0.0000 0.0000 0.0000
# 4 0.0000 0.0000 0.0000 16.5629 0.0000 0.0000
# 5 0.0000 0.0000 0.0000 0.0000 32.8128 0.0000
# 6 0.0000 0.0000 0.0000 0.0000 0.0000 28.4571
#
#
#
# Elastic Compliance Matrix: (Units=1/GPa)
#
#
# Indices 1 2 3 4 5 6 
#
# 1 0.022280 -0.006741 -0.024104 0.000000 0.000000 0.000000
# 2 -0.006741 0.012527 0.005695 0.000000 0.000000 0.000000
# 3 -0.024104 0.005695 0.054416 0.000000 0.000000 0.000000
# 4 0.000000 0.000000 0.000000 0.060376 0.000000 0.000000
# 5 0.000000 0.000000 0.000000 0.000000 0.030476 0.000000
# 6 0.000000 0.000000 0.000000 0.000000 0.000000 0.035141
#
#
# Mechanical properties :
#
#
# Convention : Reuss Voigt Hill
#
# Bulk Modulus (GPa) = 25.69181 43.52828 34.61004
# Shear Modulus (GPa) = 17.95387 25.57521 21.76454
#
# Velocity S-wave (km/s) = 2.73805 3.26793 3.01465
# Velocity P-wave (km/s) = 4.55235 5.69342 5.15456
#
# Compressibility (1/GPa) = 0.03892292
#
# Stress axis : x y z
#
# Youngs Moduli (GPa) = 44.88324 79.82538 18.37678
#
# Poissons Ratio (x) = 0.53813 0.44296
# Poissons Ratio (y) = 0.30257 -0.10466
# Poissons Ratio (z) = 1.08188 -0.45462
#
# Static dielectric constant tensor:
#      x y z
#    x 2.022820 0.000000 0.000000 
#    y 0.000000 2.012580 0.000000 
#    z 0.000000 0.000000 2.015930 
# 
# From -- ./inp_files/12781.got.cif
#   From: 2010.05.17/outbox.cif.g08.bks.cpg/sg43_7_cif.got.tgz:12781.got - 2010.06.03 19:21:55.
