data_PCOD9371269
_publ_section_title
;
Structure prediction by ZEFSAII (Michael W. Deem and Ramdas Pophale) SiO2 
 PCOD9371269
Probable space group: F D D 2
;
_chemical_formula_sum "Si O2"
_cell_formula_units_Z 120
_cell_length_a 26.845504
_cell_length_b 8.567443
_cell_length_c 24.503385
_cell_angle_alpha 90.000000
_cell_angle_beta 90.000000
_cell_angle_gamma 90.000000
_cell_volume 5635.713011
_symmetry_space_group_name_H-M "F D D 2"
_symmetry_group_IT_number 43
_symmetry_cell_setting 'orthorhombic'
loop_
_space_group_symop_operation_xyz
x,y,z
-x,-y,z
1/4-x,1/4+y,1/4+z
1/4+x,1/4-y,1/4+z
x,1/2+y,1/2+z
-x,1/2-y,1/2+z
1/4-x,3/4+y,3/4+z
1/4+x,3/4-y,3/4+z
1/2+x,y,1/2+z
1/2-x,-y,1/2+z
3/4-x,1/4+y,3/4+z
3/4+x,1/4-y,3/4+z
1/2+x,1/2+y,z
1/2-x,1/2-y,z
3/4-x,3/4+y,1/4+z
3/4+x,3/4-y,1/4+z
loop_
_atom_site_type_symbol
_atom_site_label
_atom_site_fract_x
_atom_site_fract_y
_atom_site_fract_z
Si Si1 0.115069 0.231555 0.063170
Si Si2 0.250000 0.250000 0.638783
Si Si3 0.896442 0.507469 0.131409
Si Si4 0.073634 0.662452 0.802658
Si Si5 0.475778 0.655683 0.709094
Si Si6 0.169642 0.945999 0.284710
Si Si7 0.584282 0.922592 0.956790
Si Si8 0.747048 0.425479 0.854898
O O1 0.138781 0.363735 0.102752
O O2 0.059646 0.202903 0.086515
O O3 0.147341 0.075279 0.064227
O O4 0.104205 0.308011 0.004095
O O5 0.211474 0.343786 0.600222
O O6 0.218922 0.138401 0.679574
O O7 0.926793 0.593590 0.178246
O O8 0.925896 0.442951 0.079383
O O9 0.871583 0.356670 0.157367
O O10 0.038529 0.710324 0.751434
O O11 0.117627 0.538626 0.789352
O O12 0.500000 0.500000 0.734771
O O13 0.508157 0.717559 0.657900
O O14 0.168903 0.848630 0.228997
O O15 0.215740 0.052273 0.303699
O O16 0.750000 0.250000 0.874803
#
# Coordination Sequence:
#
# PCOD9371269 Si02
#       8
#    16   8  16  16  16  16  16  16
#     4  10  23  42  70 101 135 174 237 286 343 420
#     4  12  28  44  66 104 150 182 228 294 374 420
#     4  10  21  42  70  98 131 179 228 281 341 419
#     4  12  26  44  66 105 140 181 231 292 354 423
#     4  11  24  40  65  98 134 177 227 276 348 408
#     4  11  23  43  75  99 136 183 237 284 344 430
#     4  11  23  45  70  95 138 190 227 274 357 425
#     4  11  22  40  70 105 131 169 232 296 332 403
#
# _framework density 21.29278
#
# number of rings (size 3 to 8) (size 9 to 14) (size 15 to 20)
#    0.000    1.067    5.333    0.800    0.933    5.333 
#    0.000    0.000    0.000    0.000    0.000    0.000 
#    0.000    0.000    0.000    0.000    0.000    0.000 
#
# Total GULP energy -167173.647865 kJ/mol
# GULP energy per Si atom -5572.454929 kJ/mol
# Density = 2.124432 g / cm^3
# Si number density = 21.292780 Si / 1000 Ang^3
#
#
#
# Elastic Constant Matrix: (Units=GPa)
#
#
# Indices 1 2 3 4 5 6 
#
# 1 77.0858 34.4742 39.2518 0.0000 0.0000 0.0000
# 2 34.4742 93.8465 44.6375 0.0000 0.0000 0.0000
# 3 39.2518 44.6375 92.5243 0.0000 0.0000 0.0000
# 4 0.0000 0.0000 0.0000 39.4623 0.0000 0.0000
# 5 0.0000 0.0000 0.0000 0.0000 32.6908 0.0000
# 6 0.0000 0.0000 0.0000 0.0000 0.0000 31.1496
#
#
#
# Elastic Compliance Matrix: (Units=1/GPa)
#
#
# Indices 1 2 3 4 5 6 
#
# 1 0.017515 -0.003763 -0.005615 0.000000 0.000000 0.000000
# 2 -0.003763 0.014638 -0.005465 0.000000 0.000000 0.000000
# 3 -0.005615 -0.005465 0.015827 0.000000 0.000000 0.000000
# 4 0.000000 0.000000 0.000000 0.025341 0.000000 0.000000
# 5 0.000000 0.000000 0.000000 0.000000 0.030590 0.000000
# 6 0.000000 0.000000 0.000000 0.000000 0.000000 0.032103
#
#
# Mechanical properties :
#
#
# Convention : Reuss Voigt Hill
#
# Bulk Modulus (GPa) = 54.66797 55.57595 55.12196
# Shear Modulus (GPa) = 29.10425 30.33341 29.71883
#
# Velocity S-wave (km/s) = 3.70112 3.77846 3.73999
# Velocity P-wave (km/s) = 6.63284 6.72259 6.67786
#
# Compressibility (1/GPa) = 0.01829225
#
# Stress axis : x y z
#
# Youngs Moduli (GPa) = 57.09536 68.31684 63.18491
#
# Poissons Ratio (x) = 0.25710 0.35476
# Poissons Ratio (y) = 0.21487 0.34532
# Poissons Ratio (z) = 0.32057 0.37337
#
# Static dielectric constant tensor:
#      x y z
#    x 1.837930 0.000000 0.000000 
#    y 0.000000 1.806080 0.000000 
#    z 0.000000 0.000000 1.802330 
# 
# From -- ./inp_files/22818.got.cif
#   From: 2010.05.17/outbox.cif.g08.bks.cpg/sg43_12_cif.got.tgz:22818.got - 2010.06.03 19:21:55.
