data_PCOD9371600
_publ_section_title
;
Structure prediction by ZEFSAII (Michael W. Deem and Ramdas Pophale) SiO2 
 PCOD9371600
Probable space group: F D D 2
;
_chemical_formula_sum "Si O2"
_cell_formula_units_Z 72
_cell_length_a 12.406456
_cell_length_b 29.193629
_cell_length_c 8.223707
_cell_angle_alpha 90.000000
_cell_angle_beta 90.000000
_cell_angle_gamma 90.000000
_cell_volume 2978.540110
_symmetry_space_group_name_H-M "F D D 2"
_symmetry_group_IT_number 43
_symmetry_cell_setting 'orthorhombic'
loop_
_space_group_symop_operation_xyz
x,y,z
-x,-y,z
1/4-x,1/4+y,1/4+z
1/4+x,1/4-y,1/4+z
x,1/2+y,1/2+z
-x,1/2-y,1/2+z
1/4-x,3/4+y,3/4+z
1/4+x,3/4-y,3/4+z
1/2+x,y,1/2+z
1/2-x,-y,1/2+z
3/4-x,1/4+y,3/4+z
3/4+x,1/4-y,3/4+z
1/2+x,1/2+y,z
1/2-x,1/2-y,z
3/4-x,3/4+y,1/4+z
3/4+x,3/4-y,1/4+z
loop_
_atom_site_type_symbol
_atom_site_label
_atom_site_fract_x
_atom_site_fract_y
_atom_site_fract_z
Si Si1 0.300104 0.312203 0.167500
Si Si2 0.750000 0.750000 0.671377
Si Si3 0.727169 0.095122 0.836019
Si Si4 0.084215 0.755189 0.910676
Si Si5 0.878503 0.193776 0.400921
O O1 0.399181 0.330554 0.059877
O O2 0.290660 0.352433 0.297846
O O3 0.352168 0.266786 0.255935
O O4 0.187167 0.313961 0.067474
O O5 0.848962 0.764758 0.561068
O O6 0.782135 0.709021 0.785263
O O7 0.666983 0.059081 0.712285
O O8 0.694132 0.089096 0.026963
O O9 0.964382 0.735100 0.916372
#
# Coordination Sequence:
#
# PCOD9371600 Si02
#       5
#    16   8  16  16  16
#     4  11  25  47  74 107 149 203 250 314 402 458
#     4  10  22  42  72 100 136 186 238 308 358 438
#     4  10  25  47  68 114 147 190 254 327 378 469
#     4  10  24  46  73 100 149 193 250 307 381 460
#     4  10  23  47  69 105 145 188 252 301 382 460
#
# _framework density 24.172913999999999
#
# number of rings (size 3 to 8) (size 9 to 14) (size 15 to 20)
#    0.000    1.778    0.000    1.333    6.222    9.778 
#   16.000    0.000    0.000    0.000    0.000    0.000 
#    0.000    0.000    0.000    0.000    0.000    0.000 
#
# Total GULP energy -100208.246745 kJ/mol
# GULP energy per Si atom -5567.124819 kJ/mol
# Density = 2.411790 g / cm^3
# Si number density = 24.172914 Si / 1000 Ang^3
#
#
#
# Elastic Constant Matrix: (Units=GPa)
#
#
# Indices 1 2 3 4 5 6 
#
# 1 119.1136 28.6225 31.5013 0.0000 0.0000 0.0000
# 2 28.6225 56.2090 60.1707 0.0000 0.0000 0.0000
# 3 31.5013 60.1707 105.4874 0.0000 0.0000 0.0000
# 4 0.0000 0.0000 0.0000 48.1395 0.0000 0.0000
# 5 0.0000 0.0000 0.0000 0.0000 38.1356 0.0000
# 6 0.0000 0.0000 0.0000 0.0000 0.0000 21.3248
#
#
#
# Elastic Compliance Matrix: (Units=1/GPa)
#
#
# Indices 1 2 3 4 5 6 
#
# 1 0.009568 -0.004657 -0.000201 0.000000 0.000000 0.000000
# 2 -0.004657 0.047956 -0.025963 0.000000 0.000000 0.000000
# 3 -0.000201 -0.025963 0.024349 0.000000 0.000000 0.000000
# 4 0.000000 0.000000 0.000000 0.020773 0.000000 0.000000
# 5 0.000000 0.000000 0.000000 0.000000 0.026222 0.000000
# 6 0.000000 0.000000 0.000000 0.000000 0.000000 0.046894
#
#
# Mechanical properties :
#
#
# Convention : Reuss Voigt Hill
#
# Bulk Modulus (GPa) = 49.43128 57.93322 53.68225
# Shear Modulus (GPa) = 20.47943 32.22100 26.35022
#
# Velocity S-wave (km/s) = 2.91384 3.65490 3.30521
# Velocity P-wave (km/s) = 5.64039 6.46756 6.06809
#
# Compressibility (1/GPa) = 0.02023010
#
# Stress axis : x y z
#
# Youngs Moduli (GPa) = 104.52051 20.85261 41.06870
#
# Poissons Ratio (x) = 0.09711 0.00824
# Poissons Ratio (y) = 0.48677 1.06629
# Poissons Ratio (z) = 0.02097 0.54141
#
# Static dielectric constant tensor:
#      x y z
#    x 2.054020 0.000000 0.000000 
#    y 0.000000 1.965650 0.000000 
#    z 0.000000 0.000000 1.985280 
# 
# From -- ./inp_files/2389.got.cif
#   From: 2010.05.17/outbox.cif.g08.bks.cpg/sg43_2_cif.got.tgz:2389.got - 2010.06.03 19:21:55.
