data_PCOD9371476
_publ_section_title
;
Structure prediction by ZEFSAII (Michael W. Deem and Ramdas Pophale) SiO2 
 PCOD9371476
Probable space group: F D D 2
;
_chemical_formula_sum "Si O2"
_cell_formula_units_Z 88
_cell_length_a 16.979480
_cell_length_b 10.178974
_cell_length_c 18.976297
_cell_angle_alpha 90.000000
_cell_angle_beta 90.000000
_cell_angle_gamma 90.000000
_cell_volume 3279.743347
_symmetry_space_group_name_H-M "F D D 2"
_symmetry_group_IT_number 43
_symmetry_cell_setting 'orthorhombic'
loop_
_space_group_symop_operation_xyz
x,y,z
-x,-y,z
1/4-x,1/4+y,1/4+z
1/4+x,1/4-y,1/4+z
x,1/2+y,1/2+z
-x,1/2-y,1/2+z
1/4-x,3/4+y,3/4+z
1/4+x,3/4-y,3/4+z
1/2+x,y,1/2+z
1/2-x,-y,1/2+z
3/4-x,1/4+y,3/4+z
3/4+x,1/4-y,3/4+z
1/2+x,1/2+y,z
1/2-x,1/2-y,z
3/4-x,3/4+y,1/4+z
3/4+x,3/4-y,1/4+z
loop_
_atom_site_type_symbol
_atom_site_label
_atom_site_fract_x
_atom_site_fract_y
_atom_site_fract_z
Si Si1 0.493238 0.734614 0.597040
Si Si2 0.884778 0.553376 0.594127
Si Si3 0.804716 0.882324 0.713782
Si Si4 0.863870 0.951914 0.564188
Si Si5 0.340615 0.286779 0.176491
Si Si6 0.250000 0.750000 0.054165
O O1 0.538687 0.865423 0.618268
O O2 0.475634 0.747523 0.513905
O O3 0.554634 0.614765 0.590278
O O4 0.414599 0.707296 0.641107
O O5 0.896436 0.525645 0.510597
O O6 0.859965 0.429869 0.641317
O O7 0.814613 0.659977 0.593696
O O8 0.750000 0.750000 0.711653
O O9 0.821243 0.948454 0.639571
O O10 0.875534 0.823622 0.762057
O O11 0.809888 0.851349 0.519071
O O12 0.250000 0.250000 0.158364
#
# Coordination Sequence:
#
# PCOD9371476 Si02
#       6
#    16  16  16  16  16   8
#     4  10  25  44  69 109 153 204 259 342 398 480
#     4  11  28  49  79 117 162 214 276 339 407 503
#     4  10  22  41  68 103 157 194 262 325 398 466
#     4  10  22  40  70 108 148 207 258 332 391 488
#     4  12  28  49  79 115 160 213 272 340 415 488
#     4  10  24  40  78 104 152 212 268 320 406 486
#
# _framework density 26.831368000000001
#
# number of rings (size 3 to 8) (size 9 to 14) (size 15 to 20)
#    0.000    1.455    0.909    1.636   10.182    4.364 
#    0.000    1.818    0.000    0.000    0.000    0.000 
#    0.000    0.000    0.000    0.000    0.000    0.000 
#
# Total GULP energy -122806.530787 kJ/mol
# GULP energy per Si atom -5582.115036 kJ/mol
# Density = 2.677030 g / cm^3
# Si number density = 26.831368 Si / 1000 Ang^3
#
#
#
# Elastic Constant Matrix: (Units=GPa)
#
#
# Indices 1 2 3 4 5 6 
#
# 1 176.7286 34.8479 44.6829 0.0000 0.0000 0.0000
# 2 34.8479 106.7481 22.0137 0.0000 0.0000 0.0000
# 3 44.6829 22.0137 201.9014 0.0000 0.0000 0.0000
# 4 0.0000 0.0000 0.0000 321.5820 0.0000 0.0000
# 5 0.0000 0.0000 0.0000 0.0000 11.0695 0.0000
# 6 0.0000 0.0000 0.0000 0.0000 0.0000 59.8508
#
#
#
# Elastic Compliance Matrix: (Units=1/GPa)
#
#
# Indices 1 2 3 4 5 6 
#
# 1 0.006320 -0.001816 -0.001201 0.000000 0.000000 0.000000
# 2 -0.001816 0.010105 -0.000700 0.000000 0.000000 0.000000
# 3 -0.001201 -0.000700 0.005295 0.000000 0.000000 0.000000
# 4 0.000000 0.000000 0.000000 0.003110 0.000000 0.000000
# 5 0.000000 0.000000 0.000000 0.000000 0.090338 0.000000
# 6 0.000000 0.000000 0.000000 0.000000 0.000000 0.016708
#
#
# Mechanical properties :
#
#
# Convention : Reuss Voigt Hill
#
# Bulk Modulus (GPa) = 69.99186 76.49633 73.24410
# Shear Modulus (GPa) = 34.70521 104.08938 69.39730
#
# Velocity S-wave (km/s) = 3.60037 6.23523 5.09121
# Velocity P-wave (km/s) = 6.58984 8.96713 7.86878
#
# Compressibility (1/GPa) = 0.01428738
#
# Stress axis : x y z
#
# Youngs Moduli (GPa) = 158.22857 98.96212 188.85875
#
# Poissons Ratio (x) = 0.17967 0.22677
# Poissons Ratio (y) = 0.28727 0.13219
# Poissons Ratio (z) = 0.18999 0.06927
#
# Static dielectric constant tensor:
#      x y z
#    x 2.280840 0.000000 0.000000 
#    y 0.000000 1.295810 0.000000 
#    z 0.000000 0.000000 2.209750 
# 
# From -- ./inp_files/17963.got.cif
#   From: 2010.05.17/outbox.cif.g08.bks.cpg/sg43_9_cif.got.tgz:17963.got - 2010.06.03 19:21:55.
