data_PCOD9371838
_publ_section_title
;
Structure prediction by ZEFSAII (Michael W. Deem and Ramdas Pophale) SiO2 
 PCOD9371838
Probable space group: F D D 2
;
_chemical_formula_sum "Si O2"
_cell_formula_units_Z 112
_cell_length_a 10.699062
_cell_length_b 27.828212
_cell_length_c 15.128680
_cell_angle_alpha 90.000000
_cell_angle_beta 90.000000
_cell_angle_gamma 90.000000
_cell_volume 4504.349121
_symmetry_space_group_name_H-M "F D D 2"
_symmetry_group_IT_number 43
_symmetry_cell_setting 'orthorhombic'
loop_
_space_group_symop_operation_xyz
x,y,z
-x,-y,z
1/4-x,1/4+y,1/4+z
1/4+x,1/4-y,1/4+z
x,1/2+y,1/2+z
-x,1/2-y,1/2+z
1/4-x,3/4+y,3/4+z
1/4+x,3/4-y,3/4+z
1/2+x,y,1/2+z
1/2-x,-y,1/2+z
3/4-x,1/4+y,3/4+z
3/4+x,1/4-y,3/4+z
1/2+x,1/2+y,z
1/2-x,1/2-y,z
3/4-x,3/4+y,1/4+z
3/4+x,3/4-y,1/4+z
loop_
_atom_site_type_symbol
_atom_site_label
_atom_site_fract_x
_atom_site_fract_y
_atom_site_fract_z
Si Si1 0.938769 0.928483 0.490850
Si Si2 0.316330 0.061018 0.296534
Si Si3 0.582980 0.721971 0.228949
Si Si4 0.206867 0.440803 0.968759
Si Si5 0.799628 0.534308 0.762955
Si Si6 0.698916 0.833884 0.942329
Si Si7 0.668033 0.150207 0.877785
O O1 0.812479 0.956841 0.472701
O O2 0.931482 0.907161 0.588724
O O3 0.935765 0.887436 0.415321
O O4 0.067626 0.956226 0.493200
O O5 0.383892 0.036260 0.381100
O O6 0.415638 0.063160 0.217588
O O7 0.269729 0.112397 0.337102
O O8 0.206434 0.024006 0.266858
O O9 0.570156 0.777416 0.256901
O O10 0.638034 0.685214 0.297632
O O11 0.210359 0.448525 0.863657
O O12 0.205284 0.384949 0.992052
O O13 0.667699 0.551044 0.719933
O O14 0.911948 0.561491 0.710596
#
# Coordination Sequence:
#
# PCOD9371838 Si02
#       7
#    16  16  16  16  16  16  16
#     4  11  21  39  72 102 132 181 247 305 352 424
#     4  10  27  42  67 105 147 189 244 301 371 450
#     4  10  23  42  64  99 144 190 232 299 371 438
#     4  11  22  38  67 106 134 176 243 297 361 431
#     4  11  23  45  72 102 141 187 244 303 364 437
#     4  12  22  43  71 106 141 181 242 311 359 427
#     4  11  22  45  71  98 147 189 236 302 376 434
#
# _framework density 24.864856
#
# number of rings (size 3 to 8) (size 9 to 14) (size 15 to 20)
#    0.000    1.143    4.286    0.857    4.000    3.429 
#    0.000    2.143    3.143    0.000    0.000    0.000 
#    0.000    0.000    0.000    0.000    0.000    0.000 
#
# Total GULP energy -156159.004082 kJ/mol
# GULP energy per Si atom -5577.107289 kJ/mol
# Density = 2.480826 g / cm^3
# Si number density = 24.864856 Si / 1000 Ang^3
#
#
#
# Elastic Constant Matrix: (Units=GPa)
#
#
# Indices 1 2 3 4 5 6 
#
# 1 69.8831 35.0653 26.3920 0.0000 0.0000 0.0000
# 2 35.0653 110.1000 21.4290 0.0000 0.0000 0.0000
# 3 26.3920 21.4290 76.5169 0.0000 0.0000 0.0000
# 4 0.0000 0.0000 0.0000 -19.4421 0.0000 0.0000
# 5 0.0000 0.0000 0.0000 0.0000 22.9573 0.0000
# 6 0.0000 0.0000 0.0000 0.0000 0.0000 33.5363
#
#
#
# Elastic Compliance Matrix: (Units=1/GPa)
#
#
# Indices 1 2 3 4 5 6 
#
# 1 0.018719 -0.004976 -0.005063 0.000000 0.000000 0.000000
# 2 -0.004976 0.010929 -0.001344 0.000000 0.000000 0.000000
# 3 -0.005063 -0.001344 0.015192 0.000000 0.000000 0.000000
# 4 0.000000 0.000000 0.000000 -0.051435 0.000000 0.000000
# 5 0.000000 0.000000 0.000000 0.000000 0.043559 0.000000
# 6 0.000000 0.000000 0.000000 0.000000 0.000000 0.029818
#
#
# Mechanical properties :
#
#
# Convention : Reuss Voigt Hill
#
# Bulk Modulus (GPa) = 45.30472 46.91917 46.11194
# Shear Modulus (GPa) = 51.59620 18.98456 35.29038
#
# Velocity S-wave (km/s) = 4.56023 2.76617 3.77143
# Velocity P-wave (km/s) = 6.78141 5.39563 6.12782
#
# Compressibility (1/GPa) = 0.02207276
#
# Stress axis : x y z
#
# Youngs Moduli (GPa) = 53.42305 91.49831 65.82522
#
# Poissons Ratio (x) = 0.45531 0.33326
# Poissons Ratio (y) = 0.26584 0.08849
# Poissons Ratio (z) = 0.27047 0.12301
#
# Static dielectric constant tensor:
#      x y z
#    x 2.109250 0.000000 0.000000 
#    y 0.000000 2.163950 0.000000 
#    z 0.000000 0.000000 1.944340 
# 
# From -- ./inp_files/9797.got.cif
#   From: 2010.05.17/outbox.cif.g08.bks.cpg/sg43_5_cif.got.tgz:9797.got - 2010.06.03 19:21:55.
