data_PCOD9371241
_publ_section_title
;
Structure prediction by ZEFSAII (Michael W. Deem and Ramdas Pophale) SiO2 
 PCOD9371241
Probable space group: F D D 2
;
_chemical_formula_sum "Si O2"
_cell_formula_units_Z 112
_cell_length_a 14.009443
_cell_length_b 15.820525
_cell_length_c 21.678047
_cell_angle_alpha 90.000000
_cell_angle_beta 90.000000
_cell_angle_gamma 90.000000
_cell_volume 4804.651736
_symmetry_space_group_name_H-M "F D D 2"
_symmetry_group_IT_number 43
_symmetry_cell_setting 'orthorhombic'
loop_
_space_group_symop_operation_xyz
x,y,z
-x,-y,z
1/4-x,1/4+y,1/4+z
1/4+x,1/4-y,1/4+z
x,1/2+y,1/2+z
-x,1/2-y,1/2+z
1/4-x,3/4+y,3/4+z
1/4+x,3/4-y,3/4+z
1/2+x,y,1/2+z
1/2-x,-y,1/2+z
3/4-x,1/4+y,3/4+z
3/4+x,1/4-y,3/4+z
1/2+x,1/2+y,z
1/2-x,1/2-y,z
3/4-x,3/4+y,1/4+z
3/4+x,3/4-y,1/4+z
loop_
_atom_site_type_symbol
_atom_site_label
_atom_site_fract_x
_atom_site_fract_y
_atom_site_fract_z
Si Si1 0.378891 0.809983 0.385590
Si Si2 0.909438 0.120468 0.007104
Si Si3 0.877070 0.571128 0.262907
Si Si4 0.419534 0.672838 0.203938
Si Si5 0.250000 0.750000 0.271998
Si Si6 0.792493 0.992880 0.060179
Si Si7 0.500000 0.500000 0.228692
Si Si8 0.408389 0.754197 0.643813
O O1 0.349704 0.769256 0.450965
O O2 0.318664 0.796468 0.322570
O O3 0.485228 0.778072 0.371236
O O4 0.368533 0.907554 0.403977
O O5 0.835501 0.198932 0.012759
O O6 0.016814 0.150164 0.008515
O O7 0.886043 0.050593 0.059494
O O8 0.888687 0.068609 0.943226
O O9 0.938981 0.654418 0.276732
O O10 0.880131 0.520407 0.326031
O O11 0.311984 0.692467 0.224836
O O12 0.473912 0.701481 0.266721
O O13 0.445357 0.575345 0.193688
O O14 0.477470 0.727276 0.152635
#
# Coordination Sequence:
#
# PCOD9371241 Si02
#       8
#    16  16  16  16   8  16   8  16
#     4  11  23  43  63 102 135 177 228 284 342 429
#     4  10  21  42  62  94 133 180 216 286 334 413
#     4  12  22  38  66  99 132 177 225 280 341 413
#     4   9  19  45  66  96 129 186 218 296 338 416
#     4  10  24  42  77  90 146 181 232 284 356 420
#     4   9  20  38  63  91 131 174 215 273 354 388
#     4   8  18  38  67  88 136 159 238 270 336 412
#     4  10  23  42  66  94 135 173 226 281 349 397
#
# _framework density 23.310742000000001
#
# number of rings (size 3 to 8) (size 9 to 14) (size 15 to 20)
#    0.000    2.286    2.857    1.286    2.000    2.857 
#   15.429    0.714    0.000    0.000    0.000    0.000 
#    0.000    0.000    0.000    0.000    0.000    0.000 
#
# Total GULP energy -156038.489919 kJ/mol
# GULP energy per Si atom -5572.803211 kJ/mol
# Density = 2.325769 g / cm^3
# Si number density = 23.310742 Si / 1000 Ang^3
#
#
#
# Elastic Constant Matrix: (Units=GPa)
#
#
# Indices 1 2 3 4 5 6 
#
# 1 99.4405 16.8278 30.6949 0.0000 0.0000 0.0000
# 2 16.8278 41.2812 33.7960 0.0000 0.0000 0.0000
# 3 30.6949 33.7960 117.3186 0.0000 0.0000 0.0000
# 4 0.0000 0.0000 0.0000 -0.7367 0.0000 0.0000
# 5 0.0000 0.0000 0.0000 0.0000 23.0269 0.0000
# 6 0.0000 0.0000 0.0000 0.0000 0.0000 29.8411
#
#
#
# Elastic Compliance Matrix: (Units=1/GPa)
#
#
# Indices 1 2 3 4 5 6 
#
# 1 0.011187 -0.002832 -0.002111 0.000000 0.000000 0.000000
# 2 -0.002832 0.032417 -0.008597 0.000000 0.000000 0.000000
# 3 -0.002111 -0.008597 0.011553 0.000000 0.000000 0.000000
# 4 0.000000 0.000000 0.000000 -1.357327 0.000000 0.000000
# 5 0.000000 0.000000 0.000000 0.000000 0.043428 0.000000
# 6 0.000000 0.000000 0.000000 0.000000 0.000000 0.033511
#
#
# Mechanical properties :
#
#
# Convention : Reuss Voigt Hill
#
# Bulk Modulus (GPa) = 35.61769 46.74196 41.17982
# Shear Modulus (GPa) = -4.20595 22.20768 9.00086
#
# Velocity S-wave (km/s) = -1.34470 3.08990 1.96714
# Velocity P-wave (km/s) = 3.59190 5.72933 4.78158
#
# Compressibility (1/GPa) = 0.02807594
#
# Stress axis : x y z
#
# Youngs Moduli (GPa) = 89.38812 30.84791 86.55876
#
# Poissons Ratio (x) = 0.08736 0.18274
# Poissons Ratio (y) = 0.25314 0.74419
# Poissons Ratio (z) = 0.18871 0.26521
#
# Static dielectric constant tensor:
#      x y z
#    x 1.990690 0.000000 0.000000 
#    y 0.000000 2.043690 0.000000 
#    z 0.000000 0.000000 1.935110 
# 
# From -- ./inp_files/21767.got.cif
#   From: 2010.05.17/outbox.cif.g08.bks.cpg/sg43_11_cif.got.tgz:21767.got - 2010.06.03 19:21:55.
