data_PCOD9371995
_publ_section_title
;
Structure prediction by ZEFSAII (Michael W. Deem and Ramdas Pophale) SiO2 
 PCOD9371995
Probable space group: F D D 2
;
_chemical_formula_sum "Si O2"
_cell_formula_units_Z 96
_cell_length_a 24.973490
_cell_length_b 16.562422
_cell_length_c 8.906414
_cell_angle_alpha 90.000000
_cell_angle_beta 90.000000
_cell_angle_gamma 90.000000
_cell_volume 3683.884142
_symmetry_space_group_name_H-M "F D D 2"
_symmetry_group_IT_number 43
_symmetry_cell_setting 'orthorhombic'
loop_
_space_group_symop_operation_xyz
x,y,z
-x,-y,z
1/4-x,1/4+y,1/4+z
1/4+x,1/4-y,1/4+z
x,1/2+y,1/2+z
-x,1/2-y,1/2+z
1/4-x,3/4+y,3/4+z
1/4+x,3/4-y,3/4+z
1/2+x,y,1/2+z
1/2-x,-y,1/2+z
3/4-x,1/4+y,3/4+z
3/4+x,1/4-y,3/4+z
1/2+x,1/2+y,z
1/2-x,1/2-y,z
3/4-x,3/4+y,1/4+z
3/4+x,3/4-y,1/4+z
loop_
_atom_site_type_symbol
_atom_site_label
_atom_site_fract_x
_atom_site_fract_y
_atom_site_fract_z
Si Si1 0.691289 0.209720 0.436470
Si Si2 0.788594 0.676118 0.425672
Si Si3 0.648861 0.093710 0.170851
Si Si4 0.590726 0.819079 0.388395
Si Si5 0.939837 0.842263 0.463955
Si Si6 0.467230 0.218826 0.669296
O O1 0.750000 0.250000 0.419284
O O2 0.670444 0.156151 0.294450
O O3 0.646468 0.278908 0.468208
O O4 0.688159 0.145653 0.571175
O O5 0.750000 0.750000 0.392740
O O6 0.846871 0.682655 0.355707
O O7 0.793341 0.665593 0.608314
O O8 0.761780 0.594096 0.370721
O O9 0.524587 0.191590 0.103106
O O10 0.696915 0.045862 0.087350
O O11 0.564967 0.732936 0.346856
O O12 0.582377 0.812295 0.566155
O O13 0.883476 0.855223 0.546129
#
# Coordination Sequence:
#
# PCOD9371995 Si02
#       6
#    16  16  16  16  16  16
#     4  12  31  50  81 117 169 215 271 348 423 484
#     4  12  26  43  84 113 152 216 268 332 417 486
#     4  12  25  49  76 120 162 208 276 339 402 504
#     4  10  26  52  74 113 161 202 280 341 401 497
#     4  10  23  49  71 109 157 204 262 334 391 496
#     4  10  25  45  76 108 152 209 262 327 407 485
#
# _framework density 26.059450999999999
#
# number of rings (size 3 to 8) (size 9 to 14) (size 15 to 20)
#    1.000    0.000    3.333    1.000    7.000    4.667 
#    0.000    0.000    0.000    0.000    0.000    0.000 
#    0.000    0.000    0.000    0.000    0.000    0.000 
#
# Total GULP energy -134172.283190 kJ/mol
# GULP energy per Si atom -5590.511800 kJ/mol
# Density = 2.600014 g / cm^3
# Si number density = 26.059451 Si / 1000 Ang^3
#
#
#
# Elastic Constant Matrix: (Units=GPa)
#
#
# Indices 1 2 3 4 5 6 
#
# 1 125.0459 62.8206 0.5875 0.0000 0.0000 0.0000
# 2 62.8206 130.0483 44.8056 0.0000 0.0000 0.0000
# 3 0.5875 44.8056 65.9809 0.0000 0.0000 0.0000
# 4 0.0000 0.0000 0.0000 63.3213 0.0000 0.0000
# 5 0.0000 0.0000 0.0000 0.0000 27.7335 0.0000
# 6 0.0000 0.0000 0.0000 0.0000 0.0000 59.4257
#
#
#
# Elastic Compliance Matrix: (Units=1/GPa)
#
#
# Indices 1 2 3 4 5 6 
#
# 1 0.011638 -0.007292 0.004848 0.000000 0.000000 0.000000
# 2 -0.007292 0.014607 -0.009854 0.000000 0.000000 0.000000
# 3 0.004848 -0.009854 0.021804 0.000000 0.000000 0.000000
# 4 0.000000 0.000000 0.000000 0.015792 0.000000 0.000000
# 5 0.000000 0.000000 0.000000 0.000000 0.036058 0.000000
# 6 0.000000 0.000000 0.000000 0.000000 0.000000 0.016828
#
#
# Mechanical properties :
#
#
# Convention : Reuss Voigt Hill
#
# Bulk Modulus (GPa) = 42.63867 59.72252 51.18059
# Shear Modulus (GPa) = 33.52547 44.28685 38.90616
#
# Velocity S-wave (km/s) = 3.59067 4.12692 3.86810
# Velocity P-wave (km/s) = 5.79553 6.75841 6.29541
#
# Compressibility (1/GPa) = 0.02345289
#
# Stress axis : x y z
#
# Youngs Moduli (GPa) = 85.92834 68.46065 45.86232
#
# Poissons Ratio (x) = 0.49921 -0.22234
# Poissons Ratio (y) = 0.62658 0.45194
# Poissons Ratio (z) = -0.41659 0.67462
#
# Static dielectric constant tensor:
#      x y z
#    x 2.085280 0.000000 0.000000 
#    y 0.000000 2.090530 0.000000 
#    z 0.000000 0.000000 2.100620 
# 
# From -- ./inp_files/7528.got.cif
#   From: 2010.05.17/outbox.cif.g08.bks.cpg/sg43_4_cif.got.tgz:7528.got - 2010.06.03 19:21:55.
