data_PCOD9371520
_publ_section_title
;
Structure prediction by ZEFSAII (Michael W. Deem and Ramdas Pophale) SiO2 
 PCOD9371520
Probable space group: F D D 2
;
_chemical_formula_sum "Si O2"
_cell_formula_units_Z 104
_cell_length_a 16.220702
_cell_length_b 26.169640
_cell_length_c 11.290172
_cell_angle_alpha 90.000000
_cell_angle_beta 90.000000
_cell_angle_gamma 90.000000
_cell_volume 4792.564343
_symmetry_space_group_name_H-M "F D D 2"
_symmetry_group_IT_number 43
_symmetry_cell_setting 'orthorhombic'
loop_
_space_group_symop_operation_xyz
x,y,z
-x,-y,z
1/4-x,1/4+y,1/4+z
1/4+x,1/4-y,1/4+z
x,1/2+y,1/2+z
-x,1/2-y,1/2+z
1/4-x,3/4+y,3/4+z
1/4+x,3/4-y,3/4+z
1/2+x,y,1/2+z
1/2-x,-y,1/2+z
3/4-x,1/4+y,3/4+z
3/4+x,1/4-y,3/4+z
1/2+x,1/2+y,z
1/2-x,1/2-y,z
3/4-x,3/4+y,1/4+z
3/4+x,3/4-y,1/4+z
loop_
_atom_site_type_symbol
_atom_site_label
_atom_site_fract_x
_atom_site_fract_y
_atom_site_fract_z
Si Si1 0.714794 0.081020 0.470860
Si Si2 0.899840 0.959180 0.792808
Si Si3 0.000000 0.000000 0.364209
Si Si4 0.944056 0.281428 0.814307
Si Si5 0.357977 0.070386 0.802066
Si Si6 0.120265 0.563443 0.026143
Si Si7 0.424807 0.067804 0.369711
O O1 0.918956 0.171698 0.594350
O O2 0.810610 0.075624 0.429032
O O3 0.682744 0.128858 0.548015
O O4 0.687666 0.028185 0.531753
O O5 0.915694 0.946221 0.657419
O O6 0.979307 0.948064 0.874153
O O7 0.882578 0.020030 0.799379
O O8 0.948317 0.045154 0.303337
O O9 0.069614 0.028118 0.439529
O O10 0.874199 0.313990 0.743658
O O11 0.033738 0.299938 0.774276
O O12 0.939490 0.286886 0.955171
O O13 0.360077 0.127198 0.750960
#
# Coordination Sequence:
#
# PCOD9371520 Si02
#       7
#    16  16   8  16  16  16  16
#     4  11  23  45  73  99 139 190 233 294 358 423
#     4  10  22  41  69 103 134 178 248 286 338 433
#     4  12  28  44  72 108 144 198 240 294 372 432
#     4  11  26  46  69 106 144 179 242 303 349 430
#     4  12  26  46  71 104 146 188 239 300 365 428
#     4  12  24  43  71 104 143 187 241 295 354 429
#     4  10  23  42  69 102 135 186 231 294 356 416
#
# _framework density 21.700284
#
# number of rings (size 3 to 8) (size 9 to 14) (size 15 to 20)
#    0.000    0.923    4.615    1.846    0.000    7.385 
#    0.000    0.000    0.000    0.000    0.000    0.000 
#    0.000    0.000    0.000    0.000    0.000    0.000 
#
# Total GULP energy -145026.760558 kJ/mol
# GULP energy per Si atom -5577.952329 kJ/mol
# Density = 2.165089 g / cm^3
# Si number density = 21.700284 Si / 1000 Ang^3
#
#
#
# Elastic Constant Matrix: (Units=GPa)
#
#
# Indices 1 2 3 4 5 6 
#
# 1 88.7596 3.3871 10.2611 0.0000 0.0000 0.0000
# 2 3.3871 94.8253 18.9689 0.0000 0.0000 0.0000
# 3 10.2611 18.9689 54.3834 0.0000 0.0000 0.0000
# 4 0.0000 0.0000 0.0000 -6.1297 0.0000 0.0000
# 5 0.0000 0.0000 0.0000 0.0000 21.3546 0.0000
# 6 0.0000 0.0000 0.0000 0.0000 0.0000 11.6218
#
#
#
# Elastic Compliance Matrix: (Units=1/GPa)
#
#
# Indices 1 2 3 4 5 6 
#
# 1 0.011518 0.000025 -0.002182 0.000000 0.000000 0.000000
# 2 0.000025 0.011337 -0.003959 0.000000 0.000000 0.000000
# 3 -0.002182 -0.003959 0.020181 0.000000 0.000000 0.000000
# 4 0.000000 0.000000 0.000000 -0.163141 0.000000 0.000000
# 5 0.000000 0.000000 0.000000 0.000000 0.046828 0.000000
# 6 0.000000 0.000000 0.000000 0.000000 0.000000 0.086045
#
#
# Mechanical properties :
#
#
# Convention : Reuss Voigt Hill
#
# Bulk Modulus (GPa) = 32.46403 33.68917 33.07660
# Shear Modulus (GPa) = 141.77601 19.05943 80.41772
#
# Velocity S-wave (km/s) = 8.09170 2.96683 6.09416
# Velocity P-wave (km/s) = 10.11402 5.22442 8.04947
#
# Compressibility (1/GPa) = 0.03080332
#
# Stress axis : x y z
#
# Youngs Moduli (GPa) = 86.82309 88.20857 49.55268
#
# Poissons Ratio (x) = -0.00221 0.10812
# Poissons Ratio (y) = -0.00218 0.19618
# Poissons Ratio (z) = 0.18944 0.34922
#
# Static dielectric constant tensor:
#      x y z
#    x 1.898850 0.000000 0.000000 
#    y 0.000000 1.847660 0.000000 
#    z 0.000000 0.000000 1.777370 
# 
# From -- ./inp_files/6781.got.cif
#   From: 2010.05.17/outbox.cif.g08.bks.cpg/sg43_4_cif.got.tgz:6781.got - 2010.06.03 19:21:55.
