data_PCOD9371197
_publ_section_title
;
Structure prediction by ZEFSAII (Michael W. Deem and Ramdas Pophale) SiO2 
 PCOD9371197
Probable space group: F D D 2
;
_chemical_formula_sum "Si O2"
_cell_formula_units_Z 96
_cell_length_a 19.124151
_cell_length_b 17.709747
_cell_length_c 10.443510
_cell_angle_alpha 90.000000
_cell_angle_beta 90.000000
_cell_angle_gamma 90.000000
_cell_volume 3537.048444
_symmetry_space_group_name_H-M "F D D 2"
_symmetry_group_IT_number 43
_symmetry_cell_setting 'orthorhombic'
loop_
_space_group_symop_operation_xyz
x,y,z
-x,-y,z
1/4-x,1/4+y,1/4+z
1/4+x,1/4-y,1/4+z
x,1/2+y,1/2+z
-x,1/2-y,1/2+z
1/4-x,3/4+y,3/4+z
1/4+x,3/4-y,3/4+z
1/2+x,y,1/2+z
1/2-x,-y,1/2+z
3/4-x,1/4+y,3/4+z
3/4+x,1/4-y,3/4+z
1/2+x,1/2+y,z
1/2-x,1/2-y,z
3/4-x,3/4+y,1/4+z
3/4+x,3/4-y,1/4+z
loop_
_atom_site_type_symbol
_atom_site_label
_atom_site_fract_x
_atom_site_fract_y
_atom_site_fract_z
Si Si1 0.585381 0.540814 0.381800
Si Si2 0.534908 0.880166 0.962556
Si Si3 0.519035 0.764235 0.735040
Si Si4 0.577719 0.570701 0.099578
Si Si5 0.928181 0.391814 0.327607
Si Si6 0.610046 0.458430 0.904848
O O1 0.567053 0.453079 0.390239
O O2 0.543338 0.588809 0.488783
O O3 0.667721 0.547834 0.400452
O O4 0.556265 0.568541 0.245543
O O5 0.526882 0.806621 0.872735
O O6 0.594085 0.872039 0.069806
O O7 0.536117 0.675511 0.752119
O O8 0.443830 0.778092 0.671622
O O9 0.647255 0.622463 0.115010
O O10 0.544965 0.609380 0.974288
O O11 0.585254 0.486024 0.045327
O O12 0.925293 0.482845 0.306072
#
# Coordination Sequence:
#
# PCOD9371197 Si02
#       6
#    16  16  16  16  16  16
#     4  10  23  39  66 101 132 180 239 295 341 426
#     4  10  21  41  64  98 136 180 235 290 346 429
#     4  11  22  41  71  95 135 192 230 288 358 427
#     4  10  22  44  66 102 137 181 227 300 352 424
#     4   9  23  40  66  97 140 175 234 285 354 426
#     4  10  23  43  69  98 140 176 236 283 360 420
#
# _framework density 27.141273999999999
#
# number of rings (size 3 to 8) (size 9 to 14) (size 15 to 20)
#    1.000    1.000    1.667    1.000    2.333    5.333 
#    0.000    4.167    0.000    0.000    0.000    0.000 
#    0.000    0.000    0.000    0.000    0.000    0.000 
#
# Total GULP energy -133706.981480 kJ/mol
# GULP energy per Si atom -5571.124228 kJ/mol
# Density = 2.707950 g / cm^3
# Si number density = 27.141274 Si / 1000 Ang^3
#
#
#
# Elastic Constant Matrix: (Units=GPa)
#
#
# Indices 1 2 3 4 5 6 
#
# 1 182.0253 1.3110 37.3665 0.0000 0.0000 0.0000
# 2 1.3110 110.4966 27.7153 0.0000 0.0000 0.0000
# 3 37.3665 27.7153 63.3470 0.0000 0.0000 0.0000
# 4 0.0000 0.0000 0.0000 42.1452 0.0000 0.0000
# 5 0.0000 0.0000 0.0000 0.0000 33.9288 0.0000
# 6 0.0000 0.0000 0.0000 0.0000 0.0000 29.8154
#
#
#
# Elastic Compliance Matrix: (Units=1/GPa)
#
#
# Indices 1 2 3 4 5 6 
#
# 1 0.006342 0.000969 -0.004165 0.000000 0.000000 0.000000
# 2 0.000969 0.010314 -0.005084 0.000000 0.000000 0.000000
# 3 -0.004165 -0.005084 0.020467 0.000000 0.000000 0.000000
# 4 0.000000 0.000000 0.000000 0.023727 0.000000 0.000000
# 5 0.000000 0.000000 0.000000 0.000000 0.029473 0.000000
# 6 0.000000 0.000000 0.000000 0.000000 0.000000 0.033540
#
#
# Mechanical properties :
#
#
# Convention : Reuss Voigt Hill
#
# Bulk Modulus (GPa) = 48.63048 54.29497 51.46273
# Shear Modulus (GPa) = 33.94950 40.47630 37.21290
#
# Velocity S-wave (km/s) = 3.54056 3.86595 3.70683
# Velocity P-wave (km/s) = 5.88817 6.32261 6.10925
#
# Compressibility (1/GPa) = 0.02056323
#
# Stress axis : x y z
#
# Youngs Moduli (GPa) = 157.68522 96.95732 48.85840
#
# Poissons Ratio (x) = -0.09399 0.20349
# Poissons Ratio (y) = -0.15286 0.24841
# Poissons Ratio (z) = 0.65675 0.49296
#
# Static dielectric constant tensor:
#      x y z
#    x 2.190050 0.000000 0.000000 
#    y 0.000000 2.208720 0.000000 
#    z 0.000000 0.000000 2.103150 
# 
# From -- ./inp_files/7075.got.cif
#   From: 2010.05.17/outbox.cif.g08.bks.cpg/sg43_4_cif.got.tgz:7075.got - 2010.06.03 19:21:55.
