data_PCOD9371347
_publ_section_title
;
Structure prediction by ZEFSAII (Michael W. Deem and Ramdas Pophale) SiO2 
 PCOD9371347
Probable space group: F D D 2
;
_chemical_formula_sum "Si O2"
_cell_formula_units_Z 96
_cell_length_a 11.860784
_cell_length_b 18.803439
_cell_length_c 17.276013
_cell_angle_alpha 90.000000
_cell_angle_beta 90.000000
_cell_angle_gamma 90.000000
_cell_volume 3852.957377
_symmetry_space_group_name_H-M "F D D 2"
_symmetry_group_IT_number 43
_symmetry_cell_setting 'orthorhombic'
loop_
_space_group_symop_operation_xyz
x,y,z
-x,-y,z
1/4-x,1/4+y,1/4+z
1/4+x,1/4-y,1/4+z
x,1/2+y,1/2+z
-x,1/2-y,1/2+z
1/4-x,3/4+y,3/4+z
1/4+x,3/4-y,3/4+z
1/2+x,y,1/2+z
1/2-x,-y,1/2+z
3/4-x,1/4+y,3/4+z
3/4+x,1/4-y,3/4+z
1/2+x,1/2+y,z
1/2-x,1/2-y,z
3/4-x,3/4+y,1/4+z
3/4+x,3/4-y,1/4+z
loop_
_atom_site_type_symbol
_atom_site_label
_atom_site_fract_x
_atom_site_fract_y
_atom_site_fract_z
Si Si1 0.430832 0.907333 0.809130
Si Si2 0.824633 0.545001 0.797294
Si Si3 0.264572 0.331870 0.191204
Si Si4 0.049999 0.353769 0.280901
Si Si5 0.186952 0.687452 0.290599
Si Si6 0.491014 0.231868 0.885540
O O1 0.549476 0.931978 0.772473
O O2 0.359403 0.867517 0.743623
O O3 0.473791 0.848836 0.869493
O O4 0.357019 0.972628 0.844368
O O5 0.758502 0.618330 0.816246
O O6 0.757560 0.511370 0.725802
O O7 0.250000 0.250000 0.207861
O O8 0.289892 0.340171 0.100346
O O9 0.144819 0.364398 0.217921
O O10 0.924326 0.342593 0.247359
O O11 0.071082 0.282205 0.332790
O O12 0.250000 0.750000 0.244073
O O13 0.371104 0.762015 0.356704
#
# Coordination Sequence:
#
# PCOD9371347 Si02
#       6
#    16  16  16  16  16  16
#     4  11  23  41  70 105 134 195 246 311 370 472
#     4  11  23  43  70 103 141 186 257 305 381 466
#     4  12  24  45  72 107 151 194 261 320 400 471
#     4  10  25  43  70 104 144 204 244 321 395 471
#     4  10  21  46  65 103 147 190 246 316 389 464
#     4  10  22  45  68  98 146 197 235 327 389 455
#
# _framework density 24.915927
#
# number of rings (size 3 to 8) (size 9 to 14) (size 15 to 20)
#    1.000    0.333    5.000    0.000    2.333    2.667 
#    3.000    0.000    0.000    0.000    0.000    0.000 
#    0.000    0.000    0.000    0.000    0.000    0.000 
#
# Total GULP energy -133767.287322 kJ/mol
# GULP energy per Si atom -5573.636972 kJ/mol
# Density = 2.485922 g / cm^3
# Si number density = 24.915927 Si / 1000 Ang^3
#
#
#
# Elastic Constant Matrix: (Units=GPa)
#
#
# Indices 1 2 3 4 5 6 
#
# 1 92.5100 40.7882 18.9834 0.0000 0.0000 0.0000
# 2 40.7882 189.7948 21.1797 0.0000 0.0000 0.0000
# 3 18.9834 21.1797 53.7439 0.0000 0.0000 0.0000
# 4 0.0000 0.0000 0.0000 25.3185 0.0000 0.0000
# 5 0.0000 0.0000 0.0000 0.0000 4.7434 0.0000
# 6 0.0000 0.0000 0.0000 0.0000 0.0000 46.3052
#
#
#
# Elastic Compliance Matrix: (Units=1/GPa)
#
#
# Indices 1 2 3 4 5 6 
#
# 1 0.012549 -0.002303 -0.003525 0.000000 0.000000 0.000000
# 2 -0.002303 0.005934 -0.001525 0.000000 0.000000 0.000000
# 3 -0.003525 -0.001525 0.020453 0.000000 0.000000 0.000000
# 4 0.000000 0.000000 0.000000 0.039497 0.000000 0.000000
# 5 0.000000 0.000000 0.000000 0.000000 0.210818 0.000000
# 6 0.000000 0.000000 0.000000 0.000000 0.000000 0.021596
#
#
# Mechanical properties :
#
#
# Convention : Reuss Voigt Hill
#
# Bulk Modulus (GPa) = 41.27236 55.32791 48.30013
# Shear Modulus (GPa) = 14.98675 32.27992 23.63334
#
# Velocity S-wave (km/s) = 2.45520 3.60329 3.08315
# Velocity P-wave (km/s) = 4.96366 6.29012 5.66584
#
# Compressibility (1/GPa) = 0.02422929
#
# Stress axis : x y z
#
# Youngs Moduli (GPa) = 79.69079 168.51923 48.89338
#
# Poissons Ratio (x) = 0.38817 0.17233
# Poissons Ratio (y) = 0.18356 0.07456
# Poissons Ratio (z) = 0.28088 0.25698
#
# Static dielectric constant tensor:
#      x y z
#    x 2.036600 0.000000 0.000000 
#    y 0.000000 2.100360 0.000000 
#    z 0.000000 0.000000 1.952230 
# 
# From -- ./inp_files/17129.got.cif
#   From: 2010.05.17/outbox.cif.g08.bks.cpg/sg43_9_cif.got.tgz:17129.got - 2010.06.03 19:21:55.
