data_PCOD9371334
_publ_section_title
;
Structure prediction by ZEFSAII (Michael W. Deem and Ramdas Pophale) SiO2 
 PCOD9371334
Probable space group: F D D 2
;
_chemical_formula_sum "Si O2"
_cell_formula_units_Z 128
_cell_length_a 20.210249
_cell_length_b 15.425672
_cell_length_c 17.573221
_cell_angle_alpha 90.000000
_cell_angle_beta 90.000000
_cell_angle_gamma 90.000000
_cell_volume 5478.568897
_symmetry_space_group_name_H-M "F D D 2"
_symmetry_group_IT_number 43
_symmetry_cell_setting 'orthorhombic'
loop_
_space_group_symop_operation_xyz
x,y,z
-x,-y,z
1/4-x,1/4+y,1/4+z
1/4+x,1/4-y,1/4+z
x,1/2+y,1/2+z
-x,1/2-y,1/2+z
1/4-x,3/4+y,3/4+z
1/4+x,3/4-y,3/4+z
1/2+x,y,1/2+z
1/2-x,-y,1/2+z
3/4-x,1/4+y,3/4+z
3/4+x,1/4-y,3/4+z
1/2+x,1/2+y,z
1/2-x,1/2-y,z
3/4-x,3/4+y,1/4+z
3/4+x,3/4-y,1/4+z
loop_
_atom_site_type_symbol
_atom_site_label
_atom_site_fract_x
_atom_site_fract_y
_atom_site_fract_z
Si Si1 0.131836 0.951201 0.900800
Si Si2 0.157893 0.257656 0.389813
Si Si3 0.329634 0.879134 0.008517
Si Si4 0.245969 0.497641 0.604591
Si Si5 0.032259 0.346089 0.216045
Si Si6 0.221220 0.640186 0.763532
Si Si7 0.097999 0.707327 0.481310
Si Si8 0.081222 0.734193 0.119947
O O1 0.169968 0.859443 0.896716
O O2 0.137026 0.991993 0.816416
O O3 0.166599 0.016461 0.957433
O O4 0.062522 0.919663 0.934645
O O5 0.184347 0.205565 0.460677
O O6 0.078516 0.240794 0.384860
O O7 0.192545 0.211061 0.320098
O O8 0.266457 0.921277 0.047939
O O9 0.373881 0.837217 0.076593
O O10 0.352897 0.952751 0.943338
O O11 0.247811 0.583452 0.550400
O O12 0.302517 0.494321 0.669772
O O13 0.079499 0.428188 0.203673
O O14 0.977004 0.324382 0.155135
O O15 0.297634 0.623034 0.745678
O O16 0.195025 0.551253 0.804807
#
# Coordination Sequence:
#
# PCOD9371334 Si02
#       8
#    16  16  16  16  16  16  16  16
#     4  12  21  39  67  99 129 172 222 283 345 398
#     4  11  22  41  67 100 136 164 222 287 342 406
#     4  10  23  43  72  97 134 182 225 278 352 411
#     4  11  23  46  64  94 140 174 220 287 341 409
#     4  11  24  43  66  97 139 176 229 285 350 417
#     4  11  21  39  66 100 134 170 218 283 345 412
#     4  12  23  42  67  96 132 184 222 278 350 412
#     4  10  21  45  68 100 135 179 224 294 348 420
#
# _framework density 23.363765999999998
#
# number of rings (size 3 to 8) (size 9 to 14) (size 15 to 20)
#    0.000    1.000    6.250    0.000    0.000    2.000 
#    4.500    9.375    0.000    0.000    0.000    0.000 
#    0.000    0.000    0.000    0.000    0.000    0.000 
#
# Total GULP energy -178355.180294 kJ/mol
# GULP energy per Si atom -5573.599384 kJ/mol
# Density = 2.331059 g / cm^3
# Si number density = 23.363766 Si / 1000 Ang^3
#
#
#
# Elastic Constant Matrix: (Units=GPa)
#
#
# Indices 1 2 3 4 5 6 
#
# 1 89.5625 14.0416 41.4270 0.0000 0.0000 0.0000
# 2 14.0416 42.3087 21.6530 0.0000 0.0000 0.0000
# 3 41.4270 21.6530 123.0730 0.0000 0.0000 0.0000
# 4 0.0000 0.0000 0.0000 41.6148 0.0000 0.0000
# 5 0.0000 0.0000 0.0000 0.0000 25.0540 0.0000
# 6 0.0000 0.0000 0.0000 0.0000 0.0000 36.9437
#
#
#
# Elastic Compliance Matrix: (Units=1/GPa)
#
#
# Indices 1 2 3 4 5 6 
#
# 1 0.013435 -0.002357 -0.004108 0.000000 0.000000 0.000000
# 2 -0.002357 0.026388 -0.003849 0.000000 0.000000 0.000000
# 3 -0.004108 -0.003849 0.010185 0.000000 0.000000 0.000000
# 4 0.000000 0.000000 0.000000 0.024030 0.000000 0.000000
# 5 0.000000 0.000000 0.000000 0.000000 0.039914 0.000000
# 6 0.000000 0.000000 0.000000 0.000000 0.000000 0.027068
#
#
# Mechanical properties :
#
#
# Convention : Reuss Voigt Hill
#
# Bulk Modulus (GPa) = 34.03581 45.46526 39.75053
# Shear Modulus (GPa) = 29.16463 32.57735 30.87099
#
# Velocity S-wave (km/s) = 3.53694 3.73816 3.63894
# Velocity P-wave (km/s) = 5.59279 6.17525 5.89122
#
# Compressibility (1/GPa) = 0.02938082
#
# Stress axis : x y z
#
# Youngs Moduli (GPa) = 74.43341 37.89603 98.18220
#
# Poissons Ratio (x) = 0.08931 0.40330
# Poissons Ratio (y) = 0.17541 0.37794
# Poissons Ratio (z) = 0.30574 0.14588
#
# Static dielectric constant tensor:
#      x y z
#    x 1.944450 0.000000 0.000000 
#    y 0.000000 1.937800 0.000000 
#    z 0.000000 0.000000 2.009600 
# 
# From -- ./inp_files/14901.got.cif
#   From: 2010.05.17/outbox.cif.g08.bks.cpg/sg43_8_cif.got.tgz:14901.got - 2010.06.03 19:21:55.
