data_PCOD9371985
_publ_section_title
;
Structure prediction by ZEFSAII (Michael W. Deem and Ramdas Pophale) SiO2 
 PCOD9371985
Probable space group: F D D 2
;
_chemical_formula_sum "Si O2"
_cell_formula_units_Z 120
_cell_length_a 18.451967
_cell_length_b 10.643669
_cell_length_c 25.543091
_cell_angle_alpha 90.000000
_cell_angle_beta 90.000000
_cell_angle_gamma 90.000000
_cell_volume 5016.576970
_symmetry_space_group_name_H-M "F D D 2"
_symmetry_group_IT_number 43
_symmetry_cell_setting 'orthorhombic'
loop_
_space_group_symop_operation_xyz
x,y,z
-x,-y,z
1/4-x,1/4+y,1/4+z
1/4+x,1/4-y,1/4+z
x,1/2+y,1/2+z
-x,1/2-y,1/2+z
1/4-x,3/4+y,3/4+z
1/4+x,3/4-y,3/4+z
1/2+x,y,1/2+z
1/2-x,-y,1/2+z
3/4-x,1/4+y,3/4+z
3/4+x,1/4-y,3/4+z
1/2+x,1/2+y,z
1/2-x,1/2-y,z
3/4-x,3/4+y,1/4+z
3/4+x,3/4-y,1/4+z
loop_
_atom_site_type_symbol
_atom_site_label
_atom_site_fract_x
_atom_site_fract_y
_atom_site_fract_z
Si Si1 0.105452 0.284820 0.926060
Si Si2 0.046150 0.627796 0.918519
Si Si3 0.250000 0.750000 0.709499
Si Si4 0.727658 0.883618 0.313343
Si Si5 0.806169 0.356756 0.984713
Si Si6 0.125444 0.739887 0.088399
Si Si7 0.301077 0.133688 0.014259
Si Si8 0.390778 0.960072 0.374138
O O1 0.131362 0.393069 0.886089
O O2 0.142017 0.156804 0.906353
O O3 0.018547 0.273117 0.920047
O O4 0.125250 0.333179 0.983452
O O5 0.079334 0.607077 0.861015
O O6 0.000000 0.500000 0.931965
O O7 0.117512 0.644938 0.953443
O O8 0.283659 0.653028 0.752383
O O9 0.313729 0.782201 0.668717
O O10 0.750000 0.750000 0.338268
O O11 0.797890 0.970542 0.317405
O O12 0.663277 0.947683 0.344472
O O13 0.750000 0.250000 0.965928
O O14 0.828630 0.321436 0.043215
O O15 0.776613 0.499238 0.991027
O O16 0.250000 0.250000 0.000834
O O17 0.314395 0.143483 0.076553
#
# Coordination Sequence:
#
# PCOD9371985 Si02
#       8
#    16  16   8  16  16  16  16  16
#     4  11  25  47  80 113 154 210 281 335 417 501
#     4  10  23  47  76 113 160 214 273 341 424 499
#     4  10  26  56  76 118 158 222 270 346 428 510
#     4  10  28  51  75 122 161 207 284 344 418 510
#     4  12  26  47  81 120 160 216 283 362 421 499
#     4  11  24  47  75 115 154 206 269 344 408 498
#     4  12  27  48  75 121 160 213 284 338 417 526
#     4  12  25  49  83 107 161 224 265 346 430 487
#
# _framework density 23.920691999999999
#
# number of rings (size 3 to 8) (size 9 to 14) (size 15 to 20)
#    0.400    0.533    4.667    2.000    5.600    2.667 
#    2.400    0.000    0.000    0.000    0.000    0.000 
#    0.000    0.000    0.000    0.000    0.000    0.000 
#
# Total GULP energy -167610.536032 kJ/mol
# GULP energy per Si atom -5587.017868 kJ/mol
# Density = 2.386625 g / cm^3
# Si number density = 23.920692 Si / 1000 Ang^3
#
#
#
# Elastic Constant Matrix: (Units=GPa)
#
#
# Indices 1 2 3 4 5 6 
#
# 1 111.9016 51.3178 53.0278 0.0000 0.0000 0.0000
# 2 51.3178 124.1380 38.4346 0.0000 0.0000 0.0000
# 3 53.0278 38.4346 147.3980 0.0000 0.0000 0.0000
# 4 0.0000 0.0000 0.0000 40.1343 0.0000 0.0000
# 5 0.0000 0.0000 0.0000 0.0000 38.2778 0.0000
# 6 0.0000 0.0000 0.0000 0.0000 0.0000 45.4302
#
#
#
# Elastic Compliance Matrix: (Units=1/GPa)
#
#
# Indices 1 2 3 4 5 6 
#
# 1 0.012421 -0.004081 -0.003405 0.000000 0.000000 0.000000
# 2 -0.004081 0.010104 -0.001166 0.000000 0.000000 0.000000
# 3 -0.003405 -0.001166 0.008313 0.000000 0.000000 0.000000
# 4 0.000000 0.000000 0.000000 0.024916 0.000000 0.000000
# 5 0.000000 0.000000 0.000000 0.000000 0.026125 0.000000
# 6 0.000000 0.000000 0.000000 0.000000 0.000000 0.022012
#
#
# Mechanical properties :
#
#
# Convention : Reuss Voigt Hill
#
# Bulk Modulus (GPa) = 73.88467 74.33309 74.10888
# Shear Modulus (GPa) = 39.77525 40.81227 40.29376
#
# Velocity S-wave (km/s) = 4.08216 4.13504 4.10869
# Velocity P-wave (km/s) = 7.29199 7.34441 7.31825
#
# Compressibility (1/GPa) = 0.01353461
#
# Stress axis : x y z
#
# Youngs Moduli (GPa) = 80.50760 98.97401 120.28854
#
# Poissons Ratio (x) = 0.40389 0.40953
# Poissons Ratio (y) = 0.32853 0.14031
# Poissons Ratio (z) = 0.27409 0.11545
#
# Static dielectric constant tensor:
#      x y z
#    x 1.939190 0.000000 0.000000 
#    y 0.000000 1.961970 0.000000 
#    z 0.000000 0.000000 1.887460 
# 
# From -- ./inp_files/26073.got.cif
#   From: 2010.05.17/outbox.cif.g08.bks.cpg/sg43_14_cif.got.tgz:26073.got - 2010.06.03 19:21:55.
