data_PCOD9371915
_publ_section_title
;
Structure prediction by ZEFSAII (Michael W. Deem and Ramdas Pophale) SiO2 
 PCOD9371915
Probable space group: F D D 2
;
_chemical_formula_sum "Si O2"
_cell_formula_units_Z 88
_cell_length_a 10.578241
_cell_length_b 22.465858
_cell_length_c 14.134918
_cell_angle_alpha 90.000000
_cell_angle_beta 90.000000
_cell_angle_gamma 90.000000
_cell_volume 3359.152806
_symmetry_space_group_name_H-M "F D D 2"
_symmetry_group_IT_number 43
_symmetry_cell_setting 'orthorhombic'
loop_
_space_group_symop_operation_xyz
x,y,z
-x,-y,z
1/4-x,1/4+y,1/4+z
1/4+x,1/4-y,1/4+z
x,1/2+y,1/2+z
-x,1/2-y,1/2+z
1/4-x,3/4+y,3/4+z
1/4+x,3/4-y,3/4+z
1/2+x,y,1/2+z
1/2-x,-y,1/2+z
3/4-x,1/4+y,3/4+z
3/4+x,1/4-y,3/4+z
1/2+x,1/2+y,z
1/2-x,1/2-y,z
3/4-x,3/4+y,1/4+z
3/4+x,3/4-y,1/4+z
loop_
_atom_site_type_symbol
_atom_site_label
_atom_site_fract_x
_atom_site_fract_y
_atom_site_fract_z
Si Si1 0.570626 0.595744 0.345360
Si Si2 0.513463 0.779986 0.336649
Si Si3 0.039971 0.582884 0.296516
Si Si4 0.750000 0.750000 0.876292
Si Si5 0.827011 0.054321 0.936529
Si Si6 0.814395 0.052765 0.257245
O O1 0.554494 0.643116 0.430807
O O2 0.065357 0.445856 0.360431
O O3 0.592982 0.636724 0.252516
O O4 0.439970 0.561794 0.319759
O O5 0.485720 0.848033 0.316076
O O6 0.377796 0.748853 0.319996
O O7 0.596807 0.750307 0.257205
O O8 0.559784 0.756294 0.439562
O O9 0.183850 0.562429 0.313346
O O10 0.005399 0.558388 0.192221
O O11 0.692954 0.058867 0.880481
#
# Coordination Sequence:
#
# PCOD9371915 Si02
#       6
#    16  16  16   8  16  16
#     4   9  20  43  69 102 147 187 238 293 351 430
#     4  10  24  47  73 104 147 192 240 296 356 436
#     4  11  25  44  77 104 141 186 239 303 353 425
#     4  10  26  48  74 106 142 190 244 286 366 442
#     4  10  23  44  72 106 143 188 238 294 365 413
#     4   9  21  43  72 103 141 193 241 290 357 428
#
# _framework density 26.197078999999999
#
# number of rings (size 3 to 8) (size 9 to 14) (size 15 to 20)
#    0.000    2.182    0.000    0.000   12.727    1.455 
#    3.273   12.727    0.000    0.000    0.000    0.000 
#    0.000    0.000    0.000    0.000    0.000    0.000 
#
# Total GULP energy -123293.853905 kJ/mol
# GULP energy per Si atom -5604.266087 kJ/mol
# Density = 2.613745 g / cm^3
# Si number density = 26.197079 Si / 1000 Ang^3
#
#
#
# Elastic Constant Matrix: (Units=GPa)
#
#
# Indices 1 2 3 4 5 6 
#
# 1 180.7229 63.9800 74.4095 0.0000 0.0000 0.0000
# 2 63.9800 177.3978 58.5915 0.0000 0.0000 0.0000
# 3 74.4095 58.5915 107.4291 0.0000 0.0000 0.0000
# 4 0.0000 0.0000 0.0000 16.9280 0.0000 0.0000
# 5 0.0000 0.0000 0.0000 0.0000 30.0976 0.0000
# 6 0.0000 0.0000 0.0000 0.0000 0.0000 36.0586
#
#
#
# Elastic Compliance Matrix: (Units=1/GPa)
#
#
# Indices 1 2 3 4 5 6 
#
# 1 0.007973 -0.001283 -0.004823 0.000000 0.000000 0.000000
# 2 -0.001283 0.007082 -0.002974 0.000000 0.000000 0.000000
# 3 -0.004823 -0.002974 0.014271 0.000000 0.000000 0.000000
# 4 0.000000 0.000000 0.000000 0.059074 0.000000 0.000000
# 5 0.000000 0.000000 0.000000 0.000000 0.033225 0.000000
# 6 0.000000 0.000000 0.000000 0.000000 0.000000 0.027733
#
#
# Mechanical properties :
#
#
# Convention : Reuss Voigt Hill
#
# Bulk Modulus (GPa) = 89.55085 95.50131 92.52608
# Shear Modulus (GPa) = 29.19890 34.52143 31.86016
#
# Velocity S-wave (km/s) = 3.34216 3.63403 3.49115
# Velocity P-wave (km/s) = 7.01079 7.35815 7.18657
#
# Compressibility (1/GPa) = 0.01116684
#
# Stress axis : x y z
#
# Youngs Moduli (GPa) = 125.42007 141.20457 70.07171
#
# Poissons Ratio (x) = 0.18112 0.33796
# Poissons Ratio (y) = 0.16087 0.20840
# Poissons Ratio (z) = 0.60490 0.41995
#
# Static dielectric constant tensor:
#      x y z
#    x 2.012160 0.000000 0.000000 
#    y 0.000000 2.153320 0.000000 
#    z 0.000000 0.000000 2.004760 
# 
# From -- ./inp_files/7126.got.cif
#   From: 2010.05.17/outbox.cif.g08.bks.cpg/sg43_4_cif.got.tgz:7126.got - 2010.06.03 19:21:55.
