data_PCOD9371453
_publ_section_title
;
Structure prediction by ZEFSAII (Michael W. Deem and Ramdas Pophale) SiO2 
 PCOD9371453
Probable space group: F D D 2
;
_chemical_formula_sum "Si O2"
_cell_formula_units_Z 104
_cell_length_a 9.104020
_cell_length_b 31.304604
_cell_length_c 18.509251
_cell_angle_alpha 90.000000
_cell_angle_beta 90.000000
_cell_angle_gamma 90.000000
_cell_volume 5275.094721
_symmetry_space_group_name_H-M "F D D 2"
_symmetry_group_IT_number 43
_symmetry_cell_setting 'orthorhombic'
loop_
_space_group_symop_operation_xyz
x,y,z
-x,-y,z
1/4-x,1/4+y,1/4+z
1/4+x,1/4-y,1/4+z
x,1/2+y,1/2+z
-x,1/2-y,1/2+z
1/4-x,3/4+y,3/4+z
1/4+x,3/4-y,3/4+z
1/2+x,y,1/2+z
1/2-x,-y,1/2+z
3/4-x,1/4+y,3/4+z
3/4+x,1/4-y,3/4+z
1/2+x,1/2+y,z
1/2-x,1/2-y,z
3/4-x,3/4+y,1/4+z
3/4+x,3/4-y,1/4+z
loop_
_atom_site_type_symbol
_atom_site_label
_atom_site_fract_x
_atom_site_fract_y
_atom_site_fract_z
Si Si1 0.806580 0.392790 0.308100
Si Si2 0.074399 0.957099 0.313899
Si Si3 0.602034 0.601190 0.226574
Si Si4 0.742774 0.199466 0.838988
Si Si5 0.345210 0.390341 0.977398
Si Si6 0.500000 0.500000 0.454104
Si Si7 0.937581 0.676914 0.775374
O O1 0.722722 0.436209 0.283058
O O2 0.837763 0.400026 0.392547
O O3 0.691644 0.353483 0.304108
O O4 0.946781 0.378624 0.261699
O O5 0.957847 0.919621 0.300251
O O6 0.087044 0.969019 0.398292
O O7 0.000000 0.000000 0.281781
O O8 0.553661 0.571073 0.161910
O O9 0.774336 0.605956 0.232717
O O10 0.521619 0.646966 0.216414
O O11 0.750000 0.250000 0.838691
O O12 0.842991 0.179641 0.774918
O O13 0.572355 0.186442 0.828710
O O14 0.388354 0.470184 0.497667
#
# Coordination Sequence:
#
# PCOD9371453 Si02
#       7
#    16  16  16  16  16   8  16
#     4  11  23  42  68  98 134 176 227 284 352 407
#     4   9  22  38  69  89 134 169 226 276 338 415
#     4  10  22  44  63  94 129 188 225 271 353 419
#     4  11  25  41  65  95 137 181 224 286 340 417
#     4  11  24  42  68  97 134 176 231 285 337 422
#     4  10  22  40  66 102 130 168 236 290 336 416
#     4  10  25  38  70  91 132 175 230 275 348 412
#
# _framework density 19.715285000000002
#
# number of rings (size 3 to 8) (size 9 to 14) (size 15 to 20)
#    0.462    1.231    1.538    1.385   15.077    0.000 
#    0.000    0.769    0.000    0.000    0.000    0.000 
#    0.000    0.000    0.000    0.000    0.000    0.000 
#
# Total GULP energy -144887.116102 kJ/mol
# GULP energy per Si atom -5572.581389 kJ/mol
# Density = 1.967041 g / cm^3
# Si number density = 19.715285 Si / 1000 Ang^3
#
#
#
# Elastic Constant Matrix: (Units=GPa)
#
#
# Indices 1 2 3 4 5 6 
#
# 1 125.4842 61.1877 12.6149 0.0000 0.0000 0.0000
# 2 61.1877 113.2823 28.8684 0.0000 0.0000 0.0000
# 3 12.6149 28.8684 52.1846 0.0000 0.0000 0.0000
# 4 0.0000 0.0000 0.0000 31.1549 0.0000 0.0000
# 5 0.0000 0.0000 0.0000 0.0000 6.5465 0.0000
# 6 0.0000 0.0000 0.0000 0.0000 0.0000 35.0984
#
#
#
# Elastic Compliance Matrix: (Units=1/GPa)
#
#
# Indices 1 2 3 4 5 6 
#
# 1 0.010842 -0.006039 0.000720 0.000000 0.000000 0.000000
# 2 -0.006039 0.013641 -0.006086 0.000000 0.000000 0.000000
# 3 0.000720 -0.006086 0.022355 0.000000 0.000000 0.000000
# 4 0.000000 0.000000 0.000000 0.032098 0.000000 0.000000
# 5 0.000000 0.000000 0.000000 0.000000 0.152753 0.000000
# 6 0.000000 0.000000 0.000000 0.000000 0.000000 0.028491
#
#
# Mechanical properties :
#
#
# Convention : Reuss Voigt Hill
#
# Bulk Modulus (GPa) = 41.61964 55.14367 48.38166
# Shear Modulus (GPa) = 17.18219 27.11197 22.14708
#
# Velocity S-wave (km/s) = 2.95535 3.71236 3.35527
# Velocity P-wave (km/s) = 5.72727 6.81221 6.29316
#
# Compressibility (1/GPa) = 0.02402712
#
# Stress axis : x y z
#
# Youngs Moduli (GPa) = 92.23677 73.31076 44.73196
#
# Poissons Ratio (x) = 0.44276 -0.03222
# Poissons Ratio (y) = 0.55706 0.27224
# Poissons Ratio (z) = -0.06643 0.44617
#
# Static dielectric constant tensor:
#      x y z
#    x 1.703400 0.000000 0.000000 
#    y 0.000000 1.713060 0.000000 
#    z 0.000000 0.000000 1.721070 
# 
# From -- ./inp_files/16642.got.cif
#   From: 2010.05.17/outbox.cif.g08.bks.cpg/sg43_9_cif.got.tgz:16642.got - 2010.06.03 19:21:55.
