data_PCOD9371775
_publ_section_title
;
Structure prediction by ZEFSAII (Michael W. Deem and Ramdas Pophale) SiO2 
 PCOD9371775
Probable space group: F D D 2
;
_chemical_formula_sum "Si O2"
_cell_formula_units_Z 96
_cell_length_a 20.739147
_cell_length_b 22.033715
_cell_length_c 9.447836
_cell_angle_alpha 90.000000
_cell_angle_beta 90.000000
_cell_angle_gamma 90.000000
_cell_volume 4317.287431
_symmetry_space_group_name_H-M "F D D 2"
_symmetry_group_IT_number 43
_symmetry_cell_setting 'orthorhombic'
loop_
_space_group_symop_operation_xyz
x,y,z
-x,-y,z
1/4-x,1/4+y,1/4+z
1/4+x,1/4-y,1/4+z
x,1/2+y,1/2+z
-x,1/2-y,1/2+z
1/4-x,3/4+y,3/4+z
1/4+x,3/4-y,3/4+z
1/2+x,y,1/2+z
1/2-x,-y,1/2+z
3/4-x,1/4+y,3/4+z
3/4+x,1/4-y,3/4+z
1/2+x,1/2+y,z
1/2-x,1/2-y,z
3/4-x,3/4+y,1/4+z
3/4+x,3/4-y,1/4+z
loop_
_atom_site_type_symbol
_atom_site_label
_atom_site_fract_x
_atom_site_fract_y
_atom_site_fract_z
Si Si1 0.321503 0.482894 0.224940
Si Si2 0.935393 0.966773 0.447810
Si Si3 0.316902 0.240147 0.253387
Si Si4 0.711251 0.395246 0.655611
Si Si5 0.985934 0.852260 0.586081
Si Si6 0.834876 0.301771 0.460631
O O1 0.373059 0.475019 0.351251
O O2 0.367618 0.498912 0.091346
O O3 0.531520 0.328446 0.943476
O O4 0.270817 0.535975 0.266896
O O5 0.925410 0.996886 0.602032
O O6 0.951208 0.896942 0.476346
O O7 0.000000 0.000000 0.393510
O O8 0.250000 0.250000 0.337361
O O9 0.310782 0.170918 0.203401
O O10 0.311429 0.283249 0.115696
O O11 0.700801 0.401411 0.487455
O O12 0.659861 0.438249 0.728720
O O13 0.050265 0.889702 0.636446
#
# Coordination Sequence:
#
# PCOD9371775 Si02
#       6
#    16  16  16  16  16  16
#     4  12  29  45  74 118 144 190 254 318 374 435
#     4  10  22  47  72 103 144 195 241 305 372 439
#     4  12  26  48  75 109 152 199 248 310 383 449
#     4  12  26  45  75 106 152 193 250 308 370 457
#     4  11  24  47  72 106 146 196 249 298 370 453
#     4  11  23  46  78 102 143 203 245 295 378 453
#
# _framework density 22.236186
#
# number of rings (size 3 to 8) (size 9 to 14) (size 15 to 20)
#    0.000    0.667    5.000    2.000    7.000    0.000 
#    0.000    0.000    0.000    0.000    0.000    0.000 
#    0.000    0.000    0.000    0.000    0.000    0.000 
#
# Total GULP energy -133937.361517 kJ/mol
# GULP energy per Si atom -5580.723397 kJ/mol
# Density = 2.218558 g / cm^3
# Si number density = 22.236186 Si / 1000 Ang^3
#
#
#
# Elastic Constant Matrix: (Units=GPa)
#
#
# Indices 1 2 3 4 5 6 
#
# 1 111.2920 30.9760 24.7255 -0.0001 0.0000 0.0000
# 2 30.9760 118.3452 30.1132 -0.0001 0.0001 0.0001
# 3 24.7255 30.1132 98.8491 -0.0004 0.0003 0.0002
# 4 -0.0001 -0.0001 -0.0004 13.6217 0.0001 0.0001
# 5 0.0000 0.0001 0.0003 0.0001 6.4725 -0.0001
# 6 0.0000 0.0001 0.0002 0.0001 -0.0001 34.1456
#
#
#
# Elastic Compliance Matrix: (Units=1/GPa)
#
#
# Indices 1 2 3 4 5 6 
#
# 1 0.009993 -0.002146 -0.001846 0.000000 0.000000 0.000000
# 2 -0.002146 0.009621 -0.002394 0.000000 0.000000 0.000000
# 3 -0.001846 -0.002394 0.011307 0.000000 0.000000 0.000000
# 4 0.000000 0.000000 0.000000 0.073412 -0.000001 0.000000
# 5 0.000000 0.000000 0.000000 -0.000001 0.154499 0.000000
# 6 0.000000 0.000000 0.000000 0.000000 0.000000 0.029286
#
#
# Mechanical properties :
#
#
# Convention : Reuss Voigt Hill
#
# Bulk Modulus (GPa) = 55.09826 55.56840 55.33333
# Shear Modulus (GPa) = 16.28982 27.02607 21.65795
#
# Velocity S-wave (km/s) = 2.70956 3.49005 3.12428
# Velocity P-wave (km/s) = 5.88400 6.42534 6.16062
#
# Compressibility (1/GPa) = 0.01814939
#
# Stress axis : x y z
#
# Youngs Moduli (GPa) = 100.07297 103.94257 88.43718
#
# Poissons Ratio (x) = 0.22305 0.16324
# Poissons Ratio (y) = 0.21474 0.21173
# Poissons Ratio (z) = 0.18472 0.24885
#
# Static dielectric constant tensor:
#      x y z
#    x 1.878880 0.000000 0.000000 
#    y 0.000000 1.822080 0.000000 
#    z 0.000000 0.000000 1.787580 
# 
# From -- ./inp_files/4367.got.cif
#   From: 2010.05.17/outbox.cif.g08.bks.cpg/sg43_3_cif.got.tgz:4367.got - 2010.06.03 19:21:55.
