data_PCOD9371212
_publ_section_title
;
Structure prediction by ZEFSAII (Michael W. Deem and Ramdas Pophale) SiO2 
 PCOD9371212
Probable space group: F D D 2
;
_chemical_formula_sum "Si O2"
_cell_formula_units_Z 88
_cell_length_a 21.250923
_cell_length_b 11.221374
_cell_length_c 17.431484
_cell_angle_alpha 90.000000
_cell_angle_beta 90.000000
_cell_angle_gamma 90.000000
_cell_volume 4156.791072
_symmetry_space_group_name_H-M "F D D 2"
_symmetry_group_IT_number 43
_symmetry_cell_setting 'orthorhombic'
loop_
_space_group_symop_operation_xyz
x,y,z
-x,-y,z
1/4-x,1/4+y,1/4+z
1/4+x,1/4-y,1/4+z
x,1/2+y,1/2+z
-x,1/2-y,1/2+z
1/4-x,3/4+y,3/4+z
1/4+x,3/4-y,3/4+z
1/2+x,y,1/2+z
1/2-x,-y,1/2+z
3/4-x,1/4+y,3/4+z
3/4+x,1/4-y,3/4+z
1/2+x,1/2+y,z
1/2-x,1/2-y,z
3/4-x,3/4+y,1/4+z
3/4+x,3/4-y,1/4+z
loop_
_atom_site_type_symbol
_atom_site_label
_atom_site_fract_x
_atom_site_fract_y
_atom_site_fract_z
Si Si1 0.401336 0.305021 0.348650
Si Si2 0.500544 0.357507 0.794852
Si Si3 0.750000 0.250000 0.138241
Si Si4 0.560296 0.267177 0.441540
Si Si5 0.192515 0.836091 0.398384
Si Si6 0.813311 0.977717 0.269851
O O1 0.430152 0.196728 0.300763
O O2 0.451990 0.414366 0.343588
O O3 0.404890 0.259737 0.437207
O O4 0.339700 0.360263 0.311004
O O5 0.500000 0.500000 0.802219
O O6 0.462228 0.299012 0.864261
O O7 0.468983 0.326848 0.714114
O O8 0.708448 0.157225 0.186411
O O9 0.635148 0.265835 0.438230
O O10 0.512094 0.219160 0.505501
O O11 0.250000 0.750000 0.377699
O O12 0.172267 0.911474 0.325481
#
# Coordination Sequence:
#
# PCOD9371212 Si02
#       6
#    16  16   8  16  16  16
#     4  10  21  41  67  97 142 181 233 297 360 427
#     4   9  22  44  61  92 136 186 220 287 352 424
#     4   8  16  34  58  96 124 178 204 292 344 388
#     4  10  22  39  66  97 141 174 233 294 349 422
#     4  11  24  38  66 102 133 183 233 285 357 423
#     4  10  23  38  71 106 137 184 236 302 358 427
#
# _framework density 21.170176000000001
#
# number of rings (size 3 to 8) (size 9 to 14) (size 15 to 20)
#    0.000    2.545    1.818    0.000   10.182    0.000 
#   13.091    0.000    8.000    0.000    0.000    0.000 
#    0.000    0.000    0.000    0.000    0.000    0.000 
#
# Total GULP energy -122631.272362 kJ/mol
# GULP energy per Si atom -5574.148744 kJ/mol
# Density = 2.112199 g / cm^3
# Si number density = 21.170176 Si / 1000 Ang^3
#
#
#
# Elastic Constant Matrix: (Units=GPa)
#
#
# Indices 1 2 3 4 5 6 
#
# 1 123.2636 39.1688 36.1008 0.0000 0.0000 0.0000
# 2 39.1688 79.6600 24.7125 0.0000 0.0000 0.0000
# 3 36.1008 24.7125 100.9826 0.0000 0.0000 0.0000
# 4 0.0000 0.0000 0.0000 24.9021 0.0000 0.0000
# 5 0.0000 0.0000 0.0000 0.0000 8.4443 0.0000
# 6 0.0000 0.0000 0.0000 0.0000 0.0000 35.6230
#
#
#
# Elastic Compliance Matrix: (Units=1/GPa)
#
#
# Indices 1 2 3 4 5 6 
#
# 1 0.010219 -0.004211 -0.002623 0.000000 0.000000 0.000000
# 2 -0.004211 0.015320 -0.002244 0.000000 0.000000 0.000000
# 3 -0.002623 -0.002244 0.011389 0.000000 0.000000 0.000000
# 4 0.000000 0.000000 0.000000 0.040157 0.000000 0.000000
# 5 0.000000 0.000000 0.000000 0.000000 0.118423 0.000000
# 6 0.000000 0.000000 0.000000 0.000000 0.000000 0.028072
#
#
# Mechanical properties :
#
#
# Convention : Reuss Voigt Hill
#
# Bulk Modulus (GPa) = 53.26671 55.98561 54.62616
# Shear Modulus (GPa) = 20.16186 27.38882 23.77534
#
# Velocity S-wave (km/s) = 3.08940 3.60077 3.35484
# Velocity P-wave (km/s) = 6.15968 6.61742 6.39265
#
# Compressibility (1/GPa) = 0.01877345
#
# Stress axis : x y z
#
# Youngs Moduli (GPa) = 97.85765 65.27438 87.80118
#
# Poissons Ratio (x) = 0.27487 0.23028
# Poissons Ratio (y) = 0.41208 0.19700
# Poissons Ratio (z) = 0.25665 0.14646
#
# Static dielectric constant tensor:
#      x y z
#    x 1.907590 0.000000 0.000000 
#    y 0.000000 1.759360 0.000000 
#    z 0.000000 0.000000 1.780450 
# 
# From -- ./inp_files/14554.got.cif
#   From: 2010.05.17/outbox.cif.g08.bks.cpg/sg43_8_cif.got.tgz:14554.got - 2010.06.03 19:21:55.
