data_PCOD9371942
_publ_section_title
;
Structure prediction by ZEFSAII (Michael W. Deem and Ramdas Pophale) SiO2 
 PCOD9371942
Probable space group: F D D 2
;
_chemical_formula_sum "Si O2"
_cell_formula_units_Z 120
_cell_length_a 12.030239
_cell_length_b 23.104720
_cell_length_c 17.456618
_cell_angle_alpha 90.000000
_cell_angle_beta 90.000000
_cell_angle_gamma 90.000000
_cell_volume 4852.159557
_symmetry_space_group_name_H-M "F D D 2"
_symmetry_group_IT_number 43
_symmetry_cell_setting 'orthorhombic'
loop_
_space_group_symop_operation_xyz
x,y,z
-x,-y,z
1/4-x,1/4+y,1/4+z
1/4+x,1/4-y,1/4+z
x,1/2+y,1/2+z
-x,1/2-y,1/2+z
1/4-x,3/4+y,3/4+z
1/4+x,3/4-y,3/4+z
1/2+x,y,1/2+z
1/2-x,-y,1/2+z
3/4-x,1/4+y,3/4+z
3/4+x,1/4-y,3/4+z
1/2+x,1/2+y,z
1/2-x,1/2-y,z
3/4-x,3/4+y,1/4+z
3/4+x,3/4-y,1/4+z
loop_
_atom_site_type_symbol
_atom_site_label
_atom_site_fract_x
_atom_site_fract_y
_atom_site_fract_z
Si Si1 0.655904 0.391886 0.496550
Si Si2 0.124907 0.481590 0.121110
Si Si3 0.688257 0.083071 0.022337
Si Si4 0.750000 0.250000 0.923156
Si Si5 0.046853 0.688945 0.012992
Si Si6 0.371180 0.248372 0.640727
Si Si7 0.858546 0.087415 0.757633
Si Si8 0.621345 0.866980 0.425281
O O1 0.651492 0.420267 0.581276
O O2 0.565915 0.341484 0.486389
O O3 0.625131 0.447555 0.447149
O O4 0.779673 0.370679 0.480531
O O5 0.134313 0.473174 0.211580
O O6 0.000000 0.500000 0.100873
O O7 0.199244 0.530838 0.081799
O O8 0.636118 0.057035 0.943711
O O9 0.801693 0.109949 0.994021
O O10 0.608556 0.133241 0.052471
O O11 0.674815 0.305689 0.895742
O O12 0.856275 0.286526 0.957881
O O13 0.038024 0.739170 0.076665
O O14 0.250000 0.250000 0.602170
O O15 0.745833 0.112409 0.720036
O O16 0.869921 0.092582 0.849742
#
# Coordination Sequence:
#
# PCOD9371942 Si02
#       8
#    16  16  16   8  16  16  16  16
#     4  11  22  44  73 111 153 201 258 335 405 476
#     4  11  22  47  79 115 148 205 268 332 398 490
#     4  10  23  45  73 111 147 200 256 331 398 469
#     4  10  26  48  76 106 152 208 266 332 398 502
#     4  11  21  42  73 111 145 196 254 327 398 467
#     4  11  21  39  70 111 149 189 266 327 387 484
#     4  12  27  50  76 111 165 209 268 335 409 500
#     4  11  28  52  77 112 160 213 267 335 415 494
#
# _framework density 24.731258
#
# number of rings (size 3 to 8) (size 9 to 14) (size 15 to 20)
#    0.000    1.067    4.667    1.600    1.867    2.133 
#    0.000    0.000    0.000    0.000    0.000    0.000 
#    0.000    0.000    0.000    0.000    0.000    0.000 
#
# Total GULP energy -167503.065132 kJ/mol
# GULP energy per Si atom -5583.435504 kJ/mol
# Density = 2.467497 g / cm^3
# Si number density = 24.731258 Si / 1000 Ang^3
#
#
#
# Elastic Constant Matrix: (Units=GPa)
#
#
# Indices 1 2 3 4 5 6 
#
# 1 164.6529 31.2380 41.6755 0.0000 0.0000 0.0000
# 2 31.2380 89.1872 13.3078 0.0000 0.0000 0.0000
# 3 41.6755 13.3078 72.8947 0.0000 0.0000 0.0000
# 4 0.0000 0.0000 0.0000 44.2111 0.0000 0.0000
# 5 0.0000 0.0000 0.0000 0.0000 -1.2268 0.0000
# 6 0.0000 0.0000 0.0000 0.0000 0.0000 31.7633
#
#
#
# Elastic Compliance Matrix: (Units=1/GPa)
#
#
# Indices 1 2 3 4 5 6 
#
# 1 0.007441 -0.002027 -0.003884 0.000000 0.000000 0.000000
# 2 -0.002027 0.012078 -0.001046 0.000000 0.000000 0.000000
# 3 -0.003884 -0.001046 0.016130 0.000000 0.000000 0.000000
# 4 0.000000 0.000000 0.000000 0.022619 0.000000 0.000000
# 5 0.000000 0.000000 0.000000 0.000000 -0.815158 0.000000
# 6 0.000000 0.000000 0.000000 0.000000 0.000000 0.031483
#
#
# Mechanical properties :
#
#
# Convention : Reuss Voigt Hill
#
# Bulk Modulus (GPa) = 46.00865 55.46415 50.73640
# Shear Modulus (GPa) = -7.09978 30.98377 11.94199
#
# Velocity S-wave (km/s) = -1.69617 3.54336 2.19982
# Velocity P-wave (km/s) = 3.84809 6.26226 5.19730
#
# Compressibility (1/GPa) = 0.02173504
#
# Stress axis : x y z
#
# Youngs Moduli (GPa) = 134.39030 82.79286 61.99584
#
# Poissons Ratio (x) = 0.16779 0.24080
# Poissons Ratio (y) = 0.27236 0.06487
# Poissons Ratio (z) = 0.52200 0.08663
#
# Static dielectric constant tensor:
#      x y z
#    x 2.273980 0.000000 0.000000 
#    y 0.000000 1.958560 0.000000 
#    z 0.000000 0.000000 2.066140 
# 
# From -- ./inp_files/17287.got.cif
#   From: 2010.05.17/outbox.cif.g08.bks.cpg/sg43_9_cif.got.tgz:17287.got - 2010.06.03 19:21:55.
