data_PCOD9371173
_publ_section_title
;
Structure prediction by ZEFSAII (Michael W. Deem and Ramdas Pophale) SiO2 
 PCOD9371173
Probable space group: F D D 2
;
_chemical_formula_sum "Si O2"
_cell_formula_units_Z 112
_cell_length_a 28.865738
_cell_length_b 11.787130
_cell_length_c 14.052888
_cell_angle_alpha 90.000000
_cell_angle_beta 90.000000
_cell_angle_gamma 90.000000
_cell_volume 4781.413725
_symmetry_space_group_name_H-M "F D D 2"
_symmetry_group_IT_number 43
_symmetry_cell_setting 'orthorhombic'
loop_
_space_group_symop_operation_xyz
x,y,z
-x,-y,z
1/4-x,1/4+y,1/4+z
1/4+x,1/4-y,1/4+z
x,1/2+y,1/2+z
-x,1/2-y,1/2+z
1/4-x,3/4+y,3/4+z
1/4+x,3/4-y,3/4+z
1/2+x,y,1/2+z
1/2-x,-y,1/2+z
3/4-x,1/4+y,3/4+z
3/4+x,1/4-y,3/4+z
1/2+x,1/2+y,z
1/2-x,1/2-y,z
3/4-x,3/4+y,1/4+z
3/4+x,3/4-y,1/4+z
loop_
_atom_site_type_symbol
_atom_site_label
_atom_site_fract_x
_atom_site_fract_y
_atom_site_fract_z
Si Si1 0.432188 0.567567 0.345620
Si Si2 0.986166 0.761760 0.403793
Si Si3 0.849058 0.742737 0.113102
Si Si4 0.000000 0.000000 0.920499
Si Si5 0.000000 0.500000 0.689347
Si Si6 0.269794 0.995677 0.873332
Si Si7 0.386887 0.260765 0.746646
Si Si8 0.681407 0.048455 0.488984
O O1 0.473600 0.651993 0.376098
O O2 0.455309 0.501004 0.258259
O O3 0.391309 0.648190 0.308762
O O4 0.410249 0.508798 0.436690
O O5 0.976083 0.776347 0.513950
O O6 0.943247 0.772845 0.333175
O O7 0.001364 0.631302 0.383097
O O8 0.806187 0.750984 0.188154
O O9 0.895210 0.764493 0.172053
O O10 0.857703 0.621417 0.062930
O O11 0.838668 0.832980 0.029211
O O12 0.004000 0.387054 0.627203
O O13 0.317761 0.007439 0.928937
O O14 0.228810 0.061251 0.928541
#
# Coordination Sequence:
#
# PCOD9371173 Si02
#       8
#    16  16  16   8   8  16  16  16
#     4  11  23  44  71  97 143 182 240 295 362 427
#     4  11  22  45  70 103 140 188 236 298 362 436
#     4  11  22  41  72 106 144 186 238 310 356 438
#     4  10  21  40  68 103 138 182 237 298 362 419
#     4  10  23  48  66  91 142 186 223 300 362 421
#     4  11  24  46  71  98 143 191 238 297 360 438
#     4  11  22  43  68 101 136 187 235 296 359 428
#     4  11  24  44  71 107 143 186 241 295 372 433
#
# _framework density 23.424035
#
# number of rings (size 3 to 8) (size 9 to 14) (size 15 to 20)
#    0.000    1.143    4.286    3.000    2.000    1.143 
#    5.143    0.000    0.000    0.000    0.000    0.000 
#    0.000    0.000    0.000    0.000    0.000    0.000 
#
# Total GULP energy -156280.720963 kJ/mol
# GULP energy per Si atom -5581.454320 kJ/mol
# Density = 2.337072 g / cm^3
# Si number density = 23.424035 Si / 1000 Ang^3
#
#
#
# Elastic Constant Matrix: (Units=GPa)
#
#
# Indices 1 2 3 4 5 6 
#
# 1 71.7709 10.1658 16.8377 0.0000 0.0000 0.0000
# 2 10.1658 60.5625 19.3604 0.0000 0.0000 0.0000
# 3 16.8377 19.3604 119.1842 0.0000 0.0000 0.0000
# 4 0.0000 0.0000 0.0000 9.9326 0.0000 0.0000
# 5 0.0000 0.0000 0.0000 0.0000 49.0879 0.0000
# 6 0.0000 0.0000 0.0000 0.0000 0.0000 22.8006
#
#
#
# Elastic Compliance Matrix: (Units=1/GPa)
#
#
# Indices 1 2 3 4 5 6 
#
# 1 0.014613 -0.001891 -0.001757 0.000000 0.000000 0.000000
# 2 -0.001891 0.017661 -0.002602 0.000000 0.000000 0.000000
# 3 -0.001757 -0.002602 0.009061 0.000000 0.000000 0.000000
# 4 0.000000 0.000000 0.000000 0.100678 0.000000 0.000000
# 5 0.000000 0.000000 0.000000 0.000000 0.020372 0.000000
# 6 0.000000 0.000000 0.000000 0.000000 0.000000 0.043859
#
#
# Mechanical properties :
#
#
# Convention : Reuss Voigt Hill
#
# Bulk Modulus (GPa) = 34.67973 38.24949 36.46461
# Shear Modulus (GPa) = 21.89561 30.04112 25.96836
#
# Velocity S-wave (km/s) = 3.06068 3.58507 3.33321
# Velocity P-wave (km/s) = 5.22759 5.78806 5.51495
#
# Compressibility (1/GPa) = 0.02883529
#
# Stress axis : x y z
#
# Youngs Moduli (GPa) = 68.43053 56.62186 110.35999
#
# Poissons Ratio (x) = 0.10708 0.19393
# Poissons Ratio (y) = 0.12942 0.28712
# Poissons Ratio (z) = 0.12025 0.14731
#
# Static dielectric constant tensor:
#      x y z
#    x 1.866230 0.000000 0.000000 
#    y 0.000000 1.935790 0.000000 
#    z 0.000000 0.000000 1.926160 
# 
# From -- ./inp_files/11685.got.cif
#   From: 2010.05.17/outbox.cif.g08.bks.cpg/sg43_6_cif.got.tgz:11685.got - 2010.06.03 19:21:55.
