data_PCOD9371646
_publ_section_title
;
Structure prediction by ZEFSAII (Michael W. Deem and Ramdas Pophale) SiO2 
 PCOD9371646
Probable space group: F D D 2
;
_chemical_formula_sum "Si O2"
_cell_formula_units_Z 96
_cell_length_a 20.769229
_cell_length_b 12.731094
_cell_length_c 14.304723
_cell_angle_alpha 90.000000
_cell_angle_beta 90.000000
_cell_angle_gamma 90.000000
_cell_volume 3782.383428
_symmetry_space_group_name_H-M "F D D 2"
_symmetry_group_IT_number 43
_symmetry_cell_setting 'orthorhombic'
loop_
_space_group_symop_operation_xyz
x,y,z
-x,-y,z
1/4-x,1/4+y,1/4+z
1/4+x,1/4-y,1/4+z
x,1/2+y,1/2+z
-x,1/2-y,1/2+z
1/4-x,3/4+y,3/4+z
1/4+x,3/4-y,3/4+z
1/2+x,y,1/2+z
1/2-x,-y,1/2+z
3/4-x,1/4+y,3/4+z
3/4+x,1/4-y,3/4+z
1/2+x,1/2+y,z
1/2-x,1/2-y,z
3/4-x,3/4+y,1/4+z
3/4+x,3/4-y,1/4+z
loop_
_atom_site_type_symbol
_atom_site_label
_atom_site_fract_x
_atom_site_fract_y
_atom_site_fract_z
Si Si1 0.028271 0.277026 0.130470
Si Si2 0.112404 0.085089 0.171700
Si Si3 0.363700 0.945046 0.887020
Si Si4 0.366689 0.420125 0.588736
Si Si5 0.500000 0.500000 0.048018
Si Si6 0.256264 0.036412 0.181318
Si Si7 0.250000 0.250000 0.915261
O O1 0.090808 0.204464 0.145314
O O2 0.020708 0.380183 0.194931
O O3 0.963586 0.208417 0.142824
O O4 0.020923 0.293944 0.018099
O O5 0.112260 0.087300 0.284872
O O6 0.183518 0.045587 0.144853
O O7 0.060825 0.012156 0.117957
O O8 0.391892 0.063177 0.896003
O O9 0.378759 0.886574 0.982074
O O10 0.308378 0.500180 0.605712
O O11 0.432944 0.472094 0.617777
O O12 0.512186 0.598593 0.979058
#
# Coordination Sequence:
#
# PCOD9371646 Si02
#       7
#    16  16  16  16   8  16   8
#     4   9  21  45  68 109 152 194 258 314 397 467
#     4  10  23  43  74 112 151 200 265 328 388 476
#     4  10  24  44  74 109 153 201 260 330 395 470
#     4  11  24  46  68 109 153 202 266 313 404 475
#     4  10  24  45  71 118 150 202 264 320 415 459
#     4  10  23  44  72 110 157 202 254 327 393 480
#     4  10  22  43  71  98 148 204 248 316 379 481
#
# _framework density 25.380821999999998
#
# number of rings (size 3 to 8) (size 9 to 14) (size 15 to 20)
#    0.000    2.000    0.000    1.000    9.333    2.000 
#   15.000    0.833    0.000    0.000    0.000    0.000 
#    0.000    0.000    0.000    0.000    0.000    0.000 
#
# Total GULP energy -133818.724105 kJ/mol
# GULP energy per Si atom -5575.780171 kJ/mol
# Density = 2.532305 g / cm^3
# Si number density = 25.380822 Si / 1000 Ang^3
#
#
#
# Elastic Constant Matrix: (Units=GPa)
#
#
# Indices 1 2 3 4 5 6 
#
# 1 161.9391 52.4513 59.3401 0.0000 0.0000 0.0000
# 2 52.4513 126.4545 35.2543 0.0000 0.0000 0.0000
# 3 59.3401 35.2543 96.9850 0.0000 0.0000 0.0000
# 4 0.0000 0.0000 0.0000 22.3633 0.0000 0.0000
# 5 0.0000 0.0000 0.0000 0.0000 24.0045 0.0000
# 6 0.0000 0.0000 0.0000 0.0000 0.0000 35.7771
#
#
#
# Elastic Compliance Matrix: (Units=1/GPa)
#
#
# Indices 1 2 3 4 5 6 
#
# 1 0.008529 -0.002318 -0.004376 0.000000 0.000000 0.000000
# 2 -0.002318 0.009430 -0.002010 0.000000 0.000000 0.000000
# 3 -0.004376 -0.002010 0.013719 0.000000 0.000000 0.000000
# 4 0.000000 0.000000 0.000000 0.044716 0.000000 0.000000
# 5 0.000000 0.000000 0.000000 0.000000 0.041659 0.000000
# 6 0.000000 0.000000 0.000000 0.000000 0.000000 0.027951
#
#
# Mechanical properties :
#
#
# Convention : Reuss Voigt Hill
#
# Bulk Modulus (GPa) = 70.07283 75.49667 72.78475
# Shear Modulus (GPa) = 29.73220 32.31785 31.02503
#
# Velocity S-wave (km/s) = 3.42635 3.57223 3.50005
# Velocity P-wave (km/s) = 6.58192 6.84285 6.71365
#
# Compressibility (1/GPa) = 0.01427087
#
# Stress axis : x y z
#
# Youngs Moduli (GPa) = 117.24020 106.04876 72.89208
#
# Poissons Ratio (x) = 0.24581 0.31899
# Poissons Ratio (y) = 0.27175 0.14648
# Poissons Ratio (z) = 0.51307 0.21311
#
# Static dielectric constant tensor:
#      x y z
#    x 1.972720 0.000000 0.000000 
#    y 0.000000 2.289410 0.000000 
#    z 0.000000 0.000000 2.032500 
# 
# From -- ./inp_files/10936.got.cif
#   From: 2010.05.17/outbox.cif.g08.bks.cpg/sg43_6_cif.got.tgz:10936.got - 2010.06.03 19:21:55.
