data_PCOD9371682
_publ_section_title
;
Structure prediction by ZEFSAII (Michael W. Deem and Ramdas Pophale) SiO2 
 PCOD9371682
Probable space group: F D D 2
;
_chemical_formula_sum "Si O2"
_cell_formula_units_Z 72
_cell_length_a 10.223476
_cell_length_b 10.906743
_cell_length_c 25.369207
_cell_angle_alpha 90.000000
_cell_angle_beta 90.000000
_cell_angle_gamma 90.000000
_cell_volume 2828.788995
_symmetry_space_group_name_H-M "F D D 2"
_symmetry_group_IT_number 43
_symmetry_cell_setting 'orthorhombic'
loop_
_space_group_symop_operation_xyz
x,y,z
-x,-y,z
1/4-x,1/4+y,1/4+z
1/4+x,1/4-y,1/4+z
x,1/2+y,1/2+z
-x,1/2-y,1/2+z
1/4-x,3/4+y,3/4+z
1/4+x,3/4-y,3/4+z
1/2+x,y,1/2+z
1/2-x,-y,1/2+z
3/4-x,1/4+y,3/4+z
3/4+x,1/4-y,3/4+z
1/2+x,1/2+y,z
1/2-x,1/2-y,z
3/4-x,3/4+y,1/4+z
3/4+x,3/4-y,1/4+z
loop_
_atom_site_type_symbol
_atom_site_label
_atom_site_fract_x
_atom_site_fract_y
_atom_site_fract_z
Si Si1 0.869302 0.150299 0.819260
Si Si2 0.139684 0.855665 0.707419
Si Si3 0.251683 0.387969 0.845610
Si Si4 0.000000 0.500000 0.878160
Si Si5 0.150127 0.980731 0.178891
O O1 0.750000 0.250000 0.816231
O O2 0.935855 0.165134 0.762401
O O3 0.930011 0.193402 0.874458
O O4 0.830866 0.007622 0.825980
O O5 0.250000 0.750000 0.700209
O O6 0.047823 0.869689 0.657144
O O7 0.234075 0.973463 0.715554
O O8 0.250000 0.250000 0.823335
O O9 0.101123 0.426837 0.843237
O O10 0.917040 0.408973 0.913758
O O11 0.000000 0.000000 0.195117
#
# Coordination Sequence:
#
# PCOD9371682 Si02
#       5
#    16  16  16   8  16
#     4  10  22  44  70 100 135 189 235 285 361 422
#     4  11  22  42  71 102 132 188 242 284 363 426
#     4  12  24  44  70 102 142 185 234 299 353 420
#     4  12  22  42  70  98 132 182 228 278 352 420
#     4  11  21  43  70  94 140 182 225 292 349 416
#
# _framework density 25.452587000000001
#
# number of rings (size 3 to 8) (size 9 to 14) (size 15 to 20)
#    0.000    0.889    8.889    0.000    0.000    0.000 
#    8.000    2.222    2.444    0.000    0.000    0.000 
#    0.000    0.000    0.000    0.000    0.000    0.000 
#
# Total GULP energy -100569.892219 kJ/mol
# GULP energy per Si atom -5587.216234 kJ/mol
# Density = 2.539466 g / cm^3
# Si number density = 25.452587 Si / 1000 Ang^3
#
#
#
# Elastic Constant Matrix: (Units=GPa)
#
#
# Indices 1 2 3 4 5 6 
#
# 1 79.2781 22.6892 5.3690 0.0000 0.0000 0.0000
# 2 22.6892 183.4697 -0.1501 0.0000 0.0000 0.0000
# 3 5.3690 -0.1501 109.3500 0.0000 0.0000 0.0000
# 4 0.0000 0.0000 0.0000 -19.7604 0.0000 0.0000
# 5 0.0000 0.0000 0.0000 0.0000 22.3042 0.0000
# 6 0.0000 0.0000 0.0000 0.0000 0.0000 46.8376
#
#
#
# Elastic Compliance Matrix: (Units=1/GPa)
#
#
# Indices 1 2 3 4 5 6 
#
# 1 0.013122 -0.001623 -0.000647 0.000000 0.000000 0.000000
# 2 -0.001623 0.005651 0.000087 0.000000 0.000000 0.000000
# 3 -0.000647 0.000087 0.009177 0.000000 0.000000 0.000000
# 4 0.000000 0.000000 0.000000 -0.050606 0.000000 0.000000
# 5 0.000000 0.000000 0.000000 0.000000 0.044835 0.000000
# 6 0.000000 0.000000 0.000000 0.000000 0.000000 0.021350
#
#
# Mechanical properties :
#
#
# Convention : Reuss Voigt Hill
#
# Bulk Modulus (GPa) = 42.39881 47.54601 44.97241
# Shear Modulus (GPa) = 89.67720 32.82227 61.24973
#
# Velocity S-wave (km/s) = 5.94218 3.59492 4.91085
# Velocity P-wave (km/s) = 7.98583 5.99600 7.06136
#
# Compressibility (1/GPa) = 0.02358557
#
# Stress axis : x y z
#
# Youngs Moduli (GPa) = 76.20678 176.94996 108.97033
#
# Poissons Ratio (x) = 0.28725 0.07045
# Poissons Ratio (y) = 0.12371 -0.00953
# Poissons Ratio (z) = 0.04927 -0.01548
#
# Static dielectric constant tensor:
#      x y z
#    x 1.938980 0.000000 0.000000 
#    y 0.000000 2.596830 0.000000 
#    z 0.000000 0.000000 2.017030 
# 
# From -- ./inp_files/24877.got.cif
#   From: 2010.05.17/outbox.cif.g08.bks.cpg/sg43_13_cif.got.tgz:24877.got - 2010.06.03 19:21:55.
