data_PCOD9371788
_publ_section_title
;
Structure prediction by ZEFSAII (Michael W. Deem and Ramdas Pophale) SiO2 
 PCOD9371788
Probable space group: F D D 2
;
_chemical_formula_sum "Si O2"
_cell_formula_units_Z 48
_cell_length_a 17.691536
_cell_length_b 7.722447
_cell_length_c 13.411172
_cell_angle_alpha 90.000000
_cell_angle_beta 90.000000
_cell_angle_gamma 90.000000
_cell_volume 1832.260458
_symmetry_space_group_name_H-M "F D D 2"
_symmetry_group_IT_number 43
_symmetry_cell_setting 'orthorhombic'
loop_
_space_group_symop_operation_xyz
x,y,z
-x,-y,z
1/4-x,1/4+y,1/4+z
1/4+x,1/4-y,1/4+z
x,1/2+y,1/2+z
-x,1/2-y,1/2+z
1/4-x,3/4+y,3/4+z
1/4+x,3/4-y,3/4+z
1/2+x,y,1/2+z
1/2-x,-y,1/2+z
3/4-x,1/4+y,3/4+z
3/4+x,1/4-y,3/4+z
1/2+x,1/2+y,z
1/2-x,1/2-y,z
3/4-x,3/4+y,1/4+z
3/4+x,3/4-y,1/4+z
loop_
_atom_site_type_symbol
_atom_site_label
_atom_site_fract_x
_atom_site_fract_y
_atom_site_fract_z
Si Si1 0.250000 0.250000 0.555011
Si Si2 0.751254 0.535622 0.199129
Si Si3 0.152643 0.554783 0.510370
Si Si4 0.750000 0.250000 0.351356
O O1 0.209639 0.107493 0.625394
O O2 0.187197 0.361632 0.498866
O O3 0.814107 0.653200 0.253634
O O4 0.719010 0.407432 0.283622
O O5 0.690783 0.606201 0.117235
O O6 0.188504 0.668908 0.423892
#
# Coordination Sequence:
#
# PCOD9371788 Si02
#       4
#     8  16  16   8
#     4   7  20  46  77 118 154 217 262 354 409 520
#     4   9  22  48  79 116 160 219 280 348 427 513
#     4  10  22  48  82 116 163 219 278 352 431 513
#     4  11  24  46  79 110 168 215 276 356 411 520
#
# _framework density 26.197149
#
# number of rings (size 3 to 8) (size 9 to 14) (size 15 to 20)
#    2.000    0.667    0.000    0.000    4.667    0.000 
#    6.000    8.333    0.000    0.000    0.000    0.000 
#    0.000    0.000    0.000    0.000    0.000    0.000 
#
# Total GULP energy -66857.132658 kJ/mol
# GULP energy per Si atom -5571.427721 kJ/mol
# Density = 2.613752 g / cm^3
# Si number density = 26.197149 Si / 1000 Ang^3
#
#
#
# Elastic Constant Matrix: (Units=GPa)
#
#
# Indices 1 2 3 4 5 6 
#
# 1 194.5598 89.4749 94.7655 0.0000 0.0000 0.0000
# 2 89.4749 117.3129 68.5070 0.0000 0.0000 0.0000
# 3 94.7655 68.5070 185.4040 0.0000 0.0000 0.0000
# 4 0.0000 0.0000 0.0000 41.1886 0.0000 0.0000
# 5 0.0000 0.0000 0.0000 0.0000 19.9783 0.0000
# 6 0.0000 0.0000 0.0000 0.0000 0.0000 24.2701
#
#
#
# Elastic Compliance Matrix: (Units=1/GPa)
#
#
# Indices 1 2 3 4 5 6 
#
# 1 0.008781 -0.005198 -0.002568 0.000000 0.000000 0.000000
# 2 -0.005198 0.013946 -0.002496 0.000000 0.000000 0.000000
# 3 -0.002568 -0.002496 0.007628 0.000000 0.000000 0.000000
# 4 0.000000 0.000000 0.000000 0.024279 0.000000 0.000000
# 5 0.000000 0.000000 0.000000 0.000000 0.050054 0.000000
# 6 0.000000 0.000000 0.000000 0.000000 0.000000 0.041203
#
#
# Mechanical properties :
#
#
# Convention : Reuss Voigt Hill
#
# Bulk Modulus (GPa) = 101.70818 111.41907 106.56362
# Shear Modulus (GPa) = 29.46511 33.38937 31.42724
#
# Velocity S-wave (km/s) = 3.35736 3.57395 3.46734
# Velocity P-wave (km/s) = 7.34422 7.72361 7.53630
#
# Compressibility (1/GPa) = 0.00983205
#
# Stress axis : x y z
#
# Youngs Moduli (GPa) = 113.88547 71.70296 131.08866
#
# Poissons Ratio (x) = 0.37269 0.33657
# Poissons Ratio (y) = 0.59195 0.32726
# Poissons Ratio (z) = 0.29240 0.17901
#
# Static dielectric constant tensor:
#      x y z
#    x 2.018340 0.000000 0.000000 
#    y 0.000000 2.404830 0.000000 
#    z 0.000000 0.000000 2.051070 
# 
# From -- ./inp_files/5174.got.cif
#   From: 2010.05.17/outbox.cif.g08.bks.cpg/sg43_3_cif.got.tgz:5174.got - 2010.06.03 19:21:55.
