data_PCOD9371918
_publ_section_title
;
Structure prediction by ZEFSAII (Michael W. Deem and Ramdas Pophale) SiO2 
 PCOD9371918
Probable space group: F D D 2
;
_chemical_formula_sum "Si O2"
_cell_formula_units_Z 112
_cell_length_a 5.379275
_cell_length_b 30.685280
_cell_length_c 31.208207
_cell_angle_alpha 90.000000
_cell_angle_beta 90.000000
_cell_angle_gamma 90.000000
_cell_volume 5151.368943
_symmetry_space_group_name_H-M "F D D 2"
_symmetry_group_IT_number 43
_symmetry_cell_setting 'orthorhombic'
loop_
_space_group_symop_operation_xyz
x,y,z
-x,-y,z
1/4-x,1/4+y,1/4+z
1/4+x,1/4-y,1/4+z
x,1/2+y,1/2+z
-x,1/2-y,1/2+z
1/4-x,3/4+y,3/4+z
1/4+x,3/4-y,3/4+z
1/2+x,y,1/2+z
1/2-x,-y,1/2+z
3/4-x,1/4+y,3/4+z
3/4+x,1/4-y,3/4+z
1/2+x,1/2+y,z
1/2-x,1/2-y,z
3/4-x,3/4+y,1/4+z
3/4+x,3/4-y,1/4+z
loop_
_atom_site_type_symbol
_atom_site_label
_atom_site_fract_x
_atom_site_fract_y
_atom_site_fract_z
Si Si1 0.884568 0.296382 0.115930
Si Si2 0.253976 0.472590 0.772066
Si Si3 0.542721 0.078962 0.447692
Si Si4 0.307425 0.958479 0.637144
Si Si5 0.525999 0.582988 0.702499
Si Si6 0.500000 0.000000 0.067568
Si Si7 0.146712 0.123077 0.390496
Si Si8 0.000000 0.000000 0.012695
O O1 0.750000 0.250000 0.124186
O O2 0.691380 0.335915 0.108450
O O3 0.027637 0.292619 0.071291
O O4 0.047863 0.310594 0.157004
O O5 0.500000 0.500000 0.763856
O O6 0.278100 0.435720 0.736044
O O7 0.000000 0.500000 0.768828
O O8 0.648892 0.122972 0.468985
O O9 0.284036 0.094962 0.427355
O O10 0.532508 0.041490 0.482320
O O11 0.432289 0.912437 0.625556
O O12 0.175451 0.950957 0.683253
O O13 0.500000 0.000000 0.637627
O O14 0.097207 0.964588 0.601367
O O15 0.669492 0.601102 0.661232
O O16 0.252169 0.991857 0.039855
#
# Coordination Sequence:
#
# PCOD9371918 Si02
#       8
#    16  16  16  16  16   8  16   8
#     4  10  23  46  75 104 147 189 246 298 367 442
#     4  11  28  45  72 110 145 191 240 294 367 432
#     4  10  24  46  75 102 144 196 241 302 367 436
#     4  11  24  48  76 103 148 192 250 299 371 443
#     4  10  25  45  71 109 147 189 242 302 366 433
#     4  12  28  48  70 113 138 199 246 308 376 432
#     4  10  23  44  73 108 135 201 240 298 366 435
#     4  12  28  48  76 107 150 193 250 302 370 446
#
# _framework density 21.741793999999999
#
# number of rings (size 3 to 8) (size 9 to 14) (size 15 to 20)
#    0.000    1.429    0.714    1.714   17.000    0.000 
#   12.857    0.000    0.000    0.000    0.000    0.000 
#    0.000    0.000    0.000    0.000    0.000    0.000 
#
# Total GULP energy -156293.578294 kJ/mol
# GULP energy per Si atom -5581.913511 kJ/mol
# Density = 2.169231 g / cm^3
# Si number density = 21.741794 Si / 1000 Ang^3
#
#
#
# Elastic Constant Matrix: (Units=GPa)
#
#
# Indices 1 2 3 4 5 6 
#
# 1 107.7712 56.6379 41.5765 0.0000 0.0000 0.0000
# 2 56.6379 116.6616 78.7575 0.0000 0.0000 0.0000
# 3 41.5765 78.7575 95.4242 0.0000 0.0000 0.0000
# 4 0.0000 0.0000 0.0000 -65.4425 0.0000 0.0000
# 5 0.0000 0.0000 0.0000 0.0000 -47.6624 0.0000
# 6 0.0000 0.0000 0.0000 0.0000 0.0000 35.5746
#
#
#
# Elastic Compliance Matrix: (Units=1/GPa)
#
#
# Indices 1 2 3 4 5 6 
#
# 1 0.012498 -0.005401 -0.000988 0.000000 0.000000 0.000000
# 2 -0.005401 0.021691 -0.015549 0.000000 0.000000 0.000000
# 3 -0.000988 -0.015549 0.023744 0.000000 0.000000 0.000000
# 4 0.000000 0.000000 0.000000 -0.015281 0.000000 0.000000
# 5 0.000000 0.000000 0.000000 0.000000 -0.020981 0.000000
# 6 0.000000 0.000000 0.000000 0.000000 0.000000 0.028110
#
#
# Mechanical properties :
#
#
# Convention : Reuss Voigt Hill
#
# Bulk Modulus (GPa) = 71.14132 74.86677 73.00405
# Shear Modulus (GPa) = 50.84197 -5.98037 22.43080
#
# Velocity S-wave (km/s) = 4.84099 -1.66030 3.21548
# Velocity P-wave (km/s) = 8.00244 5.55282 6.88741
#
# Compressibility (1/GPa) = 0.01405653
#
# Stress axis : x y z
#
# Youngs Moduli (GPa) = 80.01001 46.10167 42.11651
#
# Poissons Ratio (x) = 0.24899 0.04162
# Poissons Ratio (y) = 0.43212 0.65489
# Poissons Ratio (z) = 0.07906 0.71686
#
# Static dielectric constant tensor:
#      x y z
#    x 1.960420 0.000000 0.000000 
#    y 0.000000 1.753690 0.000000 
#    z 0.000000 0.000000 1.767570 
# 
# From -- ./inp_files/27458.got.cif
#   From: 2010.05.17/outbox.cif.g08.bks.cpg/sg43_14_cif.got.tgz:27458.got - 2010.06.03 19:21:55.
