data_PCOD9371845
_publ_section_title
;
Structure prediction by ZEFSAII (Michael W. Deem and Ramdas Pophale) SiO2 
 PCOD9371845
Probable space group: F D D 2
;
_chemical_formula_sum "Si O2"
_cell_formula_units_Z 104
_cell_length_a 25.395490
_cell_length_b 15.333561
_cell_length_c 12.778472
_cell_angle_alpha 90.000000
_cell_angle_beta 90.000000
_cell_angle_gamma 90.000000
_cell_volume 4975.979102
_symmetry_space_group_name_H-M "F D D 2"
_symmetry_group_IT_number 43
_symmetry_cell_setting 'orthorhombic'
loop_
_space_group_symop_operation_xyz
x,y,z
-x,-y,z
1/4-x,1/4+y,1/4+z
1/4+x,1/4-y,1/4+z
x,1/2+y,1/2+z
-x,1/2-y,1/2+z
1/4-x,3/4+y,3/4+z
1/4+x,3/4-y,3/4+z
1/2+x,y,1/2+z
1/2-x,-y,1/2+z
3/4-x,1/4+y,3/4+z
3/4+x,1/4-y,3/4+z
1/2+x,1/2+y,z
1/2-x,1/2-y,z
3/4-x,3/4+y,1/4+z
3/4+x,3/4-y,1/4+z
loop_
_atom_site_type_symbol
_atom_site_label
_atom_site_fract_x
_atom_site_fract_y
_atom_site_fract_z
Si Si1 0.173695 0.319289 0.002870
Si Si2 0.070139 0.912543 0.905122
Si Si3 0.750000 0.750000 0.330472
Si Si4 0.719832 0.475305 0.160102
Si Si5 0.411371 0.754948 0.346918
Si Si6 0.941962 0.854099 0.207029
Si Si7 0.032246 0.222921 0.649041
O O1 0.188756 0.234828 0.067001
O O2 0.150667 0.391139 0.085478
O O3 0.132854 0.293775 0.911898
O O4 0.219432 0.376352 0.948776
O O5 0.131446 0.913243 0.933834
O O6 0.055072 0.815699 0.870620
O O7 0.034333 0.938094 0.004682
O O8 0.787999 0.691657 0.401789
O O9 0.782799 0.488092 0.153343
O O10 0.702842 0.399665 0.081130
O O11 0.702531 0.465028 0.279143
O O12 0.424231 0.730900 0.225182
O O13 0.979162 0.777405 0.161106
#
# Coordination Sequence:
#
# PCOD9371845 Si02
#       7
#    16  16   8  16  16  16  16
#     4  10  23  42  69 101 132 190 227 289 352 416
#     4  12  25  42  76 103 135 190 243 283 357 420
#     4  12  26  48  68 112 144 182 242 302 354 436
#     4  11  22  45  68  99 141 182 228 292 349 421
#     4   9  22  43  67  98 139 178 231 292 342 418
#     4  11  25  45  71 102 144 185 233 299 353 426
#     4   9  22  44  67  95 143 180 226 293 350 409
#
# _framework density 20.900409
#
# number of rings (size 3 to 8) (size 9 to 14) (size 15 to 20)
#    0.923    0.615    1.538    2.769    4.308    1.231 
#    5.538    0.000    0.000    0.000    0.000    0.000 
#    0.000    0.000    0.000    0.000    0.000    0.000 
#
# Total GULP energy -145119.802767 kJ/mol
# GULP energy per Si atom -5581.530876 kJ/mol
# Density = 2.085284 g / cm^3
# Si number density = 20.900409 Si / 1000 Ang^3
#
#
#
# Elastic Constant Matrix: (Units=GPa)
#
#
# Indices 1 2 3 4 5 6 
#
# 1 74.8948 9.5737 16.6393 0.0000 0.0000 0.0000
# 2 9.5737 39.3131 13.5817 0.0000 0.0000 0.0000
# 3 16.6393 13.5817 89.6225 0.0000 0.0000 0.0000
# 4 0.0000 0.0000 0.0000 27.2922 0.0000 0.0000
# 5 0.0000 0.0000 0.0000 0.0000 9.9077 0.0000
# 6 0.0000 0.0000 0.0000 0.0000 0.0000 22.0683
#
#
#
# Elastic Compliance Matrix: (Units=1/GPa)
#
#
# Indices 1 2 3 4 5 6 
#
# 1 0.014190 -0.002686 -0.002228 0.000000 0.000000 0.000000
# 2 -0.002686 0.027351 -0.003646 0.000000 0.000000 0.000000
# 3 -0.002228 -0.003646 0.012124 0.000000 0.000000 0.000000
# 4 0.000000 0.000000 0.000000 0.036640 0.000000 0.000000
# 5 0.000000 0.000000 0.000000 0.000000 0.100931 0.000000
# 6 0.000000 0.000000 0.000000 0.000000 0.000000 0.045314
#
#
# Mechanical properties :
#
#
# Convention : Reuss Voigt Hill
#
# Bulk Modulus (GPa) = 27.36318 31.49109 29.42714
# Shear Modulus (GPa) = 18.80746 22.78936 20.79841
#
# Velocity S-wave (km/s) = 3.00302 3.30567 3.15797
# Velocity P-wave (km/s) = 5.01446 5.44701 5.23520
#
# Compressibility (1/GPa) = 0.03654546
#
# Stress axis : x y z
#
# Youngs Moduli (GPa) = 70.47066 36.56226 82.48098
#
# Poissons Ratio (x) = 0.09821 0.18373
# Poissons Ratio (y) = 0.18929 0.30073
# Poissons Ratio (z) = 0.15697 0.13331
#
# Static dielectric constant tensor:
#      x y z
#    x 1.740570 0.000000 0.000000 
#    y 0.000000 1.743390 0.000000 
#    z 0.000000 0.000000 1.784780 
# 
# From -- ./inp_files/7958.got.cif
#   From: 2010.05.17/outbox.cif.g08.bks.cpg/sg43_4_cif.got.tgz:7958.got - 2010.06.03 19:21:55.
