data_PCOD9371019
_publ_section_title
;
Structure prediction by ZEFSAII (Michael W. Deem and Ramdas Pophale) SiO2 
 PCOD9371019
Probable space group: F D D 2
;
_chemical_formula_sum "Si O2"
_cell_formula_units_Z 120
_cell_length_a 8.563276
_cell_length_b 24.269492
_cell_length_c 26.590510
_cell_angle_alpha 90.000000
_cell_angle_beta 90.000000
_cell_angle_gamma 90.000000
_cell_volume 5526.208861
_symmetry_space_group_name_H-M "F D D 2"
_symmetry_group_IT_number 43
_symmetry_cell_setting 'orthorhombic'
loop_
_space_group_symop_operation_xyz
x,y,z
-x,-y,z
1/4-x,1/4+y,1/4+z
1/4+x,1/4-y,1/4+z
x,1/2+y,1/2+z
-x,1/2-y,1/2+z
1/4-x,3/4+y,3/4+z
1/4+x,3/4-y,3/4+z
1/2+x,y,1/2+z
1/2-x,-y,1/2+z
3/4-x,1/4+y,3/4+z
3/4+x,1/4-y,3/4+z
1/2+x,1/2+y,z
1/2-x,1/2-y,z
3/4-x,3/4+y,1/4+z
3/4+x,3/4-y,1/4+z
loop_
_atom_site_type_symbol
_atom_site_label
_atom_site_fract_x
_atom_site_fract_y
_atom_site_fract_z
Si Si1 0.946008 0.892419 0.760680
Si Si2 0.750000 0.250000 0.327900
Si Si3 0.076698 0.175963 0.570406
Si Si4 0.090979 0.783237 0.793508
Si Si5 0.450238 0.296706 0.058765
Si Si6 0.492412 0.599238 0.128439
Si Si7 0.813725 0.191061 0.980014
Si Si8 0.136096 0.590020 0.146710
O O1 0.786096 0.883680 0.790844
O O2 0.899310 0.912180 0.705526
O O3 0.053155 0.838009 0.760685
O O4 0.023079 0.938248 0.796861
O O5 0.581314 0.245371 0.298739
O O6 0.727418 0.300730 0.365971
O O7 0.010723 0.237526 0.575420
O O8 0.219145 0.179341 0.531157
O O9 0.113909 0.151071 0.624289
O O10 0.250000 0.750000 0.777026
O O11 0.145629 0.808354 0.847364
O O12 0.504160 0.343484 0.098181
O O13 0.514899 0.303667 0.001693
O O14 0.548032 0.602521 0.185913
O O15 0.315843 0.576676 0.132804
O O16 0.750000 0.250000 0.960957
#
# Coordination Sequence:
#
# PCOD9371019 Si02
#       8
#    16   8  16  16  16  16  16  16
#     4  11  25  42  66 101 135 179 227 281 347 416
#     4  12  26  42  74  98 136 178 234 298 340 404
#     4  11  22  44  63  96 134 172 225 275 345 409
#     4  11  24  46  69 102 142 181 228 288 353 412
#     4  10  24  40  64  94 137 179 223 283 337 420
#     4  11  22  40  67 101 134 177 229 287 344 412
#     4  10  21  36  65  94 127 175 228 276 334 408
#     4  12  25  41  68 102 134 177 230 290 345 411
#
# _framework density 21.714704999999999
#
# number of rings (size 3 to 8) (size 9 to 14) (size 15 to 20)
#    0.000    1.067    5.333    0.800    3.733    0.000 
#    0.000    6.667    0.000    0.000    0.000    0.000 
#    0.000    0.000    0.000    0.000    0.000    0.000 
#
# Total GULP energy -167227.631844 kJ/mol
# GULP energy per Si atom -5574.254395 kJ/mol
# Density = 2.166528 g / cm^3
# Si number density = 21.714705 Si / 1000 Ang^3
#
#
#
# Elastic Constant Matrix: (Units=GPa)
#
#
# Indices 1 2 3 4 5 6 
#
# 1 86.8342 15.4574 1.0703 0.0000 0.0000 0.0000
# 2 15.4574 78.7134 28.0401 0.0000 0.0000 0.0000
# 3 1.0703 28.0401 61.2702 0.0000 0.0000 0.0000
# 4 0.0000 0.0000 0.0000 -62.9853 0.0000 0.0000
# 5 0.0000 0.0000 0.0000 0.0000 37.1878 0.0000
# 6 0.0000 0.0000 0.0000 0.0000 0.0000 25.6941
#
#
#
# Elastic Compliance Matrix: (Units=1/GPa)
#
#
# Indices 1 2 3 4 5 6 
#
# 1 0.011988 -0.002724 0.001037 0.000000 0.000000 0.000000
# 2 -0.002724 0.015798 -0.007182 0.000000 0.000000 0.000000
# 3 0.001037 -0.007182 0.019590 0.000000 0.000000 0.000000
# 4 0.000000 0.000000 0.000000 -0.015877 0.000000 0.000000
# 5 0.000000 0.000000 0.000000 0.000000 0.026891 0.000000
# 6 0.000000 0.000000 0.000000 0.000000 0.000000 0.038919
#
#
# Mechanical properties :
#
#
# Convention : Reuss Voigt Hill
#
# Bulk Modulus (GPa) = 33.74009 35.10594 34.42302
# Shear Modulus (GPa) = 40.02364 12.12931 26.07647
#
# Velocity S-wave (km/s) = 4.29786 2.36598 3.46911
# Velocity P-wave (km/s) = 6.34038 4.86475 5.65094
#
# Compressibility (1/GPa) = 0.02963833
#
# Stress axis : x y z
#
# Youngs Moduli (GPa) = 83.41497 63.30037 51.04662
#
# Poissons Ratio (x) = 0.17241 -0.05294
# Poissons Ratio (y) = 0.22719 0.36663
# Poissons Ratio (z) = -0.08651 0.45464
#
# Static dielectric constant tensor:
#      x y z
#    x 1.872280 0.000000 0.000000 
#    y 0.000000 1.886490 0.000000 
#    z 0.000000 0.000000 1.717410 
# 
# From -- ./inp_files/20441.got.cif
#   From: 2010.05.17/outbox.cif.g08.bks.cpg/sg43_11_cif.got.tgz:20441.got - 2010.06.03 19:21:55.
