data_PCOD9371512
_publ_section_title
;
Structure prediction by ZEFSAII (Michael W. Deem and Ramdas Pophale) SiO2 
 PCOD9371512
Probable space group: F D D 2
;
_chemical_formula_sum "Si O2"
_cell_formula_units_Z 64
_cell_length_a 12.454433
_cell_length_b 12.046682
_cell_length_c 15.648782
_cell_angle_alpha 90.000000
_cell_angle_beta 90.000000
_cell_angle_gamma 90.000000
_cell_volume 2347.858651
_symmetry_space_group_name_H-M "F D D 2"
_symmetry_group_IT_number 43
_symmetry_cell_setting 'orthorhombic'
loop_
_space_group_symop_operation_xyz
x,y,z
-x,-y,z
1/4-x,1/4+y,1/4+z
1/4+x,1/4-y,1/4+z
x,1/2+y,1/2+z
-x,1/2-y,1/2+z
1/4-x,3/4+y,3/4+z
1/4+x,3/4-y,3/4+z
1/2+x,y,1/2+z
1/2-x,-y,1/2+z
3/4-x,1/4+y,3/4+z
3/4+x,1/4-y,3/4+z
1/2+x,1/2+y,z
1/2-x,1/2-y,z
3/4-x,3/4+y,1/4+z
3/4+x,3/4-y,1/4+z
loop_
_atom_site_type_symbol
_atom_site_label
_atom_site_fract_x
_atom_site_fract_y
_atom_site_fract_z
Si Si1 0.835253 0.584814 0.161670
Si Si2 0.602142 0.162368 0.684227
Si Si3 0.382387 0.184458 0.613200
Si Si4 0.508394 0.363090 0.523195
O O1 0.709505 0.608609 0.145776
O O2 0.880349 0.705082 0.190636
O O3 0.831572 0.487217 0.231801
O O4 0.906932 0.564027 0.077569
O O5 0.498040 0.131477 0.631210
O O6 0.584293 0.116393 0.778411
O O7 0.420351 0.308444 0.587355
O O8 0.307595 0.159648 0.692962
#
# Coordination Sequence:
#
# PCOD9371512 Si02
#       4
#    16  16  16  16
#     4   9  20  37  66  97 131 172 222 275 332 396
#     4   9  20  39  64  95 129 177 224 267 326 411
#     4  10  22  41  67  96 131 176 226 273 329 402
#     4  10  22  43  69  98 133 175 224 278 335 401
#
# _framework density 27.258882
#
# number of rings (size 3 to 8) (size 9 to 14) (size 15 to 20)
#    0.000    2.500    0.000    0.000    0.000   26.000 
#    0.000   20.000    0.000   12.000    0.000    0.000 
#    0.000    0.000    0.000    0.000    0.000    0.000 
#
# Total GULP energy -89675.029494 kJ/mol
# GULP energy per Si atom -5604.689343 kJ/mol
# Density = 2.719684 g / cm^3
# Si number density = 27.258882 Si / 1000 Ang^3
#
#
#
# Elastic Constant Matrix: (Units=GPa)
#
#
# Indices 1 2 3 4 5 6 
#
# 1 125.8269 26.5277 71.6876 0.0000 0.0000 0.0000
# 2 26.5277 107.3621 28.5604 0.0000 0.0000 0.0000
# 3 71.6876 28.5604 151.4332 0.0000 0.0000 0.0000
# 4 0.0000 0.0000 0.0000 35.6502 0.0000 0.0000
# 5 0.0000 0.0000 0.0000 0.0000 68.9415 0.0000
# 6 0.0000 0.0000 0.0000 0.0000 0.0000 35.4741
#
#
#
# Elastic Compliance Matrix: (Units=1/GPa)
#
#
# Indices 1 2 3 4 5 6 
#
# 1 0.011083 -0.001414 -0.004980 0.000000 0.000000 0.000000
# 2 -0.001414 0.009987 -0.001214 0.000000 0.000000 0.000000
# 3 -0.004980 -0.001214 0.009190 0.000000 0.000000 0.000000
# 4 0.000000 0.000000 0.000000 0.028050 0.000000 0.000000
# 5 0.000000 0.000000 0.000000 0.000000 0.014505 0.000000
# 6 0.000000 0.000000 0.000000 0.000000 0.000000 0.028190
#
#
# Mechanical properties :
#
#
# Convention : Reuss Voigt Hill
#
# Bulk Modulus (GPa) = 66.47283 70.90817 68.69050
# Shear Modulus (GPa) = 41.24248 45.20294 43.22271
#
# Velocity S-wave (km/s) = 3.89394 4.07662 3.98633
# Velocity P-wave (km/s) = 6.68249 6.94462 6.81482
#
# Compressibility (1/GPa) = 0.01504374
#
# Stress axis : x y z
#
# Youngs Moduli (GPa) = 90.23119 100.13436 108.81371
#
# Poissons Ratio (x) = 0.14155 0.54188
# Poissons Ratio (y) = 0.12755 0.13213
# Poissons Ratio (z) = 0.44934 0.12159
#
# Static dielectric constant tensor:
#      x y z
#    x 2.080950 0.000000 0.000000 
#    y 0.000000 2.291960 0.000000 
#    z 0.000000 0.000000 2.056220 
# 
# From -- ./inp_files/9405.got.cif
#   From: 2010.05.17/outbox.cif.g08.bks.cpg/sg43_5_cif.got.tgz:9405.got - 2010.06.03 19:21:55.
