data_PCOD9371250
_publ_section_title
;
Structure prediction by ZEFSAII (Michael W. Deem and Ramdas Pophale) SiO2 
 PCOD9371250
Probable space group: F D D 2
;
_chemical_formula_sum "Si O2"
_cell_formula_units_Z 120
_cell_length_a 26.975374
_cell_length_b 16.598683
_cell_length_c 11.703541
_cell_angle_alpha 90.000000
_cell_angle_beta 90.000000
_cell_angle_gamma 90.000000
_cell_volume 5240.326980
_symmetry_space_group_name_H-M "F D D 2"
_symmetry_group_IT_number 43
_symmetry_cell_setting 'orthorhombic'
loop_
_space_group_symop_operation_xyz
x,y,z
-x,-y,z
1/4-x,1/4+y,1/4+z
1/4+x,1/4-y,1/4+z
x,1/2+y,1/2+z
-x,1/2-y,1/2+z
1/4-x,3/4+y,3/4+z
1/4+x,3/4-y,3/4+z
1/2+x,y,1/2+z
1/2-x,-y,1/2+z
3/4-x,1/4+y,3/4+z
3/4+x,1/4-y,3/4+z
1/2+x,1/2+y,z
1/2-x,1/2-y,z
3/4-x,3/4+y,1/4+z
3/4+x,3/4-y,1/4+z
loop_
_atom_site_type_symbol
_atom_site_label
_atom_site_fract_x
_atom_site_fract_y
_atom_site_fract_z
Si Si1 0.143802 0.883080 0.212840
Si Si2 0.250000 0.250000 0.256182
Si Si3 0.492069 0.343322 0.358967
Si Si4 0.345228 0.320025 0.223382
Si Si5 0.935487 0.379097 0.628553
Si Si6 0.179259 0.461203 0.153251
Si Si7 0.078853 0.945223 0.425357
Si Si8 0.377521 0.431945 0.806478
O O1 0.198774 0.921044 0.201136
O O2 0.116154 0.913250 0.326089
O O3 0.155436 0.786629 0.202556
O O4 0.109945 0.908207 0.103297
O O5 0.286733 0.312678 0.194226
O O6 0.290592 0.210488 0.336662
O O7 0.461934 0.352516 0.242880
O O8 0.532480 0.273159 0.351026
O O9 0.524195 0.423441 0.381736
O O10 0.376958 0.385094 0.151295
O O11 0.369432 0.238060 0.168509
O O12 0.947804 0.318908 0.526082
O O13 0.129365 0.507895 0.198699
O O14 0.171385 0.382688 0.075411
O O15 0.084321 0.883012 0.532321
#
# Coordination Sequence:
#
# PCOD9371250 Si02
#       8
#    16   8  16  16  16  16  16  16
#     4  11  25  40  67 101 133 174 234 286 347 419
#     4  12  22  42  70  96 138 188 224 294 360 406
#     4  10  23  39  66  98 131 174 227 284 352 416
#     4  10  24  41  66 101 132 180 233 288 349 428
#     4  10  23  41  66  98 138 171 235 289 356 420
#     4  10  21  42  66  94 130 180 225 286 343 421
#     4  11  23  43  67  94 136 182 221 286 355 419
#     4  10  21  42  66  91 132 179 224 278 356 408
#
# _framework density 22.899335000000001
#
# number of rings (size 3 to 8) (size 9 to 14) (size 15 to 20)
#    0.000    1.600    1.333    2.800    7.467    3.200 
#    2.400    0.000   14.667    0.000    0.000    0.000 
#    0.000    0.000    0.000    0.000    0.000    0.000 
#
# Total GULP energy -167072.458797 kJ/mol
# GULP energy per Si atom -5569.081960 kJ/mol
# Density = 2.284722 g / cm^3
# Si number density = 22.899335 Si / 1000 Ang^3
#
#
#
# Elastic Constant Matrix: (Units=GPa)
#
#
# Indices 1 2 3 4 5 6 
#
# 1 130.9113 20.0817 29.4407 0.0000 0.0000 0.0000
# 2 20.0817 79.4594 -0.4946 0.0000 0.0000 0.0000
# 3 29.4407 -0.4946 43.8920 0.0000 0.0000 0.0000
# 4 0.0000 0.0000 0.0000 30.0469 0.0000 0.0000
# 5 0.0000 0.0000 0.0000 0.0000 22.5217 0.0000
# 6 0.0000 0.0000 0.0000 0.0000 0.0000 50.3573
#
#
#
# Elastic Compliance Matrix: (Units=1/GPa)
#
#
# Indices 1 2 3 4 5 6 
#
# 1 0.009441 -0.002426 -0.006360 0.000000 0.000000 0.000000
# 2 -0.002426 0.013209 0.001776 0.000000 0.000000 0.000000
# 3 -0.006360 0.001776 0.027069 0.000000 0.000000 0.000000
# 4 0.000000 0.000000 0.000000 0.033281 0.000000 0.000000
# 5 0.000000 0.000000 0.000000 0.000000 0.044402 0.000000
# 6 0.000000 0.000000 0.000000 0.000000 0.000000 0.019858
#
#
# Mechanical properties :
#
#
# Convention : Reuss Voigt Hill
#
# Bulk Modulus (GPa) = 28.01130 39.14647 33.57888
# Shear Modulus (GPa) = 28.87168 34.26751 31.56959
#
# Velocity S-wave (km/s) = 3.55464 3.87258 3.71701
# Velocity P-wave (km/s) = 5.39502 6.09327 5.75475
#
# Compressibility (1/GPa) = 0.03569988
#
# Stress axis : x y z
#
# Youngs Moduli (GPa) = 105.91916 75.70526 36.94235
#
# Poissons Ratio (x) = 0.18363 0.23495
# Poissons Ratio (y) = 0.25692 -0.06560
# Poissons Ratio (z) = 0.67365 -0.13444
#
# Static dielectric constant tensor:
#      x y z
#    x 1.936680 0.000000 0.000000 
#    y 0.000000 2.050400 0.000000 
#    z 0.000000 0.000000 1.890230 
# 
# From -- ./inp_files/7971.got.cif
#   From: 2010.05.17/outbox.cif.g08.bks.cpg/sg43_4_cif.got.tgz:7971.got - 2010.06.03 19:21:55.
