data_PCOD9371351
_publ_section_title
;
Structure prediction by ZEFSAII (Michael W. Deem and Ramdas Pophale) SiO2 
 PCOD9371351
Probable space group: F D D 2
;
_chemical_formula_sum "Si O2"
_cell_formula_units_Z 120
_cell_length_a 8.724610
_cell_length_b 26.776567
_cell_length_c 22.875990
_cell_angle_alpha 90.000000
_cell_angle_beta 90.000000
_cell_angle_gamma 90.000000
_cell_volume 5344.176788
_symmetry_space_group_name_H-M "F D D 2"
_symmetry_group_IT_number 43
_symmetry_cell_setting 'orthorhombic'
loop_
_space_group_symop_operation_xyz
x,y,z
-x,-y,z
1/4-x,1/4+y,1/4+z
1/4+x,1/4-y,1/4+z
x,1/2+y,1/2+z
-x,1/2-y,1/2+z
1/4-x,3/4+y,3/4+z
1/4+x,3/4-y,3/4+z
1/2+x,y,1/2+z
1/2-x,-y,1/2+z
3/4-x,1/4+y,3/4+z
3/4+x,1/4-y,3/4+z
1/2+x,1/2+y,z
1/2-x,1/2-y,z
3/4-x,3/4+y,1/4+z
3/4+x,3/4-y,1/4+z
loop_
_atom_site_type_symbol
_atom_site_label
_atom_site_fract_x
_atom_site_fract_y
_atom_site_fract_z
Si Si1 0.193021 0.431261 0.236080
Si Si2 0.907396 0.575263 0.470030
Si Si3 0.734500 0.532977 0.364632
Si Si4 0.000000 0.000000 0.060919
Si Si5 0.228151 0.525181 0.150693
Si Si6 0.348386 0.320540 0.624780
Si Si7 0.880774 0.138572 0.476974
Si Si8 0.882568 0.413762 0.050991
O O1 0.283963 0.381952 0.214752
O O2 0.255226 0.446585 0.299279
O O3 0.200926 0.476365 0.189516
O O4 0.014967 0.419114 0.246776
O O5 0.870610 0.550511 0.407286
O O6 0.743216 0.570550 0.503514
O O7 0.019856 0.545768 0.514934
O O8 0.711066 0.473839 0.358671
O O9 0.570761 0.551212 0.390810
O O10 0.865501 0.013890 0.105941
O O11 0.247543 0.571805 0.196117
O O12 0.104317 0.547640 0.104635
O O13 0.423485 0.351219 0.676711
O O14 0.320276 0.361374 0.575533
O O15 0.958045 0.102734 0.523717
#
# Coordination Sequence:
#
# PCOD9371351 Si02
#       8
#    16  16  16   8  16  16  16  16
#     4  12  27  44  72 110 146 192 243 307 380 429
#     4  11  25  45  73 105 145 188 252 304 361 447
#     4  11  24  44  71 101 145 186 241 299 356 444
#     4  10  26  48  74 110 138 206 246 306 382 440
#     4  10  25  45  75 107 149 185 253 304 369 449
#     4  10  22  42  70 103 132 190 237 286 359 430
#     4  11  24  46  69 108 145 190 238 303 370 439
#     4  10  21  46  75  98 147 191 241 296 355 448
#
# _framework density 22.454346999999999
#
# number of rings (size 3 to 8) (size 9 to 14) (size 15 to 20)
#    0.000    1.333    2.667    1.200    5.600    3.200 
#    4.800    1.333    0.000    0.000    0.000    0.000 
#    0.000    0.000    0.000    0.000    0.000    0.000 
#
# Total GULP energy -167465.449937 kJ/mol
# GULP energy per Si atom -5582.181665 kJ/mol
# Density = 2.240324 g / cm^3
# Si number density = 22.454347 Si / 1000 Ang^3
#
#
#
# Elastic Constant Matrix: (Units=GPa)
#
#
# Indices 1 2 3 4 5 6 
#
# 1 47.2935 27.5927 41.4839 0.0000 0.0000 0.0000
# 2 27.5927 120.1268 62.0522 0.0000 0.0000 0.0000
# 3 41.4839 62.0522 113.0168 0.0000 0.0000 0.0000
# 4 0.0000 0.0000 0.0000 34.1393 0.0000 0.0000
# 5 0.0000 0.0000 0.0000 0.0000 61.3435 0.0000
# 6 0.0000 0.0000 0.0000 0.0000 0.0000 27.9306
#
#
#
# Elastic Compliance Matrix: (Units=1/GPa)
#
#
# Indices 1 2 3 4 5 6 
#
# 1 0.031450 -0.001760 -0.010578 0.000000 0.000000 0.000000
# 2 -0.001760 0.011719 -0.005788 0.000000 0.000000 0.000000
# 3 -0.010578 -0.005788 0.015909 0.000000 0.000000 0.000000
# 4 0.000000 0.000000 0.000000 0.029292 0.000000 0.000000
# 5 0.000000 0.000000 0.000000 0.000000 0.016302 0.000000
# 6 0.000000 0.000000 0.000000 0.000000 0.000000 0.035803
#
#
# Mechanical properties :
#
#
# Convention : Reuss Voigt Hill
#
# Bulk Modulus (GPa) = 43.81015 60.29941 52.05478
# Shear Modulus (GPa) = 27.12472 34.63656 30.88064
#
# Velocity S-wave (km/s) = 3.47939 3.93177 3.71248
# Velocity P-wave (km/s) = 5.97450 6.89379 6.45054
#
# Compressibility (1/GPa) = 0.02282576
#
# Stress axis : x y z
#
# Youngs Moduli (GPa) = 31.79689 85.33361 62.85799
#
# Poissons Ratio (x) = 0.15018 0.66489
# Poissons Ratio (y) = 0.05596 0.36383
# Poissons Ratio (z) = 0.33633 0.49393
#
# Static dielectric constant tensor:
#      x y z
#    x 0.729280 0.000000 0.000000 
#    y 0.000000 1.829980 0.000000 
#    z 0.000000 0.000000 1.848580 
# 
# From -- ./inp_files/20459.got.cif
#   From: 2010.05.17/outbox.cif.g08.bks.cpg/sg43_11_cif.got.tgz:20459.got - 2010.06.03 19:21:55.
