data_PCOD9371369
_publ_section_title
;
Structure prediction by ZEFSAII (Michael W. Deem and Ramdas Pophale) SiO2 
 PCOD9371369
Probable space group: F D D 2
;
_chemical_formula_sum "Si O2"
_cell_formula_units_Z 88
_cell_length_a 23.333511
_cell_length_b 25.163064
_cell_length_c 7.597842
_cell_angle_alpha 90.000000
_cell_angle_beta 90.000000
_cell_angle_gamma 90.000000
_cell_volume 4461.016939
_symmetry_space_group_name_H-M "F D D 2"
_symmetry_group_IT_number 43
_symmetry_cell_setting 'orthorhombic'
loop_
_space_group_symop_operation_xyz
x,y,z
-x,-y,z
1/4-x,1/4+y,1/4+z
1/4+x,1/4-y,1/4+z
x,1/2+y,1/2+z
-x,1/2-y,1/2+z
1/4-x,3/4+y,3/4+z
1/4+x,3/4-y,3/4+z
1/2+x,y,1/2+z
1/2-x,-y,1/2+z
3/4-x,1/4+y,3/4+z
3/4+x,1/4-y,3/4+z
1/2+x,1/2+y,z
1/2-x,1/2-y,z
3/4-x,3/4+y,1/4+z
3/4+x,3/4-y,1/4+z
loop_
_atom_site_type_symbol
_atom_site_label
_atom_site_fract_x
_atom_site_fract_y
_atom_site_fract_z
Si Si1 0.445278 0.664960 0.653030
Si Si2 0.000000 0.000000 0.271210
Si Si3 0.073299 0.177374 0.602262
Si Si4 0.876400 0.976761 0.188458
Si Si5 0.568897 0.450662 0.579141
Si Si6 0.137086 0.310979 0.833718
O O1 0.508263 0.689868 0.649104
O O2 0.405346 0.690957 0.799082
O O3 0.449882 0.601274 0.683334
O O4 0.414565 0.676376 0.466003
O O5 0.945203 0.979497 0.164678
O O6 0.028911 0.957375 0.405416
O O7 0.098266 0.214558 0.447492
O O8 0.116715 0.187355 0.763609
O O9 0.077844 0.115119 0.562376
O O10 0.867884 0.955000 0.387406
O O11 0.575447 0.510544 0.653256
#
# Coordination Sequence:
#
# PCOD9371369 Si02
#       6
#    16   8  16  16  16  16
#     4  11  21  36  60  88 118 151 195 247 291 355
#     4   8  16  40  62  76 120 162 196 246 284 356
#     4   9  20  36  57  87 117 152 191 240 301 344
#     4  10  22  36  60  88 117 153 200 239 290 356
#     4   9  19  37  60  83 112 155 198 236 289 346
#     4   9  20  40  57  80 118 158 192 238 296 338
#
# _framework density 19.726443
#
# number of rings (size 3 to 8) (size 9 to 14) (size 15 to 20)
#    0.000    2.909    0.000    2.182    5.091    1.455 
#    0.000   21.818    0.000    0.000    0.000    0.000 
#    0.000    0.000    0.000    0.000    0.000    0.000 
#
# Total GULP energy -122532.222843 kJ/mol
# GULP energy per Si atom -5569.646493 kJ/mol
# Density = 1.968155 g / cm^3
# Si number density = 19.726443 Si / 1000 Ang^3
#
#
#
# Elastic Constant Matrix: (Units=GPa)
#
#
# Indices 1 2 3 4 5 6 
#
# 1 158.3391 40.9458 39.0248 0.0010 -0.0041 -0.0031
# 2 40.9458 129.3082 18.7486 0.0011 -0.0030 -0.0025
# 3 39.0248 18.7486 44.1742 -0.0018 -0.0010 -0.0018
# 4 0.0010 0.0011 -0.0018 23.1146 -0.0029 -0.0028
# 5 -0.0041 -0.0030 -0.0010 -0.0029 10.8108 0.0038
# 6 -0.0031 -0.0025 -0.0018 -0.0028 0.0038 21.1551
#
#
#
# Elastic Compliance Matrix: (Units=1/GPa)
#
#
# Indices 1 2 3 4 5 6 
#
# 1 0.008406 -0.001689 -0.006709 -0.000001 0.000002 0.000000
# 2 -0.001689 0.008580 -0.002149 -0.000001 0.000002 0.000001
# 3 -0.006709 -0.002149 0.029477 0.000003 0.000000 0.000001
# 4 -0.000001 -0.000001 0.000003 0.043263 0.000012 0.000006
# 5 0.000002 0.000002 0.000000 0.000012 0.092500 -0.000016
# 6 0.000000 0.000001 0.000001 0.000006 -0.000016 0.047270
#
#
# Mechanical properties :
#
#
# Convention : Reuss Voigt Hill
#
# Bulk Modulus (GPa) = 39.42026 58.80663 49.11344
# Shear Modulus (GPa) = 19.30154 26.55625 22.92890
#
# Velocity S-wave (km/s) = 3.13143 3.67308 3.41301
# Velocity P-wave (km/s) = 5.75337 6.91841 6.36261
#
# Compressibility (1/GPa) = 0.02536767
#
# Stress axis : x y z
#
# Youngs Moduli (GPa) = 118.96432 116.55104 33.92476
#
# Poissons Ratio (x) = 0.19685 0.22761
# Poissons Ratio (y) = 0.20093 0.07292
# Poissons Ratio (z) = 0.79815 0.25052
#
# Static dielectric constant tensor:
#      x y z
#    x 1.711140 0.000000 0.000000 
#    y 0.000000 1.779680 0.000000 
#    z 0.000000 0.000000 1.680780 
# 
# From -- ./inp_files/3212.got.cif
#   From: 2010.05.17/outbox.cif.g08.bks.cpg/sg43_2_cif.got.tgz:3212.got - 2010.06.03 19:21:55.
