data_PCOD9371645
_publ_section_title
;
Structure prediction by ZEFSAII (Michael W. Deem and Ramdas Pophale) SiO2 
 PCOD9371645
Probable space group: F D D 2
;
_chemical_formula_sum "Si O2"
_cell_formula_units_Z 72
_cell_length_a 31.432256
_cell_length_b 7.248301
_cell_length_c 16.621414
_cell_angle_alpha 90.000000
_cell_angle_beta 90.000000
_cell_angle_gamma 90.000000
_cell_volume 3786.864274
_symmetry_space_group_name_H-M "F D D 2"
_symmetry_group_IT_number 43
_symmetry_cell_setting 'orthorhombic'
loop_
_space_group_symop_operation_xyz
x,y,z
-x,-y,z
1/4-x,1/4+y,1/4+z
1/4+x,1/4-y,1/4+z
x,1/2+y,1/2+z
-x,1/2-y,1/2+z
1/4-x,3/4+y,3/4+z
1/4+x,3/4-y,3/4+z
1/2+x,y,1/2+z
1/2-x,-y,1/2+z
3/4-x,1/4+y,3/4+z
3/4+x,1/4-y,3/4+z
1/2+x,1/2+y,z
1/2-x,1/2-y,z
3/4-x,3/4+y,1/4+z
3/4+x,3/4-y,1/4+z
loop_
_atom_site_type_symbol
_atom_site_label
_atom_site_fract_x
_atom_site_fract_y
_atom_site_fract_z
Si Si1 0.588992 0.250607 0.263760
Si Si2 0.503494 0.715871 0.864799
Si Si3 0.794489 0.644928 0.466616
Si Si4 0.922520 0.041386 0.620778
Si Si5 0.500000 0.500000 0.506454
O O1 0.548433 0.241888 0.321613
O O2 0.582171 0.455491 0.227104
O O3 0.630446 0.208204 0.316142
O O4 0.584560 0.099836 0.193893
O O5 0.500000 0.500000 0.877994
O O6 0.468730 0.798319 0.801803
O O7 0.503419 0.827059 0.947033
O O8 0.750000 0.750000 0.441429
O O9 0.810911 0.485696 0.407161
O O10 0.959872 0.973074 0.563189
#
# Coordination Sequence:
#
# PCOD9371645 Si02
#       5
#    16  16  16  16   8
#     4  11  24  42  68  99 138 173 224 283 331 400
#     4  11  21  41  69  95 133 176 218 272 335 396
#     4  10  22  43  71  96 134 182 222 277 336 399
#     4  12  26  43  69  99 137 177 229 279 338 400
#     4  12  24  40  68 100 128 178 226 272 332 406
#
# _framework density 19.013093000000001
#
# number of rings (size 3 to 8) (size 9 to 14) (size 15 to 20)
#    0.000    0.889    5.556    4.000    0.000    6.222 
#    0.000    0.000    0.000    0.000    0.000    0.000 
#    0.000    0.000    0.000    0.000    0.000    0.000 
#
# Total GULP energy -100516.469800 kJ/mol
# GULP energy per Si atom -5584.248322 kJ/mol
# Density = 1.896982 g / cm^3
# Si number density = 19.013093 Si / 1000 Ang^3
#
#
#
# Elastic Constant Matrix: (Units=GPa)
#
#
# Indices 1 2 3 4 5 6 
#
# 1 92.2590 53.4598 79.7856 0.0000 0.0000 0.0000
# 2 53.4598 145.1982 77.2988 0.0000 0.0000 0.0000
# 3 79.7856 77.2988 143.2871 0.0000 0.0000 0.0000
# 4 0.0000 0.0000 0.0000 56.2844 0.0000 0.0000
# 5 0.0000 0.0000 0.0000 0.0000 50.5702 0.0000
# 6 0.0000 0.0000 0.0000 0.0000 0.0000 15.2691
#
#
#
# Elastic Compliance Matrix: (Units=1/GPa)
#
#
# Indices 1 2 3 4 5 6 
#
# 1 0.021375 -0.002152 -0.010741 0.000000 0.000000 0.000000
# 2 -0.002152 0.009879 -0.004131 0.000000 0.000000 0.000000
# 3 -0.010741 -0.004131 0.015189 0.000000 0.000000 0.000000
# 4 0.000000 0.000000 0.000000 0.017767 0.000000 0.000000
# 5 0.000000 0.000000 0.000000 0.000000 0.019775 0.000000
# 6 0.000000 0.000000 0.000000 0.000000 0.000000 0.065492
#
#
# Mechanical properties :
#
#
# Convention : Reuss Voigt Hill
#
# Bulk Modulus (GPa) = 80.68401 89.09252 84.88827
# Shear Modulus (GPa) = 26.64468 35.77142 31.20805
#
# Velocity S-wave (km/s) = 3.74757 4.34223 4.05581
# Velocity P-wave (km/s) = 7.82648 8.49118 8.16560
#
# Compressibility (1/GPa) = 0.01239403
#
# Stress axis : x y z
#
# Youngs Moduli (GPa) = 46.78387 101.22889 65.83866
#
# Poissons Ratio (x) = 0.21780 0.70719
# Poissons Ratio (y) = 0.10066 0.27199
# Poissons Ratio (z) = 0.50252 0.41819
#
# Static dielectric constant tensor:
#      x y z
#    x 1.625650 0.000000 0.000000 
#    y 0.000000 1.698560 0.000000 
#    z 0.000000 0.000000 1.641750 
# 
# From -- ./inp_files/9086.got.cif
#   From: 2010.05.17/outbox.cif.g08.bks.cpg/sg43_5_cif.got.tgz:9086.got - 2010.06.03 19:21:55.
