data_PCOD9371986
_publ_section_title
;
Structure prediction by ZEFSAII (Michael W. Deem and Ramdas Pophale) SiO2 
 PCOD9371986
Probable space group: F D D 2
;
_chemical_formula_sum "Si O2"
_cell_formula_units_Z 112
_cell_length_a 15.597015
_cell_length_b 15.996720
_cell_length_c 21.618914
_cell_angle_alpha 90.000000
_cell_angle_beta 90.000000
_cell_angle_gamma 90.000000
_cell_volume 5393.942430
_symmetry_space_group_name_H-M "F D D 2"
_symmetry_group_IT_number 43
_symmetry_cell_setting 'orthorhombic'
loop_
_space_group_symop_operation_xyz
x,y,z
-x,-y,z
1/4-x,1/4+y,1/4+z
1/4+x,1/4-y,1/4+z
x,1/2+y,1/2+z
-x,1/2-y,1/2+z
1/4-x,3/4+y,3/4+z
1/4+x,3/4-y,3/4+z
1/2+x,y,1/2+z
1/2-x,-y,1/2+z
3/4-x,1/4+y,3/4+z
3/4+x,1/4-y,3/4+z
1/2+x,1/2+y,z
1/2-x,1/2-y,z
3/4-x,3/4+y,1/4+z
3/4+x,3/4-y,1/4+z
loop_
_atom_site_type_symbol
_atom_site_label
_atom_site_fract_x
_atom_site_fract_y
_atom_site_fract_z
Si Si1 0.250000 0.250000 0.540480
Si Si2 0.007288 0.280809 0.225803
Si Si3 0.201086 0.836879 0.385960
Si Si4 0.250000 0.750000 0.810375
Si Si5 0.486664 0.145879 0.889291
Si Si6 0.677997 0.062237 0.600249
Si Si7 0.863245 0.372661 0.728280
Si Si8 0.827877 0.687557 0.743610
O O1 0.275097 0.323111 0.588666
O O2 0.328953 0.203168 0.502929
O O3 0.002236 0.336784 0.164882
O O4 0.914859 0.239022 0.237812
O O5 0.040579 0.340163 0.282241
O O6 0.070182 0.202742 0.217900
O O7 0.250000 0.750000 0.395414
O O8 0.106978 0.837647 0.417300
O O9 0.185890 0.845858 0.312521
O O10 0.172121 0.789947 0.847566
O O11 0.205367 0.671974 0.774042
O O12 0.517316 0.227948 0.855031
O O13 0.561255 0.127837 0.939004
O O14 0.686794 0.109789 0.664509
O O15 0.750000 0.750000 0.731485
#
# Coordination Sequence:
#
# PCOD9371986 Si02
#       8
#     8  16  16   8  16  16  16  16
#     4  12  21  44  74 108 137 188 244 302 354 412
#     4  11  23  49  67 101 141 178 235 301 353 427
#     4  11  25  45  69 101 139 183 229 290 368 430
#     4  10  23  48  64 100 141 192 230 300 360 424
#     4  12  23  41  71 106 136 178 237 303 349 421
#     4  11  25  43  67  99 145 182 234 296 349 435
#     4  11  26  43  74 100 148 187 241 289 362 438
#     4  11  22  41  70  98 134 171 227 300 351 407
#
# _framework density 20.764033999999999
#
# number of rings (size 3 to 8) (size 9 to 14) (size 15 to 20)
#    0.000    0.857    6.429    0.429    6.000    3.429 
#    3.857    0.000    0.000    0.000    0.000    0.000 
#    0.000    0.000    0.000    0.000    0.000    0.000 
#
# Total GULP energy -156094.814200 kJ/mol
# GULP energy per Si atom -5574.814793 kJ/mol
# Density = 2.071677 g / cm^3
# Si number density = 20.764034 Si / 1000 Ang^3
#
#
#
# Elastic Constant Matrix: (Units=GPa)
#
#
# Indices 1 2 3 4 5 6 
#
# 1 66.3407 17.4198 -11.4363 0.0000 0.0000 0.0000
# 2 17.4198 71.0532 39.3370 0.0000 0.0000 0.0000
# 3 -11.4363 39.3370 73.9024 0.0000 0.0000 0.0000
# 4 0.0000 0.0000 0.0000 19.0627 0.0000 0.0000
# 5 0.0000 0.0000 0.0000 0.0000 19.4992 0.0000
# 6 0.0000 0.0000 0.0000 0.0000 0.0000 26.6936
#
#
#
# Elastic Compliance Matrix: (Units=1/GPa)
#
#
# Indices 1 2 3 4 5 6 
#
# 1 0.018676 -0.008760 0.007553 0.000000 0.000000 0.000000
# 2 -0.008760 0.024063 -0.014164 0.000000 0.000000 0.000000
# 3 0.007553 -0.014164 0.022239 0.000000 0.000000 0.000000
# 4 0.000000 0.000000 0.000000 0.052459 0.000000 0.000000
# 5 0.000000 0.000000 0.000000 0.000000 0.051284 0.000000
# 6 0.000000 0.000000 0.000000 0.000000 0.000000 0.037462
#
#
# Mechanical properties :
#
#
# Convention : Reuss Voigt Hill
#
# Bulk Modulus (GPa) = 29.20893 33.54857 31.37875
# Shear Modulus (GPa) = 20.13381 24.11615 22.12498
#
# Velocity S-wave (km/s) = 3.11730 3.41169 3.26781
# Velocity P-wave (km/s) = 5.20138 5.63131 5.42061
#
# Compressibility (1/GPa) = 0.03423611
#
# Stress axis : x y z
#
# Youngs Moduli (GPa) = 53.54460 41.55709 44.96508
#
# Poissons Ratio (x) = 0.36405 -0.33962
# Poissons Ratio (y) = 0.46906 0.63689
# Poissons Ratio (z) = -0.40442 0.58862
#
# Static dielectric constant tensor:
#      x y z
#    x 1.727050 0.000000 0.000000 
#    y 0.000000 1.764820 0.000000 
#    z 0.000000 0.000000 1.796570 
# 
# From -- ./inp_files/21749.got.cif
#   From: 2010.05.17/outbox.cif.g08.bks.cpg/sg43_11_cif.got.tgz:21749.got - 2010.06.03 19:21:55.
