data_PCOD9371451
_publ_section_title
;
Structure prediction by ZEFSAII (Michael W. Deem and Ramdas Pophale) SiO2 
 PCOD9371451
Probable space group: F D D 2
;
_chemical_formula_sum "Si O2"
_cell_formula_units_Z 120
_cell_length_a 9.320922
_cell_length_b 27.688994
_cell_length_c 20.856658
_cell_angle_alpha 90.000000
_cell_angle_beta 90.000000
_cell_angle_gamma 90.000000
_cell_volume 5382.831320
_symmetry_space_group_name_H-M "F D D 2"
_symmetry_group_IT_number 43
_symmetry_cell_setting 'orthorhombic'
loop_
_space_group_symop_operation_xyz
x,y,z
-x,-y,z
1/4-x,1/4+y,1/4+z
1/4+x,1/4-y,1/4+z
x,1/2+y,1/2+z
-x,1/2-y,1/2+z
1/4-x,3/4+y,3/4+z
1/4+x,3/4-y,3/4+z
1/2+x,y,1/2+z
1/2-x,-y,1/2+z
3/4-x,1/4+y,3/4+z
3/4+x,1/4-y,3/4+z
1/2+x,1/2+y,z
1/2-x,1/2-y,z
3/4-x,3/4+y,1/4+z
3/4+x,3/4-y,1/4+z
loop_
_atom_site_type_symbol
_atom_site_label
_atom_site_fract_x
_atom_site_fract_y
_atom_site_fract_z
Si Si1 0.835500 0.016330 0.664110
Si Si2 0.588024 0.933388 0.296645
Si Si3 0.250000 0.250000 0.265159
Si Si4 0.087201 0.080384 0.101949
Si Si5 0.551922 0.951693 0.828282
Si Si6 0.232621 0.489440 0.415616
Si Si7 0.966225 0.673085 0.987110
Si Si8 0.627303 0.603587 0.419897
O O1 0.847237 0.046707 0.730443
O O2 0.727234 0.048209 0.620893
O O3 0.767904 0.965612 0.685594
O O4 0.000000 0.000000 0.643425
O O5 0.618777 0.877689 0.311883
O O6 0.640708 0.965658 0.356814
O O7 0.419442 0.935299 0.280608
O O8 0.266050 0.295951 0.310918
O O9 0.120385 0.262830 0.217413
O O10 0.994877 0.104655 0.159583
O O11 0.651544 0.920581 0.784542
O O12 0.420822 0.919841 0.852199
O O13 0.500000 0.000000 0.792223
O O14 0.648330 0.975278 0.885356
O O15 0.305251 0.443679 0.451633
O O16 0.979996 0.623264 0.949484
#
# Coordination Sequence:
#
# PCOD9371451 Si02
#       8
#    16  16   8  16  16  16  16  16
#     4  10  23  45  69  97 134 177 234 282 340 415
#     4  10  23  42  68 101 120 179 232 284 339 404
#     4  12  26  40  68  94 140 180 214 280 354 414
#     4  11  26  43  64 100 139 176 222 281 351 405
#     4  10  22  40  65  94 128 173 220 277 335 403
#     4  10  22  44  66  92 135 172 228 277 340 416
#     4  11  22  38  70  91 129 168 228 274 336 403
#     4  10  25  39  63 100 131 171 223 272 337 406
#
# _framework density 22.293101
#
# number of rings (size 3 to 8) (size 9 to 14) (size 15 to 20)
#    0.000    1.600    1.333    1.600   10.267    2.133 
#    2.400    0.000    0.000    0.000    0.000    0.000 
#    0.000    0.000    0.000    0.000    0.000    0.000 
#
# Total GULP energy -167296.539020 kJ/mol
# GULP energy per Si atom -5576.551301 kJ/mol
# Density = 2.224236 g / cm^3
# Si number density = 22.293101 Si / 1000 Ang^3
#
#
#
# Elastic Constant Matrix: (Units=GPa)
#
#
# Indices 1 2 3 4 5 6 
#
# 1 73.2171 22.5918 19.7381 0.0000 0.0000 0.0000
# 2 22.5918 92.1341 15.6618 0.0000 0.0000 0.0000
# 3 19.7381 15.6618 34.4734 0.0000 0.0000 0.0000
# 4 0.0000 0.0000 0.0000 25.1649 0.0000 0.0000
# 5 0.0000 0.0000 0.0000 0.0000 31.3314 0.0000
# 6 0.0000 0.0000 0.0000 0.0000 0.0000 43.7611
#
#
#
# Elastic Compliance Matrix: (Units=1/GPa)
#
#
# Indices 1 2 3 4 5 6 
#
# 1 0.016741 -0.002683 -0.008367 0.000000 0.000000 0.000000
# 2 -0.002683 0.012192 -0.004003 0.000000 0.000000 0.000000
# 3 -0.008367 -0.004003 0.035617 0.000000 0.000000 0.000000
# 4 0.000000 0.000000 0.000000 0.039738 0.000000 0.000000
# 5 0.000000 0.000000 0.000000 0.000000 0.031917 0.000000
# 6 0.000000 0.000000 0.000000 0.000000 0.000000 0.022851
#
#
# Mechanical properties :
#
#
# Convention : Reuss Voigt Hill
#
# Bulk Modulus (GPa) = 29.03137 35.08978 32.06057
# Shear Modulus (GPa) = 24.91991 29.50701 27.21346
#
# Velocity S-wave (km/s) = 3.34702 3.64207 3.49766
# Velocity P-wave (km/s) = 5.29033 5.78451 5.54293
#
# Compressibility (1/GPa) = 0.03444550
#
# Stress axis : x y z
#
# Youngs Moduli (GPa) = 59.73250 82.02067 28.07662
#
# Poissons Ratio (x) = 0.22005 0.23490
# Poissons Ratio (y) = 0.16025 0.11239
# Poissons Ratio (z) = 0.49975 0.32833
#
# Static dielectric constant tensor:
#      x y z
#    x 1.893780 0.000000 0.000000 
#    y 0.000000 1.833620 0.000000 
#    z 0.000000 0.000000 1.809180 
# 
# From -- ./inp_files/20526.got.cif
#   From: 2010.05.17/outbox.cif.g08.bks.cpg/sg43_11_cif.got.tgz:20526.got - 2010.06.03 19:21:55.
