data_PCOD9371946
_publ_section_title
;
Structure prediction by ZEFSAII (Michael W. Deem and Ramdas Pophale) SiO2 
 PCOD9371946
Probable space group: F D D 2
;
_chemical_formula_sum "Si O2"
_cell_formula_units_Z 80
_cell_length_a 11.108381
_cell_length_b 11.908608
_cell_length_c 24.960635
_cell_angle_alpha 90.000000
_cell_angle_beta 90.000000
_cell_angle_gamma 90.000000
_cell_volume 3301.926458
_symmetry_space_group_name_H-M "F D D 2"
_symmetry_group_IT_number 43
_symmetry_cell_setting 'orthorhombic'
loop_
_space_group_symop_operation_xyz
x,y,z
-x,-y,z
1/4-x,1/4+y,1/4+z
1/4+x,1/4-y,1/4+z
x,1/2+y,1/2+z
-x,1/2-y,1/2+z
1/4-x,3/4+y,3/4+z
1/4+x,3/4-y,3/4+z
1/2+x,y,1/2+z
1/2-x,-y,1/2+z
3/4-x,1/4+y,3/4+z
3/4+x,1/4-y,3/4+z
1/2+x,1/2+y,z
1/2-x,1/2-y,z
3/4-x,3/4+y,1/4+z
3/4+x,3/4-y,1/4+z
loop_
_atom_site_type_symbol
_atom_site_label
_atom_site_fract_x
_atom_site_fract_y
_atom_site_fract_z
Si Si1 0.317690 0.367772 0.561970
Si Si2 0.646421 0.494253 0.463946
Si Si3 0.327209 0.025494 0.376056
Si Si4 0.511265 0.194425 0.401866
Si Si5 0.182397 0.039785 0.766876
O O1 0.250000 0.250000 0.568954
O O2 0.288186 0.418823 0.503361
O O3 0.289045 0.456534 0.609203
O O4 0.461294 0.351577 0.551351
O O5 0.500000 0.500000 0.461048
O O6 0.700030 0.505604 0.405083
O O7 0.665458 0.377245 0.495413
O O8 0.380552 0.139940 0.399115
O O9 0.401127 0.911963 0.390702
O O10 0.351150 0.045144 0.313092
O O11 0.524240 0.236507 0.462193
#
# Coordination Sequence:
#
# PCOD9371946 Si02
#       5
#    16  16  16  16  16
#     4  11  24  46  72 106 148 191 244 304 364 441
#     4  10  23  45  76 106 146 194 249 303 369 440
#     4  11  25  46  73 109 149 192 247 305 368 446
#     4  11  26  45  72 112 145 194 244 306 376 433
#     4  11  24  43  72 106 144 192 245 300 367 438
#
# _framework density 24.228280999999999
#
# number of rings (size 3 to 8) (size 9 to 14) (size 15 to 20)
#    0.000    1.200    2.000    2.400    2.800    8.800 
#    0.000    4.000    0.000    0.000    0.000    0.000 
#    0.000    0.000    0.000    0.000    0.000    0.000 
#
# Total GULP energy -111665.001272 kJ/mol
# GULP energy per Si atom -5583.250064 kJ/mol
# Density = 2.417314 g / cm^3
# Si number density = 24.228281 Si / 1000 Ang^3
#
#
#
# Elastic Constant Matrix: (Units=GPa)
#
#
# Indices 1 2 3 4 5 6 
#
# 1 79.0300 34.7311 53.3542 0.0000 0.0000 0.0000
# 2 34.7311 128.2299 75.8053 0.0000 0.0000 0.0000
# 3 53.3542 75.8053 238.4176 0.0000 0.0000 0.0000
# 4 0.0000 0.0000 0.0000 40.9073 0.0000 0.0000
# 5 0.0000 0.0000 0.0000 0.0000 34.6384 0.0000
# 6 0.0000 0.0000 0.0000 0.0000 0.0000 23.1913
#
#
#
# Elastic Compliance Matrix: (Units=1/GPa)
#
#
# Indices 1 2 3 4 5 6 
#
# 1 0.015611 -0.002664 -0.002647 0.000000 0.000000 0.000000
# 2 -0.002664 0.010058 -0.002602 0.000000 0.000000 0.000000
# 3 -0.002647 -0.002602 0.005614 0.000000 0.000000 0.000000
# 4 0.000000 0.000000 0.000000 0.024446 0.000000 0.000000
# 5 0.000000 0.000000 0.000000 0.000000 0.028870 0.000000
# 6 0.000000 0.000000 0.000000 0.000000 0.000000 0.043120
#
#
# Mechanical properties :
#
#
# Convention : Reuss Voigt Hill
#
# Bulk Modulus (GPa) = 64.68919 85.93985 75.31452
# Shear Modulus (GPa) = 33.62602 38.53321 36.07962
#
# Velocity S-wave (km/s) = 3.72947 3.99234 3.86314
# Velocity P-wave (km/s) = 6.73076 7.53655 7.14502
#
# Compressibility (1/GPa) = 0.01545853
#
# Stress axis : x y z
#
# Youngs Moduli (GPa) = 64.05862 99.42244 178.13059
#
# Poissons Ratio (x) = 0.26482 0.47143
# Poissons Ratio (y) = 0.17063 0.46348
# Poissons Ratio (z) = 0.16953 0.25869
#
# Static dielectric constant tensor:
#      x y z
#    x 2.064750 0.000000 0.000000 
#    y 0.000000 2.043900 0.000000 
#    z 0.000000 0.000000 2.001320 
# 
# From -- ./inp_files/28382.got.cif
#   From: 2010.05.17/outbox.cif.g08.bks.cpg/sg43_15_cif.got.tgz:28382.got - 2010.06.03 19:21:55.
