data_PCOD9371655
_publ_section_title
;
Structure prediction by ZEFSAII (Michael W. Deem and Ramdas Pophale) SiO2 
 PCOD9371655
Probable space group: F D D 2
;
_chemical_formula_sum "Si O2"
_cell_formula_units_Z 80
_cell_length_a 27.702922
_cell_length_b 11.228242
_cell_length_c 9.789178
_cell_angle_alpha 90.000000
_cell_angle_beta 90.000000
_cell_angle_gamma 90.000000
_cell_volume 3044.973862
_symmetry_space_group_name_H-M "F D D 2"
_symmetry_group_IT_number 43
_symmetry_cell_setting 'orthorhombic'
loop_
_space_group_symop_operation_xyz
x,y,z
-x,-y,z
1/4-x,1/4+y,1/4+z
1/4+x,1/4-y,1/4+z
x,1/2+y,1/2+z
-x,1/2-y,1/2+z
1/4-x,3/4+y,3/4+z
1/4+x,3/4-y,3/4+z
1/2+x,y,1/2+z
1/2-x,-y,1/2+z
3/4-x,1/4+y,3/4+z
3/4+x,1/4-y,3/4+z
1/2+x,1/2+y,z
1/2-x,1/2-y,z
3/4-x,3/4+y,1/4+z
3/4+x,3/4-y,1/4+z
loop_
_atom_site_type_symbol
_atom_site_label
_atom_site_fract_x
_atom_site_fract_y
_atom_site_fract_z
Si Si1 0.588001 0.935768 0.232950
Si Si2 0.688145 0.296405 0.754554
Si Si3 0.081096 0.661598 0.079897
Si Si4 0.575503 0.563385 0.288877
Si Si5 0.772124 0.991847 0.871576
O O1 0.560777 0.961598 0.375467
O O2 0.604888 0.065086 0.180213
O O3 0.634500 0.853756 0.255746
O O4 0.551275 0.880758 0.123231
O O5 0.721991 0.413687 0.748063
O O6 0.695245 0.239563 0.906593
O O7 0.119985 0.762964 0.044320
O O8 0.033192 0.714621 0.146509
O O9 0.064834 0.586129 0.947046
O O10 0.554231 0.688723 0.234094
#
# Coordination Sequence:
#
# PCOD9371655 Si02
#       5
#    16  16  16  16  16
#     4  12  21  43  77 110 154 203 260 321 401 468
#     4  10  22  43  78 106 149 201 256 320 385 476
#     4  12  25  47  74 110 154 203 255 339 400 472
#     4  10  25  46  74 106 158 195 256 334 393 463
#     4  10  26  45  75 111 148 205 268 308 392 492
#
# _framework density 26.272804000000001
#
# number of rings (size 3 to 8) (size 9 to 14) (size 15 to 20)
#    1.200    0.000    2.000    4.200    2.800    0.000 
#    3.600    1.000    0.000    0.000    0.000    0.000 
#    0.000    0.000    0.000    0.000    0.000    0.000 
#
# Total GULP energy -111452.113815 kJ/mol
# GULP energy per Si atom -5572.605691 kJ/mol
# Density = 2.621301 g / cm^3
# Si number density = 26.272804 Si / 1000 Ang^3
#
#
#
# Elastic Constant Matrix: (Units=GPa)
#
#
# Indices 1 2 3 4 5 6 
#
# 1 155.4105 63.6011 15.4428 0.0000 0.0000 0.0000
# 2 63.6011 89.3026 42.1670 0.0000 0.0000 0.0000
# 3 15.4428 42.1670 111.1934 0.0000 0.0000 0.0000
# 4 0.0000 0.0000 0.0000 31.9885 0.0000 0.0000
# 5 0.0000 0.0000 0.0000 0.0000 10.2777 0.0000
# 6 0.0000 0.0000 0.0000 0.0000 0.0000 -39.3165
#
#
#
# Elastic Compliance Matrix: (Units=1/GPa)
#
#
# Indices 1 2 3 4 5 6 
#
# 1 0.009278 -0.007308 0.001483 0.000000 0.000000 0.000000
# 2 -0.007308 0.019396 -0.006341 0.000000 0.000000 0.000000
# 3 0.001483 -0.006341 0.011192 0.000000 0.000000 0.000000
# 4 0.000000 0.000000 0.000000 0.031261 0.000000 0.000000
# 5 0.000000 0.000000 0.000000 0.000000 0.097298 0.000000
# 6 0.000000 0.000000 0.000000 0.000000 0.000000 -0.025435
#
#
# Mechanical properties :
#
#
# Convention : Reuss Voigt Hill
#
# Bulk Modulus (GPa) = 64.37139 66.48091 65.42615
# Shear Modulus (GPa) = 28.98545 16.23632 22.61088
#
# Velocity S-wave (km/s) = 3.32512 2.48864 2.93681
# Velocity P-wave (km/s) = 6.26867 5.79800 6.03792
#
# Compressibility (1/GPa) = 0.01553485
#
# Stress axis : x y z
#
# Youngs Moduli (GPa) = 107.78241 51.55576 89.35017
#
# Poissons Ratio (x) = 0.37676 -0.13249
# Poissons Ratio (y) = 0.78766 0.56654
# Poissons Ratio (z) = -0.15982 0.32690
#
# Static dielectric constant tensor:
#      x y z
#    x 1.970040 0.000000 0.000000 
#    y 0.000000 2.142580 0.000000 
#    z 0.000000 0.000000 2.102760 
# 
# From -- ./inp_files/8185.got.cif
#   From: 2010.05.17/outbox.cif.g08.bks.cpg/sg43_5_cif.got.tgz:8185.got - 2010.06.03 19:21:55.
