data_PCOD9371501
_publ_section_title
;
Structure prediction by ZEFSAII (Michael W. Deem and Ramdas Pophale) SiO2 
 PCOD9371501
Probable space group: F D D 2
;
_chemical_formula_sum "Si O2"
_cell_formula_units_Z 120
_cell_length_a 17.156943
_cell_length_b 12.725380
_cell_length_c 28.479647
_cell_angle_alpha 90.000000
_cell_angle_beta 90.000000
_cell_angle_gamma 90.000000
_cell_volume 6217.922008
_symmetry_space_group_name_H-M "F D D 2"
_symmetry_group_IT_number 43
_symmetry_cell_setting 'orthorhombic'
loop_
_space_group_symop_operation_xyz
x,y,z
-x,-y,z
1/4-x,1/4+y,1/4+z
1/4+x,1/4-y,1/4+z
x,1/2+y,1/2+z
-x,1/2-y,1/2+z
1/4-x,3/4+y,3/4+z
1/4+x,3/4-y,3/4+z
1/2+x,y,1/2+z
1/2-x,-y,1/2+z
3/4-x,1/4+y,3/4+z
3/4+x,1/4-y,3/4+z
1/2+x,1/2+y,z
1/2-x,1/2-y,z
3/4-x,3/4+y,1/4+z
3/4+x,3/4-y,1/4+z
loop_
_atom_site_type_symbol
_atom_site_label
_atom_site_fract_x
_atom_site_fract_y
_atom_site_fract_z
Si Si1 0.535957 0.832180 0.768180
Si Si2 0.948614 0.106496 0.101228
Si Si3 0.683762 0.007646 0.656471
Si Si4 0.000000 0.500000 0.135466
Si Si5 0.083108 0.990214 0.904596
Si Si6 0.999411 0.726196 0.176744
Si Si7 0.375638 0.711483 0.013019
Si Si8 0.080022 0.203393 0.855088
O O1 0.548759 0.774375 0.718863
O O2 0.453850 0.892871 0.762362
O O3 0.539168 0.745744 0.808592
O O4 0.598726 0.922580 0.779459
O O5 0.930742 0.153034 0.049998
O O6 0.987153 0.199089 0.131888
O O7 0.868541 0.076033 0.128802
O O8 0.000000 0.000000 0.100760
O O9 0.662248 0.122519 0.635684
O O10 0.660355 0.020326 0.710983
O O11 0.775917 0.997045 0.646566
O O12 0.986590 0.394789 0.165549
O O13 0.079752 0.485207 0.106809
O O14 0.156853 0.014367 0.936713
O O15 0.080379 0.078679 0.864487
O O16 0.000000 0.000000 0.930413
#
# Coordination Sequence:
#
# PCOD9371501 Si02
#       8
#    16  16  16   8  16  16  16  16
#     4  11  21  40  64  96 128 176 221 280 340 404
#     4  12  22  38  67 103 134 171 225 283 344 412
#     4  11  20  41  63 100 130 170 219 288 343 395
#     4  10  24  46  62  90 128 194 228 270 334 414
#     4   9  19  35  63  84 123 171 209 267 330 385
#     4  11  21  41  66  90 133 175 225 278 336 400
#     4  11  23  37  65 101 135 166 222 285 345 405
#     4  10  22  41  65  87 131 176 223 270 339 402
#
# _framework density 19.299050999999999
#
# number of rings (size 3 to 8) (size 9 to 14) (size 15 to 20)
#    0.000    1.333    5.333    0.800    0.000    1.600 
#    3.600    4.000    0.000    0.000    0.000    0.000 
#    0.000    0.000    0.000    0.000    0.000    0.000 
#
# Total GULP energy -167221.088880 kJ/mol
# GULP energy per Si atom -5574.036296 kJ/mol
# Density = 1.925513 g / cm^3
# Si number density = 19.299051 Si / 1000 Ang^3
#
#
#
# Elastic Constant Matrix: (Units=GPa)
#
#
# Indices 1 2 3 4 5 6 
#
# 1 71.4832 4.4958 19.5398 0.0000 0.0000 0.0000
# 2 4.4958 101.3912 30.2380 0.0000 0.0000 0.0000
# 3 19.5398 30.2380 94.1574 0.0000 0.0000 0.0000
# 4 0.0000 0.0000 0.0000 28.2150 0.0000 0.0000
# 5 0.0000 0.0000 0.0000 0.0000 16.5334 0.0000
# 6 0.0000 0.0000 0.0000 0.0000 0.0000 20.9520
#
#
#
# Elastic Compliance Matrix: (Units=1/GPa)
#
#
# Indices 1 2 3 4 5 6 
#
# 1 0.014838 0.000288 -0.003172 0.000000 0.000000 0.000000
# 2 0.000288 0.010913 -0.003564 0.000000 0.000000 0.000000
# 3 -0.003172 -0.003564 0.012423 0.000000 0.000000 0.000000
# 4 0.000000 0.000000 0.000000 0.035442 0.000000 0.000000
# 5 0.000000 0.000000 0.000000 0.000000 0.060484 0.000000
# 6 0.000000 0.000000 0.000000 0.000000 0.000000 0.047728
#
#
# Mechanical properties :
#
#
# Convention : Reuss Voigt Hill
#
# Bulk Modulus (GPa) = 39.55966 41.73099 40.64533
# Shear Modulus (GPa) = 24.61225 27.32397 25.96811
#
# Velocity S-wave (km/s) = 3.57502 3.76682 3.67217
# Velocity P-wave (km/s) = 6.13056 6.37094 6.25190
#
# Compressibility (1/GPa) = 0.02527827
#
# Stress axis : x y z
#
# Youngs Moduli (GPa) = 67.39373 91.63353 80.49325
#
# Poissons Ratio (x) = -0.02639 0.25530
# Poissons Ratio (y) = -0.01941 0.28691
# Poissons Ratio (z) = 0.21376 0.32662
#
# Static dielectric constant tensor:
#      x y z
#    x 1.733850 0.000000 0.000000 
#    y 0.000000 1.682880 0.000000 
#    z 0.000000 0.000000 1.667010 
# 
# From -- ./inp_files/25720.got.cif
#   From: 2010.05.17/outbox.cif.g08.bks.cpg/sg43_13_cif.got.tgz:25720.got - 2010.06.03 19:21:55.
