data_PCOD9371055
_publ_section_title
;
Structure prediction by ZEFSAII (Michael W. Deem and Ramdas Pophale) SiO2 
 PCOD9371055
Probable space group: F D D 2
;
_chemical_formula_sum "Si O2"
_cell_formula_units_Z 80
_cell_length_a 20.425260
_cell_length_b 16.714433
_cell_length_c 8.878260
_cell_angle_alpha 90.000000
_cell_angle_beta 90.000000
_cell_angle_gamma 90.000000
_cell_volume 3031.008131
_symmetry_space_group_name_H-M "F D D 2"
_symmetry_group_IT_number 43
_symmetry_cell_setting 'orthorhombic'
loop_
_space_group_symop_operation_xyz
x,y,z
-x,-y,z
1/4-x,1/4+y,1/4+z
1/4+x,1/4-y,1/4+z
x,1/2+y,1/2+z
-x,1/2-y,1/2+z
1/4-x,3/4+y,3/4+z
1/4+x,3/4-y,3/4+z
1/2+x,y,1/2+z
1/2-x,-y,1/2+z
3/4-x,1/4+y,3/4+z
3/4+x,1/4-y,3/4+z
1/2+x,1/2+y,z
1/2-x,1/2-y,z
3/4-x,3/4+y,1/4+z
3/4+x,3/4-y,1/4+z
loop_
_atom_site_type_symbol
_atom_site_label
_atom_site_fract_x
_atom_site_fract_y
_atom_site_fract_z
Si Si1 0.360512 0.970871 0.064340
Si Si2 0.409037 0.805376 0.636628
Si Si3 0.732897 0.159108 0.728651
Si Si4 0.748042 0.425908 0.427469
Si Si5 0.463456 0.568630 0.401923
O O1 0.340196 0.877965 0.075747
O O2 0.357323 0.015046 0.225704
O O3 0.429135 0.002180 0.006648
O O4 0.310370 0.012157 0.948542
O O5 0.346797 0.845683 0.716441
O O6 0.471719 0.860766 0.597101
O O7 0.437501 0.727768 0.721378
O O8 0.750000 0.250000 0.743852
O O9 0.759036 0.135871 0.562041
O O10 0.753632 0.385103 0.264200
O O11 0.500000 0.500000 0.303272
#
# Coordination Sequence:
#
# PCOD9371055 Si02
#       5
#    16  16  16  16  16
#     4  10  22  37  63  96 124 168 220 269 334 401
#     4  10  22  38  62  97 128 172 215 281 334 404
#     4  11  21  37  68  95 127 171 227 271 332 401
#     4  10  21  38  61  93 129 161 219 274 328 400
#     4  11  21  38  65  91 125 168 216 271 331 396
#
# _framework density 26.393857000000001
#
# number of rings (size 3 to 8) (size 9 to 14) (size 15 to 20)
#    0.000    1.600    2.000    3.000    8.400    0.000 
#    3.600    1.000    0.000    0.000    0.000    0.000 
#    0.000    0.000    0.000    0.000    0.000    0.000 
#
# Total GULP energy -111595.180113 kJ/mol
# GULP energy per Si atom -5579.759006 kJ/mol
# Density = 2.633378 g / cm^3
# Si number density = 26.393857 Si / 1000 Ang^3
#
#
#
# Elastic Constant Matrix: (Units=GPa)
#
#
# Indices 1 2 3 4 5 6 
#
# 1 129.1838 61.3627 20.0118 0.0000 0.0000 0.0000
# 2 61.3627 177.6777 59.2200 0.0000 0.0000 0.0000
# 3 20.0118 59.2200 62.7213 0.0001 0.0001 0.0000
# 4 0.0000 0.0000 0.0001 12.9345 0.0000 0.0000
# 5 0.0000 0.0000 0.0001 0.0000 -98.0462 0.0000
# 6 0.0000 0.0000 0.0000 0.0000 0.0000 63.7190
#
#
#
# Elastic Compliance Matrix: (Units=1/GPa)
#
#
# Indices 1 2 3 4 5 6 
#
# 1 0.009260 -0.003230 0.000095 0.000000 0.000000 0.000000
# 2 -0.003230 0.009339 -0.007787 0.000000 0.000000 0.000000
# 3 0.000095 -0.007787 0.023266 0.000000 0.000000 0.000000
# 4 0.000000 0.000000 0.000000 0.077312 0.000000 0.000000
# 5 0.000000 0.000000 0.000000 0.000000 -0.010199 0.000000
# 6 0.000000 0.000000 0.000000 0.000000 0.000000 0.015694
#
#
# Mechanical properties :
#
#
# Convention : Reuss Voigt Hill
#
# Bulk Modulus (GPa) = 49.94764 72.30799 61.12781
# Shear Modulus (GPa) = 32.63913 10.98736 21.81325
#
# Velocity S-wave (km/s) = 3.52037 2.04252 2.87793
# Velocity P-wave (km/s) = 5.95727 5.74611 5.85264
#
# Compressibility (1/GPa) = 0.02002097
#
# Stress axis : x y z
#
# Youngs Moduli (GPa) = 107.98709 107.07657 42.98142
#
# Poissons Ratio (x) = 0.34583 -0.00408
# Poissons Ratio (y) = 0.34877 0.33471
# Poissons Ratio (z) = -0.01025 0.83384
#
# Static dielectric constant tensor:
#      x y z
#    x 2.713170 0.000000 0.000000 
#    y 0.000000 1.995510 0.000000 
#    z 0.000000 0.000000 2.054340 
# 
# From -- ./inp_files/6083.got.cif
#   From: 2010.05.17/outbox.cif.g08.bks.cpg/sg43_4_cif.got.tgz:6083.got - 2010.06.03 19:21:55.
