data_PCOD9371931
_publ_section_title
;
Structure prediction by ZEFSAII (Michael W. Deem and Ramdas Pophale) SiO2 
 PCOD9371931
Probable space group: F D D 2
;
_chemical_formula_sum "Si O2"
_cell_formula_units_Z 120
_cell_length_a 12.527055
_cell_length_b 26.328270
_cell_length_c 16.490609
_cell_angle_alpha 90.000000
_cell_angle_beta 90.000000
_cell_angle_gamma 90.000000
_cell_volume 5438.861526
_symmetry_space_group_name_H-M "F D D 2"
_symmetry_group_IT_number 43
_symmetry_cell_setting 'orthorhombic'
loop_
_space_group_symop_operation_xyz
x,y,z
-x,-y,z
1/4-x,1/4+y,1/4+z
1/4+x,1/4-y,1/4+z
x,1/2+y,1/2+z
-x,1/2-y,1/2+z
1/4-x,3/4+y,3/4+z
1/4+x,3/4-y,3/4+z
1/2+x,y,1/2+z
1/2-x,-y,1/2+z
3/4-x,1/4+y,3/4+z
3/4+x,1/4-y,3/4+z
1/2+x,1/2+y,z
1/2-x,1/2-y,z
3/4-x,3/4+y,1/4+z
3/4+x,3/4-y,1/4+z
loop_
_atom_site_type_symbol
_atom_site_label
_atom_site_fract_x
_atom_site_fract_y
_atom_site_fract_z
Si Si1 0.116459 0.502569 0.601650
Si Si2 0.188491 0.826521 0.538399
Si Si3 0.077351 0.695619 0.282741
Si Si4 0.500000 0.000000 0.147762
Si Si5 0.906362 0.464181 0.784260
Si Si6 0.618279 0.661669 0.154720
Si Si7 0.482643 0.237493 0.133276
Si Si8 0.911775 0.110776 0.079441
O O1 0.209732 0.536492 0.563749
O O2 0.093873 0.529942 0.687498
O O3 0.139076 0.441910 0.610881
O O4 0.000000 0.500000 0.558385
O O5 0.158031 0.885319 0.530566
O O6 0.197962 0.792556 0.457330
O O7 0.305053 0.827898 0.579608
O O8 0.105822 0.800364 0.600123
O O9 0.162705 0.723066 0.340243
O O10 0.072199 0.713645 0.190129
O O11 0.791576 0.485886 0.808870
O O12 0.916314 0.409328 0.826153
O O13 0.000000 0.500000 0.814088
O O14 0.570859 0.715908 0.180809
O O15 0.517711 0.627169 0.128081
O O16 0.684170 0.642890 0.232487
#
# Coordination Sequence:
#
# PCOD9371931 Si02
#       8
#    16  16  16   8  16  16  16  16
#     4  11  23  43  72 106 138 181 243 304 360 427
#     4  12  25  47  72 103 142 197 238 297 366 433
#     4  12  27  46  72 106 147 189 247 298 364 440
#     4  12  28  50  72 110 154 192 240 306 368 448
#     4  10  23  45  67  98 138 179 232 294 360 435
#     4  11  23  40  71 104 145 177 245 299 362 424
#     4  11  24  45  68 101 138 186 235 297 345 435
#     4  11  23  42  69 108 138 189 233 307 370 418
#
# _framework density 22.063441999999998
#
# number of rings (size 3 to 8) (size 9 to 14) (size 15 to 20)
#    0.000    0.800    2.667    4.800    8.400    0.000 
#    7.200    0.000    0.000    0.000    0.000    0.000 
#    0.000    0.000    0.000    0.000    0.000    0.000 
#
# Total GULP energy -167518.968295 kJ/mol
# GULP energy per Si atom -5583.965610 kJ/mol
# Density = 2.201322 g / cm^3
# Si number density = 22.063442 Si / 1000 Ang^3
#
#
#
# Elastic Constant Matrix: (Units=GPa)
#
#
# Indices 1 2 3 4 5 6 
#
# 1 55.3012 38.3872 30.8401 0.0000 0.0000 0.0000
# 2 38.3872 190.9756 48.8947 0.0000 0.0000 0.0000
# 3 30.8401 48.8947 83.2522 0.0000 0.0000 0.0000
# 4 0.0000 0.0000 0.0000 14.5651 0.0000 0.0000
# 5 0.0000 0.0000 0.0000 0.0000 25.2791 0.0000
# 6 0.0000 0.0000 0.0000 0.0000 0.0000 35.6468
#
#
#
# Elastic Compliance Matrix: (Units=1/GPa)
#
#
# Indices 1 2 3 4 5 6 
#
# 1 0.024188 -0.003022 -0.007185 0.000000 0.000000 0.000000
# 2 -0.003022 0.006541 -0.002722 0.000000 0.000000 0.000000
# 3 -0.007185 -0.002722 0.016272 0.000000 0.000000 0.000000
# 4 0.000000 0.000000 0.000000 0.068657 0.000000 0.000000
# 5 0.000000 0.000000 0.000000 0.000000 0.039558 0.000000
# 6 0.000000 0.000000 0.000000 0.000000 0.000000 0.028053
#
#
# Mechanical properties :
#
#
# Convention : Reuss Voigt Hill
#
# Bulk Modulus (GPa) = 47.29963 62.86366 55.08165
# Shear Modulus (GPa) = 23.12949 29.19201 26.16075
#
# Velocity S-wave (km/s) = 3.24129 3.64138 3.44714
# Velocity P-wave (km/s) = 5.95755 6.79953 6.39242
#
# Compressibility (1/GPa) = 0.02114181
#
# Stress axis : x y z
#
# Youngs Moduli (GPa) = 41.34341 152.89086 61.45573
#
# Poissons Ratio (x) = 0.46208 0.44157
# Poissons Ratio (y) = 0.12495 0.16727
# Poissons Ratio (z) = 0.29706 0.41613
#
# Static dielectric constant tensor:
#      x y z
#    x 1.822000 0.000000 0.000000 
#    y 0.000000 1.899780 0.000000 
#    z 0.000000 0.000000 1.857100 
# 
# From -- ./inp_files/13460.got.cif
#   From: 2010.05.17/outbox.cif.g08.bks.cpg/sg43_7_cif.got.tgz:13460.got - 2010.06.03 19:21:55.
