data_PCOD9371832
_publ_section_title
;
Structure prediction by ZEFSAII (Michael W. Deem and Ramdas Pophale) SiO2 
 PCOD9371832
Probable space group: F D D 2
;
_chemical_formula_sum "Si O2"
_cell_formula_units_Z 120
_cell_length_a 14.613273
_cell_length_b 26.119185
_cell_length_c 12.578579
_cell_angle_alpha 90.000000
_cell_angle_beta 90.000000
_cell_angle_gamma 90.000000
_cell_volume 4801.077327
_symmetry_space_group_name_H-M "F D D 2"
_symmetry_group_IT_number 43
_symmetry_cell_setting 'orthorhombic'
loop_
_space_group_symop_operation_xyz
x,y,z
-x,-y,z
1/4-x,1/4+y,1/4+z
1/4+x,1/4-y,1/4+z
x,1/2+y,1/2+z
-x,1/2-y,1/2+z
1/4-x,3/4+y,3/4+z
1/4+x,3/4-y,3/4+z
1/2+x,y,1/2+z
1/2-x,-y,1/2+z
3/4-x,1/4+y,3/4+z
3/4+x,1/4-y,3/4+z
1/2+x,1/2+y,z
1/2-x,1/2-y,z
3/4-x,3/4+y,1/4+z
3/4+x,3/4-y,1/4+z
loop_
_atom_site_type_symbol
_atom_site_label
_atom_site_fract_x
_atom_site_fract_y
_atom_site_fract_z
Si Si1 0.000000 0.000000 0.444811
Si Si2 0.058055 0.250361 0.912685
Si Si3 0.495421 0.415810 0.120588
Si Si4 0.112818 0.782902 0.016425
Si Si5 0.483229 0.863766 0.427054
Si Si6 0.319293 0.168851 0.995784
Si Si7 0.755978 0.359033 0.280824
Si Si8 0.453960 0.836685 0.811715
O O1 0.084137 0.016926 0.370714
O O2 0.974586 0.049226 0.512565
O O3 0.060829 0.190011 0.889946
O O4 0.021982 0.287480 0.819443
O O5 0.148405 0.274207 0.965645
O O6 0.971666 0.254547 0.994151
O O7 0.438801 0.461051 0.175713
O O8 0.597417 0.430104 0.077714
O O9 0.488592 0.370848 0.211585
O O10 0.438077 0.398122 0.017627
O O11 0.063929 0.838225 0.001079
O O12 0.507313 0.901935 0.330187
O O13 0.406067 0.143268 0.053179
O O14 0.307050 0.139682 0.884267
O O15 0.719472 0.380030 0.168876
#
# Coordination Sequence:
#
# PCOD9371832 Si02
#       8
#     8  16  16  16  16  16  16  16
#     4  12  22  42  74 110 142 180 262 322 368 476
#     4   9  23  45  68 104 138 198 251 300 375 454
#     4  12  21  43  71 104 140 192 237 310 387 449
#     4  10  23  41  72 103 142 186 249 306 386 450
#     4  10  25  46  68 101 150 203 245 310 382 469
#     4  11  26  46  71  98 153 192 251 306 388 449
#     4  11  26  41  72 105 138 196 238 314 386 445
#     4  11  21  40  69 101 144 175 249 307 372 447
#
# _framework density 24.994391
#
# number of rings (size 3 to 8) (size 9 to 14) (size 15 to 20)
#    0.800    0.533    2.667    2.400    7.467    0.000 
#    7.200    0.000    0.000    0.000    0.000    0.000 
#    0.000    0.000    0.000    0.000    0.000    0.000 
#
# Total GULP energy -167196.628356 kJ/mol
# GULP energy per Si atom -5573.220945 kJ/mol
# Density = 2.493750 g / cm^3
# Si number density = 24.994391 Si / 1000 Ang^3
#
#
#
# Elastic Constant Matrix: (Units=GPa)
#
#
# Indices 1 2 3 4 5 6 
#
# 1 91.7203 4.2527 32.2421 0.0000 0.0000 0.0000
# 2 4.2527 93.7947 24.0004 0.0000 0.0000 0.0000
# 3 32.2421 24.0004 130.5665 0.0000 0.0000 0.0000
# 4 0.0000 0.0000 0.0000 26.0057 0.0000 0.0000
# 5 0.0000 0.0000 0.0000 0.0000 26.2261 0.0000
# 6 0.0000 0.0000 0.0000 0.0000 0.0000 22.7725
#
#
#
# Elastic Compliance Matrix: (Units=1/GPa)
#
#
# Indices 1 2 3 4 5 6 
#
# 1 0.011944 0.000224 -0.002990 0.000000 0.000000 0.000000
# 2 0.000224 0.011192 -0.002113 0.000000 0.000000 0.000000
# 3 -0.002990 -0.002113 0.008786 0.000000 0.000000 0.000000
# 4 0.000000 0.000000 0.000000 0.038453 0.000000 0.000000
# 5 0.000000 0.000000 0.000000 0.000000 0.038130 0.000000
# 6 0.000000 0.000000 0.000000 0.000000 0.000000 0.043913
#
#
# Mechanical properties :
#
#
# Convention : Reuss Voigt Hill
#
# Bulk Modulus (GPa) = 45.12092 48.56356 46.84224
# Shear Modulus (GPa) = 29.48752 32.03992 30.76372
#
# Velocity S-wave (km/s) = 3.43850 3.58423 3.51212
# Velocity P-wave (km/s) = 5.81859 6.04986 5.93535
#
# Compressibility (1/GPa) = 0.02216267
#
# Stress axis : x y z
#
# Youngs Moduli (GPa) = 83.72710 89.34954 113.82106
#
# Poissons Ratio (x) = -0.01999 0.34038
# Poissons Ratio (y) = -0.01873 0.24045
# Poissons Ratio (z) = 0.25038 0.18875
#
# Static dielectric constant tensor:
#      x y z
#    x 2.244230 0.000000 0.000000 
#    y 0.000000 2.127470 0.000000 
#    z 0.000000 0.000000 2.014660 
# 
# From -- ./inp_files/6876.got.cif
#   From: 2010.05.17/outbox.cif.g08.bks.cpg/sg43_4_cif.got.tgz:6876.got - 2010.06.03 19:21:55.
