data_PCOD9371366
_publ_section_title
;
Structure prediction by ZEFSAII (Michael W. Deem and Ramdas Pophale) SiO2 
 PCOD9371366
Probable space group: F D D 2
;
_chemical_formula_sum "Si O2"
_cell_formula_units_Z 64
_cell_length_a 30.864471
_cell_length_b 17.611026
_cell_length_c 5.273743
_cell_angle_alpha 90.000000
_cell_angle_beta 90.000000
_cell_angle_gamma 90.000000
_cell_volume 2866.569383
_symmetry_space_group_name_H-M "F D D 2"
_symmetry_group_IT_number 43
_symmetry_cell_setting 'orthorhombic'
loop_
_space_group_symop_operation_xyz
x,y,z
-x,-y,z
1/4-x,1/4+y,1/4+z
1/4+x,1/4-y,1/4+z
x,1/2+y,1/2+z
-x,1/2-y,1/2+z
1/4-x,3/4+y,3/4+z
1/4+x,3/4-y,3/4+z
1/2+x,y,1/2+z
1/2-x,-y,1/2+z
3/4-x,1/4+y,3/4+z
3/4+x,1/4-y,3/4+z
1/2+x,1/2+y,z
1/2-x,1/2-y,z
3/4-x,3/4+y,1/4+z
3/4+x,3/4-y,1/4+z
loop_
_atom_site_type_symbol
_atom_site_label
_atom_site_fract_x
_atom_site_fract_y
_atom_site_fract_z
Si Si1 0.227346 0.029992 0.225490
Si Si2 0.446810 0.055323 0.562691
Si Si3 0.855938 0.060272 0.282475
Si Si4 0.177031 0.772853 0.310808
O O1 0.224305 0.118211 0.301291
O O2 0.245931 0.985653 0.470160
O O3 0.179124 0.998056 0.176111
O O4 0.395865 0.078164 0.595029
O O5 0.452054 0.000436 0.804369
O O6 0.450242 0.010259 0.303800
O O7 0.832288 0.138779 0.340254
O O8 0.880785 0.020292 0.516828
#
# Coordination Sequence:
#
# PCOD9371366 Si02
#       4
#    16  16  16  16
#     4  12  27  44  67  99 143 175 211 282 353 385
#     4  10  22  42  64  96 128 171 229 261 316 411
#     4  10  23  41  68  98 125 179 224 275 316 405
#     4  10  22  35  72  90 126 161 239 268 306 378
#
# _framework density 22.326339000000001
#
# number of rings (size 3 to 8) (size 9 to 14) (size 15 to 20)
#    1.500    0.000    2.500    1.500   10.500    0.000 
#    0.000    7.500    0.000    0.000    0.000    0.000 
#    0.000    0.000    0.000    0.000    0.000    0.000 
#
# Total GULP energy -89349.327205 kJ/mol
# GULP energy per Si atom -5584.332950 kJ/mol
# Density = 2.227552 g / cm^3
# Si number density = 22.326339 Si / 1000 Ang^3
#
#
#
# Elastic Constant Matrix: (Units=GPa)
#
#
# Indices 1 2 3 4 5 6 
#
# 1 82.0186 12.8247 9.4733 -0.0005 0.0001 -0.0003
# 2 12.8247 117.1112 11.0373 0.0003 -0.0003 -0.0002
# 3 9.4733 11.0373 113.8065 0.0005 -0.0021 0.0008
# 4 -0.0005 0.0003 0.0005 83.8279 0.0049 -0.0022
# 5 0.0001 -0.0003 -0.0021 0.0049 68.2862 -0.0007
# 6 -0.0003 -0.0002 0.0008 -0.0022 -0.0007 34.0317
#
#
#
# Elastic Compliance Matrix: (Units=1/GPa)
#
#
# Indices 1 2 3 4 5 6 
#
# 1 0.012499 -0.001282 -0.000916 0.000000 0.000000 0.000000
# 2 -0.001282 0.008749 -0.000742 0.000000 0.000000 0.000000
# 3 -0.000916 -0.000742 0.008935 0.000000 0.000000 0.000000
# 4 0.000000 0.000000 0.000000 0.011929 -0.000001 0.000001
# 5 0.000000 0.000000 0.000000 -0.000001 0.014644 0.000000
# 6 0.000000 0.000000 0.000000 0.000001 0.000000 0.029384
#
#
# Mechanical properties :
#
#
# Convention : Reuss Voigt Hill
#
# Bulk Modulus (GPa) = 41.14792 42.17855 41.66323
# Shear Modulus (GPa) = 49.93907 55.86922 52.90415
#
# Velocity S-wave (km/s) = 4.73459 5.00782 4.87312
# Velocity P-wave (km/s) = 6.95404 7.23675 7.09680
#
# Compressibility (1/GPa) = 0.02430257
#
# Stress axis : x y z
#
# Youngs Moduli (GPa) = 80.00848 114.29574 111.91900
#
# Poissons Ratio (x) = 0.14657 0.10252
# Poissons Ratio (y) = 0.10260 0.08302
# Poissons Ratio (z) = 0.07329 0.08478
#
# Static dielectric constant tensor:
#      x y z
#    x 1.884320 0.000000 0.000000 
#    y 0.000000 1.755340 0.000000 
#    z 0.000000 0.000000 1.774800 
# 
# From -- ./inp_files/521.got.cif
#   From: 2010.05.17/outbox.cif.g08.bks.cpg/sg43_1_cif.got.tgz:521.got - 2010.06.03 19:21:55.
