data_PCOD9371728
_publ_section_title
;
Structure prediction by ZEFSAII (Michael W. Deem and Ramdas Pophale) SiO2 
 PCOD9371728
Probable space group: F D D 2
;
_chemical_formula_sum "Si O2"
_cell_formula_units_Z 120
_cell_length_a 25.644793
_cell_length_b 28.287669
_cell_length_c 7.450670
_cell_angle_alpha 90.000000
_cell_angle_beta 90.000000
_cell_angle_gamma 90.000000
_cell_volume 5404.950088
_symmetry_space_group_name_H-M "F D D 2"
_symmetry_group_IT_number 43
_symmetry_cell_setting 'orthorhombic'
loop_
_space_group_symop_operation_xyz
x,y,z
-x,-y,z
1/4-x,1/4+y,1/4+z
1/4+x,1/4-y,1/4+z
x,1/2+y,1/2+z
-x,1/2-y,1/2+z
1/4-x,3/4+y,3/4+z
1/4+x,3/4-y,3/4+z
1/2+x,y,1/2+z
1/2-x,-y,1/2+z
3/4-x,1/4+y,3/4+z
3/4+x,1/4-y,3/4+z
1/2+x,1/2+y,z
1/2-x,1/2-y,z
3/4-x,3/4+y,1/4+z
3/4+x,3/4-y,1/4+z
loop_
_atom_site_type_symbol
_atom_site_label
_atom_site_fract_x
_atom_site_fract_y
_atom_site_fract_z
Si Si1 0.566030 0.051053 0.018920
Si Si2 0.597288 0.856829 0.587704
Si Si3 0.650665 0.708600 0.255209
Si Si4 0.858994 0.299016 0.184590
Si Si5 0.778145 0.059073 0.343602
Si Si6 0.185766 0.523846 0.582546
Si Si7 0.017003 0.393279 0.865943
Si Si8 0.000000 0.000000 0.808442
O O1 0.528043 0.041087 0.188175
O O2 0.611076 0.090413 0.989779
O O3 0.524534 0.063487 0.858809
O O4 0.596100 0.001332 0.016162
O O5 0.613192 0.903557 0.476134
O O6 0.591715 0.812708 0.456664
O O7 0.543206 0.871209 0.687968
O O8 0.651561 0.709381 0.472226
O O9 0.605151 0.745439 0.208922
O O10 0.704722 0.725088 0.172691
O O11 0.918274 0.314523 0.203941
O O12 0.816001 0.337731 0.232217
O O13 0.730000 0.048540 0.469207
O O14 0.764169 0.103450 0.221651
O O15 0.788398 0.014708 0.213591
#
# Coordination Sequence:
#
# PCOD9371728 Si02
#       8
#    16  16  16  16  16  16  16   8
#     4  12  23  46  70 102 138 192 234 293 364 425
#     4  11  25  44  75 101 138 191 241 290 364 436
#     4  10  25  46  65 109 143 185 235 304 354 432
#     4  10  22  45  69  92 144 187 234 284 369 430
#     4  11  24  43  67 102 141 186 235 292 359 428
#     4  11  24  45  70 100 143 188 232 294 367 422
#     4  11  23  41  70 103 132 185 241 290 351 434
#     4  12  28  40  76 108 146 180 246 302 356 432
#
# _framework density 22.20187
#
# number of rings (size 3 to 8) (size 9 to 14) (size 15 to 20)
#    0.000    1.067    4.000    3.200    7.467    0.000 
#    0.000    1.333    0.000    0.000    0.000    0.000 
#    0.000    0.000    0.000    0.000    0.000    0.000 
#
# Total GULP energy -167441.437763 kJ/mol
# GULP energy per Si atom -5581.381259 kJ/mol
# Density = 2.215134 g / cm^3
# Si number density = 22.201870 Si / 1000 Ang^3
#
#
#
# Elastic Constant Matrix: (Units=GPa)
#
#
# Indices 1 2 3 4 5 6 
#
# 1 123.0301 50.6697 30.0773 0.0029 0.0042 0.0183
# 2 50.6697 129.2612 14.9605 0.0100 -0.0025 0.0045
# 3 30.0773 14.9605 30.9823 0.0089 -0.0061 0.0176
# 4 0.0029 0.0100 0.0089 14.7479 -0.0038 0.0070
# 5 0.0042 -0.0025 -0.0061 -0.0038 37.4334 -0.0171
# 6 0.0183 0.0045 0.0176 0.0070 -0.0171 60.6993
#
#
#
# Elastic Compliance Matrix: (Units=1/GPa)
#
#
# Indices 1 2 3 4 5 6 
#
# 1 0.012030 -0.003563 -0.009958 0.000006 -0.000003 0.000000
# 2 -0.003563 0.009250 -0.001007 -0.000005 0.000001 0.000001
# 3 -0.009958 -0.001007 0.042430 -0.000023 0.000008 -0.000009
# 4 0.000006 -0.000005 -0.000023 0.067806 0.000007 -0.000008
# 5 -0.000003 0.000001 0.000008 0.000007 0.026714 0.000008
# 6 0.000000 0.000001 -0.000009 -0.000008 0.000008 0.016475
#
#
# Mechanical properties :
#
#
# Convention : Reuss Voigt Hill
#
# Bulk Modulus (GPa) = 28.85785 52.74317 40.80051
# Shear Modulus (GPa) = 23.22203 35.08052 29.15128
#
# Velocity S-wave (km/s) = 3.23762 3.97932 3.62748
# Velocity P-wave (km/s) = 5.19639 6.70232 5.99681
#
# Compressibility (1/GPa) = 0.03465261
#
# Stress axis : x y z
#
# Youngs Moduli (GPa) = 83.12526 108.11278 23.56823
#
# Poissons Ratio (x) = 0.38523 0.23469
# Poissons Ratio (y) = 0.29619 0.02374
# Poissons Ratio (z) = 0.82777 0.10890
#
# Static dielectric constant tensor:
#      x y z
#    x 1.858160 0.000000 0.000000 
#    y 0.000000 1.856380 0.000000 
#    z 0.000000 0.000000 1.832700 
# 
# From -- ./inp_files/3994.got.cif
#   From: 2010.05.17/outbox.cif.g08.bks.cpg/sg43_2_cif.got.tgz:3994.got - 2010.06.03 19:21:55.
