data_PCOD9371457
_publ_section_title
;
Structure prediction by ZEFSAII (Michael W. Deem and Ramdas Pophale) SiO2 
 PCOD9371457
Probable space group: F D D 2
;
_chemical_formula_sum "Si O2"
_cell_formula_units_Z 96
_cell_length_a 18.787854
_cell_length_b 15.020889
_cell_length_c 14.556169
_cell_angle_alpha 90.000000
_cell_angle_beta 90.000000
_cell_angle_gamma 90.000000
_cell_volume 4107.900376
_symmetry_space_group_name_H-M "F D D 2"
_symmetry_group_IT_number 43
_symmetry_cell_setting 'orthorhombic'
loop_
_space_group_symop_operation_xyz
x,y,z
-x,-y,z
1/4-x,1/4+y,1/4+z
1/4+x,1/4-y,1/4+z
x,1/2+y,1/2+z
-x,1/2-y,1/2+z
1/4-x,3/4+y,3/4+z
1/4+x,3/4-y,3/4+z
1/2+x,y,1/2+z
1/2-x,-y,1/2+z
3/4-x,1/4+y,3/4+z
3/4+x,1/4-y,3/4+z
1/2+x,1/2+y,z
1/2-x,1/2-y,z
3/4-x,3/4+y,1/4+z
3/4+x,3/4-y,1/4+z
loop_
_atom_site_type_symbol
_atom_site_label
_atom_site_fract_x
_atom_site_fract_y
_atom_site_fract_z
Si Si1 0.225045 0.524822 0.620940
Si Si2 0.152050 0.844820 0.602353
Si Si3 0.300267 0.670150 0.115996
Si Si4 0.287676 0.469327 0.336078
Si Si5 0.000358 0.594230 0.072800
Si Si6 0.894086 0.854742 0.068218
O O1 0.278746 0.597135 0.579320
O O2 0.228412 0.425499 0.582802
O O3 0.236118 0.517394 0.729859
O O4 0.146947 0.564664 0.614037
O O5 0.081896 0.883012 0.553440
O O6 0.147858 0.738942 0.584451
O O7 0.143853 0.866308 0.711250
O O8 0.250000 0.750000 0.082295
O O9 0.383391 0.682729 0.094499
O O10 0.292501 0.669908 0.227615
O O11 0.282228 0.569995 0.373633
O O12 0.221602 0.407894 0.364458
O O13 0.000000 0.500000 0.124583
#
# Coordination Sequence:
#
# PCOD9371457 Si02
#       6
#    16  16  16  16  16  16
#     4  10  22  40  66  94 128 180 222 283 357 413
#     4  10  22  42  67  98 137 169 237 292 345 425
#     4  10  22  42  62  92 134 176 223 281 346 424
#     4   9  21  42  61  91 136 165 227 283 335 429
#     4   9  20  40  62  90 123 176 216 274 344 405
#     4  10  22  42  66 101 130 180 226 291 353 416
#
# _framework density 23.369602
#
# number of rings (size 3 to 8) (size 9 to 14) (size 15 to 20)
#    0.000    2.333    0.000    1.500    4.667    2.000 
#   18.000    0.000    0.000    0.000    0.000    0.000 
#    0.000    0.000    0.000    0.000    0.000    0.000 
#
# Total GULP energy -133958.628423 kJ/mol
# GULP energy per Si atom -5581.609518 kJ/mol
# Density = 2.331641 g / cm^3
# Si number density = 23.369602 Si / 1000 Ang^3
#
#
#
# Elastic Constant Matrix: (Units=GPa)
#
#
# Indices 1 2 3 4 5 6 
#
# 1 111.5625 14.1421 -3.8628 0.0000 0.0000 0.0000
# 2 14.1421 99.9538 -7.5408 0.0000 0.0000 0.0000
# 3 -3.8628 -7.5408 75.6593 0.0000 0.0000 0.0000
# 4 0.0000 0.0000 0.0000 22.0613 0.0000 0.0000
# 5 0.0000 0.0000 0.0000 0.0000 27.7685 0.0000
# 6 0.0000 0.0000 0.0000 0.0000 0.0000 21.5972
#
#
#
# Elastic Compliance Matrix: (Units=1/GPa)
#
#
# Indices 1 2 3 4 5 6 
#
# 1 0.009136 -0.001267 0.000340 0.000000 0.000000 0.000000
# 2 -0.001267 0.010256 0.000958 0.000000 0.000000 0.000000
# 3 0.000340 0.000958 0.013330 0.000000 0.000000 0.000000
# 4 0.000000 0.000000 0.000000 0.045328 0.000000 0.000000
# 5 0.000000 0.000000 0.000000 0.000000 0.036012 0.000000
# 6 0.000000 0.000000 0.000000 0.000000 0.000000 0.046302
#
#
# Mechanical properties :
#
#
# Convention : Reuss Voigt Hill
#
# Bulk Modulus (GPa) = 30.50315 32.51695 31.51005
# Shear Modulus (GPa) = 29.20032 33.24788 31.22410
#
# Velocity S-wave (km/s) = 3.53866 3.77596 3.65923
# Velocity P-wave (km/s) = 5.45683 5.74064 5.60053
#
# Compressibility (1/GPa) = 0.03278350
#
# Stress axis : x y z
#
# Youngs Moduli (GPa) = 109.45748 97.50277 75.01906
#
# Poissons Ratio (x) = 0.12353 -0.02552
# Poissons Ratio (y) = 0.13868 -0.07183
# Poissons Ratio (z) = -0.03723 -0.09336
#
# Static dielectric constant tensor:
#      x y z
#    x 1.875310 0.000000 0.000000 
#    y 0.000000 1.917640 0.000000 
#    z 0.000000 0.000000 1.972550 
# 
# From -- ./inp_files/10915.got.cif
#   From: 2010.05.17/outbox.cif.g08.bks.cpg/sg43_6_cif.got.tgz:10915.got - 2010.06.03 19:21:55.
