data_PCOD9371583
_publ_section_title
;
Structure prediction by ZEFSAII (Michael W. Deem and Ramdas Pophale) SiO2 
 PCOD9371583
Probable space group: F D D 2
;
_chemical_formula_sum "Si O2"
_cell_formula_units_Z 80
_cell_length_a 25.524058
_cell_length_b 17.491694
_cell_length_c 8.090462
_cell_angle_alpha 90.000000
_cell_angle_beta 90.000000
_cell_angle_gamma 90.000000
_cell_volume 3612.059673
_symmetry_space_group_name_H-M "F D D 2"
_symmetry_group_IT_number 43
_symmetry_cell_setting 'orthorhombic'
loop_
_space_group_symop_operation_xyz
x,y,z
-x,-y,z
1/4-x,1/4+y,1/4+z
1/4+x,1/4-y,1/4+z
x,1/2+y,1/2+z
-x,1/2-y,1/2+z
1/4-x,3/4+y,3/4+z
1/4+x,3/4-y,3/4+z
1/2+x,y,1/2+z
1/2-x,-y,1/2+z
3/4-x,1/4+y,3/4+z
3/4+x,1/4-y,3/4+z
1/2+x,1/2+y,z
1/2-x,1/2-y,z
3/4-x,3/4+y,1/4+z
3/4+x,3/4-y,1/4+z
loop_
_atom_site_type_symbol
_atom_site_label
_atom_site_fract_x
_atom_site_fract_y
_atom_site_fract_z
Si Si1 0.854711 0.910591 0.766530
Si Si2 0.214846 0.825399 0.655019
Si Si3 0.286774 0.175616 0.522195
Si Si4 0.488603 0.321175 0.588429
Si Si5 0.635389 0.008553 0.925752
O O1 0.903845 0.941378 0.869555
O O2 0.800103 0.945158 0.827505
O O3 0.860120 0.818294 0.758311
O O4 0.860344 0.933235 0.575953
O O5 0.250000 0.750000 0.646224
O O6 0.231372 0.880124 0.506009
O O7 0.220546 0.858221 0.839541
O O8 0.250000 0.250000 0.536762
O O9 0.273654 0.120117 0.673571
O O10 0.345614 0.206735 0.544079
O O11 0.442618 0.259183 0.603478
#
# Coordination Sequence:
#
# PCOD9371583 Si02
#       5
#    16  16  16  16  16
#     4  11  23  44  70  98 142 185 225 296 355 408
#     4  10  22  42  69  98 128 184 235 274 350 431
#     4  11  21  42  71  96 131 191 230 284 356 432
#     4  11  23  44  66  99 145 174 230 301 345 410
#     4  11  22  43  69  97 137 187 227 286 361 413
#
# _framework density 22.148029999999999
#
# number of rings (size 3 to 8) (size 9 to 14) (size 15 to 20)
#    0.000    1.200    6.000    1.800    0.000    1.600 
#   25.200    0.000    0.000    0.000    0.000    0.000 
#    0.000    0.000    0.000    0.000    0.000    0.000 
#
# Total GULP energy -111845.343727 kJ/mol
# GULP energy per Si atom -5592.267186 kJ/mol
# Density = 2.209762 g / cm^3
# Si number density = 22.148030 Si / 1000 Ang^3
#
#
#
# Elastic Constant Matrix: (Units=GPa)
#
#
# Indices 1 2 3 4 5 6 
#
# 1 134.2596 12.3528 27.7849 0.0000 0.0000 0.0000
# 2 12.3528 17.5116 6.4932 0.0000 0.0000 0.0000
# 3 27.7849 6.4932 150.7345 0.0000 0.0000 0.0000
# 4 0.0000 0.0000 0.0000 -12.9736 0.0000 0.0000
# 5 0.0000 0.0000 0.0000 0.0000 23.7449 0.0000
# 6 0.0000 0.0000 0.0000 0.0000 0.0000 24.1856
#
#
#
# Elastic Compliance Matrix: (Units=1/GPa)
#
#
# Indices 1 2 3 4 5 6 
#
# 1 0.008202 -0.005310 -0.001283 0.000000 0.000000 0.000000
# 2 -0.005310 0.061470 -0.001669 0.000000 0.000000 0.000000
# 3 -0.001283 -0.001669 0.006943 0.000000 0.000000 0.000000
# 4 0.000000 0.000000 0.000000 -0.077080 0.000000 0.000000
# 5 0.000000 0.000000 0.000000 0.000000 0.042114 0.000000
# 6 0.000000 0.000000 0.000000 0.000000 0.000000 0.041347
#
#
# Mechanical properties :
#
#
# Convention : Reuss Voigt Hill
#
# Bulk Modulus (GPa) = 16.64180 43.97418 30.30799
# Shear Modulus (GPa) = 41.82307 24.04970 32.93638
#
# Velocity S-wave (km/s) = 4.35022 3.29882 3.86048
# Velocity P-wave (km/s) = 5.72388 5.86578 5.79526
#
# Compressibility (1/GPa) = 0.06008965
#
# Stress axis : x y z
#
# Youngs Moduli (GPa) = 121.91566 16.26818 144.03801
#
# Poissons Ratio (x) = 0.08639 0.18483
# Poissons Ratio (y) = 0.64740 0.24042
# Poissons Ratio (z) = 0.15644 0.02715
#
# Static dielectric constant tensor:
#      x y z
#    x 1.830760 0.000000 0.000000 
#    y 0.000000 1.810550 0.000000 
#    z 0.000000 0.000000 1.770270 
# 
# From -- ./inp_files/4158.got.cif
#   From: 2010.05.17/outbox.cif.g08.bks.cpg/sg43_3_cif.got.tgz:4158.got - 2010.06.03 19:21:55.
