data_PCOD9371722
_publ_section_title
;
Structure prediction by ZEFSAII (Michael W. Deem and Ramdas Pophale) SiO2 
 PCOD9371722
Probable space group: F D D 2
;
_chemical_formula_sum "Si O2"
_cell_formula_units_Z 72
_cell_length_a 15.930820
_cell_length_b 19.218759
_cell_length_c 9.937174
_cell_angle_alpha 90.000000
_cell_angle_beta 90.000000
_cell_angle_gamma 90.000000
_cell_volume 3042.470429
_symmetry_space_group_name_H-M "F D D 2"
_symmetry_group_IT_number 43
_symmetry_cell_setting 'orthorhombic'
loop_
_space_group_symop_operation_xyz
x,y,z
-x,-y,z
1/4-x,1/4+y,1/4+z
1/4+x,1/4-y,1/4+z
x,1/2+y,1/2+z
-x,1/2-y,1/2+z
1/4-x,3/4+y,3/4+z
1/4+x,3/4-y,3/4+z
1/2+x,y,1/2+z
1/2-x,-y,1/2+z
3/4-x,1/4+y,3/4+z
3/4+x,1/4-y,3/4+z
1/2+x,1/2+y,z
1/2-x,1/2-y,z
3/4-x,3/4+y,1/4+z
3/4+x,3/4-y,1/4+z
loop_
_atom_site_type_symbol
_atom_site_label
_atom_site_fract_x
_atom_site_fract_y
_atom_site_fract_z
Si Si1 0.127712 0.889062 0.622290
Si Si2 0.250000 0.250000 0.830148
Si Si3 0.155320 0.302183 0.576993
Si Si4 0.266044 0.537420 0.389219
Si Si5 0.504158 0.130535 0.622076
O O1 0.063176 0.828148 0.579418
O O2 0.190899 0.917596 0.507924
O O3 0.181340 0.869189 0.751236
O O4 0.063882 0.951810 0.658654
O O5 0.191962 0.293897 0.726730
O O6 0.230135 0.322762 0.481754
O O7 0.095220 0.235999 0.547096
O O8 0.089985 0.365701 0.567169
O O9 0.236894 0.459529 0.431470
#
# Coordination Sequence:
#
# PCOD9371722 Si02
#       5
#    16   8  16  16  16
#     4  11  22  43  68  99 137 183 235 284 347 426
#     4  10  24  42  68  98 138 188 226 292 364 414
#     4   9  22  45  64 103 135 184 225 293 351 415
#     4   9  24  41  68  99 139 175 233 285 349 419
#     4  10  22  45  67 101 136 178 238 284 351 414
#
# _framework density 23.66498
#
# number of rings (size 3 to 8) (size 9 to 14) (size 15 to 20)
#    1.333    0.889    0.000    1.333    3.111    5.333 
#    8.000    0.000    0.000    0.000    0.000    0.000 
#    0.000    0.000    0.000    0.000    0.000    0.000 
#
# Total GULP energy -100363.006615 kJ/mol
# GULP energy per Si atom -5575.722590 kJ/mol
# Density = 2.361112 g / cm^3
# Si number density = 23.664980 Si / 1000 Ang^3
#
#
#
# Elastic Constant Matrix: (Units=GPa)
#
#
# Indices 1 2 3 4 5 6 
#
# 1 114.7275 34.0253 11.5742 0.0000 0.0000 0.0000
# 2 34.0253 94.3665 20.0625 0.0000 0.0000 0.0000
# 3 11.5742 20.0625 18.6684 0.0000 0.0000 0.0000
# 4 0.0000 0.0000 0.0000 -29.8366 0.0000 0.0000
# 5 0.0000 0.0000 0.0000 0.0000 15.2067 0.0000
# 6 0.0000 0.0000 0.0000 0.0000 0.0000 51.8591
#
#
#
# Elastic Compliance Matrix: (Units=1/GPa)
#
#
# Indices 1 2 3 4 5 6 
#
# 1 0.009886 -0.002931 -0.002979 0.000000 0.000000 0.000000
# 2 -0.002931 0.014604 -0.013878 0.000000 0.000000 0.000000
# 3 -0.002979 -0.013878 0.070327 0.000000 0.000000 0.000000
# 4 0.000000 0.000000 0.000000 -0.033516 0.000000 0.000000
# 5 0.000000 0.000000 0.000000 0.000000 0.065760 0.000000
# 6 0.000000 0.000000 0.000000 0.000000 0.000000 0.019283
#
#
# Mechanical properties :
#
#
# Convention : Reuss Voigt Hill
#
# Bulk Modulus (GPa) = 18.10222 39.89849 29.00035
# Shear Modulus (GPa) = 24.46960 18.25254 21.36107
#
# Velocity S-wave (km/s) = 3.21908 2.78022 3.00766
# Velocity P-wave (km/s) = 4.63493 5.21560 4.93382
#
# Compressibility (1/GPa) = 0.05524185
#
# Stress axis : x y z
#
# Youngs Moduli (GPa) = 101.15122 68.47306 14.21922
#
# Poissons Ratio (x) = 0.20071 0.04236
# Poissons Ratio (y) = 0.29650 0.19733
# Poissons Ratio (z) = 0.30135 0.95024
#
# Static dielectric constant tensor:
#      x y z
#    x 1.907220 0.000000 0.000000 
#    y 0.000000 1.935520 0.000000 
#    z 0.000000 0.000000 1.835270 
# 
# From -- ./inp_files/2718.got.cif
#   From: 2010.05.17/outbox.cif.g08.bks.cpg/sg43_2_cif.got.tgz:2718.got - 2010.06.03 19:21:55.
