data_PCOD9371265
_publ_section_title
;
Structure prediction by ZEFSAII (Michael W. Deem and Ramdas Pophale) SiO2 
 PCOD9371265
Probable space group: F D D 2
;
_chemical_formula_sum "Si O2"
_cell_formula_units_Z 96
_cell_length_a 18.739171
_cell_length_b 7.905630
_cell_length_c 28.099671
_cell_angle_alpha 90.000000
_cell_angle_beta 90.000000
_cell_angle_gamma 90.000000
_cell_volume 4162.824424
_symmetry_space_group_name_H-M "F D D 2"
_symmetry_group_IT_number 43
_symmetry_cell_setting 'orthorhombic'
loop_
_space_group_symop_operation_xyz
x,y,z
-x,-y,z
1/4-x,1/4+y,1/4+z
1/4+x,1/4-y,1/4+z
x,1/2+y,1/2+z
-x,1/2-y,1/2+z
1/4-x,3/4+y,3/4+z
1/4+x,3/4-y,3/4+z
1/2+x,y,1/2+z
1/2-x,-y,1/2+z
3/4-x,1/4+y,3/4+z
3/4+x,1/4-y,3/4+z
1/2+x,1/2+y,z
1/2-x,1/2-y,z
3/4-x,3/4+y,1/4+z
3/4+x,3/4-y,1/4+z
loop_
_atom_site_type_symbol
_atom_site_label
_atom_site_fract_x
_atom_site_fract_y
_atom_site_fract_z
Si Si1 0.422129 0.581904 0.806690
Si Si2 0.172911 0.671181 0.102164
Si Si3 0.440533 0.284629 0.219492
Si Si4 0.830968 0.771735 0.776837
Si Si5 0.428121 0.431998 0.906090
Si Si6 0.403027 0.664192 0.187505
O O1 0.500000 0.500000 0.797611
O O2 0.425547 0.751042 0.775250
O O3 0.361062 0.457814 0.787293
O O4 0.413847 0.568355 0.863570
O O5 0.250000 0.750000 0.092905
O O6 0.131565 0.607308 0.055623
O O7 0.188203 0.497238 0.130876
O O8 0.121515 0.788134 0.134582
O O9 0.388002 0.163527 0.190672
O O10 0.417465 0.468846 0.200612
O O11 0.522044 0.252626 0.204245
O O12 0.750000 0.750000 0.792551
O O13 0.840610 0.729958 0.721697
O O14 0.500000 0.500000 0.930626
#
# Coordination Sequence:
#
# PCOD9371265 Si02
#       6
#    16  16  16  16  16  16
#     4  10  21  42  69  98 133 185 233 287 358 427
#     4  11  25  43  73  97 143 187 230 294 363 435
#     4  11  24  41  69 100 144 186 239 298 359 436
#     4  11  25  43  71 105 137 180 241 292 360 430
#     4  10  23  40  69 100 134 181 243 290 363 426
#     4  11  25  42  68 103 140 189 239 295 365 430
#
# _framework density 23.061264999999999
#
# number of rings (size 3 to 8) (size 9 to 14) (size 15 to 20)
#    0.000    1.333    1.667    2.500    7.000    2.667 
#    0.000    0.000    3.667    0.000    0.000    0.000 
#    0.000    0.000    0.000    0.000    0.000    0.000 
#
# Total GULP energy -134232.370319 kJ/mol
# GULP energy per Si atom -5593.015430 kJ/mol
# Density = 2.300878 g / cm^3
# Si number density = 23.061265 Si / 1000 Ang^3
#
#
#
# Elastic Constant Matrix: (Units=GPa)
#
#
# Indices 1 2 3 4 5 6 
#
# 1 136.1801 36.2021 27.7033 0.0000 0.0000 -0.0002
# 2 36.2021 75.5098 27.9101 0.0000 0.0000 -0.0004
# 3 27.7033 27.9101 82.8369 0.0000 0.0000 0.0000
# 4 0.0000 0.0000 0.0000 39.9157 0.0000 0.0000
# 5 0.0000 0.0000 0.0000 0.0000 32.4100 0.0000
# 6 -0.0002 -0.0004 0.0000 0.0000 0.0000 35.8533
#
#
#
# Elastic Compliance Matrix: (Units=1/GPa)
#
#
# Indices 1 2 3 4 5 6 
#
# 1 0.008621 -0.003504 -0.001703 0.000000 0.000000 0.000000
# 2 -0.003504 0.016551 -0.004405 0.000000 0.000000 0.000000
# 3 -0.001703 -0.004405 0.014125 0.000000 0.000000 0.000000
# 4 0.000000 0.000000 0.000000 0.025053 0.000000 0.000000
# 5 0.000000 0.000000 0.000000 0.000000 0.030855 0.000000
# 6 0.000000 0.000000 0.000000 0.000000 0.000000 0.027891
#
#
# Mechanical properties :
#
#
# Convention : Reuss Voigt Hill
#
# Bulk Modulus (GPa) = 49.81269 53.12864 51.47067
# Shear Modulus (GPa) = 33.55454 35.14988 34.35221
#
# Velocity S-wave (km/s) = 3.81861 3.90833 3.86373
# Velocity P-wave (km/s) = 6.41010 6.59202 6.50170
#
# Compressibility (1/GPa) = 0.02007520
#
# Stress axis : x y z
#
# Youngs Moduli (GPa) = 115.99500 60.41806 70.79437
#
# Poissons Ratio (x) = 0.21170 0.12053
# Poissons Ratio (y) = 0.40644 0.31183
# Poissons Ratio (z) = 0.19749 0.26613
#
# Static dielectric constant tensor:
#      x y z
#    x 1.819800 0.000000 0.000000 
#    y 0.000000 1.937820 0.000000 
#    z 0.000000 0.000000 1.865870 
# 
# From -- ./inp_files/26306.got.cif
#   From: 2010.05.17/outbox.cif.g08.bks.cpg/sg43_14_cif.got.tgz:26306.got - 2010.06.03 19:21:55.
