data_PCOD9371533
_publ_section_title
;
Structure prediction by ZEFSAII (Michael W. Deem and Ramdas Pophale) SiO2 
 PCOD9371533
Probable space group: F D D 2
;
_chemical_formula_sum "Si O2"
_cell_formula_units_Z 88
_cell_length_a 9.845615
_cell_length_b 11.021887
_cell_length_c 31.725271
_cell_angle_alpha 90.000000
_cell_angle_beta 90.000000
_cell_angle_gamma 90.000000
_cell_volume 3442.739354
_symmetry_space_group_name_H-M "F D D 2"
_symmetry_group_IT_number 43
_symmetry_cell_setting 'orthorhombic'
loop_
_space_group_symop_operation_xyz
x,y,z
-x,-y,z
1/4-x,1/4+y,1/4+z
1/4+x,1/4-y,1/4+z
x,1/2+y,1/2+z
-x,1/2-y,1/2+z
1/4-x,3/4+y,3/4+z
1/4+x,3/4-y,3/4+z
1/2+x,y,1/2+z
1/2-x,-y,1/2+z
3/4-x,1/4+y,3/4+z
3/4+x,1/4-y,3/4+z
1/2+x,1/2+y,z
1/2-x,1/2-y,z
3/4-x,3/4+y,1/4+z
3/4+x,3/4-y,1/4+z
loop_
_atom_site_type_symbol
_atom_site_label
_atom_site_fract_x
_atom_site_fract_y
_atom_site_fract_z
Si Si1 0.250000 0.750000 0.834600
Si Si2 0.340763 0.360273 0.029343
Si Si3 0.386922 0.172467 0.801634
Si Si4 0.858107 0.931142 0.936087
Si Si5 0.110680 0.101181 0.462656
Si Si6 0.729768 0.017552 0.135037
O O1 0.267485 0.634722 0.803081
O O2 0.378718 0.726978 0.864062
O O3 0.250000 0.250000 0.045575
O O4 0.252566 0.480760 0.037955
O O5 0.353194 0.354019 0.979271
O O6 0.250000 0.250000 0.806609
O O7 0.382302 0.091484 0.759241
O O8 0.424016 0.137946 0.849770
O O9 0.873203 0.838914 0.896731
O O10 0.737999 0.030914 0.940942
O O11 0.000000 0.000000 0.936307
O O12 0.033647 0.181655 0.428886
O O13 0.000000 0.000000 0.472546
#
# Coordination Sequence:
#
# PCOD9371533 Si02
#       6
#     8  16  16  16  16  16
#     4  10  22  46  60 104 142 170 244 300 346 450
#     4  10  22  41  71  95 135 194 231 288 370 434
#     4   9  22  41  63  97 141 174 235 300 346 435
#     4  11  24  42  72 105 139 190 245 295 361 445
#     4  10  24  44  65 101 148 183 236 300 361 442
#     4  11  24  40  74  97 142 187 233 301 368 432
#
# _framework density 25.561040999999999
#
# number of rings (size 3 to 8) (size 9 to 14) (size 15 to 20)
#    0.000    1.818    0.909    1.091   10.182    5.818 
#    0.000    0.000    0.000    0.000    0.000    0.000 
#    0.000    0.000    0.000    0.000    0.000    0.000 
#
# Total GULP energy -122681.283270 kJ/mol
# GULP energy per Si atom -5576.421967 kJ/mol
# Density = 2.550286 g / cm^3
# Si number density = 25.561041 Si / 1000 Ang^3
#
#
#
# Elastic Constant Matrix: (Units=GPa)
#
#
# Indices 1 2 3 4 5 6 
#
# 1 112.4064 23.5540 26.5863 0.0000 0.0000 0.0000
# 2 23.5540 50.4805 37.6737 0.0000 0.0000 0.0000
# 3 26.5863 37.6737 175.0431 0.0000 0.0000 0.0000
# 4 0.0000 0.0000 0.0000 67.6163 0.0000 0.0000
# 5 0.0000 0.0000 0.0000 0.0000 69.0890 0.0000
# 6 0.0000 0.0000 0.0000 0.0000 0.0000 50.6269
#
#
#
# Elastic Compliance Matrix: (Units=1/GPa)
#
#
# Indices 1 2 3 4 5 6 
#
# 1 0.009914 -0.004172 -0.000608 0.000000 0.000000 0.000000
# 2 -0.004172 0.025356 -0.004824 0.000000 0.000000 0.000000
# 3 -0.000608 -0.004824 0.006843 0.000000 0.000000 0.000000
# 4 0.000000 0.000000 0.000000 0.014789 0.000000 0.000000
# 5 0.000000 0.000000 0.000000 0.000000 0.014474 0.000000
# 6 0.000000 0.000000 0.000000 0.000000 0.000000 0.019752
#
#
# Mechanical properties :
#
#
# Convention : Reuss Voigt Hill
#
# Bulk Modulus (GPa) = 43.65593 57.06200 50.35897
# Shear Modulus (GPa) = 42.38264 54.14085 48.26175
#
# Velocity S-wave (km/s) = 4.07639 4.60728 4.34994
# Velocity P-wave (km/s) = 6.26675 7.11863 6.70623
#
# Compressibility (1/GPa) = 0.02290639
#
# Stress axis : x y z
#
# Youngs Moduli (GPa) = 100.86388 39.43795 146.12707
#
# Poissons Ratio (x) = 0.16455 0.08882
# Poissons Ratio (y) = 0.42084 0.70486
# Poissons Ratio (z) = 0.06131 0.19023
#
# Static dielectric constant tensor:
#      x y z
#    x 1.950840 0.000000 0.000000 
#    y 0.000000 1.850900 0.000000 
#    z 0.000000 0.000000 2.225190 
# 
# From -- ./inp_files/28440.got.cif
#   From: 2010.05.17/outbox.cif.g08.bks.cpg/sg43_15_cif.got.tgz:28440.got - 2010.06.03 19:21:55.
