data_PCOD9371432
_publ_section_title
;
Structure prediction by ZEFSAII (Michael W. Deem and Ramdas Pophale) SiO2 
 PCOD9371432
Probable space group: F D D 2
;
_chemical_formula_sum "Si O2"
_cell_formula_units_Z 96
_cell_length_a 8.856936
_cell_length_b 17.366311
_cell_length_c 24.397818
_cell_angle_alpha 90.000000
_cell_angle_beta 90.000000
_cell_angle_gamma 90.000000
_cell_volume 3752.684626
_symmetry_space_group_name_H-M "F D D 2"
_symmetry_group_IT_number 43
_symmetry_cell_setting 'orthorhombic'
loop_
_space_group_symop_operation_xyz
x,y,z
-x,-y,z
1/4-x,1/4+y,1/4+z
1/4+x,1/4-y,1/4+z
x,1/2+y,1/2+z
-x,1/2-y,1/2+z
1/4-x,3/4+y,3/4+z
1/4+x,3/4-y,3/4+z
1/2+x,y,1/2+z
1/2-x,-y,1/2+z
3/4-x,1/4+y,3/4+z
3/4+x,1/4-y,3/4+z
1/2+x,1/2+y,z
1/2-x,1/2-y,z
3/4-x,3/4+y,1/4+z
3/4+x,3/4-y,1/4+z
loop_
_atom_site_type_symbol
_atom_site_label
_atom_site_fract_x
_atom_site_fract_y
_atom_site_fract_z
Si Si1 0.064392 0.627243 0.293840
Si Si2 0.897704 0.785356 0.289471
Si Si3 0.615839 0.416374 0.273219
Si Si4 0.153456 0.963376 0.389611
Si Si5 0.235959 0.947060 0.156028
Si Si6 0.250000 0.250000 0.951857
Si Si7 0.750000 0.750000 0.133350
O O1 0.004247 0.712090 0.288409
O O2 0.003805 0.577312 0.345312
O O3 0.243596 0.637032 0.289700
O O4 0.022302 0.571572 0.242984
O O5 0.750000 0.750000 0.262568
O O6 0.878582 0.802759 0.354282
O O7 0.968024 0.864320 0.269004
O O8 0.641163 0.476775 0.323210
O O9 0.648036 0.445998 0.212836
O O10 0.103291 0.874389 0.397111
O O11 0.322450 0.991885 0.406707
O O12 0.000000 0.000000 0.415113
O O13 0.354942 0.015491 0.164231
#
# Coordination Sequence:
#
# PCOD9371432 Si02
#       7
#    16  16  16  16  16   8   8
#     4   9  19  39  67  92 123 173 227 269 341 417
#     4  11  24  39  66  99 133 179 223 279 343 415
#     4   9  21  43  66  93 132 182 216 285 354 392
#     4  10  22  39  70  97 134 186 225 276 350 421
#     4  10  23  41  65 103 130 177 233 285 342 419
#     4   9  20  40  68  94 118 174 228 276 346 408
#     4   9  20  36  64  96 128 176 214 278 338 392
#
# _framework density 25.581686000000001
#
# number of rings (size 3 to 8) (size 9 to 14) (size 15 to 20)
#    0.000    2.333    0.000    1.500   11.667    3.333 
#    3.000    0.000   12.833    0.000    0.000    0.000 
#    0.000    0.000    0.000    0.000    0.000    0.000 
#
# Total GULP energy -133694.176258 kJ/mol
# GULP energy per Si atom -5570.590677 kJ/mol
# Density = 2.552346 g / cm^3
# Si number density = 25.581686 Si / 1000 Ang^3
#
#
#
# Elastic Constant Matrix: (Units=GPa)
#
#
# Indices 1 2 3 4 5 6 
#
# 1 167.8666 31.0787 14.6025 0.0000 0.0000 0.0000
# 2 31.0787 65.9671 7.1441 0.0000 0.0000 0.0000
# 3 14.6025 7.1441 69.3744 0.0000 0.0000 0.0000
# 4 0.0000 0.0000 0.0000 -4.5640 0.0000 0.0000
# 5 0.0000 0.0000 0.0000 0.0000 6.4352 0.0000
# 6 0.0000 0.0000 0.0000 0.0000 0.0000 51.4291
#
#
#
# Elastic Compliance Matrix: (Units=1/GPa)
#
#
# Indices 1 2 3 4 5 6 
#
# 1 0.006606 -0.002995 -0.001082 0.000000 0.000000 0.000000
# 2 -0.002995 0.016688 -0.001088 0.000000 0.000000 0.000000
# 3 -0.001082 -0.001088 0.014754 0.000000 0.000000 0.000000
# 4 0.000000 0.000000 0.000000 -0.219108 0.000000 0.000000
# 5 0.000000 0.000000 0.000000 0.000000 0.155395 0.000000
# 6 0.000000 0.000000 0.000000 0.000000 0.000000 0.019444
#
#
# Mechanical properties :
#
#
# Convention : Reuss Voigt Hill
#
# Bulk Modulus (GPa) = 36.07781 45.42874 40.75327
# Shear Modulus (GPa) = 374.57588 27.35225 200.96406
#
# Velocity S-wave (km/s) = 12.11368 3.27343 8.87290
# Velocity P-wave (km/s) = 14.48408 5.66427 10.99711
#
# Compressibility (1/GPa) = 0.02771787
#
# Stress axis : x y z
#
# Youngs Moduli (GPa) = 151.38408 59.92369 67.77664
#
# Poissons Ratio (x) = 0.17947 0.07334
# Poissons Ratio (y) = 0.45338 0.07375
# Poissons Ratio (z) = 0.16380 0.06520
#
# Static dielectric constant tensor:
#      x y z
#    x 2.193780 0.000000 0.000000 
#    y 0.000000 2.107530 0.000000 
#    z 0.000000 0.000000 2.126460 
# 
# From -- ./inp_files/24283.got.cif
#   From: 2010.05.17/outbox.cif.g08.bks.cpg/sg43_13_cif.got.tgz:24283.got - 2010.06.03 19:21:55.
