data_PCOD9371640
_publ_section_title
;
Structure prediction by ZEFSAII (Michael W. Deem and Ramdas Pophale) SiO2 
 PCOD9371640
Probable space group: F D D 2
;
_chemical_formula_sum "Si O2"
_cell_formula_units_Z 88
_cell_length_a 8.281621
_cell_length_b 25.349931
_cell_length_c 14.948805
_cell_angle_alpha 90.000000
_cell_angle_beta 90.000000
_cell_angle_gamma 90.000000
_cell_volume 3138.330011
_symmetry_space_group_name_H-M "F D D 2"
_symmetry_group_IT_number 43
_symmetry_cell_setting 'orthorhombic'
loop_
_space_group_symop_operation_xyz
x,y,z
-x,-y,z
1/4-x,1/4+y,1/4+z
1/4+x,1/4-y,1/4+z
x,1/2+y,1/2+z
-x,1/2-y,1/2+z
1/4-x,3/4+y,3/4+z
1/4+x,3/4-y,3/4+z
1/2+x,y,1/2+z
1/2-x,-y,1/2+z
3/4-x,1/4+y,3/4+z
3/4+x,1/4-y,3/4+z
1/2+x,1/2+y,z
1/2-x,1/2-y,z
3/4-x,3/4+y,1/4+z
3/4+x,3/4-y,1/4+z
loop_
_atom_site_type_symbol
_atom_site_label
_atom_site_fract_x
_atom_site_fract_y
_atom_site_fract_z
Si Si1 0.249999 0.138107 0.070120
Si Si2 0.250000 0.250000 0.106986
Si Si3 0.928515 0.346355 0.022001
Si Si4 0.179833 0.503450 0.644684
Si Si5 0.426108 0.775453 0.202198
Si Si6 0.321309 0.389868 0.252162
O O1 0.254028 0.199153 0.043997
O O2 0.411046 0.116958 0.022140
O O3 0.285974 0.136592 0.174627
O O4 0.059325 0.124920 0.077162
O O5 0.411870 0.255251 0.165873
O O6 0.921556 0.317274 0.118092
O O7 0.952091 0.302544 0.944320
O O8 0.755922 0.375434 0.016081
O O9 0.284702 0.523746 0.560628
O O10 0.176126 0.548582 0.722466
O O11 0.000000 0.500000 0.607187
O O12 0.250000 0.750000 0.194574
#
# Coordination Sequence:
#
# PCOD9371640 Si02
#       6
#    16   8  16  16  16  16
#     4  11  25  42  73  95 140 182 230 289 353 421
#     4  10  22  44  64  98 134 176 230 278 346 410
#     4  10  24  46  68  98 144 184 228 292 356 417
#     4  10  22  43  69  98 140 181 235 287 346 420
#     4  11  21  37  70 100 127 181 230 280 338 421
#     4  11  25  44  65 101 136 182 231 292 349 412
#
# _framework density 28.040389000000001
#
# number of rings (size 3 to 8) (size 9 to 14) (size 15 to 20)
#    0.000    1.455    0.909    4.909    7.636    1.455 
#    3.273    0.000    0.000    0.000    0.000    0.000 
#    0.000    0.000    0.000    0.000    0.000    0.000 
#
# Total GULP energy -122578.471864 kJ/mol
# GULP energy per Si atom -5571.748721 kJ/mol
# Density = 2.797657 g / cm^3
# Si number density = 28.040389 Si / 1000 Ang^3
#
#
#
# Elastic Constant Matrix: (Units=GPa)
#
#
# Indices 1 2 3 4 5 6 
#
# 1 257.4434 20.8645 44.7279 0.0000 0.0000 0.0000
# 2 20.8645 54.7136 15.2481 0.0000 0.0000 0.0000
# 3 44.7279 15.2481 143.1868 0.0000 0.0000 0.0000
# 4 0.0000 0.0000 0.0000 114.7217 0.0000 0.0000
# 5 0.0000 0.0000 0.0000 0.0000 43.6192 0.0000
# 6 0.0000 0.0000 0.0000 0.0000 0.0000 -27.7644
#
#
#
# Elastic Compliance Matrix: (Units=1/GPa)
#
#
# Indices 1 2 3 4 5 6 
#
# 1 0.004191 -0.001271 -0.001174 0.000000 0.000000 0.000000
# 2 -0.001271 0.019222 -0.001650 0.000000 0.000000 0.000000
# 3 -0.001174 -0.001650 0.007526 0.000000 0.000000 0.000000
# 4 0.000000 0.000000 0.000000 0.008717 0.000000 0.000000
# 5 0.000000 0.000000 0.000000 0.000000 0.022926 0.000000
# 6 0.000000 0.000000 0.000000 0.000000 0.000000 -0.036017
#
#
# Mechanical properties :
#
#
# Convention : Reuss Voigt Hill
#
# Bulk Modulus (GPa) = 43.95737 68.55832 56.25785
# Shear Modulus (GPa) = 118.09967 51.08219 84.59093
#
# Velocity S-wave (km/s) = 6.49686 4.27281 5.49846
# Velocity P-wave (km/s) = 8.48465 6.98895 7.77286
#
# Compressibility (1/GPa) = 0.02274931
#
# Stress axis : x y z
#
# Youngs Moduli (GPa) = 238.58828 52.02503 132.86795
#
# Poissons Ratio (x) = 0.06613 0.15597
# Poissons Ratio (y) = 0.30328 0.21921
# Poissons Ratio (z) = 0.28008 0.08583
#
# Static dielectric constant tensor:
#      x y z
#    x 2.391940 0.000000 0.000000 
#    y 0.000000 2.252520 0.000000 
#    z 0.000000 0.000000 2.110290 
# 
# From -- ./inp_files/12888.got.cif
#   From: 2010.05.17/outbox.cif.g08.bks.cpg/sg43_7_cif.got.tgz:12888.got - 2010.06.03 19:21:55.
