data_PCOD9371514
_publ_section_title
;
Structure prediction by ZEFSAII (Michael W. Deem and Ramdas Pophale) SiO2 
 PCOD9371514
Probable space group: F D D 2
;
_chemical_formula_sum "Si O2"
_cell_formula_units_Z 96
_cell_length_a 14.635710
_cell_length_b 13.593199
_cell_length_c 22.136869
_cell_angle_alpha 90.000000
_cell_angle_beta 90.000000
_cell_angle_gamma 90.000000
_cell_volume 4404.044164
_symmetry_space_group_name_H-M "F D D 2"
_symmetry_group_IT_number 43
_symmetry_cell_setting 'orthorhombic'
loop_
_space_group_symop_operation_xyz
x,y,z
-x,-y,z
1/4-x,1/4+y,1/4+z
1/4+x,1/4-y,1/4+z
x,1/2+y,1/2+z
-x,1/2-y,1/2+z
1/4-x,3/4+y,3/4+z
1/4+x,3/4-y,3/4+z
1/2+x,y,1/2+z
1/2-x,-y,1/2+z
3/4-x,1/4+y,3/4+z
3/4+x,1/4-y,3/4+z
1/2+x,1/2+y,z
1/2-x,1/2-y,z
3/4-x,3/4+y,1/4+z
3/4+x,3/4-y,1/4+z
loop_
_atom_site_type_symbol
_atom_site_label
_atom_site_fract_x
_atom_site_fract_y
_atom_site_fract_z
Si Si1 0.857771 0.604938 0.421080
Si Si2 0.871682 0.426851 0.147943
Si Si3 0.066529 0.357112 0.180494
Si Si4 0.969188 0.762152 0.478352
Si Si5 0.055774 0.597895 0.542363
Si Si6 0.038893 0.897432 0.275229
O O1 0.864024 0.490616 0.405085
O O2 0.947765 0.665692 0.437792
O O3 0.823096 0.662692 0.362913
O O4 0.788534 0.608304 0.479017
O O5 0.902681 0.540310 0.151734
O O6 0.794902 0.419729 0.199354
O O7 0.825579 0.410794 0.082880
O O8 0.957813 0.358565 0.166535
O O9 0.104066 0.359120 0.250067
O O10 0.877319 0.822199 0.486786
O O11 0.002587 0.702211 0.536632
O O12 0.000000 0.500000 0.522945
O O13 0.000000 0.000000 0.300538
#
# Coordination Sequence:
#
# PCOD9371514 Si02
#       6
#    16  16  16  16  16  16
#     4  11  23  40  69 101 130 177 229 282 342 401
#     4  10  23  44  64  95 140 176 222 276 340 419
#     4  10  23  45  61 100 139 179 226 272 344 417
#     4  10  22  41  67  98 127 180 224 277 347 398
#     4  11  21  40  68  94 136 172 233 286 333 410
#     4  10  23  42  68  98 130 168 232 286 340 403
#
# _framework density 21.798147
#
# number of rings (size 3 to 8) (size 9 to 14) (size 15 to 20)
#    0.000    1.667    1.667    2.500    2.333    4.000 
#   15.000    1.667    0.000    0.000    0.000    0.000 
#    0.000    0.000    0.000    0.000    0.000    0.000 
#
# Total GULP energy -133781.289698 kJ/mol
# GULP energy per Si atom -5574.220404 kJ/mol
# Density = 2.174853 g / cm^3
# Si number density = 21.798147 Si / 1000 Ang^3
#
#
#
# Elastic Constant Matrix: (Units=GPa)
#
#
# Indices 1 2 3 4 5 6 
#
# 1 78.2191 1.2172 18.4429 0.0000 0.0000 0.0000
# 2 1.2172 57.2130 23.9167 0.0000 0.0000 0.0000
# 3 18.4429 23.9167 81.9650 0.0000 0.0000 0.0000
# 4 0.0000 0.0000 0.0000 16.1343 0.0000 0.0000
# 5 0.0000 0.0000 0.0000 0.0000 22.6738 0.0000
# 6 0.0000 0.0000 0.0000 0.0000 0.0000 22.4546
#
#
#
# Elastic Compliance Matrix: (Units=1/GPa)
#
#
# Indices 1 2 3 4 5 6 
#
# 1 0.013564 0.001124 -0.003380 0.000000 0.000000 0.000000
# 2 0.001124 0.020000 -0.006089 0.000000 0.000000 0.000000
# 3 -0.003380 -0.006089 0.014738 0.000000 0.000000 0.000000
# 4 0.000000 0.000000 0.000000 0.061980 0.000000 0.000000
# 5 0.000000 0.000000 0.000000 0.000000 0.044104 0.000000
# 6 0.000000 0.000000 0.000000 0.000000 0.000000 0.044534
#
#
# Mechanical properties :
#
#
# Convention : Reuss Voigt Hill
#
# Bulk Modulus (GPa) = 31.63305 33.83897 32.73601
# Shear Modulus (GPa) = 22.10957 23.84053 22.97505
#
# Velocity S-wave (km/s) = 3.18824 3.31069 3.25004
# Velocity P-wave (km/s) = 5.30061 5.49288 5.39760
#
# Compressibility (1/GPa) = 0.03161251
#
# Stress axis : x y z
#
# Youngs Moduli (GPa) = 73.72402 50.00014 67.85376
#
# Poissons Ratio (x) = -0.05622 0.22936
# Poissons Ratio (y) = -0.08290 0.41315
# Poissons Ratio (z) = 0.24920 0.30444
#
# Static dielectric constant tensor:
#      x y z
#    x 1.966030 0.000000 0.000000 
#    y 0.000000 1.802720 0.000000 
#    z 0.000000 0.000000 1.856200 
# 
# From -- ./inp_files/17562.got.cif
#   From: 2010.05.17/outbox.cif.g08.bks.cpg/sg43_9_cif.got.tgz:17562.got - 2010.06.03 19:21:55.
