data_PCOD9371937
_publ_section_title
;
Structure prediction by ZEFSAII (Michael W. Deem and Ramdas Pophale) SiO2 
 PCOD9371937
Probable space group: F D D 2
;
_chemical_formula_sum "Si O2"
_cell_formula_units_Z 104
_cell_length_a 11.336204
_cell_length_b 15.501606
_cell_length_c 27.865532
_cell_angle_alpha 90.000000
_cell_angle_beta 90.000000
_cell_angle_gamma 90.000000
_cell_volume 4896.792326
_symmetry_space_group_name_H-M "F D D 2"
_symmetry_group_IT_number 43
_symmetry_cell_setting 'orthorhombic'
loop_
_space_group_symop_operation_xyz
x,y,z
-x,-y,z
1/4-x,1/4+y,1/4+z
1/4+x,1/4-y,1/4+z
x,1/2+y,1/2+z
-x,1/2-y,1/2+z
1/4-x,3/4+y,3/4+z
1/4+x,3/4-y,3/4+z
1/2+x,y,1/2+z
1/2-x,-y,1/2+z
3/4-x,1/4+y,3/4+z
3/4+x,1/4-y,3/4+z
1/2+x,1/2+y,z
1/2-x,1/2-y,z
3/4-x,3/4+y,1/4+z
3/4+x,3/4-y,1/4+z
loop_
_atom_site_type_symbol
_atom_site_label
_atom_site_fract_x
_atom_site_fract_y
_atom_site_fract_z
Si Si1 0.046350 0.684925 0.722350
Si Si2 0.628254 0.044604 0.205084
Si Si3 0.757656 0.008535 0.793399
Si Si4 0.007228 0.684418 0.149057
Si Si5 0.114055 0.555007 0.560093
Si Si6 0.996612 0.144812 0.907833
Si Si7 0.500000 0.500000 0.253096
O O1 0.968157 0.744285 0.688845
O O2 0.076922 0.742084 0.769780
O O3 0.162283 0.664100 0.690307
O O4 0.985291 0.592312 0.727923
O O5 0.602633 0.112375 0.162828
O O6 0.500000 0.000000 0.211094
O O7 0.673477 0.059899 0.259357
O O8 0.731280 0.982909 0.186133
O O9 0.819766 0.102761 0.788667
O O10 0.620898 0.016846 0.780688
O O11 0.752493 0.975970 0.847402
O O12 0.876300 0.645664 0.155931
O O13 0.193485 0.582596 0.605692
O O14 0.000000 0.500000 0.577001
#
# Coordination Sequence:
#
# PCOD9371937 Si02
#       7
#    16  16  16  16  16  16   8
#     4  12  25  47  71 104 144 189 247 305 349 437
#     4  10  23  45  71 103 146 183 236 303 358 421
#     4  12  26  46  73 105 143 194 239 298 366 439
#     4  11  26  44  71 109 145 182 241 302 360 439
#     4  12  24  42  76 104 140 195 245 298 363 431
#     4  11  24  43  72 105 141 189 247 291 361 438
#     4  12  28  48  70 102 148 182 244 298 364 430
#
# _framework density 21.238394
#
# number of rings (size 3 to 8) (size 9 to 14) (size 15 to 20)
#    0.000    0.615    4.615    3.231    7.538    0.000 
#    2.769    0.000    0.000    0.000    0.000    0.000 
#    0.000    0.000    0.000    0.000    0.000    0.000 
#
# Total GULP energy -145041.129211 kJ/mol
# GULP energy per Si atom -5578.504970 kJ/mol
# Density = 2.119005 g / cm^3
# Si number density = 21.238394 Si / 1000 Ang^3
#
#
#
# Elastic Constant Matrix: (Units=GPa)
#
#
# Indices 1 2 3 4 5 6 
#
# 1 31.4129 13.2066 13.3606 0.0000 0.0000 0.0000
# 2 13.2066 90.4922 43.4695 0.0000 0.0000 0.0000
# 3 13.3606 43.4695 115.7458 0.0000 0.0000 0.0000
# 4 0.0000 0.0000 0.0000 28.5060 0.0000 0.0000
# 5 0.0000 0.0000 0.0000 0.0000 15.8098 0.0000
# 6 0.0000 0.0000 0.0000 0.0000 0.0000 33.9994
#
#
#
# Elastic Compliance Matrix: (Units=1/GPa)
#
#
# Indices 1 2 3 4 5 6 
#
# 1 0.034523 -0.003812 -0.002553 0.000000 0.000000 0.000000
# 2 -0.003812 0.013904 -0.004782 0.000000 0.000000 0.000000
# 3 -0.002553 -0.004782 0.010730 0.000000 0.000000 0.000000
# 4 0.000000 0.000000 0.000000 0.035080 0.000000 0.000000
# 5 0.000000 0.000000 0.000000 0.000000 0.063252 0.000000
# 6 0.000000 0.000000 0.000000 0.000000 0.000000 0.029412
#
#
# Mechanical properties :
#
#
# Convention : Reuss Voigt Hill
#
# Bulk Modulus (GPa) = 27.12750 41.96937 34.54844
# Shear Modulus (GPa) = 22.57512 26.83732 24.70622
#
# Velocity S-wave (km/s) = 3.26381 3.55860 3.41439
# Velocity P-wave (km/s) = 5.19653 6.05713 5.64326
#
# Compressibility (1/GPa) = 0.03686296
#
# Stress axis : x y z
#
# Youngs Moduli (GPa) = 28.96648 71.92182 93.19476
#
# Poissons Ratio (x) = 0.27415 0.23797
# Poissons Ratio (y) = 0.11041 0.44564
# Poissons Ratio (z) = 0.07396 0.34392
#
# Static dielectric constant tensor:
#      x y z
#    x 1.755080 0.000000 0.000000 
#    y 0.000000 2.027190 0.000000 
#    z 0.000000 0.000000 1.831890 
# 
# From -- ./inp_files/25141.got.cif
#   From: 2010.05.17/outbox.cif.g08.bks.cpg/sg43_13_cif.got.tgz:25141.got - 2010.06.03 19:21:55.
