data_PCOD9371733
_publ_section_title
;
Structure prediction by ZEFSAII (Michael W. Deem and Ramdas Pophale) SiO2 
 PCOD9371733
Probable space group: F D D 2
;
_chemical_formula_sum "Si O2"
_cell_formula_units_Z 112
_cell_length_a 14.869262
_cell_length_b 24.957638
_cell_length_c 12.951606
_cell_angle_alpha 90.000000
_cell_angle_beta 90.000000
_cell_angle_gamma 90.000000
_cell_volume 4806.362465
_symmetry_space_group_name_H-M "F D D 2"
_symmetry_group_IT_number 43
_symmetry_cell_setting 'orthorhombic'
loop_
_space_group_symop_operation_xyz
x,y,z
-x,-y,z
1/4-x,1/4+y,1/4+z
1/4+x,1/4-y,1/4+z
x,1/2+y,1/2+z
-x,1/2-y,1/2+z
1/4-x,3/4+y,3/4+z
1/4+x,3/4-y,3/4+z
1/2+x,y,1/2+z
1/2-x,-y,1/2+z
3/4-x,1/4+y,3/4+z
3/4+x,1/4-y,3/4+z
1/2+x,1/2+y,z
1/2-x,1/2-y,z
3/4-x,3/4+y,1/4+z
3/4+x,3/4-y,1/4+z
loop_
_atom_site_type_symbol
_atom_site_label
_atom_site_fract_x
_atom_site_fract_y
_atom_site_fract_z
Si Si1 0.146541 0.225859 0.849870
Si Si2 0.358231 0.979002 0.320618
Si Si3 0.446309 0.354894 0.575918
Si Si4 0.152777 0.609551 0.881251
Si Si5 0.856298 0.592984 0.424865
Si Si6 0.284864 0.131457 0.063082
Si Si7 0.394926 0.502655 0.375858
O O1 0.250000 0.250000 0.848513
O O2 0.108625 0.163668 0.848369
O O3 0.104948 0.245644 0.742033
O O4 0.110581 0.249396 0.954781
O O5 0.280523 0.934621 0.320086
O O6 0.442181 0.941622 0.348732
O O7 0.350578 0.031100 0.390323
O O8 0.419180 0.389717 0.476525
O O9 0.455280 0.382744 0.687685
O O10 0.369363 0.310291 0.577250
O O11 0.129521 0.652417 0.794969
O O12 0.255996 0.616179 0.912580
O O13 0.144001 0.550933 0.827301
O O14 0.933222 0.624295 0.356955
O O15 0.500000 0.500000 0.383795
#
# Coordination Sequence:
#
# PCOD9371733 Si02
#       7
#    16  16  16  16  16  16  16
#     4  10  23  44  76 111 145 188 257 323 371 458
#     4  12  26  44  74 109 147 201 261 313 387 471
#     4  11  27  45  76 108 142 199 263 314 377 467
#     4  12  27  48  75 109 154 205 250 325 400 463
#     4  12  28  51  73 113 165 200 258 320 406 486
#     4  11  27  47  79 109 153 207 257 324 398 467
#     4  10  22  45  71 106 142 184 256 315 379 455
#
# _framework density 23.302444999999999
#
# number of rings (size 3 to 8) (size 9 to 14) (size 15 to 20)
#    0.000    0.857    1.429    3.857   16.000    0.000 
#    0.000    1.429    0.000    0.000    0.000    0.000 
#    0.000    0.000    0.000    0.000    0.000    0.000 
#
# Total GULP energy -156216.812104 kJ/mol
# GULP energy per Si atom -5579.171861 kJ/mol
# Density = 2.324941 g / cm^3
# Si number density = 23.302445 Si / 1000 Ang^3
#
#
#
# Elastic Constant Matrix: (Units=GPa)
#
#
# Indices 1 2 3 4 5 6 
#
# 1 117.3688 36.7046 34.3220 0.0000 0.0000 0.0000
# 2 36.7046 124.1496 37.5654 0.0000 0.0000 0.0000
# 3 34.3220 37.5654 54.0457 0.0000 0.0000 0.0000
# 4 0.0000 0.0000 0.0000 -22.3354 0.0000 0.0000
# 5 0.0000 0.0000 0.0000 0.0000 34.0082 0.0000
# 6 0.0000 0.0000 0.0000 0.0000 0.0000 36.5496
#
#
#
# Elastic Compliance Matrix: (Units=1/GPa)
#
#
# Indices 1 2 3 4 5 6 
#
# 1 0.010651 -0.001396 -0.005794 0.000000 0.000000 0.000000
# 2 -0.001396 0.010383 -0.006330 0.000000 0.000000 0.000000
# 3 -0.005794 -0.006330 0.026582 0.000000 0.000000 0.000000
# 4 0.000000 0.000000 0.000000 -0.044772 0.000000 0.000000
# 5 0.000000 0.000000 0.000000 0.000000 0.029405 0.000000
# 6 0.000000 0.000000 0.000000 0.000000 0.000000 0.027360
#
#
# Mechanical properties :
#
#
# Convention : Reuss Voigt Hill
#
# Bulk Modulus (GPa) = 48.59990 56.97200 52.78595
# Shear Modulus (GPa) = 53.47171 22.10931 37.79051
#
# Velocity S-wave (km/s) = 4.79548 3.08360 4.03145
# Velocity P-wave (km/s) = 7.18078 6.09755 6.66122
#
# Compressibility (1/GPa) = 0.02057617
#
# Stress axis : x y z
#
# Youngs Moduli (GPa) = 93.88851 96.31188 37.61913
#
# Poissons Ratio (x) = 0.13444 0.21795
# Poissons Ratio (y) = 0.13106 0.23814
# Poissons Ratio (z) = 0.54396 0.60969
#
# Static dielectric constant tensor:
#      x y z
#    x 1.862980 0.000000 0.000000 
#    y 0.000000 2.267790 0.000000 
#    z 0.000000 0.000000 1.860620 
# 
# From -- ./inp_files/10280.got.cif
#   From: 2010.05.17/outbox.cif.g08.bks.cpg/sg43_6_cif.got.tgz:10280.got - 2010.06.03 19:21:55.
