data_PCOD9371357
_publ_section_title
;
Structure prediction by ZEFSAII (Michael W. Deem and Ramdas Pophale) SiO2 
 PCOD9371357
Probable space group: F D D 2
;
_chemical_formula_sum "Si O2"
_cell_formula_units_Z 88
_cell_length_a 12.447657
_cell_length_b 12.882762
_cell_length_c 25.071019
_cell_angle_alpha 90.000000
_cell_angle_beta 90.000000
_cell_angle_gamma 90.000000
_cell_volume 4020.393686
_symmetry_space_group_name_H-M "F D D 2"
_symmetry_group_IT_number 43
_symmetry_cell_setting 'orthorhombic'
loop_
_space_group_symop_operation_xyz
x,y,z
-x,-y,z
1/4-x,1/4+y,1/4+z
1/4+x,1/4-y,1/4+z
x,1/2+y,1/2+z
-x,1/2-y,1/2+z
1/4-x,3/4+y,3/4+z
1/4+x,3/4-y,3/4+z
1/2+x,y,1/2+z
1/2-x,-y,1/2+z
3/4-x,1/4+y,3/4+z
3/4+x,1/4-y,3/4+z
1/2+x,1/2+y,z
1/2-x,1/2-y,z
3/4-x,3/4+y,1/4+z
3/4+x,3/4-y,1/4+z
loop_
_atom_site_type_symbol
_atom_site_label
_atom_site_fract_x
_atom_site_fract_y
_atom_site_fract_z
Si Si1 0.150212 0.943857 0.641130
Si Si2 0.916966 0.904735 0.004805
Si Si3 0.007757 0.692182 0.711704
Si Si4 0.500000 0.000000 0.792050
Si Si5 0.340313 0.839025 0.611572
Si Si6 0.822912 0.073697 0.375571
O O1 0.180268 0.912739 0.701738
O O2 0.261172 0.936876 0.609272
O O3 0.055285 0.862433 0.621270
O O4 0.116929 0.062475 0.638530
O O5 0.804095 0.960355 0.993812
O O6 0.912728 0.840588 0.059110
O O7 0.000000 0.000000 0.008197
O O8 0.998667 0.598882 0.752595
O O9 0.091607 0.658535 0.665326
O O10 0.916229 0.743235 0.674880
O O11 0.606447 0.978842 0.828558
O O12 0.250000 0.750000 0.613935
#
# Coordination Sequence:
#
# PCOD9371357 Si02
#       6
#    16  16  16   8  16  16
#     4  10  21  48  69 100 145 182 230 297 334 429
#     4  11  23  41  70 104 135 180 228 287 357 410
#     4  11  25  46  66 100 141 176 237 291 348 420
#     4  12  28  46  70 106 138 194 228 294 368 406
#     4  12  23  41  71 106 138 181 233 291 350 416
#     4  10  24  46  69  99 142 183 238 280 351 423
#
# _framework density 21.888404000000001
#
# number of rings (size 3 to 8) (size 9 to 14) (size 15 to 20)
#    0.000    1.091    5.455    1.091    8.909    1.455 
#    0.000    7.273    0.000    0.000    0.000    0.000 
#    0.000    0.000    0.000    0.000    0.000    0.000 
#
# Total GULP energy -122525.760602 kJ/mol
# GULP energy per Si atom -5569.352755 kJ/mol
# Density = 2.183859 g / cm^3
# Si number density = 21.888404 Si / 1000 Ang^3
#
#
#
# Elastic Constant Matrix: (Units=GPa)
#
#
# Indices 1 2 3 4 5 6 
#
# 1 72.2371 22.8168 55.5531 0.0000 0.0000 0.0000
# 2 22.8168 83.5422 47.1751 0.0000 0.0000 0.0000
# 3 55.5531 47.1751 180.6670 0.0000 0.0000 0.0000
# 4 0.0000 0.0000 0.0000 35.9015 0.0000 0.0000
# 5 0.0000 0.0000 0.0000 0.0000 -5.9439 0.0000
# 6 0.0000 0.0000 0.0000 0.0000 0.0000 27.8070
#
#
#
# Elastic Compliance Matrix: (Units=1/GPa)
#
#
# Indices 1 2 3 4 5 6 
#
# 1 0.018455 -0.002153 -0.005112 0.000000 0.000000 0.000000
# 2 -0.002153 0.014291 -0.003070 0.000000 0.000000 0.000000
# 3 -0.005112 -0.003070 0.007909 0.000000 0.000000 0.000000
# 4 0.000000 0.000000 0.000000 0.027854 0.000000 0.000000
# 5 0.000000 0.000000 0.000000 0.000000 -0.168238 0.000000
# 6 0.000000 0.000000 0.000000 0.000000 0.000000 0.035962
#
#
# Mechanical properties :
#
#
# Convention : Reuss Voigt Hill
#
# Bulk Modulus (GPa) = 50.03945 65.28180 57.66062
# Shear Modulus (GPa) = -137.23247 25.61300 -55.80974
#
# Velocity S-wave (km/s) = -7.92670 3.42448 -5.05497
# Velocity P-wave (km/s) = 7.80166 6.74727 2.76950
#
# Compressibility (1/GPa) = 0.01998423
#
# Stress axis : x y z
#
# Youngs Moduli (GPa) = 54.18532 69.97166 126.44491
#
# Poissons Ratio (x) = 0.15068 0.64644
# Poissons Ratio (y) = 0.11669 0.38813
# Poissons Ratio (z) = 0.27702 0.21478
#
# Static dielectric constant tensor:
#      x y z
#    x 2.126160 0.000000 0.000000 
#    y 0.000000 1.847480 0.000000 
#    z 0.000000 0.000000 1.826980 
# 
# From -- ./inp_files/21012.got.cif
#   From: 2010.05.17/outbox.cif.g08.bks.cpg/sg43_11_cif.got.tgz:21012.got - 2010.06.03 19:21:55.
