data_PCOD9371689
_publ_section_title
;
Structure prediction by ZEFSAII (Michael W. Deem and Ramdas Pophale) SiO2 
 PCOD9371689
Probable space group: F D D 2
;
_chemical_formula_sum "Si O2"
_cell_formula_units_Z 88
_cell_length_a 31.129920
_cell_length_b 10.830005
_cell_length_c 10.238215
_cell_angle_alpha 90.000000
_cell_angle_beta 90.000000
_cell_angle_gamma 90.000000
_cell_volume 3451.683028
_symmetry_space_group_name_H-M "F D D 2"
_symmetry_group_IT_number 43
_symmetry_cell_setting 'orthorhombic'
loop_
_space_group_symop_operation_xyz
x,y,z
-x,-y,z
1/4-x,1/4+y,1/4+z
1/4+x,1/4-y,1/4+z
x,1/2+y,1/2+z
-x,1/2-y,1/2+z
1/4-x,3/4+y,3/4+z
1/4+x,3/4-y,3/4+z
1/2+x,y,1/2+z
1/2-x,-y,1/2+z
3/4-x,1/4+y,3/4+z
3/4+x,1/4-y,3/4+z
1/2+x,1/2+y,z
1/2-x,1/2-y,z
3/4-x,3/4+y,1/4+z
3/4+x,3/4-y,1/4+z
loop_
_atom_site_type_symbol
_atom_site_label
_atom_site_fract_x
_atom_site_fract_y
_atom_site_fract_z
Si Si1 0.824557 0.279468 0.320670
Si Si2 0.485229 0.213815 0.955951
Si Si3 0.750000 0.750000 0.494581
Si Si4 0.331651 0.150510 0.079818
Si Si5 0.416308 0.917632 0.781675
Si Si6 0.925406 0.680535 0.421597
O O1 0.785511 0.377192 0.316731
O O2 0.870380 0.346211 0.339417
O O3 0.819891 0.173770 0.428402
O O4 0.825223 0.220606 0.176512
O O5 0.449760 0.308811 0.904855
O O6 0.529342 0.284076 0.987023
O O7 0.494282 0.121091 0.835034
O O8 0.797122 0.723595 0.435976
O O9 0.326910 0.288099 0.135026
O O10 0.368516 0.956351 0.747548
O O11 0.420888 0.770925 0.796132
#
# Coordination Sequence:
#
# PCOD9371689 Si02
#       6
#    16  16   8  16  16  16
#     4  11  23  44  76 110 140 201 260 316 374 470
#     4  10  23  46  71 108 153 189 256 305 385 463
#     4   8  20  44  72 100 134 186 242 300 364 460
#     4  12  23  43  74 109 148 195 254 317 382 452
#     4  10  22  44  70  98 146 190 243 311 383 457
#     4  11  24  45  66 105 150 193 241 318 387 454
#
# _framework density 25.494810000000001
#
# number of rings (size 3 to 8) (size 9 to 14) (size 15 to 20)
#    0.000    1.455    1.818    2.727    2.545    0.000 
#   26.182    1.818    0.000    0.000    0.000    0.000 
#    0.000    0.000    0.000    0.000    0.000    0.000 
#
# Total GULP energy -123239.921534 kJ/mol
# GULP energy per Si atom -5601.814615 kJ/mol
# Density = 2.543678 g / cm^3
# Si number density = 25.494810 Si / 1000 Ang^3
#
#
#
# Elastic Constant Matrix: (Units=GPa)
#
#
# Indices 1 2 3 4 5 6 
#
# 1 177.5046 36.2789 11.4515 0.0000 0.0000 0.0000
# 2 36.2789 120.5128 3.9374 0.0000 0.0000 0.0000
# 3 11.4515 3.9374 57.2279 0.0000 0.0000 0.0000
# 4 0.0000 0.0000 0.0000 5.8871 0.0000 0.0000
# 5 0.0000 0.0000 0.0000 0.0000 28.9097 0.0000
# 6 0.0000 0.0000 0.0000 0.0000 0.0000 44.5296
#
#
#
# Elastic Compliance Matrix: (Units=1/GPa)
#
#
# Indices 1 2 3 4 5 6 
#
# 1 0.006070 -0.001792 -0.001091 0.000000 0.000000 0.000000
# 2 -0.001792 0.008845 -0.000250 0.000000 0.000000 0.000000
# 3 -0.001091 -0.000250 0.017710 0.000000 0.000000 0.000000
# 4 0.000000 0.000000 0.000000 0.169864 0.000000 0.000000
# 5 0.000000 0.000000 0.000000 0.000000 0.034590 0.000000
# 6 0.000000 0.000000 0.000000 0.000000 0.000000 0.022457
#
#
# Mechanical properties :
#
#
# Convention : Reuss Voigt Hill
#
# Bulk Modulus (GPa) = 37.93784 50.95344 44.44564
# Shear Modulus (GPa) = 18.20901 36.10377 27.15639
#
# Velocity S-wave (km/s) = 2.67540 3.76722 3.26724
# Velocity P-wave (km/s) = 4.94536 6.24114 5.63065
#
# Compressibility (1/GPa) = 0.02635890
#
# Stress axis : x y z
#
# Youngs Moduli (GPa) = 164.73752 113.05288 56.46657
#
# Poissons Ratio (x) = 0.20256 0.06163
# Poissons Ratio (y) = 0.29516 0.01412
# Poissons Ratio (z) = 0.17980 0.02827
#
# Static dielectric constant tensor:
#      x y z
#    x 2.042830 0.000000 0.000000 
#    y 0.000000 1.992660 0.000000 
#    z 0.000000 0.000000 2.066250 
# 
# From -- ./inp_files/5760.got.cif
#   From: 2010.05.17/outbox.cif.g08.bks.cpg/sg43_3_cif.got.tgz:5760.got - 2010.06.03 19:21:55.
