data_PCOD9371613
_publ_section_title
;
Structure prediction by ZEFSAII (Michael W. Deem and Ramdas Pophale) SiO2 
 PCOD9371613
Probable space group: F D D 2
;
_chemical_formula_sum "Si O2"
_cell_formula_units_Z 88
_cell_length_a 19.342030
_cell_length_b 23.619761
_cell_length_c 7.557599
_cell_angle_alpha 90.000000
_cell_angle_beta 90.000000
_cell_angle_gamma 90.000000
_cell_volume 3452.720285
_symmetry_space_group_name_H-M "F D D 2"
_symmetry_group_IT_number 43
_symmetry_cell_setting 'orthorhombic'
loop_
_space_group_symop_operation_xyz
x,y,z
-x,-y,z
1/4-x,1/4+y,1/4+z
1/4+x,1/4-y,1/4+z
x,1/2+y,1/2+z
-x,1/2-y,1/2+z
1/4-x,3/4+y,3/4+z
1/4+x,3/4-y,3/4+z
1/2+x,y,1/2+z
1/2-x,-y,1/2+z
3/4-x,1/4+y,3/4+z
3/4+x,1/4-y,3/4+z
1/2+x,1/2+y,z
1/2-x,1/2-y,z
3/4-x,3/4+y,1/4+z
3/4+x,3/4-y,1/4+z
loop_
_atom_site_type_symbol
_atom_site_label
_atom_site_fract_x
_atom_site_fract_y
_atom_site_fract_z
Si Si1 0.315117 0.412347 0.379810
Si Si2 0.048006 0.886806 0.479282
Si Si3 0.177492 0.385793 0.206454
Si Si4 0.500000 0.000000 0.826509
Si Si5 0.743784 0.967472 0.920709
Si Si6 0.864110 0.715395 0.324618
O O1 0.342022 0.380332 0.553013
O O2 0.236686 0.389885 0.358994
O O3 0.306393 0.480243 0.394279
O O4 0.361380 0.411528 0.201237
O O5 0.097770 0.898681 0.646831
O O6 0.003436 0.942480 0.438735
O O7 0.007697 0.827982 0.517305
O O8 0.178004 0.317935 0.174096
O O9 0.214703 0.429443 0.076043
O O10 0.434447 0.002279 0.695250
O O11 0.818636 0.990770 0.983807
#
# Coordination Sequence:
#
# PCOD9371613 Si02
#       6
#    16  16  16   8  16  16
#     4  11  22  44  72  94 136 182 233 280 332 417
#     4  11  24  40  70  99 138 176 225 280 343 403
#     4  10  22  43  63  98 133 176 230 275 337 408
#     4  12  24  42  64 108 138 180 216 288 348 410
#     4  10  23  44  68  97 130 183 232 278 332 410
#     4  10  23  42  66  97 134 176 225 277 348 390
#
# _framework density 25.487151000000001
#
# number of rings (size 3 to 8) (size 9 to 14) (size 15 to 20)
#    0.000    1.455    1.818    3.273    2.545    1.455 
#    6.545    0.000    0.000    0.000    0.000    0.000 
#    0.000    0.000    0.000    0.000    0.000    0.000 
#
# Total GULP energy -122516.484894 kJ/mol
# GULP energy per Si atom -5568.931132 kJ/mol
# Density = 2.542914 g / cm^3
# Si number density = 25.487151 Si / 1000 Ang^3
#
#
#
# Elastic Constant Matrix: (Units=GPa)
#
#
# Indices 1 2 3 4 5 6 
#
# 1 73.2048 27.9106 -2.5276 0.0061 0.0003 0.0001
# 2 27.9106 68.7292 9.4519 0.0084 -0.0001 0.0002
# 3 -2.5276 9.4519 40.8455 0.0389 0.0008 0.0003
# 4 0.0061 0.0084 0.0389 596.7800 -0.0153 -0.0125
# 5 0.0003 -0.0001 0.0008 -0.0153 16.4007 -0.0003
# 6 0.0001 0.0002 0.0003 -0.0125 -0.0003 30.1301
#
#
#
# Elastic Compliance Matrix: (Units=1/GPa)
#
#
# Indices 1 2 3 4 5 6 
#
# 1 0.016435 -0.007038 0.002646 0.000000 0.000000 0.000000
# 2 -0.007038 0.018042 -0.004611 0.000000 0.000000 0.000000
# 3 0.002646 -0.004611 0.025713 -0.000002 -0.000001 0.000000
# 4 0.000000 0.000000 -0.000002 0.001676 0.000002 0.000001
# 5 0.000000 0.000000 -0.000001 0.000002 0.060973 0.000001
# 6 0.000000 0.000000 0.000000 0.000001 0.000001 0.033189
#
#
# Mechanical properties :
#
#
# Convention : Reuss Voigt Hill
#
# Bulk Modulus (GPa) = 23.70548 28.04994 25.87771
# Shear Modulus (GPa) = 26.58224 138.52514 82.55369
#
# Velocity S-wave (km/s) = 3.23300 7.38031 5.69742
# Velocity P-wave (km/s) = 4.82261 9.14629 7.31137
#
# Compressibility (1/GPa) = 0.04218435
#
# Stress axis : x y z
#
# Youngs Moduli (GPa) = 60.84566 55.42615 38.89058
#
# Poissons Ratio (x) = 0.39009 -0.10289
# Poissons Ratio (y) = 0.42823 0.17931
# Poissons Ratio (z) = -0.16098 0.25555
#
# Static dielectric constant tensor:
#      x y z
#    x 2.419830 -0.000060 0.000000 
#    y -0.000060 -16.418850 -0.000010 
#    z 0.000000 -0.000010 2.262630 
# 
# From -- ./inp_files/3228.got.cif
#   From: 2010.05.17/outbox.cif.g08.bks.cpg/sg43_2_cif.got.tgz:3228.got - 2010.06.03 19:21:55.
