data_PCOD9371778
_publ_section_title
;
Structure prediction by ZEFSAII (Michael W. Deem and Ramdas Pophale) SiO2 
 PCOD9371778
Probable space group: F D D 2
;
_chemical_formula_sum "Si O2"
_cell_formula_units_Z 72
_cell_length_a 16.262749
_cell_length_b 23.685689
_cell_length_c 7.128330
_cell_angle_alpha 90.000000
_cell_angle_beta 90.000000
_cell_angle_gamma 90.000000
_cell_volume 2745.792905
_symmetry_space_group_name_H-M "F D D 2"
_symmetry_group_IT_number 43
_symmetry_cell_setting 'orthorhombic'
loop_
_space_group_symop_operation_xyz
x,y,z
-x,-y,z
1/4-x,1/4+y,1/4+z
1/4+x,1/4-y,1/4+z
x,1/2+y,1/2+z
-x,1/2-y,1/2+z
1/4-x,3/4+y,3/4+z
1/4+x,3/4-y,3/4+z
1/2+x,y,1/2+z
1/2-x,-y,1/2+z
3/4-x,1/4+y,3/4+z
3/4+x,1/4-y,3/4+z
1/2+x,1/2+y,z
1/2-x,1/2-y,z
3/4-x,3/4+y,1/4+z
3/4+x,3/4-y,1/4+z
loop_
_atom_site_type_symbol
_atom_site_label
_atom_site_fract_x
_atom_site_fract_y
_atom_site_fract_z
Si Si1 0.929549 0.177685 0.679190
Si Si2 0.250000 0.250000 0.720142
Si Si3 0.236644 0.841626 0.896136
Si Si4 0.841820 0.052047 0.031362
Si Si5 0.639868 0.426783 0.476042
O O1 0.850071 0.169244 0.804656
O O2 0.926957 0.245404 0.668750
O O3 0.908518 0.132064 0.515524
O O4 0.016088 0.165487 0.782188
O O5 0.233844 0.302167 0.581195
O O6 0.167253 0.226164 0.816578
O O7 0.313231 0.823275 0.766158
O O8 0.228100 0.905434 0.962851
O O9 0.841836 0.053090 0.260501
#
# Coordination Sequence:
#
# PCOD9371778 Si02
#       5
#    16   8  16  16  16
#     4  12  25  47  72 113 145 199 253 307 372 451
#     4  10  22  48  70 104 150 202 238 318 372 450
#     4  11  22  46  75 104 149 196 251 314 376 441
#     4  11  25  47  74 105 151 197 249 312 381 442
#     4  11  25  47  75 107 151 195 253 309 378 443
#
# _framework density 26.221935999999999
#
# number of rings (size 3 to 8) (size 9 to 14) (size 15 to 20)
#    0.000    0.889    4.444    4.000    3.111    1.778 
#   12.000    0.000    0.000    0.000    0.000    0.000 
#    0.000    0.000    0.000    0.000    0.000    0.000 
#
# Total GULP energy -100344.892805 kJ/mol
# GULP energy per Si atom -5574.716267 kJ/mol
# Density = 2.616225 g / cm^3
# Si number density = 26.221936 Si / 1000 Ang^3
#
#
#
# Elastic Constant Matrix: (Units=GPa)
#
#
# Indices 1 2 3 4 5 6 
#
# 1 192.0500 87.3754 21.7625 0.0000 0.0000 0.0000
# 2 87.3754 222.0934 54.6944 0.0000 0.0000 0.0000
# 3 21.7625 54.6944 66.6396 0.0001 -0.0001 0.0000
# 4 0.0000 0.0000 0.0001 31.7200 0.0000 0.0000
# 5 0.0000 0.0000 -0.0001 0.0000 38.6421 0.0000
# 6 0.0000 0.0000 0.0000 0.0000 0.0000 54.0349
#
#
#
# Elastic Compliance Matrix: (Units=1/GPa)
#
#
# Indices 1 2 3 4 5 6 
#
# 1 0.006342 -0.002488 -0.000029 0.000000 0.000000 0.000000
# 2 -0.002488 0.006619 -0.004620 0.000000 0.000000 0.000000
# 3 -0.000029 -0.004620 0.018808 0.000000 0.000000 0.000000
# 4 0.000000 0.000000 0.000000 0.031526 0.000000 0.000000
# 5 0.000000 0.000000 0.000000 0.000000 0.025878 0.000000
# 6 0.000000 0.000000 0.000000 0.000000 0.000000 0.018507
#
#
# Mechanical properties :
#
#
# Convention : Reuss Voigt Hill
#
# Bulk Modulus (GPa) = 57.16129 89.82753 73.49441
# Shear Modulus (GPa) = 39.12784 46.00944 42.56864
#
# Velocity S-wave (km/s) = 3.86706 4.19336 4.03351
# Velocity P-wave (km/s) = 6.46415 7.60110 7.05556
#
# Compressibility (1/GPa) = 0.01749436
#
# Stress axis : x y z
#
# Youngs Moduli (GPa) = 157.67391 151.07514 53.16976
#
# Poissons Ratio (x) = 0.37587 0.00155
# Poissons Ratio (y) = 0.39228 0.24566
# Poissons Ratio (z) = 0.00460 0.69800
#
# Static dielectric constant tensor:
#      x y z
#    x 2.153210 0.000000 0.000000 
#    y 0.000000 2.233150 0.000000 
#    z 0.000000 0.000000 2.206760 
# 
# From -- ./inp_files/2729.got.cif
#   From: 2010.05.17/outbox.cif.g08.bks.cpg/sg43_2_cif.got.tgz:2729.got - 2010.06.03 19:21:55.
