data_PCOD9371647
_publ_section_title
;
Structure prediction by ZEFSAII (Michael W. Deem and Ramdas Pophale) SiO2 
 PCOD9371647
Probable space group: F D D 2
;
_chemical_formula_sum "Si O2"
_cell_formula_units_Z 96
_cell_length_a 22.481842
_cell_length_b 10.211812
_cell_length_c 17.658758
_cell_angle_alpha 90.000000
_cell_angle_beta 90.000000
_cell_angle_gamma 90.000000
_cell_volume 4054.103735
_symmetry_space_group_name_H-M "F D D 2"
_symmetry_group_IT_number 43
_symmetry_cell_setting 'orthorhombic'
loop_
_space_group_symop_operation_xyz
x,y,z
-x,-y,z
1/4-x,1/4+y,1/4+z
1/4+x,1/4-y,1/4+z
x,1/2+y,1/2+z
-x,1/2-y,1/2+z
1/4-x,3/4+y,3/4+z
1/4+x,3/4-y,3/4+z
1/2+x,y,1/2+z
1/2-x,-y,1/2+z
3/4-x,1/4+y,3/4+z
3/4+x,1/4-y,3/4+z
1/2+x,1/2+y,z
1/2-x,1/2-y,z
3/4-x,3/4+y,1/4+z
3/4+x,3/4-y,1/4+z
loop_
_atom_site_type_symbol
_atom_site_label
_atom_site_fract_x
_atom_site_fract_y
_atom_site_fract_z
Si Si1 0.173774 0.493904 0.811510
Si Si2 0.820634 0.231488 0.747896
Si Si3 0.768402 0.546323 0.082972
Si Si4 0.141524 0.031852 0.477364
Si Si5 0.283021 0.381241 0.733640
Si Si6 0.097618 0.947282 0.837090
O O1 0.172923 0.649107 0.805189
O O2 0.137497 0.422695 0.744425
O O3 0.147454 0.471243 0.894166
O O4 0.239816 0.438450 0.798067
O O5 0.750000 0.250000 0.725430
O O6 0.846660 0.101396 0.787502
O O7 0.859691 0.267034 0.674343
O O8 0.786098 0.482618 0.163607
O O9 0.699082 0.576305 0.083718
O O10 0.805352 0.679684 0.066215
O O11 0.794218 0.458836 0.015993
O O12 0.093605 0.931758 0.515250
O O13 0.250000 0.250000 0.701731
#
# Coordination Sequence:
#
# PCOD9371647 Si02
#       6
#    16  16  16  16  16  16
#     4  11  23  43  71 105 139 190 246 307 382 452
#     4  12  25  47  74 101 144 192 245 308 384 447
#     4  11  23  46  68 104 145 194 243 309 380 453
#     4  11  24  42  71 107 144 190 251 309 383 457
#     4  10  22  43  72 101 147 196 248 320 378 459
#     4  11  26  44  70 102 141 194 244 306 371 453
#
# _framework density 23.67971
#
# number of rings (size 3 to 8) (size 9 to 14) (size 15 to 20)
#    0.000    1.000    5.000    1.000    7.000    1.333 
#    9.000    0.833    0.000    0.000    0.000    0.000 
#    0.000    0.000    0.000    0.000    0.000    0.000 
#
# Total GULP energy -133844.423100 kJ/mol
# GULP energy per Si atom -5576.850962 kJ/mol
# Density = 2.362581 g / cm^3
# Si number density = 23.679710 Si / 1000 Ang^3
#
#
#
# Elastic Constant Matrix: (Units=GPa)
#
#
# Indices 1 2 3 4 5 6 
#
# 1 88.5063 27.1597 49.5212 0.0000 0.0000 0.0000
# 2 27.1597 73.3045 1.6819 0.0000 0.0000 0.0000
# 3 49.5212 1.6819 73.3248 0.0000 0.0000 0.0000
# 4 0.0000 0.0000 0.0000 27.6952 0.0000 0.0000
# 5 0.0000 0.0000 0.0000 0.0000 35.0671 0.0000
# 6 0.0000 0.0000 0.0000 0.0000 0.0000 35.8740
#
#
#
# Elastic Compliance Matrix: (Units=1/GPa)
#
#
# Indices 1 2 3 4 5 6 
#
# 1 0.021826 -0.007752 -0.014562 0.000000 0.000000 0.000000
# 2 -0.007752 0.016403 0.004859 0.000000 0.000000 0.000000
# 3 -0.014562 0.004859 0.023361 0.000000 0.000000 0.000000
# 4 0.000000 0.000000 0.000000 0.036107 0.000000 0.000000
# 5 0.000000 0.000000 0.000000 0.000000 0.028517 0.000000
# 6 0.000000 0.000000 0.000000 0.000000 0.000000 0.027875
#
#
# Mechanical properties :
#
#
# Convention : Reuss Voigt Hill
#
# Bulk Modulus (GPa) = 37.48289 43.54013 40.51151
# Shear Modulus (GPa) = 25.26624 30.17880 27.72252
#
# Velocity S-wave (km/s) = 3.27004 3.57383 3.42530
# Velocity P-wave (km/s) = 5.48826 5.95455 5.72616
#
# Compressibility (1/GPa) = 0.02667884
#
# Stress axis : x y z
#
# Youngs Moduli (GPa) = 45.81785 60.96630 42.80554
#
# Poissons Ratio (x) = 0.47263 0.62335
# Poissons Ratio (y) = 0.35520 -0.20801
# Poissons Ratio (z) = 0.66722 -0.29626
#
# Static dielectric constant tensor:
#      x y z
#    x 1.940440 0.000000 0.000000 
#    y 0.000000 2.024120 0.000000 
#    z 0.000000 0.000000 1.884830 
# 
# From -- ./inp_files/14822.got.cif
#   From: 2010.05.17/outbox.cif.g08.bks.cpg/sg43_8_cif.got.tgz:14822.got - 2010.06.03 19:21:55.
