data_PCOD9371677
_publ_section_title
;
Structure prediction by ZEFSAII (Michael W. Deem and Ramdas Pophale) SiO2 
 PCOD9371677
Probable space group: F D D 2
;
_chemical_formula_sum "Si O2"
_cell_formula_units_Z 88
_cell_length_a 32.213182
_cell_length_b 16.100675
_cell_length_c 7.764942
_cell_angle_alpha 90.000000
_cell_angle_beta 90.000000
_cell_angle_gamma 90.000000
_cell_volume 4027.318027
_symmetry_space_group_name_H-M "F D D 2"
_symmetry_group_IT_number 43
_symmetry_cell_setting 'orthorhombic'
loop_
_space_group_symop_operation_xyz
x,y,z
-x,-y,z
1/4-x,1/4+y,1/4+z
1/4+x,1/4-y,1/4+z
x,1/2+y,1/2+z
-x,1/2-y,1/2+z
1/4-x,3/4+y,3/4+z
1/4+x,3/4-y,3/4+z
1/2+x,y,1/2+z
1/2-x,-y,1/2+z
3/4-x,1/4+y,3/4+z
3/4+x,1/4-y,3/4+z
1/2+x,1/2+y,z
1/2-x,1/2-y,z
3/4-x,3/4+y,1/4+z
3/4+x,3/4-y,1/4+z
loop_
_atom_site_type_symbol
_atom_site_label
_atom_site_fract_x
_atom_site_fract_y
_atom_site_fract_z
Si Si1 0.250000 0.250000 0.394181
Si Si2 0.340898 0.755424 0.874358
Si Si3 0.881080 0.387393 0.323674
Si Si4 0.812362 0.491082 0.205661
Si Si5 0.267333 0.571099 0.033129
Si Si6 0.841594 0.638740 0.703405
O O1 0.294103 0.261756 0.301272
O O2 0.253821 0.165669 0.500683
O O3 0.363754 0.697080 0.737478
O O4 0.366621 0.838918 0.901988
O O5 0.338362 0.711155 0.061414
O O6 0.833649 0.404435 0.264459
O O7 0.901287 0.299943 0.379655
O O8 0.906389 0.412881 0.152236
O O9 0.791747 0.536726 0.368371
O O10 0.774162 0.477795 0.077553
O O11 0.302568 0.576980 0.178970
#
# Coordination Sequence:
#
# PCOD9371677 Si02
#       6
#     8  16  16  16  16  16
#     4  10  22  44  68  96 146 180 230 300 356 412
#     4  11  22  44  64 101 140 180 236 289 358 429
#     4  12  23  45  70 107 137 188 239 291 366 437
#     4  12  25  47  72 107 145 187 250 294 369 434
#     4  11  24  46  70 104 143 190 240 304 356 434
#     4  11  23  41  71  99 141 183 234 296 356 424
#
# _framework density 21.850769
#
# number of rings (size 3 to 8) (size 9 to 14) (size 15 to 20)
#    0.000    0.727    5.455    3.273    0.000    2.909 
#    3.273    3.636    0.000    0.000    0.000    0.000 
#    0.000    0.000    0.000    0.000    0.000    0.000 
#
# Total GULP energy -122772.562763 kJ/mol
# GULP energy per Si atom -5580.571035 kJ/mol
# Density = 2.180104 g / cm^3
# Si number density = 21.850769 Si / 1000 Ang^3
#
#
#
# Elastic Constant Matrix: (Units=GPa)
#
#
# Indices 1 2 3 4 5 6 
#
# 1 121.4532 40.2233 11.6237 0.0000 0.0000 0.0000
# 2 40.2233 68.3264 32.3978 0.0000 0.0000 0.0000
# 3 11.6237 32.3978 87.4315 0.0000 0.0000 0.0000
# 4 0.0000 0.0000 0.0000 -11.9906 0.0000 0.0000
# 5 0.0000 0.0000 0.0000 0.0000 28.3113 0.0000
# 6 0.0000 0.0000 0.0000 0.0000 0.0000 37.5546
#
#
#
# Elastic Compliance Matrix: (Units=1/GPa)
#
#
# Indices 1 2 3 4 5 6 
#
# 1 0.010309 -0.006574 0.001065 0.000000 0.000000 0.000000
# 2 -0.006574 0.021947 -0.007259 0.000000 0.000000 0.000000
# 3 0.001065 -0.007259 0.013986 0.000000 0.000000 0.000000
# 4 0.000000 0.000000 0.000000 -0.083398 0.000000 0.000000
# 5 0.000000 0.000000 0.000000 0.000000 0.035322 0.000000
# 6 0.000000 0.000000 0.000000 0.000000 0.000000 0.026628
#
#
# Mechanical properties :
#
#
# Convention : Reuss Voigt Hill
#
# Bulk Modulus (GPa) = 48.29152 49.52231 48.90691
# Shear Modulus (GPa) = 87.36697 23.63948 55.50322
#
# Velocity S-wave (km/s) = 6.33011 3.29273 5.04541
# Velocity P-wave (km/s) = 8.69342 6.09665 7.50816
#
# Compressibility (1/GPa) = 0.02070757
#
# Stress axis : x y z
#
# Youngs Moduli (GPa) = 97.00411 45.56330 71.50220
#
# Poissons Ratio (x) = 0.29953 -0.07618
# Poissons Ratio (y) = 0.63770 0.51901
# Poissons Ratio (z) = -0.10335 0.33073
#
# Static dielectric constant tensor:
#      x y z
#    x 1.863780 0.000000 0.000000 
#    y 0.000000 1.838950 0.000000 
#    z 0.000000 0.000000 1.777470 
# 
# From -- ./inp_files/2939.got.cif
#   From: 2010.05.17/outbox.cif.g08.bks.cpg/sg43_2_cif.got.tgz:2939.got - 2010.06.03 19:21:55.
