data_PCOD9371314
_publ_section_title
;
Structure prediction by ZEFSAII (Michael W. Deem and Ramdas Pophale) SiO2 
 PCOD9371314
Probable space group: F D D 2
;
_chemical_formula_sum "Si O2"
_cell_formula_units_Z 88
_cell_length_a 5.376526
_cell_length_b 26.895657
_cell_length_c 25.574496
_cell_angle_alpha 90.000000
_cell_angle_beta 90.000000
_cell_angle_gamma 90.000000
_cell_volume 3698.205087
_symmetry_space_group_name_H-M "F D D 2"
_symmetry_group_IT_number 43
_symmetry_cell_setting 'orthorhombic'
loop_
_space_group_symop_operation_xyz
x,y,z
-x,-y,z
1/4-x,1/4+y,1/4+z
1/4+x,1/4-y,1/4+z
x,1/2+y,1/2+z
-x,1/2-y,1/2+z
1/4-x,3/4+y,3/4+z
1/4+x,3/4-y,3/4+z
1/2+x,y,1/2+z
1/2-x,-y,1/2+z
3/4-x,1/4+y,3/4+z
3/4+x,1/4-y,3/4+z
1/2+x,1/2+y,z
1/2-x,1/2-y,z
3/4-x,3/4+y,1/4+z
3/4+x,3/4-y,1/4+z
loop_
_atom_site_type_symbol
_atom_site_label
_atom_site_fract_x
_atom_site_fract_y
_atom_site_fract_z
Si Si1 0.956750 0.652938 0.516000
Si Si2 0.750000 0.250000 0.818764
Si Si3 0.783128 0.906209 0.928917
Si Si4 0.386489 0.436324 0.499999
Si Si5 0.750000 0.250000 0.064256
Si Si6 0.989863 0.342741 0.341870
Si Si7 0.250000 0.250000 0.135176
O O1 0.740003 0.616782 0.498653
O O2 0.838862 0.705699 0.526541
O O3 0.158488 0.636260 0.472617
O O4 0.070456 0.634052 0.570739
O O5 0.556242 0.223640 0.778159
O O6 0.647554 0.293876 0.856915
O O7 0.543174 0.938246 0.946300
O O8 0.795566 0.872030 0.877634
O O9 0.991645 0.949722 0.920539
O O10 0.599373 0.430921 0.543206
O O11 0.499544 0.242784 0.099713
#
# Coordination Sequence:
#
# PCOD9371314 Si02
#       7
#    16   8  16  16   8  16   8
#     4  10  24  43  72 102 151 193 248 315 390 452
#     4  10  22  40  70 100 146 206 246 310 402 448
#     4  11  25  44  71 113 143 195 259 317 376 472
#     4  10  23  42  71 100 148 194 245 319 385 455
#     4  12  26  51  76 105 150 211 246 316 397 466
#     4  10  21  44  66 102 149 200 241 319 378 459
#     4  12  28  47  78 107 150 201 262 316 385 466
#
# _framework density 23.795325999999999
#
# number of rings (size 3 to 8) (size 9 to 14) (size 15 to 20)
#    0.000    1.455    1.818    1.636    5.091   11.636 
#    0.000    1.818    0.000    0.000    0.000    0.000 
#    0.000    0.000    0.000    0.000    0.000    0.000 
#
# Total GULP energy -122530.285936 kJ/mol
# GULP energy per Si atom -5569.558452 kJ/mol
# Density = 2.374117 g / cm^3
# Si number density = 23.795326 Si / 1000 Ang^3
#
#
#
# Elastic Constant Matrix: (Units=GPa)
#
#
# Indices 1 2 3 4 5 6 
#
# 1 111.6335 41.1391 13.2647 0.0000 0.0000 0.0000
# 2 41.1391 163.4711 37.0732 0.0000 0.0000 0.0000
# 3 13.2647 37.0732 49.8300 0.0000 0.0000 0.0000
# 4 0.0000 0.0000 0.0000 18.2804 0.0000 0.0000
# 5 0.0000 0.0000 0.0000 0.0000 10.4176 0.0000
# 6 0.0000 0.0000 0.0000 0.0000 0.0000 17.9452
#
#
#
# Elastic Compliance Matrix: (Units=1/GPa)
#
#
# Indices 1 2 3 4 5 6 
#
# 1 0.009910 -0.002280 -0.000941 0.000000 0.000000 0.000000
# 2 -0.002280 0.007884 -0.005258 0.000000 0.000000 0.000000
# 3 -0.000941 -0.005258 0.024231 0.000000 0.000000 0.000000
# 4 0.000000 0.000000 0.000000 0.054703 0.000000 0.000000
# 5 0.000000 0.000000 0.000000 0.000000 0.095991 0.000000
# 6 0.000000 0.000000 0.000000 0.000000 0.000000 0.055725
#
#
# Mechanical properties :
#
#
# Convention : Reuss Voigt Hill
#
# Bulk Modulus (GPa) = 39.89725 56.43208 48.16466
# Shear Modulus (GPa) = 18.26417 24.89248 21.57833
#
# Velocity S-wave (km/s) = 2.77348 3.23787 3.01463
# Velocity P-wave (km/s) = 5.20187 6.14374 5.69232
#
# Compressibility (1/GPa) = 0.02506439
#
# Stress axis : x y z
#
# Youngs Moduli (GPa) = 100.90667 126.84341 41.26934
#
# Poissons Ratio (x) = 0.28927 0.03885
# Poissons Ratio (y) = 0.23012 0.21701
# Poissons Ratio (z) = 0.09499 0.66699
#
# Static dielectric constant tensor:
#      x y z
#    x 2.114940 0.000000 0.000000 
#    y 0.000000 1.906860 0.000000 
#    z 0.000000 0.000000 2.043150 
# 
# From -- ./inp_files/19572.got.cif
#   From: 2010.05.17/outbox.cif.g08.bks.cpg/sg43_10_cif.got.tgz:19572.got - 2010.06.03 19:21:55.
