data_PCOD9371935
_publ_section_title
;
Structure prediction by ZEFSAII (Michael W. Deem and Ramdas Pophale) SiO2 
 PCOD9371935
Probable space group: F D D 2
;
_chemical_formula_sum "Si O2"
_cell_formula_units_Z 72
_cell_length_a 18.864595
_cell_length_b 9.611705
_cell_length_c 18.718823
_cell_angle_alpha 90.000000
_cell_angle_beta 90.000000
_cell_angle_gamma 90.000000
_cell_volume 3394.114247
_symmetry_space_group_name_H-M "F D D 2"
_symmetry_group_IT_number 43
_symmetry_cell_setting 'orthorhombic'
loop_
_space_group_symop_operation_xyz
x,y,z
-x,-y,z
1/4-x,1/4+y,1/4+z
1/4+x,1/4-y,1/4+z
x,1/2+y,1/2+z
-x,1/2-y,1/2+z
1/4-x,3/4+y,3/4+z
1/4+x,3/4-y,3/4+z
1/2+x,y,1/2+z
1/2-x,-y,1/2+z
3/4-x,1/4+y,3/4+z
3/4+x,1/4-y,3/4+z
1/2+x,1/2+y,z
1/2-x,1/2-y,z
3/4-x,3/4+y,1/4+z
3/4+x,3/4-y,1/4+z
loop_
_atom_site_type_symbol
_atom_site_label
_atom_site_fract_x
_atom_site_fract_y
_atom_site_fract_z
Si Si1 0.653951 0.487914 0.818840
Si Si2 0.903951 0.237913 0.399032
Si Si3 0.500000 0.000000 0.733935
Si Si4 0.038744 0.241215 0.662664
Si Si5 0.461256 0.241215 0.305207
O O1 0.625000 0.624999 0.858937
O O2 0.657811 0.500003 0.733936
O O3 0.731623 0.477893 0.851872
O O4 0.601350 0.357577 0.830610
O O5 0.851350 0.107577 0.387261
O O6 0.981623 0.227893 0.365999
O O7 0.552506 0.895953 0.692170
O O8 0.447495 0.895953 0.775701
O O9 0.000001 0.174990 0.733936
#
# Coordination Sequence:
#
# PCOD9371935 Si02
#       5
#    16  16   8  16  16
#     4  12  23  44  75 107 152 200 263 322 401 466
#     4  12  23  44  75 107 152 200 263 322 401 466
#     4   8  20  48  66  96 160 192 238 338 382 440
#     4  10  23  45  69 106 149 202 254 324 385 471
#     4  10  23  45  69 106 149 202 254 324 385 471
#
# _framework density 21.213190999999998
#
# number of rings (size 3 to 8) (size 9 to 14) (size 15 to 20)
#    1.333    0.000    4.444    1.333    0.000    1.778 
#   12.000    0.000    0.000    0.000    0.000    0.000 
#    0.000    0.000    0.000    0.000    0.000    0.000 
#
# Total GULP energy -100250.773029 kJ/mol
# GULP energy per Si atom -5569.487391 kJ/mol
# Density = 2.116491 g / cm^3
# Si number density = 21.213191 Si / 1000 Ang^3
#
#
#
# Elastic Constant Matrix: (Units=GPa)
#
#
# Indices 1 2 3 4 5 6 
#
# 1 129.0496 87.8450 71.6063 0.0000 0.0000 0.0000
# 2 87.8450 190.2823 73.0904 0.0000 0.0000 0.0000
# 3 71.6063 73.0904 148.4832 0.0000 0.0000 0.0000
# 4 0.0000 0.0000 0.0000 43.1206 0.0000 0.0000
# 5 0.0000 0.0000 0.0000 0.0000 30.6332 0.0000
# 6 0.0000 0.0000 0.0000 0.0000 0.0000 53.3309
#
#
#
# Elastic Compliance Matrix: (Units=1/GPa)
#
#
# Indices 1 2 3 4 5 6 
#
# 1 0.013057 -0.004451 -0.004106 0.000000 0.000000 0.000000
# 2 -0.004451 0.007998 -0.001791 0.000000 0.000000 0.000000
# 3 -0.004106 -0.001791 0.009596 0.000000 0.000000 0.000000
# 4 0.000000 0.000000 0.000000 0.023191 0.000000 0.000000
# 5 0.000000 0.000000 0.000000 0.000000 0.032644 0.000000
# 6 0.000000 0.000000 0.000000 0.000000 0.000000 0.018751
#
#
# Mechanical properties :
#
#
# Convention : Reuss Voigt Hill
#
# Bulk Modulus (GPa) = 100.43478 103.65540 102.04509
# Shear Modulus (GPa) = 38.68484 41.10185 39.89334
#
# Velocity S-wave (km/s) = 4.27502 4.40655 4.34128
# Velocity P-wave (km/s) = 8.47443 8.65216 8.56376
#
# Compressibility (1/GPa) = 0.00995671
#
# Stress axis : x y z
#
# Youngs Moduli (GPa) = 76.58872 125.03453 104.20768
#
# Poissons Ratio (x) = 0.55648 0.42786
# Poissons Ratio (y) = 0.34087 0.18659
# Poissons Ratio (z) = 0.31446 0.22388
#
# Static dielectric constant tensor:
#      x y z
#    x 1.782800 0.000000 0.000000 
#    y 0.000000 1.843470 0.000000 
#    z 0.000000 0.000000 1.828440 
# 
# From -- ./inp_files/14149.got.cif
#   From: 2010.05.17/outbox.cif.g08.bks.cpg/sg43_8_cif.got.tgz:14149.got - 2010.06.03 19:21:55.
