data_PCOD9371628
_publ_section_title
;
Structure prediction by ZEFSAII (Michael W. Deem and Ramdas Pophale) SiO2 
 PCOD9371628
Probable space group: F D D 2
;
_chemical_formula_sum "Si O2"
_cell_formula_units_Z 80
_cell_length_a 17.929638
_cell_length_b 7.496204
_cell_length_c 27.242532
_cell_angle_alpha 90.000000
_cell_angle_beta 90.000000
_cell_angle_gamma 90.000000
_cell_volume 3661.511376
_symmetry_space_group_name_H-M "F D D 2"
_symmetry_group_IT_number 43
_symmetry_cell_setting 'orthorhombic'
loop_
_space_group_symop_operation_xyz
x,y,z
-x,-y,z
1/4-x,1/4+y,1/4+z
1/4+x,1/4-y,1/4+z
x,1/2+y,1/2+z
-x,1/2-y,1/2+z
1/4-x,3/4+y,3/4+z
1/4+x,3/4-y,3/4+z
1/2+x,y,1/2+z
1/2-x,-y,1/2+z
3/4-x,1/4+y,3/4+z
3/4+x,1/4-y,3/4+z
1/2+x,1/2+y,z
1/2-x,1/2-y,z
3/4-x,3/4+y,1/4+z
3/4+x,3/4-y,1/4+z
loop_
_atom_site_type_symbol
_atom_site_label
_atom_site_fract_x
_atom_site_fract_y
_atom_site_fract_z
Si Si1 0.322845 0.992065 0.629500
Si Si2 0.000000 0.500000 0.461242
Si Si3 0.658699 0.543183 0.759770
Si Si4 0.612327 0.155830 0.157514
Si Si5 0.803721 0.955011 0.868730
Si Si6 0.000000 0.500000 0.304472
O O1 0.288238 0.905286 0.678711
O O2 0.401467 0.888813 0.622376
O O3 0.267715 0.920252 0.588018
O O4 0.339789 0.200270 0.627879
O O5 0.939944 0.398060 0.493786
O O6 0.651655 0.663921 0.711042
O O7 0.701620 0.589388 0.810411
O O8 0.572695 0.530141 0.773626
O O9 0.524684 0.207024 0.147826
O O10 0.607384 0.949105 0.141339
#
# Coordination Sequence:
#
# PCOD9371628 Si02
#       6
#    16   8  16  16  16   8
#     4  10  22  43  67  98 140 190 226 296 364 430
#     4  11  24  42  72 100 142 184 244 300 369 436
#     4  11  24  44  69 105 141 190 240 305 360 441
#     4  11  23  43  72 100 148 183 239 302 359 433
#     4  10  23  44  67 107 142 189 239 298 362 437
#     4   9  22  44  68  94 144 184 234 294 363 426
#
# _framework density 21.848901999999999
#
# number of rings (size 3 to 8) (size 9 to 14) (size 15 to 20)
#    0.000    1.600    2.000    1.800    5.600    4.000 
#    0.000    0.000    0.000    0.000    0.000    0.000 
#    0.000    0.000    0.000    0.000    0.000    0.000 
#
# Total GULP energy -111549.912941 kJ/mol
# GULP energy per Si atom -5577.495647 kJ/mol
# Density = 2.179917 g / cm^3
# Si number density = 21.848902 Si / 1000 Ang^3
#
#
#
# Elastic Constant Matrix: (Units=GPa)
#
#
# Indices 1 2 3 4 5 6 
#
# 1 96.6910 29.7308 12.5599 0.0000 0.0000 0.0000
# 2 29.7308 80.4266 14.9379 0.0000 0.0000 0.0000
# 3 12.5599 14.9379 80.7941 0.0000 0.0000 0.0000
# 4 0.0000 0.0000 0.0000 7.3777 0.0000 0.0000
# 5 0.0000 0.0000 0.0000 0.0000 -18.2000 0.0000
# 6 0.0000 0.0000 0.0000 0.0000 0.0000 44.2863
#
#
#
# Elastic Compliance Matrix: (Units=1/GPa)
#
#
# Indices 1 2 3 4 5 6 
#
# 1 0.011756 -0.004149 -0.001060 0.000000 0.000000 0.000000
# 2 -0.004149 0.014340 -0.002006 0.000000 0.000000 0.000000
# 3 -0.001060 -0.002006 0.012913 0.000000 0.000000 0.000000
# 4 0.000000 0.000000 0.000000 0.135543 0.000000 0.000000
# 5 0.000000 0.000000 0.000000 0.000000 -0.054945 0.000000
# 6 0.000000 0.000000 0.000000 0.000000 0.000000 0.022580
#
#
# Mechanical properties :
#
#
# Convention : Reuss Voigt Hill
#
# Bulk Modulus (GPa) = 40.68747 41.37432 41.03089
# Shear Modulus (GPa) = 30.33789 20.07168 25.20478
#
# Velocity S-wave (km/s) = 3.73034 3.03423 3.40015
# Velocity P-wave (km/s) = 6.10054 5.59044 5.85105
#
# Compressibility (1/GPa) = 0.02457759
#
# Stress axis : x y z
#
# Youngs Moduli (GPa) = 85.06571 69.73518 77.44165
#
# Poissons Ratio (x) = 0.28931 0.08212
# Poissons Ratio (y) = 0.35291 0.15538
# Poissons Ratio (z) = 0.09021 0.13991
#
# Static dielectric constant tensor:
#      x y z
#    x 1.830570 0.000000 0.000000 
#    y 0.000000 1.768830 0.000000 
#    z 0.000000 0.000000 1.870010 
# 
# From -- ./inp_files/22564.got.cif
#   From: 2010.05.17/outbox.cif.g08.bks.cpg/sg43_12_cif.got.tgz:22564.got - 2010.06.03 19:21:55.
