data_PCOD9371383
_publ_section_title
;
Structure prediction by ZEFSAII (Michael W. Deem and Ramdas Pophale) SiO2 
 PCOD9371383
Probable space group: F D D 2
;
_chemical_formula_sum "Si O2"
_cell_formula_units_Z 80
_cell_length_a 24.138935
_cell_length_b 9.083294
_cell_length_c 15.924031
_cell_angle_alpha 90.000000
_cell_angle_beta 90.000000
_cell_angle_gamma 90.000000
_cell_volume 3491.519653
_symmetry_space_group_name_H-M "F D D 2"
_symmetry_group_IT_number 43
_symmetry_cell_setting 'orthorhombic'
loop_
_space_group_symop_operation_xyz
x,y,z
-x,-y,z
1/4-x,1/4+y,1/4+z
1/4+x,1/4-y,1/4+z
x,1/2+y,1/2+z
-x,1/2-y,1/2+z
1/4-x,3/4+y,3/4+z
1/4+x,3/4-y,3/4+z
1/2+x,y,1/2+z
1/2-x,-y,1/2+z
3/4-x,1/4+y,3/4+z
3/4+x,1/4-y,3/4+z
1/2+x,1/2+y,z
1/2-x,1/2-y,z
3/4-x,3/4+y,1/4+z
3/4+x,3/4-y,1/4+z
loop_
_atom_site_type_symbol
_atom_site_label
_atom_site_fract_x
_atom_site_fract_y
_atom_site_fract_z
Si Si1 0.722446 0.607446 0.418050
Si Si2 0.810675 0.693097 0.726851
Si Si3 0.086096 0.754797 0.649942
Si Si4 0.110079 0.241342 0.338741
Si Si5 0.402477 0.897103 0.158928
O O1 0.750000 0.750000 0.463589
O O2 0.775278 0.542868 0.368039
O O3 0.669329 0.673899 0.369244
O O4 0.697278 0.457520 0.457038
O O5 0.750000 0.750000 0.746982
O O6 0.815380 0.573952 0.652802
O O7 0.838916 0.621927 0.808878
O O8 0.845261 0.834200 0.693737
O O9 0.131425 0.667123 0.596543
O O10 0.095103 0.698989 0.744967
O O11 0.090651 0.928667 0.658963
#
# Coordination Sequence:
#
# PCOD9371383 Si02
#       5
#    16  16  16  16  16
#     4   9  20  38  63  89 123 165 205 252 313 374
#     4  11  24  43  64  91 129 172 216 266 324 385
#     4  11  21  38  63  93 127 165 213 268 320 376
#     4  10  22  38  61  91 124 166 216 262 319 387
#     4  11  23  41  66  94 127 168 214 264 320 384
#
# _framework density 22.912659999999999
#
# number of rings (size 3 to 8) (size 9 to 14) (size 15 to 20)
#    0.000    1.600    0.000    5.400    0.000    7.200 
#    0.000    3.000    0.000    0.000    0.000    0.000 
#    0.000    0.000    0.000    0.000    0.000    0.000 
#
# Total GULP energy -111472.896265 kJ/mol
# GULP energy per Si atom -5573.644813 kJ/mol
# Density = 2.286051 g / cm^3
# Si number density = 22.912660 Si / 1000 Ang^3
#
#
#
# Elastic Constant Matrix: (Units=GPa)
#
#
# Indices 1 2 3 4 5 6 
#
# 1 65.5608 35.4078 9.8598 0.0000 0.0000 0.0000
# 2 35.4078 167.3328 -13.7939 0.0000 0.0000 0.0000
# 3 9.8598 -13.7939 80.9945 0.0000 0.0000 0.0000
# 4 0.0000 0.0000 0.0000 22.1225 0.0000 0.0000
# 5 0.0000 0.0000 0.0000 0.0000 7.9930 0.0000
# 6 0.0000 0.0000 0.0000 0.0000 0.0000 31.9731
#
#
#
# Elastic Compliance Matrix: (Units=1/GPa)
#
#
# Indices 1 2 3 4 5 6 
#
# 1 0.017850 -0.004012 -0.002856 0.000000 0.000000 0.000000
# 2 -0.004012 0.006963 0.001674 0.000000 0.000000 0.000000
# 3 -0.002856 0.001674 0.012979 0.000000 0.000000 0.000000
# 4 0.000000 0.000000 0.000000 0.045203 0.000000 0.000000
# 5 0.000000 0.000000 0.000000 0.000000 0.125110 0.000000
# 6 0.000000 0.000000 0.000000 0.000000 0.000000 0.031276
#
#
# Mechanical properties :
#
#
# Convention : Reuss Voigt Hill
#
# Bulk Modulus (GPa) = 36.49184 41.87062 39.18123
# Shear Modulus (GPa) = 19.31214 31.24533 25.27873
#
# Velocity S-wave (km/s) = 2.90635 3.69680 3.32515
# Velocity P-wave (km/s) = 5.21762 6.04446 5.64619
#
# Compressibility (1/GPa) = 0.02740339
#
# Stress axis : x y z
#
# Youngs Moduli (GPa) = 56.02369 143.61270 77.04535
#
# Poissons Ratio (x) = 0.57624 0.22006
# Poissons Ratio (y) = 0.22479 -0.12900
# Poissons Ratio (z) = 0.16002 -0.24045
#
# Static dielectric constant tensor:
#      x y z
#    x 1.861340 0.000000 0.000000 
#    y 0.000000 1.986780 0.000000 
#    z 0.000000 0.000000 1.884940 
# 
# From -- ./inp_files/12745.got.cif
#   From: 2010.05.17/outbox.cif.g08.bks.cpg/sg43_7_cif.got.tgz:12745.got - 2010.06.03 19:21:55.
