data_PCOD9371683
_publ_section_title
;
Structure prediction by ZEFSAII (Michael W. Deem and Ramdas Pophale) SiO2 
 PCOD9371683
Probable space group: F D D 2
;
_chemical_formula_sum "Si O2"
_cell_formula_units_Z 88
_cell_length_a 11.874892
_cell_length_b 11.068985
_cell_length_c 27.080271
_cell_angle_alpha 90.000000
_cell_angle_beta 90.000000
_cell_angle_gamma 90.000000
_cell_volume 3559.512100
_symmetry_space_group_name_H-M "F D D 2"
_symmetry_group_IT_number 43
_symmetry_cell_setting 'orthorhombic'
loop_
_space_group_symop_operation_xyz
x,y,z
-x,-y,z
1/4-x,1/4+y,1/4+z
1/4+x,1/4-y,1/4+z
x,1/2+y,1/2+z
-x,1/2-y,1/2+z
1/4-x,3/4+y,3/4+z
1/4+x,3/4-y,3/4+z
1/2+x,y,1/2+z
1/2-x,-y,1/2+z
3/4-x,1/4+y,3/4+z
3/4+x,1/4-y,3/4+z
1/2+x,1/2+y,z
1/2-x,1/2-y,z
3/4-x,3/4+y,1/4+z
3/4+x,3/4-y,1/4+z
loop_
_atom_site_type_symbol
_atom_site_label
_atom_site_fract_x
_atom_site_fract_y
_atom_site_fract_z
Si Si1 0.191533 0.577501 0.508310
Si Si2 0.864770 0.676800 0.548202
Si Si3 0.293600 0.381442 0.752494
Si Si4 0.750000 0.750000 0.372433
Si Si5 0.878816 0.261966 0.416748
Si Si6 0.556384 0.877432 0.365756
O O1 0.171429 0.434183 0.511657
O O2 0.320647 0.623702 0.511239
O O3 0.131618 0.637180 0.460954
O O4 0.146402 0.629281 0.560521
O O5 0.750000 0.750000 0.560661
O O6 0.957008 0.771516 0.526347
O O7 0.923756 0.598972 0.592416
O O8 0.250000 0.250000 0.764934
O O9 0.302515 0.406832 0.693853
O O10 0.656888 0.829929 0.399544
O O11 0.750000 0.250000 0.402027
O O12 0.950688 0.289986 0.368997
O O13 0.500000 0.000000 0.381080
#
# Coordination Sequence:
#
# PCOD9371683 Si02
#       6
#    16  16  16   8  16  16
#     4  10  22  44  70 100 139 178 243 299 354 431
#     4  11  21  39  72 104 134 194 238 291 364 439
#     4  11  21  39  65 100 140 183 231 292 359 428
#     4  10  24  46  64 106 148 174 242 314 348 438
#     4  10  24  45  68 102 139 189 238 304 360 434
#     4  11  23  45  71 101 139 191 234 298 369 430
#
# _framework density 24.722490000000001
#
# number of rings (size 3 to 8) (size 9 to 14) (size 15 to 20)
#    0.000    1.455    1.818    4.909    2.545    0.727 
#   14.727    0.909    0.000    0.000    0.000    0.000 
#    0.000    0.000    0.000    0.000    0.000    0.000 
#
# Total GULP energy -122594.090188 kJ/mol
# GULP energy per Si atom -5572.458645 kJ/mol
# Density = 2.466622 g / cm^3
# Si number density = 24.722490 Si / 1000 Ang^3
#
#
#
# Elastic Constant Matrix: (Units=GPa)
#
#
# Indices 1 2 3 4 5 6 
#
# 1 156.6578 74.0400 30.3502 0.0000 0.0000 0.0000
# 2 74.0400 141.1368 8.9941 0.0000 0.0000 0.0000
# 3 30.3502 8.9941 54.5215 0.0000 0.0000 0.0000
# 4 0.0000 0.0000 0.0000 -22.6347 0.0000 0.0000
# 5 0.0000 0.0000 0.0000 0.0000 37.3404 0.0000
# 6 0.0000 0.0000 0.0000 0.0000 0.0000 57.7023
#
#
#
# Elastic Compliance Matrix: (Units=1/GPa)
#
#
# Indices 1 2 3 4 5 6 
#
# 1 0.009466 -0.004679 -0.004498 0.000000 0.000000 0.000000
# 2 -0.004679 0.009474 0.001042 0.000000 0.000000 0.000000
# 3 -0.004498 0.001042 0.020673 0.000000 0.000000 0.000000
# 4 0.000000 0.000000 0.000000 -0.044180 0.000000 0.000000
# 5 0.000000 0.000000 0.000000 0.000000 0.026781 0.000000
# 6 0.000000 0.000000 0.000000 0.000000 0.000000 0.017330
#
#
# Mechanical properties :
#
#
# Convention : Reuss Voigt Hill
#
# Bulk Modulus (GPa) = 42.83901 64.34274 53.59088
# Shear Modulus (GPa) = 78.62244 30.41039 54.51641
#
# Velocity S-wave (km/s) = 5.64544 3.51104 4.70098
# Velocity P-wave (km/s) = 7.73694 6.52066 7.15469
#
# Compressibility (1/GPa) = 0.02334321
#
# Stress axis : x y z
#
# Youngs Moduli (GPa) = 105.63839 105.55542 48.37191
#
# Poissons Ratio (x) = 0.49393 0.21756
# Poissons Ratio (y) = 0.49432 -0.05040
# Poissons Ratio (z) = 0.47512 -0.10999
#
# Static dielectric constant tensor:
#      x y z
#    x 1.979830 0.000000 0.000000 
#    y 0.000000 2.197230 0.000000 
#    z 0.000000 0.000000 1.989590 
# 
# From -- ./inp_files/28448.got.cif
#   From: 2010.05.17/outbox.cif.g08.bks.cpg/sg43_15_cif.got.tgz:28448.got - 2010.06.03 19:21:55.
