data_PCOD9371875
_publ_section_title
;
Structure prediction by ZEFSAII (Michael W. Deem and Ramdas Pophale) SiO2 
 PCOD9371875
Probable space group: F D D 2
;
_chemical_formula_sum "Si O2"
_cell_formula_units_Z 120
_cell_length_a 11.238021
_cell_length_b 20.940273
_cell_length_c 25.731244
_cell_angle_alpha 90.000000
_cell_angle_beta 90.000000
_cell_angle_gamma 90.000000
_cell_volume 6055.262316
_symmetry_space_group_name_H-M "F D D 2"
_symmetry_group_IT_number 43
_symmetry_cell_setting 'orthorhombic'
loop_
_space_group_symop_operation_xyz
x,y,z
-x,-y,z
1/4-x,1/4+y,1/4+z
1/4+x,1/4-y,1/4+z
x,1/2+y,1/2+z
-x,1/2-y,1/2+z
1/4-x,3/4+y,3/4+z
1/4+x,3/4-y,3/4+z
1/2+x,y,1/2+z
1/2-x,-y,1/2+z
3/4-x,1/4+y,3/4+z
3/4+x,1/4-y,3/4+z
1/2+x,1/2+y,z
1/2-x,1/2-y,z
3/4-x,3/4+y,1/4+z
3/4+x,3/4-y,1/4+z
loop_
_atom_site_type_symbol
_atom_site_label
_atom_site_fract_x
_atom_site_fract_y
_atom_site_fract_z
Si Si1 0.369592 0.791299 0.309580
Si Si2 0.885094 0.777229 0.482280
Si Si3 0.676560 0.576210 0.870840
Si Si4 0.569277 0.433546 0.335715
Si Si5 0.821064 0.414289 0.492243
Si Si6 0.947528 0.805979 0.366191
Si Si7 0.000000 0.500000 0.552213
Si Si8 0.872647 0.775066 0.031255
O O1 0.250000 0.750000 0.301738
O O2 0.345466 0.856998 0.340940
O O3 0.437211 0.813821 0.257094
O O4 0.460602 0.746489 0.342825
O O5 0.750000 0.750000 0.474720
O O6 0.865565 0.829658 0.527064
O O7 0.932499 0.798302 0.427204
O O8 0.996100 0.736403 0.506197
O O9 0.816374 0.561845 0.871305
O O10 0.646435 0.588149 0.931277
O O11 0.625993 0.517091 0.835245
O O12 0.500000 0.500000 0.334478
O O13 0.491089 0.375803 0.353413
O O14 0.904491 0.467583 0.516193
O O15 0.850637 0.350603 0.525786
O O16 0.820430 0.797447 0.339332
O O17 0.750000 0.750000 0.003779
#
# Coordination Sequence:
#
# PCOD9371875 Si02
#       8
#    16  16  16  16  16  16   8  16
#     4  11  23  45  67 100 142 175 230 290 344 426
#     4  10  23  43  68  99 129 181 233 274 347 414
#     4  11  24  44  69 103 137 179 234 287 351 418
#     4  10  24  42  63  98 134 170 226 282 333 425
#     4  11  26  44  71 100 140 181 229 288 361 408
#     4  11  22  44  68  92 131 178 223 280 342 410
#     4  10  26  42  60  98 132 174 226 280 332 420
#     4  11  24  44  74 102 140 179 237 294 341 424
#
# _framework density 19.817473
#
# number of rings (size 3 to 8) (size 9 to 14) (size 15 to 20)
#    0.000    1.333    3.333    0.800    8.400    1.600 
#    4.800    0.000    0.000    0.000    0.000    0.000 
#    0.000    0.000    0.000    0.000    0.000    0.000 
#
# Total GULP energy -167061.422873 kJ/mol
# GULP energy per Si atom -5568.714096 kJ/mol
# Density = 1.977237 g / cm^3
# Si number density = 19.817473 Si / 1000 Ang^3
#
#
#
# Elastic Constant Matrix: (Units=GPa)
#
#
# Indices 1 2 3 4 5 6 
#
# 1 117.9290 28.4305 33.8147 0.0000 0.0000 0.0000
# 2 28.4305 91.1551 58.3564 0.0000 0.0000 0.0000
# 3 33.8147 58.3564 97.7380 0.0000 0.0000 0.0000
# 4 0.0000 0.0000 0.0000 11.4741 0.0000 0.0000
# 5 0.0000 0.0000 0.0000 0.0000 16.8069 0.0000
# 6 0.0000 0.0000 0.0000 0.0000 0.0000 33.4763
#
#
#
# Elastic Compliance Matrix: (Units=1/GPa)
#
#
# Indices 1 2 3 4 5 6 
#
# 1 0.009522 -0.001393 -0.002462 0.000000 0.000000 0.000000
# 2 -0.001393 0.017962 -0.010243 0.000000 0.000000 0.000000
# 3 -0.002462 -0.010243 0.017199 0.000000 0.000000 0.000000
# 4 0.000000 0.000000 0.000000 0.087153 0.000000 0.000000
# 5 0.000000 0.000000 0.000000 0.000000 0.059499 0.000000
# 6 0.000000 0.000000 0.000000 0.000000 0.000000 0.029872
#
#
# Mechanical properties :
#
#
# Convention : Reuss Voigt Hill
#
# Bulk Modulus (GPa) = 60.65710 60.89169 60.77440
# Shear Modulus (GPa) = 19.61566 24.76617 22.19092
#
# Velocity S-wave (km/s) = 3.14955 3.53896 3.34992
# Velocity P-wave (km/s) = 6.62575 6.89144 6.75990
#
# Compressibility (1/GPa) = 0.01648612
#
# Stress axis : x y z
#
# Youngs Moduli (GPa) = 105.02405 55.67299 58.14363
#
# Poissons Ratio (x) = 0.07757 0.14316
# Poissons Ratio (y) = 0.14634 0.59554
# Poissons Ratio (z) = 0.25860 0.57023
#
# Static dielectric constant tensor:
#      x y z
#    x 1.754550 0.000000 0.000000 
#    y 0.000000 1.696750 0.000000 
#    z 0.000000 0.000000 1.713420 
# 
# From -- ./inp_files/25275.got.cif
#   From: 2010.05.17/outbox.cif.g08.bks.cpg/sg43_13_cif.got.tgz:25275.got - 2010.06.03 19:21:55.
