data_PCOD9371814
_publ_section_title
;
Structure prediction by ZEFSAII (Michael W. Deem and Ramdas Pophale) SiO2 
 PCOD9371814
Probable space group: F D D 2
;
_chemical_formula_sum "Si O2"
_cell_formula_units_Z 112
_cell_length_a 11.818913
_cell_length_b 13.692780
_cell_length_c 30.490142
_cell_angle_alpha 90.000000
_cell_angle_beta 90.000000
_cell_angle_gamma 90.000000
_cell_volume 4934.334797
_symmetry_space_group_name_H-M "F D D 2"
_symmetry_group_IT_number 43
_symmetry_cell_setting 'orthorhombic'
loop_
_space_group_symop_operation_xyz
x,y,z
-x,-y,z
1/4-x,1/4+y,1/4+z
1/4+x,1/4-y,1/4+z
x,1/2+y,1/2+z
-x,1/2-y,1/2+z
1/4-x,3/4+y,3/4+z
1/4+x,3/4-y,3/4+z
1/2+x,y,1/2+z
1/2-x,-y,1/2+z
3/4-x,1/4+y,3/4+z
3/4+x,1/4-y,3/4+z
1/2+x,1/2+y,z
1/2-x,1/2-y,z
3/4-x,3/4+y,1/4+z
3/4+x,3/4-y,1/4+z
loop_
_atom_site_type_symbol
_atom_site_label
_atom_site_fract_x
_atom_site_fract_y
_atom_site_fract_z
Si Si1 0.113952 0.061243 0.720670
Si Si2 0.021011 0.110285 0.208587
Si Si3 0.538061 0.242849 0.555698
Si Si4 0.624135 0.297119 0.839976
Si Si5 0.003057 0.141615 0.927426
Si Si6 0.740739 0.541593 0.906536
Si Si7 0.954743 0.903068 0.304265
O O1 0.074935 0.142988 0.685968
O O2 0.166683 0.069415 0.769592
O O3 0.202226 0.993815 0.695220
O O4 0.000000 0.000000 0.727866
O O5 0.153539 0.140420 0.209996
O O6 0.974329 0.183964 0.172765
O O7 0.978773 0.113715 0.258489
O O8 0.000000 0.000000 0.194418
O O9 0.616848 0.144919 0.559879
O O10 0.517040 0.290528 0.603737
O O11 0.419806 0.193138 0.543188
O O12 0.750000 0.250000 0.844443
O O13 0.565583 0.340281 0.882997
O O14 0.551890 0.202739 0.825705
O O15 0.113259 0.075379 0.920379
O O16 0.000000 0.000000 0.329157
#
# Coordination Sequence:
#
# PCOD9371814 Si02
#       7
#    16  16  16  16  16  16  16
#     4  10  25  43  66  99 144 181 227 291 352 426
#     4  11  23  42  66  96 135 171 231 284 341 416
#     4  11  23  42  68 102 137 181 238 285 351 427
#     4  10  23  39  69 104 135 178 233 293 351 424
#     4  11  22  42  65  98 132 177 222 285 348 413
#     4  11  26  41  69 102 137 181 232 284 356 415
#     4  10  24  42  67  99 138 179 228 291 349 427
#
# _framework density 22.698094999999999
#
# number of rings (size 3 to 8) (size 9 to 14) (size 15 to 20)
#    0.000    1.429    2.857    0.857   10.000    1.143 
#    0.000    0.714    0.000    0.000    0.000    0.000 
#    0.000    0.000    0.000    0.000    0.000    0.000 
#
# Total GULP energy -155989.349662 kJ/mol
# GULP energy per Si atom -5571.048202 kJ/mol
# Density = 2.264643 g / cm^3
# Si number density = 22.698095 Si / 1000 Ang^3
#
#
#
# Elastic Constant Matrix: (Units=GPa)
#
#
# Indices 1 2 3 4 5 6 
#
# 1 28.6202 13.3241 5.1347 0.0000 0.0000 0.0000
# 2 13.3241 118.3902 68.8582 0.0000 0.0000 0.0000
# 3 5.1347 68.8582 93.2646 0.0000 0.0000 0.0000
# 4 0.0000 0.0000 0.0000 16.6034 0.0000 0.0000
# 5 0.0000 0.0000 0.0000 0.0000 29.6626 0.0000
# 6 0.0000 0.0000 0.0000 0.0000 0.0000 30.5163
#
#
#
# Elastic Compliance Matrix: (Units=1/GPa)
#
#
# Indices 1 2 3 4 5 6 
#
# 1 0.037048 -0.005228 0.001820 0.000000 0.000000 0.000000
# 2 -0.005228 0.015541 -0.011186 0.000000 0.000000 0.000000
# 3 0.001820 -0.011186 0.018881 0.000000 0.000000 0.000000
# 4 0.000000 0.000000 0.000000 0.060228 0.000000 0.000000
# 5 0.000000 0.000000 0.000000 0.000000 0.033713 0.000000
# 6 0.000000 0.000000 0.000000 0.000000 0.000000 0.032769
#
#
# Mechanical properties :
#
#
# Convention : Reuss Voigt Hill
#
# Bulk Modulus (GPa) = 23.65103 46.10101 34.87602
# Shear Modulus (GPa) = 20.70710 25.55367 23.13039
#
# Velocity S-wave (km/s) = 3.02368 3.35894 3.19571
# Velocity P-wave (km/s) = 4.75738 5.94962 5.38658
#
# Compressibility (1/GPa) = 0.04228147
#
# Stress axis : x y z
#
# Youngs Moduli (GPa) = 26.99216 64.34448 52.96316
#
# Poissons Ratio (x) = 0.33641 -0.09642
# Poissons Ratio (y) = 0.14112 0.59247
# Poissons Ratio (z) = -0.04914 0.71979
#
# Static dielectric constant tensor:
#      x y z
#    x 1.922100 0.000000 0.000000 
#    y 0.000000 1.897710 0.000000 
#    z 0.000000 0.000000 1.910610 
# 
# From -- ./inp_files/28600.got.cif
#   From: 2010.05.17/outbox.cif.g08.bks.cpg/sg43_15_cif.got.tgz:28600.got - 2010.06.03 19:21:55.
