data_PCOD9371714
_publ_section_title
;
Structure prediction by ZEFSAII (Michael W. Deem and Ramdas Pophale) SiO2 
 PCOD9371714
Probable space group: F D D 2
;
_chemical_formula_sum "Si O2"
_cell_formula_units_Z 80
_cell_length_a 20.374554
_cell_length_b 10.844875
_cell_length_c 16.202223
_cell_angle_alpha 90.000000
_cell_angle_beta 90.000000
_cell_angle_gamma 90.000000
_cell_volume 3580.034952
_symmetry_space_group_name_H-M "F D D 2"
_symmetry_group_IT_number 43
_symmetry_cell_setting 'orthorhombic'
loop_
_space_group_symop_operation_xyz
x,y,z
-x,-y,z
1/4-x,1/4+y,1/4+z
1/4+x,1/4-y,1/4+z
x,1/2+y,1/2+z
-x,1/2-y,1/2+z
1/4-x,3/4+y,3/4+z
1/4+x,3/4-y,3/4+z
1/2+x,y,1/2+z
1/2-x,-y,1/2+z
3/4-x,1/4+y,3/4+z
3/4+x,1/4-y,3/4+z
1/2+x,1/2+y,z
1/2-x,1/2-y,z
3/4-x,3/4+y,1/4+z
3/4+x,3/4-y,1/4+z
loop_
_atom_site_type_symbol
_atom_site_label
_atom_site_fract_x
_atom_site_fract_y
_atom_site_fract_z
Si Si1 0.023394 0.194818 0.544320
Si Si2 0.732172 0.524257 0.975912
Si Si3 0.086388 0.432596 0.770101
Si Si4 0.500000 0.000000 0.913417
Si Si5 0.399503 0.594917 0.968416
Si Si6 0.750000 0.250000 0.588533
O O1 0.985507 0.191639 0.629494
O O2 0.094329 0.125395 0.547890
O O3 0.990888 0.122022 0.468635
O O4 0.045065 0.335981 0.523995
O O5 0.780729 0.409492 0.991690
O O6 0.657109 0.495250 0.000879
O O7 0.760291 0.632999 0.031003
O O8 0.061064 0.506387 0.850671
O O9 0.106140 0.531407 0.699873
O O10 0.437979 0.529943 0.895772
#
# Coordination Sequence:
#
# PCOD9371714 Si02
#       6
#    16  16  16   8  16   8
#     4  10  25  40  71 105 139 186 244 301 362 432
#     4  12  24  47  74 107 148 198 240 309 375 439
#     4  10  22  44  76  96 139 193 248 281 359 453
#     4  12  19  44  69 100 136 182 242 292 351 436
#     4  10  26  47  69 106 144 197 246 298 379 441
#     4  12  29  44  73 114 154 182 252 328 361 432
#
# _framework density 22.346150999999999
#
# number of rings (size 3 to 8) (size 9 to 14) (size 15 to 20)
#    1.200    0.000    2.000    3.000    2.800    6.400 
#    0.000    0.000    0.000    0.000    0.000    0.000 
#    0.000    0.000    0.000    0.000    0.000    0.000 
#
# Total GULP energy -111465.876682 kJ/mol
# GULP energy per Si atom -5573.293834 kJ/mol
# Density = 2.229529 g / cm^3
# Si number density = 22.346151 Si / 1000 Ang^3
#
#
#
# Elastic Constant Matrix: (Units=GPa)
#
#
# Indices 1 2 3 4 5 6 
#
# 1 60.4068 40.8032 45.9867 0.0000 0.0000 0.0000
# 2 40.8032 98.9562 58.7920 0.0000 0.0000 0.0000
# 3 45.9867 58.7920 117.3514 0.0000 0.0000 0.0000
# 4 0.0000 0.0000 0.0000 7.0809 0.0000 0.0000
# 5 0.0000 0.0000 0.0000 0.0000 35.0309 0.0000
# 6 0.0000 0.0000 0.0000 0.0000 0.0000 20.6097
#
#
#
# Elastic Compliance Matrix: (Units=1/GPa)
#
#
# Indices 1 2 3 4 5 6 
#
# 1 0.026423 -0.006754 -0.006971 0.000000 0.000000 0.000000
# 2 -0.006754 0.016114 -0.005427 0.000000 0.000000 0.000000
# 3 -0.006971 -0.005427 0.013972 0.000000 0.000000 0.000000
# 4 0.000000 0.000000 0.000000 0.141225 0.000000 0.000000
# 5 0.000000 0.000000 0.000000 0.000000 0.028546 0.000000
# 6 0.000000 0.000000 0.000000 0.000000 0.000000 0.048521
#
#
# Mechanical properties :
#
#
# Convention : Reuss Voigt Hill
#
# Bulk Modulus (GPa) = 54.92409 63.09757 59.01083
# Shear Modulus (GPa) = 15.66548 21.28647 18.47597
#
# Velocity S-wave (km/s) = 2.65058 3.08974 2.87855
# Velocity P-wave (km/s) = 5.83092 6.40518 6.12478
#
# Compressibility (1/GPa) = 0.01820695
#
# Stress axis : x y z
#
# Youngs Moduli (GPa) = 37.84543 62.05675 71.57265
#
# Poissons Ratio (x) = 0.41911 0.49893
# Poissons Ratio (y) = 0.25559 0.38839
# Poissons Ratio (z) = 0.26382 0.33675
#
# Static dielectric constant tensor:
#      x y z
#    x 1.872130 0.000000 0.000000 
#    y 0.000000 1.868040 0.000000 
#    z 0.000000 0.000000 1.823550 
# 
# From -- ./inp_files/11194.got.cif
#   From: 2010.05.17/outbox.cif.g08.bks.cpg/sg43_6_cif.got.tgz:11194.got - 2010.06.03 19:21:55.
