data_PCOD9371968
_publ_section_title
;
Structure prediction by ZEFSAII (Michael W. Deem and Ramdas Pophale) SiO2 
 PCOD9371968
Probable space group: F D D 2
;
_chemical_formula_sum "Si O2"
_cell_formula_units_Z 80
_cell_length_a 10.231911
_cell_length_b 9.878608
_cell_length_c 28.696527
_cell_angle_alpha 90.000000
_cell_angle_beta 90.000000
_cell_angle_gamma 90.000000
_cell_volume 2900.559946
_symmetry_space_group_name_H-M "F D D 2"
_symmetry_group_IT_number 43
_symmetry_cell_setting 'orthorhombic'
loop_
_space_group_symop_operation_xyz
x,y,z
-x,-y,z
1/4-x,1/4+y,1/4+z
1/4+x,1/4-y,1/4+z
x,1/2+y,1/2+z
-x,1/2-y,1/2+z
1/4-x,3/4+y,3/4+z
1/4+x,3/4-y,3/4+z
1/2+x,y,1/2+z
1/2-x,-y,1/2+z
3/4-x,1/4+y,3/4+z
3/4+x,1/4-y,3/4+z
1/2+x,1/2+y,z
1/2-x,1/2-y,z
3/4-x,3/4+y,1/4+z
3/4+x,3/4-y,1/4+z
loop_
_atom_site_type_symbol
_atom_site_label
_atom_site_fract_x
_atom_site_fract_y
_atom_site_fract_z
Si Si1 0.000000 0.000000 0.044780
Si Si2 0.597789 0.786278 0.953824
Si Si3 0.587217 0.127031 0.722680
Si Si4 0.304513 0.556840 0.869172
Si Si5 0.750000 0.250000 0.277540
Si Si6 0.434445 0.267977 0.855900
O O1 0.029371 0.867429 0.076997
O O2 0.127052 0.991330 0.010500
O O3 0.750000 0.750000 0.958951
O O4 0.483394 0.673510 0.958585
O O5 0.577593 0.829910 0.900116
O O6 0.558789 0.888312 0.993844
O O7 0.521631 0.171941 0.673554
O O8 0.500000 0.000000 0.738566
O O9 0.344632 0.402393 0.863763
O O10 0.426601 0.658209 0.857632
O O11 0.629523 0.294076 0.310249
#
# Coordination Sequence:
#
# PCOD9371968 Si02
#       6
#     8  16  16  16   8  16
#     4  12  24  44  78 108 146 202 254 316 386 452
#     4  11  26  48  71 109 154 201 250 323 383 452
#     4  11  25  46  71 108 149 196 254 315 380 457
#     4  10  23  46  74 101 151 198 251 310 387 459
#     4  12  26  42  78 110 148 202 260 308 394 464
#     4  10  23  47  70 108 148 199 252 314 380 465
#
# _framework density 27.580881999999999
#
# number of rings (size 3 to 8) (size 9 to 14) (size 15 to 20)
#    0.000    1.200    2.000    3.600    8.400    1.600 
#    0.000    0.000    0.000    0.000    0.000    0.000 
#    0.000    0.000    0.000    0.000    0.000    0.000 
#
# Total GULP energy -111826.219265 kJ/mol
# GULP energy per Si atom -5591.310963 kJ/mol
# Density = 2.751811 g / cm^3
# Si number density = 27.580882 Si / 1000 Ang^3
#
#
#
# Elastic Constant Matrix: (Units=GPa)
#
#
# Indices 1 2 3 4 5 6 
#
# 1 91.7453 2.2731 15.2845 0.0000 0.0000 0.0000
# 2 2.2731 62.5638 49.5860 0.0000 0.0000 0.0000
# 3 15.2845 49.5860 196.2201 0.0000 0.0000 0.0000
# 4 0.0000 0.0000 0.0000 82.2301 0.0000 0.0000
# 5 0.0000 0.0000 0.0000 0.0000 49.6805 0.0000
# 6 0.0000 0.0000 0.0000 0.0000 0.0000 42.5707
#
#
#
# Elastic Compliance Matrix: (Units=1/GPa)
#
#
# Indices 1 2 3 4 5 6 
#
# 1 0.011049 0.000351 -0.000949 0.000000 0.000000 0.000000
# 2 0.000351 0.019998 -0.005081 0.000000 0.000000 0.000000
# 3 -0.000949 -0.005081 0.006454 0.000000 0.000000 0.000000
# 4 0.000000 0.000000 0.000000 0.012161 0.000000 0.000000
# 5 0.000000 0.000000 0.000000 0.000000 0.020129 0.000000
# 6 0.000000 0.000000 0.000000 0.000000 0.000000 0.023490
#
#
# Mechanical properties :
#
#
# Convention : Reuss Voigt Hill
#
# Bulk Modulus (GPa) = 38.25154 53.86849 46.06001
# Shear Modulus (GPa) = 44.10953 53.78863 48.94908
#
# Velocity S-wave (km/s) = 4.00344 4.42091 4.21734
# Velocity P-wave (km/s) = 5.93877 6.75521 6.36010
#
# Compressibility (1/GPa) = 0.02614274
#
# Stress axis : x y z
#
# Youngs Moduli (GPa) = 90.50429 50.00522 154.93657
#
# Poissons Ratio (x) = -0.01755 0.14709
# Poissons Ratio (y) = -0.03177 0.78722
# Poissons Ratio (z) = 0.08592 0.25407
#
# Static dielectric constant tensor:
#      x y z
#    x 2.246760 0.000000 0.000000 
#    y 0.000000 2.128080 0.000000 
#    z 0.000000 0.000000 2.294760 
# 
# From -- ./inp_files/28427.got.cif
#   From: 2010.05.17/outbox.cif.g08.bks.cpg/sg43_15_cif.got.tgz:28427.got - 2010.06.03 19:21:55.
