data_PCOD9371012
_publ_section_title
;
Structure prediction by ZEFSAII (Michael W. Deem and Ramdas Pophale) SiO2 
 PCOD9371012
Probable space group: F D D 2
;
_chemical_formula_sum "Si O2"
_cell_formula_units_Z 88
_cell_length_a 15.182428
_cell_length_b 10.622268
_cell_length_c 25.876582
_cell_angle_alpha 90.000000
_cell_angle_beta 90.000000
_cell_angle_gamma 90.000000
_cell_volume 4173.163451
_symmetry_space_group_name_H-M "F D D 2"
_symmetry_group_IT_number 43
_symmetry_cell_setting 'orthorhombic'
loop_
_space_group_symop_operation_xyz
x,y,z
-x,-y,z
1/4-x,1/4+y,1/4+z
1/4+x,1/4-y,1/4+z
x,1/2+y,1/2+z
-x,1/2-y,1/2+z
1/4-x,3/4+y,3/4+z
1/4+x,3/4-y,3/4+z
1/2+x,y,1/2+z
1/2-x,-y,1/2+z
3/4-x,1/4+y,3/4+z
3/4+x,1/4-y,3/4+z
1/2+x,1/2+y,z
1/2-x,1/2-y,z
3/4-x,3/4+y,1/4+z
3/4+x,3/4-y,1/4+z
loop_
_atom_site_type_symbol
_atom_site_label
_atom_site_fract_x
_atom_site_fract_y
_atom_site_fract_z
Si Si1 0.780602 0.554979 0.702870
Si Si2 0.590394 0.620073 0.563534
Si Si3 0.347453 0.284237 0.203657
Si Si4 0.000000 0.000000 0.363015
Si Si5 0.898019 0.666804 0.094686
Si Si6 0.907890 0.048154 0.741390
O O1 0.813187 0.631497 0.753275
O O2 0.844833 0.433801 0.699737
O O3 0.779231 0.638404 0.651812
O O4 0.679846 0.506317 0.713003
O O5 0.670621 0.708615 0.576893
O O6 0.503942 0.675342 0.591808
O O7 0.615007 0.481397 0.583897
O O8 0.250000 0.250000 0.223233
O O9 0.362246 0.221087 0.147893
O O10 0.409814 0.200161 0.239752
O O11 0.853976 0.744997 0.048704
O O12 0.000000 0.000000 0.718406
#
# Coordination Sequence:
#
# PCOD9371012 Si02
#       6
#    16  16  16   8  16  16
#     4  10  23  43  61  96 136 171 225 287 332 422
#     4  10  23  41  64  93 129 178 228 271 343 421
#     4  10  21  36  60  92 127 163 218 272 330 396
#     4  12  24  44  70  90 140 184 222 282 360 392
#     4  10  21  40  63  91 125 166 224 275 324 411
#     4  10  21  36  65  93 125 169 218 271 339 399
#
# _framework density 21.087119999999999
#
# number of rings (size 3 to 8) (size 9 to 14) (size 15 to 20)
#    0.000    1.818    0.000    4.909    5.091    2.909 
#    3.273    1.818    0.000    0.000    0.000    0.000 
#    0.000    0.000    0.000    0.000    0.000    0.000 
#
# Total GULP energy -122841.914010 kJ/mol
# GULP energy per Si atom -5583.723364 kJ/mol
# Density = 2.103912 g / cm^3
# Si number density = 21.087120 Si / 1000 Ang^3
#
#
#
# Elastic Constant Matrix: (Units=GPa)
#
#
# Indices 1 2 3 4 5 6 
#
# 1 92.5077 48.6472 26.4392 0.0000 0.0000 0.0000
# 2 48.6472 108.3268 16.8372 0.0000 0.0000 0.0000
# 3 26.4392 16.8372 59.0920 0.0000 0.0000 0.0000
# 4 0.0000 0.0000 0.0000 25.3298 0.0000 0.0000
# 5 0.0000 0.0000 0.0000 0.0000 23.4897 0.0000
# 6 0.0000 0.0000 0.0000 0.0000 0.0000 22.3394
#
#
#
# Elastic Compliance Matrix: (Units=1/GPa)
#
#
# Indices 1 2 3 4 5 6 
#
# 1 0.015540 -0.006171 -0.005195 0.000000 0.000000 0.000000
# 2 -0.006171 0.012110 -0.000689 0.000000 0.000000 0.000000
# 3 -0.005195 -0.000689 0.019443 0.000000 0.000000 0.000000
# 4 0.000000 0.000000 0.000000 0.039479 0.000000 0.000000
# 5 0.000000 0.000000 0.000000 0.000000 0.042572 0.000000
# 6 0.000000 0.000000 0.000000 0.000000 0.000000 0.044764
#
#
# Mechanical properties :
#
#
# Convention : Reuss Voigt Hill
#
# Bulk Modulus (GPa) = 43.51068 49.30819 46.40943
# Shear Modulus (GPa) = 24.30972 25.43197 24.87084
#
# Velocity S-wave (km/s) = 3.39901 3.47658 3.43801
# Velocity P-wave (km/s) = 6.00691 6.28883 6.14948
#
# Compressibility (1/GPa) = 0.02298286
#
# Stress axis : x y z
#
# Youngs Moduli (GPa) = 64.35097 82.57769 51.43152
#
# Poissons Ratio (x) = 0.50960 0.26716
# Poissons Ratio (y) = 0.39712 0.03545
# Poissons Ratio (z) = 0.33427 0.05692
#
# Static dielectric constant tensor:
#      x y z
#    x 1.774520 0.000000 0.000000 
#    y 0.000000 1.812140 0.000000 
#    z 0.000000 0.000000 1.754710 
# 
# From -- ./inp_files/21656.got.cif
#   From: 2010.05.17/outbox.cif.g08.bks.cpg/sg43_11_cif.got.tgz:21656.got - 2010.06.03 19:21:55.
