data_PCOD9371681
_publ_section_title
;
Structure prediction by ZEFSAII (Michael W. Deem and Ramdas Pophale) SiO2 
 PCOD9371681
Probable space group: F D D 2
;
_chemical_formula_sum "Si O2"
_cell_formula_units_Z 96
_cell_length_a 19.758003
_cell_length_b 18.610078
_cell_length_c 12.012440
_cell_angle_alpha 90.000000
_cell_angle_beta 90.000000
_cell_angle_gamma 90.000000
_cell_volume 4416.949886
_symmetry_space_group_name_H-M "F D D 2"
_symmetry_group_IT_number 43
_symmetry_cell_setting 'orthorhombic'
loop_
_space_group_symop_operation_xyz
x,y,z
-x,-y,z
1/4-x,1/4+y,1/4+z
1/4+x,1/4-y,1/4+z
x,1/2+y,1/2+z
-x,1/2-y,1/2+z
1/4-x,3/4+y,3/4+z
1/4+x,3/4-y,3/4+z
1/2+x,y,1/2+z
1/2-x,-y,1/2+z
3/4-x,1/4+y,3/4+z
3/4+x,1/4-y,3/4+z
1/2+x,1/2+y,z
1/2-x,1/2-y,z
3/4-x,3/4+y,1/4+z
3/4+x,3/4-y,1/4+z
loop_
_atom_site_type_symbol
_atom_site_label
_atom_site_fract_x
_atom_site_fract_y
_atom_site_fract_z
Si Si1 0.633915 0.857357 0.848320
Si Si2 0.500000 0.000000 0.074367
Si Si3 0.000000 0.500000 0.641482
Si Si4 0.392530 0.739891 0.789701
Si Si5 0.045600 0.747186 0.024606
Si Si6 0.996540 0.654030 0.717898
Si Si7 0.331161 0.894067 0.336351
O O1 0.688480 0.804755 0.789426
O O2 0.647077 0.938895 0.808657
O O3 0.559451 0.833682 0.811900
O O4 0.634239 0.857818 0.983374
O O5 0.450899 0.065994 0.113646
O O6 0.933080 0.510669 0.569822
O O7 0.011098 0.570458 0.713215
O O8 0.434105 0.804959 0.736658
O O9 0.391021 0.676099 0.700717
O O10 0.435118 0.725446 0.902409
O O11 0.037238 0.813942 0.106874
O O12 0.978171 0.698800 0.045207
#
# Coordination Sequence:
#
# PCOD9371681 Si02
#       7
#    16   8   8  16  16  16  16
#     4  11  21  43  72 104 137 180 241 296 358 430
#     4  10  24  42  68 110 130 190 240 284 366 426
#     4  12  28  44  72 106 136 194 232 300 360 434
#     4  11  25  47  68 106 144 184 239 299 369 427
#     4  10  22  44  69  97 139 180 234 291 352 430
#     4  11  25  45  70  99 141 185 233 293 357 427
#     4  10  23  43  69 101 142 189 229 303 355 433
#
# _framework density 21.734455000000001
#
# number of rings (size 3 to 8) (size 9 to 14) (size 15 to 20)
#    0.000    1.333    3.333    1.000    2.333    4.000 
#    9.000    0.000    0.000    0.000    0.000    0.000 
#    0.000    0.000    0.000    0.000    0.000    0.000 
#
# Total GULP energy -133726.629051 kJ/mol
# GULP energy per Si atom -5571.942877 kJ/mol
# Density = 2.168499 g / cm^3
# Si number density = 21.734455 Si / 1000 Ang^3
#
#
#
# Elastic Constant Matrix: (Units=GPa)
#
#
# Indices 1 2 3 4 5 6 
#
# 1 77.7774 1.7960 -6.8085 0.0000 0.0000 0.0000
# 2 1.7960 102.9898 15.8771 0.0000 0.0000 0.0000
# 3 -6.8085 15.8771 103.0896 0.0000 0.0000 0.0000
# 4 0.0000 0.0000 0.0000 -5.2668 0.0000 0.0000
# 5 0.0000 0.0000 0.0000 0.0000 -19.0842 0.0000
# 6 0.0000 0.0000 0.0000 0.0000 0.0000 3.1207
#
#
#
# Elastic Compliance Matrix: (Units=1/GPa)
#
#
# Indices 1 2 3 4 5 6 
#
# 1 0.012945 -0.000366 0.000911 0.000000 0.000000 0.000000
# 2 -0.000366 0.009956 -0.001558 0.000000 0.000000 0.000000
# 3 0.000911 -0.001558 0.010000 0.000000 0.000000 0.000000
# 4 0.000000 0.000000 0.000000 -0.189869 0.000000 0.000000
# 5 0.000000 0.000000 0.000000 0.000000 -0.052399 0.000000
# 6 0.000000 0.000000 0.000000 0.000000 0.000000 0.320441
#
#
# Mechanical properties :
#
#
# Convention : Reuss Voigt Hill
#
# Bulk Modulus (GPa) = 32.38643 33.95401 33.17022
# Shear Modulus (GPa) = 40.52111 13.95342 27.23726
#
# Velocity S-wave (km/s) = 4.32252 2.53651 3.54387
# Velocity P-wave (km/s) = 6.31233 4.92287 5.66040
#
# Compressibility (1/GPa) = 0.03087713
#
# Stress axis : x y z
#
# Youngs Moduli (GPa) = 77.24727 100.43988 99.99625
#
# Poissons Ratio (x) = 0.03679 -0.09113
# Poissons Ratio (y) = 0.02829 0.15575
# Poissons Ratio (z) = -0.07040 0.15644
#
# Static dielectric constant tensor:
#      x y z
#    x 1.807080 0.000000 0.000000 
#    y 0.000000 1.771050 0.000000 
#    z 0.000000 0.000000 1.826920 
# 
# From -- ./inp_files/6712.got.cif
#   From: 2010.05.17/outbox.cif.g08.bks.cpg/sg43_4_cif.got.tgz:6712.got - 2010.06.03 19:21:55.
