data_PCOD9371409
_publ_section_title
;
Structure prediction by ZEFSAII (Michael W. Deem and Ramdas Pophale) SiO2 
 PCOD9371409
Probable space group: F D D 2
;
_chemical_formula_sum "Si O2"
_cell_formula_units_Z 80
_cell_length_a 28.369424
_cell_length_b 19.437346
_cell_length_c 5.539492
_cell_angle_alpha 90.000000
_cell_angle_beta 90.000000
_cell_angle_gamma 90.000000
_cell_volume 3054.621633
_symmetry_space_group_name_H-M "F D D 2"
_symmetry_group_IT_number 43
_symmetry_cell_setting 'orthorhombic'
loop_
_space_group_symop_operation_xyz
x,y,z
-x,-y,z
1/4-x,1/4+y,1/4+z
1/4+x,1/4-y,1/4+z
x,1/2+y,1/2+z
-x,1/2-y,1/2+z
1/4-x,3/4+y,3/4+z
1/4+x,3/4-y,3/4+z
1/2+x,y,1/2+z
1/2-x,-y,1/2+z
3/4-x,1/4+y,3/4+z
3/4+x,1/4-y,3/4+z
1/2+x,1/2+y,z
1/2-x,1/2-y,z
3/4-x,3/4+y,1/4+z
3/4+x,3/4-y,1/4+z
loop_
_atom_site_type_symbol
_atom_site_label
_atom_site_fract_x
_atom_site_fract_y
_atom_site_fract_z
Si Si1 0.639963 0.595232 0.574860
Si Si2 0.772978 0.486441 0.482480
Si Si3 0.812261 0.626828 0.481527
Si Si4 0.465921 0.106244 0.466290
Si Si5 0.136043 0.202775 0.953199
O O1 0.589026 0.584745 0.445057
O O2 0.682527 0.596114 0.383920
O O3 0.641076 0.524594 0.724123
O O4 0.644979 0.671520 0.688415
O O5 0.762831 0.511786 0.211798
O O6 0.804518 0.549308 0.580618
O O7 0.779552 0.404343 0.477854
O O8 0.764538 0.655746 0.360444
O O9 0.853022 0.610817 0.289543
O O10 0.432806 0.045235 0.369300
#
# Coordination Sequence:
#
# PCOD9371409 Si02
#       5
#    16  16  16  16  16
#     4  11  25  45  71 103 147 187 242 312 374 445
#     4  10  22  38  74 106 137 182 253 302 350 438
#     4  10  24  41  69 105 141 190 244 300 370 444
#     4  10  24  41  69 105 141 190 244 300 370 444
#     4  11  25  45  71 103 147 187 242 312 374 445
#
# _framework density 26.189824000000002
#
# number of rings (size 3 to 8) (size 9 to 14) (size 15 to 20)
#    0.000    1.600    0.000    2.400   22.400    4.800 
#    0.000    6.000    0.000    0.000    0.000    0.000 
#    0.000    0.000    0.000    0.000    0.000    0.000 
#
# Total GULP energy -111395.715676 kJ/mol
# GULP energy per Si atom -5569.785784 kJ/mol
# Density = 2.613021 g / cm^3
# Si number density = 26.189824 Si / 1000 Ang^3
#
#
#
# Elastic Constant Matrix: (Units=GPa)
#
#
# Indices 1 2 3 4 5 6 
#
# 1 141.2268 5.6286 12.6180 0.0003 0.0002 0.0001
# 2 5.6286 72.6996 6.4907 0.0014 0.0003 0.0002
# 3 12.6180 6.4907 29.7798 0.0046 0.0011 0.0007
# 4 0.0003 0.0014 0.0046 32.7200 0.0005 0.0003
# 5 0.0002 0.0003 0.0011 0.0005 40.7217 -0.0001
# 6 0.0001 0.0002 0.0007 0.0003 -0.0001 36.2135
#
#
#
# Elastic Compliance Matrix: (Units=1/GPa)
#
#
# Indices 1 2 3 4 5 6 
#
# 1 0.007366 -0.000297 -0.003056 0.000000 0.000000 0.000000
# 2 -0.000297 0.014040 -0.002934 0.000000 0.000000 0.000000
# 3 -0.003056 -0.002934 0.035514 -0.000005 -0.000001 -0.000001
# 4 0.000000 0.000000 -0.000005 0.030562 0.000000 0.000000
# 5 0.000000 0.000000 -0.000001 0.000000 0.024557 0.000000
# 6 0.000000 0.000000 -0.000001 0.000000 0.000000 0.027614
#
#
# Mechanical properties :
#
#
# Convention : Reuss Voigt Hill
#
# Bulk Modulus (GPa) = 22.55051 32.57563 27.56307
# Shear Modulus (GPa) = 29.93825 36.52896 33.23361
#
# Velocity S-wave (km/s) = 3.38468 3.73872 3.56610
# Velocity P-wave (km/s) = 4.88916 5.57698 5.24436
#
# Compressibility (1/GPa) = 0.04434489
#
# Stress axis : x y z
#
# Youngs Moduli (GPa) = 135.76417 71.22396 28.15771
#
# Poissons Ratio (x) = 0.02118 0.08605
# Poissons Ratio (y) = 0.04038 0.08262
# Poissons Ratio (z) = 0.41491 0.20898
#
# Static dielectric constant tensor:
#      x y z
#    x 2.162600 0.000000 0.000000 
#    y 0.000000 2.215010 0.000000 
#    z 0.000000 0.000000 2.300920 
# 
# From -- ./inp_files/1369.got.cif
#   From: 2010.05.17/outbox.cif.g08.bks.cpg/sg43_1_cif.got.tgz:1369.got - 2010.06.03 19:21:55.
