data_PCOD9371118
_publ_section_title
;
Structure prediction by ZEFSAII (Michael W. Deem and Ramdas Pophale) SiO2 
 PCOD9371118
Probable space group: F D D 2
;
_chemical_formula_sum "Si O2"
_cell_formula_units_Z 128
_cell_length_a 12.012726
_cell_length_b 24.245034
_cell_length_c 16.684980
_cell_angle_alpha 90.000000
_cell_angle_beta 90.000000
_cell_angle_gamma 90.000000
_cell_volume 4859.482911
_symmetry_space_group_name_H-M "F D D 2"
_symmetry_group_IT_number 43
_symmetry_cell_setting 'orthorhombic'
loop_
_space_group_symop_operation_xyz
x,y,z
-x,-y,z
1/4-x,1/4+y,1/4+z
1/4+x,1/4-y,1/4+z
x,1/2+y,1/2+z
-x,1/2-y,1/2+z
1/4-x,3/4+y,3/4+z
1/4+x,3/4-y,3/4+z
1/2+x,y,1/2+z
1/2-x,-y,1/2+z
3/4-x,1/4+y,3/4+z
3/4+x,1/4-y,3/4+z
1/2+x,1/2+y,z
1/2-x,1/2-y,z
3/4-x,3/4+y,1/4+z
3/4+x,3/4-y,1/4+z
loop_
_atom_site_type_symbol
_atom_site_label
_atom_site_fract_x
_atom_site_fract_y
_atom_site_fract_z
Si Si1 0.196422 0.050985 0.417040
Si Si2 0.290374 0.305917 0.180498
Si Si3 0.891716 0.653135 0.061272
Si Si4 0.521085 0.326253 0.384750
Si Si5 0.548680 0.424409 0.196608
Si Si6 0.374352 0.307244 0.614415
Si Si7 0.369701 0.776712 0.360967
Si Si8 0.799765 0.425880 0.729988
O O1 0.329490 0.045297 0.420056
O O2 0.175419 0.109152 0.460699
O O3 0.181151 0.060798 0.321571
O O4 0.125683 0.994529 0.423619
O O5 0.250000 0.250000 0.219349
O O6 0.218502 0.318935 0.099077
O O7 0.269307 0.361448 0.228305
O O8 0.885290 0.585728 0.064369
O O9 0.999770 0.669043 0.114377
O O10 0.922121 0.676748 0.973729
O O11 0.390619 0.312772 0.380993
O O12 0.542742 0.391125 0.374253
O O13 0.571724 0.279069 0.328051
O O14 0.591997 0.457877 0.273392
O O15 0.418209 0.431059 0.183579
O O16 0.250000 0.750000 0.380653
O O17 0.450120 0.792713 0.435732
#
# Coordination Sequence:
#
# PCOD9371118 Si02
#       8
#    16  16  16  16  16  16  16  16
#     4  11  23  41  69  94 129 179 217 273 329 395
#     4  10  21  39  67  97 130 166 214 269 331 397
#     4  10  22  40  62 100 134 165 218 269 332 406
#     4  11  24  39  66  94 131 179 216 273 330 389
#     4  10  24  43  62  95 129 170 233 266 320 399
#     4  11  22  41  66  96 129 174 224 273 330 390
#     4  11  23  40  65  98 133 167 211 278 333 387
#     4  10  23  41  67  92 132 172 215 272 326 396
#
# _framework density 26.340252
#
# number of rings (size 3 to 8) (size 9 to 14) (size 15 to 20)
#    0.000    1.500    2.500    2.250    1.750    4.500 
#    0.000    0.000   19.250    0.000    0.000    0.000 
#    0.000    0.000    0.000    0.000    0.000    0.000 
#
# Total GULP energy -178785.434293 kJ/mol
# GULP energy per Si atom -5587.044822 kJ/mol
# Density = 2.628030 g / cm^3
# Si number density = 26.340252 Si / 1000 Ang^3
#
#
#
# Elastic Constant Matrix: (Units=GPa)
#
#
# Indices 1 2 3 4 5 6 
#
# 1 132.0060 45.0883 -1.6445 0.0000 0.0000 0.0000
# 2 45.0883 213.5153 26.4758 0.0000 0.0000 0.0000
# 3 -1.6445 26.4758 36.9341 0.0000 0.0000 0.0000
# 4 0.0000 0.0000 0.0000 46.4069 0.0000 0.0000
# 5 0.0000 0.0000 0.0000 0.0000 18.6951 0.0000
# 6 0.0000 0.0000 0.0000 0.0000 0.0000 49.7896
#
#
#
# Elastic Compliance Matrix: (Units=1/GPa)
#
#
# Indices 1 2 3 4 5 6 
#
# 1 0.008269 -0.001967 0.001778 0.000000 0.000000 0.000000
# 2 -0.001967 0.005608 -0.004108 0.000000 0.000000 0.000000
# 3 0.001778 -0.004108 0.030099 0.000000 0.000000 0.000000
# 4 0.000000 0.000000 0.000000 0.021549 0.000000 0.000000
# 5 0.000000 0.000000 0.000000 0.000000 0.053490 0.000000
# 6 0.000000 0.000000 0.000000 0.000000 0.000000 0.020085
#
#
# Mechanical properties :
#
#
# Convention : Reuss Voigt Hill
#
# Bulk Modulus (GPa) = 28.26162 58.03273 43.14718
# Shear Modulus (GPa) = 31.35054 43.81403 37.58229
#
# Velocity S-wave (km/s) = 3.45369 4.08289 3.78140
# Velocity P-wave (km/s) = 5.16301 6.65631 5.95664
#
# Compressibility (1/GPa) = 0.03538367
#
# Stress axis : x y z
#
# Youngs Moduli (GPa) = 120.92890 178.31098 33.22366
#
# Poissons Ratio (x) = 0.35069 -0.05907
# Poissons Ratio (y) = 0.23783 0.13647
# Poissons Ratio (z) = -0.21501 0.73245
#
# Static dielectric constant tensor:
#      x y z
#    x 2.058330 0.000000 0.000000 
#    y 0.000000 2.175250 0.000000 
#    z 0.000000 0.000000 2.163570 
# 
# From -- ./inp_files/21328.got.cif
#   From: 2010.05.17/outbox.cif.g08.bks.cpg/sg43_11_cif.got.tgz:21328.got - 2010.06.03 19:21:55.
