data_PCOD9371573
_publ_section_title
;
Structure prediction by ZEFSAII (Michael W. Deem and Ramdas Pophale) SiO2 
 PCOD9371573
Probable space group: F D D 2
;
_chemical_formula_sum "Si O2"
_cell_formula_units_Z 88
_cell_length_a 12.354357
_cell_length_b 12.385378
_cell_length_c 23.421215
_cell_angle_alpha 90.000000
_cell_angle_beta 90.000000
_cell_angle_gamma 90.000000
_cell_volume 3583.759303
_symmetry_space_group_name_H-M "F D D 2"
_symmetry_group_IT_number 43
_symmetry_cell_setting 'orthorhombic'
loop_
_space_group_symop_operation_xyz
x,y,z
-x,-y,z
1/4-x,1/4+y,1/4+z
1/4+x,1/4-y,1/4+z
x,1/2+y,1/2+z
-x,1/2-y,1/2+z
1/4-x,3/4+y,3/4+z
1/4+x,3/4-y,3/4+z
1/2+x,y,1/2+z
1/2-x,-y,1/2+z
3/4-x,1/4+y,3/4+z
3/4+x,1/4-y,3/4+z
1/2+x,1/2+y,z
1/2-x,1/2-y,z
3/4-x,3/4+y,1/4+z
3/4+x,3/4-y,1/4+z
loop_
_atom_site_type_symbol
_atom_site_label
_atom_site_fract_x
_atom_site_fract_y
_atom_site_fract_z
Si Si1 0.250898 0.460964 0.442090
Si Si2 0.486568 0.739387 0.818661
Si Si3 0.766225 0.398572 0.680788
Si Si4 0.750000 0.250000 0.783626
Si Si5 0.468583 0.379097 0.469126
Si Si6 0.944694 0.389488 0.099510
O O1 0.256905 0.528596 0.501524
O O2 0.137884 0.399506 0.434088
O O3 0.342635 0.372651 0.452787
O O4 0.278880 0.540668 0.390508
O O5 0.510813 0.642302 0.863119
O O6 0.513249 0.772698 0.941072
O O7 0.568651 0.836269 0.835141
O O8 0.719429 0.342769 0.737616
O O9 0.891547 0.520330 0.570247
O O10 0.500000 0.500000 0.450612
O O11 0.491935 0.371637 0.536182
O O12 0.000000 0.500000 0.121652
#
# Coordination Sequence:
#
# PCOD9371573 Si02
#       6
#    16  16  16   8  16  16
#     4  10  23  43  66 108 142 194 253 312 377 452
#     4  10  24  44  69 107 146 198 243 308 387 453
#     4  11  24  42  72 102 150 196 249 314 381 457
#     4  10  26  46  66 114 148 188 262 310 390 460
#     4  10  22  42  68 103 143 197 252 307 379 454
#     4  10  23  44  72 105 152 197 255 315 386 459
#
# _framework density 24.555219999999998
#
# number of rings (size 3 to 8) (size 9 to 14) (size 15 to 20)
#    0.000    1.818    0.000    1.636   10.182    1.455 
#    1.636    3.636    0.000    0.000    0.000    0.000 
#    0.000    0.000    0.000    0.000    0.000    0.000 
#
# Total GULP energy -122654.501892 kJ/mol
# GULP energy per Si atom -5575.204631 kJ/mol
# Density = 2.449933 g / cm^3
# Si number density = 24.555220 Si / 1000 Ang^3
#
#
#
# Elastic Constant Matrix: (Units=GPa)
#
#
# Indices 1 2 3 4 5 6 
#
# 1 79.8239 11.0851 31.0339 0.0000 0.0000 0.0000
# 2 11.0851 93.6723 54.2478 0.0000 0.0000 0.0000
# 3 31.0339 54.2478 115.9016 0.0000 0.0000 0.0000
# 4 0.0000 0.0000 0.0000 42.4679 0.0000 0.0000
# 5 0.0000 0.0000 0.0000 0.0000 15.6597 0.0000
# 6 0.0000 0.0000 0.0000 0.0000 0.0000 18.9417
#
#
#
# Elastic Compliance Matrix: (Units=1/GPa)
#
#
# Indices 1 2 3 4 5 6 
#
# 1 0.014017 0.000706 -0.004084 0.000000 0.000000 0.000000
# 2 0.000706 0.014681 -0.007060 0.000000 0.000000 0.000000
# 3 -0.004084 -0.007060 0.013026 0.000000 0.000000 0.000000
# 4 0.000000 0.000000 0.000000 0.023547 0.000000 0.000000
# 5 0.000000 0.000000 0.000000 0.000000 0.063858 0.000000
# 6 0.000000 0.000000 0.000000 0.000000 0.000000 0.052794
#
#
# Mechanical properties :
#
#
# Convention : Reuss Voigt Hill
#
# Bulk Modulus (GPa) = 47.96598 53.57014 50.76806
# Shear Modulus (GPa) = 23.83807 28.28259 26.06033
#
# Velocity S-wave (km/s) = 3.11914 3.39749 3.26129
# Velocity P-wave (km/s) = 5.70512 6.10362 5.90773
#
# Compressibility (1/GPa) = 0.02084811
#
# Stress axis : x y z
#
# Youngs Moduli (GPa) = 71.34087 68.11609 76.76860
#
# Poissons Ratio (x) = -0.04811 0.31351
# Poissons Ratio (y) = -0.05039 0.54202
# Poissons Ratio (z) = 0.29134 0.48093
#
# Static dielectric constant tensor:
#      x y z
#    x 2.074270 0.000000 0.000000 
#    y 0.000000 1.964330 0.000000 
#    z 0.000000 0.000000 1.988320 
# 
# From -- ./inp_files/17532.got.cif
#   From: 2010.05.17/outbox.cif.g08.bks.cpg/sg43_9_cif.got.tgz:17532.got - 2010.06.03 19:21:55.
