data_PCOD9371717
_publ_section_title
;
Structure prediction by ZEFSAII (Michael W. Deem and Ramdas Pophale) SiO2 
 PCOD9371717
Probable space group: F D D 2
;
_chemical_formula_sum "Si O2"
_cell_formula_units_Z 88
_cell_length_a 25.405976
_cell_length_b 5.062227
_cell_length_c 28.524850
_cell_angle_alpha 90.000000
_cell_angle_beta 90.000000
_cell_angle_gamma 90.000000
_cell_volume 3668.604282
_symmetry_space_group_name_H-M "F D D 2"
_symmetry_group_IT_number 43
_symmetry_cell_setting 'orthorhombic'
loop_
_space_group_symop_operation_xyz
x,y,z
-x,-y,z
1/4-x,1/4+y,1/4+z
1/4+x,1/4-y,1/4+z
x,1/2+y,1/2+z
-x,1/2-y,1/2+z
1/4-x,3/4+y,3/4+z
1/4+x,3/4-y,3/4+z
1/2+x,y,1/2+z
1/2-x,-y,1/2+z
3/4-x,1/4+y,3/4+z
3/4+x,1/4-y,3/4+z
1/2+x,1/2+y,z
1/2-x,1/2-y,z
3/4-x,3/4+y,1/4+z
3/4+x,3/4-y,1/4+z
loop_
_atom_site_type_symbol
_atom_site_label
_atom_site_fract_x
_atom_site_fract_y
_atom_site_fract_z
Si Si1 0.218329 0.503704 0.297970
Si Si2 0.314655 0.989199 0.099945
Si Si3 0.750000 0.250000 0.020202
Si Si4 0.378269 0.985261 0.602082
Si Si5 0.099892 0.611022 0.705182
Si Si6 0.921723 0.128752 0.454310
O O1 0.250000 0.250000 0.311992
O O2 0.160310 0.433986 0.314732
O O3 0.213612 0.534977 0.242483
O O4 0.250000 0.750000 0.318033
O O5 0.274812 0.956807 0.057193
O O6 0.362295 0.779949 0.087737
O O7 0.303924 0.880345 0.152394
O O8 0.327826 0.295765 0.108071
O O9 0.701708 0.344417 0.987382
O O10 0.409705 0.975903 0.651087
O O11 0.145212 0.399051 0.719121
O O12 0.124927 0.902524 0.704256
#
# Coordination Sequence:
#
# PCOD9371717 Si02
#       6
#    16  16   8  16  16  16
#     4  12  24  37  66  93 122 163 222 261 296 382
#     4  10  23  40  67  88 133 163 211 259 331 375
#     4  12  24  40  68 110 120 170 220 288 292 392
#     4  10  22  45  60  91 128 178 198 260 331 389
#     4  10  23  40  67  88 133 163 211 259 331 375
#     4  10  22  45  60  91 128 178 198 260 331 389
#
# _framework density 23.987324000000001
#
# number of rings (size 3 to 8) (size 9 to 14) (size 15 to 20)
#    0.000    1.455    0.000    4.364    2.545    2.909 
#    0.000    0.000    0.000    0.000    0.000    0.000 
#    0.000    0.000    0.000    0.000    0.000    0.000 
#
# Total GULP energy -122928.645017 kJ/mol
# GULP energy per Si atom -5587.665683 kJ/mol
# Density = 2.393273 g / cm^3
# Si number density = 23.987324 Si / 1000 Ang^3
#
#
#
# Elastic Constant Matrix: (Units=GPa)
#
#
# Indices 1 2 3 4 5 6 
#
# 1 60.3292 25.6934 32.7535 -0.0062 -0.0054 0.0402
# 2 25.6934 128.4240 23.3139 0.0056 -0.0012 0.0695
# 3 32.7535 23.3139 105.7291 -0.0026 0.0084 0.0037
# 4 -0.0062 0.0056 -0.0026 29.9675 -0.0005 0.0116
# 5 -0.0054 -0.0012 0.0084 -0.0005 37.2425 0.0080
# 6 0.0402 0.0695 0.0037 0.0116 0.0080 23.7704
#
#
#
# Elastic Compliance Matrix: (Units=1/GPa)
#
#
# Indices 1 2 3 4 5 6 
#
# 1 0.021090 -0.003160 -0.005837 0.000004 0.000004 -0.000026
# 2 -0.003160 0.008585 -0.000914 -0.000002 0.000000 -0.000020
# 3 -0.005837 -0.000914 0.011468 0.000000 -0.000003 0.000011
# 4 0.000004 -0.000002 0.000000 0.033370 0.000000 -0.000016
# 5 0.000004 0.000000 -0.000003 0.000000 0.026851 -0.000009
# 6 -0.000026 -0.000020 0.000011 -0.000016 -0.000009 0.042069
#
#
# Mechanical properties :
#
#
# Convention : Reuss Voigt Hill
#
# Bulk Modulus (GPa) = 46.90087 50.88930 48.89509
# Shear Modulus (GPa) = 29.34937 32.37752 30.86344
#
# Velocity S-wave (km/s) = 3.50170 3.67792 3.59089
# Velocity P-wave (km/s) = 5.99533 6.26875 6.13357
#
# Compressibility (1/GPa) = 0.02132157
#
# Stress axis : x y z
#
# Youngs Moduli (GPa) = 47.41515 116.48429 87.20032
#
# Poissons Ratio (x) = 0.36807 0.50896
# Poissons Ratio (y) = 0.14983 0.07971
# Poissons Ratio (z) = 0.27675 0.10648
#
# Static dielectric constant tensor:
#      x y z
#    x 1.878220 0.000020 0.000000 
#    y 0.000020 1.905770 -0.000020 
#    z 0.000000 -0.000020 1.930970 
# 
# From -- ./inp_files/1009.got.cif
#   From: 2010.05.17/outbox.cif.g08.bks.cpg/sg43_1_cif.got.tgz:1009.got - 2010.06.03 19:21:55.
