data_PCOD9371776
_publ_section_title
;
Structure prediction by ZEFSAII (Michael W. Deem and Ramdas Pophale) SiO2 
 PCOD9371776
Probable space group: F D D 2
;
_chemical_formula_sum "Si O2"
_cell_formula_units_Z 72
_cell_length_a 7.984515
_cell_length_b 19.306099
_cell_length_c 18.727488
_cell_angle_alpha 90.000000
_cell_angle_beta 90.000000
_cell_angle_gamma 90.000000
_cell_volume 2886.839224
_symmetry_space_group_name_H-M "F D D 2"
_symmetry_group_IT_number 43
_symmetry_cell_setting 'orthorhombic'
loop_
_space_group_symop_operation_xyz
x,y,z
-x,-y,z
1/4-x,1/4+y,1/4+z
1/4+x,1/4-y,1/4+z
x,1/2+y,1/2+z
-x,1/2-y,1/2+z
1/4-x,3/4+y,3/4+z
1/4+x,3/4-y,3/4+z
1/2+x,y,1/2+z
1/2-x,-y,1/2+z
3/4-x,1/4+y,3/4+z
3/4+x,1/4-y,3/4+z
1/2+x,1/2+y,z
1/2-x,1/2-y,z
3/4-x,3/4+y,1/4+z
3/4+x,3/4-y,1/4+z
loop_
_atom_site_type_symbol
_atom_site_label
_atom_site_fract_x
_atom_site_fract_y
_atom_site_fract_z
Si Si1 0.689258 0.500208 0.114460
Si Si2 0.993466 0.209477 0.124633
Si Si3 0.150033 0.181496 0.985469
Si Si4 0.500000 0.500000 0.978560
Si Si5 0.156334 0.145720 0.647963
O O1 0.500000 0.500000 0.148281
O O2 0.802236 0.548772 0.163157
O O3 0.786065 0.426441 0.110853
O O4 0.643049 0.521986 0.034252
O O5 0.155377 0.199989 0.174114
O O6 0.947014 0.290956 0.111189
O O7 0.834867 0.178970 0.165563
O O8 0.022960 0.169807 0.050407
O O9 0.250000 0.250000 0.010188
O O10 0.293136 0.128801 0.963082
#
# Coordination Sequence:
#
# PCOD9371776 Si02
#       5
#    16  16  16   8  16
#     4   9  23  45  70 103 149 202 245 310 388 462
#     4  11  24  46  73 114 150 196 262 319 390 463
#     4  10  22  47  72 105 152 208 253 313 395 462
#     4  10  24  46  66 110 148 180 256 314 374 450
#     4  10  25  44  73 109 149 201 256 317 383 472
#
# _framework density 24.940773
#
# number of rings (size 3 to 8) (size 9 to 14) (size 15 to 20)
#    0.667    1.333    1.111    0.000    6.222    5.333 
#   20.000    0.000    0.000    0.000    0.000    0.000 
#    0.000    0.000    0.000    0.000    0.000    0.000 
#
# Total GULP energy -100410.803218 kJ/mol
# GULP energy per Si atom -5578.377957 kJ/mol
# Density = 2.488401 g / cm^3
# Si number density = 24.940773 Si / 1000 Ang^3
#
#
#
# Elastic Constant Matrix: (Units=GPa)
#
#
# Indices 1 2 3 4 5 6 
#
# 1 128.4483 62.7546 61.5942 0.0000 0.0000 0.0000
# 2 62.7546 140.4523 47.2708 0.0000 0.0000 0.0000
# 3 61.5942 47.2708 126.0280 0.0000 0.0000 0.0000
# 4 0.0000 0.0000 0.0000 -16.2383 0.0000 0.0000
# 5 0.0000 0.0000 0.0000 0.0000 159.1247 0.0000
# 6 0.0000 0.0000 0.0000 0.0000 0.0000 104.1004
#
#
#
# Elastic Compliance Matrix: (Units=1/GPa)
#
#
# Indices 1 2 3 4 5 6 
#
# 1 0.011691 -0.003777 -0.004297 0.000000 0.000000 0.000000
# 2 -0.003777 0.009369 -0.001668 0.000000 0.000000 0.000000
# 3 -0.004297 -0.001668 0.010660 0.000000 0.000000 0.000000
# 4 0.000000 0.000000 0.000000 -0.061583 0.000000 0.000000
# 5 0.000000 0.000000 0.000000 0.000000 0.006284 0.000000
# 6 0.000000 0.000000 0.000000 0.000000 0.000000 0.009606
#
#
# Mechanical properties :
#
#
# Convention : Reuss Voigt Hill
#
# Bulk Modulus (GPa) = 81.72757 82.01865 81.87311
# Shear Modulus (GPa) = 521.24825 64.28461 292.76643
#
# Velocity S-wave (km/s) = 14.47232 5.08241 10.84617
# Velocity P-wave (km/s) = 17.66646 8.20962 13.77501
#
# Compressibility (1/GPa) = 0.01223577
#
# Stress axis : x y z
#
# Youngs Moduli (GPa) = 85.53359 106.73472 93.80423
#
# Poissons Ratio (x) = 0.40319 0.40308
# Poissons Ratio (y) = 0.32310 0.15646
# Poissons Ratio (z) = 0.36754 0.17803
#
# Static dielectric constant tensor:
#      x y z
#    x 1.916720 0.000000 0.000000 
#    y 0.000000 2.131340 0.000000 
#    z 0.000000 0.000000 1.875910 
# 
# From -- ./inp_files/16282.got.cif
#   From: 2010.05.17/outbox.cif.g08.bks.cpg/sg43_9_cif.got.tgz:16282.got - 2010.06.03 19:21:55.
