data_PCOD9371303
_publ_section_title
;
Structure prediction by ZEFSAII (Michael W. Deem and Ramdas Pophale) SiO2 
 PCOD9371303
Probable space group: F D D 2
;
_chemical_formula_sum "Si O2"
_cell_formula_units_Z 96
_cell_length_a 16.573184
_cell_length_b 21.783313
_cell_length_c 11.349545
_cell_angle_alpha 90.000000
_cell_angle_beta 90.000000
_cell_angle_gamma 90.000000
_cell_volume 4097.399735
_symmetry_space_group_name_H-M "F D D 2"
_symmetry_group_IT_number 43
_symmetry_cell_setting 'orthorhombic'
loop_
_space_group_symop_operation_xyz
x,y,z
-x,-y,z
1/4-x,1/4+y,1/4+z
1/4+x,1/4-y,1/4+z
x,1/2+y,1/2+z
-x,1/2-y,1/2+z
1/4-x,3/4+y,3/4+z
1/4+x,3/4-y,3/4+z
1/2+x,y,1/2+z
1/2-x,-y,1/2+z
3/4-x,1/4+y,3/4+z
3/4+x,1/4-y,3/4+z
1/2+x,1/2+y,z
1/2-x,1/2-y,z
3/4-x,3/4+y,1/4+z
3/4+x,3/4-y,1/4+z
loop_
_atom_site_type_symbol
_atom_site_label
_atom_site_fract_x
_atom_site_fract_y
_atom_site_fract_z
Si Si1 0.272314 0.941220 0.121920
Si Si2 0.416404 0.378013 0.208768
Si Si3 0.500000 0.500000 0.247064
Si Si4 0.617007 0.737510 0.695566
Si Si5 0.482416 0.827673 0.478273
Si Si6 0.331858 0.635678 0.503227
Si Si7 0.500000 0.500000 0.639516
O O1 0.329318 0.902032 0.206523
O O2 0.318622 0.954743 0.996874
O O3 0.261416 0.007613 0.181238
O O4 0.195292 0.903162 0.080862
O O5 0.474314 0.437365 0.183007
O O6 0.323904 0.397501 0.222925
O O7 0.434246 0.332459 0.100476
O O8 0.578006 0.491763 0.331443
O O9 0.560229 0.678200 0.687313
O O10 0.679282 0.727831 0.803347
O O11 0.431737 0.869721 0.388135
O O12 0.279158 0.693247 0.465654
#
# Coordination Sequence:
#
# PCOD9371303 Si02
#       7
#    16  16   8  16  16  16   8
#     4  10  23  49  73 100 141 196 249 297 354 453
#     4  12  27  49  69 109 152 190 243 304 383 446
#     4  11  22  43  70 102 144 191 228 301 370 438
#     4   9  19  41  67 102 123 178 249 292 338 420
#     4  11  29  46  72 112 146 189 247 306 379 433
#     4  10  21  43  72  97 136 184 238 304 346 432
#     4   9  20  35  66  98 128 171 242 297 340 398
#
# _framework density 23.429493999999998
#
# number of rings (size 3 to 8) (size 9 to 14) (size 15 to 20)
#    0.000    1.667    1.667    1.000    9.333    2.000 
#    6.000    0.000    0.000    0.000    0.000    0.000 
#    0.000    0.000    0.000    0.000    0.000    0.000 
#
# Total GULP energy -134157.550369 kJ/mol
# GULP energy per Si atom -5589.897932 kJ/mol
# Density = 2.337617 g / cm^3
# Si number density = 23.429494 Si / 1000 Ang^3
#
#
#
# Elastic Constant Matrix: (Units=GPa)
#
#
# Indices 1 2 3 4 5 6 
#
# 1 86.8759 15.3761 28.1234 0.0000 0.0000 0.0000
# 2 15.3761 98.5379 24.8920 0.0000 0.0000 0.0000
# 3 28.1234 24.8920 59.5415 0.0000 0.0000 0.0000
# 4 0.0000 0.0000 0.0000 28.2087 0.0000 0.0000
# 5 0.0000 0.0000 0.0000 0.0000 18.4307 0.0000
# 6 0.0000 0.0000 0.0000 0.0000 0.0000 37.1520
#
#
#
# Elastic Compliance Matrix: (Units=1/GPa)
#
#
# Indices 1 2 3 4 5 6 
#
# 1 0.013616 -0.000559 -0.006197 0.000000 0.000000 0.000000
# 2 -0.000559 0.011370 -0.004489 0.000000 0.000000 0.000000
# 3 -0.006197 -0.004489 0.021599 0.000000 0.000000 0.000000
# 4 0.000000 0.000000 0.000000 0.035450 0.000000 0.000000
# 5 0.000000 0.000000 0.000000 0.000000 0.054257 0.000000
# 6 0.000000 0.000000 0.000000 0.000000 0.000000 0.026916
#
#
# Mechanical properties :
#
#
# Convention : Reuss Voigt Hill
#
# Bulk Modulus (GPa) = 41.50563 42.41536 41.96049
# Shear Modulus (GPa) = 25.80903 28.52921 27.16912
#
# Velocity S-wave (km/s) = 3.32258 3.49329 3.40900
# Velocity P-wave (km/s) = 5.69850 5.86630 5.78301
#
# Compressibility (1/GPa) = 0.02409312
#
# Stress axis : x y z
#
# Youngs Moduli (GPa) = 73.44379 87.95355 46.29845
#
# Poissons Ratio (x) = 0.04917 0.28693
# Poissons Ratio (y) = 0.04106 0.20784
# Poissons Ratio (z) = 0.45517 0.39483
#
# Static dielectric constant tensor:
#      x y z
#    x 1.897300 0.000000 0.000000 
#    y 0.000000 1.923650 0.000000 
#    z 0.000000 0.000000 1.896520 
# 
# From -- ./inp_files/6699.got.cif
#   From: 2010.05.17/outbox.cif.g08.bks.cpg/sg43_4_cif.got.tgz:6699.got - 2010.06.03 19:21:55.
