data_PCOD9371011
_publ_section_title
;
Structure prediction by ZEFSAII (Michael W. Deem and Ramdas Pophale) SiO2 
 PCOD9371011
Probable space group: F D D 2
;
_chemical_formula_sum "Si O2"
_cell_formula_units_Z 120
_cell_length_a 10.974738
_cell_length_b 16.088387
_cell_length_c 33.992628
_cell_angle_alpha 90.000000
_cell_angle_beta 90.000000
_cell_angle_gamma 90.000000
_cell_volume 6001.936650
_symmetry_space_group_name_H-M "F D D 2"
_symmetry_group_IT_number 43
_symmetry_cell_setting 'orthorhombic'
loop_
_space_group_symop_operation_xyz
x,y,z
-x,-y,z
1/4-x,1/4+y,1/4+z
1/4+x,1/4-y,1/4+z
x,1/2+y,1/2+z
-x,1/2-y,1/2+z
1/4-x,3/4+y,3/4+z
1/4+x,3/4-y,3/4+z
1/2+x,y,1/2+z
1/2-x,-y,1/2+z
3/4-x,1/4+y,3/4+z
3/4+x,1/4-y,3/4+z
1/2+x,1/2+y,z
1/2-x,1/2-y,z
3/4-x,3/4+y,1/4+z
3/4+x,3/4-y,1/4+z
loop_
_atom_site_type_symbol
_atom_site_label
_atom_site_fract_x
_atom_site_fract_y
_atom_site_fract_z
Si Si1 0.927868 0.418638 0.005240
Si Si2 0.447451 0.677874 0.572132
Si Si3 0.382170 0.439517 0.348474
Si Si4 0.481733 0.597627 0.650621
Si Si5 0.702238 0.931485 0.209078
Si Si6 0.000000 0.500000 0.269991
Si Si7 0.935665 0.407427 0.760569
Si Si8 0.502912 0.644914 0.420090
O O1 0.783265 0.414630 0.002363
O O2 0.000000 0.500000 0.018393
O O3 0.960053 0.349129 0.037756
O O4 0.973623 0.397497 0.961835
O O5 0.507330 0.757833 0.593878
O O6 0.440491 0.610654 0.606274
O O7 0.321534 0.689405 0.549390
O O8 0.500000 0.500000 0.350827
O O9 0.396437 0.397649 0.305868
O O10 0.401438 0.380621 0.386309
O O11 0.500000 0.500000 0.658537
O O12 0.378524 0.627294 0.680921
O O13 0.617123 0.632808 0.656785
O O14 0.819990 0.900955 0.232217
O O15 0.604895 0.963267 0.241847
O O16 0.747944 0.007668 0.181326
O O17 0.000000 0.500000 0.755028
#
# Coordination Sequence:
#
# PCOD9371011 Si02
#       8
#    16  16  16  16  16   8  16  16
#     4  12  23  36  63  97 121 156 213 277 327 395
#     4  12  22  39  59  90 124 164 218 267 330 398
#     4  11  19  33  61  87 121 158 200 273 322 384
#     4  10  21  36  58  88 122 160 206 265 323 384
#     4  11  20  39  64  88 121 178 216 264 324 423
#     4  12  20  40  66  86 116 182 230 248 328 442
#     4  11  19  40  61  89 125 170 215 262 334 409
#     4  11  19  35  60  93 121 155 213 265 326 389
#
# _framework density 19.993547
#
# number of rings (size 3 to 8) (size 9 to 14) (size 15 to 20)
#    0.000    0.800   10.000    0.800    0.000    1.067 
#    2.400    0.000    0.000    2.400    0.000    0.000 
#    0.000    0.000    0.000    0.000    0.000    0.000 
#
# Total GULP energy -167246.093182 kJ/mol
# GULP energy per Si atom -5574.869773 kJ/mol
# Density = 1.994804 g / cm^3
# Si number density = 19.993547 Si / 1000 Ang^3
#
#
#
# Elastic Constant Matrix: (Units=GPa)
#
#
# Indices 1 2 3 4 5 6 
#
# 1 99.1204 25.6300 42.4430 0.0000 0.0000 0.0000
# 2 25.6300 21.3694 14.8671 0.0000 0.0000 0.0000
# 3 42.4430 14.8671 135.6486 0.0000 0.0000 0.0000
# 4 0.0000 0.0000 0.0000 10.9624 0.0000 0.0000
# 5 0.0000 0.0000 0.0000 0.0000 23.7207 0.0000
# 6 0.0000 0.0000 0.0000 0.0000 0.0000 26.5366
#
#
#
# Elastic Compliance Matrix: (Units=1/GPa)
#
#
# Indices 1 2 3 4 5 6 
#
# 1 0.015737 -0.016724 -0.003091 0.000000 0.000000 0.000000
# 2 -0.016724 0.068432 -0.002267 0.000000 0.000000 0.000000
# 3 -0.003091 -0.002267 0.008588 0.000000 0.000000 0.000000
# 4 0.000000 0.000000 0.000000 0.091221 0.000000 0.000000
# 5 0.000000 0.000000 0.000000 0.000000 0.042157 0.000000
# 6 0.000000 0.000000 0.000000 0.000000 0.000000 0.037684
#
#
# Mechanical properties :
#
#
# Convention : Reuss Voigt Hill
#
# Bulk Modulus (GPa) = 20.57967 46.89095 33.73531
# Shear Modulus (GPa) = 15.42358 23.79050 19.60704
#
# Velocity S-wave (km/s) = 2.78047 3.45325 3.13496
# Velocity P-wave (km/s) = 4.54131 6.27725 5.47848
#
# Compressibility (1/GPa) = 0.04859166
#
# Stress axis : x y z
#
# Youngs Moduli (GPa) = 63.54625 14.61313 116.44690
#
# Poissons Ratio (x) = 0.24439 0.35992
# Poissons Ratio (y) = 1.06273 0.26404
# Poissons Ratio (z) = 0.19641 0.03313
#
# Static dielectric constant tensor:
#      x y z
#    x 1.776170 0.000000 0.000000 
#    y 0.000000 1.829680 0.000000 
#    z 0.000000 0.000000 1.712860 
# 
# From -- ./inp_files/28763.got.cif
#   From: 2010.05.17/outbox.cif.g08.bks.cpg/sg43_15_cif.got.tgz:28763.got - 2010.06.03 19:21:55.
