data_PCOD9371482
_publ_section_title
;
Structure prediction by ZEFSAII (Michael W. Deem and Ramdas Pophale) SiO2 
 PCOD9371482
Probable space group: F D D 2
;
_chemical_formula_sum "Si O2"
_cell_formula_units_Z 64
_cell_length_a 4.856626
_cell_length_b 31.700775
_cell_length_c 16.860851
_cell_angle_alpha 90.000000
_cell_angle_beta 90.000000
_cell_angle_gamma 90.000000
_cell_volume 2595.876523
_symmetry_space_group_name_H-M "F D D 2"
_symmetry_group_IT_number 43
_symmetry_cell_setting 'orthorhombic'
loop_
_space_group_symop_operation_xyz
x,y,z
-x,-y,z
1/4-x,1/4+y,1/4+z
1/4+x,1/4-y,1/4+z
x,1/2+y,1/2+z
-x,1/2-y,1/2+z
1/4-x,3/4+y,3/4+z
1/4+x,3/4-y,3/4+z
1/2+x,y,1/2+z
1/2-x,-y,1/2+z
3/4-x,1/4+y,3/4+z
3/4+x,1/4-y,3/4+z
1/2+x,1/2+y,z
1/2-x,1/2-y,z
3/4-x,3/4+y,1/4+z
3/4+x,3/4-y,1/4+z
loop_
_atom_site_type_symbol
_atom_site_label
_atom_site_fract_x
_atom_site_fract_y
_atom_site_fract_z
Si Si1 0.500000 0.500000 0.703080
Si Si2 0.961869 0.361548 0.100513
Si Si3 0.700522 0.411551 0.745233
Si Si4 0.750000 0.750000 0.347345
Si Si5 0.261936 0.471018 0.949618
O O1 0.664057 0.462279 0.746201
O O2 0.251706 0.482876 0.648242
O O3 0.742776 0.357761 0.026661
O O4 0.915727 0.319959 0.154186
O O5 0.044685 0.397783 0.163796
O O6 0.254507 0.355247 0.062075
O O7 0.641188 0.786088 0.287062
O O8 0.500000 0.500000 0.909720
O O9 0.000000 0.500000 0.962025
#
# Coordination Sequence:
#
# PCOD9371482 Si02
#       5
#     8  16  16   8  16
#     4  12  26  45  74 109 154 198 258 320 390 453
#     4  12  28  48  75 111 155 201 254 324 393 459
#     4  12  30  48  78 108 161 195 264 319 397 459
#     4  10  22  41  72 107 144 196 250 310 376 465
#     4  10  22  40  72 103 145 196 249 304 378 470
#
# _framework density 24.654487
#
# number of rings (size 3 to 8) (size 9 to 14) (size 15 to 20)
#    0.750    0.000    1.250    4.500   12.250    0.000 
#    0.000    0.000    0.000    0.000    0.000    0.000 
#    0.000    0.000    0.000    0.000    0.000    0.000 
#
# Total GULP energy -89089.162113 kJ/mol
# GULP energy per Si atom -5568.072632 kJ/mol
# Density = 2.459837 g / cm^3
# Si number density = 24.654487 Si / 1000 Ang^3
#
#
#
# Elastic Constant Matrix: (Units=GPa)
#
#
# Indices 1 2 3 4 5 6 
#
# 1 124.8674 13.0363 10.8011 0.0000 0.0000 0.0000
# 2 13.0363 90.5015 38.2101 0.0000 0.0000 0.0000
# 3 10.8011 38.2101 71.7937 0.0000 0.0000 0.0000
# 4 0.0000 0.0000 0.0000 43.9835 0.0000 0.0000
# 5 0.0000 0.0000 0.0000 0.0000 62.7914 0.0000
# 6 0.0000 0.0000 0.0000 0.0000 0.0000 21.2855
#
#
#
# Elastic Compliance Matrix: (Units=1/GPa)
#
#
# Indices 1 2 3 4 5 6 
#
# 1 0.008164 -0.000848 -0.000777 0.000000 0.000000 0.000000
# 2 -0.000848 0.014340 -0.007505 0.000000 0.000000 0.000000
# 3 -0.000777 -0.007505 0.018040 0.000000 0.000000 0.000000
# 4 0.000000 0.000000 0.000000 0.022736 0.000000 0.000000
# 5 0.000000 0.000000 0.000000 0.000000 0.015926 0.000000
# 6 0.000000 0.000000 0.000000 0.000000 0.000000 0.046980
#
#
# Mechanical properties :
#
#
# Convention : Reuss Voigt Hill
#
# Bulk Modulus (GPa) = 44.87294 45.69531 45.28412
# Shear Modulus (GPa) = 32.92214 40.61975 36.77094
#
# Velocity S-wave (km/s) = 3.65820 4.06342 3.86612
# Velocity P-wave (km/s) = 6.00695 6.37100 6.19165
#
# Compressibility (1/GPa) = 0.02228515
#
# Stress axis : x y z
#
# Youngs Moduli (GPa) = 122.48547 69.73430 55.43304
#
# Poissons Ratio (x) = 0.05913 0.04307
# Poissons Ratio (y) = 0.10387 0.41600
# Poissons Ratio (z) = 0.09517 0.52333
#
# Static dielectric constant tensor:
#      x y z
#    x 1.916230 0.000000 0.000000 
#    y 0.000000 1.959060 0.000000 
#    z 0.000000 0.000000 2.071260 
# 
# From -- ./inp_files/12174.got.cif
#   From: 2010.05.17/outbox.cif.g08.bks.cpg/sg43_7_cif.got.tgz:12174.got - 2010.06.03 19:21:55.
