data_PCOD9371951
_publ_section_title
;
Structure prediction by ZEFSAII (Michael W. Deem and Ramdas Pophale) SiO2 
 PCOD9371951
Probable space group: F D D 2
;
_chemical_formula_sum "Si O2"
_cell_formula_units_Z 88
_cell_length_a 5.292010
_cell_length_b 27.165566
_cell_length_c 28.329182
_cell_angle_alpha 90.000000
_cell_angle_beta 90.000000
_cell_angle_gamma 90.000000
_cell_volume 4072.615865
_symmetry_space_group_name_H-M "F D D 2"
_symmetry_group_IT_number 43
_symmetry_cell_setting 'orthorhombic'
loop_
_space_group_symop_operation_xyz
x,y,z
-x,-y,z
1/4-x,1/4+y,1/4+z
1/4+x,1/4-y,1/4+z
x,1/2+y,1/2+z
-x,1/2-y,1/2+z
1/4-x,3/4+y,3/4+z
1/4+x,3/4-y,3/4+z
1/2+x,y,1/2+z
1/2-x,-y,1/2+z
3/4-x,1/4+y,3/4+z
3/4+x,1/4-y,3/4+z
1/2+x,1/2+y,z
1/2-x,1/2-y,z
3/4-x,3/4+y,1/4+z
3/4+x,3/4-y,1/4+z
loop_
_atom_site_type_symbol
_atom_site_label
_atom_site_fract_x
_atom_site_fract_y
_atom_site_fract_z
Si Si1 0.250000 0.750000 0.195930
Si Si2 0.624093 0.409327 0.285235
Si Si3 0.884918 0.150405 0.792117
Si Si4 0.134922 0.900405 0.398979
Si Si5 0.500000 0.500000 0.220548
Si Si6 0.625911 0.340673 0.905861
Si Si7 0.250000 0.750000 0.745166
O O1 0.136775 0.704675 0.168232
O O2 0.500000 0.728832 0.220548
O O3 0.354479 0.382974 0.277383
O O4 0.640066 0.409768 0.342432
O O5 0.634749 0.461138 0.256866
O O6 0.863100 0.375542 0.273300
O O7 0.890063 0.159768 0.848664
O O8 0.863224 0.204675 0.772864
O O9 0.386905 0.874459 0.417796
O O10 0.895526 0.867026 0.413713
O O11 0.634747 0.538862 0.184230
#
# Coordination Sequence:
#
# PCOD9371951 Si02
#       7
#     8  16  16  16   8  16   8
#     4  12  25  38  68  97 128 173 226 274 315 408
#     4  10  24  42  70  93 139 171 221 277 340 396
#     4  10  23  46  63  97 134 181 212 274 345 403
#     4  10  23  46  63  97 134 181 212 274 345 403
#     4  12  26  42  72 110 128 182 232 294 314 408
#     4  10  24  42  70  93 139 171 221 277 340 396
#     4  12  25  38  68  97 128 173 226 274 315 408
#
# _framework density 21.607734000000001
#
# number of rings (size 3 to 8) (size 9 to 14) (size 15 to 20)
#    0.000    1.455    0.000    3.273    7.636    2.909 
#    0.000   10.909    0.000    0.000    0.000    0.000 
#    0.000    0.000    0.000    0.000    0.000    0.000 
#
# Total GULP energy -122759.880868 kJ/mol
# GULP energy per Si atom -5579.994585 kJ/mol
# Density = 2.155855 g / cm^3
# Si number density = 21.607734 Si / 1000 Ang^3
#
#
#
# Elastic Constant Matrix: (Units=GPa)
#
#
# Indices 1 2 3 4 5 6 
#
# 1 148.7318 65.7800 59.3869 0.0000 0.0000 0.0000
# 2 65.7800 181.3046 63.9153 0.0000 0.0000 0.0000
# 3 59.3869 63.9153 80.7969 0.0000 0.0000 0.0000
# 4 0.0000 0.0000 0.0000 109.4536 0.0000 0.0000
# 5 0.0000 0.0000 0.0000 0.0000 14.5019 0.0000
# 6 0.0000 0.0000 0.0000 0.0000 0.0000 39.7875
#
#
#
# Elastic Compliance Matrix: (Units=1/GPa)
#
#
# Indices 1 2 3 4 5 6 
#
# 1 0.009768 -0.001405 -0.006068 0.000000 0.000000 0.000000
# 2 -0.001405 0.007851 -0.005178 0.000000 0.000000 0.000000
# 3 -0.006068 -0.005178 0.020933 0.000000 0.000000 0.000000
# 4 0.000000 0.000000 0.000000 0.009136 0.000000 0.000000
# 5 0.000000 0.000000 0.000000 0.000000 0.068957 0.000000
# 6 0.000000 0.000000 0.000000 0.000000 0.000000 0.025134
#
#
# Mechanical properties :
#
#
# Convention : Reuss Voigt Hill
#
# Bulk Modulus (GPa) = 75.47309 87.66644 81.56977
# Shear Modulus (GPa) = 29.15525 47.53200 38.34363
#
# Velocity S-wave (km/s) = 3.67726 4.69526 4.21709
# Velocity P-wave (km/s) = 7.28246 8.36981 7.84500
#
# Compressibility (1/GPa) = 0.01324975
#
# Stress axis : x y z
#
# Youngs Moduli (GPa) = 102.37786 127.37970 47.77148
#
# Poissons Ratio (x) = 0.17892 0.28989
# Poissons Ratio (y) = 0.14380 0.24735
# Poissons Ratio (z) = 0.62126 0.65955
#
# Static dielectric constant tensor:
#      x y z
#    x 1.777330 0.000000 0.000000 
#    y 0.000000 1.720000 0.000000 
#    z 0.000000 0.000000 1.890250 
# 
# From -- ./inp_files/27275.got.cif
#   From: 2010.05.17/outbox.cif.g08.bks.cpg/sg43_14_cif.got.tgz:27275.got - 2010.06.03 19:21:55.
