data_PCOD9371791
_publ_section_title
;
Structure prediction by ZEFSAII (Michael W. Deem and Ramdas Pophale) SiO2 
 PCOD9371791
Probable space group: F D D 2
;
_chemical_formula_sum "Si O2"
_cell_formula_units_Z 80
_cell_length_a 13.923065
_cell_length_b 23.955632
_cell_length_c 8.579824
_cell_angle_alpha 90.000000
_cell_angle_beta 90.000000
_cell_angle_gamma 90.000000
_cell_volume 2861.678646
_symmetry_space_group_name_H-M "F D D 2"
_symmetry_group_IT_number 43
_symmetry_cell_setting 'orthorhombic'
loop_
_space_group_symop_operation_xyz
x,y,z
-x,-y,z
1/4-x,1/4+y,1/4+z
1/4+x,1/4-y,1/4+z
x,1/2+y,1/2+z
-x,1/2-y,1/2+z
1/4-x,3/4+y,3/4+z
1/4+x,3/4-y,3/4+z
1/2+x,y,1/2+z
1/2-x,-y,1/2+z
3/4-x,1/4+y,3/4+z
3/4+x,1/4-y,3/4+z
1/2+x,1/2+y,z
1/2-x,1/2-y,z
3/4-x,3/4+y,1/4+z
3/4+x,3/4-y,1/4+z
loop_
_atom_site_type_symbol
_atom_site_label
_atom_site_fract_x
_atom_site_fract_y
_atom_site_fract_z
Si Si1 0.205226 0.363571 0.689120
Si Si2 0.250000 0.750000 0.797258
Si Si3 0.635806 0.414599 0.863675
Si Si4 0.500000 0.500000 0.565179
Si Si5 0.055306 0.304672 0.366645
Si Si6 0.561580 0.794652 0.875640
O O1 0.174905 0.382703 0.517741
O O2 0.265419 0.306494 0.715532
O O3 0.249726 0.421768 0.748827
O O4 0.109907 0.344983 0.779233
O O5 0.194696 0.704775 0.690434
O O6 0.161831 0.777567 0.894705
O O7 0.577248 0.363470 0.784268
O O8 0.727256 0.432369 0.755737
O O9 0.592555 0.511912 0.668669
O O10 0.002293 0.251226 0.288626
#
# Coordination Sequence:
#
# PCOD9371791 Si02
#       6
#    16   8  16   8  16  16
#     4  10  22  49  74 116 159 216 273 344 427 516
#     4  12  28  54  84 122 176 226 285 367 430 522
#     4  12  26  51  81 123 171 221 289 353 439 526
#     4   8  24  44  76 108 160 204 285 345 420 512
#     4  12  27  50  83 122 167 228 286 353 437 521
#     4  10  23  49  74 119 160 213 284 350 426 518
#
# _framework density 27.955618999999999
#
# number of rings (size 3 to 8) (size 9 to 14) (size 15 to 20)
#    1.200    0.000    4.000    1.200    0.000    3.200 
#    7.200    0.000    0.000    0.000    0.000    0.000 
#    0.000    0.000    0.000    0.000    0.000    0.000 
#
# Total GULP energy -111411.099224 kJ/mol
# GULP energy per Si atom -5570.554961 kJ/mol
# Density = 2.789199 g / cm^3
# Si number density = 27.955619 Si / 1000 Ang^3
#
#
#
# Elastic Constant Matrix: (Units=GPa)
#
#
# Indices 1 2 3 4 5 6 
#
# 1 231.5551 109.5385 43.8504 0.0000 0.0000 0.0000
# 2 109.5385 217.0612 49.6605 0.0000 0.0000 0.0000
# 3 43.8504 49.6605 85.9553 0.0000 0.0000 0.0000
# 4 0.0000 0.0000 0.0000 19.4922 0.0000 0.0000
# 5 0.0000 0.0000 0.0000 0.0000 19.7378 0.0000
# 6 0.0000 0.0000 0.0000 0.0000 0.0000 84.5311
#
#
#
# Elastic Compliance Matrix: (Units=1/GPa)
#
#
# Indices 1 2 3 4 5 6 
#
# 1 0.005829 -0.002606 -0.001468 0.000000 0.000000 0.000000
# 2 -0.002606 0.006474 -0.002411 0.000000 0.000000 0.000000
# 3 -0.001468 -0.002411 0.013776 0.000000 0.000000 0.000000
# 4 0.000000 0.000000 0.000000 0.051302 0.000000 0.000000
# 5 0.000000 0.000000 0.000000 0.000000 0.050664 0.000000
# 6 0.000000 0.000000 0.000000 0.000000 0.000000 0.011830
#
#
# Mechanical properties :
#
#
# Convention : Reuss Voigt Hill
#
# Bulk Modulus (GPa) = 76.28375 104.51895 90.40135
# Shear Modulus (GPa) = 31.80358 46.85369 39.32864
#
# Velocity S-wave (km/s) = 3.37656 4.09834 3.75483
# Velocity P-wave (km/s) = 6.52290 7.73717 7.15584
#
# Compressibility (1/GPa) = 0.01310895
#
# Stress axis : x y z
#
# Youngs Moduli (GPa) = 171.54427 154.47490 72.59090
#
# Poissons Ratio (x) = 0.40253 0.10659
# Poissons Ratio (y) = 0.44701 0.17500
# Poissons Ratio (z) = 0.25189 0.37239
#
# Static dielectric constant tensor:
#      x y z
#    x 2.357360 0.000000 0.000000 
#    y 0.000000 2.375460 0.000000 
#    z 0.000000 0.000000 2.368270 
# 
# From -- ./inp_files/6112.got.cif
#   From: 2010.05.17/outbox.cif.g08.bks.cpg/sg43_4_cif.got.tgz:6112.got - 2010.06.03 19:21:55.
