data_PCOD9371857
_publ_section_title
;
Structure prediction by ZEFSAII (Michael W. Deem and Ramdas Pophale) SiO2 
 PCOD9371857
Probable space group: F D D 2
;
_chemical_formula_sum "Si O2"
_cell_formula_units_Z 80
_cell_length_a 14.755274
_cell_length_b 9.167554
_cell_length_c 26.967860
_cell_angle_alpha 90.000000
_cell_angle_beta 90.000000
_cell_angle_gamma 90.000000
_cell_volume 3647.936251
_symmetry_space_group_name_H-M "F D D 2"
_symmetry_group_IT_number 43
_symmetry_cell_setting 'orthorhombic'
loop_
_space_group_symop_operation_xyz
x,y,z
-x,-y,z
1/4-x,1/4+y,1/4+z
1/4+x,1/4-y,1/4+z
x,1/2+y,1/2+z
-x,1/2-y,1/2+z
1/4-x,3/4+y,3/4+z
1/4+x,3/4-y,3/4+z
1/2+x,y,1/2+z
1/2-x,-y,1/2+z
3/4-x,1/4+y,3/4+z
3/4+x,1/4-y,3/4+z
1/2+x,1/2+y,z
1/2-x,1/2-y,z
3/4-x,3/4+y,1/4+z
3/4+x,3/4-y,1/4+z
loop_
_atom_site_type_symbol
_atom_site_label
_atom_site_fract_x
_atom_site_fract_y
_atom_site_fract_z
Si Si1 0.124992 0.118997 0.419520
Si Si2 0.663550 0.949532 0.421693
Si Si3 0.500000 0.500000 0.505802
Si Si4 0.114619 0.793504 0.567826
Si Si5 0.958767 0.208716 0.779372
Si Si6 0.500000 0.500000 0.335456
O O1 0.231248 0.091799 0.414974
O O2 0.109880 0.294893 0.420902
O O3 0.080175 0.052616 0.469210
O O4 0.081188 0.031149 0.373850
O O5 0.633392 0.056124 0.377209
O O6 0.667595 0.027516 0.474721
O O7 0.529687 0.367515 0.541460
O O8 0.199760 0.867179 0.539998
O O9 0.129016 0.621312 0.559691
O O10 0.990460 0.363735 0.799404
#
# Coordination Sequence:
#
# PCOD9371857 Si02
#       6
#    16  16   8  16  16   8
#     4  10  23  42  73 105 137 193 244 299 381 450
#     4  11  23  45  70 103 144 190 247 304 376 458
#     4  11  24  46  70 108 144 192 246 305 382 454
#     4  11  26  45  69 108 142 191 252 307 380 449
#     4  11  25  46  71 102 147 193 245 315 376 450
#     4  11  22  44  70 100 140 184 236 311 364 448
#
# _framework density 21.930206999999999
#
# number of rings (size 3 to 8) (size 9 to 14) (size 15 to 20)
#    0.000    1.200    4.000    1.200    2.800    4.800 
#    0.000    0.000    0.000    0.000    0.000    0.000 
#    0.000    0.000    0.000    0.000    0.000    0.000 
#
# Total GULP energy -111542.608916 kJ/mol
# GULP energy per Si atom -5577.130446 kJ/mol
# Density = 2.188029 g / cm^3
# Si number density = 21.930207 Si / 1000 Ang^3
#
#
#
# Elastic Constant Matrix: (Units=GPa)
#
#
# Indices 1 2 3 4 5 6 
#
# 1 39.6565 28.4599 18.7444 0.0000 0.0000 0.0000
# 2 28.4599 87.9437 48.9317 0.0000 0.0000 0.0000
# 3 18.7444 48.9317 173.0678 0.0000 0.0000 0.0000
# 4 0.0000 0.0000 0.0000 -12.2967 0.0000 0.0000
# 5 0.0000 0.0000 0.0000 0.0000 32.1853 0.0000
# 6 0.0000 0.0000 0.0000 0.0000 0.0000 36.4907
#
#
#
# Elastic Compliance Matrix: (Units=1/GPa)
#
#
# Indices 1 2 3 4 5 6 
#
# 1 0.032907 -0.010284 -0.000656 0.000000 0.000000 0.000000
# 2 -0.010284 0.016708 -0.003610 0.000000 0.000000 0.000000
# 3 -0.000656 -0.003610 0.006870 0.000000 0.000000 0.000000
# 4 0.000000 0.000000 0.000000 -0.081323 0.000000 0.000000
# 5 0.000000 0.000000 0.000000 0.000000 0.031070 0.000000
# 6 0.000000 0.000000 0.000000 0.000000 0.000000 0.027404
#
#
# Mechanical properties :
#
#
# Convention : Reuss Voigt Hill
#
# Bulk Modulus (GPa) = 36.51795 54.77111 45.64453
# Shear Modulus (GPa) = 69.57498 24.91133 47.24315
#
# Velocity S-wave (km/s) = 5.63866 3.37402 4.64643
# Velocity P-wave (km/s) = 7.68640 6.34099 7.04588
#
# Compressibility (1/GPa) = 0.02738379
#
# Stress axis : x y z
#
# Youngs Moduli (GPa) = 30.38842 59.85323 145.56429
#
# Poissons Ratio (x) = 0.61553 0.09556
# Poissons Ratio (y) = 0.31252 0.52547
# Poissons Ratio (z) = 0.01995 0.21606
#
# Static dielectric constant tensor:
#      x y z
#    x 1.804960 0.000000 0.000000 
#    y 0.000000 1.828490 0.000000 
#    z 0.000000 0.000000 1.843960 
# 
# From -- ./inp_files/25909.got.cif
#   From: 2010.05.17/outbox.cif.g08.bks.cpg/sg43_13_cif.got.tgz:25909.got - 2010.06.03 19:21:55.
