data_PCOD9371224
_publ_section_title
;
Structure prediction by ZEFSAII (Michael W. Deem and Ramdas Pophale) SiO2 
 PCOD9371224
Probable space group: F D D 2
;
_chemical_formula_sum "Si O2"
_cell_formula_units_Z 72
_cell_length_a 16.985182
_cell_length_b 9.516539
_cell_length_c 19.204101
_cell_angle_alpha 90.000000
_cell_angle_beta 90.000000
_cell_angle_gamma 90.000000
_cell_volume 3104.153707
_symmetry_space_group_name_H-M "F D D 2"
_symmetry_group_IT_number 43
_symmetry_cell_setting 'orthorhombic'
loop_
_space_group_symop_operation_xyz
x,y,z
-x,-y,z
1/4-x,1/4+y,1/4+z
1/4+x,1/4-y,1/4+z
x,1/2+y,1/2+z
-x,1/2-y,1/2+z
1/4-x,3/4+y,3/4+z
1/4+x,3/4-y,3/4+z
1/2+x,y,1/2+z
1/2-x,-y,1/2+z
3/4-x,1/4+y,3/4+z
3/4+x,1/4-y,3/4+z
1/2+x,1/2+y,z
1/2-x,1/2-y,z
3/4-x,3/4+y,1/4+z
3/4+x,3/4-y,1/4+z
loop_
_atom_site_type_symbol
_atom_site_label
_atom_site_fract_x
_atom_site_fract_y
_atom_site_fract_z
Si Si1 0.750000 0.250000 0.940810
Si Si2 0.655038 0.273610 0.557931
Si Si3 0.639762 0.379571 0.100380
Si Si4 0.441684 0.169437 0.820982
Si Si5 0.907550 0.478416 0.465312
O O1 0.677628 0.213966 0.889351
O O2 0.773165 0.369495 0.997505
O O3 0.750000 0.250000 0.552576
O O4 0.615861 0.170754 0.501272
O O5 0.644103 0.441233 0.554032
O O6 0.626054 0.249420 0.637361
O O7 0.727401 0.441648 0.115170
O O8 0.621087 0.405818 0.019380
O O9 0.603904 0.960544 0.856642
O O10 0.000000 0.500000 0.460049
#
# Coordination Sequence:
#
# PCOD9371224 Si02
#       5
#     8  16  16  16  16
#     4  10  22  40  78  98 140 188 236 288 360 438
#     4  11  25  46  69 104 144 186 239 301 360 429
#     4  10  21  41  69 101 135 189 234 285 354 432
#     4  10  25  42  69 105 142 181 238 301 351 426
#     4  11  25  43  73 102 141 191 240 299 363 433
#
# _framework density 23.194728000000001
#
# number of rings (size 3 to 8) (size 9 to 14) (size 15 to 20)
#    0.000    1.778    3.333    0.000    9.333    0.000 
#    0.000    1.111    0.000    0.000    0.000    0.000 
#    0.000    0.000    0.000    0.000    0.000    0.000 
#
# Total GULP energy -100290.505178 kJ/mol
# GULP energy per Si atom -5571.694732 kJ/mol
# Density = 2.314194 g / cm^3
# Si number density = 23.194728 Si / 1000 Ang^3
#
#
#
# Elastic Constant Matrix: (Units=GPa)
#
#
# Indices 1 2 3 4 5 6 
#
# 1 83.0715 68.5967 42.0961 0.0000 0.0000 0.0000
# 2 68.5967 157.9898 34.1358 0.0000 0.0000 0.0000
# 3 42.0961 34.1358 104.1061 0.0000 0.0000 0.0000
# 4 0.0000 0.0000 0.0000 113.2526 0.0000 0.0000
# 5 0.0000 0.0000 0.0000 0.0000 -5.2765 0.0000
# 6 0.0000 0.0000 0.0000 0.0000 0.0000 36.5322
#
#
#
# Elastic Compliance Matrix: (Units=1/GPa)
#
#
# Indices 1 2 3 4 5 6 
#
# 1 0.021931 -0.008186 -0.006184 0.000000 0.000000 0.000000
# 2 -0.008186 0.009868 0.000075 0.000000 0.000000 0.000000
# 3 -0.006184 0.000075 0.012082 0.000000 0.000000 0.000000
# 4 0.000000 0.000000 0.000000 0.008830 0.000000 0.000000
# 5 0.000000 0.000000 0.000000 0.000000 -0.189519 0.000000
# 6 0.000000 0.000000 0.000000 0.000000 0.000000 0.027373
#
#
# Mechanical properties :
#
#
# Convention : Reuss Voigt Hill
#
# Bulk Modulus (GPa) = 65.40351 70.53607 67.96979
# Shear Modulus (GPa) = -66.00845 42.25757 -11.87544
#
# Velocity S-wave (km/s) = -5.34043 4.27296 -2.26517
# Velocity P-wave (km/s) = 3.12540 7.40410 4.74618
#
# Compressibility (1/GPa) = 0.01528970
#
# Stress axis : x y z
#
# Youngs Moduli (GPa) = 45.59723 101.34097 82.77023
#
# Poissons Ratio (x) = 0.82958 0.51184
# Poissons Ratio (y) = 0.37326 -0.00617
# Poissons Ratio (z) = 0.28197 -0.00755
#
# Static dielectric constant tensor:
#      x y z
#    x 1.978990 0.000000 0.000000 
#    y 0.000000 1.986850 0.000000 
#    z 0.000000 0.000000 1.922750 
# 
# From -- ./inp_files/17101.got.cif
#   From: 2010.05.17/outbox.cif.g08.bks.cpg/sg43_9_cif.got.tgz:17101.got - 2010.06.03 19:21:55.
