data_PCOD9371715
_publ_section_title
;
Structure prediction by ZEFSAII (Michael W. Deem and Ramdas Pophale) SiO2 
 PCOD9371715
Probable space group: F D D 2
;
_chemical_formula_sum "Si O2"
_cell_formula_units_Z 72
_cell_length_a 7.470377
_cell_length_b 21.621076
_cell_length_c 18.443929
_cell_angle_alpha 90.000000
_cell_angle_beta 90.000000
_cell_angle_gamma 90.000000
_cell_volume 2979.018941
_symmetry_space_group_name_H-M "F D D 2"
_symmetry_group_IT_number 43
_symmetry_cell_setting 'orthorhombic'
loop_
_space_group_symop_operation_xyz
x,y,z
-x,-y,z
1/4-x,1/4+y,1/4+z
1/4+x,1/4-y,1/4+z
x,1/2+y,1/2+z
-x,1/2-y,1/2+z
1/4-x,3/4+y,3/4+z
1/4+x,3/4-y,3/4+z
1/2+x,y,1/2+z
1/2-x,-y,1/2+z
3/4-x,1/4+y,3/4+z
3/4+x,1/4-y,3/4+z
1/2+x,1/2+y,z
1/2-x,1/2-y,z
3/4-x,3/4+y,1/4+z
3/4+x,3/4-y,1/4+z
loop_
_atom_site_type_symbol
_atom_site_label
_atom_site_fract_x
_atom_site_fract_y
_atom_site_fract_z
Si Si1 0.760580 0.881082 0.818900
Si Si2 0.000000 0.500000 0.988095
Si Si3 0.151920 0.107179 0.303684
Si Si4 0.444701 0.065092 0.212183
Si Si5 0.647833 0.451496 0.929800
O O1 0.757743 0.813007 0.783058
O O2 0.556595 0.905154 0.816839
O O3 0.814641 0.867935 0.901554
O O4 0.904051 0.917791 0.771245
O O5 0.821892 0.493473 0.941832
O O6 0.254331 0.059705 0.251359
O O7 0.271903 0.101987 0.376550
O O8 0.159435 0.170833 0.256861
O O9 0.500000 0.000000 0.179046
O O10 0.500000 0.500000 0.902684
#
# Coordination Sequence:
#
# PCOD9371715 Si02
#       5
#    16   8  16  16  16
#     4  11  24  47  71 107 146 190 243 298 369 442
#     4  10  22  44  76  98 140 192 230 296 364 432
#     4  11  25  44  69 105 141 187 244 298 357 436
#     4  12  26  45  73 107 149 193 243 304 373 442
#     4  11  24  45  72 104 144 189 235 295 362 428
#
# _framework density 24.169032000000001
#
# number of rings (size 3 to 8) (size 9 to 14) (size 15 to 20)
#    0.000    0.889    1.111    6.000    0.000    6.222 
#    0.000    0.000    0.000    0.000    0.000    0.000 
#    0.000    0.000    0.000    0.000    0.000    0.000 
#
# Total GULP energy -100670.383800 kJ/mol
# GULP energy per Si atom -5592.799100 kJ/mol
# Density = 2.411402 g / cm^3
# Si number density = 24.169032 Si / 1000 Ang^3
#
#
#
# Elastic Constant Matrix: (Units=GPa)
#
#
# Indices 1 2 3 4 5 6 
#
# 1 163.4491 35.4843 69.9286 0.0000 0.0000 0.0000
# 2 35.4843 95.5114 34.1222 0.0000 0.0000 0.0000
# 3 69.9286 34.1222 126.5444 0.0000 0.0000 0.0000
# 4 0.0000 0.0000 0.0000 38.5912 0.0000 0.0000
# 5 0.0000 0.0000 0.0000 0.0000 34.2743 0.0000
# 6 0.0000 0.0000 0.0000 0.0000 0.0000 38.3672
#
#
#
# Elastic Compliance Matrix: (Units=1/GPa)
#
#
# Indices 1 2 3 4 5 6 
#
# 1 0.008223 -0.001584 -0.004117 0.000000 0.000000 0.000000
# 2 -0.001584 0.011891 -0.002331 0.000000 0.000000 0.000000
# 3 -0.004117 -0.002331 0.010806 0.000000 0.000000 0.000000
# 4 0.000000 0.000000 0.000000 0.025913 0.000000 0.000000
# 5 0.000000 0.000000 0.000000 0.000000 0.029176 0.000000
# 6 0.000000 0.000000 0.000000 0.000000 0.000000 0.026064
#
#
# Mechanical properties :
#
#
# Convention : Reuss Voigt Hill
#
# Bulk Modulus (GPa) = 67.31254 73.84167 70.57710
# Shear Modulus (GPa) = 37.56840 38.64451 38.10646
#
# Velocity S-wave (km/s) = 3.94687 4.00300 3.97503
# Velocity P-wave (km/s) = 6.97722 7.20998 7.09455
#
# Compressibility (1/GPa) = 0.01485607
#
# Stress axis : x y z
#
# Youngs Moduli (GPa) = 121.60289 84.09505 92.54112
#
# Poissons Ratio (x) = 0.13323 0.38100
# Poissons Ratio (y) = 0.19266 0.21571
# Poissons Ratio (z) = 0.50065 0.19602
#
# Static dielectric constant tensor:
#      x y z
#    x 1.906090 0.000000 0.000000 
#    y 0.000000 1.874290 0.000000 
#    z 0.000000 0.000000 1.975170 
# 
# From -- ./inp_files/16258.got.cif
#   From: 2010.05.17/outbox.cif.g08.bks.cpg/sg43_9_cif.got.tgz:16258.got - 2010.06.03 19:21:55.
