data_PCOD9371642
_publ_section_title
;
Structure prediction by ZEFSAII (Michael W. Deem and Ramdas Pophale) SiO2 
 PCOD9371642
Probable space group: F D D 2
;
_chemical_formula_sum "Si O2"
_cell_formula_units_Z 80
_cell_length_a 19.460360
_cell_length_b 12.435989
_cell_length_c 14.955715
_cell_angle_alpha 90.000000
_cell_angle_beta 90.000000
_cell_angle_gamma 90.000000
_cell_volume 3619.414983
_symmetry_space_group_name_H-M "F D D 2"
_symmetry_group_IT_number 43
_symmetry_cell_setting 'orthorhombic'
loop_
_space_group_symop_operation_xyz
x,y,z
-x,-y,z
1/4-x,1/4+y,1/4+z
1/4+x,1/4-y,1/4+z
x,1/2+y,1/2+z
-x,1/2-y,1/2+z
1/4-x,3/4+y,3/4+z
1/4+x,3/4-y,3/4+z
1/2+x,y,1/2+z
1/2-x,-y,1/2+z
3/4-x,1/4+y,3/4+z
3/4+x,1/4-y,3/4+z
1/2+x,1/2+y,z
1/2-x,1/2-y,z
3/4-x,3/4+y,1/4+z
3/4+x,3/4-y,1/4+z
loop_
_atom_site_type_symbol
_atom_site_label
_atom_site_fract_x
_atom_site_fract_y
_atom_site_fract_z
Si Si1 0.669076 0.511277 0.367000
Si Si2 0.916891 0.274235 0.907956
Si Si3 0.552457 0.155230 0.406536
Si Si4 0.676723 0.798440 0.972746
Si Si5 0.290440 0.148820 0.356274
O O1 0.618110 0.614657 0.374231
O O2 0.666887 0.470854 0.265278
O O3 0.654877 0.413199 0.431910
O O4 0.747708 0.547027 0.388984
O O5 0.868485 0.174231 0.878733
O O6 0.993366 0.240732 0.877703
O O7 0.568219 0.071178 0.328650
O O8 0.620045 0.217094 0.437770
O O9 0.528860 0.103387 0.499842
O O10 0.750000 0.750000 0.943589
O O11 0.250000 0.250000 0.396577
#
# Coordination Sequence:
#
# PCOD9371642 Si02
#       5
#    16  16  16  16  16
#     4  10  23  42  67 102 131 179 218 281 334 407
#     4  10  22  43  70  98 131 172 231 275 339 404
#     4  11  25  42  67 100 131 184 218 287 337 416
#     4  12  27  44  67  97 143 178 228 279 355 404
#     4   9  20  41  69  96 130 164 228 276 337 401
#
# _framework density 22.103020000000001
#
# number of rings (size 3 to 8) (size 9 to 14) (size 15 to 20)
#    0.000    1.600    0.000    3.000    8.400    4.000 
#    3.600    0.000    0.000    0.000    0.000    0.000 
#    0.000    0.000    0.000    0.000    0.000    0.000 
#
# Total GULP energy -111663.255852 kJ/mol
# GULP energy per Si atom -5583.162793 kJ/mol
# Density = 2.205271 g / cm^3
# Si number density = 22.103020 Si / 1000 Ang^3
#
#
#
# Elastic Constant Matrix: (Units=GPa)
#
#
# Indices 1 2 3 4 5 6 
#
# 1 126.7278 33.6407 -11.5317 0.0000 0.0000 0.0000
# 2 33.6407 70.3362 -9.2681 0.0000 0.0000 0.0000
# 3 -11.5317 -9.2681 42.0008 0.0000 0.0000 0.0000
# 4 0.0000 0.0000 0.0000 8.0667 0.0000 0.0000
# 5 0.0000 0.0000 0.0000 0.0000 29.7091 0.0000
# 6 0.0000 0.0000 0.0000 0.0000 0.0000 22.8684
#
#
#
# Elastic Compliance Matrix: (Units=1/GPa)
#
#
# Indices 1 2 3 4 5 6 
#
# 1 0.009141 -0.004162 0.001591 0.000000 0.000000 0.000000
# 2 -0.004162 0.016538 0.002507 0.000000 0.000000 0.000000
# 3 0.001591 0.002507 0.024799 0.000000 0.000000 0.000000
# 4 0.000000 0.000000 0.000000 0.123967 0.000000 0.000000
# 5 0.000000 0.000000 0.000000 0.000000 0.033660 0.000000
# 6 0.000000 0.000000 0.000000 0.000000 0.000000 0.043729
#
#
# Mechanical properties :
#
#
# Convention : Reuss Voigt Hill
#
# Bulk Modulus (GPa) = 19.86113 29.41629 24.63871
# Shear Modulus (GPa) = 18.60501 27.21044 22.90773
#
# Velocity S-wave (km/s) = 2.90442 3.51247 3.22282
# Velocity P-wave (km/s) = 4.50031 5.45780 5.00202
#
# Compressibility (1/GPa) = 0.05034960
#
# Stress axis : x y z
#
# Youngs Moduli (GPa) = 109.40227 60.46532 40.32411
#
# Poissons Ratio (x) = 0.25166 -0.06416
# Poissons Ratio (y) = 0.45535 -0.10108
# Poissons Ratio (z) = -0.17408 -0.15157
#
# Static dielectric constant tensor:
#      x y z
#    x 1.854800 0.000000 0.000000 
#    y 0.000000 1.927080 0.000000 
#    z 0.000000 0.000000 1.782710 
# 
# From -- ./inp_files/10868.got.cif
#   From: 2010.05.17/outbox.cif.g08.bks.cpg/sg43_6_cif.got.tgz:10868.got - 2010.06.03 19:21:55.
