data_PCOD9371380
_publ_section_title
;
Structure prediction by ZEFSAII (Michael W. Deem and Ramdas Pophale) SiO2 
 PCOD9371380
Probable space group: F D D 2
;
_chemical_formula_sum "Si O2"
_cell_formula_units_Z 120
_cell_length_a 14.463463
_cell_length_b 29.911044
_cell_length_c 13.889401
_cell_angle_alpha 90.000000
_cell_angle_beta 90.000000
_cell_angle_gamma 90.000000
_cell_volume 6008.794856
_symmetry_space_group_name_H-M "F D D 2"
_symmetry_group_IT_number 43
_symmetry_cell_setting 'orthorhombic'
loop_
_space_group_symop_operation_xyz
x,y,z
-x,-y,z
1/4-x,1/4+y,1/4+z
1/4+x,1/4-y,1/4+z
x,1/2+y,1/2+z
-x,1/2-y,1/2+z
1/4-x,3/4+y,3/4+z
1/4+x,3/4-y,3/4+z
1/2+x,y,1/2+z
1/2-x,-y,1/2+z
3/4-x,1/4+y,3/4+z
3/4+x,1/4-y,3/4+z
1/2+x,1/2+y,z
1/2-x,1/2-y,z
3/4-x,3/4+y,1/4+z
3/4+x,3/4-y,1/4+z
loop_
_atom_site_type_symbol
_atom_site_label
_atom_site_fract_x
_atom_site_fract_y
_atom_site_fract_z
Si Si1 0.500000 0.000000 0.061751
Si Si2 0.419058 0.914642 0.170548
Si Si3 0.531913 0.834980 0.749080
Si Si4 0.608453 0.404511 0.109563
Si Si5 0.061987 0.543347 0.530673
Si Si6 0.418063 0.756907 0.168392
Si Si7 0.059582 0.336158 0.124617
Si Si8 0.638693 0.746201 0.456902
O O1 0.456541 0.962470 0.131576
O O2 0.580237 0.982761 0.987708
O O3 0.339527 0.903342 0.093945
O O4 0.364577 0.912657 0.272481
O O5 0.506328 0.881406 0.155921
O O6 0.588839 0.859873 0.666870
O O7 0.429178 0.851157 0.772315
O O8 0.529197 0.782713 0.723840
O O9 0.510868 0.422397 0.074101
O O10 0.641344 0.445538 0.179397
O O11 0.113504 0.568800 0.447781
O O12 0.132638 0.526567 0.613928
O O13 0.000000 0.500000 0.499975
O O14 0.479869 0.799019 0.140272
O O15 0.391398 0.739231 0.062054
O O16 0.750000 0.750000 0.459359
#
# Coordination Sequence:
#
# PCOD9371380 Si02
#       8
#     8  16  16  16  16  16  16  16
#     4  10  24  44  66 102 136 172 228 280 336 424
#     4  11  25  43  66  99 131 179 220 279 341 415
#     4  11  23  38  63  95 127 162 221 273 334 405
#     4  10  22  38  61  89 129 163 211 274 328 391
#     4   9  22  42  64  91 132 169 225 273 341 406
#     4  11  21  38  68  96 129 172 222 274 345 396
#     4  12  25  44  67  94 136 186 221 284 343 418
#     4   9  18  36  62  91 121 164 206 270 324 391
#
# _framework density 19.970727
#
# number of rings (size 3 to 8) (size 9 to 14) (size 15 to 20)
#    0.000    1.867    0.667    4.800    4.667    3.200 
#    2.400    0.000    0.000    0.000    0.000    0.000 
#    0.000    0.000    0.000    0.000    0.000    0.000 
#
# Total GULP energy -167173.160466 kJ/mol
# GULP energy per Si atom -5572.438682 kJ/mol
# Density = 1.992527 g / cm^3
# Si number density = 19.970727 Si / 1000 Ang^3
#
#
#
# Elastic Constant Matrix: (Units=GPa)
#
#
# Indices 1 2 3 4 5 6 
#
# 1 64.6753 26.1411 46.2792 0.0000 0.0000 0.0000
# 2 26.1411 50.1920 37.6954 0.0000 0.0000 0.0000
# 3 46.2792 37.6954 107.2780 0.0000 0.0000 0.0000
# 4 0.0000 0.0000 0.0000 11.4395 0.0000 0.0000
# 5 0.0000 0.0000 0.0000 0.0000 21.7050 0.0000
# 6 0.0000 0.0000 0.0000 0.0000 0.0000 27.4955
#
#
#
# Elastic Compliance Matrix: (Units=1/GPa)
#
#
# Indices 1 2 3 4 5 6 
#
# 1 0.023771 -0.006356 -0.008021 0.000000 0.000000 0.000000
# 2 -0.006356 0.028766 -0.007366 0.000000 0.000000 0.000000
# 3 -0.008021 -0.007366 0.015370 0.000000 0.000000 0.000000
# 4 0.000000 0.000000 0.000000 0.087416 0.000000 0.000000
# 5 0.000000 0.000000 0.000000 0.000000 0.046072 0.000000
# 6 0.000000 0.000000 0.000000 0.000000 0.000000 0.036370
#
#
# Mechanical properties :
#
#
# Convention : Reuss Voigt Hill
#
# Bulk Modulus (GPa) = 40.94944 49.15297 45.05121
# Shear Modulus (GPa) = 17.27770 19.59665 18.43718
#
# Velocity S-wave (km/s) = 2.94454 3.13592 3.04173
# Velocity P-wave (km/s) = 5.66654 6.14638 5.91133
#
# Compressibility (1/GPa) = 0.02442036
#
# Stress axis : x y z
#
# Youngs Moduli (GPa) = 42.06893 34.76357 65.06202
#
# Poissons Ratio (x) = 0.22097 0.52186
# Poissons Ratio (y) = 0.26740 0.47923
# Poissons Ratio (z) = 0.33744 0.25606
#
# Static dielectric constant tensor:
#      x y z
#    x 1.740660 0.000000 0.000000 
#    y 0.000000 1.752980 0.000000 
#    z 0.000000 0.000000 1.764170 
# 
# From -- ./inp_files/10360.got.cif
#   From: 2010.05.17/outbox.cif.g08.bks.cpg/sg43_6_cif.got.tgz:10360.got - 2010.06.03 19:21:55.
