data_PCOD9371320
_publ_section_title
;
Structure prediction by ZEFSAII (Michael W. Deem and Ramdas Pophale) SiO2 
 PCOD9371320
Probable space group: F D D 2
;
_chemical_formula_sum "Si O2"
_cell_formula_units_Z 104
_cell_length_a 23.076223
_cell_length_b 8.208004
_cell_length_c 23.367628
_cell_angle_alpha 90.000000
_cell_angle_beta 90.000000
_cell_angle_gamma 90.000000
_cell_volume 4426.056126
_symmetry_space_group_name_H-M "F D D 2"
_symmetry_group_IT_number 43
_symmetry_cell_setting 'orthorhombic'
loop_
_space_group_symop_operation_xyz
x,y,z
-x,-y,z
1/4-x,1/4+y,1/4+z
1/4+x,1/4-y,1/4+z
x,1/2+y,1/2+z
-x,1/2-y,1/2+z
1/4-x,3/4+y,3/4+z
1/4+x,3/4-y,3/4+z
1/2+x,y,1/2+z
1/2-x,-y,1/2+z
3/4-x,1/4+y,3/4+z
3/4+x,1/4-y,3/4+z
1/2+x,1/2+y,z
1/2-x,1/2-y,z
3/4-x,3/4+y,1/4+z
3/4+x,3/4-y,1/4+z
loop_
_atom_site_type_symbol
_atom_site_label
_atom_site_fract_x
_atom_site_fract_y
_atom_site_fract_z
Si Si1 0.062648 0.194482 0.491970
Si Si2 0.681108 0.065349 0.208196
Si Si3 0.500000 0.000000 0.305303
Si Si4 0.664222 0.311664 0.925207
Si Si5 0.878266 0.297029 0.567963
Si Si6 0.154088 0.305147 0.860955
Si Si7 0.230014 0.980963 0.453050
O O1 0.103704 0.316301 0.457817
O O2 0.082444 0.176085 0.558026
O O3 0.996010 0.232859 0.477015
O O4 0.072560 0.009306 0.469652
O O5 0.658155 0.054005 0.143245
O O6 0.639423 0.961070 0.250232
O O7 0.560269 0.951836 0.334141
O O8 0.480448 0.850716 0.264707
O O9 0.656669 0.313628 0.856698
O O10 0.705303 0.461991 0.939831
O O11 0.693786 0.147032 0.947556
O O12 0.908322 0.127348 0.587213
O O13 0.199878 0.357957 0.909058
#
# Coordination Sequence:
#
# PCOD9371320 Si02
#       7
#    16  16   8  16  16  16  16
#     4  10  22  41  68 104 141 180 250 300 379 449
#     4  10  21  44  69 101 137 193 243 303 373 461
#     4  12  24  46  70 104 144 190 240 308 368 466
#     4  11  24  43  65 109 142 182 241 320 362 449
#     4  11  25  41  68 104 141 180 251 299 380 443
#     4  11  21  45  72  96 138 205 241 301 374 469
#     4  11  23  44  71  97 142 188 247 292 375 451
#
# _framework density 23.497216000000002
#
# number of rings (size 3 to 8) (size 9 to 14) (size 15 to 20)
#    0.000    1.231    3.077    2.769    2.154    3.692 
#    0.000    1.538    0.000    0.000    0.000    0.000 
#    0.000    0.000    0.000    0.000    0.000    0.000 
#
# Total GULP energy -145262.044372 kJ/mol
# GULP energy per Si atom -5587.001707 kJ/mol
# Density = 2.344374 g / cm^3
# Si number density = 23.497216 Si / 1000 Ang^3
#
#
#
# Elastic Constant Matrix: (Units=GPa)
#
#
# Indices 1 2 3 4 5 6 
#
# 1 139.4664 22.9059 45.3390 0.0000 0.0000 0.0000
# 2 22.9059 71.6755 21.9858 0.0000 0.0000 0.0000
# 3 45.3390 21.9858 89.0393 0.0000 0.0000 0.0000
# 4 0.0000 0.0000 0.0000 19.7900 0.0000 0.0000
# 5 0.0000 0.0000 0.0000 0.0000 49.6191 0.0000
# 6 0.0000 0.0000 0.0000 0.0000 0.0000 39.4981
#
#
#
# Elastic Compliance Matrix: (Units=1/GPa)
#
#
# Indices 1 2 3 4 5 6 
#
# 1 0.008748 -0.001546 -0.004073 0.000000 0.000000 0.000000
# 2 -0.001546 0.015368 -0.003007 0.000000 0.000000 0.000000
# 3 -0.004073 -0.003007 0.014047 0.000000 0.000000 0.000000
# 4 0.000000 0.000000 0.000000 0.050531 0.000000 0.000000
# 5 0.000000 0.000000 0.000000 0.000000 0.020154 0.000000
# 6 0.000000 0.000000 0.000000 0.000000 0.000000 0.025318
#
#
# Mechanical properties :
#
#
# Convention : Reuss Voigt Hill
#
# Bulk Modulus (GPa) = 47.82181 53.40475 50.61328
# Shear Modulus (GPa) = 31.56781 35.77815 33.67298
#
# Velocity S-wave (km/s) = 3.66931 3.90635 3.78969
# Velocity P-wave (km/s) = 6.19259 6.56686 6.38247
#
# Compressibility (1/GPa) = 0.02091096
#
# Stress axis : x y z
#
# Youngs Moduli (GPa) = 114.30953 65.06836 71.18742
#
# Poissons Ratio (x) = 0.10062 0.28993
# Poissons Ratio (y) = 0.17677 0.21409
# Poissons Ratio (z) = 0.46555 0.19568
#
# Static dielectric constant tensor:
#      x y z
#    x 1.961780 0.000000 0.000000 
#    y 0.000000 1.877620 0.000000 
#    z 0.000000 0.000000 1.924460 
# 
# From -- ./inp_files/18850.got.cif
#   From: 2010.05.17/outbox.cif.g08.bks.cpg/sg43_10_cif.got.tgz:18850.got - 2010.06.03 19:21:55.
