data_PCOD9371248
_publ_section_title
;
Structure prediction by ZEFSAII (Michael W. Deem and Ramdas Pophale) SiO2 
 PCOD9371248
Probable space group: F D D 2
;
_chemical_formula_sum "Si O2"
_cell_formula_units_Z 80
_cell_length_a 10.835404
_cell_length_b 13.232908
_cell_length_c 25.109183
_cell_angle_alpha 90.000000
_cell_angle_beta 90.000000
_cell_angle_gamma 90.000000
_cell_volume 3600.252692
_symmetry_space_group_name_H-M "F D D 2"
_symmetry_group_IT_number 43
_symmetry_cell_setting 'orthorhombic'
loop_
_space_group_symop_operation_xyz
x,y,z
-x,-y,z
1/4-x,1/4+y,1/4+z
1/4+x,1/4-y,1/4+z
x,1/2+y,1/2+z
-x,1/2-y,1/2+z
1/4-x,3/4+y,3/4+z
1/4+x,3/4-y,3/4+z
1/2+x,y,1/2+z
1/2-x,-y,1/2+z
3/4-x,1/4+y,3/4+z
3/4+x,1/4-y,3/4+z
1/2+x,1/2+y,z
1/2-x,1/2-y,z
3/4-x,3/4+y,1/4+z
3/4+x,3/4-y,1/4+z
loop_
_atom_site_type_symbol
_atom_site_label
_atom_site_fract_x
_atom_site_fract_y
_atom_site_fract_z
Si Si1 0.324076 0.647073 0.398680
Si Si2 0.079238 0.735915 0.857089
Si Si3 0.104809 0.274139 0.572470
Si Si4 0.560726 0.304660 0.740312
Si Si5 0.575029 0.347795 0.962924
O O1 0.250000 0.750000 0.391620
O O2 0.460146 0.679548 0.381780
O O3 0.285183 0.555683 0.359443
O O4 0.300769 0.605524 0.458177
O O5 0.164913 0.641879 0.838552
O O6 0.052240 0.802412 0.804326
O O7 0.113580 0.804937 0.906495
O O8 0.250000 0.250000 0.578081
O O9 0.077796 0.265916 0.510037
O O10 0.579601 0.186986 0.726631
O O11 0.685794 0.357547 0.717694
#
# Coordination Sequence:
#
# PCOD9371248 Si02
#       5
#    16  16  16  16  16
#     4  11  22  42  62  94 131 166 216 273 326 392
#     4  10  22  42  64  92 129 167 213 270 325 389
#     4   9  22  40  63  93 128 164 218 266 326 394
#     4  10  23  41  62  97 126 163 222 267 328 397
#     4  10  21  42  65  93 125 171 214 270 328 392
#
# _framework density 22.220662999999998
#
# number of rings (size 3 to 8) (size 9 to 14) (size 15 to 20)
#    0.000    2.000    2.000    0.000    2.800    6.400 
#    7.200    2.000    0.000    0.000    0.000    0.000 
#    0.000    0.000    0.000    0.000    0.000    0.000 
#
# Total GULP energy -111620.102131 kJ/mol
# GULP energy per Si atom -5581.005107 kJ/mol
# Density = 2.217009 g / cm^3
# Si number density = 22.220663 Si / 1000 Ang^3
#
#
#
# Elastic Constant Matrix: (Units=GPa)
#
#
# Indices 1 2 3 4 5 6 
#
# 1 43.4352 2.0336 30.5077 0.0000 0.0000 0.0000
# 2 2.0336 81.0249 75.0296 0.0000 0.0000 0.0000
# 3 30.5077 75.0296 213.3685 0.0000 0.0000 0.0000
# 4 0.0000 0.0000 0.0000 70.3880 0.0000 0.0000
# 5 0.0000 0.0000 0.0000 0.0000 24.5058 0.0000
# 6 0.0000 0.0000 0.0000 0.0000 0.0000 13.2603
#
#
#
# Elastic Compliance Matrix: (Units=1/GPa)
#
#
# Indices 1 2 3 4 5 6 
#
# 1 0.026532 0.004222 -0.005278 0.000000 0.000000 0.000000
# 2 0.004222 0.018973 -0.007275 0.000000 0.000000 0.000000
# 3 -0.005278 -0.007275 0.008000 0.000000 0.000000 0.000000
# 4 0.000000 0.000000 0.000000 0.014207 0.000000 0.000000
# 5 0.000000 0.000000 0.000000 0.000000 0.040807 0.000000
# 6 0.000000 0.000000 0.000000 0.000000 0.000000 0.075413
#
#
# Mechanical properties :
#
#
# Convention : Reuss Voigt Hill
#
# Bulk Modulus (GPa) = 27.14334 61.44117 44.29225
# Shear Modulus (GPa) = 23.48786 36.98133 30.23459
#
# Velocity S-wave (km/s) = 3.25472 4.08398 3.69270
# Velocity P-wave (km/s) = 5.13480 7.06746 6.17718
#
# Compressibility (1/GPa) = 0.03684145
#
# Stress axis : x y z
#
# Youngs Moduli (GPa) = 37.68976 52.70670 125.00423
#
# Poissons Ratio (x) = -0.22251 0.65979
# Poissons Ratio (y) = -0.15911 0.90945
# Poissons Ratio (z) = 0.19893 0.38346
#
# Static dielectric constant tensor:
#      x y z
#    x 1.916870 0.000000 0.000000 
#    y 0.000000 1.685890 0.000000 
#    z 0.000000 0.000000 1.804250 
# 
# From -- ./inp_files/17510.got.cif
#   From: 2010.05.17/outbox.cif.g08.bks.cpg/sg43_9_cif.got.tgz:17510.got - 2010.06.03 19:21:55.
