data_PCOD9371099
_publ_section_title
;
Structure prediction by ZEFSAII (Michael W. Deem and Ramdas Pophale) SiO2 
 PCOD9371099
Probable space group: F D D 2
;
_chemical_formula_sum "Si O2"
_cell_formula_units_Z 64
_cell_length_a 7.235694
_cell_length_b 18.959596
_cell_length_c 17.119053
_cell_angle_alpha 90.000000
_cell_angle_beta 90.000000
_cell_angle_gamma 90.000000
_cell_volume 2348.491581
_symmetry_space_group_name_H-M "F D D 2"
_symmetry_group_IT_number 43
_symmetry_cell_setting 'orthorhombic'
loop_
_space_group_symop_operation_xyz
x,y,z
-x,-y,z
1/4-x,1/4+y,1/4+z
1/4+x,1/4-y,1/4+z
x,1/2+y,1/2+z
-x,1/2-y,1/2+z
1/4-x,3/4+y,3/4+z
1/4+x,3/4-y,3/4+z
1/2+x,y,1/2+z
1/2-x,-y,1/2+z
3/4-x,1/4+y,3/4+z
3/4+x,1/4-y,3/4+z
1/2+x,1/2+y,z
1/2-x,1/2-y,z
3/4-x,3/4+y,1/4+z
3/4+x,3/4-y,1/4+z
loop_
_atom_site_type_symbol
_atom_site_label
_atom_site_fract_x
_atom_site_fract_y
_atom_site_fract_z
Si Si1 0.155596 0.565248 0.093720
Si Si2 0.950951 0.675918 0.507279
Si Si3 0.758007 0.576754 0.073475
Si Si4 0.823040 0.566362 0.764173
O O1 0.251241 0.503298 0.042224
O O2 0.249160 0.582002 0.177321
O O3 0.000000 0.500000 0.123341
O O4 0.966376 0.612887 0.062530
O O5 0.949424 0.670614 0.413063
O O6 0.115759 0.622401 0.526648
O O7 0.026267 0.748012 0.549769
O O8 0.760462 0.637683 0.543743
O O9 0.000000 0.500000 0.745044
#
# Coordination Sequence:
#
# PCOD9371099 Si02
#       4
#    16  16  16  16
#     4  10  21  39  63  92 131 175 224 285 348 412
#     4  10  21  39  63  93 130 175 227 285 347 412
#     4  10  21  39  63  93 130 175 227 285 347 412
#     4  10  21  39  63  92 131 175 224 285 348 412
#
# _framework density 27.251535000000001
#
# number of rings (size 3 to 8) (size 9 to 14) (size 15 to 20)
#    0.000    2.000    0.000    3.000    0.000    6.000 
#    0.000   20.000    0.000    0.000    0.000    0.000 
#    0.000    0.000    0.000    0.000    0.000    0.000 
#
# Total GULP energy -89119.360802 kJ/mol
# GULP energy per Si atom -5569.960050 kJ/mol
# Density = 2.718951 g / cm^3
# Si number density = 27.251535 Si / 1000 Ang^3
#
#
#
# Elastic Constant Matrix: (Units=GPa)
#
#
# Indices 1 2 3 4 5 6 
#
# 1 177.6885 65.5587 28.4378 0.0000 0.0000 0.0000
# 2 65.5587 279.7403 61.3354 0.0000 0.0000 0.0000
# 3 28.4378 61.3354 91.0157 0.0000 0.0000 0.0000
# 4 0.0000 0.0000 0.0000 46.3245 0.0000 0.0000
# 5 0.0000 0.0000 0.0000 0.0000 40.1027 0.0000
# 6 0.0000 0.0000 0.0000 0.0000 0.0000 37.5363
#
#
#
# Elastic Compliance Matrix: (Units=1/GPa)
#
#
# Indices 1 2 3 4 5 6 
#
# 1 0.006259 -0.001218 -0.001135 0.000000 0.000000 0.000000
# 2 -0.001218 0.004432 -0.002606 0.000000 0.000000 0.000000
# 3 -0.001135 -0.002606 0.013098 0.000000 0.000000 0.000000
# 4 0.000000 0.000000 0.000000 0.021587 0.000000 0.000000
# 5 0.000000 0.000000 0.000000 0.000000 0.024936 0.000000
# 6 0.000000 0.000000 0.000000 0.000000 0.000000 0.026641
#
#
# Mechanical properties :
#
#
# Convention : Reuss Voigt Hill
#
# Bulk Modulus (GPa) = 72.09332 95.45649 83.77490
# Shear Modulus (GPa) = 44.84601 51.00021 47.92311
#
# Velocity S-wave (km/s) = 4.06104 4.33073 4.19805
# Velocity P-wave (km/s) = 6.96431 7.75313 7.36928
#
# Compressibility (1/GPa) = 0.01387091
#
# Stress axis : x y z
#
# Youngs Moduli (GPa) = 159.77464 225.65518 76.34892
#
# Poissons Ratio (x) = 0.27484 0.08664
# Poissons Ratio (y) = 0.19460 0.19895
# Poissons Ratio (z) = 0.18131 0.58802
#
# Static dielectric constant tensor:
#      x y z
#    x 6.436740 0.000000 0.000000 
#    y 0.000000 6.143650 0.000000 
#    z 0.000000 0.000000 1.932000 
# 
# From -- ./inp_files/12493.got.cif
#   From: 2010.05.17/outbox.cif.g08.bks.cpg/sg43_7_cif.got.tgz:12493.got - 2010.06.03 19:21:55.
