data_PCOD9371553
_publ_section_title
;
Structure prediction by ZEFSAII (Michael W. Deem and Ramdas Pophale) SiO2 
 PCOD9371553
Probable space group: F D D 2
;
_chemical_formula_sum "Si O2"
_cell_formula_units_Z 72
_cell_length_a 5.775878
_cell_length_b 31.036273
_cell_length_c 18.595463
_cell_angle_alpha 90.000000
_cell_angle_beta 90.000000
_cell_angle_gamma 90.000000
_cell_volume 3333.454801
_symmetry_space_group_name_H-M "F D D 2"
_symmetry_group_IT_number 43
_symmetry_cell_setting 'orthorhombic'
loop_
_space_group_symop_operation_xyz
x,y,z
-x,-y,z
1/4-x,1/4+y,1/4+z
1/4+x,1/4-y,1/4+z
x,1/2+y,1/2+z
-x,1/2-y,1/2+z
1/4-x,3/4+y,3/4+z
1/4+x,3/4-y,3/4+z
1/2+x,y,1/2+z
1/2-x,-y,1/2+z
3/4-x,1/4+y,3/4+z
3/4+x,1/4-y,3/4+z
1/2+x,1/2+y,z
1/2-x,1/2-y,z
3/4-x,3/4+y,1/4+z
3/4+x,3/4-y,1/4+z
loop_
_atom_site_type_symbol
_atom_site_label
_atom_site_fract_x
_atom_site_fract_y
_atom_site_fract_z
Si Si1 0.542854 0.188543 0.883990
Si Si2 0.718706 0.611483 0.876260
Si Si3 0.242684 0.476697 0.792641
Si Si4 0.500000 0.500000 0.532722
Si Si5 0.690907 0.575848 0.022308
O O1 0.446846 0.139899 0.893354
O O2 0.374736 0.216552 0.834704
O O3 0.770310 0.188613 0.835499
O O4 0.546832 0.211477 0.960429
O O5 0.753998 0.565833 0.840326
O O6 0.593251 0.639813 0.815965
O O7 0.594180 0.601277 0.952647
O O8 0.500000 0.500000 0.797737
O O9 0.000000 0.500000 0.812582
O O10 0.321607 0.532521 0.494132
#
# Coordination Sequence:
#
# PCOD9371553 Si02
#       5
#    16  16  16   8  16
#     4  11  24  45  73 103 143 197 244 305 376 450
#     4  11  27  45  69 109 144 194 248 314 375 448
#     4  12  28  49  79 112 156 199 255 314 381 451
#     4  10  22  42  66 100 132 182 244 298 368 438
#     4  11  25  43  72  98 148 187 254 301 383 440
#
# _framework density 21.599212000000001
#
# number of rings (size 3 to 8) (size 9 to 14) (size 15 to 20)
#    0.000    0.889    3.333    2.000   10.889    1.778 
#    0.000    0.000    0.000    0.000    0.000    0.000 
#    0.000    0.000    0.000    0.000    0.000    0.000 
#
# Total GULP energy -100304.050704 kJ/mol
# GULP energy per Si atom -5572.447261 kJ/mol
# Density = 2.155005 g / cm^3
# Si number density = 21.599212 Si / 1000 Ang^3
#
#
#
# Elastic Constant Matrix: (Units=GPa)
#
#
# Indices 1 2 3 4 5 6 
#
# 1 94.2461 68.6910 8.3558 0.0000 0.0000 0.0000
# 2 68.6910 155.6852 35.0453 0.0000 0.0000 0.0000
# 3 8.3558 35.0453 36.8213 0.0000 0.0000 0.0000
# 4 0.0000 0.0000 0.0000 43.6430 0.0000 0.0000
# 5 0.0000 0.0000 0.0000 0.0000 6.7227 0.0000
# 6 0.0000 0.0000 0.0000 0.0000 0.0000 19.9244
#
#
#
# Elastic Compliance Matrix: (Units=1/GPa)
#
#
# Indices 1 2 3 4 5 6 
#
# 1 0.016079 -0.007983 0.003950 0.000000 0.000000 0.000000
# 2 -0.007983 0.012138 -0.009741 0.000000 0.000000 0.000000
# 3 0.003950 -0.009741 0.035533 0.000000 0.000000 0.000000
# 4 0.000000 0.000000 0.000000 0.022913 0.000000 0.000000
# 5 0.000000 0.000000 0.000000 0.000000 0.148749 0.000000
# 6 0.000000 0.000000 0.000000 0.000000 0.000000 0.050190
#
#
# Mechanical properties :
#
#
# Convention : Reuss Voigt Hill
#
# Bulk Modulus (GPa) = 27.62395 56.77076 42.19735
# Shear Modulus (GPa) = 15.37422 25.70206 20.53814
#
# Velocity S-wave (km/s) = 2.67084 3.45331 3.08697
# Velocity P-wave (km/s) = 4.72528 6.49933 5.68197
#
# Compressibility (1/GPa) = 0.03620048
#
# Stress axis : x y z
#
# Youngs Moduli (GPa) = 62.19287 82.38302 28.14260
#
# Poissons Ratio (x) = 0.65770 -0.11115
# Poissons Ratio (y) = 0.49651 0.27414
# Poissons Ratio (z) = -0.24563 0.80252
#
# Static dielectric constant tensor:
#      x y z
#    x 1.845360 0.000000 0.000000 
#    y 0.000000 1.793870 0.000000 
#    z 0.000000 0.000000 1.800460 
# 
# From -- ./inp_files/15657.got.cif
#   From: 2010.05.17/outbox.cif.g08.bks.cpg/sg43_8_cif.got.tgz:15657.got - 2010.06.03 19:21:55.
