data_PCOD9371152
_publ_section_title
;
Structure prediction by ZEFSAII (Michael W. Deem and Ramdas Pophale) SiO2 
 PCOD9371152
Probable space group: F D D 2
;
_chemical_formula_sum "Si O2"
_cell_formula_units_Z 80
_cell_length_a 23.234113
_cell_length_b 12.260057
_cell_length_c 13.531901
_cell_angle_alpha 90.000000
_cell_angle_beta 90.000000
_cell_angle_gamma 90.000000
_cell_volume 3854.582971
_symmetry_space_group_name_H-M "F D D 2"
_symmetry_group_IT_number 43
_symmetry_cell_setting 'orthorhombic'
loop_
_space_group_symop_operation_xyz
x,y,z
-x,-y,z
1/4-x,1/4+y,1/4+z
1/4+x,1/4-y,1/4+z
x,1/2+y,1/2+z
-x,1/2-y,1/2+z
1/4-x,3/4+y,3/4+z
1/4+x,3/4-y,3/4+z
1/2+x,y,1/2+z
1/2-x,-y,1/2+z
3/4-x,1/4+y,3/4+z
3/4+x,1/4-y,3/4+z
1/2+x,1/2+y,z
1/2-x,1/2-y,z
3/4-x,3/4+y,1/4+z
3/4+x,3/4-y,1/4+z
loop_
_atom_site_type_symbol
_atom_site_label
_atom_site_fract_x
_atom_site_fract_y
_atom_site_fract_z
Si Si1 0.299195 0.394711 0.081040
Si Si2 0.062314 0.506370 0.141616
Si Si3 0.187330 0.203563 0.484094
Si Si4 0.867456 0.840397 0.278367
Si Si5 0.324742 0.048689 0.031482
O O1 0.329649 0.505293 0.040255
O O2 0.332228 0.347054 0.176074
O O3 0.230884 0.413492 0.095212
O O4 0.305986 0.310389 0.992563
O O5 0.113028 0.448080 0.082196
O O6 0.073909 0.628954 0.181348
O O7 0.000000 0.500000 0.089255
O O8 0.250000 0.250000 0.501124
O O9 0.173126 0.196813 0.367562
O O10 0.143532 0.287730 0.535915
O O11 0.183465 0.079580 0.516666
#
# Coordination Sequence:
#
# PCOD9371152 Si02
#       5
#    16  16  16  16  16
#     4  10  21  40  65  91 126 161 213 260 314 378
#     4  10  23  41  64  90 125 162 208 264 313 378
#     4  11  22  40  63  89 129 162 207 261 310 376
#     4  10  22  39  62  93 121 164 208 256 320 370
#     4  11  22  43  61  92 125 165 210 259 317 378
#
# _framework density 20.754515999999999
#
# number of rings (size 3 to 8) (size 9 to 14) (size 15 to 20)
#    0.000    1.600    2.000    2.400    0.000    5.600 
#   14.400    0.000    0.000    0.000    0.000    0.000 
#    0.000    0.000    0.000    0.000    0.000    0.000 
#
# Total GULP energy -111596.406302 kJ/mol
# GULP energy per Si atom -5579.820315 kJ/mol
# Density = 2.070728 g / cm^3
# Si number density = 20.754516 Si / 1000 Ang^3
#
#
#
# Elastic Constant Matrix: (Units=GPa)
#
#
# Indices 1 2 3 4 5 6 
#
# 1 146.9253 4.6090 26.9006 0.0000 0.0000 0.0000
# 2 4.6090 93.8678 2.7290 0.0000 0.0000 0.0000
# 3 26.9006 2.7290 17.1690 0.0000 0.0000 0.0000
# 4 0.0000 0.0000 0.0000 29.3349 0.0000 0.0000
# 5 0.0000 0.0000 0.0000 0.0000 26.5606 0.0000
# 6 0.0000 0.0000 0.0000 0.0000 0.0000 33.4097
#
#
#
# Elastic Compliance Matrix: (Units=1/GPa)
#
#
# Indices 1 2 3 4 5 6 
#
# 1 0.009544 -0.000034 -0.014948 0.000000 0.000000 0.000000
# 2 -0.000034 0.010703 -0.001648 0.000000 0.000000 0.000000
# 3 -0.014948 -0.001648 0.081928 0.000000 0.000000 0.000000
# 4 0.000000 0.000000 0.000000 0.034089 0.000000 0.000000
# 5 0.000000 0.000000 0.000000 0.000000 0.037650 0.000000
# 6 0.000000 0.000000 0.000000 0.000000 0.000000 0.029931
#
#
# Mechanical properties :
#
#
# Convention : Reuss Voigt Hill
#
# Bulk Modulus (GPa) = 14.51085 36.27102 25.39094
# Shear Modulus (GPa) = 19.22507 32.77594 26.00050
#
# Velocity S-wave (km/s) = 3.04683 3.97825 3.54328
# Velocity P-wave (km/s) = 4.40277 6.21419 5.38519
#
# Compressibility (1/GPa) = 0.06891393
#
# Stress axis : x y z
#
# Youngs Moduli (GPa) = 104.77603 93.43293 12.20588
#
# Poissons Ratio (x) = 0.00318 0.18246
# Poissons Ratio (y) = 0.00357 0.02011
# Poissons Ratio (z) = 1.56624 0.15397
#
# Static dielectric constant tensor:
#      x y z
#    x 1.798940 0.000000 0.000000 
#    y 0.000000 1.771170 0.000000 
#    z 0.000000 0.000000 1.729550 
# 
# From -- ./inp_files/9522.got.cif
#   From: 2010.05.17/outbox.cif.g08.bks.cpg/sg43_5_cif.got.tgz:9522.got - 2010.06.03 19:21:55.
