data_PCOD9371418
_publ_section_title
;
Structure prediction by ZEFSAII (Michael W. Deem and Ramdas Pophale) SiO2 
 PCOD9371418
Probable space group: F D D 2
;
_chemical_formula_sum "Si O2"
_cell_formula_units_Z 96
_cell_length_a 20.948662
_cell_length_b 13.928082
_cell_length_c 13.677656
_cell_angle_alpha 90.000000
_cell_angle_beta 90.000000
_cell_angle_gamma 90.000000
_cell_volume 3990.793732
_symmetry_space_group_name_H-M "F D D 2"
_symmetry_group_IT_number 43
_symmetry_cell_setting 'orthorhombic'
loop_
_space_group_symop_operation_xyz
x,y,z
-x,-y,z
1/4-x,1/4+y,1/4+z
1/4+x,1/4-y,1/4+z
x,1/2+y,1/2+z
-x,1/2-y,1/2+z
1/4-x,3/4+y,3/4+z
1/4+x,3/4-y,3/4+z
1/2+x,y,1/2+z
1/2-x,-y,1/2+z
3/4-x,1/4+y,3/4+z
3/4+x,1/4-y,3/4+z
1/2+x,1/2+y,z
1/2-x,1/2-y,z
3/4-x,3/4+y,1/4+z
3/4+x,3/4-y,1/4+z
loop_
_atom_site_type_symbol
_atom_site_label
_atom_site_fract_x
_atom_site_fract_y
_atom_site_fract_z
Si Si1 0.495302 0.347369 0.658640
Si Si2 0.301258 0.824651 0.609158
Si Si3 0.180159 0.923401 0.936728
Si Si4 0.636833 0.492378 0.149358
Si Si5 0.802496 0.830289 0.710870
Si Si6 0.374603 0.421563 0.558250
O O1 0.531239 0.395384 0.750058
O O2 0.504735 0.232807 0.674850
O O3 0.529277 0.366420 0.556186
O O4 0.430079 0.404670 0.639096
O O5 0.250000 0.750000 0.647969
O O6 0.372947 0.783642 0.618193
O O7 0.308462 0.926253 0.665288
O O8 0.175761 0.811582 0.906922
O O9 0.152679 0.942640 0.046106
O O10 0.633269 0.414863 0.232780
O O11 0.750000 0.750000 0.683397
O O12 0.863151 0.767999 0.748806
O O13 0.812367 0.901827 0.621487
#
# Coordination Sequence:
#
# PCOD9371418 Si02
#       6
#    16  16  16  16  16  16
#     4  10  22  39  63  95 119 164 220 269 310 388
#     4   9  19  36  58  85 121 152 206 274 306 365
#     4   9  20  37  58  87 120 158 206 264 317 369
#     4   9  20  37  58  84 123 161 199 262 317 385
#     4  10  24  42  65  94 127 170 213 268 318 387
#     4  11  22  43  62  89 133 166 216 259 326 377
#
# _framework density 24.055364999999998
#
# number of rings (size 3 to 8) (size 9 to 14) (size 15 to 20)
#    1.000    1.333    0.000    2.500    4.667    1.333 
#   15.000    0.833    0.000    0.000    0.000    0.000 
#    0.000    0.000    0.000    0.000    0.000    0.000 
#
# Total GULP energy -133842.741752 kJ/mol
# GULP energy per Si atom -5576.780906 kJ/mol
# Density = 2.400061 g / cm^3
# Si number density = 24.055365 Si / 1000 Ang^3
#
#
#
# Elastic Constant Matrix: (Units=GPa)
#
#
# Indices 1 2 3 4 5 6 
#
# 1 10.4365 8.9286 -7.3121 0.0000 0.0000 0.0000
# 2 8.9286 55.4083 22.5469 0.0000 0.0000 0.0000
# 3 -7.3121 22.5469 41.5385 0.0000 0.0000 0.0000
# 4 0.0000 0.0000 0.0000 19.9355 0.0000 0.0000
# 5 0.0000 0.0000 0.0000 0.0000 27.3773 0.0000
# 6 0.0000 0.0000 0.0000 0.0000 0.0000 38.2470
#
#
#
# Elastic Compliance Matrix: (Units=1/GPa)
#
#
# Indices 1 2 3 4 5 6 
#
# 1 0.188821 -0.056413 0.063859 0.000000 0.000000 0.000000
# 2 -0.056413 0.040018 -0.031652 0.000000 0.000000 0.000000
# 3 0.063859 -0.031652 0.052496 0.000000 0.000000 0.000000
# 4 0.000000 0.000000 0.000000 0.050162 0.000000 0.000000
# 5 0.000000 0.000000 0.000000 0.000000 0.036527 0.000000
# 6 0.000000 0.000000 0.000000 0.000000 0.000000 0.026146
#
#
# Mechanical properties :
#
#
# Convention : Reuss Voigt Hill
#
# Bulk Modulus (GPa) = 4.29326 17.30113 10.79720
# Shear Modulus (GPa) = 9.61127 22.65994 16.13561
#
# Velocity S-wave (km/s) = 2.00104 3.07252 2.59273
# Velocity P-wave (km/s) = 2.66973 4.44915 3.66895
#
# Compressibility (1/GPa) = 0.23292329
#
# Stress axis : x y z
#
# Youngs Moduli (GPa) = 5.29603 24.98848 19.04903
#
# Poissons Ratio (x) = 1.40967 -1.21646
# Poissons Ratio (y) = 0.29876 0.60295
# Poissons Ratio (z) = -0.33820 0.79094
#
# Static dielectric constant tensor:
#      x y z
#    x 2.089720 0.000000 0.000000 
#    y 0.000000 1.930420 0.000000 
#    z 0.000000 0.000000 1.845830 
# 
# From -- ./inp_files/10917.got.cif
#   From: 2010.05.17/outbox.cif.g08.bks.cpg/sg43_6_cif.got.tgz:10917.got - 2010.06.03 19:21:55.
