data_PCOD9371586
_publ_section_title
;
Structure prediction by ZEFSAII (Michael W. Deem and Ramdas Pophale) SiO2 
 PCOD9371586
Probable space group: F D D 2
;
_chemical_formula_sum "Si O2"
_cell_formula_units_Z 80
_cell_length_a 24.851361
_cell_length_b 11.144547
_cell_length_c 11.898499
_cell_angle_alpha 90.000000
_cell_angle_beta 90.000000
_cell_angle_gamma 90.000000
_cell_volume 3295.374499
_symmetry_space_group_name_H-M "F D D 2"
_symmetry_group_IT_number 43
_symmetry_cell_setting 'orthorhombic'
loop_
_space_group_symop_operation_xyz
x,y,z
-x,-y,z
1/4-x,1/4+y,1/4+z
1/4+x,1/4-y,1/4+z
x,1/2+y,1/2+z
-x,1/2-y,1/2+z
1/4-x,3/4+y,3/4+z
1/4+x,3/4-y,3/4+z
1/2+x,y,1/2+z
1/2-x,-y,1/2+z
3/4-x,1/4+y,3/4+z
3/4+x,1/4-y,3/4+z
1/2+x,1/2+y,z
1/2-x,1/2-y,z
3/4-x,3/4+y,1/4+z
3/4+x,3/4-y,1/4+z
loop_
_atom_site_type_symbol
_atom_site_label
_atom_site_fract_x
_atom_site_fract_y
_atom_site_fract_z
Si Si1 0.814358 0.143860 0.447520
Si Si2 0.339834 0.290782 0.564004
Si Si3 0.941536 0.664196 0.139228
Si Si4 0.422160 0.779350 0.869081
Si Si5 0.289830 0.024026 0.155773
O O1 0.860577 0.062189 0.398324
O O2 0.824229 0.274257 0.393533
O O3 0.755924 0.096896 0.410093
O O4 0.811940 0.135754 0.583201
O O5 0.369054 0.271665 0.444733
O O6 0.312781 0.169278 0.605491
O O7 0.303150 0.407954 0.577180
O O8 0.914771 0.727444 0.245117
O O9 0.934664 0.738162 0.024870
O O10 0.475378 0.715512 0.918740
#
# Coordination Sequence:
#
# PCOD9371586 Si02
#       5
#    16  16  16  16  16
#     4  10  22  42  70 100 129 183 236 278 342 429
#     4  12  22  43  67  97 137 179 233 282 348 428
#     4  10  23  44  69  98 142 178 231 296 348 411
#     4  11  25  43  67 103 139 177 234 293 352 421
#     4  11  23  43  73  99 134 187 232 284 353 423
#
# _framework density 24.276454000000001
#
# number of rings (size 3 to 8) (size 9 to 14) (size 15 to 20)
#    0.000    1.200    4.000    1.800    2.800    1.600 
#    3.600    0.000    8.800    0.000    0.000    0.000 
#    0.000    0.000    0.000    0.000    0.000    0.000 
#
# Total GULP energy -111927.681044 kJ/mol
# GULP energy per Si atom -5596.384052 kJ/mol
# Density = 2.422120 g / cm^3
# Si number density = 24.276454 Si / 1000 Ang^3
#
#
#
# Elastic Constant Matrix: (Units=GPa)
#
#
# Indices 1 2 3 4 5 6 
#
# 1 82.9427 -3.9204 18.8101 0.0000 0.0000 0.0000
# 2 -3.9204 35.2498 11.1857 0.0000 0.0000 0.0000
# 3 18.8101 11.1857 163.8682 0.0000 0.0000 0.0000
# 4 0.0000 0.0000 0.0000 35.6462 0.0000 0.0000
# 5 0.0000 0.0000 0.0000 0.0000 31.5339 0.0000
# 6 0.0000 0.0000 0.0000 0.0000 0.0000 34.0382
#
#
#
# Elastic Compliance Matrix: (Units=1/GPa)
#
#
# Indices 1 2 3 4 5 6 
#
# 1 0.012500 0.001886 -0.001564 0.000000 0.000000 0.000000
# 2 0.001886 0.029282 -0.002215 0.000000 0.000000 0.000000
# 3 -0.001564 -0.002215 0.006433 0.000000 0.000000 0.000000
# 4 0.000000 0.000000 0.000000 0.028053 0.000000 0.000000
# 5 0.000000 0.000000 0.000000 0.000000 0.031712 0.000000
# 6 0.000000 0.000000 0.000000 0.000000 0.000000 0.029379
#
#
# Mechanical properties :
#
#
# Convention : Reuss Voigt Hill
#
# Bulk Modulus (GPa) = 22.50726 37.13462 29.82094
# Shear Modulus (GPa) = 32.06063 37.30933 34.68498
#
# Velocity S-wave (km/s) = 3.63801 3.92452 3.78398
# Velocity P-wave (km/s) = 5.19020 5.98879 5.60374
#
# Compressibility (1/GPa) = 0.04443011
#
# Stress axis : x y z
#
# Youngs Moduli (GPa) = 79.99817 34.15098 155.44425
#
# Poissons Ratio (x) = -0.06442 0.24306
# Poissons Ratio (y) = -0.15091 0.34436
# Poissons Ratio (z) = 0.12509 0.07566
#
# Static dielectric constant tensor:
#      x y z
#    x 1.920680 0.000000 0.000000 
#    y 0.000000 1.923710 0.000000 
#    z 0.000000 0.000000 1.971440 
# 
# From -- ./inp_files/5679.got.cif
#   From: 2010.05.17/outbox.cif.g08.bks.cpg/sg43_3_cif.got.tgz:5679.got - 2010.06.03 19:21:55.
