data_PCOD9371391
_publ_section_title
;
Structure prediction by ZEFSAII (Michael W. Deem and Ramdas Pophale) SiO2 
 PCOD9371391
Probable space group: F D D 2
;
_chemical_formula_sum "Si O2"
_cell_formula_units_Z 120
_cell_length_a 22.369757
_cell_length_b 21.178121
_cell_length_c 12.457393
_cell_angle_alpha 90.000000
_cell_angle_beta 90.000000
_cell_angle_gamma 90.000000
_cell_volume 5901.682715
_symmetry_space_group_name_H-M "F D D 2"
_symmetry_group_IT_number 43
_symmetry_cell_setting 'orthorhombic'
loop_
_space_group_symop_operation_xyz
x,y,z
-x,-y,z
1/4-x,1/4+y,1/4+z
1/4+x,1/4-y,1/4+z
x,1/2+y,1/2+z
-x,1/2-y,1/2+z
1/4-x,3/4+y,3/4+z
1/4+x,3/4-y,3/4+z
1/2+x,y,1/2+z
1/2-x,-y,1/2+z
3/4-x,1/4+y,3/4+z
3/4+x,1/4-y,3/4+z
1/2+x,1/2+y,z
1/2-x,1/2-y,z
3/4-x,3/4+y,1/4+z
3/4+x,3/4-y,1/4+z
loop_
_atom_site_type_symbol
_atom_site_label
_atom_site_fract_x
_atom_site_fract_y
_atom_site_fract_z
Si Si1 0.202920 0.198481 0.466770
Si Si2 0.928926 0.788389 0.825573
Si Si3 0.078881 0.565550 0.321452
Si Si4 0.680875 0.425281 0.248034
Si Si5 0.549550 0.251227 0.566107
Si Si6 0.481368 0.319220 0.263426
Si Si7 0.000000 0.500000 0.502628
Si Si8 0.439336 0.967877 0.080214
O O1 0.250000 0.250000 0.511978
O O2 0.135250 0.204903 0.507410
O O3 0.226246 0.129123 0.495760
O O4 0.209883 0.209706 0.337471
O O5 0.933458 0.861296 0.800013
O O6 0.980495 0.744178 0.780413
O O7 0.866402 0.758634 0.789669
O O8 0.934309 0.780233 0.953240
O O9 0.149498 0.553234 0.339654
O O10 0.062413 0.530835 0.210408
O O11 0.041583 0.540746 0.423282
O O12 0.734521 0.466445 0.299761
O O13 0.693973 0.420613 0.120804
O O14 0.682671 0.354607 0.294713
O O15 0.553761 0.197189 0.655741
O O16 0.500000 0.000000 0.042494
#
# Coordination Sequence:
#
# PCOD9371391 Si02
#       8
#    16  16  16  16  16  16   8  16
#     4  10  24  43  68 102 135 184 234 285 350 419
#     4  10  22  38  64  92 132 172 220 281 337 407
#     4  11  21  42  66  99 134 174 230 289 342 415
#     4  11  23  43  67  96 140 178 230 289 344 418
#     4  10  23  39  65  93 133 179 227 277 351 410
#     4  11  22  44  62  99 135 180 225 284 345 409
#     4  10  22  42  70 100 140 180 240 286 352 416
#     4  11  22  40  64  99 127 176 221 276 350 405
#
# _framework density 20.333183999999999
#
# number of rings (size 3 to 8) (size 9 to 14) (size 15 to 20)
#    0.400    1.067    2.000    3.200    0.000    1.600 
#    4.800    1.333    0.000    0.000    0.000    0.000 
#    0.000    0.000    0.000    0.000    0.000    0.000 
#
# Total GULP energy -167499.315958 kJ/mol
# GULP energy per Si atom -5583.310532 kJ/mol
# Density = 2.028690 g / cm^3
# Si number density = 20.333184 Si / 1000 Ang^3
#
#
#
# Elastic Constant Matrix: (Units=GPa)
#
#
# Indices 1 2 3 4 5 6 
#
# 1 125.1381 35.1052 20.5912 0.0000 0.0000 0.0000
# 2 35.1052 64.6290 6.1117 0.0000 0.0000 0.0000
# 3 20.5912 6.1117 82.7285 0.0000 0.0000 0.0000
# 4 0.0000 0.0000 0.0000 41.4955 0.0000 0.0000
# 5 0.0000 0.0000 0.0000 0.0000 18.7539 0.0000
# 6 0.0000 0.0000 0.0000 0.0000 0.0000 35.5199
#
#
#
# Elastic Compliance Matrix: (Units=1/GPa)
#
#
# Indices 1 2 3 4 5 6 
#
# 1 0.009762 -0.005108 -0.002052 0.000000 0.000000 0.000000
# 2 -0.005108 0.018255 -0.000077 0.000000 0.000000 0.000000
# 3 -0.002052 -0.000077 0.012604 0.000000 0.000000 0.000000
# 4 0.000000 0.000000 0.000000 0.024099 0.000000 0.000000
# 5 0.000000 0.000000 0.000000 0.000000 0.053322 0.000000
# 6 0.000000 0.000000 0.000000 0.000000 0.000000 0.028153
#
#
# Mechanical properties :
#
#
# Convention : Reuss Voigt Hill
#
# Bulk Modulus (GPa) = 38.24760 44.01240 41.13000
# Shear Modulus (GPa) = 29.51828 33.19970 31.35899
#
# Velocity S-wave (km/s) = 3.81429 4.04516 3.93142
# Velocity P-wave (km/s) = 6.18463 6.59623 6.39375
#
# Compressibility (1/GPa) = 0.02614543
#
# Stress axis : x y z
#
# Youngs Moduli (GPa) = 102.43847 54.77942 79.33822
#
# Poissons Ratio (x) = 0.27984 0.16283
# Poissons Ratio (y) = 0.52330 0.00612
# Poissons Ratio (z) = 0.21024 0.00422
#
# Static dielectric constant tensor:
#      x y z
#    x 1.720910 0.000000 0.000000 
#    y 0.000000 1.656490 0.000000 
#    z 0.000000 0.000000 1.738580 
# 
# From -- ./inp_files/7628.got.cif
#   From: 2010.05.17/outbox.cif.g08.bks.cpg/sg43_4_cif.got.tgz:7628.got - 2010.06.03 19:21:55.
