data_PCOD9371735
_publ_section_title
;
Structure prediction by ZEFSAII (Michael W. Deem and Ramdas Pophale) SiO2 
 PCOD9371735
Probable space group: F D D 2
;
_chemical_formula_sum "Si O2"
_cell_formula_units_Z 88
_cell_length_a 32.131814
_cell_length_b 19.086520
_cell_length_c 5.461578
_cell_angle_alpha 90.000000
_cell_angle_beta 90.000000
_cell_angle_gamma 90.000000
_cell_volume 3349.501191
_symmetry_space_group_name_H-M "F D D 2"
_symmetry_group_IT_number 43
_symmetry_cell_setting 'orthorhombic'
loop_
_space_group_symop_operation_xyz
x,y,z
-x,-y,z
1/4-x,1/4+y,1/4+z
1/4+x,1/4-y,1/4+z
x,1/2+y,1/2+z
-x,1/2-y,1/2+z
1/4-x,3/4+y,3/4+z
1/4+x,3/4-y,3/4+z
1/2+x,y,1/2+z
1/2-x,-y,1/2+z
3/4-x,1/4+y,3/4+z
3/4+x,1/4-y,3/4+z
1/2+x,1/2+y,z
1/2-x,1/2-y,z
3/4-x,3/4+y,1/4+z
3/4+x,3/4-y,1/4+z
loop_
_atom_site_type_symbol
_atom_site_label
_atom_site_fract_x
_atom_site_fract_y
_atom_site_fract_z
Si Si1 0.867049 0.696931 0.621430
Si Si2 0.704935 0.862214 0.923445
Si Si3 0.000000 0.500000 0.504375
Si Si4 0.231039 0.472703 0.577430
Si Si5 0.332995 0.820549 0.879624
Si Si6 0.095284 0.180172 0.062114
O O1 0.834564 0.680121 0.831773
O O2 0.909315 0.653335 0.673990
O O3 0.862771 0.777838 0.563726
O O4 0.846705 0.651219 0.400796
O O5 0.730797 0.895165 0.697939
O O6 0.733315 0.813143 0.086580
O O7 0.683136 0.925237 0.074074
O O8 0.961635 0.535460 0.646722
O O9 0.255298 0.482628 0.318270
O O10 0.182730 0.479588 0.489847
O O11 0.356288 0.804926 0.618785
#
# Coordination Sequence:
#
# PCOD9371735 Si02
#       6
#    16  16   8  16  16  16
#     4   9  22  44  67 101 145 205 257 314 395 478
#     4  11  23  45  71 103 158 199 251 333 389 467
#     4  12  24  44  76 108 152 200 268 334 392 470
#     4  11  22  42  73 109 149 197 258 319 384 471
#     4  10  22  45  72 103 151 203 263 322 397 474
#     4   9  21  44  67  97 154 197 242 323 388 473
#
# _framework density 26.272566999999999
#
# number of rings (size 3 to 8) (size 9 to 14) (size 15 to 20)
#    1.091    0.727    3.636    0.000    0.000    3.636 
#    0.000    1.818    0.000    0.000    0.000    0.000 
#    0.000    0.000    0.000    0.000    0.000    0.000 
#
# Total GULP energy -122491.603206 kJ/mol
# GULP energy per Si atom -5567.800146 kJ/mol
# Density = 2.621277 g / cm^3
# Si number density = 26.272567 Si / 1000 Ang^3
#
#
#
# Elastic Constant Matrix: (Units=GPa)
#
#
# Indices 1 2 3 4 5 6 
#
# 1 125.6178 37.8843 21.2753 -0.0002 -0.0002 -0.0002
# 2 37.8843 91.5877 34.2419 0.0002 0.0006 0.0005
# 3 21.2753 34.2419 95.0162 0.0004 0.0014 0.0007
# 4 -0.0002 0.0002 0.0004 24.9237 0.0005 0.0004
# 5 -0.0002 0.0006 0.0014 0.0005 40.0227 0.0000
# 6 -0.0002 0.0005 0.0007 0.0004 0.0000 44.8805
#
#
#
# Elastic Compliance Matrix: (Units=1/GPa)
#
#
# Indices 1 2 3 4 5 6 
#
# 1 0.009146 -0.003488 -0.000791 0.000000 0.000000 0.000000
# 2 -0.003488 0.013948 -0.004246 0.000000 0.000000 0.000000
# 3 -0.000791 -0.004246 0.012232 0.000000 0.000000 0.000000
# 4 0.000000 0.000000 0.000000 0.040122 0.000000 0.000000
# 5 0.000000 0.000000 0.000000 0.000000 0.024986 0.000000
# 6 0.000000 0.000000 0.000000 0.000000 0.000000 0.022281
#
#
# Mechanical properties :
#
#
# Convention : Reuss Voigt Hill
#
# Bulk Modulus (GPa) = 54.71174 55.44719 55.07947
# Shear Modulus (GPa) = 34.27993 36.55341 35.41667
#
# Velocity S-wave (km/s) = 3.61609 3.73408 3.67556
# Velocity P-wave (km/s) = 6.18908 6.30409 6.24685
#
# Compressibility (1/GPa) = 0.01827761
#
# Stress axis : x y z
#
# Youngs Moduli (GPa) = 109.33226 71.69237 81.75419
#
# Poissons Ratio (x) = 0.25003 0.06468
# Poissons Ratio (y) = 0.38130 0.34712
# Poissons Ratio (z) = 0.08650 0.30440
#
# Static dielectric constant tensor:
#      x y z
#    x 2.051220 0.000000 0.000000 
#    y 0.000000 2.113320 0.000000 
#    z 0.000000 0.000000 2.166380 
# 
# From -- ./inp_files/1451.got.cif
#   From: 2010.05.17/outbox.cif.g08.bks.cpg/sg43_1_cif.got.tgz:1451.got - 2010.06.03 19:21:55.
