data_PCOD9371765
_publ_section_title
;
Structure prediction by ZEFSAII (Michael W. Deem and Ramdas Pophale) SiO2 
 PCOD9371765
Probable space group: F D D 2
;
_chemical_formula_sum "Si O2"
_cell_formula_units_Z 96
_cell_length_a 10.959192
_cell_length_b 21.423519
_cell_length_c 19.075895
_cell_angle_alpha 90.000000
_cell_angle_beta 90.000000
_cell_angle_gamma 90.000000
_cell_volume 4478.723669
_symmetry_space_group_name_H-M "F D D 2"
_symmetry_group_IT_number 43
_symmetry_cell_setting 'orthorhombic'
loop_
_space_group_symop_operation_xyz
x,y,z
-x,-y,z
1/4-x,1/4+y,1/4+z
1/4+x,1/4-y,1/4+z
x,1/2+y,1/2+z
-x,1/2-y,1/2+z
1/4-x,3/4+y,3/4+z
1/4+x,3/4-y,3/4+z
1/2+x,y,1/2+z
1/2-x,-y,1/2+z
3/4-x,1/4+y,3/4+z
3/4+x,1/4-y,3/4+z
1/2+x,1/2+y,z
1/2-x,1/2-y,z
3/4-x,3/4+y,1/4+z
3/4+x,3/4-y,1/4+z
loop_
_atom_site_type_symbol
_atom_site_label
_atom_site_fract_x
_atom_site_fract_y
_atom_site_fract_z
Si Si1 0.500000 0.500000 0.767990
Si Si2 0.592271 0.442446 0.263346
Si Si3 0.696737 0.042562 0.372512
Si Si4 0.250000 0.250000 0.787683
Si Si5 0.612479 0.670330 0.904925
Si Si6 0.104071 0.749796 0.875355
Si Si7 0.739861 0.056184 0.984689
O O1 0.588799 0.539455 0.816488
O O2 0.588412 0.459618 0.719835
O O3 0.500000 0.500000 0.273235
O O4 0.679429 0.440083 0.330981
O O5 0.672293 0.457650 0.193996
O O6 0.516805 0.380404 0.244178
O O7 0.653943 0.100177 0.419868
O O8 0.707675 0.978230 0.416033
O O9 0.314759 0.301067 0.837896
O O10 0.149489 0.283194 0.740954
O O11 0.470718 0.686302 0.890013
O O12 0.250000 0.750000 0.870889
O O13 0.055037 0.720794 0.803805
#
# Coordination Sequence:
#
# PCOD9371765 Si02
#       7
#     8  16  16   8  16  16  16
#     4  11  26  46  68 106 147 182 246 304 363 444
#     4  11  26  49  73 103 149 197 243 306 374 440
#     4  12  27  45  75 111 139 196 251 305 366 449
#     4   9  20  42  70 102 135 186 234 298 363 428
#     4  10  22  46  74  98 144 189 239 302 367 431
#     4  10  24  49  70 103 149 196 230 306 378 432
#     4  11  26  44  75 110 143 190 253 303 365 445
#
# _framework density 21.434678000000002
#
# number of rings (size 3 to 8) (size 9 to 14) (size 15 to 20)
#    0.000    1.333    3.333    0.000    9.333    2.667 
#    0.000    0.000    0.000    0.000    0.000    0.000 
#    0.000    0.000    0.000    0.000    0.000    0.000 
#
# Total GULP energy -134013.987770 kJ/mol
# GULP energy per Si atom -5583.916157 kJ/mol
# Density = 2.138589 g / cm^3
# Si number density = 21.434678 Si / 1000 Ang^3
#
#
#
# Elastic Constant Matrix: (Units=GPa)
#
#
# Indices 1 2 3 4 5 6 
#
# 1 118.6808 37.3796 21.4468 0.0000 0.0000 0.0000
# 2 37.3796 118.1921 14.2019 0.0000 0.0000 0.0000
# 3 21.4468 14.2019 65.7179 0.0000 0.0000 0.0000
# 4 0.0000 0.0000 0.0000 8.1098 0.0000 0.0000
# 5 0.0000 0.0000 0.0000 0.0000 4.7860 0.0000
# 6 0.0000 0.0000 0.0000 0.0000 0.0000 22.2537
#
#
#
# Elastic Compliance Matrix: (Units=1/GPa)
#
#
# Indices 1 2 3 4 5 6 
#
# 1 0.009769 -0.002779 -0.002588 0.000000 0.000000 0.000000
# 2 -0.002779 0.009477 -0.001141 0.000000 0.000000 0.000000
# 3 -0.002588 -0.001141 0.016308 0.000000 0.000000 0.000000
# 4 0.000000 0.000000 0.000000 0.123307 0.000000 0.000000
# 5 0.000000 0.000000 0.000000 0.000000 0.208941 0.000000
# 6 0.000000 0.000000 0.000000 0.000000 0.000000 0.044936
#
#
# Mechanical properties :
#
#
# Convention : Reuss Voigt Hill
#
# Bulk Modulus (GPa) = 44.36857 49.84970 47.10913
# Shear Modulus (GPa) = 11.54028 22.33408 16.93718
#
# Velocity S-wave (km/s) = 2.32285 3.23144 2.81406
# Velocity P-wave (km/s) = 5.28569 6.10164 5.70826
#
# Compressibility (1/GPa) = 0.02253848
#
# Stress axis : x y z
#
# Youngs Moduli (GPa) = 102.36801 105.52227 61.32108
#
# Poissons Ratio (x) = 0.29320 0.15867
# Poissons Ratio (y) = 0.28443 0.06998
# Poissons Ratio (z) = 0.26488 0.12042
#
# Static dielectric constant tensor:
#      x y z
#    x 1.804810 0.000000 0.000000 
#    y 0.000000 1.815570 0.000000 
#    z 0.000000 0.000000 1.761150 
# 
# From -- ./inp_files/17153.got.cif
#   From: 2010.05.17/outbox.cif.g08.bks.cpg/sg43_9_cif.got.tgz:17153.got - 2010.06.03 19:21:55.
