data_PCOD9371581
_publ_section_title
;
Structure prediction by ZEFSAII (Michael W. Deem and Ramdas Pophale) SiO2 
 PCOD9371581
Probable space group: F D D 2
;
_chemical_formula_sum "Si O2"
_cell_formula_units_Z 88
_cell_length_a 17.031734
_cell_length_b 23.193848
_cell_length_c 9.827802
_cell_angle_alpha 90.000000
_cell_angle_beta 90.000000
_cell_angle_gamma 90.000000
_cell_volume 3882.290870
_symmetry_space_group_name_H-M "F D D 2"
_symmetry_group_IT_number 43
_symmetry_cell_setting 'orthorhombic'
loop_
_space_group_symop_operation_xyz
x,y,z
-x,-y,z
1/4-x,1/4+y,1/4+z
1/4+x,1/4-y,1/4+z
x,1/2+y,1/2+z
-x,1/2-y,1/2+z
1/4-x,3/4+y,3/4+z
1/4+x,3/4-y,3/4+z
1/2+x,y,1/2+z
1/2-x,-y,1/2+z
3/4-x,1/4+y,3/4+z
3/4+x,1/4-y,3/4+z
1/2+x,1/2+y,z
1/2-x,1/2-y,z
3/4-x,3/4+y,1/4+z
3/4+x,3/4-y,1/4+z
loop_
_atom_site_type_symbol
_atom_site_label
_atom_site_fract_x
_atom_site_fract_y
_atom_site_fract_z
Si Si1 0.954220 0.239251 0.384160
Si Si2 0.606735 0.595525 0.478661
Si Si3 0.500000 0.000000 0.849068
Si Si4 0.610703 0.550704 0.895934
Si Si5 0.519632 0.142450 0.243816
Si Si6 0.119643 0.960257 0.128468
O O1 0.933801 0.187446 0.280499
O O2 0.899501 0.229296 0.513779
O O3 0.944042 0.300216 0.311326
O O4 0.045038 0.233739 0.422204
O O5 0.546722 0.546140 0.436051
O O6 0.566471 0.627893 0.605774
O O7 0.622168 0.641581 0.359919
O O8 0.440015 0.032496 0.751220
O O9 0.538127 0.589332 0.844892
O O10 0.679545 0.592363 0.957063
O O11 0.594511 0.500858 0.004547
#
# Coordination Sequence:
#
# PCOD9371581 Si02
#       6
#    16  16   8  16  16  16
#     4  10  22  42  73  99 136 188 236 289 364 417
#     4  11  23  42  75 100 141 185 244 293 348 439
#     4  12  28  44  72 110 142 186 244 294 362 428
#     4  10  23  43  70 100 140 188 234 294 359 424
#     4  10  22  42  69 102 135 178 242 288 355 425
#     4  11  24  45  64 105 142 180 233 294 357 423
#
# _framework density 22.66703
#
# number of rings (size 3 to 8) (size 9 to 14) (size 15 to 20)
#    0.000    1.455    1.818    2.182    7.636    1.455 
#    9.818    0.000    0.000    0.000    0.000    0.000 
#    0.000    0.000    0.000    0.000    0.000    0.000 
#
# Total GULP energy -123123.318309 kJ/mol
# GULP energy per Si atom -5596.514469 kJ/mol
# Density = 2.261544 g / cm^3
# Si number density = 22.667030 Si / 1000 Ang^3
#
#
#
# Elastic Constant Matrix: (Units=GPa)
#
#
# Indices 1 2 3 4 5 6 
#
# 1 67.3437 2.4391 5.8993 0.0000 0.0000 0.0000
# 2 2.4391 79.5743 22.3575 0.0000 0.0000 0.0000
# 3 5.8993 22.3575 52.8775 0.0000 0.0000 0.0000
# 4 0.0000 0.0000 0.0000 45.1307 0.0000 0.0000
# 5 0.0000 0.0000 0.0000 0.0000 16.5873 0.0000
# 6 0.0000 0.0000 0.0000 0.0000 0.0000 10.4642
#
#
#
# Elastic Compliance Matrix: (Units=1/GPa)
#
#
# Indices 1 2 3 4 5 6 
#
# 1 0.014996 0.000012 -0.001678 0.000000 0.000000 0.000000
# 2 0.000012 0.014261 -0.006031 0.000000 0.000000 0.000000
# 3 -0.001678 -0.006031 0.021649 0.000000 0.000000 0.000000
# 4 0.000000 0.000000 0.000000 0.022158 0.000000 0.000000
# 5 0.000000 0.000000 0.000000 0.000000 0.060287 0.000000
# 6 0.000000 0.000000 0.000000 0.000000 0.000000 0.095564
#
#
# Mechanical properties :
#
#
# Convention : Reuss Voigt Hill
#
# Bulk Modulus (GPa) = 28.16022 29.02079 28.59051
# Shear Modulus (GPa) = 19.52007 25.70974 22.61490
#
# Velocity S-wave (km/s) = 2.93775 3.37149 3.16207
# Velocity P-wave (km/s) = 4.89464 5.29026 5.09629
#
# Compressibility (1/GPa) = 0.03551109
#
# Stress axis : x y z
#
# Youngs Moduli (GPa) = 66.68549 70.12118 46.19173
#
# Poissons Ratio (x) = -0.00083 0.07751
# Poissons Ratio (y) = -0.00079 0.27859
# Poissons Ratio (z) = 0.11190 0.42291
#
# Static dielectric constant tensor:
#      x y z
#    x 1.816810 0.000000 0.000000 
#    y 0.000000 1.863640 0.000000 
#    z 0.000000 0.000000 1.833890 
# 
# From -- ./inp_files/3234.got.cif
#   From: 2010.05.17/outbox.cif.g08.bks.cpg/sg43_2_cif.got.tgz:3234.got - 2010.06.03 19:21:55.
