data_PCOD9371053
_publ_section_title
;
Structure prediction by ZEFSAII (Michael W. Deem and Ramdas Pophale) SiO2 
 PCOD9371053
Probable space group: F D D 2
;
_chemical_formula_sum "Si O2"
_cell_formula_units_Z 96
_cell_length_a 18.386044
_cell_length_b 9.401826
_cell_length_c 25.882074
_cell_angle_alpha 90.000000
_cell_angle_beta 90.000000
_cell_angle_gamma 90.000000
_cell_volume 4474.037080
_symmetry_space_group_name_H-M "F D D 2"
_symmetry_group_IT_number 43
_symmetry_cell_setting 'orthorhombic'
loop_
_space_group_symop_operation_xyz
x,y,z
-x,-y,z
1/4-x,1/4+y,1/4+z
1/4+x,1/4-y,1/4+z
x,1/2+y,1/2+z
-x,1/2-y,1/2+z
1/4-x,3/4+y,3/4+z
1/4+x,3/4-y,3/4+z
1/2+x,y,1/2+z
1/2-x,-y,1/2+z
3/4-x,1/4+y,3/4+z
3/4+x,1/4-y,3/4+z
1/2+x,1/2+y,z
1/2-x,1/2-y,z
3/4-x,3/4+y,1/4+z
3/4+x,3/4-y,1/4+z
loop_
_atom_site_type_symbol
_atom_site_label
_atom_site_fract_x
_atom_site_fract_y
_atom_site_fract_z
Si Si1 0.500000 0.500000 0.315511
Si Si2 0.149341 0.611248 0.980920
Si Si3 0.082299 0.557826 0.283595
Si Si4 0.725038 0.467584 0.157417
Si Si5 0.616784 0.211677 0.631259
Si Si6 0.677176 0.347062 0.723178
Si Si7 0.250000 0.750000 0.896234
O O1 0.431920 0.542962 0.278341
O O2 0.515962 0.623841 0.356575
O O3 0.071275 0.646746 0.954799
O O4 0.199929 0.654355 0.932968
O O5 0.157367 0.449066 0.999618
O O6 0.111370 0.584030 0.341662
O O7 0.134552 0.427584 0.267449
O O8 0.000000 0.500000 0.281792
O O9 0.683984 0.604539 0.135118
O O10 0.795558 0.527882 0.185304
O O11 0.615843 0.262499 0.690652
O O12 0.548379 0.114784 0.616933
O O13 0.750000 0.250000 0.734392
#
# Coordination Sequence:
#
# PCOD9371053 Si02
#       7
#     8  16  16  16  16  16   8
#     4  11  20  38  64  88 128 178 216 276 355 388
#     4  10  22  38  61  93 124 172 223 275 328 420
#     4  12  23  37  63  91 126 164 221 266 334 402
#     4  10  21  39  62  88 126 169 222 272 335 404
#     4  10  21  38  61  91 121 165 216 263 327 400
#     4  10  22  40  63  89 128 167 213 275 329 392
#     4   9  20  40  60  88 136 162 218 274 329 392
#
# _framework density 21.457129999999999
#
# number of rings (size 3 to 8) (size 9 to 14) (size 15 to 20)
#    0.000    1.667    0.000    5.500    1.167    5.333 
#    3.000    0.000    7.333    0.000    0.000    0.000 
#    0.000    0.000    0.000    0.000    0.000    0.000 
#
# Total GULP energy -133720.693852 kJ/mol
# GULP energy per Si atom -5571.695577 kJ/mol
# Density = 2.140829 g / cm^3
# Si number density = 21.457130 Si / 1000 Ang^3
#
#
#
# Elastic Constant Matrix: (Units=GPa)
#
#
# Indices 1 2 3 4 5 6 
#
# 1 80.7202 19.7083 37.7339 0.0000 0.0000 0.0000
# 2 19.7083 72.4298 34.1814 0.0000 0.0000 0.0000
# 3 37.7339 34.1814 97.9090 0.0000 0.0000 0.0000
# 4 0.0000 0.0000 0.0000 50.0551 0.0000 0.0000
# 5 0.0000 0.0000 0.0000 0.0000 -9.0699 0.0000
# 6 0.0000 0.0000 0.0000 0.0000 0.0000 24.1052
#
#
#
# Elastic Compliance Matrix: (Units=1/GPa)
#
#
# Indices 1 2 3 4 5 6 
#
# 1 0.015274 -0.001650 -0.005310 0.000000 0.000000 0.000000
# 2 -0.001650 0.016708 -0.005197 0.000000 0.000000 0.000000
# 3 -0.005310 -0.005197 0.014075 0.000000 0.000000 0.000000
# 4 0.000000 0.000000 0.000000 0.019978 0.000000 0.000000
# 5 0.000000 0.000000 0.000000 0.000000 -0.110255 0.000000
# 6 0.000000 0.000000 0.000000 0.000000 0.000000 0.041485
#
#
# Mechanical properties :
#
#
# Convention : Reuss Voigt Hill
#
# Bulk Modulus (GPa) = 45.99518 48.25626 47.12572
# Shear Modulus (GPa) = 173.45131 23.64710 98.54920
#
# Velocity S-wave (km/s) = 9.00065 3.32333 6.78440
# Velocity P-wave (km/s) = 11.37972 6.10447 9.13133
#
# Compressibility (1/GPa) = 0.02174141
#
# Stress axis : x y z
#
# Youngs Moduli (GPa) = 65.47172 59.85132 71.04997
#
# Poissons Ratio (x) = 0.09875 0.37731
# Poissons Ratio (y) = 0.10802 0.36926
# Poissons Ratio (z) = 0.34769 0.31106
#
# Static dielectric constant tensor:
#      x y z
#    x 1.847790 0.000000 0.000000 
#    y 0.000000 1.798950 0.000000 
#    z 0.000000 0.000000 1.832140 
# 
# From -- ./inp_files/26317.got.cif
#   From: 2010.05.17/outbox.cif.g08.bks.cpg/sg43_14_cif.got.tgz:26317.got - 2010.06.03 19:21:55.
