data_PCOD9371894
_publ_section_title
;
Structure prediction by ZEFSAII (Michael W. Deem and Ramdas Pophale) SiO2 
 PCOD9371894
Probable space group: F D D 2
;
_chemical_formula_sum "Si O2"
_cell_formula_units_Z 88
_cell_length_a 16.351867
_cell_length_b 29.897585
_cell_length_c 8.819378
_cell_angle_alpha 90.000000
_cell_angle_beta 90.000000
_cell_angle_gamma 90.000000
_cell_volume 4311.629278
_symmetry_space_group_name_H-M "F D D 2"
_symmetry_group_IT_number 43
_symmetry_cell_setting 'orthorhombic'
loop_
_space_group_symop_operation_xyz
x,y,z
-x,-y,z
1/4-x,1/4+y,1/4+z
1/4+x,1/4-y,1/4+z
x,1/2+y,1/2+z
-x,1/2-y,1/2+z
1/4-x,3/4+y,3/4+z
1/4+x,3/4-y,3/4+z
1/2+x,y,1/2+z
1/2-x,-y,1/2+z
3/4-x,1/4+y,3/4+z
3/4+x,1/4-y,3/4+z
1/2+x,1/2+y,z
1/2-x,1/2-y,z
3/4-x,3/4+y,1/4+z
3/4+x,3/4-y,1/4+z
loop_
_atom_site_type_symbol
_atom_site_label
_atom_site_fract_x
_atom_site_fract_y
_atom_site_fract_z
Si Si1 0.522825 0.664659 0.683410
Si Si2 0.871993 0.977570 0.033287
Si Si3 0.303312 0.324875 0.836017
Si Si4 0.750000 0.250000 0.547473
Si Si5 0.108532 0.171112 0.364233
Si Si6 0.215476 0.829947 0.017985
O O1 0.459319 0.700788 0.744283
O O2 0.606649 0.664644 0.776071
O O3 0.480638 0.616448 0.681143
O O4 0.548589 0.673924 0.509505
O O5 0.911263 0.958407 0.188769
O O6 0.856129 0.030574 0.037059
O O7 0.940723 0.971151 0.904373
O O8 0.243655 0.318727 0.689814
O O9 0.302496 0.281566 0.939680
O O10 0.081157 0.127483 0.271370
O O11 0.200500 0.164686 0.425151
#
# Coordination Sequence:
#
# PCOD9371894 Si02
#       6
#    16  16  16   8  16  16
#     4  10  24  43  69  96 137 169 235 277 347 411
#     4  12  25  42  68 104 136 177 233 291 333 419
#     4  10  24  46  67  96 132 189 216 287 350 412
#     4  12  26  40  66  98 140 172 236 278 348 406
#     4  10  23  44  66  99 129 184 224 273 346 413
#     4  10  23  45  69  92 137 176 226 279 340 410
#
# _framework density 20.409918000000001
#
# number of rings (size 3 to 8) (size 9 to 14) (size 15 to 20)
#    0.000    1.455    1.818    1.091   10.182    4.364 
#    0.000    0.000    0.000    0.000    0.000    0.000 
#    0.000    0.000    0.000    0.000    0.000    0.000 
#
# Total GULP energy -123020.967037 kJ/mol
# GULP energy per Si atom -5591.862138 kJ/mol
# Density = 2.036346 g / cm^3
# Si number density = 20.409918 Si / 1000 Ang^3
#
#
#
# Elastic Constant Matrix: (Units=GPa)
#
#
# Indices 1 2 3 4 5 6 
#
# 1 58.4030 11.9810 22.1231 0.0000 0.0000 0.0000
# 2 11.9810 74.1299 39.9352 0.0000 0.0000 0.0000
# 3 22.1231 39.9352 59.4853 0.0000 -0.0001 0.0000
# 4 0.0000 0.0000 0.0000 38.3246 0.0000 0.0000
# 5 0.0000 0.0000 -0.0001 0.0000 22.9492 0.0000
# 6 0.0000 0.0000 0.0000 0.0000 0.0000 34.2023
#
#
#
# Elastic Compliance Matrix: (Units=1/GPa)
#
#
# Indices 1 2 3 4 5 6 
#
# 1 0.020000 0.001214 -0.008253 0.000000 0.000000 0.000000
# 2 0.001214 0.021207 -0.014688 0.000000 0.000000 0.000000
# 3 -0.008253 -0.014688 0.029741 0.000000 0.000000 0.000000
# 4 0.000000 0.000000 0.000000 0.026093 0.000000 0.000000
# 5 0.000000 0.000000 0.000000 0.000000 0.043574 0.000000
# 6 0.000000 0.000000 0.000000 0.000000 0.000000 0.029238
#
#
# Mechanical properties :
#
#
# Convention : Reuss Voigt Hill
#
# Bulk Modulus (GPa) = 36.37383 37.78854 37.08119
# Shear Modulus (GPa) = 22.47480 26.96048 24.71764
#
# Velocity S-wave (km/s) = 3.32199 3.63843 3.48380
# Velocity P-wave (km/s) = 5.70741 6.01713 5.86431
#
# Compressibility (1/GPa) = 0.02749229
#
# Stress axis : x y z
#
# Youngs Moduli (GPa) = 50.00098 47.15525 33.62354
#
# Poissons Ratio (x) = -0.05723 0.27749
# Poissons Ratio (y) = -0.06068 0.49387
# Poissons Ratio (z) = 0.41265 0.69263
#
# Static dielectric constant tensor:
#      x y z
#    x 1.692360 0.000000 0.000000 
#    y 0.000000 1.709240 0.000000 
#    z 0.000000 0.000000 1.744990 
# 
# From -- ./inp_files/2903.got.cif
#   From: 2010.05.17/outbox.cif.g08.bks.cpg/sg43_2_cif.got.tgz:2903.got - 2010.06.03 19:21:55.
