data_PCOD9371491
_publ_section_title
;
Structure prediction by ZEFSAII (Michael W. Deem and Ramdas Pophale) SiO2 
 PCOD9371491
Probable space group: F D D 2
;
_chemical_formula_sum "Si O2"
_cell_formula_units_Z 64
_cell_length_a 12.193737
_cell_length_b 21.388929
_cell_length_c 12.242810
_cell_angle_alpha 90.000000
_cell_angle_beta 90.000000
_cell_angle_gamma 90.000000
_cell_volume 3193.059212
_symmetry_space_group_name_H-M "F D D 2"
_symmetry_group_IT_number 43
_symmetry_cell_setting 'orthorhombic'
loop_
_space_group_symop_operation_xyz
x,y,z
-x,-y,z
1/4-x,1/4+y,1/4+z
1/4+x,1/4-y,1/4+z
x,1/2+y,1/2+z
-x,1/2-y,1/2+z
1/4-x,3/4+y,3/4+z
1/4+x,3/4-y,3/4+z
1/2+x,y,1/2+z
1/2-x,-y,1/2+z
3/4-x,1/4+y,3/4+z
3/4+x,1/4-y,3/4+z
1/2+x,1/2+y,z
1/2-x,1/2-y,z
3/4-x,3/4+y,1/4+z
3/4+x,3/4-y,1/4+z
loop_
_atom_site_type_symbol
_atom_site_label
_atom_site_fract_x
_atom_site_fract_y
_atom_site_fract_z
Si Si1 0.173624 0.690300 0.788480
Si Si2 0.244861 0.818796 0.370993
Si Si3 0.491869 0.688462 0.472234
Si Si4 0.432357 0.317257 0.052651
O O1 0.250000 0.750000 0.810942
O O2 0.137945 0.690452 0.662235
O O3 0.241545 0.627593 0.811605
O O4 0.066747 0.691614 0.865022
O O5 0.250000 0.750000 0.315922
O O6 0.502278 0.754129 0.535346
O O7 0.136388 0.816648 0.444314
O O8 0.350918 0.825734 0.448966
O O9 0.518344 0.627150 0.541633
#
# Coordination Sequence:
#
# PCOD9371491 Si02
#       4
#    16  16  16  16
#     4  12  24  41  64  95 128 166 215 271 329 393
#     4  10  22  41  63  89 122 166 210 255 318 388
#     4  11  24  40  63  93 124 162 210 264 321 386
#     4  11  23  42  65  91 127 172 215 264 326 397
#
# _framework density 20.043474
#
# number of rings (size 3 to 8) (size 9 to 14) (size 15 to 20)
#    0.000    1.000    0.000    8.250    0.000    8.000 
#    0.000    1.250    0.000    0.000    0.000    0.000 
#    0.000    0.000    0.000    0.000    0.000    0.000 
#
# Total GULP energy -89467.533265 kJ/mol
# GULP energy per Si atom -5591.720829 kJ/mol
# Density = 1.999785 g / cm^3
# Si number density = 20.043474 Si / 1000 Ang^3
#
#
#
# Elastic Constant Matrix: (Units=GPa)
#
#
# Indices 1 2 3 4 5 6 
#
# 1 39.1509 16.5376 -10.3815 0.0000 0.0000 0.0000
# 2 16.5376 165.4210 23.4737 0.0000 0.0000 0.0000
# 3 -10.3815 23.4737 54.4211 0.0000 0.0000 0.0000
# 4 0.0000 0.0000 0.0000 29.4484 0.0000 0.0000
# 5 0.0000 0.0000 0.0000 0.0000 32.5228 0.0000
# 6 0.0000 0.0000 0.0000 0.0000 0.0000 31.2211
#
#
#
# Elastic Compliance Matrix: (Units=1/GPa)
#
#
# Indices 1 2 3 4 5 6 
#
# 1 0.029132 -0.003942 0.007258 0.000000 0.000000 0.000000
# 2 -0.003942 0.006973 -0.003760 0.000000 0.000000 0.000000
# 3 0.007258 -0.003760 0.021381 0.000000 0.000000 0.000000
# 4 0.000000 0.000000 0.000000 0.033958 0.000000 0.000000
# 5 0.000000 0.000000 0.000000 0.000000 0.030748 0.000000
# 6 0.000000 0.000000 0.000000 0.000000 0.000000 0.032030
#
#
# Mechanical properties :
#
#
# Convention : Reuss Voigt Hill
#
# Bulk Modulus (GPa) = 17.66858 35.36142 26.51500
# Shear Modulus (GPa) = 28.73968 33.92933 31.33451
#
# Velocity S-wave (km/s) = 3.79075 4.11881 3.95818
# Velocity P-wave (km/s) = 5.29094 6.34824 5.84355
#
# Compressibility (1/GPa) = 0.05659765
#
# Stress axis : x y z
#
# Youngs Moduli (GPa) = 34.32661 143.41422 46.76964
#
# Poissons Ratio (x) = 0.56538 -0.33944
# Poissons Ratio (y) = 0.13533 0.17584
# Poissons Ratio (z) = -0.24913 0.53919
#
# Static dielectric constant tensor:
#      x y z
#    x 1.679260 0.000000 0.000000 
#    y 0.000000 1.720560 0.000000 
#    z 0.000000 0.000000 1.669050 
# 
# From -- ./inp_files/9399.got.cif
#   From: 2010.05.17/outbox.cif.g08.bks.cpg/sg43_5_cif.got.tgz:9399.got - 2010.06.03 19:21:55.
