data_PCOD9371472
_publ_section_title
;
Structure prediction by ZEFSAII (Michael W. Deem and Ramdas Pophale) SiO2 
 PCOD9371472
Probable space group: F D D 2
;
_chemical_formula_sum "Si O2"
_cell_formula_units_Z 64
_cell_length_a 13.809890
_cell_length_b 8.109857
_cell_length_c 24.792268
_cell_angle_alpha 90.000000
_cell_angle_beta 90.000000
_cell_angle_gamma 90.000000
_cell_volume 2776.640626
_symmetry_space_group_name_H-M "F D D 2"
_symmetry_group_IT_number 43
_symmetry_cell_setting 'orthorhombic'
loop_
_space_group_symop_operation_xyz
x,y,z
-x,-y,z
1/4-x,1/4+y,1/4+z
1/4+x,1/4-y,1/4+z
x,1/2+y,1/2+z
-x,1/2-y,1/2+z
1/4-x,3/4+y,3/4+z
1/4+x,3/4-y,3/4+z
1/2+x,y,1/2+z
1/2-x,-y,1/2+z
3/4-x,1/4+y,3/4+z
3/4+x,1/4-y,3/4+z
1/2+x,1/2+y,z
1/2-x,1/2-y,z
3/4-x,3/4+y,1/4+z
3/4+x,3/4-y,1/4+z
loop_
_atom_site_type_symbol
_atom_site_label
_atom_site_fract_x
_atom_site_fract_y
_atom_site_fract_z
Si Si1 0.585879 0.195304 0.225010
Si Si2 0.991356 0.198628 0.340233
Si Si3 0.619005 0.874266 0.184142
Si Si4 0.384869 0.986218 0.672273
O O1 0.537910 0.248015 0.280827
O O2 0.497284 0.161319 0.182983
O O3 0.648041 0.347928 0.202987
O O4 0.634441 0.016186 0.228737
O O5 0.916473 0.289112 0.381589
O O6 0.095000 0.259672 0.361736
O O7 0.000000 0.000000 0.342652
O O8 0.652559 0.687251 0.195126
O O9 0.500000 0.000000 0.675939
#
# Coordination Sequence:
#
# PCOD9371472 Si02
#       4
#    16  16  16  16
#     4  10  23  45  65  96 140 174 219 288 333 392
#     4  12  23  43  75 100 135 185 223 278 351 403
#     4  10  22  40  68  98 132 173 225 275 331 405
#     4  10  22  44  67  98 140 171 227 283 328 408
#
# _framework density 23.049437000000001
#
# number of rings (size 3 to 8) (size 9 to 14) (size 15 to 20)
#    0.000    1.500    2.500    3.000    7.000    0.000 
#    0.000   12.500    0.000    0.000    0.000    0.000 
#    0.000    0.000    0.000    0.000    0.000    0.000 
#
# Total GULP energy -89109.523164 kJ/mol
# GULP energy per Si atom -5569.345198 kJ/mol
# Density = 2.299698 g / cm^3
# Si number density = 23.049437 Si / 1000 Ang^3
#
#
#
# Elastic Constant Matrix: (Units=GPa)
#
#
# Indices 1 2 3 4 5 6 
#
# 1 79.2952 40.1307 18.5039 0.0000 0.0000 0.0000
# 2 40.1307 292.9665 67.2530 0.0000 0.0000 0.0000
# 3 18.5039 67.2530 84.6373 0.0000 0.0000 0.0000
# 4 0.0000 0.0000 0.0000 24.0025 0.0000 0.0000
# 5 0.0000 0.0000 0.0000 0.0000 29.8537 0.0000
# 6 0.0000 0.0000 0.0000 0.0000 0.0000 34.0424
#
#
#
# Elastic Compliance Matrix: (Units=1/GPa)
#
#
# Indices 1 2 3 4 5 6 
#
# 1 0.013784 -0.001463 -0.001851 0.000000 0.000000 0.000000
# 2 -0.001463 0.004330 -0.003121 0.000000 0.000000 0.000000
# 3 -0.001851 -0.003121 0.014700 0.000000 0.000000 0.000000
# 4 0.000000 0.000000 0.000000 0.041662 0.000000 0.000000
# 5 0.000000 0.000000 0.000000 0.000000 0.033497 0.000000
# 6 0.000000 0.000000 0.000000 0.000000 0.000000 0.029375
#
#
# Mechanical properties :
#
#
# Convention : Reuss Voigt Hill
#
# Bulk Modulus (GPa) = 50.14143 78.74158 64.44151
# Shear Modulus (GPa) = 31.87452 39.64716 35.76084
#
# Velocity S-wave (km/s) = 3.72274 4.15190 3.94316
# Velocity P-wave (km/s) = 6.34661 7.56443 6.98212
#
# Compressibility (1/GPa) = 0.01994359
#
# Stress axis : x y z
#
# Youngs Moduli (GPa) = 72.55047 230.93511 68.02895
#
# Poissons Ratio (x) = 0.33791 0.12591
# Poissons Ratio (y) = 0.10616 0.21231
# Poissons Ratio (z) = 0.13427 0.72073
#
# Static dielectric constant tensor:
#      x y z
#    x 1.938570 0.000000 0.000000 
#    y 0.000000 2.013650 0.000000 
#    z 0.000000 0.000000 1.806480 
# 
# From -- ./inp_files/17873.got.cif
#   From: 2010.05.17/outbox.cif.g08.bks.cpg/sg43_9_cif.got.tgz:17873.got - 2010.06.03 19:21:55.
