data_PCOD9371631
_publ_section_title
;
Structure prediction by ZEFSAII (Michael W. Deem and Ramdas Pophale) SiO2 
 PCOD9371631
Probable space group: F D D 2
;
_chemical_formula_sum "Si O2"
_cell_formula_units_Z 80
_cell_length_a 7.245298
_cell_length_b 27.635523
_cell_length_c 15.195027
_cell_angle_alpha 90.000000
_cell_angle_beta 90.000000
_cell_angle_gamma 90.000000
_cell_volume 3042.463781
_symmetry_space_group_name_H-M "F D D 2"
_symmetry_group_IT_number 43
_symmetry_cell_setting 'orthorhombic'
loop_
_space_group_symop_operation_xyz
x,y,z
-x,-y,z
1/4-x,1/4+y,1/4+z
1/4+x,1/4-y,1/4+z
x,1/2+y,1/2+z
-x,1/2-y,1/2+z
1/4-x,3/4+y,3/4+z
1/4+x,3/4-y,3/4+z
1/2+x,y,1/2+z
1/2-x,-y,1/2+z
3/4-x,1/4+y,3/4+z
3/4+x,1/4-y,3/4+z
1/2+x,1/2+y,z
1/2-x,1/2-y,z
3/4-x,3/4+y,1/4+z
3/4+x,3/4-y,1/4+z
loop_
_atom_site_type_symbol
_atom_site_label
_atom_site_fract_x
_atom_site_fract_y
_atom_site_fract_z
Si Si1 0.475876 0.317529 0.238800
Si Si2 0.376913 0.324230 0.791975
Si Si3 0.947252 0.864216 0.062880
Si Si4 0.708141 0.518357 0.199838
Si Si5 0.791396 0.021314 0.373435
O O1 0.656690 0.320996 0.298179
O O2 0.293391 0.336501 0.283487
O O3 0.516283 0.354797 0.160240
O O4 0.445299 0.268510 0.185130
O O5 0.479926 0.374008 0.816057
O O6 0.449154 0.281842 0.857232
O O7 0.430668 0.315610 0.689264
O O8 0.012233 0.819203 0.003389
O O9 0.500000 0.500000 0.181629
O O10 0.782941 0.479746 0.273582
O O11 0.000000 0.000000 0.363269
#
# Coordination Sequence:
#
# PCOD9371631 Si02
#       5
#    16  16  16  16  16
#     4  10  23  40  66  97 145 179 234 299 354 421
#     4  11  23  41  76 101 141 190 248 288 368 439
#     4  11  23  42  68 103 138 188 238 301 363 423
#     4  10  22  43  68 100 143 190 237 294 372 432
#     4   8  19  41  64  94 139 186 227 293 354 424
#
# _framework density 26.294478999999999
#
# number of rings (size 3 to 8) (size 9 to 14) (size 15 to 20)
#    0.000    2.000    2.000    1.200    5.600    0.000 
#    0.000    0.000   26.400    0.000    0.000    0.000 
#    0.000    0.000    0.000    0.000    0.000    0.000 
#
# Total GULP energy -111735.623728 kJ/mol
# GULP energy per Si atom -5586.781186 kJ/mol
# Density = 2.623463 g / cm^3
# Si number density = 26.294479 Si / 1000 Ang^3
#
#
#
# Elastic Constant Matrix: (Units=GPa)
#
#
# Indices 1 2 3 4 5 6 
#
# 1 128.1292 27.1778 23.3067 0.0000 0.0000 0.0000
# 2 27.1778 49.2332 4.4270 0.0000 0.0000 0.0000
# 3 23.3067 4.4270 125.3090 0.0000 0.0000 0.0000
# 4 0.0000 0.0000 0.0000 42.2942 0.0000 0.0000
# 5 0.0000 0.0000 0.0000 0.0000 25.7288 0.0000
# 6 0.0000 0.0000 0.0000 0.0000 0.0000 52.1711
#
#
#
# Elastic Compliance Matrix: (Units=1/GPa)
#
#
# Indices 1 2 3 4 5 6 
#
# 1 0.009121 -0.004898 -0.001523 0.000000 0.000000 0.000000
# 2 -0.004898 0.023006 0.000098 0.000000 0.000000 0.000000
# 3 -0.001523 0.000098 0.008260 0.000000 0.000000 0.000000
# 4 0.000000 0.000000 0.000000 0.023644 0.000000 0.000000
# 5 0.000000 0.000000 0.000000 0.000000 0.038867 0.000000
# 6 0.000000 0.000000 0.000000 0.000000 0.000000 0.019168
#
#
# Mechanical properties :
#
#
# Convention : Reuss Voigt Hill
#
# Bulk Modulus (GPa) = 36.04753 45.83273 40.94013
# Shear Modulus (GPa) = 34.73221 40.55615 37.64418
#
# Velocity S-wave (km/s) = 3.63835 3.93158 3.78780
# Velocity P-wave (km/s) = 5.60260 6.17075 5.89352
#
# Compressibility (1/GPa) = 0.02774116
#
# Stress axis : x y z
#
# Youngs Moduli (GPa) = 109.64195 43.46629 121.06338
#
# Poissons Ratio (x) = 0.21289 0.18442
# Poissons Ratio (y) = 0.53700 -0.01188
# Poissons Ratio (z) = 0.16702 -0.00427
#
# Static dielectric constant tensor:
#      x y z
#    x 2.056030 0.000000 0.000000 
#    y 0.000000 2.107750 0.000000 
#    z 0.000000 0.000000 2.096130 
# 
# From -- ./inp_files/12848.got.cif
#   From: 2010.05.17/outbox.cif.g08.bks.cpg/sg43_7_cif.got.tgz:12848.got - 2010.06.03 19:21:55.
