data_PCOD9371021
_publ_section_title
;
Structure prediction by ZEFSAII (Michael W. Deem and Ramdas Pophale) SiO2 
 PCOD9371021
Probable space group: F D D 2
;
_chemical_formula_sum "Si O2"
_cell_formula_units_Z 48
_cell_length_a 9.853708
_cell_length_b 11.805931
_cell_length_c 17.135215
_cell_angle_alpha 90.000000
_cell_angle_beta 90.000000
_cell_angle_gamma 90.000000
_cell_volume 1993.377203
_symmetry_space_group_name_H-M "F D D 2"
_symmetry_group_IT_number 43
_symmetry_cell_setting 'orthorhombic'
loop_
_space_group_symop_operation_xyz
x,y,z
-x,-y,z
1/4-x,1/4+y,1/4+z
1/4+x,1/4-y,1/4+z
x,1/2+y,1/2+z
-x,1/2-y,1/2+z
1/4-x,3/4+y,3/4+z
1/4+x,3/4-y,3/4+z
1/2+x,y,1/2+z
1/2-x,-y,1/2+z
3/4-x,1/4+y,3/4+z
3/4+x,1/4-y,3/4+z
1/2+x,1/2+y,z
1/2-x,1/2-y,z
3/4-x,3/4+y,1/4+z
3/4+x,3/4-y,1/4+z
loop_
_atom_site_type_symbol
_atom_site_label
_atom_site_fract_x
_atom_site_fract_y
_atom_site_fract_z
Si Si1 0.315768 0.000874 0.453120
Si Si2 0.349854 0.551880 0.597093
Si Si3 0.155643 0.859570 0.096079
O O1 0.391395 0.913614 0.397906
O O2 0.002008 0.794203 0.383524
O O3 0.217009 0.930590 0.512040
O O4 0.220266 0.076927 0.398455
O O5 0.500000 0.500000 0.587585
O O6 0.112156 0.414752 0.514009
O O7 0.250000 0.750000 0.082979
#
# Coordination Sequence:
#
# PCOD9371021 Si02
#       3
#    16  16  16
#     4  10  21  42  70 100 135 181 229 285 343 414
#     4  10  21  36  75  95 138 180 229 275 359 401
#     4  10  21  38  73  97 137 184 229 278 353 409
#
# _framework density 24.079736
#
# number of rings (size 3 to 8) (size 9 to 14) (size 15 to 20)
#    2.000    0.000    3.333    1.000    0.000    0.000 
#    0.000    3.333   14.667    0.000    0.000    0.000 
#    0.000    0.000    0.000    0.000    0.000    0.000 
#
# Total GULP energy -67121.004374 kJ/mol
# GULP energy per Si atom -5593.417031 kJ/mol
# Density = 2.402493 g / cm^3
# Si number density = 24.079736 Si / 1000 Ang^3
#
#
#
# Elastic Constant Matrix: (Units=GPa)
#
#
# Indices 1 2 3 4 5 6 
#
# 1 83.6464 69.4993 61.9343 0.0000 0.0000 0.0000
# 2 69.4993 147.1367 91.8823 0.0000 0.0000 0.0000
# 3 61.9343 91.8823 177.5190 0.0000 0.0000 0.0000
# 4 0.0000 0.0000 0.0000 64.2554 0.0000 0.0000
# 5 0.0000 0.0000 0.0000 0.0000 47.9584 0.0000
# 6 0.0000 0.0000 0.0000 0.0000 0.0000 50.8378
#
#
#
# Elastic Compliance Matrix: (Units=1/GPa)
#
#
# Indices 1 2 3 4 5 6 
#
# 1 0.020851 -0.007840 -0.003217 0.000000 0.000000 0.000000
# 2 -0.007840 0.012990 -0.003988 0.000000 0.000000 0.000000
# 3 -0.003217 -0.003988 0.008820 0.000000 0.000000 0.000000
# 4 0.000000 0.000000 0.000000 0.015563 0.000000 0.000000
# 5 0.000000 0.000000 0.000000 0.000000 0.020851 0.000000
# 6 0.000000 0.000000 0.000000 0.000000 0.000000 0.019670
#
#
# Mechanical properties :
#
#
# Convention : Reuss Voigt Hill
#
# Bulk Modulus (GPa) = 79.54982 94.99265 87.27123
# Shear Modulus (GPa) = 37.58664 44.94272 41.26468
#
# Velocity S-wave (km/s) = 3.95514 4.32489 4.14414
# Velocity P-wave (km/s) = 7.34610 8.02959 7.69544
#
# Compressibility (1/GPa) = 0.01257074
#
# Stress axis : x y z
#
# Youngs Moduli (GPa) = 47.95953 76.98106 113.38175
#
# Poissons Ratio (x) = 0.60354 0.36471
# Poissons Ratio (y) = 0.37601 0.45220
# Poissons Ratio (z) = 0.15427 0.30702
#
# Static dielectric constant tensor:
#      x y z
#    x 1.987430 0.000000 0.000000 
#    y 0.000000 1.888180 0.000000 
#    z 0.000000 0.000000 1.873160 
# 
# From -- ./inp_files/5844.got.cif
#   From: 2010.05.17/outbox.cif.g08.bks.cpg/sg43_3_cif.got.tgz:5844.got - 2010.06.03 19:21:55.
