data_PCOD9371295
_publ_section_title
;
Structure prediction by ZEFSAII (Michael W. Deem and Ramdas Pophale) SiO2 
 PCOD9371295
Probable space group: F D D 2
;
_chemical_formula_sum "Si O2"
_cell_formula_units_Z 72
_cell_length_a 9.020358
_cell_length_b 19.685422
_cell_length_c 19.472355
_cell_angle_alpha 90.000000
_cell_angle_beta 90.000000
_cell_angle_gamma 90.000000
_cell_volume 3457.697389
_symmetry_space_group_name_H-M "F D D 2"
_symmetry_group_IT_number 43
_symmetry_cell_setting 'orthorhombic'
loop_
_space_group_symop_operation_xyz
x,y,z
-x,-y,z
1/4-x,1/4+y,1/4+z
1/4+x,1/4-y,1/4+z
x,1/2+y,1/2+z
-x,1/2-y,1/2+z
1/4-x,3/4+y,3/4+z
1/4+x,3/4-y,3/4+z
1/2+x,y,1/2+z
1/2-x,-y,1/2+z
3/4-x,1/4+y,3/4+z
3/4+x,1/4-y,3/4+z
1/2+x,1/2+y,z
1/2-x,1/2-y,z
3/4-x,3/4+y,1/4+z
3/4+x,3/4-y,1/4+z
loop_
_atom_site_type_symbol
_atom_site_label
_atom_site_fract_x
_atom_site_fract_y
_atom_site_fract_z
Si Si1 0.077237 0.566310 0.266250
Si Si2 0.140363 0.414302 0.576576
Si Si3 0.500000 0.000000 0.396133
Si Si4 0.427386 0.702508 0.763957
Si Si5 0.412435 0.069503 0.730936
O O1 0.012586 0.562317 0.343991
O O2 0.251714 0.555771 0.263513
O O3 0.000000 0.500000 0.231914
O O4 0.034522 0.641567 0.243777
O O5 0.214940 0.489771 0.569709
O O6 0.240640 0.363566 0.533252
O O7 0.117188 0.397338 0.656249
O O8 0.978492 0.420687 0.540719
O O9 0.639960 0.004849 0.445457
O O10 0.500000 0.000000 0.717401
#
# Coordination Sequence:
#
# PCOD9371295 Si02
#       5
#    16  16   8  16  16
#     4  10  24  40  67  99 130 179 218 281 338 415
#     4  10  25  42  70  98 134 185 218 288 344 411
#     4   8  22  40  64  98 120 178 208 280 336 392
#     4  10  21  43  70  94 133 173 229 269 343 413
#     4  12  25  45  67 105 138 178 233 283 351 409
#
# _framework density 20.823105999999999
#
# number of rings (size 3 to 8) (size 9 to 14) (size 15 to 20)
#    0.667    1.333    2.222    1.333    9.333    2.667 
#    0.000    0.000    0.000    0.000    0.000    0.000 
#    0.000    0.000    0.000    0.000    0.000    0.000 
#
# Total GULP energy -100260.883870 kJ/mol
# GULP energy per Si atom -5570.049104 kJ/mol
# Density = 2.077571 g / cm^3
# Si number density = 20.823106 Si / 1000 Ang^3
#
#
#
# Elastic Constant Matrix: (Units=GPa)
#
#
# Indices 1 2 3 4 5 6 
#
# 1 81.4252 36.9464 35.6072 0.0000 0.0000 0.0000
# 2 36.9464 61.3661 36.5980 0.0000 0.0000 0.0000
# 3 35.6072 36.5980 109.0292 0.0000 0.0000 0.0000
# 4 0.0000 0.0000 0.0000 26.6750 0.0000 0.0000
# 5 0.0000 0.0000 0.0000 0.0000 5.5384 0.0000
# 6 0.0000 0.0000 0.0000 0.0000 0.0000 37.6282
#
#
#
# Elastic Compliance Matrix: (Units=1/GPa)
#
#
# Indices 1 2 3 4 5 6 
#
# 1 0.017523 -0.008923 -0.002727 0.000000 0.000000 0.000000
# 2 -0.008923 0.024918 -0.005450 0.000000 0.000000 0.000000
# 3 -0.002727 -0.005450 0.011892 0.000000 0.000000 0.000000
# 4 0.000000 0.000000 0.000000 0.037488 0.000000 0.000000
# 5 0.000000 0.000000 0.000000 0.000000 0.180559 0.000000
# 6 0.000000 0.000000 0.000000 0.000000 0.000000 0.026576
#
#
# Mechanical properties :
#
#
# Convention : Reuss Voigt Hill
#
# Bulk Modulus (GPa) = 49.67322 52.23596 50.95459
# Shear Modulus (GPa) = 14.71157 23.47959 19.09558
#
# Velocity S-wave (km/s) = 2.66089 3.36158 3.03155
# Velocity P-wave (km/s) = 5.77470 6.34090 6.06441
#
# Compressibility (1/GPa) = 0.02013157
#
# Stress axis : x y z
#
# Youngs Moduli (GPa) = 57.06850 40.13087 84.08981
#
# Poissons Ratio (x) = 0.35810 0.22934
# Poissons Ratio (y) = 0.50924 0.45831
# Poissons Ratio (z) = 0.15565 0.21872
#
# Static dielectric constant tensor:
#      x y z
#    x 1.745440 0.000000 0.000000 
#    y 0.000000 1.829480 0.000000 
#    z 0.000000 0.000000 1.802360 
# 
# From -- ./inp_files/16259.got.cif
#   From: 2010.05.17/outbox.cif.g08.bks.cpg/sg43_9_cif.got.tgz:16259.got - 2010.06.03 19:21:55.
