data_PCOD9371229
_publ_section_title
;
Structure prediction by ZEFSAII (Michael W. Deem and Ramdas Pophale) SiO2 
 PCOD9371229
Probable space group: F D D 2
;
_chemical_formula_sum "Si O2"
_cell_formula_units_Z 88
_cell_length_a 17.003985
_cell_length_b 24.829585
_cell_length_c 8.827164
_cell_angle_alpha 90.000000
_cell_angle_beta 90.000000
_cell_angle_gamma 90.000000
_cell_volume 3726.845332
_symmetry_space_group_name_H-M "F D D 2"
_symmetry_group_IT_number 43
_symmetry_cell_setting 'orthorhombic'
loop_
_space_group_symop_operation_xyz
x,y,z
-x,-y,z
1/4-x,1/4+y,1/4+z
1/4+x,1/4-y,1/4+z
x,1/2+y,1/2+z
-x,1/2-y,1/2+z
1/4-x,3/4+y,3/4+z
1/4+x,3/4-y,3/4+z
1/2+x,y,1/2+z
1/2-x,-y,1/2+z
3/4-x,1/4+y,3/4+z
3/4+x,1/4-y,3/4+z
1/2+x,1/2+y,z
1/2-x,1/2-y,z
3/4-x,3/4+y,1/4+z
3/4+x,3/4-y,1/4+z
loop_
_atom_site_type_symbol
_atom_site_label
_atom_site_fract_x
_atom_site_fract_y
_atom_site_fract_z
Si Si1 0.921127 0.077751 0.489500
Si Si2 0.213437 0.111272 0.267434
Si Si3 0.750000 0.250000 0.001329
Si Si4 0.874754 0.807484 0.075277
Si Si5 0.824154 0.102408 0.234647
Si Si6 0.151080 0.013738 0.083416
O O1 0.903796 0.054196 0.653455
O O2 0.844131 0.101357 0.412240
O O3 0.949224 0.035006 0.365381
O O4 0.990279 0.120544 0.479327
O O5 0.194897 0.165465 0.173967
O O6 0.299815 0.098153 0.332461
O O7 0.144770 0.115009 0.397119
O O8 0.200972 0.062244 0.149460
O O9 0.686373 0.277054 0.893317
O O10 0.899019 0.751718 0.156590
O O11 0.822566 0.042997 0.160053
#
# Coordination Sequence:
#
# PCOD9371229 Si02
#       6
#    16  16   8  16  16  16
#     4  11  22  43  62 100 128 172 223 286 336 408
#     4  11  23  46  66 100 138 185 227 289 343 426
#     4  10  22  42  68  92 128 178 228 278 338 414
#     4  11  26  41  68 101 141 177 232 284 357 409
#     4  10  21  41  70  91 131 179 224 276 346 405
#     4  10  23  41  70  95 137 184 231 274 354 414
#
# _framework density 23.612465
#
# number of rings (size 3 to 8) (size 9 to 14) (size 15 to 20)
#    0.000    1.455    1.818    3.273    5.091    5.091 
#    6.545    0.000    0.000    0.000    0.000    0.000 
#    0.000    0.000    0.000    0.000    0.000    0.000 
#
# Total GULP energy -122927.070572 kJ/mol
# GULP energy per Si atom -5587.594117 kJ/mol
# Density = 2.355872 g / cm^3
# Si number density = 23.612465 Si / 1000 Ang^3
#
#
#
# Elastic Constant Matrix: (Units=GPa)
#
#
# Indices 1 2 3 4 5 6 
#
# 1 45.7779 14.5394 16.7582 0.0000 0.0000 0.0000
# 2 14.5394 62.1343 34.6698 0.0000 0.0000 0.0000
# 3 16.7582 34.6698 143.6116 0.0000 0.0000 0.0000
# 4 0.0000 0.0000 0.0000 27.7297 0.0000 0.0000
# 5 0.0000 0.0000 0.0000 0.0000 8.6354 0.0000
# 6 0.0000 0.0000 0.0000 0.0000 0.0000 23.1671
#
#
#
# Elastic Compliance Matrix: (Units=1/GPa)
#
#
# Indices 1 2 3 4 5 6 
#
# 1 0.023938 -0.004672 -0.001665 0.000000 0.000000 0.000000
# 2 -0.004672 0.019512 -0.004165 0.000000 0.000000 0.000000
# 3 -0.001665 -0.004165 0.008163 0.000000 0.000000 0.000000
# 4 0.000000 0.000000 0.000000 0.036062 0.000000 0.000000
# 5 0.000000 0.000000 0.000000 0.000000 0.115802 0.000000
# 6 0.000000 0.000000 0.000000 0.000000 0.000000 0.043165
#
#
# Mechanical properties :
#
#
# Convention : Reuss Voigt Hill
#
# Bulk Modulus (GPa) = 32.67204 42.60652 37.63928
# Shear Modulus (GPa) = 17.99533 24.27688 21.13611
#
# Velocity S-wave (km/s) = 2.76363 3.20994 2.99511
# Velocity P-wave (km/s) = 4.90412 5.64106 5.28545
#
# Compressibility (1/GPa) = 0.03060721
#
# Stress axis : x y z
#
# Youngs Moduli (GPa) = 41.77419 51.25174 122.50260
#
# Poissons Ratio (x) = 0.23946 0.20402
# Poissons Ratio (y) = 0.19518 0.51024
# Poissons Ratio (z) = 0.06957 0.21347
#
# Static dielectric constant tensor:
#      x y z
#    x 1.959800 0.000000 0.000000 
#    y 0.000000 2.279510 0.000000 
#    z 0.000000 0.000000 1.941610 
# 
# From -- ./inp_files/2904.got.cif
#   From: 2010.05.17/outbox.cif.g08.bks.cpg/sg43_2_cif.got.tgz:2904.got - 2010.06.03 19:21:55.
