data_PCOD9371433
_publ_section_title
;
Structure prediction by ZEFSAII (Michael W. Deem and Ramdas Pophale) SiO2 
 PCOD9371433
Probable space group: F D D 2
;
_chemical_formula_sum "Si O2"
_cell_formula_units_Z 72
_cell_length_a 11.099604
_cell_length_b 14.172678
_cell_length_c 18.236156
_cell_angle_alpha 90.000000
_cell_angle_beta 90.000000
_cell_angle_gamma 90.000000
_cell_volume 2868.750005
_symmetry_space_group_name_H-M "F D D 2"
_symmetry_group_IT_number 43
_symmetry_cell_setting 'orthorhombic'
loop_
_space_group_symop_operation_xyz
x,y,z
-x,-y,z
1/4-x,1/4+y,1/4+z
1/4+x,1/4-y,1/4+z
x,1/2+y,1/2+z
-x,1/2-y,1/2+z
1/4-x,3/4+y,3/4+z
1/4+x,3/4-y,3/4+z
1/2+x,y,1/2+z
1/2-x,-y,1/2+z
3/4-x,1/4+y,3/4+z
3/4+x,1/4-y,3/4+z
1/2+x,1/2+y,z
1/2-x,1/2-y,z
3/4-x,3/4+y,1/4+z
3/4+x,3/4-y,1/4+z
loop_
_atom_site_type_symbol
_atom_site_label
_atom_site_fract_x
_atom_site_fract_y
_atom_site_fract_z
Si Si1 0.849745 0.166422 0.146360
Si Si2 0.687886 0.347536 0.463239
Si Si3 0.521549 0.814312 0.077397
Si Si4 0.500000 0.000000 0.416247
Si Si5 0.288090 0.049029 0.512420
O O1 0.750000 0.250000 0.157812
O O2 0.804720 0.081681 0.095283
O O3 0.947712 0.219872 0.092255
O O4 0.932669 0.147101 0.217717
O O5 0.750000 0.250000 0.481378
O O6 0.702505 0.359917 0.376435
O O7 0.553674 0.340286 0.494953
O O8 0.750077 0.439231 0.500112
O O9 0.652835 0.805174 0.116916
O O10 0.586205 0.938739 0.468712
#
# Coordination Sequence:
#
# PCOD9371433 Si02
#       5
#    16  16  16   8  16
#     4  10  24  46  66 105 145 192 240 308 366 439
#     4  10  22  41  67 105 139 191 233 298 360 436
#     4  10  22  39  70  97 144 181 244 299 357 435
#     4   8  18  38  64 102 134 178 242 294 354 422
#     4  10  24  42  74 102 149 186 248 302 368 439
#
# _framework density 25.098039
#
# number of rings (size 3 to 8) (size 9 to 14) (size 15 to 20)
#    0.000    2.667    1.111    0.000    6.222    7.111 
#    6.000    1.111    0.000    0.000    0.000    0.000 
#    0.000    0.000    0.000    0.000    0.000    0.000 
#
# Total GULP energy -100550.947754 kJ/mol
# GULP energy per Si atom -5586.163764 kJ/mol
# Density = 2.504091 g / cm^3
# Si number density = 25.098039 Si / 1000 Ang^3
#
#
#
# Elastic Constant Matrix: (Units=GPa)
#
#
# Indices 1 2 3 4 5 6 
#
# 1 162.8749 3.9523 22.7268 0.0000 0.0000 0.0000
# 2 3.9523 71.1168 15.9474 0.0000 0.0000 0.0000
# 3 22.7268 15.9474 142.4077 0.0000 0.0000 0.0000
# 4 0.0000 0.0000 0.0000 43.0001 0.0000 0.0000
# 5 0.0000 0.0000 0.0000 0.0000 26.8983 0.0000
# 6 0.0000 0.0000 0.0000 0.0000 0.0000 15.3721
#
#
#
# Elastic Compliance Matrix: (Units=1/GPa)
#
#
# Indices 1 2 3 4 5 6 
#
# 1 0.006281 -0.000127 -0.000988 0.000000 0.000000 0.000000
# 2 -0.000127 0.014426 -0.001595 0.000000 0.000000 0.000000
# 3 -0.000988 -0.001595 0.007358 0.000000 0.000000 0.000000
# 4 0.000000 0.000000 0.000000 0.023256 0.000000 0.000000
# 5 0.000000 0.000000 0.000000 0.000000 0.037177 0.000000
# 6 0.000000 0.000000 0.000000 0.000000 0.000000 0.065053
#
#
# Mechanical properties :
#
#
# Convention : Reuss Voigt Hill
#
# Bulk Modulus (GPa) = 44.16213 51.29471 47.72842
# Shear Modulus (GPa) = 30.02634 39.30562 34.66598
#
# Velocity S-wave (km/s) = 3.46260 3.96167 3.72051
# Velocity P-wave (km/s) = 5.79829 6.43495 6.12490
#
# Compressibility (1/GPa) = 0.02264383
#
# Stress axis : x y z
#
# Youngs Moduli (GPa) = 159.21932 69.31856 135.89900
#
# Poissons Ratio (x) = 0.00884 0.13428
# Poissons Ratio (y) = 0.02030 0.21678
# Poissons Ratio (z) = 0.15732 0.11057
#
# Static dielectric constant tensor:
#      x y z
#    x 2.137600 0.000000 0.000000 
#    y 0.000000 1.952220 0.000000 
#    z 0.000000 0.000000 2.069890 
# 
# From -- ./inp_files/16936.got.cif
#   From: 2010.05.17/outbox.cif.g08.bks.cpg/sg43_9_cif.got.tgz:16936.got - 2010.06.03 19:21:55.
