data_PCOD9371808
_publ_section_title
;
Structure prediction by ZEFSAII (Michael W. Deem and Ramdas Pophale) SiO2 
 PCOD9371808
Probable space group: F D D 2
;
_chemical_formula_sum "Si O2"
_cell_formula_units_Z 96
_cell_length_a 12.293879
_cell_length_b 24.898879
_cell_length_c 15.092499
_cell_angle_alpha 90.000000
_cell_angle_beta 90.000000
_cell_angle_gamma 90.000000
_cell_volume 4619.871381
_symmetry_space_group_name_H-M "F D D 2"
_symmetry_group_IT_number 43
_symmetry_cell_setting 'orthorhombic'
loop_
_space_group_symop_operation_xyz
x,y,z
-x,-y,z
1/4-x,1/4+y,1/4+z
1/4+x,1/4-y,1/4+z
x,1/2+y,1/2+z
-x,1/2-y,1/2+z
1/4-x,3/4+y,3/4+z
1/4+x,3/4-y,3/4+z
1/2+x,y,1/2+z
1/2-x,-y,1/2+z
3/4-x,1/4+y,3/4+z
3/4+x,1/4-y,3/4+z
1/2+x,1/2+y,z
1/2-x,1/2-y,z
3/4-x,3/4+y,1/4+z
3/4+x,3/4-y,1/4+z
loop_
_atom_site_type_symbol
_atom_site_label
_atom_site_fract_x
_atom_site_fract_y
_atom_site_fract_z
Si Si1 0.742754 0.867090 0.620460
Si Si2 0.093492 0.408259 0.180764
Si Si3 0.630444 0.333966 0.525255
Si Si4 0.940114 0.185069 0.209681
Si Si5 0.006178 0.772778 0.020282
Si Si6 0.250000 0.250000 0.532375
Si Si7 0.750000 0.750000 0.803101
O O1 0.830448 0.880471 0.695529
O O2 0.627404 0.864908 0.669202
O O3 0.745162 0.910385 0.541907
O O4 0.762221 0.806760 0.584372
O O5 0.097073 0.354940 0.121839
O O6 0.210140 0.427342 0.215000
O O7 0.046045 0.452618 0.113506
O O8 0.009113 0.410043 0.261816
O O9 0.578163 0.275935 0.508311
O O10 0.849942 0.225964 0.247890
O O11 0.993980 0.212424 0.124696
O O12 0.129179 0.757725 0.991049
#
# Coordination Sequence:
#
# PCOD9371808 Si02
#       7
#    16  16  16  16  16   8   8
#     4  11  20  38  64  96 124 166 224 269 325 389
#     4  12  25  40  68  97 136 173 223 276 342 401
#     4  12  23  42  69 100 132 178 222 285 340 402
#     4  11  23  37  67  91 131 171 219 272 328 396
#     4  11  24  43  62 101 138 170 226 283 333 405
#     4  10  23  38  66  94 129 174 218 277 332 398
#     4  12  21  40  64 102 121 174 228 269 330 402
#
# _framework density 20.779798
#
# number of rings (size 3 to 8) (size 9 to 14) (size 15 to 20)
#    0.000    0.667    5.000    4.000    2.333    2.667 
#    0.000    0.000    3.667    2.000    0.000    0.000 
#    0.000    0.000    0.000    0.000    0.000    0.000 
#
# Total GULP energy -133981.864008 kJ/mol
# GULP energy per Si atom -5582.577667 kJ/mol
# Density = 2.073250 g / cm^3
# Si number density = 20.779798 Si / 1000 Ang^3
#
#
#
# Elastic Constant Matrix: (Units=GPa)
#
#
# Indices 1 2 3 4 5 6 
#
# 1 67.9203 -5.4529 10.2422 0.0000 0.0000 0.0000
# 2 -5.4529 53.0342 6.6732 0.0000 0.0000 0.0000
# 3 10.2422 6.6732 49.4834 0.0000 0.0000 0.0000
# 4 0.0000 0.0000 0.0000 42.4498 0.0000 0.0000
# 5 0.0000 0.0000 0.0000 0.0000 37.8174 0.0000
# 6 0.0000 0.0000 0.0000 0.0000 0.0000 23.6858
#
#
#
# Elastic Compliance Matrix: (Units=1/GPa)
#
#
# Indices 1 2 3 4 5 6 
#
# 1 0.015407 0.002020 -0.003461 0.000000 0.000000 0.000000
# 2 0.002020 0.019446 -0.003040 0.000000 0.000000 0.000000
# 3 -0.003461 -0.003040 0.021335 0.000000 0.000000 0.000000
# 4 0.000000 0.000000 0.000000 0.023557 0.000000 0.000000
# 5 0.000000 0.000000 0.000000 0.000000 0.026443 0.000000
# 6 0.000000 0.000000 0.000000 0.000000 0.000000 0.042219
#
#
# Mechanical properties :
#
#
# Convention : Reuss Voigt Hill
#
# Bulk Modulus (GPa) = 21.17560 21.48476 21.33018
# Shear Modulus (GPa) = 28.88273 31.38894 30.13584
#
# Velocity S-wave (km/s) = 3.73224 3.89080 3.81234
# Velocity P-wave (km/s) = 5.36520 5.52685 5.44663
#
# Compressibility (1/GPa) = 0.04722417
#
# Stress axis : x y z
#
# Youngs Moduli (GPa) = 64.90449 51.42447 46.87077
#
# Poissons Ratio (x) = -0.10386 0.16224
# Poissons Ratio (y) = -0.13109 0.14251
# Poissons Ratio (z) = 0.22466 0.15635
#
# Static dielectric constant tensor:
#      x y z
#    x 1.813950 0.000000 0.000000 
#    y 0.000000 1.757430 0.000000 
#    z 0.000000 0.000000 1.768100 
# 
# From -- ./inp_files/9739.got.cif
#   From: 2010.05.17/outbox.cif.g08.bks.cpg/sg43_5_cif.got.tgz:9739.got - 2010.06.03 19:21:55.
