data_PCOD9371103
_publ_section_title
;
Structure prediction by ZEFSAII (Michael W. Deem and Ramdas Pophale) SiO2 
 PCOD9371103
Probable space group: F D D 2
;
_chemical_formula_sum "Si O2"
_cell_formula_units_Z 96
_cell_length_a 16.673311
_cell_length_b 11.308523
_cell_length_c 25.068446
_cell_angle_alpha 90.000000
_cell_angle_beta 90.000000
_cell_angle_gamma 90.000000
_cell_volume 4726.668552
_symmetry_space_group_name_H-M "F D D 2"
_symmetry_group_IT_number 43
_symmetry_cell_setting 'orthorhombic'
loop_
_space_group_symop_operation_xyz
x,y,z
-x,-y,z
1/4-x,1/4+y,1/4+z
1/4+x,1/4-y,1/4+z
x,1/2+y,1/2+z
-x,1/2-y,1/2+z
1/4-x,3/4+y,3/4+z
1/4+x,3/4-y,3/4+z
1/2+x,y,1/2+z
1/2-x,-y,1/2+z
3/4-x,1/4+y,3/4+z
3/4+x,1/4-y,3/4+z
1/2+x,1/2+y,z
1/2-x,1/2-y,z
3/4-x,3/4+y,1/4+z
3/4+x,3/4-y,1/4+z
loop_
_atom_site_type_symbol
_atom_site_label
_atom_site_fract_x
_atom_site_fract_y
_atom_site_fract_z
Si Si1 0.324588 0.808831 0.528870
Si Si2 0.476661 0.816454 0.817368
Si Si3 0.584989 0.165792 0.930085
Si Si4 0.620001 0.161540 0.344251
Si Si5 0.000000 0.500000 0.725101
Si Si6 0.458709 0.371584 0.951428
Si Si7 0.750000 0.250000 0.266239
O O1 0.250000 0.750000 0.495052
O O2 0.330305 0.708430 0.573197
O O3 0.410924 0.824227 0.502101
O O4 0.307675 0.938274 0.551904
O O5 0.433537 0.872175 0.869111
O O6 0.568116 0.780281 0.832078
O O7 0.470854 0.898228 0.765783
O O8 0.529311 0.281524 0.936524
O O9 0.676688 0.200681 0.940413
O O10 0.556226 0.074132 0.975591
O O11 0.611972 0.140292 0.407025
O O12 0.698044 0.173700 0.307859
O O13 0.500000 0.500000 0.956102
#
# Coordination Sequence:
#
# PCOD9371103 Si02
#       7
#    16  16  16  16   8  16   8
#     4  10  21  40  65  92 125 170 214 268 330 392
#     4  10  22  42  64  90 131 169 212 276 326 396
#     4  11  24  42  66  92 132 172 218 270 337 394
#     4  10  21  39  64  91 125 166 220 268 330 393
#     4  12  23  44  62 100 130 176 219 272 338 402
#     4  11  22  41  65  95 130 169 217 273 333 400
#     4  12  21  42  66  98 124 174 219 278 330 404
#
# _framework density 20.310286999999999
#
# number of rings (size 3 to 8) (size 9 to 14) (size 15 to 20)
#    0.000    1.333    3.333    4.000    1.167    0.000 
#    4.500    1.667    0.000    0.000    0.000    0.000 
#    0.000    0.000    0.000    0.000    0.000    0.000 
#
# Total GULP energy -133681.877754 kJ/mol
# GULP energy per Si atom -5570.078240 kJ/mol
# Density = 2.026406 g / cm^3
# Si number density = 20.310287 Si / 1000 Ang^3
#
#
#
# Elastic Constant Matrix: (Units=GPa)
#
#
# Indices 1 2 3 4 5 6 
#
# 1 83.1308 6.5871 28.1147 0.0000 0.0000 0.0000
# 2 6.5871 64.9018 10.5246 0.0000 0.0000 0.0000
# 3 28.1147 10.5246 66.4801 0.0000 0.0000 0.0000
# 4 0.0000 0.0000 0.0000 16.4390 0.0000 0.0000
# 5 0.0000 0.0000 0.0000 0.0000 32.2681 0.0000
# 6 0.0000 0.0000 0.0000 0.0000 0.0000 25.9454
#
#
#
# Elastic Compliance Matrix: (Units=1/GPa)
#
#
# Indices 1 2 3 4 5 6 
#
# 1 0.014051 -0.000475 -0.005867 0.000000 0.000000 0.000000
# 2 -0.000475 0.015830 -0.002305 0.000000 0.000000 0.000000
# 3 -0.005867 -0.002305 0.017888 0.000000 0.000000 0.000000
# 4 0.000000 0.000000 0.000000 0.060831 0.000000 0.000000
# 5 0.000000 0.000000 0.000000 0.000000 0.030990 0.000000
# 6 0.000000 0.000000 0.000000 0.000000 0.000000 0.038543
#
#
# Mechanical properties :
#
#
# Convention : Reuss Voigt Hill
#
# Bulk Modulus (GPa) = 32.81371 33.88505 33.34938
# Shear Modulus (GPa) = 24.32077 26.21625 25.26851
#
# Velocity S-wave (km/s) = 3.46419 3.59665 3.53104
# Velocity P-wave (km/s) = 5.67381 5.82819 5.75151
#
# Compressibility (1/GPa) = 0.03047507
#
# Stress axis : x y z
#
# Youngs Moduli (GPa) = 71.16873 63.17153 55.90244
#
# Poissons Ratio (x) = 0.02999 0.32799
# Poissons Ratio (y) = 0.03378 0.12887
# Poissons Ratio (z) = 0.41756 0.14563
#
# Static dielectric constant tensor:
#      x y z
#    x 1.571550 0.000000 0.000000 
#    y 0.000000 1.422240 0.000000 
#    z 0.000000 0.000000 1.752150 
# 
# From -- ./inp_files/21104.got.cif
#   From: 2010.05.17/outbox.cif.g08.bks.cpg/sg43_11_cif.got.tgz:21104.got - 2010.06.03 19:21:55.
