data_PCOD9371267
_publ_section_title
;
Structure prediction by ZEFSAII (Michael W. Deem and Ramdas Pophale) SiO2 
 PCOD9371267
Probable space group: F D D 2
;
_chemical_formula_sum "Si O2"
_cell_formula_units_Z 112
_cell_length_a 23.476180
_cell_length_b 13.917183
_cell_length_c 13.995161
_cell_angle_alpha 90.000000
_cell_angle_beta 90.000000
_cell_angle_gamma 90.000000
_cell_volume 4572.531096
_symmetry_space_group_name_H-M "F D D 2"
_symmetry_group_IT_number 43
_symmetry_cell_setting 'orthorhombic'
loop_
_space_group_symop_operation_xyz
x,y,z
-x,-y,z
1/4-x,1/4+y,1/4+z
1/4+x,1/4-y,1/4+z
x,1/2+y,1/2+z
-x,1/2-y,1/2+z
1/4-x,3/4+y,3/4+z
1/4+x,3/4-y,3/4+z
1/2+x,y,1/2+z
1/2-x,-y,1/2+z
3/4-x,1/4+y,3/4+z
3/4+x,1/4-y,3/4+z
1/2+x,1/2+y,z
1/2-x,1/2-y,z
3/4-x,3/4+y,1/4+z
3/4+x,3/4-y,1/4+z
loop_
_atom_site_type_symbol
_atom_site_label
_atom_site_fract_x
_atom_site_fract_y
_atom_site_fract_z
Si Si1 0.938312 0.241811 0.012050
Si Si2 0.002752 0.858404 0.649108
Si Si3 0.000000 0.000000 0.152481
Si Si4 0.500000 0.500000 0.843130
Si Si5 0.326976 0.650346 0.746221
Si Si6 0.050848 0.311690 0.309203
Si Si7 0.145309 0.251486 0.883857
Si Si8 0.155339 0.609459 0.956087
O O1 0.908976 0.187867 0.100521
O O2 0.991060 0.296149 0.054175
O O3 0.957636 0.180226 0.920936
O O4 0.898631 0.319753 0.961661
O O5 0.012328 0.768284 0.726922
O O6 0.939879 0.911978 0.660836
O O7 0.058745 0.917965 0.611151
O O8 0.966487 0.925516 0.081820
O O9 0.042564 0.934790 0.213498
O O10 0.527008 0.418103 0.776695
O O11 0.550119 0.545689 0.905155
O O12 0.384765 0.702105 0.781522
O O13 0.351857 0.547204 0.710926
O O14 0.108043 0.287041 0.793532
#
# Coordination Sequence:
#
# PCOD9371267 Si02
#       8
#    16  16   8   8  16  16  16  16
#     4  11  24  47  74 106 156 195 250 302 385 448
#     4   9  21  45  75 112 142 190 250 310 367 453
#     4  11  22  48  70 104 151 194 255 294 376 444
#     4  11  24  40  64 102 141 172 249 292 352 426
#     4  10  21  42  70 104 137 195 236 302 362 440
#     4  11  22  44  73 104 146 192 235 315 358 449
#     4   9  20  45  76 106 147 190 250 306 373 439
#     4  11  25  49  69 108 156 198 246 312 368 463
#
# _framework density 24.494092999999999
#
# number of rings (size 3 to 8) (size 9 to 14) (size 15 to 20)
#    0.000    1.714    1.429    3.429    2.000    0.000 
#   15.429    1.429    0.000    0.000    0.000    0.000 
#    0.000    0.000    0.000    0.000    0.000    0.000 
#
# Total GULP energy -155946.274854 kJ/mol
# GULP energy per Si atom -5569.509816 kJ/mol
# Density = 2.443834 g / cm^3
# Si number density = 24.494093 Si / 1000 Ang^3
#
#
#
# Elastic Constant Matrix: (Units=GPa)
#
#
# Indices 1 2 3 4 5 6 
#
# 1 120.7166 28.5260 70.8262 0.0000 0.0000 0.0000
# 2 28.5260 70.2645 42.1009 0.0000 0.0000 0.0000
# 3 70.8262 42.1009 148.7066 0.0000 0.0000 0.0000
# 4 0.0000 0.0000 0.0000 47.9708 0.0000 0.0000
# 5 0.0000 0.0000 0.0000 0.0000 48.7618 0.0000
# 6 0.0000 0.0000 0.0000 0.0000 0.0000 45.3782
#
#
#
# Elastic Compliance Matrix: (Units=1/GPa)
#
#
# Indices 1 2 3 4 5 6 
#
# 1 0.011661 -0.001694 -0.005075 0.000000 0.000000 0.000000
# 2 -0.001694 0.017385 -0.004115 0.000000 0.000000 0.000000
# 3 -0.005075 -0.004115 0.010307 0.000000 0.000000 0.000000
# 4 0.000000 0.000000 0.000000 0.020846 0.000000 0.000000
# 5 0.000000 0.000000 0.000000 0.000000 0.020508 0.000000
# 6 0.000000 0.000000 0.000000 0.000000 0.000000 0.022037
#
#
# Mechanical properties :
#
#
# Convention : Reuss Voigt Hill
#
# Bulk Modulus (GPa) = 56.86290 69.17709 63.01999
# Shear Modulus (GPa) = 38.35126 41.63782 39.99454
#
# Velocity S-wave (km/s) = 3.96123 4.12747 4.04521
# Velocity P-wave (km/s) = 6.64734 7.14271 6.89947
#
# Compressibility (1/GPa) = 0.01758616
#
# Stress axis : x y z
#
# Youngs Moduli (GPa) = 85.75263 57.51960 97.02416
#
# Poissons Ratio (x) = 0.09742 0.49236
# Poissons Ratio (y) = 0.14524 0.39929
# Poissons Ratio (z) = 0.43516 0.23671
#
# Static dielectric constant tensor:
#      x y z
#    x 2.230900 0.000000 0.000000 
#    y 0.000000 2.033710 0.000000 
#    z 0.000000 0.000000 2.131850 
# 
# From -- ./inp_files/11284.got.cif
#   From: 2010.05.17/outbox.cif.g08.bks.cpg/sg43_6_cif.got.tgz:11284.got - 2010.06.03 19:21:55.
