data_PCOD9371804
_publ_section_title
;
Structure prediction by ZEFSAII (Michael W. Deem and Ramdas Pophale) SiO2 
 PCOD9371804
Probable space group: F D D 2
;
_chemical_formula_sum "Si O2"
_cell_formula_units_Z 72
_cell_length_a 16.371429
_cell_length_b 9.214138
_cell_length_c 21.482066
_cell_angle_alpha 90.000000
_cell_angle_beta 90.000000
_cell_angle_gamma 90.000000
_cell_volume 3240.539711
_symmetry_space_group_name_H-M "F D D 2"
_symmetry_group_IT_number 43
_symmetry_cell_setting 'orthorhombic'
loop_
_space_group_symop_operation_xyz
x,y,z
-x,-y,z
1/4-x,1/4+y,1/4+z
1/4+x,1/4-y,1/4+z
x,1/2+y,1/2+z
-x,1/2-y,1/2+z
1/4-x,3/4+y,3/4+z
1/4+x,3/4-y,3/4+z
1/2+x,y,1/2+z
1/2-x,-y,1/2+z
3/4-x,1/4+y,3/4+z
3/4+x,1/4-y,3/4+z
1/2+x,1/2+y,z
1/2-x,1/2-y,z
3/4-x,3/4+y,1/4+z
3/4+x,3/4-y,1/4+z
loop_
_atom_site_type_symbol
_atom_site_label
_atom_site_fract_x
_atom_site_fract_y
_atom_site_fract_z
Si Si1 0.782148 0.511634 0.962940
Si Si2 0.865994 0.292282 0.437091
Si Si3 0.000000 0.000000 0.304241
Si Si4 0.500000 0.000000 0.071782
Si Si5 0.250000 0.750000 0.728543
Si Si6 0.427484 0.207468 0.575504
O O1 0.856499 0.628872 0.964120
O O2 0.701399 0.609050 0.971813
O O3 0.779619 0.446920 0.892730
O O4 0.779215 0.382999 0.011260
O O5 0.827078 0.282256 0.368051
O O6 0.950170 0.378863 0.440358
O O7 0.081681 0.035894 0.341008
O O8 0.530983 0.150065 0.043299
O O9 0.310150 0.831729 0.775986
#
# Coordination Sequence:
#
# PCOD9371804 Si02
#       6
#    16  16   8   8   8  16
#     4   9  20  43  57  83 128 169 194 271 307 365
#     4   8  18  37  62  77 125 163 199 244 322 362
#     4  12  21  40  63  92 122 165 208 265 312 370
#     4   8  20  46  55  81 126 168 190 266 310 378
#     4  12  19  36  62  99 106 165 212 251 300 400
#     4  10  23  37  62  88 124 155 216 247 320 376
#
# _framework density 22.218522
#
# number of rings (size 3 to 8) (size 9 to 14) (size 15 to 20)
#    0.000    3.111    2.222    0.667    3.111    0.000 
#    8.000    0.000    0.000    0.000    0.000    0.000 
#    0.000    0.000    0.000    0.000    0.000    0.000 
#
# Total GULP energy -100274.511946 kJ/mol
# GULP energy per Si atom -5570.806219 kJ/mol
# Density = 2.216795 g / cm^3
# Si number density = 22.218522 Si / 1000 Ang^3
#
#
#
# Elastic Constant Matrix: (Units=GPa)
#
#
# Indices 1 2 3 4 5 6 
#
# 1 88.5253 18.6200 9.2163 0.0000 0.0000 0.0000
# 2 18.6200 93.4195 22.1543 0.0000 0.0000 0.0000
# 3 9.2163 22.1543 29.7377 0.0000 0.0000 0.0000
# 4 0.0000 0.0000 0.0000 19.7594 0.0000 0.0000
# 5 0.0000 0.0000 0.0000 0.0000 -1.8719 0.0000
# 6 0.0000 0.0000 0.0000 0.0000 0.0000 36.0936
#
#
#
# Elastic Compliance Matrix: (Units=1/GPa)
#
#
# Indices 1 2 3 4 5 6 
#
# 1 0.011923 -0.001822 -0.002338 0.000000 0.000000 0.000000
# 2 -0.001822 0.013280 -0.009329 0.000000 0.000000 0.000000
# 3 -0.002338 -0.009329 0.041302 0.000000 0.000000 0.000000
# 4 0.000000 0.000000 0.000000 0.050609 0.000000 0.000000
# 5 0.000000 0.000000 0.000000 0.000000 -0.534209 0.000000
# 6 0.000000 0.000000 0.000000 0.000000 0.000000 0.027706
#
#
# Mechanical properties :
#
#
# Convention : Reuss Voigt Hill
#
# Bulk Modulus (GPa) = 25.29886 34.62930 29.96408
# Shear Modulus (GPa) = -14.31694 21.57566 3.62936
#
# Velocity S-wave (km/s) = -2.54120 3.11957 1.27947
# Velocity P-wave (km/s) = 1.67358 5.34746 3.96208
#
# Compressibility (1/GPa) = 0.03952747
#
# Stress axis : x y z
#
# Youngs Moduli (GPa) = 83.87275 75.30204 24.21207
#
# Poissons Ratio (x) = 0.13720 0.05660
# Poissons Ratio (y) = 0.15282 0.22587
# Poissons Ratio (z) = 0.19607 0.70247
#
# Static dielectric constant tensor:
#      x y z
#    x 1.856310 0.000000 0.000000 
#    y 0.000000 1.876520 0.000000 
#    z 0.000000 0.000000 1.784950 
# 
# From -- ./inp_files/16187.got.cif
#   From: 2010.05.17/outbox.cif.g08.bks.cpg/sg43_9_cif.got.tgz:16187.got - 2010.06.03 19:21:55.
