data_PCOD9371973
_publ_section_title
;
Structure prediction by ZEFSAII (Michael W. Deem and Ramdas Pophale) SiO2 
 PCOD9371973
Probable space group: F D D 2
;
_chemical_formula_sum "Si O2"
_cell_formula_units_Z 88
_cell_length_a 25.440925
_cell_length_b 13.590050
_cell_length_c 10.124231
_cell_angle_alpha 90.000000
_cell_angle_beta 90.000000
_cell_angle_gamma 90.000000
_cell_volume 3500.386482
_symmetry_space_group_name_H-M "F D D 2"
_symmetry_group_IT_number 43
_symmetry_cell_setting 'orthorhombic'
loop_
_space_group_symop_operation_xyz
x,y,z
-x,-y,z
1/4-x,1/4+y,1/4+z
1/4+x,1/4-y,1/4+z
x,1/2+y,1/2+z
-x,1/2-y,1/2+z
1/4-x,3/4+y,3/4+z
1/4+x,3/4-y,3/4+z
1/2+x,y,1/2+z
1/2-x,-y,1/2+z
3/4-x,1/4+y,3/4+z
3/4+x,1/4-y,3/4+z
1/2+x,1/2+y,z
1/2-x,1/2-y,z
3/4-x,3/4+y,1/4+z
3/4+x,3/4-y,1/4+z
loop_
_atom_site_type_symbol
_atom_site_label
_atom_site_fract_x
_atom_site_fract_y
_atom_site_fract_z
Si Si1 0.825497 0.307376 0.744530
Si Si2 0.171258 0.236180 0.887376
Si Si3 0.727868 0.574330 0.461274
Si Si4 0.526250 0.120626 0.355812
Si Si5 0.000000 0.500000 0.904321
Si Si6 0.670310 0.005808 0.341606
O O1 0.816418 0.364092 0.881193
O O2 0.784451 0.361777 0.647415
O O3 0.806479 0.192931 0.723007
O O4 0.884330 0.306164 0.692927
O O5 0.197175 0.257049 0.744212
O O6 0.173464 0.118395 0.886410
O O7 0.206239 0.304831 0.981389
O O8 0.114441 0.256384 0.956926
O O9 0.714509 0.478649 0.547164
O O10 0.749625 0.654486 0.562543
O O11 0.770648 0.534434 0.354492
#
# Coordination Sequence:
#
# PCOD9371973 Si02
#       6
#    16  16  16  16   8  16
#     4  10  23  46  80 111 152 214 267 316 419 488
#     4  11  26  47  77 107 153 204 274 311 421 484
#     4  12  27  46  84 112 164 206 270 342 403 480
#     4  10  23  49  76 103 150 214 256 328 407 481
#     4  12  28  50  66 126 156 202 260 338 398 496
#     4  11  25  48  78 111 148 214 271 331 392 500
#
# _framework density 25.140082
#
# number of rings (size 3 to 8) (size 9 to 14) (size 15 to 20)
#    0.000    1.091    0.000    7.636   15.273    0.000 
#    9.818    0.000    0.000    0.000    0.000    0.000 
#    0.000    0.000    0.000    0.000    0.000    0.000 
#
# Total GULP energy -122657.332546 kJ/mol
# GULP energy per Si atom -5575.333298 kJ/mol
# Density = 2.508286 g / cm^3
# Si number density = 25.140082 Si / 1000 Ang^3
#
#
#
# Elastic Constant Matrix: (Units=GPa)
#
#
# Indices 1 2 3 4 5 6 
#
# 1 94.1528 49.7559 35.0818 0.0000 0.0000 0.0000
# 2 49.7559 196.5957 76.5245 0.0000 0.0000 0.0000
# 3 35.0818 76.5245 88.2541 0.0000 0.0000 0.0000
# 4 0.0000 0.0000 0.0000 45.8235 0.0000 0.0000
# 5 0.0000 0.0000 0.0000 0.0000 62.8108 0.0000
# 6 0.0000 0.0000 0.0000 0.0000 0.0000 26.5963
#
#
#
# Elastic Compliance Matrix: (Units=1/GPa)
#
#
# Indices 1 2 3 4 5 6 
#
# 1 0.012931 -0.001920 -0.003475 0.000000 0.000000 0.000000
# 2 -0.001920 0.007963 -0.006142 0.000000 0.000000 0.000000
# 3 -0.003475 -0.006142 0.018038 0.000000 0.000000 0.000000
# 4 0.000000 0.000000 0.000000 0.021823 0.000000 0.000000
# 5 0.000000 0.000000 0.000000 0.000000 0.015921 0.000000
# 6 0.000000 0.000000 0.000000 0.000000 0.000000 0.037599
#
#
# Mechanical properties :
#
#
# Convention : Reuss Voigt Hill
#
# Bulk Modulus (GPa) = 63.06030 77.96968 70.51499
# Shear Modulus (GPa) = 35.05487 41.55547 38.30517
#
# Velocity S-wave (km/s) = 3.73819 4.07007 3.90766
# Velocity P-wave (km/s) = 6.61590 7.29169 6.96200
#
# Compressibility (1/GPa) = 0.01585784
#
# Stress axis : x y z
#
# Youngs Moduli (GPa) = 77.33652 125.58011 55.43933
#
# Poissons Ratio (x) = 0.24108 0.19267
# Poissons Ratio (y) = 0.14847 0.34048
# Poissons Ratio (z) = 0.26877 0.77126
#
# Static dielectric constant tensor:
#      x y z
#    x 2.071890 0.000000 0.000000 
#    y 0.000000 1.983300 0.000000 
#    z 0.000000 0.000000 2.099680 
# 
# From -- ./inp_files/8214.got.cif
#   From: 2010.05.17/outbox.cif.g08.bks.cpg/sg43_5_cif.got.tgz:8214.got - 2010.06.03 19:21:55.
