data_PCOD9371242
_publ_section_title
;
Structure prediction by ZEFSAII (Michael W. Deem and Ramdas Pophale) SiO2 
 PCOD9371242
Probable space group: F D D 2
;
_chemical_formula_sum "Si O2"
_cell_formula_units_Z 120
_cell_length_a 24.314221
_cell_length_b 24.053462
_cell_length_c 8.794548
_cell_angle_alpha 90.000000
_cell_angle_beta 90.000000
_cell_angle_gamma 90.000000
_cell_volume 5143.413926
_symmetry_space_group_name_H-M "F D D 2"
_symmetry_group_IT_number 43
_symmetry_cell_setting 'orthorhombic'
loop_
_space_group_symop_operation_xyz
x,y,z
-x,-y,z
1/4-x,1/4+y,1/4+z
1/4+x,1/4-y,1/4+z
x,1/2+y,1/2+z
-x,1/2-y,1/2+z
1/4-x,3/4+y,3/4+z
1/4+x,3/4-y,3/4+z
1/2+x,y,1/2+z
1/2-x,-y,1/2+z
3/4-x,1/4+y,3/4+z
3/4+x,1/4-y,3/4+z
1/2+x,1/2+y,z
1/2-x,1/2-y,z
3/4-x,3/4+y,1/4+z
3/4+x,3/4-y,1/4+z
loop_
_atom_site_type_symbol
_atom_site_label
_atom_site_fract_x
_atom_site_fract_y
_atom_site_fract_z
Si Si1 0.786589 0.375898 0.899830
Si Si2 0.027047 0.100828 0.434621
Si Si3 0.078969 0.777597 0.360739
Si Si4 0.750000 0.750000 0.888586
Si Si5 0.892292 0.054650 0.761028
Si Si6 0.888833 0.304122 0.855772
Si Si7 0.279834 0.964166 0.652431
Si Si8 0.568649 0.841264 0.122116
O O1 0.827082 0.324524 0.877894
O O2 0.768855 0.408907 0.749234
O O3 0.738966 0.352160 0.006790
O O4 0.819195 0.427505 0.981752
O O5 0.032785 0.042828 0.524874
O O6 0.075441 0.146240 0.432708
O O7 0.972035 0.123549 0.516806
O O8 0.111504 0.720194 0.361334
O O9 0.106451 0.808301 0.504988
O O10 0.018271 0.758961 0.414603
O O11 0.795801 0.779996 0.994437
O O12 0.897683 0.120168 0.734638
O O13 0.859887 0.047390 0.920555
O O14 0.912834 0.247349 0.927007
O O15 0.281469 0.946880 0.477424
#
# Coordination Sequence:
#
# PCOD9371242 Si02
#       8
#    16  16  16   8  16  16  16  16
#     4  11  24  39  66 106 131 173 231 280 354 399
#     4  10  23  45  68  97 140 179 231 288 334 419
#     4  11  22  41  69  95 126 181 233 276 341 409
#     4  10  24  48  70  96 148 190 228 280 360 432
#     4  11  23  44  67  98 138 182 231 280 342 423
#     4  12  23  40  69 101 141 173 230 293 344 408
#     4  12  22  42  67  99 140 176 229 288 339 410
#     4  10  21  42  62  97 133 174 228 279 334 409
#
# _framework density 23.330808000000001
#
# number of rings (size 3 to 8) (size 9 to 14) (size 15 to 20)
#    0.000    1.067    5.333    2.400    0.000    4.267 
#    4.800    2.000    0.000    0.000    0.000    0.000 
#    0.000    0.000    0.000    0.000    0.000    0.000 
#
# Total GULP energy -167151.470595 kJ/mol
# GULP energy per Si atom -5571.715687 kJ/mol
# Density = 2.327771 g / cm^3
# Si number density = 23.330808 Si / 1000 Ang^3
#
#
#
# Elastic Constant Matrix: (Units=GPa)
#
#
# Indices 1 2 3 4 5 6 
#
# 1 26.0410 2.9700 -6.6220 -0.0003 0.0004 0.0001
# 2 2.9700 52.4368 10.7967 -0.0003 0.0004 0.0000
# 3 -6.6220 10.7967 63.0217 -0.0020 0.0018 0.0002
# 4 -0.0003 -0.0003 -0.0020 29.5549 0.0006 0.0001
# 5 0.0004 0.0004 0.0018 0.0006 27.1658 -0.0006
# 6 0.0001 0.0000 0.0002 0.0001 -0.0006 27.0973
#
#
#
# Elastic Compliance Matrix: (Units=1/GPa)
#
#
# Indices 1 2 3 4 5 6 
#
# 1 0.039981 -0.003244 0.004757 0.000001 -0.000001 0.000000
# 2 -0.003244 0.020031 -0.003773 0.000000 0.000000 0.000000
# 3 0.004757 -0.003773 0.017014 0.000001 -0.000001 0.000000
# 4 0.000001 0.000000 0.000001 0.033835 -0.000001 0.000000
# 5 -0.000001 0.000000 -0.000001 -0.000001 0.036811 0.000001
# 6 0.000000 0.000000 0.000000 0.000000 0.000001 0.036904
#
#
# Mechanical properties :
#
#
# Convention : Reuss Voigt Hill
#
# Bulk Modulus (GPa) = 13.79200 17.30988 15.55094
# Shear Modulus (GPa) = 23.44516 25.72059 24.58288
#
# Velocity S-wave (km/s) = 3.17346 3.32389 3.24954
# Velocity P-wave (km/s) = 4.39910 4.70812 4.55623
#
# Compressibility (1/GPa) = 0.07250581
#
# Stress axis : x y z
#
# Youngs Moduli (GPa) = 25.01219 49.92249 58.77631
#
# Poissons Ratio (x) = 0.16194 -0.27958
# Poissons Ratio (y) = 0.08114 0.22173
# Poissons Ratio (z) = -0.11897 0.18833
#
# Static dielectric constant tensor:
#      x y z
#    x 1.916050 0.000000 0.000000 
#    y 0.000000 1.919950 0.000000 
#    z 0.000000 0.000000 1.909140 
# 
# From -- ./inp_files/3904.got.cif
#   From: 2010.05.17/outbox.cif.g08.bks.cpg/sg43_2_cif.got.tgz:3904.got - 2010.06.03 19:21:55.
