data_PCOD9371952
_publ_section_title
;
Structure prediction by ZEFSAII (Michael W. Deem and Ramdas Pophale) SiO2 
 PCOD9371952
Probable space group: F D D 2
;
_chemical_formula_sum "Si O2"
_cell_formula_units_Z 88
_cell_length_a 18.905934
_cell_length_b 14.754066
_cell_length_c 12.342933
_cell_angle_alpha 90.000000
_cell_angle_beta 90.000000
_cell_angle_gamma 90.000000
_cell_volume 3442.930301
_symmetry_space_group_name_H-M "F D D 2"
_symmetry_group_IT_number 43
_symmetry_cell_setting 'orthorhombic'
loop_
_space_group_symop_operation_xyz
x,y,z
-x,-y,z
1/4-x,1/4+y,1/4+z
1/4+x,1/4-y,1/4+z
x,1/2+y,1/2+z
-x,1/2-y,1/2+z
1/4-x,3/4+y,3/4+z
1/4+x,3/4-y,3/4+z
1/2+x,y,1/2+z
1/2-x,-y,1/2+z
3/4-x,1/4+y,3/4+z
3/4+x,1/4-y,3/4+z
1/2+x,1/2+y,z
1/2-x,1/2-y,z
3/4-x,3/4+y,1/4+z
3/4+x,3/4-y,1/4+z
loop_
_atom_site_type_symbol
_atom_site_label
_atom_site_fract_x
_atom_site_fract_y
_atom_site_fract_z
Si Si1 0.359663 0.047098 0.974530
Si Si2 0.500000 0.000000 0.839345
Si Si3 0.591798 0.159106 0.811664
Si Si4 0.284783 0.454565 0.225361
Si Si5 0.708958 0.583924 0.979667
Si Si6 0.117563 0.253569 0.954006
O O1 0.281679 0.053612 0.921574
O O2 0.366599 0.152090 0.009504
O O3 0.431178 0.025246 0.910943
O O4 0.351944 0.980260 0.076233
O O5 0.470334 0.911456 0.778526
O O6 0.663807 0.103198 0.801157
O O7 0.571385 0.201633 0.929596
O O8 0.592895 0.247246 0.735073
O O9 0.203530 0.465212 0.255890
O O10 0.277826 0.403571 0.108818
O O11 0.678666 0.679841 0.946927
#
# Coordination Sequence:
#
# PCOD9371952 Si02
#       6
#    16   8  16  16  16  16
#     4  11  24  42  65 101 134 181 225 290 346 415
#     4  12  24  44  70  94 150 176 238 288 354 430
#     4  10  23  46  65 101 138 183 227 288 353 424
#     4   9  22  45  62 101 136 177 228 280 353 416
#     4   9  23  43  66  99 134 176 234 282 347 417
#     4  11  23  43  68  97 138 174 236 285 350 416
#
# _framework density 25.559622999999998
#
# number of rings (size 3 to 8) (size 9 to 14) (size 15 to 20)
#    1.091    0.727    1.818    0.545    5.091    5.091 
#    3.273    0.000    0.000    0.000    0.000    0.000 
#    0.000    0.000    0.000    0.000    0.000    0.000 
#
# Total GULP energy -122794.165791 kJ/mol
# GULP energy per Si atom -5581.552990 kJ/mol
# Density = 2.550145 g / cm^3
# Si number density = 25.559623 Si / 1000 Ang^3
#
#
#
# Elastic Constant Matrix: (Units=GPa)
#
#
# Indices 1 2 3 4 5 6 
#
# 1 147.1441 34.8088 3.3723 0.0000 0.0000 0.0000
# 2 34.8088 111.5905 6.1468 0.0000 0.0000 0.0000
# 3 3.3723 6.1468 46.7951 0.0000 0.0000 0.0000
# 4 0.0000 0.0000 0.0000 21.6211 0.0000 0.0000
# 5 0.0000 0.0000 0.0000 0.0000 41.8038 0.0000
# 6 0.0000 0.0000 0.0000 0.0000 0.0000 59.2984
#
#
#
# Elastic Compliance Matrix: (Units=1/GPa)
#
#
# Indices 1 2 3 4 5 6 
#
# 1 0.007340 -0.002277 -0.000230 0.000000 0.000000 0.000000
# 2 -0.002277 0.009733 -0.001114 0.000000 0.000000 0.000000
# 3 -0.000230 -0.001114 0.021533 0.000000 0.000000 0.000000
# 4 0.000000 0.000000 0.000000 0.046251 0.000000 0.000000
# 5 0.000000 0.000000 0.000000 0.000000 0.023921 0.000000
# 6 0.000000 0.000000 0.000000 0.000000 0.000000 0.016864
#
#
# Mechanical properties :
#
#
# Convention : Reuss Voigt Hill
#
# Bulk Modulus (GPa) = 31.88440 43.79837 37.84139
# Shear Modulus (GPa) = 34.88241 41.95811 38.42026
#
# Velocity S-wave (km/s) = 3.69826 4.05603 3.88127
# Velocity P-wave (km/s) = 5.54416 6.25365 5.90956
#
# Compressibility (1/GPa) = 0.03136330
#
# Stress axis : x y z
#
# Youngs Moduli (GPa) = 136.24058 102.74362 46.44095
#
# Poissons Ratio (x) = 0.23394 0.01068
# Poissons Ratio (y) = 0.31021 0.05175
# Poissons Ratio (z) = 0.03132 0.11450
#
# Static dielectric constant tensor:
#      x y z
#    x 2.041180 0.000000 0.000000 
#    y 0.000000 2.075620 0.000000 
#    z 0.000000 0.000000 2.192960 
# 
# From -- ./inp_files/10887.got.cif
#   From: 2010.05.17/outbox.cif.g08.bks.cpg/sg43_6_cif.got.tgz:10887.got - 2010.06.03 19:21:55.
