data_PCOD9371629
_publ_section_title
;
Structure prediction by ZEFSAII (Michael W. Deem and Ramdas Pophale) SiO2 
 PCOD9371629
Probable space group: F D D 2
;
_chemical_formula_sum "Si O2"
_cell_formula_units_Z 80
_cell_length_a 11.457688
_cell_length_b 23.627561
_cell_length_c 13.151381
_cell_angle_alpha 90.000000
_cell_angle_beta 90.000000
_cell_angle_gamma 90.000000
_cell_volume 3560.305332
_symmetry_space_group_name_H-M "F D D 2"
_symmetry_group_IT_number 43
_symmetry_cell_setting 'orthorhombic'
loop_
_space_group_symop_operation_xyz
x,y,z
-x,-y,z
1/4-x,1/4+y,1/4+z
1/4+x,1/4-y,1/4+z
x,1/2+y,1/2+z
-x,1/2-y,1/2+z
1/4-x,3/4+y,3/4+z
1/4+x,3/4-y,3/4+z
1/2+x,y,1/2+z
1/2-x,-y,1/2+z
3/4-x,1/4+y,3/4+z
3/4+x,1/4-y,3/4+z
1/2+x,1/2+y,z
1/2-x,1/2-y,z
3/4-x,3/4+y,1/4+z
3/4+x,3/4-y,1/4+z
loop_
_atom_site_type_symbol
_atom_site_label
_atom_site_fract_x
_atom_site_fract_y
_atom_site_fract_z
Si Si1 0.830841 0.962759 0.063660
Si Si2 0.500000 0.000000 0.400663
Si Si3 0.349999 0.947818 0.063816
Si Si4 0.474348 0.397994 0.745915
Si Si5 0.737238 0.158409 0.147751
Si Si6 0.750000 0.750000 0.489223
O O1 0.820977 0.899377 0.019671
O O2 0.907312 0.969314 0.165512
O O3 0.706215 0.991796 0.082018
O O4 0.890070 0.000573 0.975918
O O5 0.515499 0.055278 0.332273
O O6 0.454428 0.933338 0.142253
O O7 0.249840 0.901309 0.090191
O O8 0.402132 0.935360 0.953147
O O9 0.357405 0.359735 0.732405
O O10 0.693232 0.203077 0.063778
#
# Coordination Sequence:
#
# PCOD9371629 Si02
#       6
#    16   8  16  16  16   8
#     4  11  25  45  69 102 138 179 226 282 339 404
#     4  11  26  47  68 100 136 179 232 279 342 400
#     4  10  23  42  69  97 134 173 226 271 338 397
#     4  10  25  43  69  99 135 180 227 284 333 410
#     4  10  22  43  67  99 134 175 223 275 332 403
#     4  11  24  41  72 104 138 179 224 279 342 404
#
# _framework density 22.469982999999999
#
# number of rings (size 3 to 8) (size 9 to 14) (size 15 to 20)
#    1.200    0.400    0.000    3.600    2.800    5.600 
#    0.000    0.000    0.000    0.000    0.000    0.000 
#    0.000    0.000    0.000    0.000    0.000    0.000 
#
# Total GULP energy -111394.157342 kJ/mol
# GULP energy per Si atom -5569.707867 kJ/mol
# Density = 2.241884 g / cm^3
# Si number density = 22.469983 Si / 1000 Ang^3
#
#
#
# Elastic Constant Matrix: (Units=GPa)
#
#
# Indices 1 2 3 4 5 6 
#
# 1 63.7016 34.5371 41.5317 0.0000 0.0000 0.0000
# 2 34.5371 124.3763 59.1819 0.0000 0.0000 0.0000
# 3 41.5317 59.1819 115.1657 0.0000 0.0000 0.0000
# 4 0.0000 0.0000 0.0000 16.2790 0.0000 0.0000
# 5 0.0000 0.0000 0.0000 0.0000 17.8779 0.0000
# 6 0.0000 0.0000 0.0000 0.0000 0.0000 21.6305
#
#
#
# Elastic Compliance Matrix: (Units=1/GPa)
#
#
# Indices 1 2 3 4 5 6 
#
# 1 0.021335 -0.002996 -0.006154 0.000000 0.000000 0.000000
# 2 -0.002996 0.011063 -0.004605 0.000000 0.000000 0.000000
# 3 -0.006154 -0.004605 0.013269 0.000000 0.000000 0.000000
# 4 0.000000 0.000000 0.000000 0.061429 0.000000 0.000000
# 5 0.000000 0.000000 0.000000 0.000000 0.055935 0.000000
# 6 0.000000 0.000000 0.000000 0.000000 0.000000 0.046231
#
#
# Mechanical properties :
#
#
# Convention : Reuss Voigt Hill
#
# Bulk Modulus (GPa) = 55.07562 63.74945 59.41253
# Shear Modulus (GPa) = 20.59103 22.35700 21.47402
#
# Velocity S-wave (km/s) = 3.03046 3.15774 3.09475
# Velocity P-wave (km/s) = 6.06703 6.45969 6.26644
#
# Compressibility (1/GPa) = 0.01815685
#
# Stress axis : x y z
#
# Youngs Moduli (GPa) = 46.87136 90.39053 75.36424
#
# Poissons Ratio (x) = 0.27080 0.46382
# Poissons Ratio (y) = 0.14042 0.34703
# Poissons Ratio (z) = 0.28847 0.41623
#
# Static dielectric constant tensor:
#      x y z
#    x 1.913910 0.000000 0.000000 
#    y 0.000000 1.860950 0.000000 
#    z 0.000000 0.000000 1.818200 
# 
# From -- ./inp_files/6121.got.cif
#   From: 2010.05.17/outbox.cif.g08.bks.cpg/sg43_4_cif.got.tgz:6121.got - 2010.06.03 19:21:55.
