data_PCOD9371032
_publ_section_title
;
Structure prediction by ZEFSAII (Michael W. Deem and Ramdas Pophale) SiO2 
 PCOD9371032
Probable space group: F D D 2
;
_chemical_formula_sum "Si O2"
_cell_formula_units_Z 112
_cell_length_a 15.196849
_cell_length_b 16.386094
_cell_length_c 21.715189
_cell_angle_alpha 90.000000
_cell_angle_beta 90.000000
_cell_angle_gamma 90.000000
_cell_volume 5407.451137
_symmetry_space_group_name_H-M "F D D 2"
_symmetry_group_IT_number 43
_symmetry_cell_setting 'orthorhombic'
loop_
_space_group_symop_operation_xyz
x,y,z
-x,-y,z
1/4-x,1/4+y,1/4+z
1/4+x,1/4-y,1/4+z
x,1/2+y,1/2+z
-x,1/2-y,1/2+z
1/4-x,3/4+y,3/4+z
1/4+x,3/4-y,3/4+z
1/2+x,y,1/2+z
1/2-x,-y,1/2+z
3/4-x,1/4+y,3/4+z
3/4+x,1/4-y,3/4+z
1/2+x,1/2+y,z
1/2-x,1/2-y,z
3/4-x,3/4+y,1/4+z
3/4+x,3/4-y,1/4+z
loop_
_atom_site_type_symbol
_atom_site_label
_atom_site_fract_x
_atom_site_fract_y
_atom_site_fract_z
Si Si1 0.148138 0.729315 0.694740
Si Si2 0.876261 0.488218 0.303195
Si Si3 0.998598 0.675265 0.960390
Si Si4 0.500000 0.000000 0.202660
Si Si5 0.343908 0.711373 0.925489
Si Si6 0.000000 0.500000 0.005743
Si Si7 0.606979 0.228289 0.360060
Si Si8 0.926174 0.674487 0.302827
O O1 0.250000 0.750000 0.712576
O O2 0.140575 0.766773 0.625624
O O3 0.121731 0.632679 0.692702
O O4 0.081565 0.773190 0.741262
O O5 0.786865 0.453163 0.277546
O O6 0.942289 0.449476 0.252004
O O7 0.888584 0.584370 0.291104
O O8 0.086159 0.726199 0.952493
O O9 0.937251 0.701897 0.902650
O O10 0.005609 0.579430 0.964185
O O11 0.433938 0.049892 0.158142
O O12 0.250000 0.750000 0.941479
O O13 0.359068 0.713197 0.852132
O O14 0.085945 0.499255 0.050105
O O15 0.521650 0.177584 0.337154
#
# Coordination Sequence:
#
# PCOD9371032 Si02
#       8
#    16  16  16   8  16   8  16  16
#     4  11  22  38  69 101 131 179 230 284 345 421
#     4  10  21  37  65 101 129 173 224 295 343 396
#     4  10  23  43  65  93 135 175 225 284 339 409
#     4   9  18  38  60  88 136 166 219 284 346 385
#     4  10  23  43  65  94 140 182 221 282 346 415
#     4  11  24  42  68  94 134 174 235 270 352 411
#     4   9  22  40  62  93 127 177 217 285 334 407
#     4  10  22  39  64  95 135 175 229 276 349 411
#
# _framework density 20.712160999999998
#
# number of rings (size 3 to 8) (size 9 to 14) (size 15 to 20)
#    0.000    2.000    0.714    1.286    6.000    6.857 
#    0.000    2.857    0.000    0.000    0.000    0.000 
#    0.000    0.000    0.000    0.000    0.000    0.000 
#
# Total GULP energy -155898.959475 kJ/mol
# GULP energy per Si atom -5567.819981 kJ/mol
# Density = 2.066502 g / cm^3
# Si number density = 20.712161 Si / 1000 Ang^3
#
#
#
# Elastic Constant Matrix: (Units=GPa)
#
#
# Indices 1 2 3 4 5 6 
#
# 1 92.7816 51.1807 13.3338 0.0000 0.0000 0.0000
# 2 51.1807 145.2364 58.6645 0.0000 0.0000 0.0000
# 3 13.3338 58.6645 80.7729 0.0000 0.0000 0.0000
# 4 0.0000 0.0000 0.0000 36.5944 0.0000 0.0000
# 5 0.0000 0.0000 0.0000 0.0000 13.8780 0.0000
# 6 0.0000 0.0000 0.0000 0.0000 0.0000 16.6365
#
#
#
# Elastic Compliance Matrix: (Units=1/GPa)
#
#
# Indices 1 2 3 4 5 6 
#
# 1 0.013550 -0.005479 0.001742 0.000000 0.000000 0.000000
# 2 -0.005479 0.011959 -0.007781 0.000000 0.000000 0.000000
# 3 0.001742 -0.007781 0.017744 0.000000 0.000000 0.000000
# 4 0.000000 0.000000 0.000000 0.027327 0.000000 0.000000
# 5 0.000000 0.000000 0.000000 0.000000 0.072057 0.000000
# 6 0.000000 0.000000 0.000000 0.000000 0.000000 0.060109
#
#
# Mechanical properties :
#
#
# Convention : Reuss Voigt Hill
#
# Bulk Modulus (GPa) = 49.46145 62.79433 56.12789
# Shear Modulus (GPa) = 21.50356 26.46256 23.98306
#
# Velocity S-wave (km/s) = 3.22562 3.57828 3.40652
# Velocity P-wave (km/s) = 6.14858 6.88880 6.52919
#
# Compressibility (1/GPa) = 0.02021776
#
# Stress axis : x y z
#
# Youngs Moduli (GPa) = 73.80207 83.61875 56.35621
#
# Poissons Ratio (x) = 0.45812 -0.09819
# Poissons Ratio (y) = 0.40433 0.43853
# Poissons Ratio (z) = -0.12859 0.65066
#
# Static dielectric constant tensor:
#      x y z
#    x 1.857240 0.000000 0.000000 
#    y 0.000000 1.736880 0.000000 
#    z 0.000000 0.000000 1.761120 
# 
# From -- ./inp_files/21753.got.cif
#   From: 2010.05.17/outbox.cif.g08.bks.cpg/sg43_11_cif.got.tgz:21753.got - 2010.06.03 19:21:55.
