data_PCOD9371077
_publ_section_title
;
Structure prediction by ZEFSAII (Michael W. Deem and Ramdas Pophale) SiO2 
 PCOD9371077
Probable space group: F D D 2
;
_chemical_formula_sum "Si O2"
_cell_formula_units_Z 112
_cell_length_a 11.056998
_cell_length_b 15.946252
_cell_length_c 27.982837
_cell_angle_alpha 90.000000
_cell_angle_beta 90.000000
_cell_angle_gamma 90.000000
_cell_volume 4933.868801
_symmetry_space_group_name_H-M "F D D 2"
_symmetry_group_IT_number 43
_symmetry_cell_setting 'orthorhombic'
loop_
_space_group_symop_operation_xyz
x,y,z
-x,-y,z
1/4-x,1/4+y,1/4+z
1/4+x,1/4-y,1/4+z
x,1/2+y,1/2+z
-x,1/2-y,1/2+z
1/4-x,3/4+y,3/4+z
1/4+x,3/4-y,3/4+z
1/2+x,y,1/2+z
1/2-x,-y,1/2+z
3/4-x,1/4+y,3/4+z
3/4+x,1/4-y,3/4+z
1/2+x,1/2+y,z
1/2-x,1/2-y,z
3/4-x,3/4+y,1/4+z
3/4+x,3/4-y,1/4+z
loop_
_atom_site_type_symbol
_atom_site_label
_atom_site_fract_x
_atom_site_fract_y
_atom_site_fract_z
Si Si1 0.118236 0.293375 0.525330
Si Si2 0.127931 0.479928 0.512089
Si Si3 0.776529 0.567504 0.940492
Si Si4 0.111572 0.753297 0.875459
Si Si5 0.315135 0.658925 0.616628
Si Si6 0.626867 0.305309 0.506416
Si Si7 0.605209 0.567913 0.382508
O O1 0.250000 0.250000 0.524632
O O2 0.146109 0.382792 0.502181
O O3 0.081439 0.313496 0.580621
O O4 0.000639 0.245617 0.505497
O O5 0.212053 0.548122 0.489786
O O6 0.128794 0.496248 0.568207
O O7 0.000000 0.500000 0.489985
O O8 0.683800 0.599274 0.900236
O O9 0.815175 0.475311 0.922648
O O10 0.874749 0.631503 0.961171
O O11 0.250000 0.750000 0.894731
O O12 0.062262 0.662139 0.890155
O O13 0.029005 0.835300 0.882124
O O14 0.250000 0.750000 0.622345
O O15 0.358227 0.656435 0.560608
O O16 0.750000 0.250000 0.500056
O O17 0.500000 0.500000 0.378415
#
# Coordination Sequence:
#
# PCOD9371077 Si02
#       7
#    16  16  16  16  16  16  16
#     4  10  22  45  71  98 143 197 240 303 384 450
#     4  10  21  38  66 100 135 185 250 301 364 442
#     4  12  23  41  68 105 144 191 251 321 369 451
#     4  10  21  41  70  99 135 196 247 300 371 454
#     4  11  23  41  70 110 154 197 255 317 390 456
#     4  11  24  42  72 111 149 197 251 320 389 452
#     4  10  23  42  66  95 143 189 243 302 373 445
#
# _framework density 22.700237999999999
#
# number of rings (size 3 to 8) (size 9 to 14) (size 15 to 20)
#    0.000    1.429    2.857    2.143    8.000    2.286 
#    0.000    5.000    0.000    0.000    0.000    0.000 
#    0.000    0.000    0.000    0.000    0.000    0.000 
#
# Total GULP energy -156109.789517 kJ/mol
# GULP energy per Si atom -5575.349626 kJ/mol
# Density = 2.264857 g / cm^3
# Si number density = 22.700238 Si / 1000 Ang^3
#
#
#
# Elastic Constant Matrix: (Units=GPa)
#
#
# Indices 1 2 3 4 5 6 
#
# 1 69.4171 31.7415 25.7153 0.0000 0.0000 0.0000
# 2 31.7415 135.1421 31.7065 0.0000 0.0000 0.0000
# 3 25.7153 31.7065 92.5622 0.0000 0.0000 0.0000
# 4 0.0000 0.0000 0.0000 43.6013 0.0000 0.0000
# 5 0.0000 0.0000 0.0000 0.0000 38.4806 0.0000
# 6 0.0000 0.0000 0.0000 0.0000 0.0000 42.5853
#
#
#
# Elastic Compliance Matrix: (Units=1/GPa)
#
#
# Indices 1 2 3 4 5 6 
#
# 1 0.017229 -0.003179 -0.003698 0.000000 0.000000 0.000000
# 2 -0.003179 0.008633 -0.002074 0.000000 0.000000 0.000000
# 3 -0.003698 -0.002074 0.012541 0.000000 0.000000 0.000000
# 4 0.000000 0.000000 0.000000 0.022935 0.000000 0.000000
# 5 0.000000 0.000000 0.000000 0.000000 0.025987 0.000000
# 6 0.000000 0.000000 0.000000 0.000000 0.000000 0.023482
#
#
# Mechanical properties :
#
#
# Convention : Reuss Voigt Hill
#
# Bulk Modulus (GPa) = 48.77582 52.82755 50.80168
# Shear Modulus (GPa) = 36.88868 38.79731 37.84300
#
# Velocity S-wave (km/s) = 4.03555 4.13863 4.08741
# Velocity P-wave (km/s) = 6.57630 6.79411 6.68609
#
# Compressibility (1/GPa) = 0.02050196
#
# Stress axis : x y z
#
# Youngs Moduli (GPa) = 58.04133 115.83591 79.73729
#
# Poissons Ratio (x) = 0.36826 0.29483
# Poissons Ratio (y) = 0.18452 0.16537
# Poissons Ratio (z) = 0.21461 0.24023
#
# Static dielectric constant tensor:
#      x y z
#    x 1.843780 0.000000 0.000000 
#    y 0.000000 1.852160 0.000000 
#    z 0.000000 0.000000 1.894750 
# 
# From -- ./inp_files/28633.got.cif
#   From: 2010.05.17/outbox.cif.g08.bks.cpg/sg43_15_cif.got.tgz:28633.got - 2010.06.03 19:21:55.
