data_PCOD9371283
_publ_section_title
;
Structure prediction by ZEFSAII (Michael W. Deem and Ramdas Pophale) SiO2 
 PCOD9371283
Probable space group: F D D 2
;
_chemical_formula_sum "Si O2"
_cell_formula_units_Z 96
_cell_length_a 14.420716
_cell_length_b 18.848505
_cell_length_c 14.913187
_cell_angle_alpha 90.000000
_cell_angle_beta 90.000000
_cell_angle_gamma 90.000000
_cell_volume 4053.537515
_symmetry_space_group_name_H-M "F D D 2"
_symmetry_group_IT_number 43
_symmetry_cell_setting 'orthorhombic'
loop_
_space_group_symop_operation_xyz
x,y,z
-x,-y,z
1/4-x,1/4+y,1/4+z
1/4+x,1/4-y,1/4+z
x,1/2+y,1/2+z
-x,1/2-y,1/2+z
1/4-x,3/4+y,3/4+z
1/4+x,3/4-y,3/4+z
1/2+x,y,1/2+z
1/2-x,-y,1/2+z
3/4-x,1/4+y,3/4+z
3/4+x,1/4-y,3/4+z
1/2+x,1/2+y,z
1/2-x,1/2-y,z
3/4-x,3/4+y,1/4+z
3/4+x,3/4-y,1/4+z
loop_
_atom_site_type_symbol
_atom_site_label
_atom_site_fract_x
_atom_site_fract_y
_atom_site_fract_z
Si Si1 0.743292 0.093981 0.607880
Si Si2 0.609894 0.708607 0.022995
Si Si3 0.360337 0.636787 0.449666
Si Si4 0.794931 0.676009 0.761680
Si Si5 0.689716 0.079816 0.861117
Si Si6 0.678586 0.306977 0.944492
O O1 0.682199 0.165150 0.585446
O O2 0.817853 0.089095 0.689884
O O3 0.801779 0.088078 0.517515
O O4 0.661720 0.037997 0.633633
O O5 0.517392 0.725952 0.080003
O O6 0.647776 0.781732 0.983575
O O7 0.325743 0.633940 0.348980
O O8 0.466904 0.615616 0.457168
O O9 0.750000 0.750000 0.790727
O O10 0.880602 0.689717 0.696717
O O11 0.620875 0.094018 0.778488
O O12 0.752982 0.146814 0.884421
O O13 0.750000 0.250000 0.982954
#
# Coordination Sequence:
#
# PCOD9371283 Si02
#       6
#    16  16  16  16  16  16
#     4  10  21  43  67 100 136 176 230 285 353 414
#     4  10  23  44  72  99 142 181 235 293 356 423
#     4  12  25  44  70 100 139 188 228 302 350 438
#     4  12  27  43  68 101 140 180 240 289 363 428
#     4  10  23  43  67 102 136 183 232 288 357 421
#     4  10  22  43  72  97 140 182 232 297 347 428
#
# _framework density 23.683018000000001
#
# number of rings (size 3 to 8) (size 9 to 14) (size 15 to 20)
#    0.000    1.333    0.000    5.000    7.000    0.000 
#    6.000   21.667    0.000    0.000    0.000    0.000 
#    0.000    0.000    0.000    0.000    0.000    0.000 
#
# Total GULP energy -134036.194373 kJ/mol
# GULP energy per Si atom -5584.841432 kJ/mol
# Density = 2.362911 g / cm^3
# Si number density = 23.683018 Si / 1000 Ang^3
#
#
#
# Elastic Constant Matrix: (Units=GPa)
#
#
# Indices 1 2 3 4 5 6 
#
# 1 119.1452 12.3006 57.9302 0.0000 0.0000 0.0000
# 2 12.3006 23.8614 2.2030 0.0000 0.0000 0.0000
# 3 57.9302 2.2030 133.6384 0.0000 0.0000 0.0000
# 4 0.0000 0.0000 0.0000 17.5235 0.0000 0.0000
# 5 0.0000 0.0000 0.0000 0.0000 46.4572 0.0000
# 6 0.0000 0.0000 0.0000 0.0000 0.0000 29.3155
#
#
#
# Elastic Compliance Matrix: (Units=1/GPa)
#
#
# Indices 1 2 3 4 5 6 
#
# 1 0.011283 -0.005373 -0.004802 0.000000 0.000000 0.000000
# 2 -0.005373 0.044531 0.001595 0.000000 0.000000 0.000000
# 3 -0.004802 0.001595 0.009538 0.000000 0.000000 0.000000
# 4 0.000000 0.000000 0.000000 0.057066 0.000000 0.000000
# 5 0.000000 0.000000 0.000000 0.000000 0.021525 0.000000
# 6 0.000000 0.000000 0.000000 0.000000 0.000000 0.034112
#
#
# Mechanical properties :
#
#
# Convention : Reuss Voigt Hill
#
# Bulk Modulus (GPa) = 20.75041 46.83474 33.79257
# Shear Modulus (GPa) = 23.66528 32.27333 27.96931
#
# Velocity S-wave (km/s) = 3.16452 3.69551 3.44028
# Velocity P-wave (km/s) = 4.70457 6.16666 5.48455
#
# Compressibility (1/GPa) = 0.04819182
#
# Stress axis : x y z
#
# Youngs Moduli (GPa) = 88.63054 22.45613 104.84018
#
# Poissons Ratio (x) = 0.12066 0.50348
# Poissons Ratio (y) = 0.47620 -0.16722
# Poissons Ratio (z) = 0.42563 -0.03582
#
# Static dielectric constant tensor:
#      x y z
#    x 1.932090 0.000000 0.000000 
#    y 0.000000 1.966550 0.000000 
#    z 0.000000 0.000000 1.896360 
# 
# From -- ./inp_files/10082.got.cif
#   From: 2010.05.17/outbox.cif.g08.bks.cpg/sg43_6_cif.got.tgz:10082.got - 2010.06.03 19:21:55.
