data_PCOD9371944
_publ_section_title
;
Structure prediction by ZEFSAII (Michael W. Deem and Ramdas Pophale) SiO2 
 PCOD9371944
Probable space group: F D D 2
;
_chemical_formula_sum "Si O2"
_cell_formula_units_Z 88
_cell_length_a 21.199515
_cell_length_b 16.386162
_cell_length_c 9.938856
_cell_angle_alpha 90.000000
_cell_angle_beta 90.000000
_cell_angle_gamma 90.000000
_cell_volume 3452.546749
_symmetry_space_group_name_H-M "F D D 2"
_symmetry_group_IT_number 43
_symmetry_cell_setting 'orthorhombic'
loop_
_space_group_symop_operation_xyz
x,y,z
-x,-y,z
1/4-x,1/4+y,1/4+z
1/4+x,1/4-y,1/4+z
x,1/2+y,1/2+z
-x,1/2-y,1/2+z
1/4-x,3/4+y,3/4+z
1/4+x,3/4-y,3/4+z
1/2+x,y,1/2+z
1/2-x,-y,1/2+z
3/4-x,1/4+y,3/4+z
3/4+x,1/4-y,3/4+z
1/2+x,1/2+y,z
1/2-x,1/2-y,z
3/4-x,3/4+y,1/4+z
3/4+x,3/4-y,1/4+z
loop_
_atom_site_type_symbol
_atom_site_label
_atom_site_fract_x
_atom_site_fract_y
_atom_site_fract_z
Si Si1 0.458506 0.652638 0.111430
Si Si2 0.626355 0.443539 0.931803
Si Si3 0.569881 0.571573 0.743520
Si Si4 0.108066 0.982767 0.476839
Si Si5 0.203871 0.569974 0.559148
Si Si6 0.750000 0.250000 0.007547
O O1 0.423913 0.719767 0.201144
O O2 0.523480 0.808669 0.465348
O O3 0.504225 0.584937 0.175374
O O4 0.400373 0.591421 0.070278
O O5 0.580079 0.511188 0.867652
O O6 0.612714 0.368034 0.831454
O O7 0.690129 0.491160 0.968036
O O8 0.577176 0.521485 0.607448
O O9 0.625052 0.638743 0.746720
O O10 0.504736 0.619890 0.746982
O O11 0.061391 0.993217 0.351829
#
# Coordination Sequence:
#
# PCOD9371944 Si02
#       6
#    16  16  16  16  16   8
#     4  10  24  48  72 106 136 194 236 297 358 437
#     4  10  23  45  75 104 144 188 244 292 365 437
#     4  12  26  48  68 110 143 192 232 304 360 428
#     4  12  28  46  73 106 148 185 247 293 367 427
#     4  10  24  45  79 103 142 184 247 297 356 440
#     4  12  24  46  74 100 150 194 230 308 360 432
#
# _framework density 25.488433000000001
#
# number of rings (size 3 to 8) (size 9 to 14) (size 15 to 20)
#    1.091    0.000    1.818    3.818    5.091    1.455 
#    6.545    0.000    0.000    0.000    0.000    0.000 
#    0.000    0.000    0.000    0.000    0.000    0.000 
#
# Total GULP energy -123060.258413 kJ/mol
# GULP energy per Si atom -5593.648110 kJ/mol
# Density = 2.543042 g / cm^3
# Si number density = 25.488433 Si / 1000 Ang^3
#
#
#
# Elastic Constant Matrix: (Units=GPa)
#
#
# Indices 1 2 3 4 5 6 
#
# 1 82.5506 -4.3246 6.5578 0.0000 0.0000 0.0000
# 2 -4.3246 106.5056 28.7452 0.0000 0.0000 0.0000
# 3 6.5578 28.7452 87.8822 0.0000 0.0000 0.0000
# 4 0.0000 0.0000 0.0000 30.9698 0.0000 0.0000
# 5 0.0000 0.0000 0.0000 0.0000 38.8945 0.0000
# 6 0.0000 0.0000 0.0000 0.0000 0.0000 47.5610
#
#
#
# Elastic Compliance Matrix: (Units=1/GPa)
#
#
# Indices 1 2 3 4 5 6 
#
# 1 0.012250 0.000816 -0.001181 0.000000 0.000000 0.000000
# 2 0.000816 0.010353 -0.003447 0.000000 0.000000 0.000000
# 3 -0.001181 -0.003447 0.012595 0.000000 0.000000 0.000000
# 4 0.000000 0.000000 0.000000 0.032290 0.000000 0.000000
# 5 0.000000 0.000000 0.000000 0.000000 0.025711 0.000000
# 6 0.000000 0.000000 0.000000 0.000000 0.000000 0.021026
#
#
# Mechanical properties :
#
#
# Convention : Reuss Voigt Hill
#
# Bulk Modulus (GPa) = 36.26673 37.65502 36.96087
# Shear Modulus (GPa) = 38.15672 39.88240 39.01956
#
# Velocity S-wave (km/s) = 3.87333 3.95995 3.91688
# Velocity P-wave (km/s) = 5.85348 5.97610 5.91511
#
# Compressibility (1/GPa) = 0.02757348
#
# Stress axis : x y z
#
# Youngs Moduli (GPa) = 81.63027 96.59340 79.39968
#
# Poissons Ratio (x) = -0.07884 0.09378
# Poissons Ratio (y) = -0.06663 0.27370
# Poissons Ratio (z) = 0.09641 0.33297
#
# Static dielectric constant tensor:
#      x y z
#    x 2.137400 0.000000 0.000000 
#    y 0.000000 1.996180 0.000000 
#    z 0.000000 0.000000 1.942640 
# 
# From -- ./inp_files/7480.got.cif
#   From: 2010.05.17/outbox.cif.g08.bks.cpg/sg43_4_cif.got.tgz:7480.got - 2010.06.03 19:21:55.
