data_PCOD9371257
_publ_section_title
;
Structure prediction by ZEFSAII (Michael W. Deem and Ramdas Pophale) SiO2 
 PCOD9371257
Probable space group: F D D 2
;
_chemical_formula_sum "Si O2"
_cell_formula_units_Z 112
_cell_length_a 26.578200
_cell_length_b 14.811288
_cell_length_c 11.259763
_cell_angle_alpha 90.000000
_cell_angle_beta 90.000000
_cell_angle_gamma 90.000000
_cell_volume 4432.488743
_symmetry_space_group_name_H-M "F D D 2"
_symmetry_group_IT_number 43
_symmetry_cell_setting 'orthorhombic'
loop_
_space_group_symop_operation_xyz
x,y,z
-x,-y,z
1/4-x,1/4+y,1/4+z
1/4+x,1/4-y,1/4+z
x,1/2+y,1/2+z
-x,1/2-y,1/2+z
1/4-x,3/4+y,3/4+z
1/4+x,3/4-y,3/4+z
1/2+x,y,1/2+z
1/2-x,-y,1/2+z
3/4-x,1/4+y,3/4+z
3/4+x,1/4-y,3/4+z
1/2+x,1/2+y,z
1/2-x,1/2-y,z
3/4-x,3/4+y,1/4+z
3/4+x,3/4-y,1/4+z
loop_
_atom_site_type_symbol
_atom_site_label
_atom_site_fract_x
_atom_site_fract_y
_atom_site_fract_z
Si Si1 0.622128 0.407648 0.087150
Si Si2 0.208219 0.618111 0.212796
Si Si3 0.729593 0.658709 0.457151
Si Si4 0.818477 0.187520 0.290166
Si Si5 0.284827 0.578071 0.742956
Si Si6 0.559390 0.026022 0.304143
Si Si7 0.826665 0.422871 0.628197
O O1 0.565128 0.434222 0.117968
O O2 0.645028 0.367512 0.206304
O O3 0.655666 0.492804 0.051514
O O4 0.615030 0.330329 0.989720
O O5 0.178317 0.707473 0.250733
O O6 0.263598 0.644207 0.263324
O O7 0.191532 0.520561 0.257895
O O8 0.211568 0.604274 0.070643
O O9 0.750000 0.750000 0.513945
O O10 0.770633 0.614377 0.372709
O O11 0.827085 0.182136 0.430317
O O12 0.312728 0.652640 0.662154
O O13 0.230366 0.564771 0.675351
O O14 0.500000 0.000000 0.290304
O O15 0.582372 0.927161 0.325891
#
# Coordination Sequence:
#
# PCOD9371257 Si02
#       7
#    16  16  16  16  16  16  16
#     4  11  23  42  67  97 137 172 221 281 343 392
#     4  11  22  39  65  99 127 177 220 269 337 404
#     4  11  23  43  68  98 132 170 232 278 329 406
#     4  11  22  42  65  96 135 175 219 277 339 404
#     4  10  22  38  66  99 127 176 224 274 324 399
#     4  10  21  42  67  93 135 173 226 272 330 408
#     4  10  22  40  65  94 129 178 215 276 339 391
#
# _framework density 25.267973000000001
#
# number of rings (size 3 to 8) (size 9 to 14) (size 15 to 20)
#    0.000    1.429    4.286    3.000    2.000    0.000 
#    0.000    5.714    0.000    0.000    0.000    0.000 
#    0.000    0.000    0.000    0.000    0.000    0.000 
#
# Total GULP energy -156785.735731 kJ/mol
# GULP energy per Si atom -5599.490562 kJ/mol
# Density = 2.521046 g / cm^3
# Si number density = 25.267973 Si / 1000 Ang^3
#
#
#
# Elastic Constant Matrix: (Units=GPa)
#
#
# Indices 1 2 3 4 5 6 
#
# 1 47.2626 31.1515 8.2409 0.0000 0.0000 0.0000
# 2 31.1515 164.2813 39.1806 0.0000 0.0000 0.0000
# 3 8.2409 39.1806 105.2858 0.0000 0.0000 0.0000
# 4 0.0000 0.0000 0.0000 40.1330 0.0000 0.0000
# 5 0.0000 0.0000 0.0000 0.0000 31.5705 0.0000
# 6 0.0000 0.0000 0.0000 0.0000 0.0000 28.8754
#
#
#
# Elastic Compliance Matrix: (Units=1/GPa)
#
#
# Indices 1 2 3 4 5 6 
#
# 1 0.024185 -0.004537 -0.000205 0.000000 0.000000 0.000000
# 2 -0.004537 0.007531 -0.002447 0.000000 0.000000 0.000000
# 3 -0.000205 -0.002447 0.010425 0.000000 0.000000 0.000000
# 4 0.000000 0.000000 0.000000 0.024917 0.000000 0.000000
# 5 0.000000 0.000000 0.000000 0.000000 0.031675 0.000000
# 6 0.000000 0.000000 0.000000 0.000000 0.000000 0.034632
#
#
# Mechanical properties :
#
#
# Convention : Reuss Voigt Hill
#
# Bulk Modulus (GPa) = 36.02026 52.66399 44.34213
# Shear Modulus (GPa) = 31.84778 35.99956 33.92367
#
# Velocity S-wave (km/s) = 3.55406 3.77863 3.66807
# Velocity P-wave (km/s) = 5.57925 6.31861 5.96041
#
# Compressibility (1/GPa) = 0.02776215
#
# Stress axis : x y z
#
# Youngs Moduli (GPa) = 41.34865 132.78104 95.92544
#
# Poissons Ratio (x) = 0.60245 0.01962
# Poissons Ratio (y) = 0.18761 0.23478
# Poissons Ratio (z) = 0.00846 0.32498
#
# Static dielectric constant tensor:
#      x y z
#    x 2.030790 0.000000 0.000000 
#    y 0.000000 1.956190 0.000000 
#    z 0.000000 0.000000 1.960010 
# 
# From -- ./inp_files/8271.got.cif
#   From: 2010.05.17/outbox.cif.g08.bks.cpg/sg43_5_cif.got.tgz:8271.got - 2010.06.03 19:21:55.
