data_PCOD9371546
_publ_section_title
;
Structure prediction by ZEFSAII (Michael W. Deem and Ramdas Pophale) SiO2 
 PCOD9371546
Probable space group: F D D 2
;
_chemical_formula_sum "Si O2"
_cell_formula_units_Z 88
_cell_length_a 27.577577
_cell_length_b 18.168168
_cell_length_c 6.831825
_cell_angle_alpha 90.000000
_cell_angle_beta 90.000000
_cell_angle_gamma 90.000000
_cell_volume 3422.976962
_symmetry_space_group_name_H-M "F D D 2"
_symmetry_group_IT_number 43
_symmetry_cell_setting 'orthorhombic'
loop_
_space_group_symop_operation_xyz
x,y,z
-x,-y,z
1/4-x,1/4+y,1/4+z
1/4+x,1/4-y,1/4+z
x,1/2+y,1/2+z
-x,1/2-y,1/2+z
1/4-x,3/4+y,3/4+z
1/4+x,3/4-y,3/4+z
1/2+x,y,1/2+z
1/2-x,-y,1/2+z
3/4-x,1/4+y,3/4+z
3/4+x,1/4-y,3/4+z
1/2+x,1/2+y,z
1/2-x,1/2-y,z
3/4-x,3/4+y,1/4+z
3/4+x,3/4-y,1/4+z
loop_
_atom_site_type_symbol
_atom_site_label
_atom_site_fract_x
_atom_site_fract_y
_atom_site_fract_z
Si Si1 0.000000 0.000000 0.122980
Si Si2 0.750940 0.911269 0.334916
Si Si3 0.434152 0.765066 0.291772
Si Si4 0.601166 0.855655 0.353738
Si Si5 0.106843 0.112212 0.524934
Si Si6 0.413457 0.487404 0.820588
O O1 0.000426 0.083691 0.205562
O O2 0.045510 0.001183 0.979976
O O3 0.702776 0.929891 0.211533
O O4 0.797461 0.906341 0.189120
O O5 0.765241 0.980503 0.466108
O O6 0.403070 0.690452 0.334701
O O7 0.404471 0.808823 0.121351
O O8 0.636072 0.864913 0.543997
O O9 0.621298 0.795519 0.208025
O O10 0.600410 0.933014 0.240850
O O11 0.068005 0.062072 0.640536
#
# Coordination Sequence:
#
# PCOD9371546 Si02
#       6
#     8  16  16  16  16  16
#     4  10  22  42  64 100 132 176 228 284 344 422
#     4  10  23  42  64  96 138 175 232 294 339 414
#     4  11  24  44  69 100 141 180 241 286 353 415
#     4  10  23  39  66  97 133 185 229 286 347 414
#     4  11  23  44  67 100 136 183 237 284 346 431
#     4  11  22  41  69  93 138 178 229 280 358 405
#
# _framework density 25.708617
#
# number of rings (size 3 to 8) (size 9 to 14) (size 15 to 20)
#    0.000    1.455    1.818    3.273    2.545    1.455 
#    0.000    0.909    0.000    0.000    0.000    0.000 
#    0.000    0.000    0.000    0.000    0.000    0.000 
#
# Total GULP energy -122708.475796 kJ/mol
# GULP energy per Si atom -5577.657991 kJ/mol
# Density = 2.565010 g / cm^3
# Si number density = 25.708617 Si / 1000 Ang^3
#
#
#
# Elastic Constant Matrix: (Units=GPa)
#
#
# Indices 1 2 3 4 5 6 
#
# 1 63.9425 31.1057 6.7697 0.0001 0.0000 0.0000
# 2 31.1057 146.9391 27.3847 -0.0016 0.0001 0.0000
# 3 6.7697 27.3847 94.6450 -0.0036 0.0002 0.0000
# 4 0.0001 -0.0016 -0.0036 55.0921 0.0000 0.0002
# 5 0.0000 0.0001 0.0002 0.0000 -6.2071 0.0000
# 6 0.0000 0.0000 0.0000 0.0002 0.0000 35.2863
#
#
#
# Elastic Compliance Matrix: (Units=1/GPa)
#
#
# Indices 1 2 3 4 5 6 
#
# 1 0.017438 -0.003656 -0.000189 0.000000 0.000000 0.000000
# 2 -0.003656 0.007960 -0.002042 0.000000 0.000000 0.000000
# 3 -0.000189 -0.002042 0.011170 0.000001 0.000000 0.000000
# 4 0.000000 0.000000 0.000001 0.018151 0.000000 0.000000
# 5 0.000000 0.000000 0.000000 0.000000 -0.161106 0.000000
# 6 0.000000 0.000000 0.000000 0.000000 0.000000 0.028340
#
#
# Mechanical properties :
#
#
# Convention : Reuss Voigt Hill
#
# Bulk Modulus (GPa) = 40.33324 48.44962 44.39143
# Shear Modulus (GPa) = -86.19442 32.85203 -26.67119
#
# Velocity S-wave (km/s) = -5.79657 3.57860 -3.22443
# Velocity P-wave (km/s) = 5.39237 5.99681 1.85527
#
# Compressibility (1/GPa) = 0.02479345
#
# Stress axis : x y z
#
# Youngs Moduli (GPa) = 57.34714 125.62814 89.52493
#
# Poissons Ratio (x) = 0.45931 0.01696
# Poissons Ratio (y) = 0.20967 0.18278
# Poissons Ratio (z) = 0.01086 0.25649
#
# Static dielectric constant tensor:
#      x y z
#    x 2.183890 0.000000 0.000000 
#    y 0.000000 2.131220 0.000000 
#    z 0.000000 0.000000 2.157070 
# 
# From -- ./inp_files/4737.got.cif
#   From: 2010.05.17/outbox.cif.g08.bks.cpg/sg43_3_cif.got.tgz:4737.got - 2010.06.03 19:21:55.
