data_PCOD9371326
_publ_section_title
;
Structure prediction by ZEFSAII (Michael W. Deem and Ramdas Pophale) SiO2 
 PCOD9371326
Probable space group: F D D 2
;
_chemical_formula_sum "Si O2"
_cell_formula_units_Z 96
_cell_length_a 26.671058
_cell_length_b 12.539869
_cell_length_c 12.239204
_cell_angle_alpha 90.000000
_cell_angle_beta 90.000000
_cell_angle_gamma 90.000000
_cell_volume 4093.421035
_symmetry_space_group_name_H-M "F D D 2"
_symmetry_group_IT_number 43
_symmetry_cell_setting 'orthorhombic'
loop_
_space_group_symop_operation_xyz
x,y,z
-x,-y,z
1/4-x,1/4+y,1/4+z
1/4+x,1/4-y,1/4+z
x,1/2+y,1/2+z
-x,1/2-y,1/2+z
1/4-x,3/4+y,3/4+z
1/4+x,3/4-y,3/4+z
1/2+x,y,1/2+z
1/2-x,-y,1/2+z
3/4-x,1/4+y,3/4+z
3/4+x,1/4-y,3/4+z
1/2+x,1/2+y,z
1/2-x,1/2-y,z
3/4-x,3/4+y,1/4+z
3/4+x,3/4-y,1/4+z
loop_
_atom_site_type_symbol
_atom_site_label
_atom_site_fract_x
_atom_site_fract_y
_atom_site_fract_z
Si Si1 0.978720 0.267765 0.599060
Si Si2 0.608619 0.441432 0.212192
Si Si3 0.750000 0.750000 0.132653
Si Si4 0.500000 0.000000 0.676273
Si Si5 0.673310 0.580905 0.044038
Si Si6 0.834062 0.040673 0.412027
Si Si7 0.918433 0.836238 0.916804
O O1 0.940462 0.248918 0.698083
O O2 0.953203 0.252171 0.481873
O O3 0.997064 0.389907 0.609873
O O4 0.027276 0.197122 0.620793
O O5 0.553803 0.491586 0.234590
O O6 0.645689 0.518960 0.143547
O O7 0.600027 0.332709 0.145927
O O8 0.631119 0.401072 0.326431
O O9 0.722801 0.648220 0.075742
O O10 0.800892 0.697382 0.180880
O O11 0.632456 0.655732 0.985135
O O12 0.837896 0.070065 0.538413
#
# Coordination Sequence:
#
# PCOD9371326 Si02
#       7
#    16  16   8   8  16  16  16
#     4  11  23  45  70 105 140 189 249 299 372 435
#     4  11  25  46  71 104 141 192 248 305 373 445
#     4  12  27  48  71 114 150 195 262 309 376 454
#     4  10  21  44  73 104 134 189 246 307 348 448
#     4  12  26  45  79 106 150 195 252 311 375 453
#     4  11  27  45  70 102 150 189 244 314 378 441
#     4  12  26  45  75 104 149 199 249 315 376 448
#
# _framework density 23.452265000000001
#
# number of rings (size 3 to 8) (size 9 to 14) (size 15 to 20)
#    0.000    0.667    3.333    3.500    9.333    0.000 
#    0.000    0.833    0.000    0.000    0.000    0.000 
#    0.000    0.000    0.000    0.000    0.000    0.000 
#
# Total GULP energy -133956.025806 kJ/mol
# GULP energy per Si atom -5581.501075 kJ/mol
# Density = 2.339889 g / cm^3
# Si number density = 23.452265 Si / 1000 Ang^3
#
#
#
# Elastic Constant Matrix: (Units=GPa)
#
#
# Indices 1 2 3 4 5 6 
#
# 1 115.9306 4.7515 46.1105 0.0000 0.0000 0.0000
# 2 4.7515 33.7763 -4.3888 0.0000 0.0000 0.0000
# 3 46.1105 -4.3888 139.0123 0.0000 0.0000 0.0000
# 4 0.0000 0.0000 0.0000 14.7536 0.0000 0.0000
# 5 0.0000 0.0000 0.0000 0.0000 17.3241 0.0000
# 6 0.0000 0.0000 0.0000 0.0000 0.0000 34.9635
#
#
#
# Elastic Compliance Matrix: (Units=1/GPa)
#
#
# Indices 1 2 3 4 5 6 
#
# 1 0.010051 -0.001855 -0.003393 0.000000 0.000000 0.000000
# 2 -0.001855 0.030071 0.001565 0.000000 0.000000 0.000000
# 3 -0.003393 0.001565 0.008368 0.000000 0.000000 0.000000
# 4 0.000000 0.000000 0.000000 0.067780 0.000000 0.000000
# 5 0.000000 0.000000 0.000000 0.000000 0.057723 0.000000
# 6 0.000000 0.000000 0.000000 0.000000 0.000000 0.028601
#
#
# Mechanical properties :
#
#
# Convention : Reuss Voigt Hill
#
# Bulk Modulus (GPa) = 24.31616 42.40727 33.36172
# Shear Modulus (GPa) = 22.35452 29.55797 25.95624
#
# Velocity S-wave (km/s) = 3.09073 3.55399 3.33042
# Velocity P-wave (km/s) = 4.80913 5.91293 5.38936
#
# Compressibility (1/GPa) = 0.04112491
#
# Stress axis : x y z
#
# Youngs Moduli (GPa) = 99.49023 33.25483 119.49828
#
# Poissons Ratio (x) = 0.06168 0.40541
# Poissons Ratio (y) = 0.18453 -0.18697
# Poissons Ratio (z) = 0.33753 -0.05203
#
# Static dielectric constant tensor:
#      x y z
#    x 1.917430 0.000000 0.000000 
#    y 0.000000 1.917860 0.000000 
#    z 0.000000 0.000000 1.918370 
# 
# From -- ./inp_files/8258.got.cif
#   From: 2010.05.17/outbox.cif.g08.bks.cpg/sg43_5_cif.got.tgz:8258.got - 2010.06.03 19:21:55.
