data_PCOD9371157
_publ_section_title
;
Structure prediction by ZEFSAII (Michael W. Deem and Ramdas Pophale) SiO2 
 PCOD9371157
Probable space group: F D D 2
;
_chemical_formula_sum "Si O2"
_cell_formula_units_Z 96
_cell_length_a 23.741901
_cell_length_b 9.569848
_cell_length_c 17.648521
_cell_angle_alpha 90.000000
_cell_angle_beta 90.000000
_cell_angle_gamma 90.000000
_cell_volume 4009.856636
_symmetry_space_group_name_H-M "F D D 2"
_symmetry_group_IT_number 43
_symmetry_cell_setting 'orthorhombic'
loop_
_space_group_symop_operation_xyz
x,y,z
-x,-y,z
1/4-x,1/4+y,1/4+z
1/4+x,1/4-y,1/4+z
x,1/2+y,1/2+z
-x,1/2-y,1/2+z
1/4-x,3/4+y,3/4+z
1/4+x,3/4-y,3/4+z
1/2+x,y,1/2+z
1/2-x,-y,1/2+z
3/4-x,1/4+y,3/4+z
3/4+x,1/4-y,3/4+z
1/2+x,1/2+y,z
1/2-x,1/2-y,z
3/4-x,3/4+y,1/4+z
3/4+x,3/4-y,1/4+z
loop_
_atom_site_type_symbol
_atom_site_label
_atom_site_fract_x
_atom_site_fract_y
_atom_site_fract_z
Si Si1 0.351646 0.564708 0.746750
Si Si2 0.788536 0.631707 0.000862
Si Si3 0.516598 0.339756 0.961136
Si Si4 0.886728 0.356268 0.668857
Si Si5 0.930940 0.779579 0.608284
Si Si6 0.913883 0.113918 0.252712
O O1 0.398884 0.445778 0.751856
O O2 0.294074 0.515670 0.706051
O O3 0.338981 0.602819 0.834493
O O4 0.376736 0.701341 0.703670
O O5 0.750000 0.750000 0.036177
O O6 0.775600 0.611239 0.911688
O O7 0.788754 0.473465 0.031109
O O8 0.500000 0.500000 0.954796
O O9 0.573770 0.323917 0.913170
O O10 0.538566 0.309885 0.045474
O O11 0.921525 0.452920 0.728050
O O12 0.900450 0.683371 0.670778
O O13 0.886170 0.870474 0.562790
#
# Coordination Sequence:
#
# PCOD9371157 Si02
#       6
#    16  16  16  16  16  16
#     4  11  24  38  67  92 136 173 219 273 349 388
#     4  10  25  40  59  92 127 171 212 272 322 404
#     4   9  19  38  64  95 119 169 215 272 321 403
#     4  10  21  40  65  99 124 174 224 274 329 413
#     4   9  20  37  65  91 128 165 217 260 329 390
#     4   9  19  39  64  88 127 165 209 269 319 387
#
# _framework density 23.941006999999999
#
# number of rings (size 3 to 8) (size 9 to 14) (size 15 to 20)
#    1.000    1.333    0.000    3.000    4.667    2.000 
#    0.000    3.333    0.000    2.000    4.333    0.000 
#    0.000    0.000    0.000    0.000    0.000    0.000 
#
# Total GULP energy -133669.844815 kJ/mol
# GULP energy per Si atom -5569.576867 kJ/mol
# Density = 2.388652 g / cm^3
# Si number density = 23.941007 Si / 1000 Ang^3
#
#
#
# Elastic Constant Matrix: (Units=GPa)
#
#
# Indices 1 2 3 4 5 6 
#
# 1 71.8743 14.8586 8.9601 0.0000 0.0000 0.0000
# 2 14.8586 72.3594 16.5125 0.0000 0.0000 0.0000
# 3 8.9601 16.5125 112.4561 0.0000 0.0000 0.0000
# 4 0.0000 0.0000 0.0000 25.1076 0.0000 0.0000
# 5 0.0000 0.0000 0.0000 0.0000 15.2518 0.0000
# 6 0.0000 0.0000 0.0000 0.0000 0.0000 42.6047
#
#
#
# Elastic Compliance Matrix: (Units=1/GPa)
#
#
# Indices 1 2 3 4 5 6 
#
# 1 0.014590 -0.002825 -0.000748 0.000000 0.000000 0.000000
# 2 -0.002825 0.014846 -0.001955 0.000000 0.000000 0.000000
# 3 -0.000748 -0.001955 0.009239 0.000000 0.000000 0.000000
# 4 0.000000 0.000000 0.000000 0.039829 0.000000 0.000000
# 5 0.000000 0.000000 0.000000 0.000000 0.065566 0.000000
# 6 0.000000 0.000000 0.000000 0.000000 0.000000 0.023472
#
#
# Mechanical properties :
#
#
# Convention : Reuss Voigt Hill
#
# Bulk Modulus (GPa) = 36.20591 37.48358 36.84474
# Shear Modulus (GPa) = 26.62348 31.01674 28.82011
#
# Velocity S-wave (km/s) = 3.33835 3.60328 3.47334
# Velocity P-wave (km/s) = 5.47862 5.74475 5.61326
#
# Compressibility (1/GPa) = 0.02761980
#
# Stress axis : x y z
#
# Youngs Moduli (GPa) = 68.53776 67.35731 108.23728
#
# Poissons Ratio (x) = 0.19032 0.08092
# Poissons Ratio (y) = 0.19365 0.21158
# Poissons Ratio (z) = 0.05124 0.13167
#
# Static dielectric constant tensor:
#      x y z
#    x 2.019520 0.000000 0.000000 
#    y 0.000000 1.969890 0.000000 
#    z 0.000000 0.000000 1.925850 
# 
# From -- ./inp_files/18828.got.cif
#   From: 2010.05.17/outbox.cif.g08.bks.cpg/sg43_10_cif.got.tgz:18828.got - 2010.06.03 19:21:55.
