data_PCOD9371885
_publ_section_title
;
Structure prediction by ZEFSAII (Michael W. Deem and Ramdas Pophale) SiO2 
 PCOD9371885
Probable space group: F D D 2
;
_chemical_formula_sum "Si O2"
_cell_formula_units_Z 88
_cell_length_a 8.938448
_cell_length_b 20.638716
_cell_length_c 23.171868
_cell_angle_alpha 90.000000
_cell_angle_beta 90.000000
_cell_angle_gamma 90.000000
_cell_volume 4274.701945
_symmetry_space_group_name_H-M "F D D 2"
_symmetry_group_IT_number 43
_symmetry_cell_setting 'orthorhombic'
loop_
_space_group_symop_operation_xyz
x,y,z
-x,-y,z
1/4-x,1/4+y,1/4+z
1/4+x,1/4-y,1/4+z
x,1/2+y,1/2+z
-x,1/2-y,1/2+z
1/4-x,3/4+y,3/4+z
1/4+x,3/4-y,3/4+z
1/2+x,y,1/2+z
1/2-x,-y,1/2+z
3/4-x,1/4+y,3/4+z
3/4+x,1/4-y,3/4+z
1/2+x,1/2+y,z
1/2-x,1/2-y,z
3/4-x,3/4+y,1/4+z
3/4+x,3/4-y,1/4+z
loop_
_atom_site_type_symbol
_atom_site_label
_atom_site_fract_x
_atom_site_fract_y
_atom_site_fract_z
Si Si1 0.766156 0.432372 0.948390
Si Si2 0.500000 0.000000 0.863347
Si Si3 0.779422 0.983764 0.797782
Si Si4 0.647979 0.455132 0.185301
Si Si5 0.573473 0.253178 0.813270
Si Si6 0.197886 0.653215 0.598203
O O1 0.840275 0.363225 0.957662
O O2 0.610954 0.417838 0.913300
O O3 0.883269 0.465033 0.904860
O O4 0.750838 0.475471 0.005487
O O5 0.384291 0.035472 0.820889
O O6 0.775428 0.976780 0.729333
O O7 0.899959 0.939854 0.831038
O O8 0.822063 0.058520 0.810923
O O9 0.500000 0.500000 0.186323
O O10 0.703757 0.458089 0.119383
O O11 0.750000 0.250000 0.801707
O O12 0.540635 0.327560 0.832294
#
# Coordination Sequence:
#
# PCOD9371885 Si02
#       6
#    16   8  16  16  16  16
#     4  11  25  43  68 100 137 180 235 281 347 422
#     4  10  24  42  68 102 132 186 224 288 360 408
#     4  10  23  43  72  95 139 178 230 292 344 424
#     4  11  23  43  67  97 133 186 223 279 352 418
#     4  11  25  42  71 101 138 182 232 289 345 424
#     4  10  23  47  67 108 132 183 237 282 358 408
#
# _framework density 20.586231000000002
#
# number of rings (size 3 to 8) (size 9 to 14) (size 15 to 20)
#    0.000    1.455    4.545    0.000   12.727    0.000 
#    0.000    1.818    0.000    0.000    0.000    0.000 
#    0.000    0.000    0.000    0.000    0.000    0.000 
#
# Total GULP energy -122632.229985 kJ/mol
# GULP energy per Si atom -5574.192272 kJ/mol
# Density = 2.053938 g / cm^3
# Si number density = 20.586231 Si / 1000 Ang^3
#
#
#
# Elastic Constant Matrix: (Units=GPa)
#
#
# Indices 1 2 3 4 5 6 
#
# 1 80.8232 16.2457 51.4557 0.0000 0.0000 0.0000
# 2 16.2457 97.1275 51.1686 0.0000 0.0000 0.0000
# 3 51.4557 51.1686 138.7583 0.0000 0.0000 0.0000
# 4 0.0000 0.0000 0.0000 -17.1761 0.0000 0.0000
# 5 0.0000 0.0000 0.0000 0.0000 4.2476 0.0000
# 6 0.0000 0.0000 0.0000 0.0000 0.0000 19.3722
#
#
#
# Elastic Compliance Matrix: (Units=1/GPa)
#
#
# Indices 1 2 3 4 5 6 
#
# 1 0.016221 0.000566 -0.006224 0.000000 0.000000 0.000000
# 2 0.000566 0.012798 -0.004929 0.000000 0.000000 0.000000
# 3 -0.006224 -0.004929 0.011332 0.000000 0.000000 0.000000
# 4 0.000000 0.000000 0.000000 -0.058221 0.000000 0.000000
# 5 0.000000 0.000000 0.000000 0.000000 0.235425 0.000000
# 6 0.000000 0.000000 0.000000 0.000000 0.000000 0.051620
#
#
# Mechanical properties :
#
#
# Convention : Reuss Voigt Hill
#
# Bulk Modulus (GPa) = 52.14594 61.60546 56.87570
# Shear Modulus (GPa) = 16.84955 14.47802 15.66378
#
# Velocity S-wave (km/s) = 2.86402 2.65483 2.76141
# Velocity P-wave (km/s) = 6.02680 6.27599 6.15266
#
# Compressibility (1/GPa) = 0.01917695
#
# Stress axis : x y z
#
# Youngs Moduli (GPa) = 61.64671 78.13789 88.24185
#
# Poissons Ratio (x) = -0.04420 0.54922
# Poissons Ratio (y) = -0.03487 0.43496
# Poissons Ratio (z) = 0.38369 0.38515
#
# Static dielectric constant tensor:
#      x y z
#    x 1.740810 0.000000 0.000000 
#    y 0.000000 1.909640 0.000000 
#    z 0.000000 0.000000 1.794000 
# 
# From -- ./inp_files/20219.got.cif
#   From: 2010.05.17/outbox.cif.g08.bks.cpg/sg43_11_cif.got.tgz:20219.got - 2010.06.03 19:21:55.
