data_PCOD9371825
_publ_section_title
;
Structure prediction by ZEFSAII (Michael W. Deem and Ramdas Pophale) SiO2 
 PCOD9371825
Probable space group: F D D 2
;
_chemical_formula_sum "Si O2"
_cell_formula_units_Z 72
_cell_length_a 8.574833
_cell_length_b 11.506949
_cell_length_c 32.966621
_cell_angle_alpha 90.000000
_cell_angle_beta 90.000000
_cell_angle_gamma 90.000000
_cell_volume 3252.821967
_symmetry_space_group_name_H-M "F D D 2"
_symmetry_group_IT_number 43
_symmetry_cell_setting 'orthorhombic'
loop_
_space_group_symop_operation_xyz
x,y,z
-x,-y,z
1/4-x,1/4+y,1/4+z
1/4+x,1/4-y,1/4+z
x,1/2+y,1/2+z
-x,1/2-y,1/2+z
1/4-x,3/4+y,3/4+z
1/4+x,3/4-y,3/4+z
1/2+x,y,1/2+z
1/2-x,-y,1/2+z
3/4-x,1/4+y,3/4+z
3/4+x,1/4-y,3/4+z
1/2+x,1/2+y,z
1/2-x,1/2-y,z
3/4-x,3/4+y,1/4+z
3/4+x,3/4-y,1/4+z
loop_
_atom_site_type_symbol
_atom_site_label
_atom_site_fract_x
_atom_site_fract_y
_atom_site_fract_z
Si Si1 0.000000 0.000000 0.361331
Si Si2 0.162183 0.559652 0.990571
Si Si3 0.874056 0.100748 0.716542
Si Si4 0.417934 0.284525 0.414359
Si Si5 0.177853 0.125162 0.297757
O O1 0.990938 0.116891 0.388762
O O2 0.149608 0.032686 0.333316
O O3 0.282410 0.470613 0.969076
O O4 0.120871 0.655233 0.957437
O O5 0.000000 0.500000 0.002009
O O6 0.255454 0.603697 0.029379
O O7 0.779963 0.088977 0.758835
O O8 0.766760 0.078018 0.677432
O O9 0.000000 0.000000 0.715409
O O10 0.250000 0.250000 0.396838
O O11 0.250000 0.250000 0.310024
#
# Coordination Sequence:
#
# PCOD9371825 Si02
#       5
#     8  16  16  16  16
#     4  12  24  42  64  94 146 180 210 276 354 402
#     4  11  21  40  69 101 125 168 229 281 328 389
#     4  11  21  38  71  98 124 169 233 281 321 396
#     4  12  23  40  67  98 134 174 221 281 340 393
#     4  10  23  41  66  96 132 177 226 275 334 397
#
# _framework density 22.134626999999998
#
# number of rings (size 3 to 8) (size 9 to 14) (size 15 to 20)
#    0.000    0.889    5.556    2.000    0.000    0.000 
#    0.000    3.333    9.778    0.000    0.000    0.000 
#    0.000    0.000    0.000    0.000    0.000    0.000 
#
# Total GULP energy -100542.979212 kJ/mol
# GULP energy per Si atom -5585.721067 kJ/mol
# Density = 2.208425 g / cm^3
# Si number density = 22.134627 Si / 1000 Ang^3
#
#
#
# Elastic Constant Matrix: (Units=GPa)
#
#
# Indices 1 2 3 4 5 6 
#
# 1 109.4737 26.2001 38.0754 0.0000 0.0000 0.0000
# 2 26.2001 88.1075 27.0094 0.0000 0.0000 0.0000
# 3 38.0754 27.0094 66.4983 0.0000 0.0000 0.0000
# 4 0.0000 0.0000 0.0000 29.4214 0.0000 0.0000
# 5 0.0000 0.0000 0.0000 0.0000 -3.4708 0.0000
# 6 0.0000 0.0000 0.0000 0.0000 0.0000 44.3818
#
#
#
# Elastic Compliance Matrix: (Units=1/GPa)
#
#
# Indices 1 2 3 4 5 6 
#
# 1 0.011604 -0.001615 -0.005988 0.000000 0.000000 0.000000
# 2 -0.001615 0.013189 -0.004432 0.000000 0.000000 0.000000
# 3 -0.005988 -0.004432 0.020267 0.000000 0.000000 0.000000
# 4 0.000000 0.000000 0.000000 0.033989 0.000000 0.000000
# 5 0.000000 0.000000 0.000000 0.000000 -0.288115 0.000000
# 6 0.000000 0.000000 0.000000 0.000000 0.000000 0.022532
#
#
# Mechanical properties :
#
#
# Convention : Reuss Voigt Hill
#
# Bulk Modulus (GPa) = 47.64418 49.62771 48.63594
# Shear Modulus (GPa) = -32.16086 25.58611 -3.28737
#
# Velocity S-wave (km/s) = -3.81591 3.40359 -1.22000
# Velocity P-wave (km/s) = 1.46851 6.15755 4.47615
#
# Compressibility (1/GPa) = 0.02098892
#
# Stress axis : x y z
#
# Youngs Moduli (GPa) = 86.17858 75.82268 49.34162
#
# Poissons Ratio (x) = 0.12245 0.29547
# Poissons Ratio (y) = 0.13917 0.21869
# Poissons Ratio (z) = 0.51605 0.33606
#
# Static dielectric constant tensor:
#      x y z
#    x 1.865850 0.000000 0.000000 
#    y 0.000000 1.856890 0.000000 
#    z 0.000000 0.000000 1.828510 
# 
# From -- ./inp_files/27780.got.cif
#   From: 2010.05.17/outbox.cif.g08.bks.cpg/sg43_14_cif.got.tgz:27780.got - 2010.06.03 19:21:55.
