data_PCOD9371483
_publ_section_title
;
Structure prediction by ZEFSAII (Michael W. Deem and Ramdas Pophale) SiO2 
 PCOD9371483
Probable space group: F D D 2
;
_chemical_formula_sum "Si O2"
_cell_formula_units_Z 104
_cell_length_a 8.494906
_cell_length_b 22.142039
_cell_length_c 25.478241
_cell_angle_alpha 90.000000
_cell_angle_beta 90.000000
_cell_angle_gamma 90.000000
_cell_volume 4792.318020
_symmetry_space_group_name_H-M "F D D 2"
_symmetry_group_IT_number 43
_symmetry_cell_setting 'orthorhombic'
loop_
_space_group_symop_operation_xyz
x,y,z
-x,-y,z
1/4-x,1/4+y,1/4+z
1/4+x,1/4-y,1/4+z
x,1/2+y,1/2+z
-x,1/2-y,1/2+z
1/4-x,3/4+y,3/4+z
1/4+x,3/4-y,3/4+z
1/2+x,y,1/2+z
1/2-x,-y,1/2+z
3/4-x,1/4+y,3/4+z
3/4+x,1/4-y,3/4+z
1/2+x,1/2+y,z
1/2-x,1/2-y,z
3/4-x,3/4+y,1/4+z
3/4+x,3/4-y,1/4+z
loop_
_atom_site_type_symbol
_atom_site_label
_atom_site_fract_x
_atom_site_fract_y
_atom_site_fract_z
Si Si1 0.417358 0.406091 0.772330
Si Si2 0.281774 0.386058 0.663010
Si Si3 0.000000 0.500000 0.918049
Si Si4 0.335575 0.534736 0.919623
Si Si5 0.492057 0.393768 0.232373
Si Si6 0.951175 0.932277 0.565369
Si Si7 0.761668 0.033889 0.795609
O O1 0.388068 0.381432 0.714493
O O2 0.359135 0.358037 0.814916
O O3 0.309259 0.465781 0.780251
O O4 0.596078 0.424321 0.776852
O O5 0.267796 0.316872 0.641988
O O6 0.359688 0.427890 0.619952
O O7 0.118266 0.411631 0.686988
O O8 0.173122 0.507640 0.944657
O O9 0.500000 0.500000 0.921624
O O10 0.365362 0.597580 0.949325
O O11 0.280577 0.537494 0.858669
O O12 0.591313 0.352983 0.273628
O O13 0.393727 0.442137 0.266001
O O14 0.000000 0.000000 0.552419
#
# Coordination Sequence:
#
# PCOD9371483 Si02
#       7
#    16  16   8  16  16  16  16
#     4  10  24  41  70  98 133 188 226 291 346 421
#     4  10  23  41  68 100 133 189 222 287 360 406
#     4  10  22  40  72  96 136 174 244 282 338 428
#     4  11  23  41  70 103 134 187 233 286 350 419
#     4  10  24  40  70  98 140 179 232 288 347 424
#     4  11  25  44  67 102 140 180 228 286 356 422
#     4  11  23  45  65 106 136 173 246 283 347 431
#
# _framework density 21.701398000000001
#
# number of rings (size 3 to 8) (size 9 to 14) (size 15 to 20)
#    0.000    1.538    1.538    2.769   14.000    3.692 
#    0.000    0.000    6.769    0.000    0.000    0.000 
#    0.000    0.000    0.000    0.000    0.000    0.000 
#
# Total GULP energy -144890.194106 kJ/mol
# GULP energy per Si atom -5572.699773 kJ/mol
# Density = 2.165200 g / cm^3
# Si number density = 21.701398 Si / 1000 Ang^3
#
#
#
# Elastic Constant Matrix: (Units=GPa)
#
#
# Indices 1 2 3 4 5 6 
#
# 1 132.8519 63.5300 36.4210 0.0000 0.0000 0.0000
# 2 63.5300 87.3251 23.1255 0.0000 0.0000 0.0000
# 3 36.4210 23.1255 99.5258 0.0000 0.0000 0.0000
# 4 0.0000 0.0000 0.0000 14.2832 0.0000 0.0000
# 5 0.0000 0.0000 0.0000 0.0000 24.0943 0.0000
# 6 0.0000 0.0000 0.0000 0.0000 0.0000 46.5118
#
#
#
# Elastic Compliance Matrix: (Units=1/GPa)
#
#
# Indices 1 2 3 4 5 6 
#
# 1 0.012118 -0.008143 -0.002543 0.000000 0.000000 0.000000
# 2 -0.008143 0.017674 -0.001127 0.000000 0.000000 0.000000
# 3 -0.002543 -0.001127 0.011240 0.000000 0.000000 0.000000
# 4 0.000000 0.000000 0.000000 0.070013 0.000000 0.000000
# 5 0.000000 0.000000 0.000000 0.000000 0.041504 0.000000
# 6 0.000000 0.000000 0.000000 0.000000 0.000000 0.021500
#
#
# Mechanical properties :
#
#
# Convention : Reuss Voigt Hill
#
# Bulk Modulus (GPa) = 57.44623 62.87285 60.15954
# Shear Modulus (GPa) = 24.57311 30.08628 27.32969
#
# Velocity S-wave (km/s) = 3.36866 3.72745 3.55258
# Velocity P-wave (km/s) = 6.45439 6.89636 6.67903
#
# Compressibility (1/GPa) = 0.01740758
#
# Stress axis : x y z
#
# Youngs Moduli (GPa) = 82.52141 56.58093 88.96874
#
# Poissons Ratio (x) = 0.46072 0.22621
# Poissons Ratio (y) = 0.67195 0.10025
# Poissons Ratio (z) = 0.20981 0.06376
#
# Static dielectric constant tensor:
#      x y z
#    x 1.880730 0.000000 0.000000 
#    y 0.000000 1.824180 0.000000 
#    z 0.000000 0.000000 1.815130 
# 
# From -- ./inp_files/24311.got.cif
#   From: 2010.05.17/outbox.cif.g08.bks.cpg/sg43_13_cif.got.tgz:24311.got - 2010.06.03 19:21:55.
