data_PCOD9371341
_publ_section_title
;
Structure prediction by ZEFSAII (Michael W. Deem and Ramdas Pophale) SiO2 
 PCOD9371341
Probable space group: F D D 2
;
_chemical_formula_sum "Si O2"
_cell_formula_units_Z 96
_cell_length_a 23.693303
_cell_length_b 20.176556
_cell_length_c 9.393768
_cell_angle_alpha 90.000000
_cell_angle_beta 90.000000
_cell_angle_gamma 90.000000
_cell_volume 4490.683792
_symmetry_space_group_name_H-M "F D D 2"
_symmetry_group_IT_number 43
_symmetry_cell_setting 'orthorhombic'
loop_
_space_group_symop_operation_xyz
x,y,z
-x,-y,z
1/4-x,1/4+y,1/4+z
1/4+x,1/4-y,1/4+z
x,1/2+y,1/2+z
-x,1/2-y,1/2+z
1/4-x,3/4+y,3/4+z
1/4+x,3/4-y,3/4+z
1/2+x,y,1/2+z
1/2-x,-y,1/2+z
3/4-x,1/4+y,3/4+z
3/4+x,1/4-y,3/4+z
1/2+x,1/2+y,z
1/2-x,1/2-y,z
3/4-x,3/4+y,1/4+z
3/4+x,3/4-y,1/4+z
loop_
_atom_site_type_symbol
_atom_site_label
_atom_site_fract_x
_atom_site_fract_y
_atom_site_fract_z
Si Si1 0.366110 0.019597 0.231860
Si Si2 0.293746 0.695013 0.080986
Si Si3 0.973688 0.572773 0.384771
Si Si4 0.308874 0.651991 0.389292
Si Si5 0.741786 0.921919 0.380007
Si Si6 0.095438 0.735414 0.161604
O O1 0.411457 0.059590 0.325200
O O2 0.305929 0.033150 0.303644
O O3 0.391063 0.945281 0.211399
O O4 0.365035 0.040741 0.066601
O O5 0.250000 0.750000 0.025800
O O6 0.284099 0.686757 0.249932
O O7 0.356953 0.724069 0.078466
O O8 0.284968 0.626696 0.997731
O O9 0.000000 0.500000 0.416839
O O10 0.010747 0.603091 0.256809
O O11 0.980258 0.622406 0.514884
O O12 0.329969 0.581754 0.332877
O O13 0.791267 0.968707 0.437428
#
# Coordination Sequence:
#
# PCOD9371341 Si02
#       6
#    16  16  16  16  16  16
#     4  10  23  44  67 100 136 182 229 284 344 410
#     4  11  26  44  69  99 145 182 221 295 358 409
#     4  10  21  45  70  96 135 184 232 280 342 412
#     4  10  22  44  71  96 134 187 235 277 345 420
#     4  12  25  43  68 110 135 179 232 296 344 413
#     4  11  25  44  69 101 136 183 238 284 342 420
#
# _framework density 21.377592
#
# number of rings (size 3 to 8) (size 9 to 14) (size 15 to 20)
#    0.000    1.333    1.667    4.000    7.000    1.333 
#    6.000    0.000    0.000    0.000    0.000    0.000 
#    0.000    0.000    0.000    0.000    0.000    0.000 
#
# Total GULP energy -134056.821902 kJ/mol
# GULP energy per Si atom -5585.700913 kJ/mol
# Density = 2.132894 g / cm^3
# Si number density = 21.377592 Si / 1000 Ang^3
#
#
#
# Elastic Constant Matrix: (Units=GPa)
#
#
# Indices 1 2 3 4 5 6 
#
# 1 101.4209 43.4085 26.2776 0.0000 0.0000 0.0000
# 2 43.4085 93.9366 37.9722 0.0000 0.0000 0.0000
# 3 26.2776 37.9722 77.0027 0.0000 0.0000 0.0000
# 4 0.0000 0.0000 0.0000 21.4847 0.0000 0.0000
# 5 0.0000 0.0000 0.0000 0.0000 22.2348 0.0000
# 6 0.0000 0.0000 0.0000 0.0000 0.0000 25.3534
#
#
#
# Elastic Compliance Matrix: (Units=1/GPa)
#
#
# Indices 1 2 3 4 5 6 
#
# 1 0.012480 -0.005053 -0.001767 0.000000 0.000000 0.000000
# 2 -0.005053 0.015342 -0.005841 0.000000 0.000000 0.000000
# 3 -0.001767 -0.005841 0.016470 0.000000 0.000000 0.000000
# 4 0.000000 0.000000 0.000000 0.046545 0.000000 0.000000
# 5 0.000000 0.000000 0.000000 0.000000 0.044975 0.000000
# 6 0.000000 0.000000 0.000000 0.000000 0.000000 0.039442
#
#
# Mechanical properties :
#
#
# Convention : Reuss Voigt Hill
#
# Bulk Modulus (GPa) = 52.71584 54.18630 53.45107
# Shear Modulus (GPa) = 24.16634 24.79472 24.48053
#
# Velocity S-wave (km/s) = 3.36587 3.40935 3.38768
# Velocity P-wave (km/s) = 6.31018 6.39535 6.35290
#
# Compressibility (1/GPa) = 0.01896963
#
# Stress axis : x y z
#
# Youngs Moduli (GPa) = 80.12545 65.18235 60.71622
#
# Poissons Ratio (x) = 0.32936 0.10730
# Poissons Ratio (y) = 0.40486 0.35465
# Poissons Ratio (z) = 0.14161 0.38073
#
# Static dielectric constant tensor:
#      x y z
#    x 1.774370 0.000000 0.000000 
#    y 0.000000 1.792900 0.000000 
#    z 0.000000 0.000000 1.745690 
# 
# From -- ./inp_files/3738.got.cif
#   From: 2010.05.17/outbox.cif.g08.bks.cpg/sg43_2_cif.got.tgz:3738.got - 2010.06.03 19:21:55.
