data_PCOD9371115
_publ_section_title
;
Structure prediction by ZEFSAII (Michael W. Deem and Ramdas Pophale) SiO2 
 PCOD9371115
Probable space group: F D D 2
;
_chemical_formula_sum "Si O2"
_cell_formula_units_Z 88
_cell_length_a 10.279578
_cell_length_b 21.872832
_cell_length_c 15.536470
_cell_angle_alpha 90.000000
_cell_angle_beta 90.000000
_cell_angle_gamma 90.000000
_cell_volume 3493.274022
_symmetry_space_group_name_H-M "F D D 2"
_symmetry_group_IT_number 43
_symmetry_cell_setting 'orthorhombic'
loop_
_space_group_symop_operation_xyz
x,y,z
-x,-y,z
1/4-x,1/4+y,1/4+z
1/4+x,1/4-y,1/4+z
x,1/2+y,1/2+z
-x,1/2-y,1/2+z
1/4-x,3/4+y,3/4+z
1/4+x,3/4-y,3/4+z
1/2+x,y,1/2+z
1/2-x,-y,1/2+z
3/4-x,1/4+y,3/4+z
3/4+x,1/4-y,3/4+z
1/2+x,1/2+y,z
1/2-x,1/2-y,z
3/4-x,3/4+y,1/4+z
3/4+x,3/4-y,1/4+z
loop_
_atom_site_type_symbol
_atom_site_label
_atom_site_fract_x
_atom_site_fract_y
_atom_site_fract_z
Si Si1 0.566388 0.868213 0.304900
Si Si2 0.101810 0.242310 0.269875
Si Si3 0.047207 0.937965 0.350724
Si Si4 0.250000 0.750000 0.483949
Si Si5 0.093606 0.369002 0.490172
Si Si6 0.511031 0.190926 0.943404
O O1 0.530211 0.806356 0.252630
O O2 0.523325 0.935839 0.282278
O O3 0.723457 0.868087 0.303125
O O4 0.524148 0.855682 0.401409
O O5 0.250000 0.250000 0.238999
O O6 0.063313 0.178456 0.226894
O O7 0.099911 0.222981 0.370389
O O8 0.028511 0.877159 0.409238
O O9 0.176922 0.938464 0.289734
O O10 0.933909 0.931988 0.278283
O O11 0.000000 0.000000 0.397617
O O12 0.382455 0.732548 0.437278
#
# Coordination Sequence:
#
# PCOD9371115 Si02
#       6
#    16  16  16   8  16  16
#     4  11  22  38  63  93 133 170 221 275 347 410
#     4   9  19  38  68  94 122 164 223 288 335 401
#     4  11  22  44  74 100 138 182 242 289 357 420
#     4  12  28  42  58  92 144 184 218 278 352 418
#     4  10  21  39  66  99 120 165 228 288 334 403
#     4  11  25  45  64 102 140 186 234 290 353 423
#
# _framework density 25.191268999999998
#
# number of rings (size 3 to 8) (size 9 to 14) (size 15 to 20)
#    0.000    1.455    0.000    7.091    3.818    2.909 
#   11.455    0.000    0.000    0.000    0.000    0.000 
#    0.000    0.000    0.000    0.000    0.000    0.000 
#
# Total GULP energy -122646.609070 kJ/mol
# GULP energy per Si atom -5574.845867 kJ/mol
# Density = 2.513393 g / cm^3
# Si number density = 25.191269 Si / 1000 Ang^3
#
#
#
# Elastic Constant Matrix: (Units=GPa)
#
#
# Indices 1 2 3 4 5 6 
#
# 1 68.4496 15.9851 6.6584 0.0000 0.0000 0.0000
# 2 15.9851 221.5491 29.8370 0.0000 0.0000 0.0000
# 3 6.6584 29.8370 50.6319 0.0000 0.0000 0.0000
# 4 0.0000 0.0000 0.0000 29.7623 0.0000 0.0000
# 5 0.0000 0.0000 0.0000 0.0000 16.7864 0.0000
# 6 0.0000 0.0000 0.0000 0.0000 0.0000 46.8841
#
#
#
# Elastic Compliance Matrix: (Units=1/GPa)
#
#
# Indices 1 2 3 4 5 6 
#
# 1 0.014956 -0.000884 -0.001446 0.000000 0.000000 0.000000
# 2 -0.000884 0.004955 -0.002804 0.000000 0.000000 0.000000
# 3 -0.001446 -0.002804 0.021593 0.000000 0.000000 0.000000
# 4 0.000000 0.000000 0.000000 0.033600 0.000000 0.000000
# 5 0.000000 0.000000 0.000000 0.000000 0.059572 0.000000
# 6 0.000000 0.000000 0.000000 0.000000 0.000000 0.021329
#
#
# Mechanical properties :
#
#
# Convention : Reuss Voigt Hill
#
# Bulk Modulus (GPa) = 32.01367 49.51017 40.76192
# Shear Modulus (GPa) = 28.29897 37.89656 33.09776
#
# Velocity S-wave (km/s) = 3.35530 3.88281 3.62865
# Velocity P-wave (km/s) = 5.26750 6.30856 5.81139
#
# Compressibility (1/GPa) = 0.03123666
#
# Stress axis : x y z
#
# Youngs Moduli (GPa) = 66.86074 201.81353 46.31197
#
# Poissons Ratio (x) = 0.17849 0.06695
# Poissons Ratio (y) = 0.05913 0.12984
# Poissons Ratio (z) = 0.09666 0.56582
#
# Static dielectric constant tensor:
#      x y z
#    x 2.053000 0.000000 0.000000 
#    y 0.000000 2.105490 0.000000 
#    z 0.000000 0.000000 2.020660 
# 
# From -- ./inp_files/13257.got.cif
#   From: 2010.05.17/outbox.cif.g08.bks.cpg/sg43_7_cif.got.tgz:13257.got - 2010.06.03 19:21:55.
