data_PCOD9371049
_publ_section_title
;
Structure prediction by ZEFSAII (Michael W. Deem and Ramdas Pophale) SiO2 
 PCOD9371049
Probable space group: F D D 2
;
_chemical_formula_sum "Si O2"
_cell_formula_units_Z 120
_cell_length_a 24.680827
_cell_length_b 11.518931
_cell_length_c 17.191123
_cell_angle_alpha 90.000000
_cell_angle_beta 90.000000
_cell_angle_gamma 90.000000
_cell_volume 4887.380281
_symmetry_space_group_name_H-M "F D D 2"
_symmetry_group_IT_number 43
_symmetry_cell_setting 'orthorhombic'
loop_
_space_group_symop_operation_xyz
x,y,z
-x,-y,z
1/4-x,1/4+y,1/4+z
1/4+x,1/4-y,1/4+z
x,1/2+y,1/2+z
-x,1/2-y,1/2+z
1/4-x,3/4+y,3/4+z
1/4+x,3/4-y,3/4+z
1/2+x,y,1/2+z
1/2-x,-y,1/2+z
3/4-x,1/4+y,3/4+z
3/4+x,1/4-y,3/4+z
1/2+x,1/2+y,z
1/2-x,1/2-y,z
3/4-x,3/4+y,1/4+z
3/4+x,3/4-y,1/4+z
loop_
_atom_site_type_symbol
_atom_site_label
_atom_site_fract_x
_atom_site_fract_y
_atom_site_fract_z
Si Si1 0.693666 0.705731 0.751240
Si Si2 0.971655 0.174209 0.085872
Si Si3 0.548600 0.797161 0.405555
Si Si4 0.549869 0.042558 0.834186
Si Si5 0.893684 0.357835 0.085912
Si Si6 0.119511 0.500045 0.236419
Si Si7 0.500000 0.500000 0.808688
Si Si8 0.414273 0.925789 0.594565
O O1 0.750000 0.750000 0.789050
O O2 0.703825 0.703795 0.659074
O O3 0.655934 0.816768 0.760670
O O4 0.660911 0.593248 0.776656
O O5 0.942698 0.284629 0.124227
O O6 0.031885 0.147183 0.115242
O O7 0.935962 0.057253 0.091703
O O8 0.972122 0.209746 0.994052
O O9 0.548182 0.674383 0.360177
O O10 0.509676 0.887523 0.362240
O O11 0.611004 0.839300 0.397393
O O12 0.500000 0.000000 0.782252
O O13 0.606007 0.995232 0.804764
O O14 0.878351 0.457276 0.147743
O O15 0.142909 0.375263 0.261462
O O16 0.056864 0.509812 0.262394
#
# Coordination Sequence:
#
# PCOD9371049 Si02
#       8
#    16  16  16  16  16  16   8  16
#     4  10  21  38  61  90 119 161 213 259 323 388
#     4  11  22  41  70  94 125 176 217 278 334 395
#     4  11  22  43  67  91 133 168 230 269 329 411
#     4  10  22  38  62  90 121 162 210 265 315 398
#     4  11  22  38  65  92 125 164 210 271 337 391
#     4  10  24  40  60  92 130 162 213 273 331 400
#     4  10  24  42  60  94 126 180 210 278 332 404
#     4  10  23  43  64  96 125 170 229 265 334 403
#
# _framework density 24.553031000000001
#
# number of rings (size 3 to 8) (size 9 to 14) (size 15 to 20)
#    0.000    1.600    2.667    1.600    6.533    2.133 
#    4.800    0.000    2.933    0.000    0.000    0.000 
#    0.000    0.000    0.000    0.000    0.000    0.000 
#
# Total GULP energy -167342.249965 kJ/mol
# GULP energy per Si atom -5578.074999 kJ/mol
# Density = 2.449715 g / cm^3
# Si number density = 24.553031 Si / 1000 Ang^3
#
#
#
# Elastic Constant Matrix: (Units=GPa)
#
#
# Indices 1 2 3 4 5 6 
#
# 1 112.0141 19.2655 5.4481 0.0000 0.0000 0.0000
# 2 19.2655 87.4216 8.2423 0.0000 0.0000 0.0000
# 3 5.4481 8.2423 36.0732 0.0000 0.0000 0.0000
# 4 0.0000 0.0000 0.0000 31.1339 0.0000 0.0000
# 5 0.0000 0.0000 0.0000 0.0000 7.9726 0.0000
# 6 0.0000 0.0000 0.0000 0.0000 0.0000 36.3906
#
#
#
# Elastic Compliance Matrix: (Units=1/GPa)
#
#
# Indices 1 2 3 4 5 6 
#
# 1 0.009311 -0.001962 -0.000958 0.000000 0.000000 0.000000
# 2 -0.001962 0.012104 -0.002469 0.000000 0.000000 0.000000
# 3 -0.000958 -0.002469 0.028430 0.000000 0.000000 0.000000
# 4 0.000000 0.000000 0.000000 0.032119 0.000000 0.000000
# 5 0.000000 0.000000 0.000000 0.000000 0.125429 0.000000
# 6 0.000000 0.000000 0.000000 0.000000 0.000000 0.027480
#
#
# Mechanical properties :
#
#
# Convention : Reuss Voigt Hill
#
# Bulk Modulus (GPa) = 25.59669 33.49118 29.54393
# Shear Modulus (GPa) = 19.32932 28.60297 23.96615
#
# Velocity S-wave (km/s) = 2.80884 3.41683 3.12764
# Velocity P-wave (km/s) = 4.57899 5.40706 5.01016
#
# Compressibility (1/GPa) = 0.03906755
#
# Stress axis : x y z
#
# Youngs Moduli (GPa) = 107.39481 82.61775 35.17368
#
# Poissons Ratio (x) = 0.16207 0.03370
# Poissons Ratio (y) = 0.21067 0.08686
# Poissons Ratio (z) = 0.10289 0.20401
#
# Static dielectric constant tensor:
#      x y z
#    x 2.547920 0.000000 0.000000 
#    y 0.000000 1.909710 0.000000 
#    z 0.000000 0.000000 1.999640 
# 
# From -- ./inp_files/18651.got.cif
#   From: 2010.05.17/outbox.cif.g08.bks.cpg/sg43_10_cif.got.tgz:18651.got - 2010.06.03 19:21:55.
