data_PCOD9371599
_publ_section_title
;
Structure prediction by ZEFSAII (Michael W. Deem and Ramdas Pophale) SiO2 
 PCOD9371599
Probable space group: F D D 2
;
_chemical_formula_sum "Si O2"
_cell_formula_units_Z 104
_cell_length_a 24.843419
_cell_length_b 14.994183
_cell_length_c 13.873395
_cell_angle_alpha 90.000000
_cell_angle_beta 90.000000
_cell_angle_gamma 90.000000
_cell_volume 5167.933572
_symmetry_space_group_name_H-M "F D D 2"
_symmetry_group_IT_number 43
_symmetry_cell_setting 'orthorhombic'
loop_
_space_group_symop_operation_xyz
x,y,z
-x,-y,z
1/4-x,1/4+y,1/4+z
1/4+x,1/4-y,1/4+z
x,1/2+y,1/2+z
-x,1/2-y,1/2+z
1/4-x,3/4+y,3/4+z
1/4+x,3/4-y,3/4+z
1/2+x,y,1/2+z
1/2-x,-y,1/2+z
3/4-x,1/4+y,3/4+z
3/4+x,1/4-y,3/4+z
1/2+x,1/2+y,z
1/2-x,1/2-y,z
3/4-x,3/4+y,1/4+z
3/4+x,3/4-y,1/4+z
loop_
_atom_site_type_symbol
_atom_site_label
_atom_site_fract_x
_atom_site_fract_y
_atom_site_fract_z
Si Si1 0.292073 0.404623 0.723460
Si Si2 0.112641 0.569665 0.598168
Si Si3 0.000000 0.500000 0.675955
Si Si4 0.973180 0.694796 0.758001
Si Si5 0.869556 0.762167 0.644169
Si Si6 0.168819 0.915890 0.205603
Si Si7 0.084004 0.759607 0.667592
O O1 0.290841 0.454922 0.620350
O O2 0.325483 0.314560 0.705996
O O3 0.228553 0.396253 0.741877
O O4 0.319417 0.452098 0.813334
O O5 0.053149 0.527583 0.615622
O O6 0.156344 0.507275 0.650915
O O7 0.112299 0.665422 0.647376
O O8 0.128882 0.569598 0.486260
O O9 0.016979 0.411309 0.735717
O O10 0.925186 0.738957 0.697323
O O11 0.028026 0.740744 0.722945
O O12 0.845913 0.662867 0.630975
O O13 0.882301 0.821643 0.550791
#
# Coordination Sequence:
#
# PCOD9371599 Si02
#       7
#    16  16   8  16  16  16  16
#     4  12  26  42  67  97 146 180 224 282 358 415
#     4  11  23  41  69  99 136 175 236 283 344 410
#     4  10  22  42  72 100 128 170 238 298 342 386
#     4  11  23  43  67  99 133 177 229 293 335 405
#     4  12  24  42  67 101 134 178 227 285 345 411
#     4  12  24  42  72 100 133 177 234 297 341 402
#     4  11  26  43  66  97 139 186 228 275 349 416
#
# _framework density 20.124096999999999
#
# number of rings (size 3 to 8) (size 9 to 14) (size 15 to 20)
#    0.000    0.615    6.154    1.385    6.462    0.000 
#    0.000    0.000    0.000    0.000    0.000    0.000 
#    0.000    0.000    0.000    0.000    0.000    0.000 
#
# Total GULP energy -145156.716694 kJ/mol
# GULP energy per Si atom -5582.950642 kJ/mol
# Density = 2.007829 g / cm^3
# Si number density = 20.124097 Si / 1000 Ang^3
#
#
#
# Elastic Constant Matrix: (Units=GPa)
#
#
# Indices 1 2 3 4 5 6 
#
# 1 104.4333 38.7702 39.9907 0.0000 0.0000 0.0000
# 2 38.7702 50.1240 19.4525 0.0000 0.0000 0.0000
# 3 39.9907 19.4525 108.0023 0.0000 0.0000 0.0000
# 4 0.0000 0.0000 0.0000 15.8072 0.0000 0.0000
# 5 0.0000 0.0000 0.0000 0.0000 40.3688 0.0000
# 6 0.0000 0.0000 0.0000 0.0000 0.0000 34.4931
#
#
#
# Elastic Compliance Matrix: (Units=1/GPa)
#
#
# Indices 1 2 3 4 5 6 
#
# 1 0.014652 -0.009921 -0.003638 0.000000 0.000000 0.000000
# 2 -0.009921 0.028168 -0.001400 0.000000 0.000000 0.000000
# 3 -0.003638 -0.001400 0.010858 0.000000 0.000000 0.000000
# 4 0.000000 0.000000 0.000000 0.063262 0.000000 0.000000
# 5 0.000000 0.000000 0.000000 0.000000 0.024772 0.000000
# 6 0.000000 0.000000 0.000000 0.000000 0.000000 0.028991
#
#
# Mechanical properties :
#
#
# Convention : Reuss Voigt Hill
#
# Bulk Modulus (GPa) = 42.08848 50.99848 46.54348
# Shear Modulus (GPa) = 23.97610 29.09023 26.53317
#
# Velocity S-wave (km/s) = 3.45543 3.80615 3.63502
# Velocity P-wave (km/s) = 6.07288 6.68676 6.38720
#
# Compressibility (1/GPa) = 0.02375947
#
# Stress axis : x y z
#
# Youngs Moduli (GPa) = 68.25088 35.50190 92.09487
#
# Poissons Ratio (x) = 0.35221 0.33507
# Poissons Ratio (y) = 0.67712 0.12891
# Poissons Ratio (z) = 0.24832 0.04969
#
# Static dielectric constant tensor:
#      x y z
#    x 1.734250 0.000000 0.000000 
#    y 0.000000 1.711730 0.000000 
#    z 0.000000 0.000000 1.739940 
# 
# From -- ./inp_files/7952.got.cif
#   From: 2010.05.17/outbox.cif.g08.bks.cpg/sg43_4_cif.got.tgz:7952.got - 2010.06.03 19:21:55.
