data_PCOD9371886
_publ_section_title
;
Structure prediction by ZEFSAII (Michael W. Deem and Ramdas Pophale) SiO2 
 PCOD9371886
Probable space group: F D D 2
;
_chemical_formula_sum "Si O2"
_cell_formula_units_Z 104
_cell_length_a 21.672871
_cell_length_b 12.889880
_cell_length_c 17.454121
_cell_angle_alpha 90.000000
_cell_angle_beta 90.000000
_cell_angle_gamma 90.000000
_cell_volume 4875.995573
_symmetry_space_group_name_H-M "F D D 2"
_symmetry_group_IT_number 43
_symmetry_cell_setting 'orthorhombic'
loop_
_space_group_symop_operation_xyz
x,y,z
-x,-y,z
1/4-x,1/4+y,1/4+z
1/4+x,1/4-y,1/4+z
x,1/2+y,1/2+z
-x,1/2-y,1/2+z
1/4-x,3/4+y,3/4+z
1/4+x,3/4-y,3/4+z
1/2+x,y,1/2+z
1/2-x,-y,1/2+z
3/4-x,1/4+y,3/4+z
3/4+x,1/4-y,3/4+z
1/2+x,1/2+y,z
1/2-x,1/2-y,z
3/4-x,3/4+y,1/4+z
3/4+x,3/4-y,1/4+z
loop_
_atom_site_type_symbol
_atom_site_label
_atom_site_fract_x
_atom_site_fract_y
_atom_site_fract_z
Si Si1 0.250000 0.750000 0.782080
Si Si2 0.123033 0.797099 0.845452
Si Si3 0.750000 0.750000 0.546890
Si Si4 0.205335 0.445218 0.882961
Si Si5 0.572617 0.900865 0.934434
Si Si6 0.000000 0.500000 0.057728
Si Si7 0.977993 0.722656 0.472043
Si Si8 0.311829 0.565219 0.957380
O O1 0.189627 0.743668 0.835218
O O2 0.249910 0.854086 0.731286
O O3 0.070801 0.759420 0.904385
O O4 0.093279 0.770107 0.762738
O O5 0.144824 0.906591 0.884084
O O6 0.707975 0.682280 0.604089
O O7 0.704742 0.827231 0.500690
O O8 0.145038 0.401098 0.922860
O O9 0.247702 0.348678 0.860651
O O10 0.193554 0.498558 0.800973
O O11 0.245845 0.523067 0.931636
O O12 0.536980 0.797375 0.961086
O O13 0.556498 0.987949 0.998457
#
# Coordination Sequence:
#
# PCOD9371886 Si02
#       8
#     8  16   8  16  16   8  16  16
#     4  12  25  44  72 108 155 198 244 332 379 468
#     4  12  25  45  70 109 149 192 250 312 394 453
#     4  11  23  38  70 110 132 174 242 300 372 430
#     4  11  25  44  71 102 147 189 244 297 370 457
#     4  10  23  43  72  99 140 183 235 302 361 441
#     4   9  24  44  62  98 135 184 226 280 355 424
#     4  11  24  47  71 109 147 197 247 314 389 446
#     4  12  26  44  74 112 144 193 251 316 383 462
#
# _framework density 21.328976999999998
#
# number of rings (size 3 to 8) (size 9 to 14) (size 15 to 20)
#    0.000    0.923    4.615    1.385    2.154    1.231 
#    0.000    3.846    0.000    0.000    0.000    0.000 
#    0.000    0.000    0.000    0.000    0.000    0.000 
#
# Total GULP energy -145058.274276 kJ/mol
# GULP energy per Si atom -5579.164395 kJ/mol
# Density = 2.128043 g / cm^3
# Si number density = 21.328977 Si / 1000 Ang^3
#
#
#
# Elastic Constant Matrix: (Units=GPa)
#
#
# Indices 1 2 3 4 5 6 
#
# 1 124.5137 22.4954 47.5737 0.0000 0.0000 0.0000
# 2 22.4954 94.8285 40.7044 0.0000 0.0000 0.0000
# 3 47.5737 40.7044 87.9154 0.0000 0.0000 0.0000
# 4 0.0000 0.0000 0.0000 25.8498 0.0000 0.0000
# 5 0.0000 0.0000 0.0000 0.0000 19.2446 0.0000
# 6 0.0000 0.0000 0.0000 0.0000 0.0000 24.3598
#
#
#
# Elastic Compliance Matrix: (Units=1/GPa)
#
#
# Indices 1 2 3 4 5 6 
#
# 1 0.010125 -0.000062 -0.005450 0.000000 0.000000 0.000000
# 2 -0.000062 0.013161 -0.006060 0.000000 0.000000 0.000000
# 3 -0.005450 -0.006060 0.017129 0.000000 0.000000 0.000000
# 4 0.000000 0.000000 0.000000 0.038685 0.000000 0.000000
# 5 0.000000 0.000000 0.000000 0.000000 0.051963 0.000000
# 6 0.000000 0.000000 0.000000 0.000000 0.000000 0.041051
#
#
# Mechanical properties :
#
#
# Convention : Reuss Voigt Hill
#
# Bulk Modulus (GPa) = 57.90039 58.75608 58.32824
# Shear Modulus (GPa) = 24.87367 26.98979 25.93173
#
# Velocity S-wave (km/s) = 3.41866 3.56111 3.49061
# Velocity P-wave (km/s) = 6.54127 6.67203 6.60698
#
# Compressibility (1/GPa) = 0.01727104
#
# Stress axis : x y z
#
# Youngs Moduli (GPa) = 98.76726 75.98032 58.37937
#
# Poissons Ratio (x) = 0.00475 0.31816
# Poissons Ratio (y) = 0.00617 0.35377
# Poissons Ratio (z) = 0.53827 0.46043
#
# Static dielectric constant tensor:
#      x y z
#    x 1.772290 0.000000 0.000000 
#    y 0.000000 1.803270 0.000000 
#    z 0.000000 0.000000 1.784790 
# 
# From -- ./inp_files/13921.got.cif
#   From: 2010.05.17/outbox.cif.g08.bks.cpg/sg43_7_cif.got.tgz:13921.got - 2010.06.03 19:21:55.
