data_PCOD9371919
_publ_section_title
;
Structure prediction by ZEFSAII (Michael W. Deem and Ramdas Pophale) SiO2 
 PCOD9371919
Probable space group: F D D 2
;
_chemical_formula_sum "Si O2"
_cell_formula_units_Z 112
_cell_length_a 18.400298
_cell_length_b 23.377741
_cell_length_c 11.400743
_cell_angle_alpha 90.000000
_cell_angle_beta 90.000000
_cell_angle_gamma 90.000000
_cell_volume 4904.113978
_symmetry_space_group_name_H-M "F D D 2"
_symmetry_group_IT_number 43
_symmetry_cell_setting 'orthorhombic'
loop_
_space_group_symop_operation_xyz
x,y,z
-x,-y,z
1/4-x,1/4+y,1/4+z
1/4+x,1/4-y,1/4+z
x,1/2+y,1/2+z
-x,1/2-y,1/2+z
1/4-x,3/4+y,3/4+z
1/4+x,3/4-y,3/4+z
1/2+x,y,1/2+z
1/2-x,-y,1/2+z
3/4-x,1/4+y,3/4+z
3/4+x,1/4-y,3/4+z
1/2+x,1/2+y,z
1/2-x,1/2-y,z
3/4-x,3/4+y,1/4+z
3/4+x,3/4-y,1/4+z
loop_
_atom_site_type_symbol
_atom_site_label
_atom_site_fract_x
_atom_site_fract_y
_atom_site_fract_z
Si Si1 0.897053 0.772069 0.970780
Si Si2 0.750000 0.250000 0.816426
Si Si3 0.160336 0.687498 0.011988
Si Si4 0.951797 0.627496 0.302808
Si Si5 0.250000 0.750000 0.209881
Si Si6 0.310150 0.960618 0.762501
Si Si7 0.096260 0.071251 0.883633
Si Si8 0.881652 0.193571 0.271776
O O1 0.913138 0.750075 0.837760
O O2 0.838841 0.818241 0.018384
O O3 0.866017 0.713723 0.020563
O O4 0.973823 0.789039 0.024796
O O5 0.787175 0.297364 0.901413
O O6 0.694234 0.282612 0.731214
O O7 0.149825 0.621973 0.047778
O O8 0.197414 0.715621 0.124832
O O9 0.089125 0.725614 0.982606
O O10 0.920337 0.663387 0.413861
O O11 0.923730 0.661924 0.189861
O O12 0.035612 0.617013 0.339999
O O13 0.204196 0.794690 0.283620
O O14 0.346280 0.945386 0.885194
#
# Coordination Sequence:
#
# PCOD9371919 Si02
#       8
#    16   8  16  16   8  16  16  16
#     4  12  29  45  72 110 153 200 256 319 403 477
#     4  11  20  43  74 112 138 185 257 324 384 462
#     4  10  23  44  74 103 142 192 254 310 383 449
#     4  12  25  48  77 113 155 199 256 330 397 473
#     4   9  24  45  66 104 140 191 249 296 376 472
#     4  11  26  47  73 114 140 199 265 317 383 484
#     4  12  26  45  77 109 153 198 255 326 398 476
#     4  11  27  46  72 102 154 197 248 317 397 471
#
# _framework density 22.837969000000001
#
# number of rings (size 3 to 8) (size 9 to 14) (size 15 to 20)
#    0.000    0.857    4.286    0.857    6.000    3.429 
#    0.000    0.000    0.000    0.000    0.000    0.000 
#    0.000    0.000    0.000    0.000    0.000    0.000 
#
# Total GULP energy -156081.496527 kJ/mol
# GULP energy per Si atom -5574.339162 kJ/mol
# Density = 2.278599 g / cm^3
# Si number density = 22.837969 Si / 1000 Ang^3
#
#
#
# Elastic Constant Matrix: (Units=GPa)
#
#
# Indices 1 2 3 4 5 6 
#
# 1 45.7232 14.9268 3.7658 0.0000 0.0000 0.0000
# 2 14.9268 120.6063 22.6165 0.0000 0.0000 0.0000
# 3 3.7658 22.6165 63.7452 0.0000 0.0000 0.0000
# 4 0.0000 0.0000 0.0000 57.5608 0.0000 0.0000
# 5 0.0000 0.0000 0.0000 0.0000 17.1004 0.0000
# 6 0.0000 0.0000 0.0000 0.0000 0.0000 38.8863
#
#
#
# Elastic Compliance Matrix: (Units=1/GPa)
#
#
# Indices 1 2 3 4 5 6 
#
# 1 0.022800 -0.002752 -0.000370 0.000000 0.000000 0.000000
# 2 -0.002752 0.009215 -0.003107 0.000000 0.000000 0.000000
# 3 -0.000370 -0.003107 0.016812 0.000000 0.000000 0.000000
# 4 0.000000 0.000000 0.000000 0.017373 0.000000 0.000000
# 5 0.000000 0.000000 0.000000 0.000000 0.058478 0.000000
# 6 0.000000 0.000000 0.000000 0.000000 0.000000 0.025716
#
#
# Mechanical properties :
#
#
# Convention : Reuss Voigt Hill
#
# Bulk Modulus (GPa) = 27.49738 34.74366 31.12052
# Shear Modulus (GPa) = 28.57559 35.29387 31.93473
#
# Velocity S-wave (km/s) = 3.54111 3.93543 3.74347
# Velocity P-wave (km/s) = 5.36523 5.99135 5.68691
#
# Compressibility (1/GPa) = 0.03636711
#
# Stress axis : x y z
#
# Youngs Moduli (GPa) = 43.86009 108.52264 59.48278
#
# Poissons Ratio (x) = 0.29869 0.02203
# Poissons Ratio (y) = 0.12072 0.18480
# Poissons Ratio (z) = 0.01625 0.33715
#
# Static dielectric constant tensor:
#      x y z
#    x 1.986650 0.000000 0.000000 
#    y 0.000000 1.956410 0.000000 
#    z 0.000000 0.000000 1.894820 
# 
# From -- ./inp_files/7190.got.cif
#   From: 2010.05.17/outbox.cif.g08.bks.cpg/sg43_4_cif.got.tgz:7190.got - 2010.06.03 19:21:55.
