data_PCOD9371561
_publ_section_title
;
Structure prediction by ZEFSAII (Michael W. Deem and Ramdas Pophale) SiO2 
 PCOD9371561
Probable space group: F D D 2
;
_chemical_formula_sum "Si O2"
_cell_formula_units_Z 56
_cell_length_a 22.173459
_cell_length_b 24.318855
_cell_length_c 4.988568
_cell_angle_alpha 90.000000
_cell_angle_beta 90.000000
_cell_angle_gamma 90.000000
_cell_volume 2690.001158
_symmetry_space_group_name_H-M "F D D 2"
_symmetry_group_IT_number 43
_symmetry_cell_setting 'orthorhombic'
loop_
_space_group_symop_operation_xyz
x,y,z
-x,-y,z
1/4-x,1/4+y,1/4+z
1/4+x,1/4-y,1/4+z
x,1/2+y,1/2+z
-x,1/2-y,1/2+z
1/4-x,3/4+y,3/4+z
1/4+x,3/4-y,3/4+z
1/2+x,y,1/2+z
1/2-x,-y,1/2+z
3/4-x,1/4+y,3/4+z
3/4+x,1/4-y,3/4+z
1/2+x,1/2+y,z
1/2-x,1/2-y,z
3/4-x,3/4+y,1/4+z
3/4+x,3/4-y,1/4+z
loop_
_atom_site_type_symbol
_atom_site_label
_atom_site_fract_x
_atom_site_fract_y
_atom_site_fract_z
Si Si1 0.500000 0.500000 0.976560
Si Si2 0.734555 0.967042 0.466036
Si Si3 0.855508 0.310132 0.475986
Si Si4 0.452450 0.603657 0.210030
O O1 0.440828 0.510334 0.796627
O O2 0.501094 0.554932 0.156168
O O3 0.671710 0.955480 0.316540
O O4 0.766732 0.909925 0.538282
O O5 0.772789 0.999156 0.239688
O O6 0.844249 0.330475 0.177425
O O7 0.831457 0.357793 0.676072
#
# Coordination Sequence:
#
# PCOD9371561 Si02
#       4
#     8  16  16  16
#     4   8  22  40  68  98 126 184 230 270 326 400
#     4  12  26  44  67 105 139 172 220 279 346 392
#     4  10  22  44  66 100 130 179 223 273 336 390
#     4  10  22  42  66  96 132 181 223 265 332 399
#
# _framework density 20.817836
#
# number of rings (size 3 to 8) (size 9 to 14) (size 15 to 20)
#    1.714    0.000    0.000    4.286    0.000    4.571 
#    5.143    0.000    0.000    0.000    0.000    0.000 
#    0.000    0.000    0.000    0.000    0.000    0.000 
#
# Total GULP energy -78024.268950 kJ/mol
# GULP energy per Si atom -5573.162068 kJ/mol
# Density = 2.077045 g / cm^3
# Si number density = 20.817836 Si / 1000 Ang^3
#
#
#
# Elastic Constant Matrix: (Units=GPa)
#
#
# Indices 1 2 3 4 5 6 
#
# 1 66.2031 7.5030 -14.0193 -0.0004 -0.0235 -0.0135
# 2 7.5030 98.0010 10.4478 -0.0305 -0.0421 -0.0225
# 3 -14.0193 10.4478 73.0979 -0.0234 -0.0130 -0.0154
# 4 -0.0004 -0.0305 -0.0234 1.1862 0.0380 0.0159
# 5 -0.0235 -0.0421 -0.0130 0.0380 20.2103 0.0473
# 6 -0.0135 -0.0225 -0.0154 0.0159 0.0473 19.3049
#
#
#
# Elastic Compliance Matrix: (Units=1/GPa)
#
#
# Indices 1 2 3 4 5 6 
#
# 1 0.015980 -0.001574 0.003290 0.000029 0.000017 0.000012
# 2 -0.001574 0.010517 -0.001805 0.000233 0.000018 0.000009
# 3 0.003290 -0.001805 0.014569 0.000241 0.000009 0.000012
# 4 0.000029 0.000233 0.000241 0.843070 -0.001582 -0.000688
# 5 0.000017 0.000018 0.000009 -0.001582 0.049483 -0.000120
# 6 0.000012 0.000009 0.000012 -0.000688 -0.000120 0.051801
#
#
# Mechanical properties :
#
#
# Convention : Reuss Voigt Hill
#
# Bulk Modulus (GPa) = 24.45724 27.24055 25.84890
# Shear Modulus (GPa) = 5.00386 23.69831 14.35108
#
# Velocity S-wave (km/s) = 1.55205 3.37763 2.62842
# Velocity P-wave (km/s) = 3.87112 5.32210 4.65351
#
# Compressibility (1/GPa) = 0.04088769
#
# Stress axis : x y z
#
# Youngs Moduli (GPa) = 62.57781 95.08406 68.63752
#
# Poissons Ratio (x) = 0.14968 -0.22580
# Poissons Ratio (y) = 0.09851 0.12389
# Poissons Ratio (z) = -0.20587 0.17163
#
# Static dielectric constant tensor:
#      x y z
#    x 1.736140 0.000030 0.000010 
#    y 0.000030 1.742850 -0.000040 
#    z 0.000010 -0.000040 1.732210 
# 
# From -- ./inp_files/464.got.cif
#   From: 2010.05.17/outbox.cif.g08.bks.cpg/sg43_1_cif.got.tgz:464.got - 2010.06.03 19:21:55.
