data_PCOD9371213
_publ_section_title
;
Structure prediction by ZEFSAII (Michael W. Deem and Ramdas Pophale) SiO2 
 PCOD9371213
Probable space group: F D D 2
;
_chemical_formula_sum "Si O2"
_cell_formula_units_Z 104
_cell_length_a 22.031117
_cell_length_b 28.099488
_cell_length_c 7.418397
_cell_angle_alpha 90.000000
_cell_angle_beta 90.000000
_cell_angle_gamma 90.000000
_cell_volume 4592.455901
_symmetry_space_group_name_H-M "F D D 2"
_symmetry_group_IT_number 43
_symmetry_cell_setting 'orthorhombic'
loop_
_space_group_symop_operation_xyz
x,y,z
-x,-y,z
1/4-x,1/4+y,1/4+z
1/4+x,1/4-y,1/4+z
x,1/2+y,1/2+z
-x,1/2-y,1/2+z
1/4-x,3/4+y,3/4+z
1/4+x,3/4-y,3/4+z
1/2+x,y,1/2+z
1/2-x,-y,1/2+z
3/4-x,1/4+y,3/4+z
3/4+x,1/4-y,3/4+z
1/2+x,1/2+y,z
1/2-x,1/2-y,z
3/4-x,3/4+y,1/4+z
3/4+x,3/4-y,1/4+z
loop_
_atom_site_type_symbol
_atom_site_label
_atom_site_fract_x
_atom_site_fract_y
_atom_site_fract_z
Si Si1 0.617209 0.554983 0.228170
Si Si2 0.841661 0.799806 0.747950
Si Si3 0.176832 0.383539 0.756718
Si Si4 0.000000 0.000000 0.245816
Si Si5 0.059371 0.361995 0.175982
Si Si6 0.418989 0.728233 0.450538
Si Si7 0.446938 0.272936 0.328825
O O1 0.598921 0.586944 0.403107
O O2 0.553359 0.531869 0.153660
O O3 0.659740 0.507454 0.228432
O O4 0.659451 0.588348 0.100731
O O5 0.880893 0.835057 0.624088
O O6 0.784689 0.786499 0.626129
O O7 0.829626 0.833939 0.916095
O O8 0.867353 0.751463 0.831341
O O9 0.237192 0.382799 0.883649
O O10 0.192452 0.420736 0.597496
O O11 0.082592 0.326603 0.014899
O O12 0.482504 0.738681 0.352039
O O13 0.422516 0.755745 0.639273
#
# Coordination Sequence:
#
# PCOD9371213 Si02
#       7
#    16  16  16   8  16  16  16
#     4  11  23  45  67 101 143 188 243 299 369 445
#     4  12  24  43  66 101 138 186 239 294 382 428
#     4  11  23  42  69  98 139 186 245 297 363 441
#     4  12  26  44  70  98 146 192 222 306 374 434
#     4  10  24  43  66 100 137 186 244 297 364 438
#     4  10  22  40  67  98 134 180 240 297 351 440
#     4  10  21  41  67  99 132 184 237 294 358 423
#
# _framework density 22.645835000000002
#
# number of rings (size 3 to 8) (size 9 to 14) (size 15 to 20)
#    0.000    1.231    3.077    3.692    2.154    1.231 
#    5.538    3.077    0.000    0.000    0.000    0.000 
#    0.000    0.000    0.000    0.000    0.000    0.000 
#
# Total GULP energy -144784.151658 kJ/mol
# GULP energy per Si atom -5568.621218 kJ/mol
# Density = 2.259429 g / cm^3
# Si number density = 22.645835 Si / 1000 Ang^3
#
#
#
# Elastic Constant Matrix: (Units=GPa)
#
#
# Indices 1 2 3 4 5 6 
#
# 1 92.5360 55.0911 28.0077 0.0005 -0.0065 -0.0040
# 2 55.0911 138.2404 27.6563 0.0010 -0.0016 -0.0012
# 3 28.0077 27.6563 79.4857 0.0001 -0.0129 -0.0032
# 4 0.0005 0.0010 0.0001 24.8083 0.0009 0.0014
# 5 -0.0065 -0.0016 -0.0129 0.0009 24.9716 0.0037
# 6 -0.0040 -0.0012 -0.0032 0.0014 0.0037 7.0872
#
#
#
# Elastic Compliance Matrix: (Units=1/GPa)
#
#
# Indices 1 2 3 4 5 6 
#
# 1 0.014997 -0.005287 -0.003445 0.000000 0.000002 0.000006
# 2 -0.005287 0.009639 -0.001491 0.000000 -0.000002 -0.000002
# 3 -0.003445 -0.001491 0.014313 0.000000 0.000006 0.000004
# 4 0.000000 0.000000 0.000000 0.040309 -0.000001 -0.000008
# 5 0.000002 -0.000002 0.000006 -0.000001 0.040046 -0.000021
# 6 0.000006 -0.000002 0.000004 -0.000008 -0.000021 0.141100
#
#
# Mechanical properties :
#
#
# Convention : Reuss Voigt Hill
#
# Bulk Modulus (GPa) = 54.04292 59.08581 56.56437
# Shear Modulus (GPa) = 17.42054 24.67387 21.04720
#
# Velocity S-wave (km/s) = 2.77656 3.30442 3.05193
# Velocity P-wave (km/s) = 5.84767 6.38019 6.11973
#
# Compressibility (1/GPa) = 0.01850381
#
# Stress axis : x y z
#
# Youngs Moduli (GPa) = 66.67970 103.74359 69.86486
#
# Poissons Ratio (x) = 0.54854 0.24066
# Poissons Ratio (y) = 0.35257 0.10415
# Poissons Ratio (z) = 0.22969 0.15466
#
# Static dielectric constant tensor:
#      x y z
#    x 1.893010 0.000020 0.000010 
#    y 0.000020 1.669910 -0.000020 
#    z 0.000010 -0.000020 1.902960 
# 
# From -- ./inp_files/3466.got.cif
#   From: 2010.05.17/outbox.cif.g08.bks.cpg/sg43_2_cif.got.tgz:3466.got - 2010.06.03 19:21:55.
