data_PCOD9371043
_publ_section_title
;
Structure prediction by ZEFSAII (Michael W. Deem and Ramdas Pophale) SiO2 
 PCOD9371043
Probable space group: F D D 2
;
_chemical_formula_sum "Si O2"
_cell_formula_units_Z 96
_cell_length_a 20.988421
_cell_length_b 13.750475
_cell_length_c 13.274439
_cell_angle_alpha 90.000000
_cell_angle_beta 90.000000
_cell_angle_gamma 90.000000
_cell_volume 3831.013161
_symmetry_space_group_name_H-M "F D D 2"
_symmetry_group_IT_number 43
_symmetry_cell_setting 'orthorhombic'
loop_
_space_group_symop_operation_xyz
x,y,z
-x,-y,z
1/4-x,1/4+y,1/4+z
1/4+x,1/4-y,1/4+z
x,1/2+y,1/2+z
-x,1/2-y,1/2+z
1/4-x,3/4+y,3/4+z
1/4+x,3/4-y,3/4+z
1/2+x,y,1/2+z
1/2-x,-y,1/2+z
3/4-x,1/4+y,3/4+z
3/4+x,1/4-y,3/4+z
1/2+x,1/2+y,z
1/2-x,1/2-y,z
3/4-x,3/4+y,1/4+z
3/4+x,3/4-y,1/4+z
loop_
_atom_site_type_symbol
_atom_site_label
_atom_site_fract_x
_atom_site_fract_y
_atom_site_fract_z
Si Si1 0.634161 0.784731 0.345710
Si Si2 0.660691 0.555546 0.727559
Si Si3 0.717475 0.381889 0.007947
Si Si4 0.092810 0.259629 0.752627
Si Si5 0.222497 0.346605 0.730253
Si Si6 0.067707 0.474762 0.390864
O O1 0.590234 0.697451 0.302169
O O2 0.686575 0.801847 0.434223
O O3 0.676739 0.788119 0.243157
O O4 0.579864 0.859020 0.387910
O O5 0.660909 0.497940 0.623247
O O6 0.623321 0.659490 0.710956
O O7 0.732795 0.568288 0.767652
O O8 0.623089 0.504841 0.815433
O O9 0.775207 0.448460 0.965252
O O10 0.744342 0.343794 0.113712
O O11 0.147225 0.341744 0.736212
O O12 0.250000 0.250000 0.782760
O O13 0.000000 0.500000 0.344273
#
# Coordination Sequence:
#
# PCOD9371043 Si02
#       6
#    16  16  16  16  16  16
#     4  10  24  40  58  89 126 167 213 264 322 391
#     4  10  21  38  60  90 123 158 210 270 321 382
#     4  10  22  41  63  90 127 168 213 262 324 391
#     4  10  21  38  63  90 120 162 211 264 325 390
#     4   9  21  39  62  91 118 155 209 269 326 380
#     4  11  23  40  62  90 127 170 216 267 329 394
#
# _framework density 25.058646
#
# number of rings (size 3 to 8) (size 9 to 14) (size 15 to 20)
#    0.000    2.000    0.000    2.000    0.000   14.667 
#    0.000    1.667    0.000    0.000    0.000    0.000 
#    0.000    0.000    0.000    0.000    0.000    0.000 
#
# Total GULP energy -133635.553741 kJ/mol
# GULP energy per Si atom -5568.148073 kJ/mol
# Density = 2.500161 g / cm^3
# Si number density = 25.058646 Si / 1000 Ang^3
#
#
#
# Elastic Constant Matrix: (Units=GPa)
#
#
# Indices 1 2 3 4 5 6 
#
# 1 86.2326 27.0866 16.7095 0.0000 0.0000 0.0000
# 2 27.0866 41.4133 18.0044 0.0000 0.0000 0.0000
# 3 16.7095 18.0044 86.6034 0.0000 0.0000 0.0000
# 4 0.0000 0.0000 0.0000 28.5791 0.0000 0.0000
# 5 0.0000 0.0000 0.0000 0.0000 35.3521 0.0000
# 6 0.0000 0.0000 0.0000 0.0000 0.0000 34.9286
#
#
#
# Elastic Compliance Matrix: (Units=1/GPa)
#
#
# Indices 1 2 3 4 5 6 
#
# 1 0.014661 -0.009190 -0.000918 0.000000 0.000000 0.000000
# 2 -0.009190 0.032307 -0.004943 0.000000 0.000000 0.000000
# 3 -0.000918 -0.004943 0.012752 0.000000 0.000000 0.000000
# 4 0.000000 0.000000 0.000000 0.034991 0.000000 0.000000
# 5 0.000000 0.000000 0.000000 0.000000 0.028287 0.000000
# 6 0.000000 0.000000 0.000000 0.000000 0.000000 0.028630
#
#
# Mechanical properties :
#
#
# Convention : Reuss Voigt Hill
#
# Bulk Modulus (GPa) = 33.76479 37.53890 35.65185
# Shear Modulus (GPa) = 26.09576 29.93523 28.01549
#
# Velocity S-wave (km/s) = 3.23055 3.46006 3.34727
# Velocity P-wave (km/s) = 5.23630 5.56557 5.40345
#
# Compressibility (1/GPa) = 0.02961665
#
# Stress axis : x y z
#
# Youngs Moduli (GPa) = 68.20740 30.95331 78.42081
#
# Poissons Ratio (x) = 0.28446 0.07201
# Poissons Ratio (y) = 0.62683 0.38765
# Poissons Ratio (z) = 0.06263 0.15301
#
# Static dielectric constant tensor:
#      x y z
#    x 2.062050 0.000000 0.000000 
#    y 0.000000 2.508700 0.000000 
#    z 0.000000 0.000000 2.032340 
# 
# From -- ./inp_files/10907.got.cif
#   From: 2010.05.17/outbox.cif.g08.bks.cpg/sg43_6_cif.got.tgz:10907.got - 2010.06.03 19:21:55.
