data_PCOD9371054
_publ_section_title
;
Structure prediction by ZEFSAII (Michael W. Deem and Ramdas Pophale) SiO2 
 PCOD9371054
Probable space group: F D D 2
;
_chemical_formula_sum "Si O2"
_cell_formula_units_Z 80
_cell_length_a 12.709067
_cell_length_b 10.443381
_cell_length_c 25.699813
_cell_angle_alpha 90.000000
_cell_angle_beta 90.000000
_cell_angle_gamma 90.000000
_cell_volume 3411.023841
_symmetry_space_group_name_H-M "F D D 2"
_symmetry_group_IT_number 43
_symmetry_cell_setting 'orthorhombic'
loop_
_space_group_symop_operation_xyz
x,y,z
-x,-y,z
1/4-x,1/4+y,1/4+z
1/4+x,1/4-y,1/4+z
x,1/2+y,1/2+z
-x,1/2-y,1/2+z
1/4-x,3/4+y,3/4+z
1/4+x,3/4-y,3/4+z
1/2+x,y,1/2+z
1/2-x,-y,1/2+z
3/4-x,1/4+y,3/4+z
3/4+x,1/4-y,3/4+z
1/2+x,1/2+y,z
1/2-x,1/2-y,z
3/4-x,3/4+y,1/4+z
3/4+x,3/4-y,1/4+z
loop_
_atom_site_type_symbol
_atom_site_label
_atom_site_fract_x
_atom_site_fract_y
_atom_site_fract_z
Si Si1 0.749954 0.925902 0.993690
Si Si2 0.969929 0.650030 0.030759
Si Si3 0.810076 0.944812 0.107311
Si Si4 0.338514 0.640202 0.189936
Si Si5 0.650468 0.078617 0.386485
O O1 0.811782 0.882349 0.942958
O O2 0.688230 0.047304 0.968342
O O3 0.653020 0.838575 0.015048
O O4 0.819454 0.951726 0.044857
O O5 0.986837 0.682936 0.090578
O O6 0.000000 0.500000 0.029091
O O7 0.037541 0.704638 0.983467
O O8 0.684548 0.934416 0.118279
O O9 0.851626 0.813069 0.132346
O O10 0.859556 0.062251 0.138011
O O11 0.250000 0.750000 0.177844
#
# Coordination Sequence:
#
# PCOD9371054 Si02
#       5
#    16  16  16  16  16
#     4   9  20  39  59  86 118 161 197 237 306 357
#     4   8  18  36  59  89 117 152 205 245 296 367
#     4  10  22  40  58  90 127 151 205 257 296 366
#     4   9  20  39  60  88 118 154 204 249 301 366
#     4  10  21  38  61  92 118 162 199 252 310 351
#
# _framework density 23.45337
#
# number of rings (size 3 to 8) (size 9 to 14) (size 15 to 20)
#    0.000    3.200    0.000    0.000    2.800   10.400 
#   14.400    0.000    0.000    0.000    0.000    0.000 
#    0.000    0.000    0.000    0.000    0.000    0.000 
#
# Total GULP energy -111488.843203 kJ/mol
# GULP energy per Si atom -5574.442160 kJ/mol
# Density = 2.339999 g / cm^3
# Si number density = 23.453370 Si / 1000 Ang^3
#
#
#
# Elastic Constant Matrix: (Units=GPa)
#
#
# Indices 1 2 3 4 5 6 
#
# 1 26.2784 2.8031 22.9056 0.0000 0.0000 0.0000
# 2 2.8031 64.6428 37.1540 0.0000 0.0000 0.0000
# 3 22.9056 37.1540 215.6015 0.0000 0.0000 0.0000
# 4 0.0000 0.0000 0.0000 37.4931 0.0000 0.0000
# 5 0.0000 0.0000 0.0000 0.0000 22.9163 0.0000
# 6 0.0000 0.0000 0.0000 0.0000 0.0000 17.4895
#
#
#
# Elastic Compliance Matrix: (Units=1/GPa)
#
#
# Indices 1 2 3 4 5 6 
#
# 1 0.041977 0.000825 -0.004602 0.000000 0.000000 0.000000
# 2 0.000825 0.017186 -0.003049 0.000000 0.000000 0.000000
# 3 -0.004602 -0.003049 0.005653 0.000000 0.000000 0.000000
# 4 0.000000 0.000000 0.000000 0.026672 0.000000 0.000000
# 5 0.000000 0.000000 0.000000 0.000000 0.043637 0.000000
# 6 0.000000 0.000000 0.000000 0.000000 0.000000 0.057177
#
#
# Mechanical properties :
#
#
# Convention : Reuss Voigt Hill
#
# Bulk Modulus (GPa) = 19.54521 48.02755 33.78638
# Shear Modulus (GPa) = 22.42059 31.82379 27.12219
#
# Velocity S-wave (km/s) = 3.09522 3.68760 3.40432
# Velocity P-wave (km/s) = 4.59626 6.21720 5.46714
#
# Compressibility (1/GPa) = 0.05116343
#
# Stress axis : x y z
#
# Youngs Moduli (GPa) = 23.82245 58.18526 176.91095
#
# Poissons Ratio (x) = -0.04798 0.81411
# Poissons Ratio (y) = -0.01965 0.53946
# Poissons Ratio (z) = 0.10963 0.17743
#
# Static dielectric constant tensor:
#      x y z
#    x 1.996260 0.000000 0.000000 
#    y 0.000000 1.983440 0.000000 
#    z 0.000000 0.000000 1.916620 
# 
# From -- ./inp_files/21592.got.cif
#   From: 2010.05.17/outbox.cif.g08.bks.cpg/sg43_11_cif.got.tgz:21592.got - 2010.06.03 19:21:55.
