data_PCOD9371280
_publ_section_title
;
Structure prediction by ZEFSAII (Michael W. Deem and Ramdas Pophale) SiO2 
 PCOD9371280
Probable space group: F D D 2
;
_chemical_formula_sum "Si O2"
_cell_formula_units_Z 112
_cell_length_a 13.192312
_cell_length_b 11.457839
_cell_length_c 36.224321
_cell_angle_alpha 90.000000
_cell_angle_beta 90.000000
_cell_angle_gamma 90.000000
_cell_volume 5475.501257
_symmetry_space_group_name_H-M "F D D 2"
_symmetry_group_IT_number 43
_symmetry_cell_setting 'orthorhombic'
loop_
_space_group_symop_operation_xyz
x,y,z
-x,-y,z
1/4-x,1/4+y,1/4+z
1/4+x,1/4-y,1/4+z
x,1/2+y,1/2+z
-x,1/2-y,1/2+z
1/4-x,3/4+y,3/4+z
1/4+x,3/4-y,3/4+z
1/2+x,y,1/2+z
1/2-x,-y,1/2+z
3/4-x,1/4+y,3/4+z
3/4+x,1/4-y,3/4+z
1/2+x,1/2+y,z
1/2-x,1/2-y,z
3/4-x,3/4+y,1/4+z
3/4+x,3/4-y,1/4+z
loop_
_atom_site_type_symbol
_atom_site_label
_atom_site_fract_x
_atom_site_fract_y
_atom_site_fract_z
Si Si1 0.670293 0.491321 0.033380
Si Si2 0.250000 0.750000 0.148056
Si Si3 0.102949 0.339169 0.206731
Si Si4 0.750000 0.750000 0.144939
Si Si5 0.321716 0.366095 0.353133
Si Si6 0.365857 0.393498 0.709278
Si Si7 0.856584 0.799579 0.790537
Si Si8 0.624033 0.711258 0.081158
O O1 0.612171 0.410355 0.061940
O O2 0.791197 0.472100 0.038082
O O3 0.640734 0.619888 0.048533
O O4 0.637806 0.497922 0.990685
O O5 0.334573 0.671783 0.126013
O O6 0.304794 0.841780 0.175180
O O7 0.162201 0.297040 0.170893
O O8 0.145626 0.468162 0.214308
O O9 0.983216 0.360121 0.202250
O O10 0.694482 0.667954 0.115089
O O11 0.250000 0.250000 0.364174
O O12 0.237076 0.463570 0.348181
O O13 0.336844 0.338708 0.748491
O O14 0.750000 0.750000 0.805015
O O15 0.890088 0.911888 0.814150
#
# Coordination Sequence:
#
# PCOD9371280 Si02
#       8
#    16   8  16   8  16  16  16  16
#     4  10  21  43  66  91 127 176 214 269 335 405
#     4  12  24  44  66  96 144 178 226 286 358 410
#     4  10  23  40  68  92 128 166 225 271 334 414
#     4  12  24  38  68 104 120 162 220 282 332 402
#     4  10  26  42  67  94 138 184 225 279 355 413
#     4  10  22  42  63  94 129 176 212 277 342 400
#     4  11  21  38  68  93 124 169 227 270 324 410
#     4  11  22  42  61  93 132 165 216 275 334 395
#
# _framework density 20.454747999999999
#
# number of rings (size 3 to 8) (size 9 to 14) (size 15 to 20)
#    0.000    1.429    3.571    0.857    9.000    0.000 
#    2.571    0.000    0.000    0.000    0.000    0.000 
#    0.000    0.000    0.000    0.000    0.000    0.000 
#
# Total GULP energy -155907.811374 kJ/mol
# GULP energy per Si atom -5568.136121 kJ/mol
# Density = 2.040819 g / cm^3
# Si number density = 20.454748 Si / 1000 Ang^3
#
#
#
# Elastic Constant Matrix: (Units=GPa)
#
#
# Indices 1 2 3 4 5 6 
#
# 1 82.0001 14.7165 49.8886 0.0000 0.0000 0.0000
# 2 14.7165 12.9803 23.8850 0.0000 0.0000 0.0000
# 3 49.8886 23.8850 119.3210 0.0000 0.0000 0.0000
# 4 0.0000 0.0000 0.0000 26.3184 0.0000 0.0000
# 5 0.0000 0.0000 0.0000 0.0000 32.2957 0.0000
# 6 0.0000 0.0000 0.0000 0.0000 0.0000 27.4818
#
#
#
# Elastic Compliance Matrix: (Units=1/GPa)
#
#
# Indices 1 2 3 4 5 6 
#
# 1 0.017120 -0.009876 -0.005181 0.000000 0.000000 0.000000
# 2 -0.009876 0.127662 -0.021425 0.000000 0.000000 0.000000
# 3 -0.005181 -0.021425 0.014836 0.000000 0.000000 0.000000
# 4 0.000000 0.000000 0.000000 0.037996 0.000000 0.000000
# 5 0.000000 0.000000 0.000000 0.000000 0.030964 0.000000
# 6 0.000000 0.000000 0.000000 0.000000 0.000000 0.036388
#
#
# Mechanical properties :
#
#
# Convention : Reuss Voigt Hill
#
# Bulk Modulus (GPa) = 11.54035 43.47572 27.50803
# Shear Modulus (GPa) = 13.63089 25.60660 19.61875
#
# Velocity S-wave (km/s) = 2.58426 3.54201 3.10034
# Velocity P-wave (km/s) = 3.81558 6.16673 5.12773
#
# Compressibility (1/GPa) = 0.08665251
#
# Stress axis : x y z
#
# Youngs Moduli (GPa) = 58.41269 7.83319 67.40521
#
# Poissons Ratio (x) = 0.07736 0.34921
# Poissons Ratio (y) = 0.57690 1.44418
# Poissons Ratio (z) = 0.30262 0.16783
#
# Static dielectric constant tensor:
#      x y z
#    x 1.811400 0.000000 0.000000 
#    y 0.000000 1.761390 0.000000 
#    z 0.000000 0.000000 1.700910 
# 
# From -- ./inp_files/28667.got.cif
#   From: 2010.05.17/outbox.cif.g08.bks.cpg/sg43_15_cif.got.tgz:28667.got - 2010.06.03 19:21:55.
