data_PCOD9371996
_publ_section_title
;
Structure prediction by ZEFSAII (Michael W. Deem and Ramdas Pophale) SiO2 
 PCOD9371996
Probable space group: F D D 2
;
_chemical_formula_sum "Si O2"
_cell_formula_units_Z 88
_cell_length_a 28.703963
_cell_length_b 12.136769
_cell_length_c 9.569888
_cell_angle_alpha 90.000000
_cell_angle_beta 90.000000
_cell_angle_gamma 90.000000
_cell_volume 3333.894117
_symmetry_space_group_name_H-M "F D D 2"
_symmetry_group_IT_number 43
_symmetry_cell_setting 'orthorhombic'
loop_
_space_group_symop_operation_xyz
x,y,z
-x,-y,z
1/4-x,1/4+y,1/4+z
1/4+x,1/4-y,1/4+z
x,1/2+y,1/2+z
-x,1/2-y,1/2+z
1/4-x,3/4+y,3/4+z
1/4+x,3/4-y,3/4+z
1/2+x,y,1/2+z
1/2-x,-y,1/2+z
3/4-x,1/4+y,3/4+z
3/4+x,1/4-y,3/4+z
1/2+x,1/2+y,z
1/2-x,1/2-y,z
3/4-x,3/4+y,1/4+z
3/4+x,3/4-y,1/4+z
loop_
_atom_site_type_symbol
_atom_site_label
_atom_site_fract_x
_atom_site_fract_y
_atom_site_fract_z
Si Si1 0.788862 0.110622 0.855380
Si Si2 0.000000 0.500000 0.358228
Si Si3 0.314786 0.864544 0.388877
Si Si4 0.686366 0.074032 0.932314
Si Si5 0.637418 0.566970 0.148402
Si Si6 0.908680 0.385291 0.041443
O O1 0.778604 0.171494 0.710949
O O2 0.832331 0.174090 0.924298
O O3 0.928805 0.006954 0.543818
O O4 0.801233 0.982411 0.828461
O O5 0.971905 0.578817 0.255976
O O6 0.239773 0.109369 0.440841
O O7 0.358171 0.885031 0.493317
O O8 0.680291 0.941191 0.912220
O O9 0.665417 0.118072 0.781309
O O10 0.647560 0.104441 0.046580
O O11 0.663197 0.448392 0.161064
#
# Coordination Sequence:
#
# PCOD9371996 Si02
#       6
#    16   8  16  16  16  16
#     4  12  26  47  83 114 154 218 268 334 416 481
#     4  12  26  50  78 112 158 196 274 328 400 494
#     4  12  27  46  76 113 151 210 264 332 411 482
#     4  10  23  49  71 112 155 202 271 330 398 501
#     4  10  25  46  72 112 156 204 266 334 397 487
#     4  10  24  47  71 108 161 198 262 335 404 483
#
# _framework density 26.39556
#
# number of rings (size 3 to 8) (size 9 to 14) (size 15 to 20)
#    1.091    0.000    1.818    3.273    5.091    1.455 
#    0.000    0.000    4.000    0.000    0.000    0.000 
#    0.000    0.000    0.000    0.000    0.000    0.000 
#
# Total GULP energy -122737.850567 kJ/mol
# GULP energy per Si atom -5578.993208 kJ/mol
# Density = 2.633548 g / cm^3
# Si number density = 26.395560 Si / 1000 Ang^3
#
#
#
# Elastic Constant Matrix: (Units=GPa)
#
#
# Indices 1 2 3 4 5 6 
#
# 1 144.9831 29.2048 16.7669 0.0000 0.0000 0.0000
# 2 29.2048 200.4725 53.9119 0.0000 0.0000 0.0000
# 3 16.7669 53.9119 52.9089 0.0000 0.0000 0.0000
# 4 0.0000 0.0000 0.0000 32.8313 0.0000 0.0000
# 5 0.0000 0.0000 0.0000 0.0000 34.5255 0.0000
# 6 0.0000 0.0000 0.0000 0.0000 0.0000 27.6110
#
#
#
# Elastic Compliance Matrix: (Units=1/GPa)
#
#
# Indices 1 2 3 4 5 6 
#
# 1 0.007212 -0.000601 -0.001673 0.000000 0.000000 0.000000
# 2 -0.000601 0.006921 -0.006862 0.000000 0.000000 0.000000
# 3 -0.001673 -0.006862 0.026423 0.000000 0.000000 0.000000
# 4 0.000000 0.000000 0.000000 0.030459 0.000000 0.000000
# 5 0.000000 0.000000 0.000000 0.000000 0.028964 0.000000
# 6 0.000000 0.000000 0.000000 0.000000 0.000000 0.036217
#
#
# Mechanical properties :
#
#
# Convention : Reuss Voigt Hill
#
# Bulk Modulus (GPa) = 44.87585 66.45909 55.66747
# Shear Modulus (GPa) = 30.88405 38.89228 34.88817
#
# Velocity S-wave (km/s) = 3.42431 3.84271 3.63952
# Velocity P-wave (km/s) = 5.71600 6.70234 6.22872
#
# Compressibility (1/GPa) = 0.02228370
#
# Stress axis : x y z
#
# Youngs Moduli (GPa) = 138.66030 144.48675 37.84613
#
# Poissons Ratio (x) = 0.08678 0.06333
# Poissons Ratio (y) = 0.08328 0.25970
# Poissons Ratio (z) = 0.23204 0.99146
#
# Static dielectric constant tensor:
#      x y z
#    x 2.210630 0.000000 0.000000 
#    y 0.000000 2.177370 0.000000 
#    z 0.000000 0.000000 2.075540 
# 
# From -- ./inp_files/8247.got.cif
#   From: 2010.05.17/outbox.cif.g08.bks.cpg/sg43_5_cif.got.tgz:8247.got - 2010.06.03 19:21:55.
