data_PCOD9371930
_publ_section_title
;
Structure prediction by ZEFSAII (Michael W. Deem and Ramdas Pophale) SiO2 
 PCOD9371930
Probable space group: F D D 2
;
_chemical_formula_sum "Si O2"
_cell_formula_units_Z 88
_cell_length_a 26.118365
_cell_length_b 6.142134
_cell_length_c 25.263512
_cell_angle_alpha 90.000000
_cell_angle_beta 90.000000
_cell_angle_gamma 90.000000
_cell_volume 4052.835695
_symmetry_space_group_name_H-M "F D D 2"
_symmetry_group_IT_number 43
_symmetry_cell_setting 'orthorhombic'
loop_
_space_group_symop_operation_xyz
x,y,z
-x,-y,z
1/4-x,1/4+y,1/4+z
1/4+x,1/4-y,1/4+z
x,1/2+y,1/2+z
-x,1/2-y,1/2+z
1/4-x,3/4+y,3/4+z
1/4+x,3/4-y,3/4+z
1/2+x,y,1/2+z
1/2-x,-y,1/2+z
3/4-x,1/4+y,3/4+z
3/4+x,1/4-y,3/4+z
1/2+x,1/2+y,z
1/2-x,1/2-y,z
3/4-x,3/4+y,1/4+z
3/4+x,3/4-y,1/4+z
loop_
_atom_site_type_symbol
_atom_site_label
_atom_site_fract_x
_atom_site_fract_y
_atom_site_fract_z
Si Si1 0.532152 0.809657 0.798550
Si Si2 0.354196 0.695823 0.403674
Si Si3 0.135214 0.546277 0.792797
Si Si4 0.250000 0.250000 0.965687
Si Si5 0.943886 0.394933 0.946641
Si Si6 0.089460 0.424176 0.355862
O O1 0.496315 0.708950 0.753744
O O2 0.552257 0.611321 0.833794
O O3 0.500000 0.000000 0.825833
O O4 0.583562 0.918746 0.776373
O O5 0.348837 0.563266 0.348684
O O6 0.300881 0.706114 0.433356
O O7 0.400644 0.581043 0.435682
O O8 0.369361 0.941588 0.389381
O O9 0.176605 0.496934 0.747780
O O10 0.117561 0.789494 0.809108
O O11 0.938889 0.237530 0.895778
O O12 0.000000 0.500000 0.952892
#
# Coordination Sequence:
#
# PCOD9371930 Si02
#       6
#    16  16  16   8  16  16
#     4  11  24  40  72 104 143 181 232 297 356 417
#     4  10  25  44  69 106 137 186 238 298 359 429
#     4  10  23  45  67 102 141 183 237 291 362 427
#     4  12  24  42  74 104 142 178 238 296 364 424
#     4  11  25  46  73 100 144 190 242 295 359 433
#     4  10  25  45  72 104 145 184 244 291 359 425
#
# _framework density 21.713193
#
# number of rings (size 3 to 8) (size 9 to 14) (size 15 to 20)
#    0.000    1.455    1.818    1.091    6.364   13.091 
#    0.000    0.000    0.000    0.000    0.000    0.000 
#    0.000    0.000    0.000    0.000    0.000    0.000 
#
# Total GULP energy -122992.992587 kJ/mol
# GULP energy per Si atom -5590.590572 kJ/mol
# Density = 2.166377 g / cm^3
# Si number density = 21.713193 Si / 1000 Ang^3
#
#
#
# Elastic Constant Matrix: (Units=GPa)
#
#
# Indices 1 2 3 4 5 6 
#
# 1 153.3477 77.6130 70.5260 0.0002 -0.0001 0.0007
# 2 77.6130 142.8327 56.7871 0.0017 -0.0007 0.0012
# 3 70.5260 56.7871 103.1591 0.0005 0.0000 -0.0002
# 4 0.0002 0.0017 0.0005 19.3004 -0.0001 -0.0001
# 5 -0.0001 -0.0007 0.0000 -0.0001 30.2013 0.0001
# 6 0.0007 0.0012 -0.0002 -0.0001 0.0001 30.5197
#
#
#
# Elastic Compliance Matrix: (Units=1/GPa)
#
#
# Indices 1 2 3 4 5 6 
#
# 1 0.010912 -0.003794 -0.005372 0.000000 0.000000 0.000000
# 2 -0.003794 0.010282 -0.003066 -0.000001 0.000000 0.000000
# 3 -0.005372 -0.003066 0.015054 0.000000 0.000000 0.000000
# 4 0.000000 -0.000001 0.000000 0.051812 0.000000 0.000000
# 5 0.000000 0.000000 0.000000 0.000000 0.033111 0.000000
# 6 0.000000 0.000000 0.000000 0.000000 0.000000 0.032766
#
#
# Mechanical properties :
#
#
# Convention : Reuss Voigt Hill
#
# Bulk Modulus (GPa) = 84.85808 89.91020 87.38414
# Shear Modulus (GPa) = 27.42318 28.96519 28.19418
#
# Velocity S-wave (km/s) = 3.55769 3.65635 3.60735
# Velocity P-wave (km/s) = 7.48615 7.70215 7.59492
#
# Compressibility (1/GPa) = 0.01178438
#
# Stress axis : x y z
#
# Youngs Moduli (GPa) = 91.64594 97.26042 66.42731
#
# Poissons Ratio (x) = 0.36896 0.35682
# Poissons Ratio (y) = 0.34766 0.20369
# Poissons Ratio (z) = 0.49228 0.29823
#
# Static dielectric constant tensor:
#      x y z
#    x 1.788530 0.000000 0.000000 
#    y 0.000000 1.824100 0.000000 
#    z 0.000000 0.000000 1.819540 
# 
# From -- ./inp_files/22950.got.cif
#   From: 2010.05.17/outbox.cif.g08.bks.cpg/sg43_12_cif.got.tgz:22950.got - 2010.06.03 19:21:55.
