data_PCOD9371333
_publ_section_title
;
Structure prediction by ZEFSAII (Michael W. Deem and Ramdas Pophale) SiO2 
 PCOD9371333
Probable space group: F D D 2
;
_chemical_formula_sum "Si O2"
_cell_formula_units_Z 88
_cell_length_a 25.093739
_cell_length_b 25.277731
_cell_length_c 5.255097
_cell_angle_alpha 90.000000
_cell_angle_beta 90.000000
_cell_angle_gamma 90.000000
_cell_volume 3333.375209
_symmetry_space_group_name_H-M "F D D 2"
_symmetry_group_IT_number 43
_symmetry_cell_setting 'orthorhombic'
loop_
_space_group_symop_operation_xyz
x,y,z
-x,-y,z
1/4-x,1/4+y,1/4+z
1/4+x,1/4-y,1/4+z
x,1/2+y,1/2+z
-x,1/2-y,1/2+z
1/4-x,3/4+y,3/4+z
1/4+x,3/4-y,3/4+z
1/2+x,y,1/2+z
1/2-x,-y,1/2+z
3/4-x,1/4+y,3/4+z
3/4+x,1/4-y,3/4+z
1/2+x,1/2+y,z
1/2-x,1/2-y,z
3/4-x,3/4+y,1/4+z
3/4+x,3/4-y,1/4+z
loop_
_atom_site_type_symbol
_atom_site_label
_atom_site_fract_x
_atom_site_fract_y
_atom_site_fract_z
Si Si1 0.192167 0.157660 0.972040
Si Si2 0.741471 0.035168 0.863534
Si Si3 0.344018 0.756867 0.126799
Si Si4 0.658160 0.418366 0.086192
Si Si5 0.646178 0.579773 0.627420
Si Si6 0.750000 0.250000 0.770155
O O1 0.185410 0.189945 0.710503
O O2 0.138930 0.163300 0.135565
O O3 0.184305 0.098280 0.857335
O O4 0.234133 0.196290 0.114989
O O5 0.787327 0.077314 0.938316
O O6 0.687599 0.068798 0.898625
O O7 0.756091 0.007573 0.596916
O O8 0.396344 0.776754 0.981055
O O9 0.362134 0.724244 0.374171
O O10 0.300820 0.731873 0.940507
O O11 0.648268 0.372336 0.291246
#
# Coordination Sequence:
#
# PCOD9371333 Si02
#       6
#    16  16  16  16  16   8
#     4  10  23  42  71 102 141 191 249 306 376 456
#     4  12  27  49  77 106 150 207 251 312 390 460
#     4  10  21  45  65 102 144 194 233 317 369 454
#     4  10  24  43  69 106 141 192 254 309 375 456
#     4  11  25  44  73 106 146 190 252 311 381 457
#     4  10  22  40  70 102 148 188 246 304 390 444
#
# _framework density 26.399668999999999
#
# number of rings (size 3 to 8) (size 9 to 14) (size 15 to 20)
#    0.000    1.455    1.818    1.636    5.091    8.727 
#    0.000    1.818    0.000    0.000    0.000    0.000 
#    0.000    0.000    0.000    0.000    0.000    0.000 
#
# Total GULP energy -122752.634757 kJ/mol
# GULP energy per Si atom -5579.665216 kJ/mol
# Density = 2.633958 g / cm^3
# Si number density = 26.399669 Si / 1000 Ang^3
#
#
#
# Elastic Constant Matrix: (Units=GPa)
#
#
# Indices 1 2 3 4 5 6 
#
# 1 48.7959 26.2278 -3.7148 0.0006 -0.0117 0.0118
# 2 26.2278 101.9924 33.6006 -0.0669 0.0231 0.0672
# 3 -3.7148 33.6006 106.5836 -0.0450 0.0215 0.0162
# 4 0.0006 -0.0669 -0.0450 47.5661 0.0199 0.0487
# 5 -0.0117 0.0231 0.0215 0.0199 32.3100 -0.0223
# 6 0.0118 0.0672 0.0162 0.0487 -0.0223 36.0625
#
#
#
# Elastic Compliance Matrix: (Units=1/GPa)
#
#
# Indices 1 2 3 4 5 6 
#
# 1 0.024720 -0.007410 0.003198 -0.000008 0.000012 0.000004
# 2 -0.007410 0.013162 -0.004408 0.000014 -0.000009 -0.000020
# 3 0.003198 -0.004408 0.010883 0.000004 -0.000003 0.000002
# 4 -0.000008 0.000014 0.000004 0.021023 -0.000013 -0.000028
# 5 0.000012 -0.000009 -0.000003 -0.000013 0.030950 0.000019
# 6 0.000004 -0.000020 0.000002 -0.000028 0.000019 0.027730
#
#
# Mechanical properties :
#
#
# Convention : Reuss Voigt Hill
#
# Bulk Modulus (GPa) = 31.72089 41.06656 36.39373
# Shear Modulus (GPa) = 32.00654 36.60494 34.30574
#
# Velocity S-wave (km/s) = 3.48571 3.72770 3.60874
# Velocity P-wave (km/s) = 5.31431 5.84099 5.58387
#
# Compressibility (1/GPa) = 0.03152497
#
# Stress axis : x y z
#
# Youngs Moduli (GPa) = 40.45304 75.97418 91.88389
#
# Poissons Ratio (x) = 0.56299 -0.29382
# Poissons Ratio (y) = 0.29977 0.40500
# Poissons Ratio (z) = -0.12936 0.33487
#
# Static dielectric constant tensor:
#      x y z
#    x 2.079870 0.000080 0.000030 
#    y 0.000080 2.229660 -0.000080 
#    z 0.000030 -0.000080 2.102650 
# 
# From -- ./inp_files/1238.got.cif
#   From: 2010.05.17/outbox.cif.g08.bks.cpg/sg43_1_cif.got.tgz:1238.got - 2010.06.03 19:21:55.
