data_PCOD9371429
_publ_section_title
;
Structure prediction by ZEFSAII (Michael W. Deem and Ramdas Pophale) SiO2 
 PCOD9371429
Probable space group: F D D 2
;
_chemical_formula_sum "Si O2"
_cell_formula_units_Z 112
_cell_length_a 13.463476
_cell_length_b 13.882314
_cell_length_c 26.156576
_cell_angle_alpha 90.000000
_cell_angle_beta 90.000000
_cell_angle_gamma 90.000000
_cell_volume 4888.773948
_symmetry_space_group_name_H-M "F D D 2"
_symmetry_group_IT_number 43
_symmetry_cell_setting 'orthorhombic'
loop_
_space_group_symop_operation_xyz
x,y,z
-x,-y,z
1/4-x,1/4+y,1/4+z
1/4+x,1/4-y,1/4+z
x,1/2+y,1/2+z
-x,1/2-y,1/2+z
1/4-x,3/4+y,3/4+z
1/4+x,3/4-y,3/4+z
1/2+x,y,1/2+z
1/2-x,-y,1/2+z
3/4-x,1/4+y,3/4+z
3/4+x,1/4-y,3/4+z
1/2+x,1/2+y,z
1/2-x,1/2-y,z
3/4-x,3/4+y,1/4+z
3/4+x,3/4-y,1/4+z
loop_
_atom_site_type_symbol
_atom_site_label
_atom_site_fract_x
_atom_site_fract_y
_atom_site_fract_z
Si Si1 0.036344 0.874493 0.176520
Si Si2 0.549945 0.144045 0.168621
Si Si3 0.149855 0.380990 0.331465
Si Si4 0.145519 0.360564 0.219268
Si Si5 0.750000 0.750000 0.135517
Si Si6 0.539553 0.688964 0.559733
Si Si7 0.750000 0.250000 0.021936
Si Si8 0.004950 0.693822 0.949468
O O1 0.052141 0.759839 0.175845
O O2 0.143883 0.924509 0.169620
O O3 0.963271 0.901355 0.130161
O O4 0.994066 0.911508 0.231164
O O5 0.465482 0.104458 0.206370
O O6 0.526614 0.124601 0.109276
O O7 0.658012 0.102369 0.176618
O O8 0.149175 0.324422 0.277798
O O9 0.206063 0.479554 0.315756
O O10 0.041558 0.413643 0.350960
O O11 0.165368 0.282681 0.175097
O O12 0.227261 0.444075 0.209189
O O13 0.650381 0.735628 0.555109
O O14 0.523189 0.644232 0.504499
#
# Coordination Sequence:
#
# PCOD9371429 Si02
#       8
#    16  16  16  16   8  16   8  16
#     4  10  22  42  64  99 133 173 216 288 327 403
#     4  11  22  42  69  96 131 174 225 270 338 402
#     4  10  24  40  68  91 135 175 215 274 339 387
#     4  11  25  43  69  97 131 183 218 276 340 407
#     4  12  24  47  64 100 138 171 228 282 334 408
#     4   9  21  40  64  92 126 175 203 270 338 385
#     4  10  22  39  68  92 132 167 220 264 344 396
#     4  10  23  41  69  95 134 171 223 275 337 397
#
# _framework density 22.909628999999999
#
# number of rings (size 3 to 8) (size 9 to 14) (size 15 to 20)
#    0.000    1.714    2.857    0.857   14.000    0.571 
#    0.000   10.000    0.000    0.000    0.000    0.000 
#    0.000    0.000    0.000    0.000    0.000    0.000 
#
# Total GULP energy -156322.977134 kJ/mol
# GULP energy per Si atom -5582.963469 kJ/mol
# Density = 2.285749 g / cm^3
# Si number density = 22.909629 Si / 1000 Ang^3
#
#
#
# Elastic Constant Matrix: (Units=GPa)
#
#
# Indices 1 2 3 4 5 6 
#
# 1 85.2678 -11.6160 20.3215 0.0000 0.0000 0.0000
# 2 -11.6160 45.8168 -3.0523 0.0000 0.0000 0.0000
# 3 20.3215 -3.0523 97.9272 0.0000 0.0000 0.0000
# 4 0.0000 0.0000 0.0000 3.3125 0.0000 0.0000
# 5 0.0000 0.0000 0.0000 0.0000 41.8401 0.0000
# 6 0.0000 0.0000 0.0000 0.0000 0.0000 35.4315
#
#
#
# Elastic Compliance Matrix: (Units=1/GPa)
#
#
# Indices 1 2 3 4 5 6 
#
# 1 0.012753 0.003063 -0.002551 0.000000 0.000000 0.000000
# 2 0.003063 0.022607 0.000069 0.000000 0.000000 0.000000
# 3 -0.002551 0.000069 0.010743 0.000000 0.000000 0.000000
# 4 0.000000 0.000000 0.000000 0.301885 0.000000 0.000000
# 5 0.000000 0.000000 0.000000 0.000000 0.023901 0.000000
# 6 0.000000 0.000000 0.000000 0.000000 0.000000 0.028223
#
#
# Mechanical properties :
#
#
# Convention : Reuss Voigt Hill
#
# Bulk Modulus (GPa) = 21.15681 26.70205 23.92943
# Shear Modulus (GPa) = 12.05676 31.00739 21.53208
#
# Velocity S-wave (km/s) = 2.29656 3.68294 3.06906
# Velocity P-wave (km/s) = 4.03574 5.45583 4.79861
#
# Compressibility (1/GPa) = 0.04726612
#
# Stress axis : x y z
#
# Youngs Moduli (GPa) = 78.41268 44.23352 93.08220
#
# Poissons Ratio (x) = -0.13550 0.23745
# Poissons Ratio (y) = -0.24020 -0.00642
# Poissons Ratio (z) = 0.20003 -0.00305
#
# Static dielectric constant tensor:
#      x y z
#    x 1.929810 0.000000 0.000000 
#    y 0.000000 1.899200 0.000000 
#    z 0.000000 0.000000 1.878380 
# 
# From -- ./inp_files/21775.got.cif
#   From: 2010.05.17/outbox.cif.g08.bks.cpg/sg43_11_cif.got.tgz:21775.got - 2010.06.03 19:21:55.
