data_PCOD9371668
_publ_section_title
;
Structure prediction by ZEFSAII (Michael W. Deem and Ramdas Pophale) SiO2 
 PCOD9371668
Probable space group: F D D 2
;
_chemical_formula_sum "Si O2"
_cell_formula_units_Z 80
_cell_length_a 19.705347
_cell_length_b 15.737409
_cell_length_c 10.584496
_cell_angle_alpha 90.000000
_cell_angle_beta 90.000000
_cell_angle_gamma 90.000000
_cell_volume 3282.369753
_symmetry_space_group_name_H-M "F D D 2"
_symmetry_group_IT_number 43
_symmetry_cell_setting 'orthorhombic'
loop_
_space_group_symop_operation_xyz
x,y,z
-x,-y,z
1/4-x,1/4+y,1/4+z
1/4+x,1/4-y,1/4+z
x,1/2+y,1/2+z
-x,1/2-y,1/2+z
1/4-x,3/4+y,3/4+z
1/4+x,3/4-y,3/4+z
1/2+x,y,1/2+z
1/2-x,-y,1/2+z
3/4-x,1/4+y,3/4+z
3/4+x,1/4-y,3/4+z
1/2+x,1/2+y,z
1/2-x,1/2-y,z
3/4-x,3/4+y,1/4+z
3/4+x,3/4-y,1/4+z
loop_
_atom_site_type_symbol
_atom_site_label
_atom_site_fract_x
_atom_site_fract_y
_atom_site_fract_z
Si Si1 0.152307 0.788039 0.885200
Si Si2 0.980842 0.263465 0.030910
Si Si3 0.338194 0.161891 0.883788
Si Si4 0.282854 0.370357 0.467484
Si Si5 0.895983 0.333109 0.405593
O O1 0.206488 0.833779 0.980609
O O2 0.186431 0.695463 0.862905
O O3 0.138931 0.845407 0.763276
O O4 0.081950 0.770207 0.950835
O O5 0.969561 0.362342 0.055479
O O6 0.975898 0.214203 0.163517
O O7 0.046938 0.229491 0.962984
O O8 0.409349 0.125347 0.823599
O O9 0.337769 0.263585 0.878806
O O10 0.334810 0.130721 0.027696
#
# Coordination Sequence:
#
# PCOD9371668 Si02
#       5
#    16  16  16  16  16
#     4   9  21  39  68  95 129 181 232 282 342 423
#     4  10  22  44  67  95 140 184 226 282 357 422
#     4  11  23  45  65 102 139 179 232 295 357 416
#     4   9  19  41  67  94 129 182 233 276 351 422
#     4  11  25  43  68 103 140 176 235 295 352 416
#
# _framework density 24.372636
#
# number of rings (size 3 to 8) (size 9 to 14) (size 15 to 20)
#    0.000    2.000    2.000    0.000    2.800    4.800 
#    7.200    2.000    0.000    0.000    0.000    0.000 
#    0.000    0.000    0.000    0.000    0.000    0.000 
#
# Total GULP energy -111777.765277 kJ/mol
# GULP energy per Si atom -5588.888264 kJ/mol
# Density = 2.431716 g / cm^3
# Si number density = 24.372636 Si / 1000 Ang^3
#
#
#
# Elastic Constant Matrix: (Units=GPa)
#
#
# Indices 1 2 3 4 5 6 
#
# 1 64.5430 35.1216 16.7877 0.0000 0.0000 0.0000
# 2 35.1216 115.6527 27.0675 0.0000 0.0000 0.0000
# 3 16.7877 27.0675 90.1055 0.0000 0.0000 0.0000
# 4 0.0000 0.0000 0.0000 47.1566 0.0000 0.0000
# 5 0.0000 0.0000 0.0000 0.0000 22.5330 0.0000
# 6 0.0000 0.0000 0.0000 0.0000 0.0000 15.1051
#
#
#
# Elastic Compliance Matrix: (Units=1/GPa)
#
#
# Indices 1 2 3 4 5 6 
#
# 1 0.018868 -0.005278 -0.001930 0.000000 0.000000 0.000000
# 2 -0.005278 0.010777 -0.002254 0.000000 0.000000 0.000000
# 3 -0.001930 -0.002254 0.012135 0.000000 0.000000 0.000000
# 4 0.000000 0.000000 0.000000 0.021206 0.000000 0.000000
# 5 0.000000 0.000000 0.000000 0.000000 0.044379 0.000000
# 6 0.000000 0.000000 0.000000 0.000000 0.000000 0.066203
#
#
# Mechanical properties :
#
#
# Convention : Reuss Voigt Hill
#
# Bulk Modulus (GPa) = 43.75290 47.58387 45.66839
# Shear Modulus (GPa) = 24.98629 29.71389 27.35009
#
# Velocity S-wave (km/s) = 3.20531 3.49542 3.35351
# Velocity P-wave (km/s) = 5.62933 5.98803 5.81145
#
# Compressibility (1/GPa) = 0.02285563
#
# Stress axis : x y z
#
# Youngs Moduli (GPa) = 53.00095 92.79045 82.40815
#
# Poissons Ratio (x) = 0.48976 0.15902
# Poissons Ratio (y) = 0.27975 0.18575
# Poissons Ratio (z) = 0.10228 0.20915
#
# Static dielectric constant tensor:
#      x y z
#    x 2.017260 0.000000 0.000000 
#    y 0.000000 1.936010 0.000000 
#    z 0.000000 0.000000 1.923910 
# 
# From -- ./inp_files/6049.got.cif
#   From: 2010.05.17/outbox.cif.g08.bks.cpg/sg43_4_cif.got.tgz:6049.got - 2010.06.03 19:21:55.
