data_PCOD9371901
_publ_section_title
;
Structure prediction by ZEFSAII (Michael W. Deem and Ramdas Pophale) SiO2 
 PCOD9371901
Probable space group: F D D 2
;
_chemical_formula_sum "Si O2"
_cell_formula_units_Z 96
_cell_length_a 18.077426
_cell_length_b 8.618303
_cell_length_c 30.401430
_cell_angle_alpha 90.000000
_cell_angle_beta 90.000000
_cell_angle_gamma 90.000000
_cell_volume 4736.443525
_symmetry_space_group_name_H-M "F D D 2"
_symmetry_group_IT_number 43
_symmetry_cell_setting 'orthorhombic'
loop_
_space_group_symop_operation_xyz
x,y,z
-x,-y,z
1/4-x,1/4+y,1/4+z
1/4+x,1/4-y,1/4+z
x,1/2+y,1/2+z
-x,1/2-y,1/2+z
1/4-x,3/4+y,3/4+z
1/4+x,3/4-y,3/4+z
1/2+x,y,1/2+z
1/2-x,-y,1/2+z
3/4-x,1/4+y,3/4+z
3/4+x,1/4-y,3/4+z
1/2+x,1/2+y,z
1/2-x,1/2-y,z
3/4-x,3/4+y,1/4+z
3/4+x,3/4-y,1/4+z
loop_
_atom_site_type_symbol
_atom_site_label
_atom_site_fract_x
_atom_site_fract_y
_atom_site_fract_z
Si Si1 0.808701 0.612599 0.726710
Si Si2 0.072849 0.102196 0.377269
Si Si3 0.226571 0.928308 0.387684
Si Si4 0.976108 0.676249 0.731829
Si Si5 0.307884 0.880182 0.555543
Si Si6 0.276798 0.575862 0.798659
O O1 0.750000 0.750000 0.727558
O O2 0.817510 0.568149 0.675478
O O3 0.888413 0.677164 0.740235
O O4 0.776147 0.487089 0.760050
O O5 0.077669 0.238232 0.341557
O O6 0.141347 0.980840 0.378555
O O7 0.000000 0.000000 0.369148
O O8 0.250000 0.750000 0.395064
O O9 0.244639 0.021357 0.432215
O O10 0.267409 0.981577 0.343667
O O11 0.000000 0.500000 0.738366
O O12 0.016939 0.786618 0.765512
O O13 0.250000 0.750000 0.572491
O O14 0.386303 0.816854 0.538059
O O15 0.250000 0.750000 0.807565
#
# Coordination Sequence:
#
# PCOD9371901 Si02
#       6
#    16  16  16  16  16  16
#     4  10  23  44  68  94 131 178 222 269 337 410
#     4  10  24  44  67  99 136 179 225 281 345 405
#     4  11  25  44  70  98 134 182 226 278 344 415
#     4  11  24  44  71  98 133 176 224 280 339 405
#     4  12  26  42  67 102 138 175 229 280 338 410
#     4  12  24  43  66 100 137 175 223 281 340 405
#
# _framework density 20.268374000000001
#
# number of rings (size 3 to 8) (size 9 to 14) (size 15 to 20)
#    0.000    1.000    1.667    4.000    7.000    3.333 
#    0.000    0.000    0.000    0.000    0.000    0.000 
#    0.000    0.000    0.000    0.000    0.000    0.000 
#
# Total GULP energy -134119.078302 kJ/mol
# GULP energy per Si atom -5588.294929 kJ/mol
# Density = 2.022224 g / cm^3
# Si number density = 20.268374 Si / 1000 Ang^3
#
#
#
# Elastic Constant Matrix: (Units=GPa)
#
#
# Indices 1 2 3 4 5 6 
#
# 1 139.6863 23.4209 51.8860 0.0000 0.0000 0.0000
# 2 23.4209 53.6276 24.0288 0.0000 0.0000 0.0000
# 3 51.8860 24.0288 85.8171 0.0000 0.0000 0.0000
# 4 0.0000 0.0000 0.0000 35.7900 0.0000 0.0000
# 5 0.0000 0.0000 0.0000 0.0000 28.9956 0.0000
# 6 0.0000 0.0000 0.0000 0.0000 0.0000 24.5371
#
#
#
# Elastic Compliance Matrix: (Units=1/GPa)
#
#
# Indices 1 2 3 4 5 6 
#
# 1 0.009378 -0.001778 -0.005172 0.000000 0.000000 0.000000
# 2 -0.001778 0.021659 -0.004989 0.000000 0.000000 0.000000
# 3 -0.005172 -0.004989 0.016177 0.000000 0.000000 0.000000
# 4 0.000000 0.000000 0.000000 0.027941 0.000000 0.000000
# 5 0.000000 0.000000 0.000000 0.000000 0.034488 0.000000
# 6 0.000000 0.000000 0.000000 0.000000 0.000000 0.040755
#
#
# Mechanical properties :
#
#
# Convention : Reuss Voigt Hill
#
# Bulk Modulus (GPa) = 42.85491 53.08916 47.97204
# Shear Modulus (GPa) = 27.46403 29.85088 28.65746
#
# Velocity S-wave (km/s) = 3.68505 3.84185 3.76427
# Velocity P-wave (km/s) = 6.26863 6.77714 6.52784
#
# Compressibility (1/GPa) = 0.02333455
#
# Stress axis : x y z
#
# Youngs Moduli (GPa) = 106.62919 46.16939 61.81615
#
# Poissons Ratio (x) = 0.08210 0.31973
# Poissons Ratio (y) = 0.18961 0.30843
# Poissons Ratio (z) = 0.55152 0.23036
#
# Static dielectric constant tensor:
#      x y z
#    x 1.715820 0.000000 0.000000 
#    y 0.000000 1.709150 0.000000 
#    z 0.000000 0.000000 1.720310 
# 
# From -- ./inp_files/26311.got.cif
#   From: 2010.05.17/outbox.cif.g08.bks.cpg/sg43_14_cif.got.tgz:26311.got - 2010.06.03 19:21:55.
