data_PCOD9371523
_publ_section_title
;
Structure prediction by ZEFSAII (Michael W. Deem and Ramdas Pophale) SiO2 
 PCOD9371523
Probable space group: F D D 2
;
_chemical_formula_sum "Si O2"
_cell_formula_units_Z 72
_cell_length_a 14.840865
_cell_length_b 14.999666
_cell_length_c 11.885812
_cell_angle_alpha 90.000000
_cell_angle_beta 90.000000
_cell_angle_gamma 90.000000
_cell_volume 2645.877053
_symmetry_space_group_name_H-M "F D D 2"
_symmetry_group_IT_number 43
_symmetry_cell_setting 'orthorhombic'
loop_
_space_group_symop_operation_xyz
x,y,z
-x,-y,z
1/4-x,1/4+y,1/4+z
1/4+x,1/4-y,1/4+z
x,1/2+y,1/2+z
-x,1/2-y,1/2+z
1/4-x,3/4+y,3/4+z
1/4+x,3/4-y,3/4+z
1/2+x,y,1/2+z
1/2-x,-y,1/2+z
3/4-x,1/4+y,3/4+z
3/4+x,1/4-y,3/4+z
1/2+x,1/2+y,z
1/2-x,1/2-y,z
3/4-x,3/4+y,1/4+z
3/4+x,3/4-y,1/4+z
loop_
_atom_site_type_symbol
_atom_site_label
_atom_site_fract_x
_atom_site_fract_y
_atom_site_fract_z
Si Si1 0.750000 0.750000 0.040941
Si Si2 0.374566 0.648657 0.716320
Si Si3 0.537936 0.400416 0.426269
Si Si4 0.818313 0.668147 0.472097
Si Si5 0.533409 0.229505 0.112416
O O1 0.703278 0.821946 0.128052
O O2 0.821226 0.804166 0.962012
O O3 0.343390 0.644228 0.845690
O O4 0.447238 0.727157 0.694359
O O5 0.500000 0.500000 0.448945
O O6 0.499093 0.368407 0.307182
O O7 0.642892 0.417104 0.420874
O O8 0.506998 0.327415 0.511398
O O9 0.750000 0.750000 0.450811
O O10 0.905889 0.693969 0.550278
#
# Coordination Sequence:
#
# PCOD9371523 Si02
#       5
#     8  16  16  16  16
#     4  12  32  52  84 114 176 208 286 338 432 488
#     4  12  27  51  76 121 157 221 266 355 413 498
#     4   9  21  40  63  96 136 191 250 312 384 472
#     4   9  22  44  69 106 145 206 266 317 397 496
#     4  10  22  41  70 100 145 198 254 326 391 480
#
# _framework density 27.212149
#
# number of rings (size 3 to 8) (size 9 to 14) (size 15 to 20)
#    0.000    2.222    1.111    1.333    7.778    3.556 
#    4.000    0.000    0.000    0.000    0.000    0.000 
#    0.000    0.000    0.000    0.000    0.000    0.000 
#
# Total GULP energy -100465.250145 kJ/mol
# GULP energy per Si atom -5581.402786 kJ/mol
# Density = 2.715021 g / cm^3
# Si number density = 27.212149 Si / 1000 Ang^3
#
#
#
# Elastic Constant Matrix: (Units=GPa)
#
#
# Indices 1 2 3 4 5 6 
#
# 1 120.4360 -3.9162 14.4327 0.0000 0.0000 0.0000
# 2 -3.9162 48.0211 13.5627 0.0000 0.0000 0.0000
# 3 14.4327 13.5627 85.5889 0.0000 0.0000 0.0000
# 4 0.0000 0.0000 0.0000 55.2277 0.0000 0.0000
# 5 0.0000 0.0000 0.0000 0.0000 58.3554 0.0000
# 6 0.0000 0.0000 0.0000 0.0000 0.0000 38.4967
#
#
#
# Elastic Compliance Matrix: (Units=1/GPa)
#
#
# Indices 1 2 3 4 5 6 
#
# 1 0.008535 0.001154 -0.001622 0.000000 0.000000 0.000000
# 2 0.001154 0.021956 -0.003674 0.000000 0.000000 0.000000
# 3 -0.001622 -0.003674 0.012539 0.000000 0.000000 0.000000
# 4 0.000000 0.000000 0.000000 0.018107 0.000000 0.000000
# 5 0.000000 0.000000 0.000000 0.000000 0.017136 0.000000
# 6 0.000000 0.000000 0.000000 0.000000 0.000000 0.025976
#
#
# Mechanical properties :
#
#
# Convention : Reuss Voigt Hill
#
# Bulk Modulus (GPa) = 28.77954 33.57825 31.17890
# Shear Modulus (GPa) = 40.28494 45.74707 43.01601
#
# Velocity S-wave (km/s) = 3.85177 4.10460 3.98020
# Velocity P-wave (km/s) = 5.51185 5.90169 5.71010
#
# Compressibility (1/GPa) = 0.03474690
#
# Stress axis : x y z
#
# Youngs Moduli (GPa) = 117.16333 45.54584 79.74817
#
# Poissons Ratio (x) = -0.05257 0.12936
# Poissons Ratio (y) = -0.13523 0.29298
# Poissons Ratio (z) = 0.19006 0.16733
#
# Static dielectric constant tensor:
#      x y z
#    x 2.114210 0.000000 0.000000 
#    y 0.000000 2.395870 0.000000 
#    z 0.000000 0.000000 2.148180 
# 
# From -- ./inp_files/9954.got.cif
#   From: 2010.05.17/outbox.cif.g08.bks.cpg/sg43_5_cif.got.tgz:9954.got - 2010.06.03 19:21:55.
