data_PCOD9371174
_publ_section_title
;
Structure prediction by ZEFSAII (Michael W. Deem and Ramdas Pophale) SiO2 
 PCOD9371174
Probable space group: F D D 2
;
_chemical_formula_sum "Si O2"
_cell_formula_units_Z 80
_cell_length_a 8.363865
_cell_length_b 22.755652
_cell_length_c 19.606604
_cell_angle_alpha 90.000000
_cell_angle_beta 90.000000
_cell_angle_gamma 90.000000
_cell_volume 3731.630853
_symmetry_space_group_name_H-M "F D D 2"
_symmetry_group_IT_number 43
_symmetry_cell_setting 'orthorhombic'
loop_
_space_group_symop_operation_xyz
x,y,z
-x,-y,z
1/4-x,1/4+y,1/4+z
1/4+x,1/4-y,1/4+z
x,1/2+y,1/2+z
-x,1/2-y,1/2+z
1/4-x,3/4+y,3/4+z
1/4+x,3/4-y,3/4+z
1/2+x,y,1/2+z
1/2-x,-y,1/2+z
3/4-x,1/4+y,3/4+z
3/4+x,1/4-y,3/4+z
1/2+x,1/2+y,z
1/2-x,1/2-y,z
3/4-x,3/4+y,1/4+z
3/4+x,3/4-y,1/4+z
loop_
_atom_site_type_symbol
_atom_site_label
_atom_site_fract_x
_atom_site_fract_y
_atom_site_fract_z
Si Si1 0.965397 0.653811 0.024650
Si Si2 0.858241 0.309951 0.506317
Si Si3 0.661888 0.036928 0.020498
Si Si4 0.558476 0.255991 0.118846
Si Si5 0.063022 0.745357 0.909354
O O1 0.093672 0.602473 0.026417
O O2 0.988817 0.694240 0.091611
O O3 0.775822 0.639997 0.015161
O O4 0.007141 0.692258 0.957991
O O5 0.750000 0.250000 0.510903
O O6 0.984849 0.304381 0.567508
O O7 0.959575 0.301196 0.437087
O O8 0.775704 0.019729 0.081982
O O9 0.500000 0.000000 0.028330
O O10 0.730514 0.022754 0.946021
O O11 0.750000 0.250000 0.112470
O O12 0.250000 0.750000 0.921216
#
# Coordination Sequence:
#
# PCOD9371174 Si02
#       5
#    16  16  16  16  16
#     4  10  21  40  68  88 132 176 206 268 340 380
#     4   8  16  37  67  87 118 166 211 256 328 385
#     4  11  24  39  61 100 132 166 221 267 323 402
#     4   9  19  37  64  94 125 166 217 261 319 393
#     4  10  21  41  65  93 130 169 218 274 319 400
#
# _framework density 21.438348000000001
#
# number of rings (size 3 to 8) (size 9 to 14) (size 15 to 20)
#    0.000    2.800    0.000    4.200    5.600    2.400 
#    3.600    0.000    0.000    0.000    0.000    0.000 
#    0.000    0.000    0.000    0.000    0.000    0.000 
#
# Total GULP energy -111539.645148 kJ/mol
# GULP energy per Si atom -5576.982257 kJ/mol
# Density = 2.138955 g / cm^3
# Si number density = 21.438348 Si / 1000 Ang^3
#
#
#
# Elastic Constant Matrix: (Units=GPa)
#
#
# Indices 1 2 3 4 5 6 
#
# 1 102.6636 -6.4774 65.8932 0.0000 0.0000 0.0000
# 2 -6.4774 30.2517 34.5694 0.0000 0.0000 0.0000
# 3 65.8932 34.5694 165.2222 0.0000 0.0000 0.0000
# 4 0.0000 0.0000 0.0000 13.9787 0.0000 0.0000
# 5 0.0000 0.0000 0.0000 0.0000 27.0224 0.0000
# 6 0.0000 0.0000 0.0000 0.0000 0.0000 -4.3456
#
#
#
# Elastic Compliance Matrix: (Units=1/GPa)
#
#
# Indices 1 2 3 4 5 6 
#
# 1 0.017081 0.015037 -0.009958 0.000000 0.000000 0.000000
# 2 0.015037 0.056680 -0.017856 0.000000 0.000000 0.000000
# 3 -0.009958 -0.017856 0.013760 0.000000 0.000000 0.000000
# 4 0.000000 0.000000 0.000000 0.071537 0.000000 0.000000
# 5 0.000000 0.000000 0.000000 0.000000 0.037006 0.000000
# 6 0.000000 0.000000 0.000000 0.000000 0.000000 -0.230119
#
#
# Mechanical properties :
#
#
# Convention : Reuss Voigt Hill
#
# Bulk Modulus (GPa) = 16.13782 54.01197 35.07489
# Shear Modulus (GPa) = 411.31035 20.94126 216.12581
#
# Velocity S-wave (km/s) = 13.86628 3.12879 10.05145
# Velocity P-wave (km/s) = 16.24528 6.18880 12.29248
#
# Compressibility (1/GPa) = 0.06196624
#
# Stress axis : x y z
#
# Youngs Moduli (GPa) = 58.54498 17.64277 72.67426
#
# Poissons Ratio (x) = -0.26529 0.72371
# Poissons Ratio (y) = -0.88034 1.29769
# Poissons Ratio (z) = 0.58301 0.31503
#
# Static dielectric constant tensor:
#      x y z
#    x 1.855660 0.000000 0.000000 
#    y 0.000000 1.915320 0.000000 
#    z 0.000000 0.000000 1.786440 
# 
# From -- ./inp_files/12751.got.cif
#   From: 2010.05.17/outbox.cif.g08.bks.cpg/sg43_7_cif.got.tgz:12751.got - 2010.06.03 19:21:55.
