data_PCOD9371191
_publ_section_title
;
Structure prediction by ZEFSAII (Michael W. Deem and Ramdas Pophale) SiO2 
 PCOD9371191
Probable space group: F D D 2
;
_chemical_formula_sum "Si O2"
_cell_formula_units_Z 120
_cell_length_a 9.987412
_cell_length_b 18.850779
_cell_length_c 29.386805
_cell_angle_alpha 90.000000
_cell_angle_beta 90.000000
_cell_angle_gamma 90.000000
_cell_volume 5532.668365
_symmetry_space_group_name_H-M "F D D 2"
_symmetry_group_IT_number 43
_symmetry_cell_setting 'orthorhombic'
loop_
_space_group_symop_operation_xyz
x,y,z
-x,-y,z
1/4-x,1/4+y,1/4+z
1/4+x,1/4-y,1/4+z
x,1/2+y,1/2+z
-x,1/2-y,1/2+z
1/4-x,3/4+y,3/4+z
1/4+x,3/4-y,3/4+z
1/2+x,y,1/2+z
1/2-x,-y,1/2+z
3/4-x,1/4+y,3/4+z
3/4+x,1/4-y,3/4+z
1/2+x,1/2+y,z
1/2-x,1/2-y,z
3/4-x,3/4+y,1/4+z
3/4+x,3/4-y,1/4+z
loop_
_atom_site_type_symbol
_atom_site_label
_atom_site_fract_x
_atom_site_fract_y
_atom_site_fract_z
Si Si1 0.897350 0.648310 0.734150
Si Si2 0.250000 0.250000 0.796142
Si Si3 0.053123 0.378182 0.508617
Si Si4 0.918212 0.868177 0.841096
Si Si5 0.829066 0.462422 0.895452
Si Si6 0.724138 0.474162 0.299525
Si Si7 0.859733 0.191111 0.681675
Si Si8 0.465756 0.424747 0.099053
O O1 0.864025 0.715695 0.765138
O O2 0.835250 0.670084 0.684440
O O3 0.840461 0.581916 0.763872
O O4 0.057021 0.634720 0.731774
O O5 0.188937 0.188801 0.826073
O O6 0.019696 0.298114 0.522928
O O7 0.933597 0.411847 0.479915
O O8 0.064318 0.420731 0.555759
O O9 0.865229 0.940298 0.816530
O O10 0.905393 0.880410 0.894628
O O11 0.065069 0.837950 0.831884
O O12 0.853756 0.505875 0.847579
O O13 0.749564 0.519779 0.925427
O O14 0.743554 0.395673 0.877795
O O15 0.750000 0.250000 0.668867
O O16 0.500000 0.500000 0.122177
#
# Coordination Sequence:
#
# PCOD9371191 Si02
#       8
#    16   8  16  16  16  16  16  16
#     4  11  21  42  62  86 128 166 220 267 328 409
#     4  10  24  40  60  86 120 182 206 262 338 394
#     4  11  22  35  65  93 121 155 220 273 327 393
#     4  10  21  41  62  83 133 164 212 261 328 403
#     4  10  22  39  64  93 129 169 219 269 337 400
#     4   9  23  41  62  94 126 178 208 270 343 391
#     4  11  19  37  63  93 118 168 207 266 335 385
#     4  11  22  36  61  96 123 161 212 273 321 386
#
# _framework density 21.689354000000002
#
# number of rings (size 3 to 8) (size 9 to 14) (size 15 to 20)
#    0.000    1.600    2.667    1.600    1.867    2.133 
#    4.800    1.333    5.867    0.000    0.000    0.000 
#    0.000    0.000    0.000    0.000    0.000    0.000 
#
# Total GULP energy -167124.756782 kJ/mol
# GULP energy per Si atom -5570.825226 kJ/mol
# Density = 2.163999 g / cm^3
# Si number density = 21.689354 Si / 1000 Ang^3
#
#
#
# Elastic Constant Matrix: (Units=GPa)
#
#
# Indices 1 2 3 4 5 6 
#
# 1 65.5300 22.4315 16.7182 0.0000 0.0000 0.0000
# 2 22.4315 101.7284 34.2055 0.0000 0.0000 0.0000
# 3 16.7182 34.2055 112.4471 0.0000 0.0000 0.0000
# 4 0.0000 0.0000 0.0000 123.7205 0.0000 0.0000
# 5 0.0000 0.0000 0.0000 0.0000 21.0414 0.0000
# 6 0.0000 0.0000 0.0000 0.0000 0.0000 21.0045
#
#
#
# Elastic Compliance Matrix: (Units=1/GPa)
#
#
# Indices 1 2 3 4 5 6 
#
# 1 0.016736 -0.003179 -0.001521 0.000000 0.000000 0.000000
# 2 -0.003179 0.011554 -0.003042 0.000000 0.000000 0.000000
# 3 -0.001521 -0.003042 0.010045 0.000000 0.000000 0.000000
# 4 0.000000 0.000000 0.000000 0.008083 0.000000 0.000000
# 5 0.000000 0.000000 0.000000 0.000000 0.047525 0.000000
# 6 0.000000 0.000000 0.000000 0.000000 0.000000 0.047609
#
#
# Mechanical properties :
#
#
# Convention : Reuss Voigt Hill
#
# Bulk Modulus (GPa) = 43.76261 47.37954 45.57108
# Shear Modulus (GPa) = 30.36688 46.90997 38.63842
#
# Velocity S-wave (km/s) = 3.74583 4.65565 4.22530
# Velocity P-wave (km/s) = 6.23932 7.12686 6.69781
#
# Compressibility (1/GPa) = 0.02285056
#
# Stress axis : x y z
#
# Youngs Moduli (GPa) = 59.74974 86.55087 99.55599
#
# Poissons Ratio (x) = 0.27514 0.15146
# Poissons Ratio (y) = 0.18994 0.30285
# Poissons Ratio (z) = 0.09090 0.26329
#
# Static dielectric constant tensor:
#      x y z
#    x 1.827820 0.000000 0.000000 
#    y 0.000000 1.806590 0.000000 
#    z 0.000000 0.000000 1.818580 
# 
# From -- ./inp_files/28765.got.cif
#   From: 2010.05.17/outbox.cif.g08.bks.cpg/sg43_15_cif.got.tgz:28765.got - 2010.06.03 19:21:55.
