data_PCOD9371081
_publ_section_title
;
Structure prediction by ZEFSAII (Michael W. Deem and Ramdas Pophale) SiO2 
 PCOD9371081
Probable space group: F D D 2
;
_chemical_formula_sum "Si O2"
_cell_formula_units_Z 64
_cell_length_a 15.013154
_cell_length_b 11.361642
_cell_length_c 14.757317
_cell_angle_alpha 90.000000
_cell_angle_beta 90.000000
_cell_angle_gamma 90.000000
_cell_volume 2517.215786
_symmetry_space_group_name_H-M "F D D 2"
_symmetry_group_IT_number 43
_symmetry_cell_setting 'orthorhombic'
loop_
_space_group_symop_operation_xyz
x,y,z
-x,-y,z
1/4-x,1/4+y,1/4+z
1/4+x,1/4-y,1/4+z
x,1/2+y,1/2+z
-x,1/2-y,1/2+z
1/4-x,3/4+y,3/4+z
1/4+x,3/4-y,3/4+z
1/2+x,y,1/2+z
1/2-x,-y,1/2+z
3/4-x,1/4+y,3/4+z
3/4+x,1/4-y,3/4+z
1/2+x,1/2+y,z
1/2-x,1/2-y,z
3/4-x,3/4+y,1/4+z
3/4+x,3/4-y,1/4+z
loop_
_atom_site_type_symbol
_atom_site_label
_atom_site_fract_x
_atom_site_fract_y
_atom_site_fract_z
Si Si1 0.187730 0.902835 0.134830
Si Si2 0.274935 0.118302 0.189929
Si Si3 0.615450 0.676110 0.583030
Si Si4 0.845682 0.192606 0.520308
O O1 0.281336 0.865424 0.090533
O O2 0.117183 0.819729 0.084224
O O3 0.176752 0.872961 0.242208
O O4 0.194606 0.044108 0.141800
O O5 0.250000 0.250000 0.219691
O O6 0.322618 0.032453 0.261330
O O7 0.353898 0.123028 0.113960
O O8 0.582422 0.633293 0.680116
O O9 0.750000 0.250000 0.535084
#
# Coordination Sequence:
#
# PCOD9371081 Si02
#       4
#    16  16  16  16
#     4  10  22  39  67  99 139 175 238 289 349 419
#     4  10  23  42  64  98 137 180 233 292 362 424
#     4  10  21  38  68 103 134 182 237 290 351 426
#     4  10  22  38  69  94 138 181 238 289 355 424
#
# _framework density 25.424917000000001
#
# number of rings (size 3 to 8) (size 9 to 14) (size 15 to 20)
#    0.000    2.000    0.000    3.000   10.500    4.000 
#    0.000    0.000   11.000    0.000    0.000    0.000 
#    0.000    0.000    0.000    0.000    0.000    0.000 
#
# Total GULP energy -89190.056800 kJ/mol
# GULP energy per Si atom -5574.378550 kJ/mol
# Density = 2.536705 g / cm^3
# Si number density = 25.424917 Si / 1000 Ang^3
#
#
#
# Elastic Constant Matrix: (Units=GPa)
#
#
# Indices 1 2 3 4 5 6 
#
# 1 64.2588 15.8398 5.3861 0.0000 0.0000 0.0000
# 2 15.8398 154.8879 5.2841 0.0000 0.0000 0.0000
# 3 5.3861 5.2841 61.9625 0.0000 0.0000 0.0000
# 4 0.0000 0.0000 0.0000 13.8762 0.0000 0.0000
# 5 0.0000 0.0000 0.0000 0.0000 21.2454 0.0000
# 6 0.0000 0.0000 0.0000 0.0000 0.0000 43.7146
#
#
#
# Elastic Compliance Matrix: (Units=1/GPa)
#
#
# Indices 1 2 3 4 5 6 
#
# 1 0.016062 -0.001600 -0.001260 0.000000 0.000000 0.000000
# 2 -0.001600 0.006634 -0.000427 0.000000 0.000000 0.000000
# 3 -0.001260 -0.000427 0.016285 0.000000 0.000000 0.000000
# 4 0.000000 0.000000 0.000000 0.072066 0.000000 0.000000
# 5 0.000000 0.000000 0.000000 0.000000 0.047069 0.000000
# 6 0.000000 0.000000 0.000000 0.000000 0.000000 0.022876
#
#
# Mechanical properties :
#
#
# Convention : Reuss Voigt Hill
#
# Bulk Modulus (GPa) = 30.85579 37.12548 33.99063
# Shear Modulus (GPa) = 25.20586 32.74053 28.97319
#
# Velocity S-wave (km/s) = 3.15204 3.59239 3.37940
# Velocity P-wave (km/s) = 5.04079 5.64276 5.35025
#
# Compressibility (1/GPa) = 0.03240883
#
# Stress axis : x y z
#
# Youngs Moduli (GPa) = 62.25889 150.72894 61.40742
#
# Poissons Ratio (x) = 0.24111 0.07736
# Poissons Ratio (y) = 0.09959 0.02620
# Poissons Ratio (z) = 0.07843 0.06432
#
# Static dielectric constant tensor:
#      x y z
#    x 2.042100 0.000000 0.000000 
#    y 0.000000 2.135610 0.000000 
#    z 0.000000 0.000000 2.125860 
# 
# From -- ./inp_files/6975.got.cif
#   From: 2010.05.17/outbox.cif.g08.bks.cpg/sg43_4_cif.got.tgz:6975.got - 2010.06.03 19:21:55.
