data_PCOD9371346
_publ_section_title
;
Structure prediction by ZEFSAII (Michael W. Deem and Ramdas Pophale) SiO2 
 PCOD9371346
Probable space group: F D D 2
;
_chemical_formula_sum "Si O2"
_cell_formula_units_Z 88
_cell_length_a 14.966833
_cell_length_b 10.918777
_cell_length_c 25.522041
_cell_angle_alpha 90.000000
_cell_angle_beta 90.000000
_cell_angle_gamma 90.000000
_cell_volume 4170.799484
_symmetry_space_group_name_H-M "F D D 2"
_symmetry_group_IT_number 43
_symmetry_cell_setting 'orthorhombic'
loop_
_space_group_symop_operation_xyz
x,y,z
-x,-y,z
1/4-x,1/4+y,1/4+z
1/4+x,1/4-y,1/4+z
x,1/2+y,1/2+z
-x,1/2-y,1/2+z
1/4-x,3/4+y,3/4+z
1/4+x,3/4-y,3/4+z
1/2+x,y,1/2+z
1/2-x,-y,1/2+z
3/4-x,1/4+y,3/4+z
3/4+x,1/4-y,3/4+z
1/2+x,1/2+y,z
1/2-x,1/2-y,z
3/4-x,3/4+y,1/4+z
3/4+x,3/4-y,1/4+z
loop_
_atom_site_type_symbol
_atom_site_label
_atom_site_fract_x
_atom_site_fract_y
_atom_site_fract_z
Si Si1 0.326064 0.852739 0.479040
Si Si2 0.494563 0.203061 0.018586
Si Si3 0.306512 0.937379 0.589740
Si Si4 0.406213 0.960372 0.839112
Si Si5 0.882522 0.171928 0.614314
Si Si6 0.500000 0.500000 0.435460
O O1 0.250000 0.750000 0.484223
O O2 0.423703 0.796746 0.492503
O O3 0.305140 0.944073 0.526496
O O4 0.325161 0.904111 0.420834
O O5 0.575342 0.263180 0.050714
O O6 0.440630 0.132938 0.064509
O O7 0.523365 0.111732 0.973072
O O8 0.208824 0.904630 0.611042
O O9 0.362662 0.816658 0.605285
O O10 0.342139 0.068539 0.606216
O O11 0.418464 0.030439 0.895125
O O12 0.500000 0.000000 0.812368
#
# Coordination Sequence:
#
# PCOD9371346 Si02
#       6
#    16  16  16  16  16   8
#     4  11  23  40  69 101 131 172 232 273 328 411
#     4  11  24  43  69  98 134 184 216 281 341 395
#     4  10  21  46  61  99 143 168 231 281 326 409
#     4  10  26  44  66  97 140 173 223 287 331 404
#     4  10  23  38  74  97 133 186 220 282 332 394
#     4  10  26  42  68  96 136 170 238 266 336 410
#
# _framework density 21.099070999999999
#
# number of rings (size 3 to 8) (size 9 to 14) (size 15 to 20)
#    0.545    1.091    3.636    1.091    6.364    7.273 
#    0.000    0.000    0.000    0.000    0.000    0.000 
#    0.000    0.000    0.000    0.000    0.000    0.000 
#
# Total GULP energy -122708.342231 kJ/mol
# GULP energy per Si atom -5577.651920 kJ/mol
# Density = 2.105105 g / cm^3
# Si number density = 21.099071 Si / 1000 Ang^3
#
#
#
# Elastic Constant Matrix: (Units=GPa)
#
#
# Indices 1 2 3 4 5 6 
#
# 1 89.2958 26.5167 19.1598 0.0000 0.0000 0.0000
# 2 26.5167 71.4167 21.7746 0.0000 0.0000 0.0000
# 3 19.1598 21.7746 134.7317 0.0000 0.0000 0.0000
# 4 0.0000 0.0000 0.0000 23.4266 0.0000 0.0000
# 5 0.0000 0.0000 0.0000 0.0000 27.8331 0.0000
# 6 0.0000 0.0000 0.0000 0.0000 0.0000 3.5055
#
#
#
# Elastic Compliance Matrix: (Units=1/GPa)
#
#
# Indices 1 2 3 4 5 6 
#
# 1 0.012740 -0.004394 -0.001102 0.000000 0.000000 0.000000
# 2 -0.004394 0.016244 -0.002000 0.000000 0.000000 0.000000
# 3 -0.001102 -0.002000 0.007902 0.000000 0.000000 0.000000
# 4 0.000000 0.000000 0.000000 0.042687 0.000000 0.000000
# 5 0.000000 0.000000 0.000000 0.000000 0.035928 0.000000
# 6 0.000000 0.000000 0.000000 0.000000 0.000000 0.285268
#
#
# Mechanical properties :
#
#
# Convention : Reuss Voigt Hill
#
# Bulk Modulus (GPa) = 45.67593 47.81627 46.74610
# Shear Modulus (GPa) = 11.81867 26.15257 18.98562
#
# Velocity S-wave (km/s) = 2.36932 3.52449 3.00297
# Velocity P-wave (km/s) = 5.40187 6.26695 5.85042
#
# Compressibility (1/GPa) = 0.02189337
#
# Stress axis : x y z
#
# Youngs Moduli (GPa) = 78.49271 61.56167 126.54897
#
# Poissons Ratio (x) = 0.27053 0.13940
# Poissons Ratio (y) = 0.34493 0.25314
# Poissons Ratio (z) = 0.08646 0.12314
#
# Static dielectric constant tensor:
#      x y z
#    x 1.803740 0.000000 0.000000 
#    y 0.000000 1.830170 0.000000 
#    z 0.000000 0.000000 1.747070 
# 
# From -- ./inp_files/25565.got.cif
#   From: 2010.05.17/outbox.cif.g08.bks.cpg/sg43_13_cif.got.tgz:25565.got - 2010.06.03 19:21:55.
