data_PCOD9371313
_publ_section_title
;
Structure prediction by ZEFSAII (Michael W. Deem and Ramdas Pophale) SiO2 
 PCOD9371313
Probable space group: F D D 2
;
_chemical_formula_sum "Si O2"
_cell_formula_units_Z 72
_cell_length_a 10.598768
_cell_length_b 11.706103
_cell_length_c 26.685007
_cell_angle_alpha 90.000000
_cell_angle_beta 90.000000
_cell_angle_gamma 90.000000
_cell_volume 3310.816020
_symmetry_space_group_name_H-M "F D D 2"
_symmetry_group_IT_number 43
_symmetry_cell_setting 'orthorhombic'
loop_
_space_group_symop_operation_xyz
x,y,z
-x,-y,z
1/4-x,1/4+y,1/4+z
1/4+x,1/4-y,1/4+z
x,1/2+y,1/2+z
-x,1/2-y,1/2+z
1/4-x,3/4+y,3/4+z
1/4+x,3/4-y,3/4+z
1/2+x,y,1/2+z
1/2-x,-y,1/2+z
3/4-x,1/4+y,3/4+z
3/4+x,1/4-y,3/4+z
1/2+x,1/2+y,z
1/2-x,1/2-y,z
3/4-x,3/4+y,1/4+z
3/4+x,3/4-y,1/4+z
loop_
_atom_site_type_symbol
_atom_site_label
_atom_site_fract_x
_atom_site_fract_y
_atom_site_fract_z
Si Si1 0.683828 0.863548 0.812790
Si Si2 0.062867 0.742580 0.790071
Si Si3 0.351763 0.015355 0.657944
Si Si4 0.250000 0.750000 0.136718
Si Si5 0.277558 0.068763 0.253038
O O1 0.750000 0.750000 0.834156
O O2 0.571816 0.811932 0.778675
O O3 0.608216 0.939923 0.852958
O O4 0.773437 0.948238 0.781879
O O5 0.073554 0.764649 0.849888
O O6 0.167906 0.647137 0.777949
O O7 0.097212 0.857554 0.760928
O O8 0.314835 0.147239 0.665420
O O9 0.500000 0.000000 0.667676
O O10 0.265244 0.945754 0.696047
#
# Coordination Sequence:
#
# PCOD9371313 Si02
#       5
#    16  16  16   8  16
#     4  11  21  39  68  93 133 183 218 280 340 393
#     4  10  21  44  65  97 143 171 228 287 324 411
#     4  11  20  38  71  95 131 187 219 274 346 395
#     4  10  22  44  62  98 136 172 234 272 334 416
#     4  11  21  40  67  99 131 180 229 273 344 401
#
# _framework density 21.746903
#
# number of rings (size 3 to 8) (size 9 to 14) (size 15 to 20)
#    0.000    1.333    6.667    1.333    1.556    0.889 
#    0.000   22.222    0.000    0.000    0.000    0.000 
#    0.000    0.000    0.000    0.000    0.000    0.000 
#
# Total GULP energy -100563.159688 kJ/mol
# GULP energy per Si atom -5586.842205 kJ/mol
# Density = 2.169741 g / cm^3
# Si number density = 21.746903 Si / 1000 Ang^3
#
#
#
# Elastic Constant Matrix: (Units=GPa)
#
#
# Indices 1 2 3 4 5 6 
#
# 1 43.3155 34.2093 -4.0720 0.0000 0.0000 0.0000
# 2 34.2093 128.8944 41.1198 0.0000 0.0000 0.0000
# 3 -4.0720 41.1198 113.4847 0.0000 0.0000 0.0000
# 4 0.0000 0.0000 0.0000 -26.1647 0.0000 0.0000
# 5 0.0000 0.0000 0.0000 0.0000 -20.5525 0.0000
# 6 0.0000 0.0000 0.0000 0.0000 0.0000 51.9687
#
#
#
# Elastic Compliance Matrix: (Units=1/GPa)
#
#
# Indices 1 2 3 4 5 6 
#
# 1 0.031251 -0.009783 0.004666 0.000000 0.000000 0.000000
# 2 -0.009783 0.011835 -0.004639 0.000000 0.000000 0.000000
# 3 0.004666 -0.004639 0.010660 0.000000 0.000000 0.000000
# 4 0.000000 0.000000 0.000000 -0.038219 0.000000 0.000000
# 5 0.000000 0.000000 0.000000 0.000000 -0.048656 0.000000
# 6 0.000000 0.000000 0.000000 0.000000 0.000000 0.019242
#
#
# Mechanical properties :
#
#
# Convention : Reuss Voigt Hill
#
# Bulk Modulus (GPa) = 29.21062 47.57875 38.39469
# Shear Modulus (GPa) = 293.48980 15.34614 154.41797
#
# Velocity S-wave (km/s) = 11.62970 2.65933 8.43570
# Velocity P-wave (km/s) = 13.92101 5.59958 10.61013
#
# Compressibility (1/GPa) = 0.03423413
#
# Stress axis : x y z
#
# Youngs Moduli (GPa) = 31.99876 84.49737 93.80745
#
# Poissons Ratio (x) = 0.82662 -0.43771
# Poissons Ratio (y) = 0.31304 0.43519
# Poissons Ratio (z) = -0.14931 0.39200
#
# Static dielectric constant tensor:
#      x y z
#    x 1.833410 0.000000 0.000000 
#    y 0.000000 1.810440 0.000000 
#    z 0.000000 0.000000 1.787330 
# 
# From -- ./inp_files/24848.got.cif
#   From: 2010.05.17/outbox.cif.g08.bks.cpg/sg43_13_cif.got.tgz:24848.got - 2010.06.03 19:21:55.
