data_PCOD9371116
_publ_section_title
;
Structure prediction by ZEFSAII (Michael W. Deem and Ramdas Pophale) SiO2 
 PCOD9371116
Probable space group: F D D 2
;
_chemical_formula_sum "Si O2"
_cell_formula_units_Z 120
_cell_length_a 12.647474
_cell_length_b 13.603532
_cell_length_c 29.818292
_cell_angle_alpha 90.000000
_cell_angle_beta 90.000000
_cell_angle_gamma 90.000000
_cell_volume 5130.246599
_symmetry_space_group_name_H-M "F D D 2"
_symmetry_group_IT_number 43
_symmetry_cell_setting 'orthorhombic'
loop_
_space_group_symop_operation_xyz
x,y,z
-x,-y,z
1/4-x,1/4+y,1/4+z
1/4+x,1/4-y,1/4+z
x,1/2+y,1/2+z
-x,1/2-y,1/2+z
1/4-x,3/4+y,3/4+z
1/4+x,3/4-y,3/4+z
1/2+x,y,1/2+z
1/2-x,-y,1/2+z
3/4-x,1/4+y,3/4+z
3/4+x,1/4-y,3/4+z
1/2+x,1/2+y,z
1/2-x,1/2-y,z
3/4-x,3/4+y,1/4+z
3/4+x,3/4-y,1/4+z
loop_
_atom_site_type_symbol
_atom_site_label
_atom_site_fract_x
_atom_site_fract_y
_atom_site_fract_z
Si Si1 0.747633 0.099651 0.511160
Si Si2 0.782437 0.961071 0.109697
Si Si3 0.550696 0.392240 0.465927
Si Si4 0.000000 0.500000 0.651435
Si Si5 0.069213 0.912591 0.327167
Si Si6 0.827274 0.159791 0.688121
Si Si7 0.682656 0.619196 0.476265
Si Si8 0.025942 0.617851 0.139013
O O1 0.724884 0.102465 0.563904
O O2 0.862373 0.148712 0.500893
O O3 0.644051 0.128161 0.481669
O O4 0.779501 0.990967 0.490633
O O5 0.736614 0.913323 0.155125
O O6 0.719236 0.057818 0.094977
O O7 0.899711 0.994993 0.119877
O O8 0.500000 0.500000 0.478294
O O9 0.435492 0.345889 0.460243
O O10 0.623375 0.390345 0.421359
O O11 0.997408 0.408127 0.685694
O O12 0.059455 0.918078 0.274442
O O13 0.190934 0.909062 0.341120
O O14 0.000000 0.000000 0.347473
O O15 0.750000 0.250000 0.699484
O O16 0.927176 0.179905 0.655893
O O17 0.000000 0.500000 0.140028
#
# Coordination Sequence:
#
# PCOD9371116 Si02
#       8
#    16  16  16   8  16  16  16  16
#     4   9  22  43  69 101 140 183 231 286 361 414
#     4  11  25  43  70 104 140 186 241 287 351 437
#     4   9  19  38  67  96 131 177 229 283 341 415
#     4  12  24  42  62  98 138 180 232 284 354 418
#     4  11  23  42  68 103 138 183 238 289 347 419
#     4  11  24  44  69 100 144 190 227 293 360 421
#     4  10  21  39  66  99 135 181 227 289 348 417
#     4  11  22  39  67 103 137 181 229 284 348 414
#
# _framework density 23.390688000000001
#
# number of rings (size 3 to 8) (size 9 to 14) (size 15 to 20)
#    0.000    1.600    2.000    2.000    2.800    3.733 
#    0.000    4.000    0.000    0.000    0.000    0.000 
#    0.000    0.000    0.000    0.000    0.000    0.000 
#
# Total GULP energy -167028.493139 kJ/mol
# GULP energy per Si atom -5567.616438 kJ/mol
# Density = 2.333745 g / cm^3
# Si number density = 23.390688 Si / 1000 Ang^3
#
#
#
# Elastic Constant Matrix: (Units=GPa)
#
#
# Indices 1 2 3 4 5 6 
#
# 1 100.8069 17.9920 27.2621 0.0000 0.0000 0.0000
# 2 17.9920 46.5940 15.8910 0.0000 0.0000 0.0000
# 3 27.2621 15.8910 83.5109 0.0000 0.0000 0.0000
# 4 0.0000 0.0000 0.0000 68.5145 0.0000 0.0000
# 5 0.0000 0.0000 0.0000 0.0000 -208.0244 0.0000
# 6 0.0000 0.0000 0.0000 0.0000 0.0000 15.9173
#
#
#
# Elastic Compliance Matrix: (Units=1/GPa)
#
#
# Indices 1 2 3 4 5 6 
#
# 1 0.011345 -0.003334 -0.003069 0.000000 0.000000 0.000000
# 2 -0.003334 0.023931 -0.003465 0.000000 0.000000 0.000000
# 3 -0.003069 -0.003465 0.013636 0.000000 0.000000 0.000000
# 4 0.000000 0.000000 0.000000 0.014595 0.000000 0.000000
# 5 0.000000 0.000000 0.000000 0.000000 -0.004807 0.000000
# 6 0.000000 0.000000 0.000000 0.000000 0.000000 0.062825
#
#
# Mechanical properties :
#
#
# Convention : Reuss Voigt Hill
#
# Bulk Modulus (GPa) = 34.27602 39.24468 36.76035
# Shear Modulus (GPa) = 33.11530 -13.40075 9.85727
#
# Velocity S-wave (km/s) = 3.76672 -2.39615 2.05508
# Velocity P-wave (km/s) = 5.79682 3.02638 4.62396
#
# Compressibility (1/GPa) = 0.02917491
#
# Stress axis : x y z
#
# Youngs Moduli (GPa) = 88.14428 41.78627 73.33618
#
# Poissons Ratio (x) = 0.13932 0.22508
# Poissons Ratio (y) = 0.29388 0.25414
# Poissons Ratio (z) = 0.27053 0.14481
#
# Static dielectric constant tensor:
#      x y z
#    x 2.413440 0.000000 0.000000 
#    y 0.000000 2.001970 0.000000 
#    z 0.000000 0.000000 1.931480 
# 
# From -- ./inp_files/28757.got.cif
#   From: 2010.05.17/outbox.cif.g08.bks.cpg/sg43_15_cif.got.tgz:28757.got - 2010.06.03 19:21:55.
