data_PCOD9371563
_publ_section_title
;
Structure prediction by ZEFSAII (Michael W. Deem and Ramdas Pophale) SiO2 
 PCOD9371563
Probable space group: F D D 2
;
_chemical_formula_sum "Si O2"
_cell_formula_units_Z 88
_cell_length_a 11.998221
_cell_length_b 27.778774
_cell_length_c 12.010521
_cell_angle_alpha 90.000000
_cell_angle_beta 90.000000
_cell_angle_gamma 90.000000
_cell_volume 4003.057041
_symmetry_space_group_name_H-M "F D D 2"
_symmetry_group_IT_number 43
_symmetry_cell_setting 'orthorhombic'
loop_
_space_group_symop_operation_xyz
x,y,z
-x,-y,z
1/4-x,1/4+y,1/4+z
1/4+x,1/4-y,1/4+z
x,1/2+y,1/2+z
-x,1/2-y,1/2+z
1/4-x,3/4+y,3/4+z
1/4+x,3/4-y,3/4+z
1/2+x,y,1/2+z
1/2-x,-y,1/2+z
3/4-x,1/4+y,3/4+z
3/4+x,1/4-y,3/4+z
1/2+x,1/2+y,z
1/2-x,1/2-y,z
3/4-x,3/4+y,1/4+z
3/4+x,3/4-y,1/4+z
loop_
_atom_site_type_symbol
_atom_site_label
_atom_site_fract_x
_atom_site_fract_y
_atom_site_fract_z
Si Si1 0.848751 0.916817 0.569530
Si Si2 0.227152 0.087965 0.904819
Si Si3 0.978882 0.345117 0.409351
Si Si4 0.913549 0.404823 0.827966
Si Si5 0.008257 0.757422 0.466305
Si Si6 0.500000 0.500000 0.229874
O O1 0.844867 0.918508 0.436848
O O2 0.739051 0.889598 0.611162
O O3 0.839330 0.967984 0.626798
O O4 0.949266 0.882792 0.609083
O O5 0.103646 0.110127 0.911028
O O6 0.237486 0.041578 0.825277
O O7 0.261736 0.078430 0.031786
O O8 0.949007 0.297163 0.479771
O O9 0.094082 0.358992 0.469052
O O10 0.989014 0.450825 0.799099
O O11 0.876202 0.753540 0.428156
#
# Coordination Sequence:
#
# PCOD9371563 Si02
#       6
#    16  16  16  16  16   8
#     4  12  22  41  73  98 140 183 244 289 362 439
#     4  12  23  48  68 106 144 189 239 301 359 444
#     4  11  27  43  70 101 149 181 237 305 374 429
#     4  11  22  40  67  99 134 188 233 300 364 424
#     4  11  25  43  71 105 135 191 240 296 360 436
#     4  10  22  42  66  98 132 180 248 286 350 440
#
# _framework density 21.983198000000002
#
# number of rings (size 3 to 8) (size 9 to 14) (size 15 to 20)
#    0.000    0.727    5.455    1.091    5.091    2.182 
#    0.000    0.000    0.000    0.000    0.000    0.000 
#    0.000    0.000    0.000    0.000    0.000    0.000 
#
# Total GULP energy -122752.338785 kJ/mol
# GULP energy per Si atom -5579.651763 kJ/mol
# Density = 2.193316 g / cm^3
# Si number density = 21.983198 Si / 1000 Ang^3
#
#
#
# Elastic Constant Matrix: (Units=GPa)
#
#
# Indices 1 2 3 4 5 6 
#
# 1 41.6873 16.0228 9.7068 0.0000 0.0000 0.0000
# 2 16.0228 48.3822 -8.3843 0.0000 0.0000 0.0000
# 3 9.7068 -8.3843 77.7675 0.0000 0.0000 0.0000
# 4 0.0000 0.0000 0.0000 27.4119 0.0000 0.0000
# 5 0.0000 0.0000 0.0000 0.0000 9.7145 0.0000
# 6 0.0000 0.0000 0.0000 0.0000 0.0000 39.6580
#
#
#
# Elastic Compliance Matrix: (Units=1/GPa)
#
#
# Indices 1 2 3 4 5 6 
#
# 1 0.029121 -0.010470 -0.004764 0.000000 0.000000 0.000000
# 2 -0.010470 0.024826 0.003983 0.000000 0.000000 0.000000
# 3 -0.004764 0.003983 0.013883 0.000000 0.000000 0.000000
# 4 0.000000 0.000000 0.000000 0.036480 0.000000 0.000000
# 5 0.000000 0.000000 0.000000 0.000000 0.102939 0.000000
# 6 0.000000 0.000000 0.000000 0.000000 0.000000 0.025216
#
#
# Mechanical properties :
#
#
# Convention : Reuss Voigt Hill
#
# Bulk Modulus (GPa) = 22.06009 22.50307 22.28158
# Shear Modulus (GPa) = 18.51336 25.38967 21.95152
#
# Velocity S-wave (km/s) = 2.90515 3.40215 3.16343
# Velocity P-wave (km/s) = 4.61627 5.06869 4.84776
#
# Compressibility (1/GPa) = 0.04533074
#
# Stress axis : x y z
#
# Youngs Moduli (GPa) = 34.33903 40.27988 72.03114
#
# Poissons Ratio (x) = 0.42172 0.34313
# Poissons Ratio (y) = 0.35952 -0.28693
# Poissons Ratio (z) = 0.16358 -0.16045
#
# Static dielectric constant tensor:
#      x y z
#    x 1.859840 0.000000 0.000000 
#    y 0.000000 1.782160 0.000000 
#    z 0.000000 0.000000 1.777330 
# 
# From -- ./inp_files/5731.got.cif
#   From: 2010.05.17/outbox.cif.g08.bks.cpg/sg43_3_cif.got.tgz:5731.got - 2010.06.03 19:21:55.
