data_PCOD9371291
_publ_section_title
;
Structure prediction by ZEFSAII (Michael W. Deem and Ramdas Pophale) SiO2 
 PCOD9371291
Probable space group: F D D 2
;
_chemical_formula_sum "Si O2"
_cell_formula_units_Z 96
_cell_length_a 22.616177
_cell_length_b 19.768180
_cell_length_c 8.108133
_cell_angle_alpha 90.000000
_cell_angle_beta 90.000000
_cell_angle_gamma 90.000000
_cell_volume 3624.989436
_symmetry_space_group_name_H-M "F D D 2"
_symmetry_group_IT_number 43
_symmetry_cell_setting 'orthorhombic'
loop_
_space_group_symop_operation_xyz
x,y,z
-x,-y,z
1/4-x,1/4+y,1/4+z
1/4+x,1/4-y,1/4+z
x,1/2+y,1/2+z
-x,1/2-y,1/2+z
1/4-x,3/4+y,3/4+z
1/4+x,3/4-y,3/4+z
1/2+x,y,1/2+z
1/2-x,-y,1/2+z
3/4-x,1/4+y,3/4+z
3/4+x,1/4-y,3/4+z
1/2+x,1/2+y,z
1/2-x,1/2-y,z
3/4-x,3/4+y,1/4+z
3/4+x,3/4-y,1/4+z
loop_
_atom_site_type_symbol
_atom_site_label
_atom_site_fract_x
_atom_site_fract_y
_atom_site_fract_z
Si Si1 0.192364 0.006832 0.869520
Si Si2 0.766534 0.370240 0.913602
Si Si3 0.389816 0.935520 0.878355
Si Si4 0.125574 0.699130 0.332257
Si Si5 0.078611 0.564721 0.501605
Si Si6 0.996428 0.602107 0.048811
O O1 0.232478 0.073946 0.872446
O O2 0.230271 0.941234 0.910037
O O3 0.166168 0.998535 0.686972
O O4 0.130942 0.011271 0.971191
O O5 0.833013 0.389879 0.874268
O O6 0.742620 0.322813 0.761868
O O7 0.769952 0.347340 0.103966
O O8 0.417388 0.924986 0.699334
O O9 0.434870 0.916251 0.027448
O O10 0.373937 0.014262 0.906424
O O11 0.100451 0.625681 0.382078
O O12 0.195481 0.694393 0.380064
#
# Coordination Sequence:
#
# PCOD9371291 Si02
#       6
#    16  16  16  16  16  16
#     4  10  21  43  70 100 135 182 235 290 348 424
#     4  10  22  41  66 100 132 179 231 278 358 419
#     4  11  22  41  69  98 137 187 223 288 358 423
#     4  10  21  44  67  94 138 180 234 287 347 417
#     4   9  23  43  65 102 140 170 240 289 342 426
#     4  10  22  42  63  98 136 172 234 284 343 430
#
# _framework density 26.482835999999999
#
# number of rings (size 3 to 8) (size 9 to 14) (size 15 to 20)
#    0.000    2.000    1.667    0.500    2.333    1.333 
#   15.000    0.000    0.000    0.000    0.000    0.000 
#    0.000    0.000    0.000    0.000    0.000    0.000 
#
# Total GULP energy -133785.392264 kJ/mol
# GULP energy per Si atom -5574.391344 kJ/mol
# Density = 2.642256 g / cm^3
# Si number density = 26.482836 Si / 1000 Ang^3
#
#
#
# Elastic Constant Matrix: (Units=GPa)
#
#
# Indices 1 2 3 4 5 6 
#
# 1 89.4979 23.7936 4.8626 -0.0007 0.0003 0.0000
# 2 23.7936 111.0893 17.6597 -0.0011 0.0006 0.0002
# 3 4.8626 17.6597 64.5418 -0.0029 0.0017 0.0007
# 4 -0.0007 -0.0011 -0.0029 30.2184 0.0010 0.0004
# 5 0.0003 0.0006 0.0017 0.0010 35.5045 -0.0002
# 6 0.0000 0.0002 0.0007 0.0004 -0.0002 33.3282
#
#
#
# Elastic Compliance Matrix: (Units=1/GPa)
#
#
# Indices 1 2 3 4 5 6 
#
# 1 0.011851 -0.002505 -0.000207 0.000000 0.000000 0.000000
# 2 -0.002505 0.009941 -0.002531 0.000000 0.000000 0.000000
# 3 -0.000207 -0.002531 0.016202 0.000001 -0.000001 0.000000
# 4 0.000000 0.000000 0.000001 0.033092 -0.000001 0.000000
# 5 0.000000 0.000000 -0.000001 -0.000001 0.028165 0.000000
# 6 0.000000 0.000000 0.000000 0.000000 0.000000 0.030005
#
#
# Mechanical properties :
#
#
# Convention : Reuss Voigt Hill
#
# Bulk Modulus (GPa) = 36.35589 39.75120 38.05355
# Shear Modulus (GPa) = 33.57679 34.39775 33.98727
#
# Velocity S-wave (km/s) = 3.56458 3.60789 3.58630
# Velocity P-wave (km/s) = 5.54072 5.69198 5.61686
#
# Compressibility (1/GPa) = 0.02750586
#
# Stress axis : x y z
#
# Youngs Moduli (GPa) = 84.38273 100.59607 61.72060
#
# Poissons Ratio (x) = 0.25202 0.01280
# Poissons Ratio (y) = 0.21140 0.15623
# Poissons Ratio (z) = 0.01750 0.25463
#
# Static dielectric constant tensor:
#      x y z
#    x 2.375460 0.000000 0.000000 
#    y 0.000000 2.181240 0.000000 
#    z 0.000000 0.000000 2.055050 
# 
# From -- ./inp_files/3290.got.cif
#   From: 2010.05.17/outbox.cif.g08.bks.cpg/sg43_2_cif.got.tgz:3290.got - 2010.06.03 19:21:55.
