data_PCOD9371478
_publ_section_title
;
Structure prediction by ZEFSAII (Michael W. Deem and Ramdas Pophale) SiO2 
 PCOD9371478
Probable space group: F D D 2
;
_chemical_formula_sum "Si O2"
_cell_formula_units_Z 120
_cell_length_a 20.252076
_cell_length_b 8.589552
_cell_length_c 26.953445
_cell_angle_alpha 90.000000
_cell_angle_beta 90.000000
_cell_angle_gamma 90.000000
_cell_volume 4688.720484
_symmetry_space_group_name_H-M "F D D 2"
_symmetry_group_IT_number 43
_symmetry_cell_setting 'orthorhombic'
loop_
_space_group_symop_operation_xyz
x,y,z
-x,-y,z
1/4-x,1/4+y,1/4+z
1/4+x,1/4-y,1/4+z
x,1/2+y,1/2+z
-x,1/2-y,1/2+z
1/4-x,3/4+y,3/4+z
1/4+x,3/4-y,3/4+z
1/2+x,y,1/2+z
1/2-x,-y,1/2+z
3/4-x,1/4+y,3/4+z
3/4+x,1/4-y,3/4+z
1/2+x,1/2+y,z
1/2-x,1/2-y,z
3/4-x,3/4+y,1/4+z
3/4+x,3/4-y,1/4+z
loop_
_atom_site_type_symbol
_atom_site_label
_atom_site_fract_x
_atom_site_fract_y
_atom_site_fract_z
Si Si1 0.430498 0.765052 0.910430
Si Si2 0.341049 0.018807 0.444059
Si Si3 0.480430 0.179266 0.992917
Si Si4 0.750000 0.250000 0.799543
Si Si5 0.675065 0.270526 0.374544
Si Si6 0.852696 0.964240 0.059371
Si Si7 0.158023 0.375322 0.038194
Si Si8 0.944276 0.197177 0.193977
O O1 0.404401 0.589330 0.916418
O O2 0.499258 0.794921 0.936362
O O3 0.431989 0.809095 0.853005
O O4 0.371502 0.842018 0.943666
O O5 0.331285 0.849944 0.419988
O O6 0.351932 0.021236 0.502989
O O7 0.270161 0.099366 0.433750
O O8 0.500000 0.000000 0.003398
O O9 0.509455 0.333481 0.020593
O O10 0.404344 0.180936 0.005297
O O11 0.819799 0.217250 0.826022
O O12 0.750000 0.250000 0.354783
O O13 0.622309 0.230000 0.332236
O O14 0.674648 0.437947 0.399162
O O15 0.820608 0.792330 0.058623
O O16 0.200012 0.469574 0.998062
#
# Coordination Sequence:
#
# PCOD9371478 Si02
#       8
#    16  16  16   8  16  16  16  16
#     4  12  25  44  68 102 141 181 228 296 355 420
#     4  11  23  46  64  98 138 179 230 284 345 423
#     4  11  23  44  70 102 140 175 236 297 345 414
#     4  10  24  42  74  98 134 184 240 290 338 426
#     4  10  22  40  70  97 129 176 237 284 335 415
#     4  11  24  42  70  99 138 183 235 283 363 432
#     4  11  22  43  72 102 134 186 232 292 354 429
#     4  11  25  41  68 100 142 178 230 292 351 429
#
# _framework density 25.593336999999998
#
# number of rings (size 3 to 8) (size 9 to 14) (size 15 to 20)
#    0.000    1.067    5.333    0.800    1.867    3.200 
#    2.400    1.333    0.000    0.000    0.000    0.000 
#    0.000    0.000    0.000    0.000    0.000    0.000 
#
# Total GULP energy -167582.592587 kJ/mol
# GULP energy per Si atom -5586.086420 kJ/mol
# Density = 2.553509 g / cm^3
# Si number density = 25.593337 Si / 1000 Ang^3
#
#
#
# Elastic Constant Matrix: (Units=GPa)
#
#
# Indices 1 2 3 4 5 6 
#
# 1 71.5605 7.7346 20.1724 0.0000 0.0000 0.0000
# 2 7.7346 72.2168 13.8108 0.0000 0.0000 -0.0001
# 3 20.1724 13.8108 163.7908 0.0000 0.0000 0.0000
# 4 0.0000 0.0000 0.0000 1.2056 0.0000 0.0000
# 5 0.0000 0.0000 0.0000 0.0000 -5.1197 0.0000
# 6 0.0000 -0.0001 0.0000 0.0000 0.0000 22.2187
#
#
#
# Elastic Compliance Matrix: (Units=1/GPa)
#
#
# Indices 1 2 3 4 5 6 
#
# 1 0.014585 -0.001239 -0.001692 0.000000 0.000000 0.000000
# 2 -0.001239 0.014179 -0.001043 0.000001 0.000000 0.000000
# 3 -0.001692 -0.001043 0.006402 0.000000 0.000000 0.000000
# 4 0.000000 0.000001 0.000000 0.829496 0.000003 -0.000001
# 5 0.000000 0.000000 0.000000 0.000003 -0.195324 0.000000
# 6 0.000000 0.000000 0.000000 -0.000001 0.000000 0.045007
#
#
# Mechanical properties :
#
#
# Convention : Reuss Voigt Hill
#
# Bulk Modulus (GPa) = 36.73894 43.44487 40.09191
# Shear Modulus (GPa) = 6.83654 21.38426 14.11040
#
# Velocity S-wave (km/s) = 1.63616 2.89371 2.35059
# Velocity P-wave (km/s) = 4.23738 5.30817 4.80271
#
# Compressibility (1/GPa) = 0.02721907
#
# Stress axis : x y z
#
# Youngs Moduli (GPa) = 68.56371 70.52520 156.20931
#
# Poissons Ratio (x) = 0.08735 0.26428
# Poissons Ratio (y) = 0.08492 0.16294
# Poissons Ratio (z) = 0.11600 0.07356
#
# Static dielectric constant tensor:
#      x y z
#    x 2.016130 0.000000 0.000000 
#    y 0.000000 2.212910 0.000000 
#    z 0.000000 0.000000 1.985510 
# 
# From -- ./inp_files/26610.got.cif
#   From: 2010.05.17/outbox.cif.g08.bks.cpg/sg43_14_cif.got.tgz:26610.got - 2010.06.03 19:21:55.
