data_PCOD9371608
_publ_section_title
;
Structure prediction by ZEFSAII (Michael W. Deem and Ramdas Pophale) SiO2 
 PCOD9371608
Probable space group: F D D 2
;
_chemical_formula_sum "Si O2"
_cell_formula_units_Z 88
_cell_length_a 20.430590
_cell_length_b 5.170564
_cell_length_c 35.431142
_cell_angle_alpha 90.000000
_cell_angle_beta 90.000000
_cell_angle_gamma 90.000000
_cell_volume 3742.863398
_symmetry_space_group_name_H-M "F D D 2"
_symmetry_group_IT_number 43
_symmetry_cell_setting 'orthorhombic'
loop_
_space_group_symop_operation_xyz
x,y,z
-x,-y,z
1/4-x,1/4+y,1/4+z
1/4+x,1/4-y,1/4+z
x,1/2+y,1/2+z
-x,1/2-y,1/2+z
1/4-x,3/4+y,3/4+z
1/4+x,3/4-y,3/4+z
1/2+x,y,1/2+z
1/2-x,-y,1/2+z
3/4-x,1/4+y,3/4+z
3/4+x,1/4-y,3/4+z
1/2+x,1/2+y,z
1/2-x,1/2-y,z
3/4-x,3/4+y,1/4+z
3/4+x,3/4-y,1/4+z
loop_
_atom_site_type_symbol
_atom_site_label
_atom_site_fract_x
_atom_site_fract_y
_atom_site_fract_z
Si Si1 0.928476 0.263925 0.799430
Si Si2 0.634668 0.582714 0.459274
Si Si3 0.250000 0.250000 0.116181
Si Si4 0.750000 0.750000 0.664813
Si Si5 0.363115 0.258084 0.794532
Si Si6 0.250000 0.750000 0.356045
Si Si7 0.500000 0.000000 0.235262
Si Si8 0.000000 0.500000 0.659881
O O1 0.918755 0.560796 0.809803
O O2 0.946814 0.113785 0.837583
O O3 0.870865 0.064374 0.787012
O O4 0.978424 0.221683 0.764885
O O5 0.566892 0.556129 0.437417
O O6 0.610625 0.622137 0.502632
O O7 0.686446 0.343561 0.462988
O O8 0.684944 0.768272 0.436394
O O9 0.232171 0.493621 0.141481
O O10 0.309527 0.234262 0.826614
O O11 0.251380 0.499232 0.382796
#
# Coordination Sequence:
#
# PCOD9371608 Si02
#       8
#    16  16   8   8  16   8   8   8
#     4  10  22  42  75 101 136 186 249 316 354 445
#     4  11  26  50  76 114 154 208 255 318 384 478
#     4  11  26  44  64 104 142 189 242 301 374 436
#     4  12  29  44  75 103 160 197 246 303 390 450
#     4  11  24  45  75 102 149 194 258 300 389 453
#     4  12  28  46  73 118 153 206 253 334 386 467
#     4   9  21  46  76 111 141 192 260 311 366 455
#     4  12  28  46  78 112 164 194 265 323 398 444
#
# _framework density 23.511412
#
# number of rings (size 3 to 8) (size 9 to 14) (size 15 to 20)
#    0.000    1.091    0.000    4.364    7.636   10.909 
#    0.000    1.818    0.000    0.000    0.000    0.000 
#    0.000    0.000    0.000    0.000    0.000    0.000 
#
# Total GULP energy -122605.364607 kJ/mol
# GULP energy per Si atom -5572.971118 kJ/mol
# Density = 2.345790 g / cm^3
# Si number density = 23.511412 Si / 1000 Ang^3
#
#
#
# Elastic Constant Matrix: (Units=GPa)
#
#
# Indices 1 2 3 4 5 6 
#
# 1 108.3577 20.9941 51.8819 0.0000 0.0000 0.0000
# 2 20.9941 136.7557 47.1218 0.0003 0.0002 0.0001
# 3 51.8819 47.1218 149.4044 0.0000 -0.0001 0.0000
# 4 0.0000 0.0003 0.0000 41.6580 -0.0001 -0.0001
# 5 0.0000 0.0002 -0.0001 -0.0001 -21.9481 0.0000
# 6 0.0000 0.0001 0.0000 -0.0001 0.0000 17.2409
#
#
#
# Elastic Compliance Matrix: (Units=1/GPa)
#
#
# Indices 1 2 3 4 5 6 
#
# 1 0.011091 -0.000421 -0.003718 0.000000 0.000000 0.000000
# 2 -0.000421 0.008220 -0.002446 0.000000 0.000000 0.000000
# 3 -0.003718 -0.002446 0.008756 0.000000 0.000000 0.000000
# 4 0.000000 0.000000 0.000000 0.024005 0.000000 0.000000
# 5 0.000000 0.000000 0.000000 0.000000 -0.045562 0.000000
# 6 0.000000 0.000000 0.000000 0.000000 0.000000 0.058002
#
#
# Mechanical properties :
#
#
# Convention : Reuss Voigt Hill
#
# Bulk Modulus (GPa) = 67.13827 70.50148 68.81988
# Shear Modulus (GPa) = 60.49746 25.69149 43.09448
#
# Velocity S-wave (km/s) = 5.07809 3.30922 4.28590
# Velocity P-wave (km/s) = 7.93727 6.68225 7.33664
#
# Compressibility (1/GPa) = 0.01489463
#
# Stress axis : x y z
#
# Youngs Moduli (GPa) = 90.16537 121.65623 114.20686
#
# Poissons Ratio (x) = 0.05126 0.42467
# Poissons Ratio (y) = 0.03799 0.27938
# Poissons Ratio (z) = 0.33528 0.29760
#
# Static dielectric constant tensor:
#      x y z
#    x 2.056870 0.000000 0.000000 
#    y 0.000000 2.056340 0.000000 
#    z 0.000000 0.000000 1.930120 
# 
# From -- ./inp_files/27290.got.cif
#   From: 2010.05.17/outbox.cif.g08.bks.cpg/sg43_14_cif.got.tgz:27290.got - 2010.06.03 19:21:55.
