data_PCOD9371665
_publ_section_title
;
Structure prediction by ZEFSAII (Michael W. Deem and Ramdas Pophale) SiO2 
 PCOD9371665
Probable space group: F D D 2
;
_chemical_formula_sum "Si O2"
_cell_formula_units_Z 88
_cell_length_a 27.888015
_cell_length_b 12.221739
_cell_length_c 12.453916
_cell_angle_alpha 90.000000
_cell_angle_beta 90.000000
_cell_angle_gamma 90.000000
_cell_volume 4244.793235
_symmetry_space_group_name_H-M "F D D 2"
_symmetry_group_IT_number 43
_symmetry_cell_setting 'orthorhombic'
loop_
_space_group_symop_operation_xyz
x,y,z
-x,-y,z
1/4-x,1/4+y,1/4+z
1/4+x,1/4-y,1/4+z
x,1/2+y,1/2+z
-x,1/2-y,1/2+z
1/4-x,3/4+y,3/4+z
1/4+x,3/4-y,3/4+z
1/2+x,y,1/2+z
1/2-x,-y,1/2+z
3/4-x,1/4+y,3/4+z
3/4+x,1/4-y,3/4+z
1/2+x,1/2+y,z
1/2-x,1/2-y,z
3/4-x,3/4+y,1/4+z
3/4+x,3/4-y,1/4+z
loop_
_atom_site_type_symbol
_atom_site_label
_atom_site_fract_x
_atom_site_fract_y
_atom_site_fract_z
Si Si1 0.575145 0.241319 0.013720
Si Si2 0.250000 0.750000 0.031855
Si Si3 0.978782 0.288954 0.639604
Si Si4 0.325201 0.893056 0.535412
Si Si5 0.910318 0.500142 0.928191
Si Si6 0.132670 0.547290 0.325995
O O1 0.525455 0.272489 0.069248
O O2 0.617957 0.271583 0.093795
O O3 0.579921 0.304097 0.901304
O O4 0.577472 0.112011 0.988979
O O5 0.267858 0.650219 0.957662
O O6 0.293529 0.786364 0.108992
O O7 0.971576 0.189571 0.725459
O O8 0.930783 0.277911 0.567850
O O9 0.334912 0.764565 0.541416
O O10 0.366519 0.933758 0.453539
O O11 0.893171 0.593134 0.010533
#
# Coordination Sequence:
#
# PCOD9371665 Si02
#       6
#    16   8  16  16  16  16
#     4  12  23  45  70 105 136 193 238 289 373 420
#     4  12  22  46  70 108 136 184 244 288 360 436
#     4  10  25  41  71  98 144 180 239 294 354 428
#     4  10  22  44  66  99 140 187 230 297 349 433
#     4  12  24  41  75 101 144 181 240 299 353 445
#     4  10  23  43  66  98 140 180 231 298 358 412
#
# _framework density 20.731282
#
# number of rings (size 3 to 8) (size 9 to 14) (size 15 to 20)
#    1.091    0.000    1.818    5.455    0.000    1.455 
#    0.000    0.000    4.000    0.000    0.000    0.000 
#    0.000    0.000    0.000    0.000    0.000    0.000 
#
# Total GULP energy -122764.020709 kJ/mol
# GULP energy per Si atom -5580.182760 kJ/mol
# Density = 2.068410 g / cm^3
# Si number density = 20.731282 Si / 1000 Ang^3
#
#
#
# Elastic Constant Matrix: (Units=GPa)
#
#
# Indices 1 2 3 4 5 6 
#
# 1 64.3606 14.2801 48.0932 0.0000 0.0000 0.0000
# 2 14.2801 99.7941 42.6953 0.0000 0.0000 0.0000
# 3 48.0932 42.6953 106.3982 0.0000 0.0000 0.0000
# 4 0.0000 0.0000 0.0000 29.9353 0.0000 0.0000
# 5 0.0000 0.0000 0.0000 0.0000 -4.2015 0.0000
# 6 0.0000 0.0000 0.0000 0.0000 0.0000 26.1181
#
#
#
# Elastic Compliance Matrix: (Units=1/GPa)
#
#
# Indices 1 2 3 4 5 6 
#
# 1 0.023631 0.001435 -0.011257 0.000000 0.000000 0.000000
# 2 0.001435 0.012185 -0.005538 0.000000 0.000000 0.000000
# 3 -0.011257 -0.005538 0.016709 0.000000 0.000000 0.000000
# 4 0.000000 0.000000 0.000000 0.033405 0.000000 0.000000
# 5 0.000000 0.000000 0.000000 0.000000 -0.238012 0.000000
# 6 0.000000 0.000000 0.000000 0.000000 0.000000 0.038288
#
#
# Mechanical properties :
#
#
# Convention : Reuss Voigt Hill
#
# Bulk Modulus (GPa) = 45.86291 53.41000 49.63645
# Shear Modulus (GPa) = -65.95895 21.40268 -22.27814
#
# Velocity S-wave (km/s) = -5.64670 3.21656 -3.28169
# Velocity P-wave (km/s) = 4.51033 6.29396 3.10410
#
# Compressibility (1/GPa) = 0.02180411
#
# Stress axis : x y z
#
# Youngs Moduli (GPa) = 42.31721 82.07046 59.84687
#
# Poissons Ratio (x) = -0.11775 0.67371
# Poissons Ratio (y) = -0.06071 0.33143
# Poissons Ratio (z) = 0.47637 0.45450
#
# Static dielectric constant tensor:
#      x y z
#    x 1.750430 0.000000 0.000000 
#    y 0.000000 1.768140 0.000000 
#    z 0.000000 0.000000 1.741980 
# 
# From -- ./inp_files/5738.got.cif
#   From: 2010.05.17/outbox.cif.g08.bks.cpg/sg43_3_cif.got.tgz:5738.got - 2010.06.03 19:21:55.
