data_PCOD9371479
_publ_section_title
;
Structure prediction by ZEFSAII (Michael W. Deem and Ramdas Pophale) SiO2 
 PCOD9371479
Probable space group: F D D 2
;
_chemical_formula_sum "Si O2"
_cell_formula_units_Z 96
_cell_length_a 27.131887
_cell_length_b 11.537562
_cell_length_c 11.559823
_cell_angle_alpha 90.000000
_cell_angle_beta 90.000000
_cell_angle_gamma 90.000000
_cell_volume 3618.638769
_symmetry_space_group_name_H-M "F D D 2"
_symmetry_group_IT_number 43
_symmetry_cell_setting 'orthorhombic'
loop_
_space_group_symop_operation_xyz
x,y,z
-x,-y,z
1/4-x,1/4+y,1/4+z
1/4+x,1/4-y,1/4+z
x,1/2+y,1/2+z
-x,1/2-y,1/2+z
1/4-x,3/4+y,3/4+z
1/4+x,3/4-y,3/4+z
1/2+x,y,1/2+z
1/2-x,-y,1/2+z
3/4-x,1/4+y,3/4+z
3/4+x,1/4-y,3/4+z
1/2+x,1/2+y,z
1/2-x,1/2-y,z
3/4-x,3/4+y,1/4+z
3/4+x,3/4-y,1/4+z
loop_
_atom_site_type_symbol
_atom_site_label
_atom_site_fract_x
_atom_site_fract_y
_atom_site_fract_z
Si Si1 0.562920 0.124353 0.284580
Si Si2 0.750000 0.750000 0.391937
Si Si3 0.360041 0.217505 0.468184
Si Si4 0.873519 0.730717 0.223259
Si Si5 0.500000 0.500000 0.487830
Si Si6 0.266142 0.481463 0.885043
Si Si7 0.402997 0.951780 0.043980
O O1 0.574742 0.054197 0.401785
O O2 0.512560 0.190988 0.252818
O O3 0.574401 0.042336 0.174102
O O4 0.604912 0.221417 0.289502
O O5 0.697806 0.755296 0.457862
O O6 0.751093 0.613081 0.347125
O O7 0.374822 0.159498 0.342994
O O8 0.390310 0.320236 0.521764
O O9 0.375915 0.104287 0.539426
O O10 0.925510 0.720490 0.158008
O O11 0.502074 0.370623 0.546395
O O12 0.443180 0.494874 0.451163
#
# Coordination Sequence:
#
# PCOD9371479 Si02
#       7
#    16   8  16  16   8  16  16
#     4  11  22  43  70  96 140 188 238 296 364 423
#     4  10  22  44  68  96 144 188 226 298 358 426
#     4  11  24  44  68 100 145 181 237 298 361 431
#     4  11  24  44  66 105 142 184 238 299 363 435
#     4  10  22  40  72 100 138 182 248 300 348 438
#     4  10  22  42  70  98 142 186 240 297 354 440
#     4  11  22  43  69  99 137 188 240 297 361 430
#
# _framework density 26.529312000000001
#
# number of rings (size 3 to 8) (size 9 to 14) (size 15 to 20)
#    0.000    1.333    3.333    2.000    4.667    0.000 
#    6.000    1.667    0.000    0.000    0.000    0.000 
#    0.000    0.000    0.000    0.000    0.000    0.000 
#
# Total GULP energy -133742.178301 kJ/mol
# GULP energy per Si atom -5572.590763 kJ/mol
# Density = 2.646893 g / cm^3
# Si number density = 26.529312 Si / 1000 Ang^3
#
#
#
# Elastic Constant Matrix: (Units=GPa)
#
#
# Indices 1 2 3 4 5 6 
#
# 1 113.6394 33.2374 -20.9954 0.0000 0.0000 0.0000
# 2 33.2374 192.6003 7.3197 0.0000 0.0000 0.0000
# 3 -20.9954 7.3197 53.8173 0.0000 0.0000 0.0000
# 4 0.0000 0.0000 0.0000 17.0968 0.0000 0.0000
# 5 0.0000 0.0000 0.0000 0.0000 13.1811 0.0000
# 6 0.0000 0.0000 0.0000 0.0000 0.0000 56.3088
#
#
#
# Elastic Compliance Matrix: (Units=1/GPa)
#
#
# Indices 1 2 3 4 5 6 
#
# 1 0.010137 -0.001910 0.004214 0.000000 0.000000 0.000000
# 2 -0.001910 0.005579 -0.001504 0.000000 0.000000 0.000000
# 3 0.004214 -0.001504 0.020430 0.000000 0.000000 0.000000
# 4 0.000000 0.000000 0.000000 0.058490 0.000000 0.000000
# 5 0.000000 0.000000 0.000000 0.000000 0.075866 0.000000
# 6 0.000000 0.000000 0.000000 0.000000 0.000000 0.017759
#
#
# Mechanical properties :
#
#
# Convention : Reuss Voigt Hill
#
# Bulk Modulus (GPa) = 26.49153 44.35339 35.42246
# Shear Modulus (GPa) = 25.09513 40.01702 32.55608
#
# Velocity S-wave (km/s) = 3.07895 3.88804 3.50690
# Velocity P-wave (km/s) = 4.75892 6.07542 5.45702
#
# Compressibility (1/GPa) = 0.03774792
#
# Stress axis : x y z
#
# Youngs Moduli (GPa) = 98.64973 179.25085 48.94756
#
# Poissons Ratio (x) = 0.34228 -0.20628
# Poissons Ratio (y) = 0.18837 0.07360
# Poissons Ratio (z) = -0.41574 0.26954
#
# Static dielectric constant tensor:
#      x y z
#    x 2.050530 0.000000 0.000000 
#    y 0.000000 2.027580 0.000000 
#    z 0.000000 0.000000 2.165790 
# 
# From -- ./inp_files/9756.got.cif
#   From: 2010.05.17/outbox.cif.g08.bks.cpg/sg43_5_cif.got.tgz:9756.got - 2010.06.03 19:21:55.
