data_PCOD9371794
_publ_section_title
;
Structure prediction by ZEFSAII (Michael W. Deem and Ramdas Pophale) SiO2 
 PCOD9371794
Probable space group: F D D 2
;
_chemical_formula_sum "Si O2"
_cell_formula_units_Z 120
_cell_length_a 16.822904
_cell_length_b 11.668790
_cell_length_c 24.929870
_cell_angle_alpha 90.000000
_cell_angle_beta 90.000000
_cell_angle_gamma 90.000000
_cell_volume 4893.806624
_symmetry_space_group_name_H-M "F D D 2"
_symmetry_group_IT_number 43
_symmetry_cell_setting 'orthorhombic'
loop_
_space_group_symop_operation_xyz
x,y,z
-x,-y,z
1/4-x,1/4+y,1/4+z
1/4+x,1/4-y,1/4+z
x,1/2+y,1/2+z
-x,1/2-y,1/2+z
1/4-x,3/4+y,3/4+z
1/4+x,3/4-y,3/4+z
1/2+x,y,1/2+z
1/2-x,-y,1/2+z
3/4-x,1/4+y,3/4+z
3/4+x,1/4-y,3/4+z
1/2+x,1/2+y,z
1/2-x,1/2-y,z
3/4-x,3/4+y,1/4+z
3/4+x,3/4-y,1/4+z
loop_
_atom_site_type_symbol
_atom_site_label
_atom_site_fract_x
_atom_site_fract_y
_atom_site_fract_z
Si Si1 0.104860 0.900224 0.452120
Si Si2 0.500000 0.000000 0.742416
Si Si3 0.240761 0.981406 0.779146
Si Si4 0.391620 0.792641 0.374608
Si Si5 0.371545 0.656877 0.273651
Si Si6 0.955660 0.143484 0.721336
Si Si7 0.157871 0.700033 0.588015
Si Si8 0.103616 0.379630 0.451394
O O1 0.076863 0.831184 0.398633
O O2 0.200988 0.905880 0.459971
O O3 0.065654 0.816498 0.495982
O O4 0.088781 0.033787 0.468599
O O5 0.537436 0.889268 0.772303
O O6 0.421513 0.965291 0.710166
O O7 0.317878 0.052970 0.794095
O O8 0.187626 0.942050 0.828183
O O9 0.276736 0.887969 0.738664
O O10 0.359895 0.753635 0.317644
O O11 0.330258 0.821359 0.422016
O O12 0.426246 0.919359 0.357764
O O13 0.900909 0.256004 0.716935
O O14 0.942345 0.091793 0.780945
O O15 0.173017 0.624212 0.640180
#
# Coordination Sequence:
#
# PCOD9371794 Si02
#       8
#    16   8  16  16  16  16  16  16
#     4  12  24  42  70 103 143 186 245 302 365 446
#     4  10  22  50  68 104 138 196 242 308 374 470
#     4  11  25  45  66 111 142 189 249 313 360 452
#     4  11  24  41  70 105 137 189 244 301 368 449
#     4  11  24  44  73 100 148 185 244 307 380 442
#     4  11  24  45  69 103 143 193 244 296 374 463
#     4  11  25  47  71 106 145 199 244 314 381 453
#     4  10  25  46  74 101 150 192 250 307 385 449
#
# _framework density 24.520788
#
# number of rings (size 3 to 8) (size 9 to 14) (size 15 to 20)
#    0.000    1.067    4.000    0.800    5.600    2.667 
#    4.800    2.667    0.000    0.000    0.000    0.000 
#    0.000    0.000    0.000    0.000    0.000    0.000 
#
# Total GULP energy -167234.153414 kJ/mol
# GULP energy per Si atom -5574.471780 kJ/mol
# Density = 2.446498 g / cm^3
# Si number density = 24.520788 Si / 1000 Ang^3
#
#
#
# Elastic Constant Matrix: (Units=GPa)
#
#
# Indices 1 2 3 4 5 6 
#
# 1 91.3885 -0.4443 22.3301 0.0000 0.0000 0.0000
# 2 -0.4443 72.1543 30.0532 0.0000 0.0000 0.0000
# 3 22.3301 30.0532 118.9219 0.0000 0.0000 0.0000
# 4 0.0000 0.0000 0.0000 40.8422 0.0000 0.0000
# 5 0.0000 0.0000 0.0000 0.0000 23.4753 0.0000
# 6 0.0000 0.0000 0.0000 0.0000 0.0000 38.2060
#
#
#
# Elastic Compliance Matrix: (Units=1/GPa)
#
#
# Indices 1 2 3 4 5 6 
#
# 1 0.011544 0.001089 -0.002443 0.000000 0.000000 0.000000
# 2 0.001089 0.015592 -0.004145 0.000000 0.000000 0.000000
# 3 -0.002443 -0.004145 0.009915 0.000000 0.000000 0.000000
# 4 0.000000 0.000000 0.000000 0.024484 0.000000 0.000000
# 5 0.000000 0.000000 0.000000 0.000000 0.042598 0.000000
# 6 0.000000 0.000000 0.000000 0.000000 0.000000 0.026174
#
#
# Mechanical properties :
#
#
# Convention : Reuss Voigt Hill
#
# Bulk Modulus (GPa) = 38.38232 42.92696 40.65464
# Shear Modulus (GPa) = 33.33539 35.87308 34.60423
#
# Velocity S-wave (km/s) = 3.69111 3.82902 3.76070
# Velocity P-wave (km/s) = 5.81830 6.09040 5.95590
#
# Compressibility (1/GPa) = 0.02605366
#
# Stress axis : x y z
#
# Youngs Moduli (GPa) = 86.62154 64.13450 100.85723
#
# Poissons Ratio (x) = -0.06981 0.24638
# Poissons Ratio (y) = -0.09429 0.41803
# Poissons Ratio (z) = 0.21160 0.26582
#
# Static dielectric constant tensor:
#      x y z
#    x 1.995950 0.000000 0.000000 
#    y 0.000000 2.133370 0.000000 
#    z 0.000000 0.000000 1.947930 
# 
# From -- ./inp_files/26461.got.cif
#   From: 2010.05.17/outbox.cif.g08.bks.cpg/sg43_14_cif.got.tgz:26461.got - 2010.06.03 19:21:55.
