data_PCOD9371929
_publ_section_title
;
Structure prediction by ZEFSAII (Michael W. Deem and Ramdas Pophale) SiO2 
 PCOD9371929
Probable space group: F D D 2
;
_chemical_formula_sum "Si O2"
_cell_formula_units_Z 120
_cell_length_a 17.934638
_cell_length_b 19.206858
_cell_length_c 15.755306
_cell_angle_alpha 90.000000
_cell_angle_beta 90.000000
_cell_angle_gamma 90.000000
_cell_volume 5427.199462
_symmetry_space_group_name_H-M "F D D 2"
_symmetry_group_IT_number 43
_symmetry_cell_setting 'orthorhombic'
loop_
_space_group_symop_operation_xyz
x,y,z
-x,-y,z
1/4-x,1/4+y,1/4+z
1/4+x,1/4-y,1/4+z
x,1/2+y,1/2+z
-x,1/2-y,1/2+z
1/4-x,3/4+y,3/4+z
1/4+x,3/4-y,3/4+z
1/2+x,y,1/2+z
1/2-x,-y,1/2+z
3/4-x,1/4+y,3/4+z
3/4+x,1/4-y,3/4+z
1/2+x,1/2+y,z
1/2-x,1/2-y,z
3/4-x,3/4+y,1/4+z
3/4+x,3/4-y,1/4+z
loop_
_atom_site_type_symbol
_atom_site_label
_atom_site_fract_x
_atom_site_fract_y
_atom_site_fract_z
Si Si1 0.259586 0.053934 0.882820
Si Si2 0.821175 0.289097 0.125310
Si Si3 0.333460 0.191127 0.468357
Si Si4 0.590202 0.214805 0.741992
Si Si5 0.750000 0.750000 0.310414
Si Si6 0.723186 0.828455 0.015874
Si Si7 0.807667 0.931675 0.710434
Si Si8 0.737200 0.556197 0.137906
O O1 0.343362 0.027411 0.906044
O O2 0.254977 0.072786 0.783479
O O3 0.246627 0.123478 0.938574
O O4 0.196568 0.997024 0.906837
O O5 0.750000 0.250000 0.167495
O O6 0.805395 0.370411 0.141065
O O7 0.822067 0.256884 0.030421
O O8 0.316540 0.115018 0.504169
O O9 0.289881 0.198276 0.378903
O O10 0.422017 0.187995 0.455267
O O11 0.679385 0.223665 0.755465
O O12 0.550299 0.260575 0.813713
O O13 0.750000 0.750000 0.013142
O O14 0.743227 0.869378 0.101090
O O15 0.634890 0.829122 0.007456
O O16 0.803607 0.008646 0.671547
#
# Coordination Sequence:
#
# PCOD9371929 Si02
#       8
#    16  16  16  16   8  16  16  16
#     4  10  24  47  68 106 140 191 234 301 368 418
#     4  11  23  45  69 107 139 188 240 295 365 434
#     4  11  22  41  69 101 144 182 236 298 355 430
#     4  10  24  44  69 100 147 181 243 294 351 439
#     4  10  24  42  68 110 128 198 236 288 378 410
#     4  10  25  45  69 101 139 185 242 294 353 439
#     4  11  24  44  72 100 146 184 239 298 362 434
#     4  10  23  45  66 100 137 186 231 292 362 412
#
# _framework density 22.110851
#
# number of rings (size 3 to 8) (size 9 to 14) (size 15 to 20)
#    0.000    1.600    2.000    0.800    5.600    1.600 
#   16.800    0.000    0.000    0.000    0.000    0.000 
#    0.000    0.000    0.000    0.000    0.000    0.000 
#
# Total GULP energy -167298.031560 kJ/mol
# GULP energy per Si atom -5576.601052 kJ/mol
# Density = 2.206053 g / cm^3
# Si number density = 22.110851 Si / 1000 Ang^3
#
#
#
# Elastic Constant Matrix: (Units=GPa)
#
#
# Indices 1 2 3 4 5 6 
#
# 1 123.9559 42.6628 31.7469 0.0000 0.0000 0.0000
# 2 42.6628 105.2468 52.5697 0.0000 0.0000 0.0000
# 3 31.7469 52.5697 64.5971 0.0000 0.0000 0.0000
# 4 0.0000 0.0000 0.0000 26.1122 0.0000 0.0000
# 5 0.0000 0.0000 0.0000 0.0000 -230.0784 0.0000
# 6 0.0000 0.0000 0.0000 0.0000 0.0000 31.4303
#
#
#
# Elastic Compliance Matrix: (Units=1/GPa)
#
#
# Indices 1 2 3 4 5 6 
#
# 1 0.009632 -0.002595 -0.002622 0.000000 0.000000 0.000000
# 2 -0.002595 0.016708 -0.012322 0.000000 0.000000 0.000000
# 3 -0.002622 -0.012322 0.026797 0.000000 0.000000 0.000000
# 4 0.000000 0.000000 0.000000 0.038296 0.000000 0.000000
# 5 0.000000 0.000000 0.000000 0.000000 -0.004346 0.000000
# 6 0.000000 0.000000 0.000000 0.000000 0.000000 0.031816
#
#
# Mechanical properties :
#
#
# Convention : Reuss Voigt Hill
#
# Bulk Modulus (GPa) = 55.37288 60.86208 58.11748
# Shear Modulus (GPa) = 31.24993 -23.38583 3.93205
#
# Velocity S-wave (km/s) = 3.76351 -3.25570 1.33499
# Velocity P-wave (km/s) = 6.63197 3.66781 5.35891
#
# Compressibility (1/GPa) = 0.01805938
#
# Stress axis : x y z
#
# Youngs Moduli (GPa) = 103.82067 59.85194 37.31774
#
# Poissons Ratio (x) = 0.15530 0.09785
# Poissons Ratio (y) = 0.26938 0.45982
# Poissons Ratio (z) = 0.27224 0.73749
#
# Static dielectric constant tensor:
#      x y z
#    x 2.686920 0.000000 0.000000 
#    y 0.000000 1.797850 0.000000 
#    z 0.000000 0.000000 1.866300 
# 
# From -- ./inp_files/14284.got.cif
#   From: 2010.05.17/outbox.cif.g08.bks.cpg/sg43_8_cif.got.tgz:14284.got - 2010.06.03 19:21:55.
