data_PCOD9371459
_publ_section_title
;
Structure prediction by ZEFSAII (Michael W. Deem and Ramdas Pophale) SiO2 
 PCOD9371459
Probable space group: F D D 2
;
_chemical_formula_sum "Si O2"
_cell_formula_units_Z 80
_cell_length_a 15.294562
_cell_length_b 16.675508
_cell_length_c 11.901090
_cell_angle_alpha 90.000000
_cell_angle_beta 90.000000
_cell_angle_gamma 90.000000
_cell_volume 3035.308631
_symmetry_space_group_name_H-M "F D D 2"
_symmetry_group_IT_number 43
_symmetry_cell_setting 'orthorhombic'
loop_
_space_group_symop_operation_xyz
x,y,z
-x,-y,z
1/4-x,1/4+y,1/4+z
1/4+x,1/4-y,1/4+z
x,1/2+y,1/2+z
-x,1/2-y,1/2+z
1/4-x,3/4+y,3/4+z
1/4+x,3/4-y,3/4+z
1/2+x,y,1/2+z
1/2-x,-y,1/2+z
3/4-x,1/4+y,3/4+z
3/4+x,1/4-y,3/4+z
1/2+x,1/2+y,z
1/2-x,1/2-y,z
3/4-x,3/4+y,1/4+z
3/4+x,3/4-y,1/4+z
loop_
_atom_site_type_symbol
_atom_site_label
_atom_site_fract_x
_atom_site_fract_y
_atom_site_fract_z
Si Si1 0.018659 0.654682 0.867360
Si Si2 0.877832 0.207532 0.970999
Si Si3 0.038003 0.913970 0.598425
Si Si4 0.487506 0.761187 0.177753
Si Si5 0.338330 0.302250 0.077100
O O1 0.104951 0.706682 0.908262
O O2 0.042250 0.582697 0.780313
O O3 0.966533 0.718499 0.792821
O O4 0.965218 0.627223 0.976163
O O5 0.912504 0.138116 0.888669
O O6 0.936516 0.217583 0.080202
O O7 0.973294 0.855499 0.669655
O O8 0.109550 0.929687 0.696011
O O9 0.000000 0.000000 0.572993
O O10 0.588450 0.747574 0.143798
O O11 0.250000 0.250000 0.081852
#
# Coordination Sequence:
#
# PCOD9371459 Si02
#       5
#    16  16  16  16  16
#     4  10  22  43  65  94 133 169 221 264 334 389
#     4  10  22  41  67  96 129 176 217 273 324 403
#     4  10  22  44  61  99 134 167 215 273 335 388
#     4  10  22  42  68  95 131 176 221 274 326 405
#     4  10  22  40  66  98 131 172 222 271 332 394
#
# _framework density 26.356463999999999
#
# number of rings (size 3 to 8) (size 9 to 14) (size 15 to 20)
#    0.000    2.000    2.000    0.000    2.800    3.200 
#   28.800    0.000    0.000    0.000    0.000    0.000 
#    0.000    0.000    0.000    0.000    0.000    0.000 
#
# Total GULP energy -111665.115348 kJ/mol
# GULP energy per Si atom -5583.255767 kJ/mol
# Density = 2.629648 g / cm^3
# Si number density = 26.356464 Si / 1000 Ang^3
#
#
#
# Elastic Constant Matrix: (Units=GPa)
#
#
# Indices 1 2 3 4 5 6 
#
# 1 46.3896 32.0000 7.4327 0.0000 0.0000 0.0000
# 2 32.0000 175.9163 72.7901 0.0000 0.0000 0.0000
# 3 7.4327 72.7901 192.7628 0.0000 0.0000 0.0000
# 4 0.0000 0.0000 0.0000 38.5988 0.0000 0.0000
# 5 0.0000 0.0000 0.0000 0.0000 41.4595 0.0000
# 6 0.0000 0.0000 0.0000 0.0000 0.0000 18.7044
#
#
#
# Elastic Compliance Matrix: (Units=1/GPa)
#
#
# Indices 1 2 3 4 5 6 
#
# 1 0.024776 -0.004873 0.000885 0.000000 0.000000 0.000000
# 2 -0.004873 0.007696 -0.002718 0.000000 0.000000 0.000000
# 3 0.000885 -0.002718 0.006180 0.000000 0.000000 0.000000
# 4 0.000000 0.000000 0.000000 0.025908 0.000000 0.000000
# 5 0.000000 0.000000 0.000000 0.000000 0.024120 0.000000
# 6 0.000000 0.000000 0.000000 0.000000 0.000000 0.053463
#
#
# Mechanical properties :
#
#
# Convention : Reuss Voigt Hill
#
# Bulk Modulus (GPa) = 39.62084 71.05715 55.33900
# Shear Modulus (GPa) = 30.49367 39.94227 35.21797
#
# Velocity S-wave (km/s) = 3.40512 3.89712 3.65940
# Velocity P-wave (km/s) = 5.52495 6.87522 6.23673
#
# Compressibility (1/GPa) = 0.02523924
#
# Stress axis : x y z
#
# Youngs Moduli (GPa) = 40.36119 129.94388 161.81241
#
# Poissons Ratio (x) = 0.63322 -0.14317
# Poissons Ratio (y) = 0.19668 0.43982
# Poissons Ratio (z) = -0.03571 0.35320
#
# Static dielectric constant tensor:
#      x y z
#    x 2.135770 0.000000 0.000000 
#    y 0.000000 2.109900 0.000000 
#    z 0.000000 0.000000 2.037090 
# 
# From -- ./inp_files/7432.got.cif
#   From: 2010.05.17/outbox.cif.g08.bks.cpg/sg43_4_cif.got.tgz:7432.got - 2010.06.03 19:21:55.
