data_PCOD9371977
_publ_section_title
;
Structure prediction by ZEFSAII (Michael W. Deem and Ramdas Pophale) SiO2 
 PCOD9371977
Probable space group: F D D 2
;
_chemical_formula_sum "Si O2"
_cell_formula_units_Z 96
_cell_length_a 21.890216
_cell_length_b 13.135377
_cell_length_c 15.912518
_cell_angle_alpha 90.000000
_cell_angle_beta 90.000000
_cell_angle_gamma 90.000000
_cell_volume 4575.425591
_symmetry_space_group_name_H-M "F D D 2"
_symmetry_group_IT_number 43
_symmetry_cell_setting 'orthorhombic'
loop_
_space_group_symop_operation_xyz
x,y,z
-x,-y,z
1/4-x,1/4+y,1/4+z
1/4+x,1/4-y,1/4+z
x,1/2+y,1/2+z
-x,1/2-y,1/2+z
1/4-x,3/4+y,3/4+z
1/4+x,3/4-y,3/4+z
1/2+x,y,1/2+z
1/2-x,-y,1/2+z
3/4-x,1/4+y,3/4+z
3/4+x,1/4-y,3/4+z
1/2+x,1/2+y,z
1/2-x,1/2-y,z
3/4-x,3/4+y,1/4+z
3/4+x,3/4-y,1/4+z
loop_
_atom_site_type_symbol
_atom_site_label
_atom_site_fract_x
_atom_site_fract_y
_atom_site_fract_z
Si Si1 0.044964 0.087654 0.440810
Si Si2 0.619109 0.953202 0.306658
Si Si3 0.750000 0.250000 0.449263
Si Si4 0.824040 0.258758 0.741118
Si Si5 0.823678 0.882096 0.407748
Si Si6 0.500000 0.000000 0.780555
Si Si7 0.243677 0.051940 0.834324
O O1 0.116197 0.061783 0.441637
O O2 0.032756 0.184221 0.498929
O O3 0.023542 0.088134 0.343866
O O4 0.000000 0.000000 0.475597
O O5 0.560405 0.990946 0.255830
O O6 0.599104 0.945266 0.404204
O O7 0.674377 0.033685 0.307284
O O8 0.645766 0.850601 0.263876
O O9 0.747429 0.350162 0.392102
O O10 0.750000 0.250000 0.736921
O O11 0.839671 0.329217 0.820087
O O12 0.802064 0.796542 0.472651
O O13 0.768010 0.956759 0.387546
#
# Coordination Sequence:
#
# PCOD9371977 Si02
#       7
#    16  16   8  16  16   8  16
#     4  10  26  44  67 102 138 187 235 288 361 428
#     4  12  27  47  74 108 147 194 248 305 373 451
#     4  12  27  45  74 102 150 200 248 299 387 448
#     4  12  26  48  73 110 145 191 248 303 377 436
#     4  12  25  44  76 103 145 185 243 304 361 433
#     4  10  23  47  66 110 132 186 238 293 363 422
#     4  12  26  48  70 108 146 196 241 312 359 452
#
# _framework density 20.981653999999999
#
# number of rings (size 3 to 8) (size 9 to 14) (size 15 to 20)
#    0.500    0.000    5.833    1.000    9.333    0.000 
#    3.000    0.000    0.000    0.000    0.000    0.000 
#    0.000    0.000    0.000    0.000    0.000    0.000 
#
# Total GULP energy -134063.321114 kJ/mol
# GULP energy per Si atom -5585.971713 kJ/mol
# Density = 2.093390 g / cm^3
# Si number density = 20.981654 Si / 1000 Ang^3
#
#
#
# Elastic Constant Matrix: (Units=GPa)
#
#
# Indices 1 2 3 4 5 6 
#
# 1 149.3791 31.2634 42.9872 0.0000 0.0000 0.0000
# 2 31.2634 66.7173 33.5145 0.0000 0.0000 0.0000
# 3 42.9872 33.5145 135.9223 0.0000 0.0000 0.0000
# 4 0.0000 0.0000 0.0000 0.8007 0.0000 0.0000
# 5 0.0000 0.0000 0.0000 0.0000 -16.8517 0.0000
# 6 0.0000 0.0000 0.0000 0.0000 0.0000 34.1992
#
#
#
# Elastic Compliance Matrix: (Units=1/GPa)
#
#
# Indices 1 2 3 4 5 6 
#
# 1 0.007783 -0.002752 -0.001783 0.000000 0.000000 0.000000
# 2 -0.002752 0.018080 -0.003588 0.000000 0.000000 0.000000
# 3 -0.001783 -0.003588 0.008806 0.000000 0.000000 0.000000
# 4 0.000000 0.000000 0.000000 1.248865 0.000000 0.000000
# 5 0.000000 0.000000 0.000000 0.000000 -0.059341 0.000000
# 6 0.000000 0.000000 0.000000 0.000000 0.000000 0.029240
#
#
# Mechanical properties :
#
#
# Convention : Reuss Voigt Hill
#
# Bulk Modulus (GPa) = 54.27602 63.06100 58.66851
# Shear Modulus (GPa) = 3.91905 19.91321 11.91613
#
# Velocity S-wave (km/s) = 1.36817 3.08405 2.38572
# Velocity P-wave (km/s) = 5.33107 6.54235 5.96753
#
# Compressibility (1/GPa) = 0.01842434
#
# Stress axis : x y z
#
# Youngs Moduli (GPa) = 128.47886 55.30885 113.56209
#
# Poissons Ratio (x) = 0.15218 0.20250
# Poissons Ratio (y) = 0.35351 0.40745
# Poissons Ratio (z) = 0.22910 0.19844
#
# Static dielectric constant tensor:
#      x y z
#    x 1.782630 0.000000 0.000000 
#    y 0.000000 1.773640 0.000000 
#    z 0.000000 0.000000 1.740150 
# 
# From -- ./inp_files/14844.got.cif
#   From: 2010.05.17/outbox.cif.g08.bks.cpg/sg43_8_cif.got.tgz:14844.got - 2010.06.03 19:21:55.
