data_PCOD9371615
_publ_section_title
;
Structure prediction by ZEFSAII (Michael W. Deem and Ramdas Pophale) SiO2 
 PCOD9371615
Probable space group: F D D 2
;
_chemical_formula_sum "Si O2"
_cell_formula_units_Z 112
_cell_length_a 12.822254
_cell_length_b 21.261365
_cell_length_c 15.705299
_cell_angle_alpha 90.000000
_cell_angle_beta 90.000000
_cell_angle_gamma 90.000000
_cell_volume 4281.556978
_symmetry_space_group_name_H-M "F D D 2"
_symmetry_group_IT_number 43
_symmetry_cell_setting 'orthorhombic'
loop_
_space_group_symop_operation_xyz
x,y,z
-x,-y,z
1/4-x,1/4+y,1/4+z
1/4+x,1/4-y,1/4+z
x,1/2+y,1/2+z
-x,1/2-y,1/2+z
1/4-x,3/4+y,3/4+z
1/4+x,3/4-y,3/4+z
1/2+x,y,1/2+z
1/2-x,-y,1/2+z
3/4-x,1/4+y,3/4+z
3/4+x,1/4-y,3/4+z
1/2+x,1/2+y,z
1/2-x,1/2-y,z
3/4-x,3/4+y,1/4+z
3/4+x,3/4-y,1/4+z
loop_
_atom_site_type_symbol
_atom_site_label
_atom_site_fract_x
_atom_site_fract_y
_atom_site_fract_z
Si Si1 0.646458 0.270331 0.312110
Si Si2 0.849653 0.331198 0.862873
Si Si3 0.961691 0.211694 0.888896
Si Si4 0.708343 0.816132 0.000254
Si Si5 0.347123 0.100747 0.335050
Si Si6 0.506613 0.778283 0.070679
Si Si7 0.695478 0.647698 0.550998
O O1 0.750000 0.250000 0.265463
O O2 0.568608 0.214484 0.335267
O O3 0.680367 0.301592 0.402972
O O4 0.592102 0.328845 0.270513
O O5 0.889113 0.261942 0.839887
O O6 0.755268 0.360776 0.812275
O O7 0.800863 0.321139 0.958087
O O8 0.949951 0.379084 0.852874
O O9 0.910505 0.144562 0.899945
O O10 0.985625 0.245210 0.978600
O O11 0.750000 0.750000 0.038166
O O12 0.816218 0.852970 0.009691
O O13 0.600011 0.827482 0.049836
O O14 0.305581 0.032798 0.367428
O O15 0.398880 0.812843 0.097080
#
# Coordination Sequence:
#
# PCOD9371615 Si02
#       7
#    16  16  16  16  16  16  16
#     4   9  18  37  64  92 124 169 216 268 337 403
#     4  10  23  42  65  94 131 180 228 269 339 411
#     4   9  20  39  64  91 126 179 221 266 334 416
#     4   8  17  36  61  93 124 162 213 264 342 410
#     4  11  21  36  66  94 126 168 223 276 324 402
#     4   9  20  39  64  91 127 176 222 270 342 409
#     4  10  22  43  64  91 133 176 229 277 326 417
#
# _framework density 26.158709000000002
#
# number of rings (size 3 to 8) (size 9 to 14) (size 15 to 20)
#    0.000    2.571    0.000    2.143    4.000    0.571 
#    2.571    1.429   15.714    0.000    0.000    0.000 
#    0.000    0.000    0.000    0.000    0.000    0.000 
#
# Total GULP energy -155951.083974 kJ/mol
# GULP energy per Si atom -5569.681571 kJ/mol
# Density = 2.609917 g / cm^3
# Si number density = 26.158709 Si / 1000 Ang^3
#
#
#
# Elastic Constant Matrix: (Units=GPa)
#
#
# Indices 1 2 3 4 5 6 
#
# 1 89.3508 38.7449 17.1483 0.0000 0.0000 0.0000
# 2 38.7449 105.9290 11.5890 0.0000 0.0000 0.0000
# 3 17.1483 11.5890 33.5360 0.0000 0.0000 0.0000
# 4 0.0000 0.0000 0.0000 15.2647 0.0000 0.0000
# 5 0.0000 0.0000 0.0000 0.0000 47.5062 0.0000
# 6 0.0000 0.0000 0.0000 0.0000 0.0000 66.5658
#
#
#
# Elastic Compliance Matrix: (Units=1/GPa)
#
#
# Indices 1 2 3 4 5 6 
#
# 1 0.014283 -0.004599 -0.005714 0.000000 0.000000 0.000000
# 2 -0.004599 0.011292 -0.001551 0.000000 0.000000 0.000000
# 3 -0.005714 -0.001551 0.033276 0.000000 0.000000 0.000000
# 4 0.000000 0.000000 0.000000 0.065510 0.000000 0.000000
# 5 0.000000 0.000000 0.000000 0.000000 0.021050 0.000000
# 6 0.000000 0.000000 0.000000 0.000000 0.000000 0.015023
#
#
# Mechanical properties :
#
#
# Convention : Reuss Voigt Hill
#
# Bulk Modulus (GPa) = 28.47061 40.42003 34.44532
# Shear Modulus (GPa) = 25.52725 36.62295 31.07510
#
# Velocity S-wave (km/s) = 3.12727 3.74576 3.45040
# Velocity P-wave (km/s) = 4.89358 5.84748 5.39167
#
# Compressibility (1/GPa) = 0.03512395
#
# Stress axis : x y z
#
# Youngs Moduli (GPa) = 70.01474 88.55798 30.05142
#
# Poissons Ratio (x) = 0.40727 0.17172
# Poissons Ratio (y) = 0.32199 0.04660
# Poissons Ratio (z) = 0.40007 0.13731
#
# Static dielectric constant tensor:
#      x y z
#    x 2.193020 0.000000 0.000000 
#    y 0.000000 2.167690 0.000000 
#    z 0.000000 0.000000 2.152020 
# 
# From -- ./inp_files/17238.got.cif
#   From: 2010.05.17/outbox.cif.g08.bks.cpg/sg43_9_cif.got.tgz:17238.got - 2010.06.03 19:21:55.
