data_PCOD9371704
_publ_section_title
;
Structure prediction by ZEFSAII (Michael W. Deem and Ramdas Pophale) SiO2 
 PCOD9371704
Probable space group: F D D 2
;
_chemical_formula_sum "Si O2"
_cell_formula_units_Z 88
_cell_length_a 11.692409
_cell_length_b 11.257038
_cell_length_c 27.699186
_cell_angle_alpha 90.000000
_cell_angle_beta 90.000000
_cell_angle_gamma 90.000000
_cell_volume 3645.819280
_symmetry_space_group_name_H-M "F D D 2"
_symmetry_group_IT_number 43
_symmetry_cell_setting 'orthorhombic'
loop_
_space_group_symop_operation_xyz
x,y,z
-x,-y,z
1/4-x,1/4+y,1/4+z
1/4+x,1/4-y,1/4+z
x,1/2+y,1/2+z
-x,1/2-y,1/2+z
1/4-x,3/4+y,3/4+z
1/4+x,3/4-y,3/4+z
1/2+x,y,1/2+z
1/2-x,-y,1/2+z
3/4-x,1/4+y,3/4+z
3/4+x,1/4-y,3/4+z
1/2+x,1/2+y,z
1/2-x,1/2-y,z
3/4-x,3/4+y,1/4+z
3/4+x,3/4-y,1/4+z
loop_
_atom_site_type_symbol
_atom_site_label
_atom_site_fract_x
_atom_site_fract_y
_atom_site_fract_z
Si Si1 0.324657 0.991616 0.414600
Si Si2 0.201804 0.548930 0.054579
Si Si3 0.836663 0.643990 0.327420
Si Si4 0.750000 0.750000 0.878510
Si Si5 0.849804 0.170704 0.205190
Si Si6 0.409157 0.158039 0.496801
O O1 0.306730 0.851426 0.411873
O O2 0.359670 0.034942 0.362324
O O3 0.204161 0.058348 0.420397
O O4 0.393324 0.053327 0.457860
O O5 0.289180 0.448757 0.070347
O O6 0.101585 0.559926 0.095243
O O7 0.133019 0.518979 0.006133
O O8 0.299723 0.642137 0.033472
O O9 0.750000 0.750000 0.345280
O O10 0.771772 0.602684 0.279160
O O11 0.750000 0.250000 0.184003
O O12 0.836333 0.032540 0.218228
#
# Coordination Sequence:
#
# PCOD9371704 Si02
#       6
#    16  16  16   8  16  16
#     4  11  25  45  69 109 151 197 254 312 387 460
#     4  10  22  45  70 104 141 194 246 314 387 454
#     4  10  22  44  73 107 137 193 250 315 393 462
#     4  12  26  46  68 112 154 200 258 322 376 466
#     4  11  23  46  74 106 146 191 252 318 382 470
#     4  10  23  48  76 105 149 196 255 320 394 470
#
# _framework density 24.137236999999999
#
# number of rings (size 3 to 8) (size 9 to 14) (size 15 to 20)
#    0.000    1.455    0.909    4.364    0.000    6.545 
#   29.455    0.000    0.000    0.000    0.000    0.000 
#    0.000    0.000    0.000    0.000    0.000    0.000 
#
# Total GULP energy -122756.737753 kJ/mol
# GULP energy per Si atom -5579.851716 kJ/mol
# Density = 2.408230 g / cm^3
# Si number density = 24.137237 Si / 1000 Ang^3
#
#
#
# Elastic Constant Matrix: (Units=GPa)
#
#
# Indices 1 2 3 4 5 6 
#
# 1 132.4095 31.3581 23.3418 0.0000 0.0000 0.0000
# 2 31.3581 154.2104 52.9457 0.0000 0.0000 0.0000
# 3 23.3418 52.9457 80.7920 0.0000 0.0000 0.0000
# 4 0.0000 0.0000 0.0000 39.1877 0.0000 0.0000
# 5 0.0000 0.0000 0.0000 0.0000 137.5832 0.0000
# 6 0.0000 0.0000 0.0000 0.0000 0.0000 22.7462
#
#
#
# Elastic Compliance Matrix: (Units=1/GPa)
#
#
# Indices 1 2 3 4 5 6 
#
# 1 0.008097 -0.001088 -0.001626 0.000000 0.000000 0.000000
# 2 -0.001088 0.008514 -0.005265 0.000000 0.000000 0.000000
# 3 -0.001626 -0.005265 0.016297 0.000000 0.000000 0.000000
# 4 0.000000 0.000000 0.000000 0.025518 0.000000 0.000000
# 5 0.000000 0.000000 0.000000 0.000000 0.007268 0.000000
# 6 0.000000 0.000000 0.000000 0.000000 0.000000 0.043963
#
#
# Mechanical properties :
#
#
# Convention : Reuss Voigt Hill
#
# Bulk Modulus (GPa) = 58.99876 64.74479 61.87177
# Shear Modulus (GPa) = 38.09069 57.22115 47.65592
#
# Velocity S-wave (km/s) = 3.97683 4.87422 4.44821
# Velocity P-wave (km/s) = 6.75152 7.65240 7.21603
#
# Compressibility (1/GPa) = 0.01694951
#
# Stress axis : x y z
#
# Youngs Moduli (GPa) = 123.50728 117.46044 61.35918
#
# Poissons Ratio (x) = 0.12781 0.09978
# Poissons Ratio (y) = 0.13439 0.32304
# Poissons Ratio (z) = 0.20084 0.61841
#
# Static dielectric constant tensor:
#      x y z
#    x 2.051490 0.000000 0.000000 
#    y 0.000000 1.969790 0.000000 
#    z 0.000000 0.000000 1.929980 
# 
# From -- ./inp_files/28454.got.cif
#   From: 2010.05.17/outbox.cif.g08.bks.cpg/sg43_15_cif.got.tgz:28454.got - 2010.06.03 19:21:55.
