data_PCOD9371101
_publ_section_title
;
Structure prediction by ZEFSAII (Michael W. Deem and Ramdas Pophale) SiO2 
 PCOD9371101
Probable space group: F D D 2
;
_chemical_formula_sum "Si O2"
_cell_formula_units_Z 112
_cell_length_a 14.039951
_cell_length_b 12.928808
_cell_length_c 24.283048
_cell_angle_alpha 90.000000
_cell_angle_beta 90.000000
_cell_angle_gamma 90.000000
_cell_volume 4407.854764
_symmetry_space_group_name_H-M "F D D 2"
_symmetry_group_IT_number 43
_symmetry_cell_setting 'orthorhombic'
loop_
_space_group_symop_operation_xyz
x,y,z
-x,-y,z
1/4-x,1/4+y,1/4+z
1/4+x,1/4-y,1/4+z
x,1/2+y,1/2+z
-x,1/2-y,1/2+z
1/4-x,3/4+y,3/4+z
1/4+x,3/4-y,3/4+z
1/2+x,y,1/2+z
1/2-x,-y,1/2+z
3/4-x,1/4+y,3/4+z
3/4+x,1/4-y,3/4+z
1/2+x,1/2+y,z
1/2-x,1/2-y,z
3/4-x,3/4+y,1/4+z
3/4+x,3/4-y,1/4+z
loop_
_atom_site_type_symbol
_atom_site_label
_atom_site_fract_x
_atom_site_fract_y
_atom_site_fract_z
Si Si1 0.441126 0.368899 0.927630
Si Si2 0.306384 0.646594 0.296107
Si Si3 0.200152 0.043999 0.466045
Si Si4 0.648898 0.835736 0.919703
Si Si5 0.133598 0.912775 0.892943
Si Si6 0.198186 0.352702 0.618510
Si Si7 0.724451 0.094622 0.792764
O O1 0.359479 0.283569 0.935713
O O2 0.539148 0.343827 0.894487
O O3 0.398979 0.467774 0.896472
O O4 0.484680 0.392682 0.987349
O O5 0.250000 0.750000 0.276166
O O6 0.412320 0.668674 0.274307
O O7 0.299583 0.646538 0.361673
O O8 0.280709 0.529732 0.279593
O O9 0.125306 0.077843 0.418535
O O10 0.189817 0.919393 0.462001
O O11 0.298537 0.093966 0.446472
O O12 0.538149 0.852108 0.902172
O O13 0.197202 0.892090 0.840303
O O14 0.250000 0.250000 0.595904
O O15 0.124588 0.384851 0.569760
#
# Coordination Sequence:
#
# PCOD9371101 Si02
#       7
#    16  16  16  16  16  16  16
#     4  11  25  41  69  91 137 177 227 273 356 404
#     4  12  22  36  67  96 128 170 221 272 335 395
#     4  10  21  39  64  89 132 163 219 277 328 391
#     4  11  22  39  63  98 128 167 223 277 332 404
#     4  10  24  47  61  96 139 174 222 293 328 418
#     4   9  17  37  58  90 128 157 208 283 320 384
#     4  11  22  43  67  91 132 178 219 274 344 403
#
# _framework density 25.409185000000001
#
# number of rings (size 3 to 8) (size 9 to 14) (size 15 to 20)
#    0.000    1.429    4.286    3.857    2.000    1.143 
#    2.571    6.429    0.000    0.000    0.000    0.000 
#    0.000    0.000    0.000    0.000    0.000    0.000 
#
# Total GULP energy -156368.073865 kJ/mol
# GULP energy per Si atom -5584.574067 kJ/mol
# Density = 2.535135 g / cm^3
# Si number density = 25.409185 Si / 1000 Ang^3
#
#
#
# Elastic Constant Matrix: (Units=GPa)
#
#
# Indices 1 2 3 4 5 6 
#
# 1 72.8769 -13.5960 7.2563 0.0000 0.0000 0.0000
# 2 -13.5960 86.0329 -12.3580 0.0000 0.0000 0.0000
# 3 7.2563 -12.3580 70.1349 0.0000 0.0000 0.0000
# 4 0.0000 0.0000 0.0000 18.5100 0.0000 0.0000
# 5 0.0000 0.0000 0.0000 0.0000 23.1995 0.0000
# 6 0.0000 0.0000 0.0000 0.0000 0.0000 33.4841
#
#
#
# Elastic Compliance Matrix: (Units=1/GPa)
#
#
# Indices 1 2 3 4 5 6 
#
# 1 0.014221 0.002089 -0.001103 0.000000 0.000000 0.000000
# 2 0.002089 0.012232 0.001939 0.000000 0.000000 0.000000
# 3 -0.001103 0.001939 0.014714 0.000000 0.000000 0.000000
# 4 0.000000 0.000000 0.000000 0.054025 0.000000 0.000000
# 5 0.000000 0.000000 0.000000 0.000000 0.043104 0.000000
# 6 0.000000 0.000000 0.000000 0.000000 0.000000 0.029865
#
#
# Mechanical properties :
#
#
# Convention : Reuss Voigt Hill
#
# Bulk Modulus (GPa) = 21.26874 21.29436 21.28155
# Shear Modulus (GPa) = 28.09234 31.55487 29.82361
#
# Velocity S-wave (km/s) = 3.32866 3.52784 3.42970
# Velocity P-wave (km/s) = 4.81269 4.99930 4.90688
#
# Compressibility (1/GPa) = 0.04701735
#
# Stress axis : x y z
#
# Youngs Moduli (GPa) = 70.31681 81.75182 67.96214
#
# Poissons Ratio (x) = -0.17078 0.07498
# Poissons Ratio (y) = -0.14689 -0.13179
# Poissons Ratio (z) = 0.07758 -0.15853
#
# Static dielectric constant tensor:
#      x y z
#    x 2.140520 0.000000 0.000000 
#    y 0.000000 2.133170 0.000000 
#    z 0.000000 0.000000 1.956930 
# 
# From -- ./inp_files/25626.got.cif
#   From: 2010.05.17/outbox.cif.g08.bks.cpg/sg43_13_cif.got.tgz:25626.got - 2010.06.03 19:21:55.
