data_PCOD9371481
_publ_section_title
;
Structure prediction by ZEFSAII (Michael W. Deem and Ramdas Pophale) SiO2 
 PCOD9371481
Probable space group: F D D 2
;
_chemical_formula_sum "Si O2"
_cell_formula_units_Z 104
_cell_length_a 27.019834
_cell_length_b 25.356351
_cell_length_c 7.622335
_cell_angle_alpha 90.000000
_cell_angle_beta 90.000000
_cell_angle_gamma 90.000000
_cell_volume 5222.247654
_symmetry_space_group_name_H-M "F D D 2"
_symmetry_group_IT_number 43
_symmetry_cell_setting 'orthorhombic'
loop_
_space_group_symop_operation_xyz
x,y,z
-x,-y,z
1/4-x,1/4+y,1/4+z
1/4+x,1/4-y,1/4+z
x,1/2+y,1/2+z
-x,1/2-y,1/2+z
1/4-x,3/4+y,3/4+z
1/4+x,3/4-y,3/4+z
1/2+x,y,1/2+z
1/2-x,-y,1/2+z
3/4-x,1/4+y,3/4+z
3/4+x,1/4-y,3/4+z
1/2+x,1/2+y,z
1/2-x,1/2-y,z
3/4-x,3/4+y,1/4+z
3/4+x,3/4-y,1/4+z
loop_
_atom_site_type_symbol
_atom_site_label
_atom_site_fract_x
_atom_site_fract_y
_atom_site_fract_z
Si Si1 0.750000 0.750000 0.190251
Si Si2 0.527337 0.331466 0.789978
Si Si3 0.599986 0.237855 0.876278
Si Si4 0.565900 0.067603 0.688215
Si Si5 0.412982 0.063796 0.316821
Si Si6 0.703693 0.887045 0.775106
Si Si7 0.079940 0.146545 0.881421
O O1 0.728651 0.793110 0.324849
O O2 0.792840 0.772078 0.067498
O O3 0.559452 0.279097 0.803517
O O4 0.559387 0.380911 0.856585
O O5 0.508486 0.348839 0.596056
O O6 0.474390 0.326339 0.891155
O O7 0.642542 0.272923 0.969446
O O8 0.627537 0.206779 0.721129
O O9 0.572661 0.192879 0.986535
O O10 0.549681 0.098215 0.862099
O O11 0.587071 0.109297 0.548039
O O12 0.378402 0.067540 0.145497
O O13 0.675447 0.865509 0.948634
#
# Coordination Sequence:
#
# PCOD9371481 Si02
#       7
#     8  16  16  16  16  16  16
#     4  10  22  40  72 102 126 190 224 282 350 398
#     4  10  23  41  63 100 131 178 225 278 344 403
#     4  11  22  40  70  96 132 178 227 280 348 404
#     4  11  21  46  66  93 137 175 222 281 339 409
#     4  11  21  44  69  95 138 177 226 278 343 410
#     4  10  24  42  63 100 133 172 231 276 340 407
#     4  10  22  42  66  92 138 174 216 280 345 392
#
# _framework density 19.914797
#
# number of rings (size 3 to 8) (size 9 to 14) (size 15 to 20)
#    0.923    0.615    4.615    0.000    2.154    0.000 
#   13.846    2.308    0.000    0.000    0.000    0.000 
#    0.000    0.000    0.000    0.000    0.000    0.000 
#
# Total GULP energy -144768.633001 kJ/mol
# GULP energy per Si atom -5568.024346 kJ/mol
# Density = 1.986947 g / cm^3
# Si number density = 19.914797 Si / 1000 Ang^3
#
#
#
# Elastic Constant Matrix: (Units=GPa)
#
#
# Indices 1 2 3 4 5 6 
#
# 1 118.5613 48.2103 32.0927 0.0015 -0.0029 -0.0009
# 2 48.2103 74.4854 11.6910 -0.0119 0.0043 0.0027
# 3 32.0927 11.6910 31.6999 -0.0252 0.0147 0.0100
# 4 0.0015 -0.0119 -0.0252 16.8284 0.0017 0.0016
# 5 -0.0029 0.0043 0.0147 0.0017 21.0631 -0.0020
# 6 -0.0009 0.0027 0.0100 0.0016 -0.0020 31.5088
#
#
#
# Elastic Compliance Matrix: (Units=1/GPa)
#
#
# Indices 1 2 3 4 5 6 
#
# 1 0.014877 -0.007712 -0.012218 -0.000025 0.000012 0.000005
# 2 -0.007712 0.018248 0.001077 0.000015 -0.000006 -0.000002
# 3 -0.012218 0.001077 0.043518 0.000067 -0.000032 -0.000014
# 4 -0.000025 0.000015 0.000067 0.059423 -0.000005 -0.000003
# 5 0.000012 -0.000006 -0.000032 -0.000005 0.047476 0.000003
# 6 0.000005 -0.000002 -0.000014 -0.000003 0.000003 0.031737
#
#
# Mechanical properties :
#
#
# Convention : Reuss Voigt Hill
#
# Bulk Modulus (GPa) = 25.68123 45.41495 35.54809
# Shear Modulus (GPa) = 18.79961 22.73024 20.76492
#
# Velocity S-wave (km/s) = 3.07579 3.38209 3.23257
# Velocity P-wave (km/s) = 5.05347 6.17296 5.64106
#
# Compressibility (1/GPa) = 0.03893895
#
# Stress axis : x y z
#
# Youngs Moduli (GPa) = 67.21620 54.80150 22.97919
#
# Poissons Ratio (x) = 0.42261 0.28075
# Poissons Ratio (y) = 0.51835 -0.02476
# Poissons Ratio (z) = 0.82123 -0.05905
#
# Static dielectric constant tensor:
#      x y z
#    x 1.768750 0.000020 0.000010 
#    y 0.000020 1.809750 0.000000 
#    z 0.000010 0.000000 1.700960 
# 
# From -- ./inp_files/4751.got.cif
#   From: 2010.05.17/outbox.cif.g08.bks.cpg/sg43_3_cif.got.tgz:4751.got - 2010.06.03 19:21:55.
