data_PCOD9371184
_publ_section_title
;
Structure prediction by ZEFSAII (Michael W. Deem and Ramdas Pophale) SiO2 
 PCOD9371184
Probable space group: F D D 2
;
_chemical_formula_sum "Si O2"
_cell_formula_units_Z 64
_cell_length_a 5.617959
_cell_length_b 22.822811
_cell_length_c 17.530819
_cell_angle_alpha 90.000000
_cell_angle_beta 90.000000
_cell_angle_gamma 90.000000
_cell_volume 2247.759827
_symmetry_space_group_name_H-M "F D D 2"
_symmetry_group_IT_number 43
_symmetry_cell_setting 'orthorhombic'
loop_
_space_group_symop_operation_xyz
x,y,z
-x,-y,z
1/4-x,1/4+y,1/4+z
1/4+x,1/4-y,1/4+z
x,1/2+y,1/2+z
-x,1/2-y,1/2+z
1/4-x,3/4+y,3/4+z
1/4+x,3/4-y,3/4+z
1/2+x,y,1/2+z
1/2-x,-y,1/2+z
3/4-x,1/4+y,3/4+z
3/4+x,1/4-y,3/4+z
1/2+x,1/2+y,z
1/2-x,1/2-y,z
3/4-x,3/4+y,1/4+z
3/4+x,3/4-y,1/4+z
loop_
_atom_site_type_symbol
_atom_site_label
_atom_site_fract_x
_atom_site_fract_y
_atom_site_fract_z
Si Si1 0.500000 0.000000 0.328531
Si Si2 0.185931 0.569340 0.596823
Si Si3 0.000000 0.500000 0.006711
Si Si4 0.568184 0.655285 0.646509
Si Si5 0.156035 0.085786 0.254442
O O1 0.601229 0.049509 0.383329
O O2 0.704285 0.972963 0.276786
O O3 0.267583 0.508658 0.559560
O O4 0.427528 0.593545 0.640438
O O5 0.090397 0.611290 0.529172
O O6 0.029848 0.577145 0.672375
O O7 0.988856 0.559074 0.955750
O O8 0.706092 0.656089 0.567142
#
# Coordination Sequence:
#
# PCOD9371184 Si02
#       5
#     8  16   8  16  16
#     4  10  21  40  70  93 138 186 240 294 375 416
#     4  11  26  43  70 107 148 196 251 309 371 453
#     4  12  23  50  72 107 150 208 246 306 389 444
#     4  11  24  44  75 104 145 193 251 311 371 447
#     4  11  23  41  67 101 143 190 246 310 362 438
#
# _framework density 28.472792999999999
#
# number of rings (size 3 to 8) (size 9 to 14) (size 15 to 20)
#    0.000    1.000    5.000    0.750    3.500    0.000 
#    0.000    2.500    0.000    0.000    0.000    0.000 
#    0.000    0.000    0.000    0.000    0.000    0.000 
#
# Total GULP energy -89418.295030 kJ/mol
# GULP energy per Si atom -5588.643439 kJ/mol
# Density = 2.840799 g / cm^3
# Si number density = 28.472793 Si / 1000 Ang^3
#
#
#
# Elastic Constant Matrix: (Units=GPa)
#
#
# Indices 1 2 3 4 5 6 
#
# 1 36.1064 8.2976 -8.1145 0.0000 0.0000 0.0000
# 2 8.2976 90.5313 24.8698 0.0000 0.0000 0.0000
# 3 -8.1145 24.8698 171.3281 0.0000 0.0000 0.0000
# 4 0.0000 0.0000 0.0000 52.9946 0.0000 0.0000
# 5 0.0000 0.0000 0.0000 0.0000 21.4740 0.0000
# 6 0.0000 0.0000 0.0000 0.0000 0.0000 45.7097
#
#
#
# Elastic Compliance Matrix: (Units=1/GPa)
#
#
# Indices 1 2 3 4 5 6 
#
# 1 0.028827 -0.003143 0.001822 0.000000 0.000000 0.000000
# 2 -0.003143 0.011847 -0.001869 0.000000 0.000000 0.000000
# 3 0.001822 -0.001869 0.006194 0.000000 0.000000 0.000000
# 4 0.000000 0.000000 0.000000 0.018870 0.000000 0.000000
# 5 0.000000 0.000000 0.000000 0.000000 0.046568 0.000000
# 6 0.000000 0.000000 0.000000 0.000000 0.000000 0.021877
#
#
# Mechanical properties :
#
#
# Convention : Reuss Voigt Hill
#
# Bulk Modulus (GPa) = 24.69761 38.67461 31.68611
# Shear Modulus (GPa) = 32.45497 42.22988 37.34243
#
# Velocity S-wave (km/s) = 3.37984 3.85537 3.62541
# Velocity P-wave (km/s) = 4.89122 5.78195 5.35514
#
# Compressibility (1/GPa) = 0.04048975
#
# Stress axis : x y z
#
# Youngs Moduli (GPa) = 34.68917 84.40787 161.43967
#
# Poissons Ratio (x) = 0.26525 -0.29406
# Poissons Ratio (y) = 0.10901 0.30166
# Poissons Ratio (z) = -0.06319 0.15772
#
# Static dielectric constant tensor:
#      x y z
#    x 2.427160 0.000000 0.000000 
#    y 0.000000 1.968630 0.000000 
#    z 0.000000 0.000000 2.421940 
# 
# From -- ./inp_files/15584.got.cif
#   From: 2010.05.17/outbox.cif.g08.bks.cpg/sg43_8_cif.got.tgz:15584.got - 2010.06.03 19:21:55.
