data_PCOD9371766
_publ_section_title
;
Structure prediction by ZEFSAII (Michael W. Deem and Ramdas Pophale) SiO2 
 PCOD9371766
Probable space group: F D D 2
;
_chemical_formula_sum "Si O2"
_cell_formula_units_Z 88
_cell_length_a 13.997974
_cell_length_b 24.278744
_cell_length_c 11.309639
_cell_angle_alpha 90.000000
_cell_angle_beta 90.000000
_cell_angle_gamma 90.000000
_cell_volume 3843.617313
_symmetry_space_group_name_H-M "F D D 2"
_symmetry_group_IT_number 43
_symmetry_cell_setting 'orthorhombic'
loop_
_space_group_symop_operation_xyz
x,y,z
-x,-y,z
1/4-x,1/4+y,1/4+z
1/4+x,1/4-y,1/4+z
x,1/2+y,1/2+z
-x,1/2-y,1/2+z
1/4-x,3/4+y,3/4+z
1/4+x,3/4-y,3/4+z
1/2+x,y,1/2+z
1/2-x,-y,1/2+z
3/4-x,1/4+y,3/4+z
3/4+x,1/4-y,3/4+z
1/2+x,1/2+y,z
1/2-x,1/2-y,z
3/4-x,3/4+y,1/4+z
3/4+x,3/4-y,1/4+z
loop_
_atom_site_type_symbol
_atom_site_label
_atom_site_fract_x
_atom_site_fract_y
_atom_site_fract_z
Si Si1 0.500000 0.500000 0.614900
Si Si2 0.728557 0.158921 0.202156
Si Si3 0.120208 0.562381 0.311166
Si Si4 0.152863 0.490162 0.526220
Si Si5 0.782062 0.663071 0.294619
Si Si6 0.197685 0.592959 0.983605
O O1 0.559475 0.460112 0.527713
O O2 0.560592 0.539934 0.700368
O O3 0.702562 0.103915 0.274264
O O4 0.841462 0.168851 0.192391
O O5 0.691248 0.145119 0.072264
O O6 0.153531 0.510734 0.389773
O O7 0.195373 0.345242 0.156274
O O8 0.118721 0.546936 0.588590
O O9 0.249487 0.457480 0.548933
O O10 0.065664 0.448269 0.547680
O O11 0.765377 0.611114 0.376024
#
# Coordination Sequence:
#
# PCOD9371766 Si02
#       6
#     8  16  16  16  16  16
#     4  12  24  48  68 102 150 188 234 300 368 424
#     4  12  28  45  71 103 153 184 230 308 371 432
#     4  10  22  46  75 102 138 191 249 282 356 449
#     4   9  20  42  69 104 132 185 235 295 341 427
#     4   9  20  41  76  98 133 186 244 289 337 427
#     4  12  24  47  67 112 144 182 243 300 365 429
#
# _framework density 22.895098000000001
#
# number of rings (size 3 to 8) (size 9 to 14) (size 15 to 20)
#    1.091    0.364    5.455    0.000    2.545    2.909 
#    3.273    0.000    0.000    0.000    0.000    0.000 
#    0.000    0.000    0.000    0.000    0.000    0.000 
#
# Total GULP energy -122669.693770 kJ/mol
# GULP energy per Si atom -5575.895171 kJ/mol
# Density = 2.284299 g / cm^3
# Si number density = 22.895098 Si / 1000 Ang^3
#
#
#
# Elastic Constant Matrix: (Units=GPa)
#
#
# Indices 1 2 3 4 5 6 
#
# 1 75.6863 28.5047 -2.5605 0.0000 0.0000 0.0000
# 2 28.5047 86.4162 24.9380 0.0000 0.0000 0.0000
# 3 -2.5605 24.9380 78.8608 0.0000 0.0000 0.0000
# 4 0.0000 0.0000 0.0000 31.4329 0.0000 0.0000
# 5 0.0000 0.0000 0.0000 0.0000 21.7658 0.0000
# 6 0.0000 0.0000 0.0000 0.0000 0.0000 33.1034
#
#
#
# Elastic Compliance Matrix: (Units=1/GPa)
#
#
# Indices 1 2 3 4 5 6 
#
# 1 0.015465 -0.005773 0.002328 0.000000 0.000000 0.000000
# 2 -0.005773 0.014889 -0.004896 0.000000 0.000000 0.000000
# 3 0.002328 -0.004896 0.014304 0.000000 0.000000 0.000000
# 4 0.000000 0.000000 0.000000 0.031814 0.000000 0.000000
# 5 0.000000 0.000000 0.000000 0.000000 0.045944 0.000000
# 6 0.000000 0.000000 0.000000 0.000000 0.000000 0.030208
#
#
# Mechanical properties :
#
#
# Convention : Reuss Voigt Hill
#
# Bulk Modulus (GPa) = 35.74417 38.08084 36.91250
# Shear Modulus (GPa) = 27.99049 29.93251 28.96150
#
# Velocity S-wave (km/s) = 3.50030 3.61969 3.56049
# Velocity P-wave (km/s) = 5.65528 5.84281 5.74981
#
# Compressibility (1/GPa) = 0.02797659
#
# Stress axis : x y z
#
# Youngs Moduli (GPa) = 64.66041 67.16376 69.90890
#
# Poissons Ratio (x) = 0.38774 -0.16273
# Poissons Ratio (y) = 0.37329 0.34226
# Poissons Ratio (z) = -0.15051 0.32882
#
# Static dielectric constant tensor:
#      x y z
#    x 1.833000 0.000000 0.000000 
#    y 0.000000 1.853610 0.000000 
#    z 0.000000 0.000000 1.879900 
# 
# From -- ./inp_files/10039.got.cif
#   From: 2010.05.17/outbox.cif.g08.bks.cpg/sg43_6_cif.got.tgz:10039.got - 2010.06.03 19:21:55.
