data_PCOD9371245
_publ_section_title
;
Structure prediction by ZEFSAII (Michael W. Deem and Ramdas Pophale) SiO2 
 PCOD9371245
Probable space group: F D D 2
;
_chemical_formula_sum "Si O2"
_cell_formula_units_Z 80
_cell_length_a 11.662792
_cell_length_b 21.652115
_cell_length_c 15.166989
_cell_angle_alpha 90.000000
_cell_angle_beta 90.000000
_cell_angle_gamma 90.000000
_cell_volume 3830.030453
_symmetry_space_group_name_H-M "F D D 2"
_symmetry_group_IT_number 43
_symmetry_cell_setting 'orthorhombic'
loop_
_space_group_symop_operation_xyz
x,y,z
-x,-y,z
1/4-x,1/4+y,1/4+z
1/4+x,1/4-y,1/4+z
x,1/2+y,1/2+z
-x,1/2-y,1/2+z
1/4-x,3/4+y,3/4+z
1/4+x,3/4-y,3/4+z
1/2+x,y,1/2+z
1/2-x,-y,1/2+z
3/4-x,1/4+y,3/4+z
3/4+x,1/4-y,3/4+z
1/2+x,1/2+y,z
1/2-x,1/2-y,z
3/4-x,3/4+y,1/4+z
3/4+x,3/4-y,1/4+z
loop_
_atom_site_type_symbol
_atom_site_label
_atom_site_fract_x
_atom_site_fract_y
_atom_site_fract_z
Si Si1 0.575014 0.906655 0.415320
Si Si2 0.753212 0.859294 0.764312
Si Si3 0.470677 0.792462 0.316799
Si Si4 0.247059 0.405401 0.576025
Si Si5 0.583375 0.282625 0.632945
O O1 0.548272 0.845391 0.360657
O O2 0.644572 0.894941 0.505862
O O3 0.449945 0.938118 0.423949
O O4 0.645092 0.960442 0.363734
O O5 0.837151 0.812528 0.817023
O O6 0.620815 0.848953 0.782077
O O7 0.757155 0.860468 0.658973
O O8 0.795702 0.925601 0.801615
O O9 0.507574 0.726968 0.356162
O O10 0.494900 0.787894 0.212537
#
# Coordination Sequence:
#
# PCOD9371245 Si02
#       5
#    16  16  16  16  16
#     4   9  21  38  63  90 123 164 219 259 310 378
#     4  11  22  42  63  95 131 166 210 262 325 380
#     4  10  21  42  64  91 127 169 212 260 313 384
#     4  11  24  41  64  95 130 167 209 264 326 377
#     4   9  19  39  63  89 121 167 212 266 304 379
#
# _framework density 20.887561999999999
#
# number of rings (size 3 to 8) (size 9 to 14) (size 15 to 20)
#    0.000    2.000    2.000    0.600    2.800    3.200 
#   10.800    0.000    0.000    0.000    0.000    0.000 
#    0.000    0.000    0.000    0.000    0.000    0.000 
#
# Total GULP energy -111486.887847 kJ/mol
# GULP energy per Si atom -5574.344392 kJ/mol
# Density = 2.084002 g / cm^3
# Si number density = 20.887562 Si / 1000 Ang^3
#
#
#
# Elastic Constant Matrix: (Units=GPa)
#
#
# Indices 1 2 3 4 5 6 
#
# 1 88.6180 31.7252 25.9825 0.0000 0.0000 0.0000
# 2 31.7252 60.5360 16.5203 0.0000 0.0000 0.0000
# 3 25.9825 16.5203 39.0453 0.0000 0.0000 0.0000
# 4 0.0000 0.0000 0.0000 4.7868 0.0000 0.0000
# 5 0.0000 0.0000 0.0000 0.0000 35.7445 0.0000
# 6 0.0000 0.0000 0.0000 0.0000 0.0000 16.5423
#
#
#
# Elastic Compliance Matrix: (Units=1/GPa)
#
#
# Indices 1 2 3 4 5 6 
#
# 1 0.015797 -0.006116 -0.007924 0.000000 0.000000 0.000000
# 2 -0.006116 0.021044 -0.004834 0.000000 0.000000 0.000000
# 3 -0.007924 -0.004834 0.032930 0.000000 0.000000 0.000000
# 4 0.000000 0.000000 0.000000 0.208910 0.000000 0.000000
# 5 0.000000 0.000000 0.000000 0.000000 0.027976 0.000000
# 6 0.000000 0.000000 0.000000 0.000000 0.000000 0.060451
#
#
# Mechanical properties :
#
#
# Convention : Reuss Voigt Hill
#
# Bulk Modulus (GPa) = 31.22857 37.40613 34.31735
# Shear Modulus (GPa) = 12.03280 19.01280 15.52280
#
# Velocity S-wave (km/s) = 2.40276 3.02030 2.72905
# Velocity P-wave (km/s) = 4.76245 5.48727 5.13766
#
# Compressibility (1/GPa) = 0.03202196
#
# Stress axis : x y z
#
# Youngs Moduli (GPa) = 63.30117 47.52036 30.36772
#
# Poissons Ratio (x) = 0.29066 0.24065
# Poissons Ratio (y) = 0.38718 0.14678
# Poissons Ratio (z) = 0.50163 0.22969
#
# Static dielectric constant tensor:
#      x y z
#    x 1.786770 0.000000 0.000000 
#    y 0.000000 1.844220 0.000000 
#    z 0.000000 0.000000 1.728580 
# 
# From -- ./inp_files/9521.got.cif
#   From: 2010.05.17/outbox.cif.g08.bks.cpg/sg43_5_cif.got.tgz:9521.got - 2010.06.03 19:21:55.
