data_PCOD9371780
_publ_section_title
;
Structure prediction by ZEFSAII (Michael W. Deem and Ramdas Pophale) SiO2 
 PCOD9371780
Probable space group: F D D 2
;
_chemical_formula_sum "Si O2"
_cell_formula_units_Z 88
_cell_length_a 30.587913
_cell_length_b 22.861405
_cell_length_c 5.030994
_cell_angle_alpha 90.000000
_cell_angle_beta 90.000000
_cell_angle_gamma 90.000000
_cell_volume 3518.086903
_symmetry_space_group_name_H-M "F D D 2"
_symmetry_group_IT_number 43
_symmetry_cell_setting 'orthorhombic'
loop_
_space_group_symop_operation_xyz
x,y,z
-x,-y,z
1/4-x,1/4+y,1/4+z
1/4+x,1/4-y,1/4+z
x,1/2+y,1/2+z
-x,1/2-y,1/2+z
1/4-x,3/4+y,3/4+z
1/4+x,3/4-y,3/4+z
1/2+x,y,1/2+z
1/2-x,-y,1/2+z
3/4-x,1/4+y,3/4+z
3/4+x,1/4-y,3/4+z
1/2+x,1/2+y,z
1/2-x,1/2-y,z
3/4-x,3/4+y,1/4+z
3/4+x,3/4-y,1/4+z
loop_
_atom_site_type_symbol
_atom_site_label
_atom_site_fract_x
_atom_site_fract_y
_atom_site_fract_z
Si Si1 0.250000 0.250000 0.479580
Si Si2 0.682564 0.327728 0.662740
Si Si3 0.689809 0.530923 0.041181
Si Si4 0.292489 0.364927 0.649652
Si Si5 0.774230 0.565183 0.272496
Si Si6 0.126034 0.083971 0.411488
O O1 0.286069 0.221436 0.284048
O O2 0.273464 0.299553 0.659711
O O3 0.710495 0.383946 0.573355
O O4 0.650338 0.313550 0.421407
O O5 0.656353 0.349795 0.923235
O O6 0.738573 0.522649 0.147606
O O7 0.655484 0.533543 0.276661
O O8 0.693292 0.594045 0.896778
O O9 0.685304 0.475185 0.855354
O O10 0.254332 0.399506 0.490874
O O11 0.338061 0.366934 0.484242
#
# Coordination Sequence:
#
# PCOD9371780 Si02
#       6
#     8  16  16  16  16  16
#     4  10  26  50  78 110 158 212 262 312 394 476
#     4  11  26  49  72 110 150 209 249 312 384 461
#     4  11  21  44  74 115 142 197 252 326 375 453
#     4  10  22  48  70 111 150 199 252 320 377 466
#     4  10  23  39  77 103 146 191 260 310 373 450
#     4  11  25  48  72 108 157 192 256 312 390 445
#
# _framework density 25.013593
#
# number of rings (size 3 to 8) (size 9 to 14) (size 15 to 20)
#    0.000    1.455    3.636    0.000    5.091    2.182 
#    9.818    0.000    0.000    0.000    0.000    0.000 
#    0.000    0.000    0.000    0.000    0.000    0.000 
#
# Total GULP energy -122894.082584 kJ/mol
# GULP energy per Si atom -5586.094663 kJ/mol
# Density = 2.495666 g / cm^3
# Si number density = 25.013593 Si / 1000 Ang^3
#
#
#
# Elastic Constant Matrix: (Units=GPa)
#
#
# Indices 1 2 3 4 5 6 
#
# 1 110.4833 36.4905 39.7175 -0.0359 0.0560 0.0427
# 2 36.4905 116.5143 26.5847 0.0116 -0.0901 -0.0318
# 3 39.7175 26.5847 118.7512 0.0145 -0.0017 -0.0569
# 4 -0.0359 0.0116 0.0145 19.9572 -0.0550 -0.0788
# 5 0.0560 -0.0901 -0.0017 -0.0550 47.0113 0.0415
# 6 0.0427 -0.0318 -0.0569 -0.0788 0.0415 16.9339
#
#
#
# Elastic Compliance Matrix: (Units=1/GPa)
#
#
# Indices 1 2 3 4 5 6 
#
# 1 0.011073 -0.002764 -0.003085 0.000024 -0.000019 -0.000043
# 2 -0.002764 0.009735 -0.001255 -0.000010 0.000022 0.000021
# 3 -0.003085 -0.001255 0.009734 -0.000012 0.000002 0.000038
# 4 0.000024 -0.000010 -0.000012 0.050108 0.000058 0.000233
# 5 -0.000019 0.000022 0.000002 0.000058 0.021272 -0.000052
# 6 -0.000043 0.000021 0.000038 0.000233 -0.000052 0.059054
#
#
# Mechanical properties :
#
#
# Convention : Reuss Voigt Hill
#
# Bulk Modulus (GPa) = 61.22174 61.25935 61.24055
# Shear Modulus (GPa) = 27.68127 32.97756 30.32941
#
# Velocity S-wave (km/s) = 3.33024 3.63490 3.48590
# Velocity P-wave (km/s) = 6.27024 6.49309 6.38264
#
# Compressibility (1/GPa) = 0.01633407
#
# Stress axis : x y z
#
# Youngs Moduli (GPa) = 90.30954 102.72594 102.73685
#
# Poissons Ratio (x) = 0.28394 0.31691
# Poissons Ratio (y) = 0.24962 0.12891
# Poissons Ratio (z) = 0.27858 0.12890
#
# Static dielectric constant tensor:
#      x y z
#    x 2.034660 -0.000020 0.000040 
#    y -0.000020 1.972830 -0.000040 
#    z 0.000040 -0.000040 2.114900 
# 
# From -- ./inp_files/1397.got.cif
#   From: 2010.05.17/outbox.cif.g08.bks.cpg/sg43_1_cif.got.tgz:1397.got - 2010.06.03 19:21:55.
