data_PCOD9371519
_publ_section_title
;
Structure prediction by ZEFSAII (Michael W. Deem and Ramdas Pophale) SiO2 
 PCOD9371519
Probable space group: F D D 2
;
_chemical_formula_sum "Si O2"
_cell_formula_units_Z 80
_cell_length_a 22.891828
_cell_length_b 10.535494
_cell_length_c 12.911996
_cell_angle_alpha 90.000000
_cell_angle_beta 90.000000
_cell_angle_gamma 90.000000
_cell_volume 3114.072799
_symmetry_space_group_name_H-M "F D D 2"
_symmetry_group_IT_number 43
_symmetry_cell_setting 'orthorhombic'
loop_
_space_group_symop_operation_xyz
x,y,z
-x,-y,z
1/4-x,1/4+y,1/4+z
1/4+x,1/4-y,1/4+z
x,1/2+y,1/2+z
-x,1/2-y,1/2+z
1/4-x,3/4+y,3/4+z
1/4+x,3/4-y,3/4+z
1/2+x,y,1/2+z
1/2-x,-y,1/2+z
3/4-x,1/4+y,3/4+z
3/4+x,1/4-y,3/4+z
1/2+x,1/2+y,z
1/2-x,1/2-y,z
3/4-x,3/4+y,1/4+z
3/4+x,3/4-y,1/4+z
loop_
_atom_site_type_symbol
_atom_site_label
_atom_site_fract_x
_atom_site_fract_y
_atom_site_fract_z
Si Si1 0.955550 0.899274 0.731980
Si Si2 0.335093 0.810388 0.282355
Si Si3 0.843860 0.279661 0.839610
Si Si4 0.317054 0.710672 0.055056
Si Si5 0.989844 0.790662 0.082102
O O1 0.899731 0.866033 0.800638
O O2 0.988666 0.774484 0.690039
O O3 0.937846 0.394238 0.578529
O O4 0.000000 0.000000 0.781766
O O5 0.317973 0.720267 0.377629
O O6 0.335001 0.751223 0.169064
O O7 0.286158 0.920319 0.273499
O O8 0.906457 0.318031 0.795254
O O9 0.797270 0.382942 0.797208
O O10 0.847548 0.288462 0.963958
O O11 0.250000 0.750000 0.041084
#
# Coordination Sequence:
#
# PCOD9371519 Si02
#       5
#    16  16  16  16  16
#     4  10  22  41  68  97 142 183 233 298 348 423
#     4  11  23  40  73 102 135 188 245 289 355 424
#     4  11  25  43  70 100 146 183 234 299 359 418
#     4  12  24  42  70 104 133 191 237 284 355 433
#     4  10  22  45  62 100 145 175 228 304 349 414
#
# _framework density 25.689829
#
# number of rings (size 3 to 8) (size 9 to 14) (size 15 to 20)
#    0.000    1.200    4.000    3.000    2.800    3.200 
#    0.000    0.000    4.400    0.000    0.000    0.000 
#    0.000    0.000    0.000    0.000    0.000    0.000 
#
# Total GULP energy -111804.347232 kJ/mol
# GULP energy per Si atom -5590.217362 kJ/mol
# Density = 2.563136 g / cm^3
# Si number density = 25.689829 Si / 1000 Ang^3
#
#
#
# Elastic Constant Matrix: (Units=GPa)
#
#
# Indices 1 2 3 4 5 6 
#
# 1 151.4715 67.3675 39.2274 0.0000 0.0000 0.0000
# 2 67.3675 124.7602 20.0210 0.0000 0.0000 0.0000
# 3 39.2274 20.0210 53.7181 0.0000 0.0000 0.0000
# 4 0.0000 0.0000 0.0000 8.9833 0.0000 0.0000
# 5 0.0000 0.0000 0.0000 0.0000 35.4655 0.0000
# 6 0.0000 0.0000 0.0000 0.0000 0.0000 44.8168
#
#
#
# Elastic Compliance Matrix: (Units=1/GPa)
#
#
# Indices 1 2 3 4 5 6 
#
# 1 0.010090 -0.004537 -0.005677 0.000000 0.000000 0.000000
# 2 -0.004537 0.010566 -0.000624 0.000000 0.000000 0.000000
# 3 -0.005677 -0.000624 0.022994 0.000000 0.000000 0.000000
# 4 0.000000 0.000000 0.000000 0.111318 0.000000 0.000000
# 5 0.000000 0.000000 0.000000 0.000000 0.028196 0.000000
# 6 0.000000 0.000000 0.000000 0.000000 0.000000 0.022313
#
#
# Mechanical properties :
#
#
# Convention : Reuss Voigt Hill
#
# Bulk Modulus (GPa) = 45.51261 64.79796 55.15528
# Shear Modulus (GPa) = 21.32385 31.40871 26.36628
#
# Velocity S-wave (km/s) = 2.88418 3.50038 3.20712
# Velocity P-wave (km/s) = 5.37085 6.45096 5.93552
#
# Compressibility (1/GPa) = 0.02197193
#
# Stress axis : x y z
#
# Youngs Moduli (GPa) = 99.10609 94.64608 43.48921
#
# Poissons Ratio (x) = 0.42945 0.24690
# Poissons Ratio (y) = 0.44969 0.02716
# Poissons Ratio (z) = 0.56265 0.05910
#
# Static dielectric constant tensor:
#      x y z
#    x 2.020230 0.000000 0.000000 
#    y 0.000000 2.061890 0.000000 
#    z 0.000000 0.000000 1.994930 
# 
# From -- ./inp_files/14977.got.cif
#   From: 2010.05.17/outbox.cif.g08.bks.cpg/sg43_8_cif.got.tgz:14977.got - 2010.06.03 19:21:55.
