data_PCOD9371024
_publ_section_title
;
Structure prediction by ZEFSAII (Michael W. Deem and Ramdas Pophale) SiO2 
 PCOD9371024
Probable space group: F D D 2
;
_chemical_formula_sum "Si O2"
_cell_formula_units_Z 112
_cell_length_a 21.793223
_cell_length_b 10.924966
_cell_length_c 22.983161
_cell_angle_alpha 90.000000
_cell_angle_beta 90.000000
_cell_angle_gamma 90.000000
_cell_volume 5472.065866
_symmetry_space_group_name_H-M "F D D 2"
_symmetry_group_IT_number 43
_symmetry_cell_setting 'orthorhombic'
loop_
_space_group_symop_operation_xyz
x,y,z
-x,-y,z
1/4-x,1/4+y,1/4+z
1/4+x,1/4-y,1/4+z
x,1/2+y,1/2+z
-x,1/2-y,1/2+z
1/4-x,3/4+y,3/4+z
1/4+x,3/4-y,3/4+z
1/2+x,y,1/2+z
1/2-x,-y,1/2+z
3/4-x,1/4+y,3/4+z
3/4+x,1/4-y,3/4+z
1/2+x,1/2+y,z
1/2-x,1/2-y,z
3/4-x,3/4+y,1/4+z
3/4+x,3/4-y,1/4+z
loop_
_atom_site_type_symbol
_atom_site_label
_atom_site_fract_x
_atom_site_fract_y
_atom_site_fract_z
Si Si1 0.203704 0.646803 0.514220
Si Si2 0.521500 0.358598 0.014382
Si Si3 0.560934 0.918091 0.636050
Si Si4 0.568342 0.323476 0.887370
Si Si5 0.597749 0.792750 0.982723
Si Si6 0.712414 0.625504 0.617921
Si Si7 0.684570 0.517145 0.502091
O O1 0.250000 0.750000 0.493008
O O2 0.190105 0.665988 0.583228
O O3 0.140580 0.671968 0.481534
O O4 0.243829 0.526814 0.502749
O O5 0.500000 0.500000 0.017550
O O6 0.553487 0.340757 0.076677
O O7 0.561188 0.356674 0.955059
O O8 0.466288 0.259149 0.008488
O O9 0.575757 0.833945 0.691284
O O10 0.500000 0.000000 0.646721
O O11 0.616966 0.010139 0.627189
O O12 0.513140 0.229786 0.875840
O O13 0.583723 0.850106 0.920218
O O14 0.638388 0.901615 0.012246
O O15 0.750000 0.750000 0.622975
O O16 0.679880 0.609265 0.556079
#
# Coordination Sequence:
#
# PCOD9371024 Si02
#       7
#    16  16  16  16  16  16  16
#     4   9  18  35  58  84 111 145 192 243 291 345
#     4  10  22  39  61  88 118 156 198 245 299 357
#     4  11  23  36  55  87 118 150 196 248 297 343
#     4  10  21  37  58  82 114 155 195 238 295 364
#     4  10  21  39  61  86 116 151 198 244 292 358
#     4  10  21  39  61  84 116 159 200 241 297 362
#     4  10  22  37  57  85 118 156 195 241 296 353
#
# _framework density 20.467589
#
# number of rings (size 3 to 8) (size 9 to 14) (size 15 to 20)
#    0.000    2.000    0.000    3.429    0.000    8.000 
#    0.000    0.000    0.000    0.857    0.000    0.000 
#    0.000    0.000    0.000    0.000    0.000    0.000 
#
# Total GULP energy -156005.467172 kJ/mol
# GULP energy per Si atom -5571.623828 kJ/mol
# Density = 2.042100 g / cm^3
# Si number density = 20.467589 Si / 1000 Ang^3
#
#
#
# Elastic Constant Matrix: (Units=GPa)
#
#
# Indices 1 2 3 4 5 6 
#
# 1 78.0528 3.1063 21.5180 0.0000 0.0000 0.0000
# 2 3.1063 43.7019 35.0125 0.0000 0.0000 0.0000
# 3 21.5180 35.0125 107.3841 0.0000 0.0000 0.0000
# 4 0.0000 0.0000 0.0000 38.3367 0.0000 0.0000
# 5 0.0000 0.0000 0.0000 0.0000 16.0024 0.0000
# 6 0.0000 0.0000 0.0000 0.0000 0.0000 26.4086
#
#
#
# Elastic Compliance Matrix: (Units=1/GPa)
#
#
# Indices 1 2 3 4 5 6 
#
# 1 0.013649 0.001653 -0.003274 0.000000 0.000000 0.000000
# 2 0.001653 0.031173 -0.010495 0.000000 0.000000 0.000000
# 3 -0.003274 -0.010495 0.013390 0.000000 0.000000 0.000000
# 4 0.000000 0.000000 0.000000 0.026085 0.000000 0.000000
# 5 0.000000 0.000000 0.000000 0.000000 0.062491 0.000000
# 6 0.000000 0.000000 0.000000 0.000000 0.000000 0.037866
#
#
# Mechanical properties :
#
#
# Convention : Reuss Voigt Hill
#
# Bulk Modulus (GPa) = 29.42940 38.71248 34.07094
# Shear Modulus (GPa) = 22.70528 27.44967 25.07747
#
# Velocity S-wave (km/s) = 3.33427 3.66612 3.50412
# Velocity P-wave (km/s) = 5.40675 6.07253 5.74928
#
# Compressibility (1/GPa) = 0.03397963
#
# Stress axis : x y z
#
# Youngs Moduli (GPa) = 73.26750 32.07882 74.68071
#
# Poissons Ratio (x) = -0.05302 0.24449
# Poissons Ratio (y) = -0.12109 0.78379
# Poissons Ratio (z) = 0.23987 0.33667
#
# Static dielectric constant tensor:
#      x y z
#    x 1.794960 0.000000 0.000000 
#    y 0.000000 1.745240 0.000000 
#    z 0.000000 0.000000 1.771780 
# 
# From -- ./inp_files/22420.got.cif
#   From: 2010.05.17/outbox.cif.g08.bks.cpg/sg43_12_cif.got.tgz:22420.got - 2010.06.03 19:21:55.
