data_PCOD9371254
_publ_section_title
;
Structure prediction by ZEFSAII (Michael W. Deem and Ramdas Pophale) SiO2 
 PCOD9371254
Probable space group: F D D 2
;
_chemical_formula_sum "Si O2"
_cell_formula_units_Z 96
_cell_length_a 20.835115
_cell_length_b 11.608427
_cell_length_c 16.889814
_cell_angle_alpha 90.000000
_cell_angle_beta 90.000000
_cell_angle_gamma 90.000000
_cell_volume 4085.019589
_symmetry_space_group_name_H-M "F D D 2"
_symmetry_group_IT_number 43
_symmetry_cell_setting 'orthorhombic'
loop_
_space_group_symop_operation_xyz
x,y,z
-x,-y,z
1/4-x,1/4+y,1/4+z
1/4+x,1/4-y,1/4+z
x,1/2+y,1/2+z
-x,1/2-y,1/2+z
1/4-x,3/4+y,3/4+z
1/4+x,3/4-y,3/4+z
1/2+x,y,1/2+z
1/2-x,-y,1/2+z
3/4-x,1/4+y,3/4+z
3/4+x,1/4-y,3/4+z
1/2+x,1/2+y,z
1/2-x,1/2-y,z
3/4-x,3/4+y,1/4+z
3/4+x,3/4-y,1/4+z
loop_
_atom_site_type_symbol
_atom_site_label
_atom_site_fract_x
_atom_site_fract_y
_atom_site_fract_z
Si Si1 0.830802 0.502258 0.658620
Si Si2 0.990601 0.365532 0.613306
Si Si3 0.958280 0.846569 0.558123
Si Si4 0.659403 0.191813 0.381640
Si Si5 0.193293 0.830912 0.022076
Si Si6 0.102295 0.967594 0.817957
O O1 0.783073 0.574074 0.715065
O O2 0.838093 0.582457 0.582998
O O3 0.892407 0.487846 0.716673
O O4 0.815565 0.374586 0.624492
O O5 0.978481 0.342783 0.705512
O O6 0.925201 0.331499 0.569221
O O7 0.000000 0.500000 0.599935
O O8 0.047860 0.282999 0.589205
O O9 0.023805 0.890686 0.597965
O O10 0.904173 0.936168 0.585572
O O11 0.666140 0.214317 0.475552
O O12 0.607313 0.094941 0.356682
O O13 0.250000 0.750000 0.055216
#
# Coordination Sequence:
#
# PCOD9371254 Si02
#       6
#    16  16  16  16  16  16
#     4  11  23  41  74  96 137 188 239 294 358 422
#     4   9  20  40  70 101 139 178 234 294 355 423
#     4  10  23  41  67  94 139 184 226 293 363 421
#     4  10  23  45  64  94 142 177 233 296 363 426
#     4  10  24  42  69 105 141 179 246 292 357 436
#     4  10  21  42  66  97 131 182 234 291 349 432
#
# _framework density 23.500498
#
# number of rings (size 3 to 8) (size 9 to 14) (size 15 to 20)
#    0.000    2.000    0.000    3.000   11.667    1.333 
#    3.000    6.667    0.000    0.000    0.000    0.000 
#    0.000    0.000    0.000    0.000    0.000    0.000 
#
# Total GULP energy -133802.028445 kJ/mol
# GULP energy per Si atom -5575.084519 kJ/mol
# Density = 2.344701 g / cm^3
# Si number density = 23.500498 Si / 1000 Ang^3
#
#
#
# Elastic Constant Matrix: (Units=GPa)
#
#
# Indices 1 2 3 4 5 6 
#
# 1 22.7418 32.5084 8.6831 0.0000 0.0000 0.0000
# 2 32.5084 161.2448 75.5808 0.0000 0.0000 0.0000
# 3 8.6831 75.5808 123.8764 0.0000 0.0000 0.0000
# 4 0.0000 0.0000 0.0000 -11.9882 0.0000 0.0000
# 5 0.0000 0.0000 0.0000 0.0000 33.1564 0.0000
# 6 0.0000 0.0000 0.0000 0.0000 0.0000 10.3034
#
#
#
# Elastic Compliance Matrix: (Units=1/GPa)
#
#
# Indices 1 2 3 4 5 6 
#
# 1 0.063686 -0.015052 0.004720 0.000000 0.000000 0.000000
# 2 -0.015052 0.012243 -0.006415 0.000000 0.000000 0.000000
# 3 0.004720 -0.006415 0.011656 0.000000 0.000000 0.000000
# 4 0.000000 0.000000 0.000000 -0.083415 0.000000 0.000000
# 5 0.000000 0.000000 0.000000 0.000000 0.030160 0.000000
# 6 0.000000 0.000000 0.000000 0.000000 0.000000 0.097056
#
#
# Mechanical properties :
#
#
# Convention : Reuss Voigt Hill
#
# Bulk Modulus (GPa) = 18.48755 60.15638 39.32196
# Shear Modulus (GPa) = 27.33586 19.03370 23.18478
#
# Velocity S-wave (km/s) = 3.41428 2.84901 3.14437
# Velocity P-wave (km/s) = 4.84014 6.03953 5.47279
#
# Compressibility (1/GPa) = 0.05409046
#
# Stress axis : x y z
#
# Youngs Moduli (GPa) = 15.70204 81.67790 85.79509
#
# Poissons Ratio (x) = 1.22940 -0.40492
# Poissons Ratio (y) = 0.23634 0.55037
# Poissons Ratio (z) = -0.07411 0.52396
#
# Static dielectric constant tensor:
#      x y z
#    x 1.981970 0.000000 0.000000 
#    y 0.000000 2.087470 0.000000 
#    z 0.000000 0.000000 1.934370 
# 
# From -- ./inp_files/15025.got.cif
#   From: 2010.05.17/outbox.cif.g08.bks.cpg/sg43_8_cif.got.tgz:15025.got - 2010.06.03 19:21:55.
