data_PCOD9371498
_publ_section_title
;
Structure prediction by ZEFSAII (Michael W. Deem and Ramdas Pophale) SiO2 
 PCOD9371498
Probable space group: F D D 2
;
_chemical_formula_sum "Si O2"
_cell_formula_units_Z 96
_cell_length_a 26.126504
_cell_length_b 18.459338
_cell_length_c 9.303509
_cell_angle_alpha 90.000000
_cell_angle_beta 90.000000
_cell_angle_gamma 90.000000
_cell_volume 4486.877417
_symmetry_space_group_name_H-M "F D D 2"
_symmetry_group_IT_number 43
_symmetry_cell_setting 'orthorhombic'
loop_
_space_group_symop_operation_xyz
x,y,z
-x,-y,z
1/4-x,1/4+y,1/4+z
1/4+x,1/4-y,1/4+z
x,1/2+y,1/2+z
-x,1/2-y,1/2+z
1/4-x,3/4+y,3/4+z
1/4+x,3/4-y,3/4+z
1/2+x,y,1/2+z
1/2-x,-y,1/2+z
3/4-x,1/4+y,3/4+z
3/4+x,1/4-y,3/4+z
1/2+x,1/2+y,z
1/2-x,1/2-y,z
3/4-x,3/4+y,1/4+z
3/4+x,3/4-y,1/4+z
loop_
_atom_site_type_symbol
_atom_site_label
_atom_site_fract_x
_atom_site_fract_y
_atom_site_fract_z
Si Si1 0.774820 0.643390 0.054680
Si Si2 0.843994 0.438352 0.941502
Si Si3 0.884804 0.275066 0.901575
Si Si4 0.816278 0.283823 0.646221
Si Si5 0.902802 0.788254 0.948620
Si Si6 0.730542 0.500734 0.942313
O O1 0.796693 0.723447 0.033672
O O2 0.730375 0.661906 0.171959
O O3 0.824351 0.601836 0.105656
O O4 0.747992 0.585199 0.951670
O O5 0.866205 0.357285 0.933230
O O6 0.861906 0.479989 0.797578
O O7 0.782087 0.452066 0.949537
O O8 0.863978 0.477361 0.085911
O O9 0.841132 0.249882 0.787598
O O10 0.939596 0.268158 0.818918
O O11 0.861646 0.320164 0.558424
O O12 0.949555 0.759965 0.045870
#
# Coordination Sequence:
#
# PCOD9371498 Si02
#       6
#    16  16  16  16  16  16
#     4  10  22  41  64  96 126 164 225 263 325 394
#     4  11  24  42  64 100 134 170 220 278 330 396
#     4  11  24  42  67  96 131 175 219 269 336 397
#     4  10  23  39  67  94 126 169 219 269 316 406
#     4  10  23  38  68  92 129 170 212 266 332 385
#     4  10  22  42  70  90 128 177 219 264 332 407
#
# _framework density 21.395724999999999
#
# number of rings (size 3 to 8) (size 9 to 14) (size 15 to 20)
#    0.000    1.667    0.000    4.000   14.000    0.000 
#    0.000    0.000    0.000    0.000    0.000    0.000 
#    0.000    0.000    0.000    0.000    0.000    0.000 
#
# Total GULP energy -133682.234603 kJ/mol
# GULP energy per Si atom -5570.093108 kJ/mol
# Density = 2.134703 g / cm^3
# Si number density = 21.395725 Si / 1000 Ang^3
#
#
#
# Elastic Constant Matrix: (Units=GPa)
#
#
# Indices 1 2 3 4 5 6 
#
# 1 76.7850 4.7235 8.1827 0.0000 0.0000 0.0000
# 2 4.7235 86.4328 -2.8183 0.0000 0.0000 0.0000
# 3 8.1827 -2.8183 48.8817 0.0000 0.0000 0.0000
# 4 0.0000 0.0000 0.0000 23.4357 0.0000 0.0000
# 5 0.0000 0.0000 0.0000 0.0000 28.3591 0.0000
# 6 0.0000 0.0000 0.0000 0.0000 0.0000 21.4962
#
#
#
# Elastic Compliance Matrix: (Units=1/GPa)
#
#
# Indices 1 2 3 4 5 6 
#
# 1 0.013315 -0.000802 -0.002275 0.000000 0.000000 0.000000
# 2 -0.000802 0.011640 0.000805 0.000000 0.000000 0.000000
# 3 -0.002275 0.000805 0.020885 0.000000 0.000000 0.000000
# 4 0.000000 0.000000 0.000000 0.042670 0.000000 0.000000
# 5 0.000000 0.000000 0.000000 0.000000 0.035262 0.000000
# 6 0.000000 0.000000 0.000000 0.000000 0.000000 0.046520
#
#
# Mechanical properties :
#
#
# Convention : Reuss Voigt Hill
#
# Bulk Modulus (GPa) = 24.21517 25.80836 25.01177
# Shear Modulus (GPa) = 26.51106 28.12563 27.31835
#
# Velocity S-wave (km/s) = 3.52388 3.62960 3.57713
# Velocity P-wave (km/s) = 5.28198 5.44554 5.36438
#
# Compressibility (1/GPa) = 0.04129642
#
# Stress axis : x y z
#
# Youngs Moduli (GPa) = 75.10237 85.91239 47.88157
#
# Poissons Ratio (x) = 0.06889 0.10894
# Poissons Ratio (y) = 0.06022 -0.03856
# Poissons Ratio (z) = 0.17087 -0.06919
#
# Static dielectric constant tensor:
#      x y z
#    x 1.839280 0.000000 0.000000 
#    y 0.000000 1.890640 0.000000 
#    z 0.000000 0.000000 1.778070 
# 
# From -- ./inp_files/4203.got.cif
#   From: 2010.05.17/outbox.cif.g08.bks.cpg/sg43_3_cif.got.tgz:4203.got - 2010.06.03 19:21:55.
