data_PCOD9371007
_publ_section_title
;
Structure prediction by ZEFSAII (Michael W. Deem and Ramdas Pophale) SiO2 
 PCOD9371007
Probable space group: F D D 2
;
_chemical_formula_sum "Si O2"
_cell_formula_units_Z 112
_cell_length_a 13.643329
_cell_length_b 14.709746
_cell_length_c 23.965115
_cell_angle_alpha 90.000000
_cell_angle_beta 90.000000
_cell_angle_gamma 90.000000
_cell_volume 4809.556633
_symmetry_space_group_name_H-M "F D D 2"
_symmetry_group_IT_number 43
_symmetry_cell_setting 'orthorhombic'
loop_
_space_group_symop_operation_xyz
x,y,z
-x,-y,z
1/4-x,1/4+y,1/4+z
1/4+x,1/4-y,1/4+z
x,1/2+y,1/2+z
-x,1/2-y,1/2+z
1/4-x,3/4+y,3/4+z
1/4+x,3/4-y,3/4+z
1/2+x,y,1/2+z
1/2-x,-y,1/2+z
3/4-x,1/4+y,3/4+z
3/4+x,1/4-y,3/4+z
1/2+x,1/2+y,z
1/2-x,1/2-y,z
3/4-x,3/4+y,1/4+z
3/4+x,3/4-y,1/4+z
loop_
_atom_site_type_symbol
_atom_site_label
_atom_site_fract_x
_atom_site_fract_y
_atom_site_fract_z
Si Si1 0.384337 0.493230 0.494070
Si Si2 0.348387 0.187032 0.504900
Si Si3 0.247957 0.147065 0.966344
Si Si4 0.055986 0.253406 0.390249
Si Si5 0.365252 0.731436 0.774223
Si Si6 0.126552 0.795601 0.124776
Si Si7 0.874969 0.407237 0.114318
O O1 0.500000 0.500000 0.481568
O O2 0.333153 0.590918 0.499219
O O3 0.332894 0.458215 0.437387
O O4 0.380349 0.433068 0.549650
O O5 0.250000 0.250000 0.507664
O O6 0.401493 0.209759 0.447376
O O7 0.412767 0.207799 0.560740
O O8 0.333498 0.078307 0.509697
O O9 0.250000 0.250000 0.985685
O O10 0.276895 0.148113 0.900585
O O11 0.149354 0.093159 0.979956
O O12 0.095960 0.301960 0.334784
O O13 0.090831 0.150243 0.378524
O O14 0.939746 0.237247 0.391438
O O15 0.250000 0.750000 0.775440
O O16 0.173195 0.692643 0.122786
#
# Coordination Sequence:
#
# PCOD9371007 Si02
#       7
#    16  16  16  16  16  16  16
#     4  11  22  43  70 107 145 194 251 319 382 455
#     4  11  24  41  74 105 145 196 253 314 375 455
#     4  11  26  48  73 105 154 202 256 321 386 465
#     4  11  22  42  69 106 148 196 251 313 377 463
#     4  11  26  51  71 105 156 203 253 312 384 467
#     4  10  21  35  64 106 140 180 241 309 372 429
#     4  11  22  40  72 105 149 194 250 324 373 458
#
# _framework density 23.286968999999999
#
# number of rings (size 3 to 8) (size 9 to 14) (size 15 to 20)
#    0.000    1.143    1.429    6.000    6.000    0.000 
#    2.571    2.143    0.000    0.000    0.000    0.000 
#    0.000    0.000    0.000    0.000    0.000    0.000 
#
# Total GULP energy -155967.729459 kJ/mol
# GULP energy per Si atom -5570.276052 kJ/mol
# Density = 2.323397 g / cm^3
# Si number density = 23.286969 Si / 1000 Ang^3
#
#
#
# Elastic Constant Matrix: (Units=GPa)
#
#
# Indices 1 2 3 4 5 6 
#
# 1 65.0008 -1.1005 49.3262 0.0000 0.0000 0.0000
# 2 -1.1005 100.1343 50.7411 0.0000 0.0000 0.0000
# 3 49.3262 50.7411 231.3054 0.0000 0.0000 0.0000
# 4 0.0000 0.0000 0.0000 36.9618 0.0000 0.0000
# 5 0.0000 0.0000 0.0000 0.0000 18.9393 0.0000
# 6 0.0000 0.0000 0.0000 0.0000 0.0000 18.6628
#
#
#
# Elastic Compliance Matrix: (Units=1/GPa)
#
#
# Indices 1 2 3 4 5 6 
#
# 1 0.018909 0.002533 -0.004588 0.000000 0.000000 0.000000
# 2 0.002533 0.011575 -0.003079 0.000000 0.000000 0.000000
# 3 -0.004588 -0.003079 0.005977 0.000000 0.000000 0.000000
# 4 0.000000 0.000000 0.000000 0.027055 0.000000 0.000000
# 5 0.000000 0.000000 0.000000 0.000000 0.052800 0.000000
# 6 0.000000 0.000000 0.000000 0.000000 0.000000 0.053583
#
#
# Mechanical properties :
#
#
# Convention : Reuss Voigt Hill
#
# Bulk Modulus (GPa) = 38.17989 66.04155 52.11072
# Shear Modulus (GPa) = 26.46930 34.74436 30.60683
#
# Velocity S-wave (km/s) = 3.37509 3.86684 3.62931
# Velocity P-wave (km/s) = 5.62311 6.95400 6.32366
#
# Compressibility (1/GPa) = 0.02619180
#
# Stress axis : x y z
#
# Youngs Moduli (GPa) = 52.88522 86.39487 167.30365
#
# Poissons Ratio (x) = -0.21881 0.76758
# Poissons Ratio (y) = -0.13394 0.51517
# Poissons Ratio (z) = 0.24263 0.26603
#
# Static dielectric constant tensor:
#      x y z
#    x 2.045540 0.000000 0.000000 
#    y 0.000000 1.911480 0.000000 
#    z 0.000000 0.000000 1.889980 
# 
# From -- ./inp_files/21726.got.cif
#   From: 2010.05.17/outbox.cif.g08.bks.cpg/sg43_11_cif.got.tgz:21726.got - 2010.06.03 19:21:55.
