data_PCOD9371694
_publ_section_title
;
Structure prediction by ZEFSAII (Michael W. Deem and Ramdas Pophale) SiO2 
 PCOD9371694
Probable space group: F D D 2
;
_chemical_formula_sum "Si O2"
_cell_formula_units_Z 88
_cell_length_a 17.794697
_cell_length_b 14.822517
_cell_length_c 11.785954
_cell_angle_alpha 90.000000
_cell_angle_beta 90.000000
_cell_angle_gamma 90.000000
_cell_volume 3108.689142
_symmetry_space_group_name_H-M "F D D 2"
_symmetry_group_IT_number 43
_symmetry_cell_setting 'orthorhombic'
loop_
_space_group_symop_operation_xyz
x,y,z
-x,-y,z
1/4-x,1/4+y,1/4+z
1/4+x,1/4-y,1/4+z
x,1/2+y,1/2+z
-x,1/2-y,1/2+z
1/4-x,3/4+y,3/4+z
1/4+x,3/4-y,3/4+z
1/2+x,y,1/2+z
1/2-x,-y,1/2+z
3/4-x,1/4+y,3/4+z
3/4+x,1/4-y,3/4+z
1/2+x,1/2+y,z
1/2-x,1/2-y,z
3/4-x,3/4+y,1/4+z
3/4+x,3/4-y,1/4+z
loop_
_atom_site_type_symbol
_atom_site_label
_atom_site_fract_x
_atom_site_fract_y
_atom_site_fract_z
Si Si1 0.750000 0.750000 0.617681
Si Si2 0.965656 0.603398 0.407114
Si Si3 0.106442 0.236965 0.882484
Si Si4 0.781757 0.891681 0.800264
Si Si5 0.944650 0.699541 0.647132
Si Si6 0.432877 0.935045 0.667633
O O1 0.753451 0.837650 0.692056
O O2 0.822430 0.741237 0.535931
O O3 0.935827 0.634876 0.535296
O O4 0.890038 0.650950 0.349885
O O5 0.000000 0.500000 0.391860
O O6 0.035241 0.669601 0.383605
O O7 0.182391 0.180576 0.883008
O O8 0.096333 0.296746 0.993879
O O9 0.104505 0.288782 0.761000
O O10 0.719211 0.952357 0.855154
O O11 0.022572 0.656081 0.696200
O O12 0.500000 0.000000 0.617166
#
# Coordination Sequence:
#
# PCOD9371694 Si02
#       6
#     8  16  16  16  16  16
#     4  10  22  46  68 104 138 196 246 312 368 462
#     4  11  25  44  72 105 146 194 247 314 382 455
#     4  11  25  46  68 105 147 191 245 308 384 462
#     4  11  25  43  69 105 142 189 246 309 382 455
#     4  11  24  43  67 103 140 193 245 310 374 453
#     4  10  22  44  72 100 141 194 251 303 375 451
#
# _framework density 28.307751
#
# number of rings (size 3 to 8) (size 9 to 14) (size 15 to 20)
#    0.545    0.727    1.818    2.727    2.545    7.273 
#    3.273    0.000    0.000    0.000    0.000    0.000 
#    0.000    0.000    0.000    0.000    0.000    0.000 
#
# Total GULP energy -122629.453624 kJ/mol
# GULP energy per Si atom -5574.066074 kJ/mol
# Density = 2.824332 g / cm^3
# Si number density = 28.307751 Si / 1000 Ang^3
#
#
#
# Elastic Constant Matrix: (Units=GPa)
#
#
# Indices 1 2 3 4 5 6 
#
# 1 150.3842 82.3675 6.3732 0.0000 0.0000 0.0000
# 2 82.3675 133.8924 9.6932 0.0000 0.0000 0.0000
# 3 6.3732 9.6932 93.5961 0.0000 0.0000 0.0000
# 4 0.0000 0.0000 0.0000 10.6010 0.0000 0.0000
# 5 0.0000 0.0000 0.0000 0.0000 1.9574 0.0000
# 6 0.0000 0.0000 0.0000 0.0000 0.0000 56.7820
#
#
#
# Elastic Compliance Matrix: (Units=1/GPa)
#
#
# Indices 1 2 3 4 5 6 
#
# 1 0.010029 -0.006166 -0.000044 0.000000 0.000000 0.000000
# 2 -0.006166 0.011317 -0.000752 0.000000 0.000000 0.000000
# 3 -0.000044 -0.000752 0.010765 0.000000 0.000000 0.000000
# 4 0.000000 0.000000 0.000000 0.094330 0.000000 0.000000
# 5 0.000000 0.000000 0.000000 0.000000 0.510874 0.000000
# 6 0.000000 0.000000 0.000000 0.000000 0.000000 0.017611
#
#
# Mechanical properties :
#
#
# Convention : Reuss Voigt Hill
#
# Bulk Modulus (GPa) = 54.99013 63.86005 59.42509
# Shear Modulus (GPa) = 7.40836 32.49736 19.95286
#
# Velocity S-wave (km/s) = 1.61949 3.39189 2.65779
# Velocity P-wave (km/s) = 4.79218 6.16020 5.51875
#
# Compressibility (1/GPa) = 0.01818508
#
# Stress axis : x y z
#
# Youngs Moduli (GPa) = 99.71178 88.36634 92.89269
#
# Poissons Ratio (x) = 0.54490 0.00411
# Poissons Ratio (y) = 0.61486 0.06987
# Poissons Ratio (z) = 0.00441 0.06646
#
# Static dielectric constant tensor:
#      x y z
#    x 2.710650 0.000000 0.000000 
#    y 0.000000 2.258500 0.000000 
#    z 0.000000 0.000000 2.462880 
# 
# From -- ./inp_files/10879.got.cif
#   From: 2010.05.17/outbox.cif.g08.bks.cpg/sg43_6_cif.got.tgz:10879.got - 2010.06.03 19:21:55.
