data_PCOD9371516
_publ_section_title
;
Structure prediction by ZEFSAII (Michael W. Deem and Ramdas Pophale) SiO2 
 PCOD9371516
Probable space group: F D D 2
;
_chemical_formula_sum "Si O2"
_cell_formula_units_Z 112
_cell_length_a 5.241507
_cell_length_b 29.628468
_cell_length_c 30.515264
_cell_angle_alpha 90.000000
_cell_angle_beta 90.000000
_cell_angle_gamma 90.000000
_cell_volume 4738.954050
_symmetry_space_group_name_H-M "F D D 2"
_symmetry_group_IT_number 43
_symmetry_cell_setting 'orthorhombic'
loop_
_space_group_symop_operation_xyz
x,y,z
-x,-y,z
1/4-x,1/4+y,1/4+z
1/4+x,1/4-y,1/4+z
x,1/2+y,1/2+z
-x,1/2-y,1/2+z
1/4-x,3/4+y,3/4+z
1/4+x,3/4-y,3/4+z
1/2+x,y,1/2+z
1/2-x,-y,1/2+z
3/4-x,1/4+y,3/4+z
3/4+x,1/4-y,3/4+z
1/2+x,1/2+y,z
1/2-x,1/2-y,z
3/4-x,3/4+y,1/4+z
3/4+x,3/4-y,1/4+z
loop_
_atom_site_type_symbol
_atom_site_label
_atom_site_fract_x
_atom_site_fract_y
_atom_site_fract_z
Si Si1 0.214801 0.198092 0.424810
Si Si2 0.782618 0.608233 0.305669
Si Si3 0.412903 0.813796 0.264570
Si Si4 0.957518 0.377268 0.392588
Si Si5 0.139639 0.797135 0.351497
Si Si6 0.265259 0.592441 0.255691
Si Si7 0.753026 0.472510 0.423671
O O1 0.250000 0.250000 0.436435
O O2 0.418538 0.157145 0.428053
O O3 0.008290 0.183779 0.460488
O O4 0.135204 0.199636 0.373665
O O5 0.520178 0.590493 0.285329
O O6 0.851164 0.659375 0.288001
O O7 0.824391 0.607400 0.357810
O O8 0.021457 0.581170 0.285256
O O9 0.217384 0.796161 0.301072
O O10 0.262675 0.855191 0.242517
O O11 0.495136 0.780429 0.226805
O O12 0.772454 0.343207 0.366887
O O13 0.805345 0.421008 0.408512
O O14 0.250000 0.750000 0.370562
O O15 0.500000 0.500000 0.409718
O O16 0.000000 0.500000 0.409306
#
# Coordination Sequence:
#
# PCOD9371516 Si02
#       7
#    16  16  16  16  16  16  16
#     4  12  25  40  71 107 144 188 238 293 369 445
#     4   9  22  42  72  99 129 196 225 284 370 409
#     4   9  22  43  70  98 145 177 230 294 357 425
#     4  11  25  47  72  98 150 181 239 311 356 432
#     4  11  22  43  68 108 140 184 234 295 374 439
#     4  10  22  41  68 101 138 186 229 279 360 421
#     4  12  29  46  71 108 140 196 249 297 363 432
#
# _framework density 23.633906
#
# number of rings (size 3 to 8) (size 9 to 14) (size 15 to 20)
#    0.857    0.571    1.429    3.000    8.000    0.000 
#    5.143    2.143    0.000    0.000    0.000    0.000 
#    0.000    0.000    0.000    0.000    0.000    0.000 
#
# Total GULP energy -156091.288029 kJ/mol
# GULP energy per Si atom -5574.688858 kJ/mol
# Density = 2.358011 g / cm^3
# Si number density = 23.633906 Si / 1000 Ang^3
#
#
#
# Elastic Constant Matrix: (Units=GPa)
#
#
# Indices 1 2 3 4 5 6 
#
# 1 118.2143 43.6599 17.0375 0.0000 0.0000 0.0000
# 2 43.6599 151.4067 39.1101 0.0000 0.0000 0.0000
# 3 17.0375 39.1101 64.3983 0.0000 0.0000 0.0000
# 4 0.0000 0.0000 0.0000 28.3688 0.0000 0.0000
# 5 0.0000 0.0000 0.0000 0.0000 -8.1897 0.0000
# 6 0.0000 0.0000 0.0000 0.0000 0.0000 27.4465
#
#
#
# Elastic Compliance Matrix: (Units=1/GPa)
#
#
# Indices 1 2 3 4 5 6 
#
# 1 0.009523 -0.002485 -0.001010 0.000000 0.000000 0.000000
# 2 -0.002485 0.008482 -0.004494 0.000000 0.000000 0.000000
# 3 -0.001010 -0.004494 0.018525 0.000000 0.000000 0.000000
# 4 0.000000 0.000000 0.000000 0.035250 0.000000 0.000000
# 5 0.000000 0.000000 0.000000 0.000000 -0.122105 0.000000
# 6 0.000000 0.000000 0.000000 0.000000 0.000000 0.036435
#
#
# Mechanical properties :
#
#
# Convention : Reuss Voigt Hill
#
# Bulk Modulus (GPa) = 48.65841 59.29270 53.97556
# Shear Modulus (GPa) = 559.43466 25.13923 292.28695
#
# Velocity S-wave (km/s) = 15.40203 3.26497 11.13289
# Velocity P-wave (km/s) = 18.35564 6.27342 13.71651
#
# Compressibility (1/GPa) = 0.02055143
#
# Stress axis : x y z
#
# Youngs Moduli (GPa) = 105.01346 117.89482 53.98164
#
# Poissons Ratio (x) = 0.29297 0.05453
# Poissons Ratio (y) = 0.26096 0.24259
# Poissons Ratio (z) = 0.10608 0.52981
#
# Static dielectric constant tensor:
#      x y z
#    x 1.997680 0.000000 0.000000 
#    y 0.000000 1.999790 0.000000 
#    z 0.000000 0.000000 1.944510 
# 
# From -- ./inp_files/27418.got.cif
#   From: 2010.05.17/outbox.cif.g08.bks.cpg/sg43_14_cif.got.tgz:27418.got - 2010.06.03 19:21:55.
