data_PCOD9371196
_publ_section_title
;
Structure prediction by ZEFSAII (Michael W. Deem and Ramdas Pophale) SiO2 
 PCOD9371196
Probable space group: F D D 2
;
_chemical_formula_sum "Si O2"
_cell_formula_units_Z 112
_cell_length_a 13.971018
_cell_length_b 22.634938
_cell_length_c 14.454948
_cell_angle_alpha 90.000000
_cell_angle_beta 90.000000
_cell_angle_gamma 90.000000
_cell_volume 4571.133395
_symmetry_space_group_name_H-M "F D D 2"
_symmetry_group_IT_number 43
_symmetry_cell_setting 'orthorhombic'
loop_
_space_group_symop_operation_xyz
x,y,z
-x,-y,z
1/4-x,1/4+y,1/4+z
1/4+x,1/4-y,1/4+z
x,1/2+y,1/2+z
-x,1/2-y,1/2+z
1/4-x,3/4+y,3/4+z
1/4+x,3/4-y,3/4+z
1/2+x,y,1/2+z
1/2-x,-y,1/2+z
3/4-x,1/4+y,3/4+z
3/4+x,1/4-y,3/4+z
1/2+x,1/2+y,z
1/2-x,1/2-y,z
3/4-x,3/4+y,1/4+z
3/4+x,3/4-y,1/4+z
loop_
_atom_site_type_symbol
_atom_site_label
_atom_site_fract_x
_atom_site_fract_y
_atom_site_fract_z
Si Si1 0.508315 0.430345 0.587650
Si Si2 0.663221 0.630264 0.535052
Si Si3 0.671040 0.795791 0.227333
Si Si4 0.936249 0.291280 0.823575
Si Si5 0.401201 0.912627 0.282244
Si Si6 0.797635 0.513597 0.779653
Si Si7 0.021529 0.869417 0.087140
O O1 0.500000 0.500000 0.582921
O O2 0.437769 0.400991 0.511957
O O3 0.610057 0.401269 0.564239
O O4 0.465551 0.412381 0.689662
O O5 0.717187 0.578319 0.587652
O O6 0.627166 0.692501 0.575300
O O7 0.725461 0.637353 0.443847
O O8 0.750000 0.750000 0.266030
O O9 0.573489 0.759636 0.246111
O O10 0.700853 0.811376 0.123668
O O11 0.678610 0.855535 0.285969
O O12 0.918749 0.260653 0.922456
O O13 0.861242 0.343072 0.799459
O O14 0.306492 0.954921 0.278833
O O15 0.788422 0.449344 0.822595
#
# Coordination Sequence:
#
# PCOD9371196 Si02
#       7
#    16  16  16  16  16  16  16
#     4  11  26  45  73 101 140 184 240 294 354 434
#     4  10  22  43  63  95 136 175 231 286 348 423
#     4  10  23  41  64  98 139 176 230 287 355 421
#     4  10  21  41  64  94 136 175 226 290 344 423
#     4  11  24  45  67  99 139 184 232 290 354 424
#     4  10  22  40  65  95 132 176 233 280 351 421
#     4  10  23  39  64 100 129 180 229 285 352 422
#
# _framework density 24.501583
#
# number of rings (size 3 to 8) (size 9 to 14) (size 15 to 20)
#    0.000    1.714    1.429    1.286    4.000    5.143 
#    2.571    0.000    0.000    0.000    0.000    0.000 
#    0.000    0.000    0.000    0.000    0.000    0.000 
#
# Total GULP energy -156164.372115 kJ/mol
# GULP energy per Si atom -5577.299004 kJ/mol
# Density = 2.444582 g / cm^3
# Si number density = 24.501583 Si / 1000 Ang^3
#
#
#
# Elastic Constant Matrix: (Units=GPa)
#
#
# Indices 1 2 3 4 5 6 
#
# 1 32.1302 20.7474 -7.4126 0.0000 0.0000 0.0000
# 2 20.7474 137.6887 -3.9586 0.0000 0.0000 0.0000
# 3 -7.4126 -3.9586 55.7456 0.0000 0.0000 0.0000
# 4 0.0000 0.0000 0.0000 25.4845 0.0000 0.0000
# 5 0.0000 0.0000 0.0000 0.0000 30.8422 0.0000
# 6 0.0000 0.0000 0.0000 0.0000 0.0000 13.9920
#
#
#
# Elastic Compliance Matrix: (Units=1/GPa)
#
#
# Indices 1 2 3 4 5 6 
#
# 1 0.035500 -0.005224 0.004350 0.000000 0.000000 0.000000
# 2 -0.005224 0.008046 -0.000123 0.000000 0.000000 0.000000
# 3 0.004350 -0.000123 0.018508 0.000000 0.000000 0.000000
# 4 0.000000 0.000000 0.000000 0.039240 0.000000 0.000000
# 5 0.000000 0.000000 0.000000 0.000000 0.032423 0.000000
# 6 0.000000 0.000000 0.000000 0.000000 0.000000 0.071469
#
#
# Mechanical properties :
#
#
# Convention : Reuss Voigt Hill
#
# Bulk Modulus (GPa) = 16.65028 27.14632 21.89830
# Shear Modulus (GPa) = 22.00679 28.47628 25.24153
#
# Velocity S-wave (km/s) = 3.00021 3.41284 3.21315
# Velocity P-wave (km/s) = 4.33729 5.16076 4.76684
#
# Compressibility (1/GPa) = 0.06005903
#
# Stress axis : x y z
#
# Youngs Moduli (GPa) = 28.16875 124.27880 54.02992
#
# Poissons Ratio (x) = 0.64926 -0.23501
# Poissons Ratio (y) = 0.14716 0.00666
# Poissons Ratio (z) = -0.12252 0.01532
#
# Static dielectric constant tensor:
#      x y z
#    x 2.077600 0.000000 0.000000 
#    y 0.000000 1.973280 0.000000 
#    z 0.000000 0.000000 2.002860 
# 
# From -- ./inp_files/10188.got.cif
#   From: 2010.05.17/outbox.cif.g08.bks.cpg/sg43_6_cif.got.tgz:10188.got - 2010.06.03 19:21:55.
