data_PCOD9371004
_publ_section_title
;
Structure prediction by ZEFSAII (Michael W. Deem and Ramdas Pophale) SiO2 
 PCOD9371004
Probable space group: F D D 2
;
_chemical_formula_sum "Si O2"
_cell_formula_units_Z 120
_cell_length_a 18.250892
_cell_length_b 26.829604
_cell_length_c 13.331169
_cell_angle_alpha 90.000000
_cell_angle_beta 90.000000
_cell_angle_gamma 90.000000
_cell_volume 6527.796270
_symmetry_space_group_name_H-M "F D D 2"
_symmetry_group_IT_number 43
_symmetry_cell_setting 'orthorhombic'
loop_
_space_group_symop_operation_xyz
x,y,z
-x,-y,z
1/4-x,1/4+y,1/4+z
1/4+x,1/4-y,1/4+z
x,1/2+y,1/2+z
-x,1/2-y,1/2+z
1/4-x,3/4+y,3/4+z
1/4+x,3/4-y,3/4+z
1/2+x,y,1/2+z
1/2-x,-y,1/2+z
3/4-x,1/4+y,3/4+z
3/4+x,1/4-y,3/4+z
1/2+x,1/2+y,z
1/2-x,1/2-y,z
3/4-x,3/4+y,1/4+z
3/4+x,3/4-y,1/4+z
loop_
_atom_site_type_symbol
_atom_site_label
_atom_site_fract_x
_atom_site_fract_y
_atom_site_fract_z
Si Si1 0.454849 0.944251 0.125000
Si Si2 0.951003 0.236272 0.678050
Si Si3 0.114479 0.222793 0.587984
Si Si4 0.602560 0.225336 0.467585
Si Si5 0.464708 0.786210 0.885099
Si Si6 0.250000 0.750000 0.189467
Si Si7 0.667994 0.125287 0.404554
Si Si8 0.322351 0.380646 0.664220
O O1 0.505433 0.903599 0.179718
O O2 0.378970 0.916502 0.106521
O O3 0.424739 0.994563 0.178783
O O4 0.496968 0.955609 0.021708
O O5 0.910527 0.261186 0.583266
O O6 0.942443 0.270901 0.774291
O O7 0.919891 0.180539 0.697092
O O8 0.037100 0.229449 0.646190
O O9 0.094985 0.222766 0.471404
O O10 0.177794 0.259843 0.624426
O O11 0.155610 0.172310 0.620682
O O12 0.532805 0.249578 0.412406
O O13 0.610719 0.166989 0.441975
O O14 0.494533 0.842758 0.896477
O O15 0.662402 0.117046 0.284021
#
# Coordination Sequence:
#
# PCOD9371004 Si02
#       8
#    16  16  16  16  16   8  16  16
#     4  11  18  30  53  93 119 141 193 259 303 335
#     4  11  22  40  60  84 130 166 195 253 314 373
#     4  11  21  37  59  94 119 157 200 246 313 360
#     4  10  21  35  57  91 120 155 205 255 302 357
#     4  10  22  38  59  85 127 162 196 250 305 373
#     4  12  22  32  60  90 124 150 190 260 294 358
#     4  12  19  33  62  89 118 156 201 255 311 358
#     4  11  18  35  59  91 115 148 197 255 307 344
#
# _framework density 18.382926999999999
#
# number of rings (size 3 to 8) (size 9 to 14) (size 15 to 20)
#    0.000    1.067    8.000    2.400    0.000    0.000 
#    0.000    1.333    5.867    0.000    0.000    0.000 
#    0.000    0.000    0.000    0.000    0.000    0.000 
#
# Total GULP energy -167025.628542 kJ/mol
# GULP energy per Si atom -5567.520951 kJ/mol
# Density = 1.834109 g / cm^3
# Si number density = 18.382927 Si / 1000 Ang^3
#
#
#
# Elastic Constant Matrix: (Units=GPa)
#
#
# Indices 1 2 3 4 5 6 
#
# 1 64.7935 13.0104 42.4585 0.0000 0.0000 0.0000
# 2 13.0104 70.1717 41.2267 0.0000 0.0000 0.0000
# 3 42.4585 41.2267 122.3337 0.0000 0.0000 0.0000
# 4 0.0000 0.0000 0.0000 22.4685 0.0000 0.0000
# 5 0.0000 0.0000 0.0000 0.0000 30.1193 0.0000
# 6 0.0000 0.0000 0.0000 0.0000 0.0000 26.0119
#
#
#
# Elastic Compliance Matrix: (Units=1/GPa)
#
#
# Indices 1 2 3 4 5 6 
#
# 1 0.019989 0.000461 -0.007093 0.000000 0.000000 0.000000
# 2 0.000461 0.017779 -0.006152 0.000000 0.000000 0.000000
# 3 -0.007093 -0.006152 0.012709 0.000000 0.000000 0.000000
# 4 0.000000 0.000000 0.000000 0.044507 0.000000 0.000000
# 5 0.000000 0.000000 0.000000 0.000000 0.033201 0.000000
# 6 0.000000 0.000000 0.000000 0.000000 0.000000 0.038444
#
#
# Mechanical properties :
#
#
# Convention : Reuss Voigt Hill
#
# Bulk Modulus (GPa) = 40.14373 50.07669 45.11021
# Shear Modulus (GPa) = 24.93757 26.42682 25.68219
#
# Velocity S-wave (km/s) = 3.68715 3.79565 3.74179
# Velocity P-wave (km/s) = 6.32548 6.81977 6.57727
#
# Compressibility (1/GPa) = 0.02491049
#
# Stress axis : x y z
#
# Youngs Moduli (GPa) = 50.02741 56.24456 78.68247
#
# Poissons Ratio (x) = -0.02594 0.55810
# Poissons Ratio (y) = -0.02307 0.48404
# Poissons Ratio (z) = 0.35485 0.34600
#
# Static dielectric constant tensor:
#      x y z
#    x 1.682170 0.000000 0.000000 
#    y 0.000000 1.808110 0.000000 
#    z 0.000000 0.000000 1.614890 
# 
# From -- ./inp_files/6890.got.cif
#   From: 2010.05.17/outbox.cif.g08.bks.cpg/sg43_4_cif.got.tgz:6890.got - 2010.06.03 19:21:55.
