data_PCOD9371856
_publ_section_title
;
Structure prediction by ZEFSAII (Michael W. Deem and Ramdas Pophale) SiO2 
 PCOD9371856
Probable space group: F D D 2
;
_chemical_formula_sum "Si O2"
_cell_formula_units_Z 80
_cell_length_a 8.693466
_cell_length_b 19.571279
_cell_length_c 19.804657
_cell_angle_alpha 90.000000
_cell_angle_beta 90.000000
_cell_angle_gamma 90.000000
_cell_volume 3369.608874
_symmetry_space_group_name_H-M "F D D 2"
_symmetry_group_IT_number 43
_symmetry_cell_setting 'orthorhombic'
loop_
_space_group_symop_operation_xyz
x,y,z
-x,-y,z
1/4-x,1/4+y,1/4+z
1/4+x,1/4-y,1/4+z
x,1/2+y,1/2+z
-x,1/2-y,1/2+z
1/4-x,3/4+y,3/4+z
1/4+x,3/4-y,3/4+z
1/2+x,y,1/2+z
1/2-x,-y,1/2+z
3/4-x,1/4+y,3/4+z
3/4+x,1/4-y,3/4+z
1/2+x,1/2+y,z
1/2-x,1/2-y,z
3/4-x,3/4+y,1/4+z
3/4+x,3/4-y,1/4+z
loop_
_atom_site_type_symbol
_atom_site_label
_atom_site_fract_x
_atom_site_fract_y
_atom_site_fract_z
Si Si1 0.500000 0.000000 0.983211
Si Si2 0.584761 0.655704 0.630462
Si Si3 0.964088 0.131697 0.998130
Si Si4 0.493752 0.709727 0.333813
Si Si5 0.750000 0.250000 0.024086
Si Si6 0.264856 0.377807 0.098256
O O1 0.375987 0.043800 0.941563
O O2 0.605743 0.046605 0.029693
O O3 0.674279 0.584725 0.644756
O O4 0.670367 0.693587 0.570045
O O5 0.411783 0.645319 0.606160
O O6 0.888122 0.079377 0.051806
O O7 0.881572 0.205089 0.990475
O O8 0.132653 0.143555 0.033024
O O9 0.932529 0.102157 0.922914
O O10 0.516157 0.789371 0.346445
#
# Coordination Sequence:
#
# PCOD9371856 Si02
#       6
#     8  16  16  16   8  16
#     4  11  22  44  76 104 144 203 240 316 374 459
#     4  10  23  42  72  99 143 186 243 290 383 448
#     4  11  28  44  74 103 150 192 255 309 382 456
#     4  11  24  46  70 102 144 197 240 308 379 451
#     4   9  24  48  64 100 136 195 230 310 364 453
#     4  12  25  48  71 111 144 196 248 320 379 459
#
# _framework density 23.741627000000001
#
# number of rings (size 3 to 8) (size 9 to 14) (size 15 to 20)
#    0.000    1.200    2.000    1.800   11.200    2.400 
#    3.600    0.000    0.000    0.000    0.000    0.000 
#    0.000    0.000    0.000    0.000    0.000    0.000 
#
# Total GULP energy -111481.591152 kJ/mol
# GULP energy per Si atom -5574.079558 kJ/mol
# Density = 2.368759 g / cm^3
# Si number density = 23.741627 Si / 1000 Ang^3
#
#
#
# Elastic Constant Matrix: (Units=GPa)
#
#
# Indices 1 2 3 4 5 6 
#
# 1 96.3428 41.0568 11.6253 0.0000 0.0000 0.0000
# 2 41.0568 95.3167 7.3362 0.0000 0.0000 0.0000
# 3 11.6253 7.3362 63.7438 0.0000 0.0000 0.0000
# 4 0.0000 0.0000 0.0000 4.6322 0.0000 0.0000
# 5 0.0000 0.0000 0.0000 0.0000 18.5733 0.0000
# 6 0.0000 0.0000 0.0000 0.0000 0.0000 30.0589
#
#
#
# Elastic Compliance Matrix: (Units=1/GPa)
#
#
# Indices 1 2 3 4 5 6 
#
# 1 0.012899 -0.005423 -0.001728 0.000000 0.000000 0.000000
# 2 -0.005423 0.012865 -0.000492 0.000000 0.000000 0.000000
# 3 -0.001728 -0.000492 0.016060 0.000000 0.000000 0.000000
# 4 0.000000 0.000000 0.000000 0.215881 0.000000 0.000000
# 5 0.000000 0.000000 0.000000 0.000000 0.053841 0.000000
# 6 0.000000 0.000000 0.000000 0.000000 0.000000 0.033268
#
#
# Mechanical properties :
#
#
# Convention : Reuss Voigt Hill
#
# Bulk Modulus (GPa) = 37.68220 41.71554 39.69887
# Shear Modulus (GPa) = 13.55213 23.67854 18.61534
#
# Velocity S-wave (km/s) = 2.39177 3.16150 2.80318
# Velocity P-wave (km/s) = 4.85115 5.56197 5.21868
#
# Compressibility (1/GPa) = 0.02653773
#
# Stress axis : x y z
#
# Youngs Moduli (GPa) = 77.52365 77.72919 62.26816
#
# Poissons Ratio (x) = 0.42154 0.10762
# Poissons Ratio (y) = 0.42043 0.03061
# Poissons Ratio (z) = 0.13399 0.03821
#
# Static dielectric constant tensor:
#      x y z
#    x 3.135930 0.000000 0.000000 
#    y 0.000000 1.990860 0.000000 
#    z 0.000000 0.000000 1.974170 
# 
# From -- ./inp_files/20169.got.cif
#   From: 2010.05.17/outbox.cif.g08.bks.cpg/sg43_11_cif.got.tgz:20169.got - 2010.06.03 19:21:55.
