data_PCOD9371582
_publ_section_title
;
Structure prediction by ZEFSAII (Michael W. Deem and Ramdas Pophale) SiO2 
 PCOD9371582
Probable space group: F D D 2
;
_chemical_formula_sum "Si O2"
_cell_formula_units_Z 88
_cell_length_a 12.272058
_cell_length_b 24.164844
_cell_length_c 12.461950
_cell_angle_alpha 90.000000
_cell_angle_beta 90.000000
_cell_angle_gamma 90.000000
_cell_volume 3695.620772
_symmetry_space_group_name_H-M "F D D 2"
_symmetry_group_IT_number 43
_symmetry_cell_setting 'orthorhombic'
loop_
_space_group_symop_operation_xyz
x,y,z
-x,-y,z
1/4-x,1/4+y,1/4+z
1/4+x,1/4-y,1/4+z
x,1/2+y,1/2+z
-x,1/2-y,1/2+z
1/4-x,3/4+y,3/4+z
1/4+x,3/4-y,3/4+z
1/2+x,y,1/2+z
1/2-x,-y,1/2+z
3/4-x,1/4+y,3/4+z
3/4+x,1/4-y,3/4+z
1/2+x,1/2+y,z
1/2-x,1/2-y,z
3/4-x,3/4+y,1/4+z
3/4+x,3/4-y,1/4+z
loop_
_atom_site_type_symbol
_atom_site_label
_atom_site_fract_x
_atom_site_fract_y
_atom_site_fract_z
Si Si1 0.997028 0.349805 0.066000
Si Si2 0.370977 0.754356 0.551105
Si Si3 0.591084 0.567003 0.156699
Si Si4 0.013471 0.435031 0.887341
Si Si5 0.301626 0.117640 0.213839
Si Si6 0.750000 0.750000 0.274057
O O1 0.055843 0.296612 0.014636
O O2 0.091755 0.371695 0.145078
O O3 0.890618 0.330065 0.128324
O O4 0.966218 0.396268 0.980081
O O5 0.250000 0.750000 0.499742
O O6 0.431878 0.811014 0.527032
O O7 0.345541 0.751818 0.677457
O O8 0.542844 0.577296 0.272434
O O9 0.696758 0.604708 0.142085
O O10 0.595769 0.503409 0.126547
O O11 0.522902 0.581178 0.045032
O O12 0.000000 0.500000 0.909581
#
# Coordination Sequence:
#
# PCOD9371582 Si02
#       6
#    16  16  16  16  16   8
#     4  12  26  46  75 108 148 195 252 310 380 463
#     4  10  22  42  69 104 140 184 246 307 369 444
#     4  12  23  46  71 106 146 197 250 311 377 461
#     4  12  28  48  70 108 155 197 248 316 394 453
#     4  12  24  45  76 105 144 198 253 307 377 455
#     4  10  22  42  74  98 144 188 246 308 368 452
#
# _framework density 23.811966999999999
#
# number of rings (size 3 to 8) (size 9 to 14) (size 15 to 20)
#    0.545    0.000    2.727    6.545    0.000    2.182 
#    0.000    1.818    0.000    0.000    0.000    0.000 
#    0.000    0.000    0.000    0.000    0.000    0.000 
#
# Total GULP energy -122672.155083 kJ/mol
# GULP energy per Si atom -5576.007049 kJ/mol
# Density = 2.375777 g / cm^3
# Si number density = 23.811967 Si / 1000 Ang^3
#
#
#
# Elastic Constant Matrix: (Units=GPa)
#
#
# Indices 1 2 3 4 5 6 
#
# 1 70.9250 25.9084 12.2577 0.0000 0.0000 0.0000
# 2 25.9084 130.5983 57.9531 0.0000 0.0000 0.0000
# 3 12.2577 57.9531 104.8688 0.0000 0.0000 0.0000
# 4 0.0000 0.0000 0.0000 46.5804 0.0000 0.0000
# 5 0.0000 0.0000 0.0000 0.0000 26.1072 0.0000
# 6 0.0000 0.0000 0.0000 0.0000 0.0000 40.1777
#
#
#
# Elastic Compliance Matrix: (Units=1/GPa)
#
#
# Indices 1 2 3 4 5 6 
#
# 1 0.015203 -0.002951 -0.000146 0.000000 0.000000 0.000000
# 2 -0.002951 0.010718 -0.005578 0.000000 0.000000 0.000000
# 3 -0.000146 -0.005578 0.012635 0.000000 0.000000 0.000000
# 4 0.000000 0.000000 0.000000 0.021468 0.000000 0.000000
# 5 0.000000 0.000000 0.000000 0.000000 0.038304 0.000000
# 6 0.000000 0.000000 0.000000 0.000000 0.000000 0.024889
#
#
# Mechanical properties :
#
#
# Convention : Reuss Voigt Hill
#
# Bulk Modulus (GPa) = 47.15785 55.40340 51.28063
# Shear Modulus (GPa) = 33.86711 36.59124 35.22918
#
# Velocity S-wave (km/s) = 3.77539 3.92430 3.85057
# Velocity P-wave (km/s) = 6.23314 6.62201 6.43052
#
# Compressibility (1/GPa) = 0.02120538
#
# Stress axis : x y z
#
# Youngs Moduli (GPa) = 65.77792 93.30328 79.14327
#
# Poissons Ratio (x) = 0.27535 0.01156
# Poissons Ratio (y) = 0.19412 0.44146
# Poissons Ratio (z) = 0.00961 0.52044
#
# Static dielectric constant tensor:
#      x y z
#    x 2.098500 0.000000 0.000000 
#    y 0.000000 2.775130 0.000000 
#    z 0.000000 0.000000 1.909810 
# 
# From -- ./inp_files/9690.got.cif
#   From: 2010.05.17/outbox.cif.g08.bks.cpg/sg43_5_cif.got.tgz:9690.got - 2010.06.03 19:21:55.
