data_PCOD9371768
_publ_section_title
;
Structure prediction by ZEFSAII (Michael W. Deem and Ramdas Pophale) SiO2 
 PCOD9371768
Probable space group: F D D 2
;
_chemical_formula_sum "Si O2"
_cell_formula_units_Z 88
_cell_length_a 16.748395
_cell_length_b 29.689030
_cell_length_c 6.912782
_cell_angle_alpha 90.000000
_cell_angle_beta 90.000000
_cell_angle_gamma 90.000000
_cell_volume 3437.336619
_symmetry_space_group_name_H-M "F D D 2"
_symmetry_group_IT_number 43
_symmetry_cell_setting 'orthorhombic'
loop_
_space_group_symop_operation_xyz
x,y,z
-x,-y,z
1/4-x,1/4+y,1/4+z
1/4+x,1/4-y,1/4+z
x,1/2+y,1/2+z
-x,1/2-y,1/2+z
1/4-x,3/4+y,3/4+z
1/4+x,3/4-y,3/4+z
1/2+x,y,1/2+z
1/2-x,-y,1/2+z
3/4-x,1/4+y,3/4+z
3/4+x,1/4-y,3/4+z
1/2+x,1/2+y,z
1/2-x,1/2-y,z
3/4-x,3/4+y,1/4+z
3/4+x,3/4-y,1/4+z
loop_
_atom_site_type_symbol
_atom_site_label
_atom_site_fract_x
_atom_site_fract_y
_atom_site_fract_z
Si Si1 0.302234 0.641721 0.726350
Si Si2 0.000000 0.000000 0.670278
Si Si3 0.057694 0.724400 0.082073
Si Si4 0.280864 0.309201 0.574050
Si Si5 0.536585 0.358608 0.587840
Si Si6 0.413194 0.290499 0.031010
O O1 0.383229 0.665263 0.658507
O O2 0.252146 0.630158 0.532310
O O3 0.328494 0.593641 0.821557
O O4 0.262781 0.672715 0.886294
O O5 0.018606 0.038604 0.506836
O O6 0.924815 0.017654 0.795089
O O7 0.148345 0.724705 0.004172
O O8 0.075640 0.712567 0.301626
O O9 0.017979 0.679667 0.995444
O O10 0.991869 0.763335 0.096998
O O11 0.311610 0.354767 0.679564
#
# Coordination Sequence:
#
# PCOD9371768 Si02
#       6
#    16   8  16  16  16  16
#     4  11  26  44  71 106 142 188 249 291 379 436
#     4  10  22  46  76 106 154 190 244 310 376 436
#     4  10  24  43  67 101 142 183 243 291 369 425
#     4  11  25  47  70 104 144 195 240 307 371 440
#     4  11  23  45  65 106 139 184 241 299 354 447
#     4  10  23  45  70 104 143 193 237 306 366 444
#
# _framework density 25.601217999999999
#
# number of rings (size 3 to 8) (size 9 to 14) (size 15 to 20)
#    0.000    1.455    5.455    0.000    7.636    5.818 
#    0.000    0.909    0.000    0.000    0.000    0.000 
#    0.000    0.000    0.000    0.000    0.000    0.000 
#
# Total GULP energy -122741.566291 kJ/mol
# GULP energy per Si atom -5579.162104 kJ/mol
# Density = 2.554295 g / cm^3
# Si number density = 25.601218 Si / 1000 Ang^3
#
#
#
# Elastic Constant Matrix: (Units=GPa)
#
#
# Indices 1 2 3 4 5 6 
#
# 1 105.9778 25.2785 31.9581 -0.0002 -0.0016 0.0000
# 2 25.2785 94.7685 12.8846 0.0000 -0.0001 0.0000
# 3 31.9581 12.8846 88.9682 -0.0002 -0.0031 -0.0002
# 4 -0.0002 0.0000 -0.0002 40.7744 0.0001 0.0000
# 5 -0.0016 -0.0001 -0.0031 0.0001 -13.0874 0.0001
# 6 0.0000 0.0000 -0.0002 0.0000 0.0001 28.5324
#
#
#
# Elastic Compliance Matrix: (Units=1/GPa)
#
#
# Indices 1 2 3 4 5 6 
#
# 1 0.011122 -0.002472 -0.003637 0.000000 0.000000 0.000000
# 2 -0.002472 0.011314 -0.000750 0.000000 0.000000 0.000000
# 3 -0.003637 -0.000750 0.012655 0.000000 -0.000003 0.000000
# 4 0.000000 0.000000 0.000000 0.024525 0.000000 0.000000
# 5 0.000000 0.000000 -0.000003 0.000000 -0.076409 0.000000
# 6 0.000000 0.000000 0.000000 0.000000 0.000000 0.035048
#
#
# Mechanical properties :
#
#
# Convention : Reuss Voigt Hill
#
# Bulk Modulus (GPa) = 46.79168 47.77300 47.28234
# Shear Modulus (GPa) = 127.88189 25.88342 76.88266
#
# Velocity S-wave (km/s) = 7.07530 3.18311 5.48599
# Velocity P-wave (km/s) = 9.22298 5.67543 7.65748
#
# Compressibility (1/GPa) = 0.02137132
#
# Stress axis : x y z
#
# Youngs Moduli (GPa) = 89.90804 88.38993 79.01902
#
# Poissons Ratio (x) = 0.21853 0.28741
# Poissons Ratio (y) = 0.22228 0.05930
# Poissons Ratio (z) = 0.32702 0.06633
#
# Static dielectric constant tensor:
#      x y z
#    x 2.322300 0.000000 0.000000 
#    y 0.000000 2.110310 0.000000 
#    z 0.000000 0.000000 2.012050 
# 
# From -- ./inp_files/2917.got.cif
#   From: 2010.05.17/outbox.cif.g08.bks.cpg/sg43_2_cif.got.tgz:2917.got - 2010.06.03 19:21:55.
