data_PCOD9371676
_publ_section_title
;
Structure prediction by ZEFSAII (Michael W. Deem and Ramdas Pophale) SiO2 
 PCOD9371676
Probable space group: F D D 2
;
_chemical_formula_sum "Si O2"
_cell_formula_units_Z 72
_cell_length_a 9.407370
_cell_length_b 18.896359
_cell_length_c 16.465150
_cell_angle_alpha 90.000000
_cell_angle_beta 90.000000
_cell_angle_gamma 90.000000
_cell_volume 2926.928061
_symmetry_space_group_name_H-M "F D D 2"
_symmetry_group_IT_number 43
_symmetry_cell_setting 'orthorhombic'
loop_
_space_group_symop_operation_xyz
x,y,z
-x,-y,z
1/4-x,1/4+y,1/4+z
1/4+x,1/4-y,1/4+z
x,1/2+y,1/2+z
-x,1/2-y,1/2+z
1/4-x,3/4+y,3/4+z
1/4+x,3/4-y,3/4+z
1/2+x,y,1/2+z
1/2-x,-y,1/2+z
3/4-x,1/4+y,3/4+z
3/4+x,1/4-y,3/4+z
1/2+x,1/2+y,z
1/2-x,1/2-y,z
3/4-x,3/4+y,1/4+z
3/4+x,3/4-y,1/4+z
loop_
_atom_site_type_symbol
_atom_site_label
_atom_site_fract_x
_atom_site_fract_y
_atom_site_fract_z
Si Si1 0.990057 0.876671 0.358200
Si Si2 0.278115 0.548646 0.946515
Si Si3 0.728481 0.890337 0.978422
Si Si4 0.750000 0.750000 0.487581
Si Si5 0.751178 0.588942 0.160813
O O1 0.968481 0.814640 0.293432
O O2 0.099705 0.857752 0.428240
O O3 0.850522 0.910283 0.400534
O O4 0.047847 0.937821 0.297877
O O5 0.263997 0.465463 0.935698
O O6 0.420198 0.586066 0.917137
O O7 0.867468 0.841559 0.972419
O O8 0.690540 0.911716 0.069789
O O9 0.619998 0.782219 0.435567
#
# Coordination Sequence:
#
# PCOD9371676 Si02
#       5
#    16  16  16   8  16
#     4  11  23  44  72  99 140 185 236 283 361 418
#     4  11  24  44  71  98 142 190 229 287 351 434
#     4  12  25  45  67 108 140 178 236 302 339 414
#     4  10  22  44  68  96 136 196 228 274 360 440
#     4  11  26  41  71 101 137 179 239 284 354 410
#
# _framework density 24.599169
#
# number of rings (size 3 to 8) (size 9 to 14) (size 15 to 20)
#    0.000    0.889    2.222    4.667    9.333    0.000 
#    0.000    0.000    0.000    0.000    0.000    0.000 
#    0.000    0.000    0.000    0.000    0.000    0.000 
#
# Total GULP energy -100738.104486 kJ/mol
# GULP energy per Si atom -5596.561360 kJ/mol
# Density = 2.454318 g / cm^3
# Si number density = 24.599169 Si / 1000 Ang^3
#
#
#
# Elastic Constant Matrix: (Units=GPa)
#
#
# Indices 1 2 3 4 5 6 
#
# 1 90.2785 4.6106 30.3503 0.0000 0.0000 0.0000
# 2 4.6106 47.8266 1.7125 0.0000 0.0000 0.0000
# 3 30.3503 1.7125 133.1926 0.0000 0.0000 0.0000
# 4 0.0000 0.0000 0.0000 29.2956 0.0000 0.0000
# 5 0.0000 0.0000 0.0000 0.0000 47.2829 0.0000
# 6 0.0000 0.0000 0.0000 0.0000 0.0000 17.7498
#
#
#
# Elastic Compliance Matrix: (Units=1/GPa)
#
#
# Indices 1 2 3 4 5 6 
#
# 1 0.012050 -0.001064 -0.002732 0.000000 0.000000 0.000000
# 2 -0.001064 0.021012 -0.000028 0.000000 0.000000 0.000000
# 3 -0.002732 -0.000028 0.008131 0.000000 0.000000 0.000000
# 4 0.000000 0.000000 0.000000 0.034135 0.000000 0.000000
# 5 0.000000 0.000000 0.000000 0.000000 0.021149 0.000000
# 6 0.000000 0.000000 0.000000 0.000000 0.000000 0.056339
#
#
# Mechanical properties :
#
#
# Convention : Reuss Voigt Hill
#
# Bulk Modulus (GPa) = 29.81010 38.29385 34.05197
# Shear Modulus (GPa) = 29.12992 34.50727 31.81859
#
# Velocity S-wave (km/s) = 3.44493 3.74944 3.60040
# Velocity P-wave (km/s) = 5.28848 5.86049 5.58181
#
# Compressibility (1/GPa) = 0.03354568
#
# Stress axis : x y z
#
# Youngs Moduli (GPa) = 82.99007 47.59093 122.98873
#
# Poissons Ratio (x) = 0.05063 0.33601
# Poissons Ratio (y) = 0.08828 0.00341
# Poissons Ratio (z) = 0.22673 0.00132
#
# Static dielectric constant tensor:
#      x y z
#    x 1.950370 0.000000 0.000000 
#    y 0.000000 2.000250 0.000000 
#    z 0.000000 0.000000 1.939680 
# 
# From -- ./inp_files/12548.got.cif
#   From: 2010.05.17/outbox.cif.g08.bks.cpg/sg43_7_cif.got.tgz:12548.got - 2010.06.03 19:21:55.
