data_PCOD9371068
_publ_section_title
;
Structure prediction by ZEFSAII (Michael W. Deem and Ramdas Pophale) SiO2 
 PCOD9371068
Probable space group: F D D 2
;
_chemical_formula_sum "Si O2"
_cell_formula_units_Z 96
_cell_length_a 18.662051
_cell_length_b 16.479873
_cell_length_c 13.140812
_cell_angle_alpha 90.000000
_cell_angle_beta 90.000000
_cell_angle_gamma 90.000000
_cell_volume 4041.433477
_symmetry_space_group_name_H-M "F D D 2"
_symmetry_group_IT_number 43
_symmetry_cell_setting 'orthorhombic'
loop_
_space_group_symop_operation_xyz
x,y,z
-x,-y,z
1/4-x,1/4+y,1/4+z
1/4+x,1/4-y,1/4+z
x,1/2+y,1/2+z
-x,1/2-y,1/2+z
1/4-x,3/4+y,3/4+z
1/4+x,3/4-y,3/4+z
1/2+x,y,1/2+z
1/2-x,-y,1/2+z
3/4-x,1/4+y,3/4+z
3/4+x,1/4-y,3/4+z
1/2+x,1/2+y,z
1/2-x,1/2-y,z
3/4-x,3/4+y,1/4+z
3/4+x,3/4-y,1/4+z
loop_
_atom_site_type_symbol
_atom_site_label
_atom_site_fract_x
_atom_site_fract_y
_atom_site_fract_z
Si Si1 0.563771 0.628068 0.982920
Si Si2 0.282968 0.663415 0.946720
Si Si3 0.127364 0.646031 0.084789
Si Si4 0.246639 0.845568 0.218424
Si Si5 0.418601 0.669635 0.065240
Si Si6 0.626605 0.553651 0.781979
O O1 0.584443 0.578308 0.882878
O O2 0.569484 0.572955 0.084056
O O3 0.481301 0.660103 0.979383
O O4 0.609959 0.709653 0.005737
O O5 0.346925 0.630664 0.017045
O O6 0.211704 0.636840 0.112549
O O7 0.392330 0.760119 0.088440
O O8 0.094563 0.596566 0.180831
O O9 0.085150 0.617326 0.985658
O O10 0.217205 0.608127 0.910156
O O11 0.250000 0.750000 0.237389
O O12 0.295854 0.900671 0.291867
O O13 0.500000 0.500000 0.225708
#
# Coordination Sequence:
#
# PCOD9371068 Si02
#       6
#    16  16  16  16  16  16
#     4  10  23  45  74 108 151 205 252 324 379 474
#     4  10  25  45  71 107 148 193 257 312 386 461
#     4  10  22  42  69 101 145 186 251 305 378 451
#     4  10  21  38  64 100 136 187 240 307 369 451
#     4  10  23  48  68 106 144 200 249 316 381 462
#     4  10  22  42  73 105 152 195 258 311 392 450
#
# _framework density 23.753948000000001
#
# number of rings (size 3 to 8) (size 9 to 14) (size 15 to 20)
#    2.000    0.000    1.667    1.000    2.333    3.333 
#    3.000    2.500    0.000    0.000    0.000    0.000 
#    0.000    0.000    0.000    0.000    0.000    0.000 
#
# Total GULP energy -133645.633604 kJ/mol
# GULP energy per Si atom -5568.568067 kJ/mol
# Density = 2.369988 g / cm^3
# Si number density = 23.753948 Si / 1000 Ang^3
#
#
#
# Elastic Constant Matrix: (Units=GPa)
#
#
# Indices 1 2 3 4 5 6 
#
# 1 171.9542 35.0588 75.9116 0.0000 0.0000 0.0000
# 2 35.0588 58.4435 12.9858 0.0000 0.0000 0.0000
# 3 75.9116 12.9858 123.8890 0.0000 0.0000 0.0000
# 4 0.0000 0.0000 0.0000 30.7046 0.0000 0.0000
# 5 0.0000 0.0000 0.0000 0.0000 -20.0808 0.0000
# 6 0.0000 0.0000 0.0000 0.0000 0.0000 21.1544
#
#
#
# Elastic Compliance Matrix: (Units=1/GPa)
#
#
# Indices 1 2 3 4 5 6 
#
# 1 0.008883 -0.004218 -0.005001 0.000000 0.000000 0.000000
# 2 -0.004218 0.019521 0.000538 0.000000 0.000000 0.000000
# 3 -0.005001 0.000538 0.011080 0.000000 0.000000 0.000000
# 4 0.000000 0.000000 0.000000 0.032568 0.000000 0.000000
# 5 0.000000 0.000000 0.000000 0.000000 -0.049799 0.000000
# 6 0.000000 0.000000 0.000000 0.000000 0.000000 0.047272
#
#
# Mechanical properties :
#
#
# Convention : Reuss Voigt Hill
#
# Bulk Modulus (GPa) = 45.20199 66.91102 56.05651
# Shear Modulus (GPa) = 53.04466 21.71099 37.37783
#
# Velocity S-wave (km/s) = 4.73068 3.02652 3.97109
# Velocity P-wave (km/s) = 6.99355 6.35945 6.68402
#
# Compressibility (1/GPa) = 0.02212292
#
# Stress axis : x y z
#
# Youngs Moduli (GPa) = 112.57248 51.22685 90.25569
#
# Poissons Ratio (x) = 0.21605 0.45137
# Poissons Ratio (y) = 0.47479 -0.04857
# Poissons Ratio (z) = 0.56297 -0.02757
#
# Static dielectric constant tensor:
#      x y z
#    x 2.126560 0.000000 0.000000 
#    y 0.000000 1.861820 0.000000 
#    z 0.000000 0.000000 2.072200 
# 
# From -- ./inp_files/7526.got.cif
#   From: 2010.05.17/outbox.cif.g08.bks.cpg/sg43_4_cif.got.tgz:7526.got - 2010.06.03 19:21:55.
