data_PCOD9371124
_publ_section_title
;
Structure prediction by ZEFSAII (Michael W. Deem and Ramdas Pophale) SiO2 
 PCOD9371124
Probable space group: F D D 2
;
_chemical_formula_sum "Si O2"
_cell_formula_units_Z 120
_cell_length_a 32.032280
_cell_length_b 22.297447
_cell_length_c 8.584002
_cell_angle_alpha 90.000000
_cell_angle_beta 90.000000
_cell_angle_gamma 90.000000
_cell_volume 6131.020983
_symmetry_space_group_name_H-M "F D D 2"
_symmetry_group_IT_number 43
_symmetry_cell_setting 'orthorhombic'
loop_
_space_group_symop_operation_xyz
x,y,z
-x,-y,z
1/4-x,1/4+y,1/4+z
1/4+x,1/4-y,1/4+z
x,1/2+y,1/2+z
-x,1/2-y,1/2+z
1/4-x,3/4+y,3/4+z
1/4+x,3/4-y,3/4+z
1/2+x,y,1/2+z
1/2-x,-y,1/2+z
3/4-x,1/4+y,3/4+z
3/4+x,1/4-y,3/4+z
1/2+x,1/2+y,z
1/2-x,1/2-y,z
3/4-x,3/4+y,1/4+z
3/4+x,3/4-y,1/4+z
loop_
_atom_site_type_symbol
_atom_site_label
_atom_site_fract_x
_atom_site_fract_y
_atom_site_fract_z
Si Si1 0.291551 0.386744 0.518080
Si Si2 0.907532 0.271248 0.819851
Si Si3 0.549322 0.111684 0.905272
Si Si4 0.003532 0.618167 0.225577
Si Si5 0.068263 0.996774 0.205823
Si Si6 0.443077 0.202519 0.059842
Si Si7 0.500000 0.500000 0.934462
Si Si8 0.514139 0.292844 0.976548
O O1 0.244073 0.383561 0.579140
O O2 0.308909 0.319960 0.516552
O O3 0.316000 0.430587 0.635228
O O4 0.286771 0.413281 0.346918
O O5 0.915218 0.342178 0.845411
O O6 0.866097 0.250807 0.905436
O O7 0.908405 0.241556 0.647910
O O8 0.949033 0.242818 0.894030
O O9 0.557961 0.046236 0.835637
O O10 0.538150 0.112499 0.089434
O O11 0.997217 0.557452 0.321943
O O12 0.012824 0.669055 0.353884
O O13 0.960200 0.642957 0.148711
O O14 0.039009 0.006184 0.053516
O O15 0.483366 0.246095 0.056592
#
# Coordination Sequence:
#
# PCOD9371124 Si02
#       8
#    16  16  16  16  16  16   8  16
#     4  11  20  40  71  92 125 180 226 264 345 410
#     4  11  25  41  64 100 132 172 223 286 334 393
#     4  11  22  43  68  95 125 175 230 278 334 412
#     4  10  22  36  69  94 122 167 229 267 320 409
#     4  12  26  43  65  93 140 183 218 277 349 405
#     4  10  21  39  68  97 126 169 226 282 324 401
#     4  12  24  42  64  90 130 184 216 264 342 408
#     4  11  18  41  66  98 126 165 220 280 333 397
#
# _framework density 19.572595
#
# number of rings (size 3 to 8) (size 9 to 14) (size 15 to 20)
#    0.000    1.067    6.667    0.800    5.600    0.000 
#    2.400    0.000    0.000    0.000    0.000    0.000 
#    0.000    0.000    0.000    0.000    0.000    0.000 
#
# Total GULP energy -167397.483669 kJ/mol
# GULP energy per Si atom -5579.916122 kJ/mol
# Density = 1.952805 g / cm^3
# Si number density = 19.572595 Si / 1000 Ang^3
#
#
#
# Elastic Constant Matrix: (Units=GPa)
#
#
# Indices 1 2 3 4 5 6 
#
# 1 52.1686 19.6984 19.4040 -0.0001 -0.0001 0.0000
# 2 19.6984 134.6048 65.6553 0.0007 0.0000 0.0000
# 3 19.4040 65.6553 115.8751 0.0015 0.0001 0.0000
# 4 -0.0001 0.0007 0.0015 49.8177 0.0001 0.0000
# 5 -0.0001 0.0000 0.0001 0.0001 11.1900 0.0000
# 6 0.0000 0.0000 0.0000 0.0000 0.0000 18.6787
#
#
#
# Elastic Compliance Matrix: (Units=1/GPa)
#
#
# Indices 1 2 3 4 5 6 
#
# 1 0.020772 -0.001856 -0.002427 0.000000 0.000000 0.000000
# 2 -0.001856 0.010432 -0.005600 0.000000 0.000000 0.000000
# 3 -0.002427 -0.005600 0.012209 0.000000 0.000000 0.000000
# 4 0.000000 0.000000 0.000000 0.020073 0.000000 0.000000
# 5 0.000000 0.000000 0.000000 0.000000 0.089366 0.000000
# 6 0.000000 0.000000 0.000000 0.000000 0.000000 0.053537
#
#
# Mechanical properties :
#
#
# Convention : Reuss Voigt Hill
#
# Bulk Modulus (GPa) = 42.28733 56.90711 49.59722
# Shear Modulus (GPa) = 21.36401 29.13000 25.24701
#
# Velocity S-wave (km/s) = 3.30741 3.86204 3.59544
# Velocity P-wave (km/s) = 6.01976 7.00180 6.52927
#
# Compressibility (1/GPa) = 0.02364774
#
# Stress axis : x y z
#
# Youngs Moduli (GPa) = 48.14153 95.85562 81.90384
#
# Poissons Ratio (x) = 0.17793 0.19876
# Poissons Ratio (y) = 0.08936 0.45868
# Poissons Ratio (z) = 0.11683 0.53681
#
# Static dielectric constant tensor:
#      x y z
#    x 1.651910 0.000000 0.000000 
#    y 0.000000 1.712210 0.000000 
#    z 0.000000 0.000000 1.755400 
# 
# From -- ./inp_files/4824.got.cif
#   From: 2010.05.17/outbox.cif.g08.bks.cpg/sg43_3_cif.got.tgz:4824.got - 2010.06.03 19:21:55.
