data_PCOD9371379
_publ_section_title
;
Structure prediction by ZEFSAII (Michael W. Deem and Ramdas Pophale) SiO2 
 PCOD9371379
Probable space group: F D D 2
;
_chemical_formula_sum "Si O2"
_cell_formula_units_Z 104
_cell_length_a 28.299063
_cell_length_b 16.360439
_cell_length_c 8.610638
_cell_angle_alpha 90.000000
_cell_angle_beta 90.000000
_cell_angle_gamma 90.000000
_cell_volume 3986.597044
_symmetry_space_group_name_H-M "F D D 2"
_symmetry_group_IT_number 43
_symmetry_cell_setting 'orthorhombic'
loop_
_space_group_symop_operation_xyz
x,y,z
-x,-y,z
1/4-x,1/4+y,1/4+z
1/4+x,1/4-y,1/4+z
x,1/2+y,1/2+z
-x,1/2-y,1/2+z
1/4-x,3/4+y,3/4+z
1/4+x,3/4-y,3/4+z
1/2+x,y,1/2+z
1/2-x,-y,1/2+z
3/4-x,1/4+y,3/4+z
3/4+x,1/4-y,3/4+z
1/2+x,1/2+y,z
1/2-x,1/2-y,z
3/4-x,3/4+y,1/4+z
3/4+x,3/4-y,1/4+z
loop_
_atom_site_type_symbol
_atom_site_label
_atom_site_fract_x
_atom_site_fract_y
_atom_site_fract_z
Si Si1 0.829273 0.120250 0.052800
Si Si2 0.782139 0.083769 0.352908
Si Si3 0.817987 0.887544 0.716356
Si Si4 0.750000 0.250000 0.694456
Si Si5 0.346207 0.228614 0.274726
Si Si6 0.352548 0.060887 0.123033
Si Si7 0.234794 0.091326 0.399374
O O1 0.814922 0.131656 0.231996
O O2 0.873184 0.059521 0.038674
O O3 0.831740 0.202691 0.951497
O O4 0.784907 0.071412 0.978021
O O5 0.728317 0.113395 0.328152
O O6 0.804817 0.079097 0.523670
O O7 0.782831 0.987473 0.308062
O O8 0.854141 0.815367 0.753761
O O9 0.798670 0.884709 0.541027
O O10 0.843725 0.977032 0.714406
O O11 0.695417 0.256971 0.645443
O O12 0.756054 0.332170 0.793089
O O13 0.365618 0.139579 0.226096
#
# Coordination Sequence:
#
# PCOD9371379 Si02
#       7
#    16  16  16   8  16  16  16
#     4  10  23  40  66  94 128 173 227 260 340 388
#     4  10  22  42  70  93 128 181 224 265 338 405
#     4  10  22  43  64  95 134 171 219 281 323 410
#     4  10  22  38  60  90 132 158 218 272 324 376
#     4  11  23  41  61  98 131 169 218 281 324 406
#     4  11  23  43  67  97 135 173 225 266 352 387
#     4   9  20  41  63  94 129 171 213 277 322 399
#
# _framework density 26.087413000000002
#
# number of rings (size 3 to 8) (size 9 to 14) (size 15 to 20)
#    0.000    1.846    0.000    3.692    4.308    1.231 
#   11.077    0.000    0.000    0.000    0.000    0.000 
#    0.000    0.000    0.000    0.000    0.000    0.000 
#
# Total GULP energy -145219.466228 kJ/mol
# GULP energy per Si atom -5585.364086 kJ/mol
# Density = 2.602804 g / cm^3
# Si number density = 26.087413 Si / 1000 Ang^3
#
#
#
# Elastic Constant Matrix: (Units=GPa)
#
#
# Indices 1 2 3 4 5 6 
#
# 1 123.5137 47.2728 5.5071 0.0000 0.0000 0.0000
# 2 47.2728 89.1350 26.9763 0.0000 0.0000 0.0000
# 3 5.5071 26.9763 54.2217 0.0000 0.0000 0.0000
# 4 0.0000 0.0000 0.0000 24.4255 0.0000 0.0000
# 5 0.0000 0.0000 0.0000 0.0000 30.3746 0.0000
# 6 0.0000 0.0000 0.0000 0.0000 0.0000 38.6731
#
#
#
# Elastic Compliance Matrix: (Units=1/GPa)
#
#
# Indices 1 2 3 4 5 6 
#
# 1 0.010335 -0.006079 0.001975 0.000000 0.000000 0.000000
# 2 -0.006079 0.016783 -0.007732 0.000000 0.000000 0.000000
# 3 0.001975 -0.007732 0.022089 0.000000 0.000000 0.000000
# 4 0.000000 0.000000 0.000000 0.040941 0.000000 0.000000
# 5 0.000000 0.000000 0.000000 0.000000 0.032922 0.000000
# 6 0.000000 0.000000 0.000000 0.000000 0.000000 0.025858
#
#
# Mechanical properties :
#
#
# Convention : Reuss Voigt Hill
#
# Bulk Modulus (GPa) = 39.16354 47.37585 43.26969
# Shear Modulus (GPa) = 27.60723 31.16893 29.38808
#
# Velocity S-wave (km/s) = 3.25662 3.46032 3.36001
# Velocity P-wave (km/s) = 5.40239 5.84508 5.62809
#
# Compressibility (1/GPa) = 0.02553396
#
# Stress axis : x y z
#
# Youngs Moduli (GPa) = 96.76127 59.58439 45.27086
#
# Poissons Ratio (x) = 0.36219 -0.08939
# Poissons Ratio (y) = 0.58817 0.35005
# Poissons Ratio (z) = -0.19106 0.46073
#
# Static dielectric constant tensor:
#      x y z
#    x 2.218370 0.000000 0.000000 
#    y 0.000000 1.962120 0.000000 
#    z 0.000000 0.000000 2.167640 
# 
# From -- ./inp_files/7959.got.cif
#   From: 2010.05.17/outbox.cif.g08.bks.cpg/sg43_4_cif.got.tgz:7959.got - 2010.06.03 19:21:55.
