data_PCOD9371044
_publ_section_title
;
Structure prediction by ZEFSAII (Michael W. Deem and Ramdas Pophale) SiO2 
 PCOD9371044
Probable space group: F D D 2
;
_chemical_formula_sum "Si O2"
_cell_formula_units_Z 64
_cell_length_a 7.775221
_cell_length_b 18.462846
_cell_length_c 18.500627
_cell_angle_alpha 90.000000
_cell_angle_beta 90.000000
_cell_angle_gamma 90.000000
_cell_volume 2655.815104
_symmetry_space_group_name_H-M "F D D 2"
_symmetry_group_IT_number 43
_symmetry_cell_setting 'orthorhombic'
loop_
_space_group_symop_operation_xyz
x,y,z
-x,-y,z
1/4-x,1/4+y,1/4+z
1/4+x,1/4-y,1/4+z
x,1/2+y,1/2+z
-x,1/2-y,1/2+z
1/4-x,3/4+y,3/4+z
1/4+x,3/4-y,3/4+z
1/2+x,y,1/2+z
1/2-x,-y,1/2+z
3/4-x,1/4+y,3/4+z
3/4+x,1/4-y,3/4+z
1/2+x,1/2+y,z
1/2-x,1/2-y,z
3/4-x,3/4+y,1/4+z
3/4+x,3/4-y,1/4+z
loop_
_atom_site_type_symbol
_atom_site_label
_atom_site_fract_x
_atom_site_fract_y
_atom_site_fract_z
Si Si1 0.082172 0.801189 0.511640
Si Si2 0.554148 0.848650 0.525909
Si Si3 0.165521 0.053796 0.926506
Si Si4 0.886777 0.664235 0.691358
O O1 0.250000 0.750000 0.501367
O O2 0.943620 0.736239 0.507756
O O3 0.076012 0.831306 0.593870
O O4 0.032472 0.865447 0.457228
O O5 0.395010 0.888327 0.485879
O O6 0.728796 0.884726 0.499920
O O7 0.544733 0.856182 0.611758
O O8 0.326545 0.000924 0.943047
O O9 0.000000 0.000000 0.924793
#
# Coordination Sequence:
#
# PCOD9371044 Si02
#       4
#    16  16  16  16
#     4  10  21  38  60  91 128 161 204 264 319 371
#     4  10  21  40  64  89 122 167 212 256 313 380
#     4   8  18  38  61  86 123 166 205 255 317 376
#     4  10  21  38  64  92 121 164 214 259 312 377
#
# _framework density 24.098061999999999
#
# number of rings (size 3 to 8) (size 9 to 14) (size 15 to 20)
#    0.000    2.500    0.000    2.250    0.000    8.000 
#    0.000    3.750    0.000   12.000    0.000    0.000 
#    0.000    0.000    0.000    0.000    0.000    0.000 
#
# Total GULP energy -89304.609887 kJ/mol
# GULP energy per Si atom -5581.538118 kJ/mol
# Density = 2.404321 g / cm^3
# Si number density = 24.098062 Si / 1000 Ang^3
#
#
#
# Elastic Constant Matrix: (Units=GPa)
#
#
# Indices 1 2 3 4 5 6 
#
# 1 119.4045 35.1315 21.4512 0.0000 0.0000 0.0000
# 2 35.1315 131.2185 100.9044 0.0000 0.0000 0.0000
# 3 21.4512 100.9044 115.8158 0.0000 0.0000 0.0000
# 4 0.0000 0.0000 0.0000 17.5986 0.0000 0.0000
# 5 0.0000 0.0000 0.0000 0.0000 57.6739 0.0000
# 6 0.0000 0.0000 0.0000 0.0000 0.0000 38.5640
#
#
#
# Elastic Compliance Matrix: (Units=1/GPa)
#
#
# Indices 1 2 3 4 5 6 
#
# 1 0.009158 -0.003477 0.001333 0.000000 0.000000 0.000000
# 2 -0.003477 0.024412 -0.020625 0.000000 0.000000 0.000000
# 3 0.001333 -0.020625 0.026357 0.000000 0.000000 0.000000
# 4 0.000000 0.000000 0.000000 0.056823 0.000000 0.000000
# 5 0.000000 0.000000 0.000000 0.000000 0.017339 0.000000
# 6 0.000000 0.000000 0.000000 0.000000 0.000000 0.025931
#
#
# Mechanical properties :
#
#
# Convention : Reuss Voigt Hill
#
# Bulk Modulus (GPa) = 69.49495 75.71256 72.60376
# Shear Modulus (GPa) = 23.76950 36.69740 30.23345
#
# Velocity S-wave (km/s) = 3.14405 3.90659 3.54588
# Velocity P-wave (km/s) = 6.48699 7.19967 6.85260
#
# Compressibility (1/GPa) = 0.01438953
#
# Stress axis : x y z
#
# Youngs Moduli (GPa) = 109.18861 40.96369 37.94096
#
# Poissons Ratio (x) = 0.14244 -0.05058
# Poissons Ratio (y) = 0.37968 0.78252
# Poissons Ratio (z) = -0.14557 0.84487
#
# Static dielectric constant tensor:
#      x y z
#    x 2.099720 0.000000 0.000000 
#    y 0.000000 1.920310 0.000000 
#    z 0.000000 0.000000 1.844330 
# 
# From -- ./inp_files/12497.got.cif
#   From: 2010.05.17/outbox.cif.g08.bks.cpg/sg43_7_cif.got.tgz:12497.got - 2010.06.03 19:21:55.
