data_PCOD9371301
_publ_section_title
;
Structure prediction by ZEFSAII (Michael W. Deem and Ramdas Pophale) SiO2 
 PCOD9371301
Probable space group: F D D 2
;
_chemical_formula_sum "Si O2"
_cell_formula_units_Z 64
_cell_length_a 13.626351
_cell_length_b 17.369730
_cell_length_c 11.706433
_cell_angle_alpha 90.000000
_cell_angle_beta 90.000000
_cell_angle_gamma 90.000000
_cell_volume 2770.749243
_symmetry_space_group_name_H-M "F D D 2"
_symmetry_group_IT_number 43
_symmetry_cell_setting 'orthorhombic'
loop_
_space_group_symop_operation_xyz
x,y,z
-x,-y,z
1/4-x,1/4+y,1/4+z
1/4+x,1/4-y,1/4+z
x,1/2+y,1/2+z
-x,1/2-y,1/2+z
1/4-x,3/4+y,3/4+z
1/4+x,3/4-y,3/4+z
1/2+x,y,1/2+z
1/2-x,-y,1/2+z
3/4-x,1/4+y,3/4+z
3/4+x,1/4-y,3/4+z
1/2+x,1/2+y,z
1/2-x,1/2-y,z
3/4-x,3/4+y,1/4+z
3/4+x,3/4-y,1/4+z
loop_
_atom_site_type_symbol
_atom_site_label
_atom_site_fract_x
_atom_site_fract_y
_atom_site_fract_z
Si Si1 0.859360 0.365791 0.233940
Si Si2 0.250000 0.750000 0.514060
Si Si3 0.325772 0.095102 0.243980
Si Si4 0.670134 0.463715 0.264700
Si Si5 0.250000 0.750000 0.845907
O O1 0.888967 0.343291 0.362480
O O2 0.750132 0.398811 0.233217
O O3 0.880199 0.301119 0.141589
O O4 0.930809 0.437684 0.202889
O O5 0.335388 0.805386 0.566681
O O6 0.304153 0.182713 0.276376
O O7 0.229799 0.043403 0.259295
O O8 0.581731 0.462292 0.176547
#
# Coordination Sequence:
#
# PCOD9371301 Si02
#       5
#    16   8  16  16   8
#     4  11  23  50  75 111 151 206 251 315 395 470
#     4  10  21  43  72 106 142 200 251 301 378 474
#     4  11  25  48  80 107 155 208 257 317 390 471
#     4  11  28  46  79 112 155 197 258 326 387 460
#     4  12  29  51  74 118 154 200 267 331 380 460
#
# _framework density 23.098445999999999
#
# number of rings (size 3 to 8) (size 9 to 14) (size 15 to 20)
#    0.000    1.000    2.500    2.250    3.500    7.000 
#    0.000    0.000    0.000    0.000    0.000    0.000 
#    0.000    0.000    0.000    0.000    0.000    0.000 
#
# Total GULP energy -89475.690233 kJ/mol
# GULP energy per Si atom -5592.230640 kJ/mol
# Density = 2.304587 g / cm^3
# Si number density = 23.098446 Si / 1000 Ang^3
#
#
#
# Elastic Constant Matrix: (Units=GPa)
#
#
# Indices 1 2 3 4 5 6 
#
# 1 113.1499 32.5653 53.2854 0.0000 0.0000 0.0000
# 2 32.5653 116.9475 58.5570 0.0000 0.0000 0.0000
# 3 53.2854 58.5570 136.7756 0.0000 0.0000 0.0000
# 4 0.0000 0.0000 0.0000 20.2098 0.0000 0.0000
# 5 0.0000 0.0000 0.0000 0.0000 22.3680 0.0000
# 6 0.0000 0.0000 0.0000 0.0000 0.0000 54.5802
#
#
#
# Elastic Compliance Matrix: (Units=1/GPa)
#
#
# Indices 1 2 3 4 5 6 
#
# 1 0.010946 -0.001162 -0.003767 0.000000 0.000000 0.000000
# 2 -0.001162 0.011007 -0.004260 0.000000 0.000000 0.000000
# 3 -0.003767 -0.004260 0.010603 0.000000 0.000000 0.000000
# 4 0.000000 0.000000 0.000000 0.049481 0.000000 0.000000
# 5 0.000000 0.000000 0.000000 0.000000 0.044707 0.000000
# 6 0.000000 0.000000 0.000000 0.000000 0.000000 0.018322
#
#
# Mechanical properties :
#
#
# Convention : Reuss Voigt Hill
#
# Bulk Modulus (GPa) = 70.52897 72.85429 71.69163
# Shear Modulus (GPa) = 29.73192 34.26261 31.99726
#
# Velocity S-wave (km/s) = 3.59163 3.85558 3.72594
# Velocity P-wave (km/s) = 6.91376 7.17146 7.04379
#
# Compressibility (1/GPa) = 0.01417857
#
# Stress axis : x y z
#
# Youngs Moduli (GPa) = 91.35562 90.84832 94.31679
#
# Poissons Ratio (x) = 0.10556 0.35529
# Poissons Ratio (y) = 0.10615 0.40178
# Poissons Ratio (z) = 0.34414 0.38700
#
# Static dielectric constant tensor:
#      x y z
#    x 1.842450 0.000000 0.000000 
#    y 0.000000 1.894560 0.000000 
#    z 0.000000 0.000000 1.910360 
# 
# From -- ./inp_files/5490.got.cif
#   From: 2010.05.17/outbox.cif.g08.bks.cpg/sg43_3_cif.got.tgz:5490.got - 2010.06.03 19:21:55.
