data_PCOD9371790
_publ_section_title
;
Structure prediction by ZEFSAII (Michael W. Deem and Ramdas Pophale) SiO2 
 PCOD9371790
Probable space group: F D D 2
;
_chemical_formula_sum "Si O2"
_cell_formula_units_Z 96
_cell_length_a 23.833906
_cell_length_b 17.377840
_cell_length_c 10.507681
_cell_angle_alpha 90.000000
_cell_angle_beta 90.000000
_cell_angle_gamma 90.000000
_cell_volume 4352.090283
_symmetry_space_group_name_H-M "F D D 2"
_symmetry_group_IT_number 43
_symmetry_cell_setting 'orthorhombic'
loop_
_space_group_symop_operation_xyz
x,y,z
-x,-y,z
1/4-x,1/4+y,1/4+z
1/4+x,1/4-y,1/4+z
x,1/2+y,1/2+z
-x,1/2-y,1/2+z
1/4-x,3/4+y,3/4+z
1/4+x,3/4-y,3/4+z
1/2+x,y,1/2+z
1/2-x,-y,1/2+z
3/4-x,1/4+y,3/4+z
3/4+x,1/4-y,3/4+z
1/2+x,1/2+y,z
1/2-x,1/2-y,z
3/4-x,3/4+y,1/4+z
3/4+x,3/4-y,1/4+z
loop_
_atom_site_type_symbol
_atom_site_label
_atom_site_fract_x
_atom_site_fract_y
_atom_site_fract_z
Si Si1 0.165271 0.592978 0.833130
Si Si2 0.714465 0.906933 0.420172
Si Si3 0.500000 0.000000 0.795554
Si Si4 0.834387 0.738218 0.762459
Si Si5 0.108389 0.409330 0.235482
Si Si6 0.393137 0.751276 0.829761
Si Si7 0.500000 0.500000 0.713021
O O1 0.228521 0.568499 0.855487
O O2 0.144825 0.544507 0.711720
O O3 0.155301 0.684582 0.817814
O O4 0.127581 0.570867 0.953660
O O5 0.726963 0.819312 0.460914
O O6 0.661660 0.921511 0.327341
O O7 0.699030 0.950389 0.550146
O O8 0.549637 0.976931 0.893904
O O9 0.864958 0.802063 0.847924
O O10 0.789581 0.702635 0.863571
O O11 0.106667 0.317464 0.227630
O O12 0.047307 0.446048 0.279439
#
# Coordination Sequence:
#
# PCOD9371790 Si02
#       7
#    16  16   8  16  16  16   8
#     4  12  26  47  74 110 152 202 260 319 381 476
#     4  12  26  43  78 108 157 196 260 320 396 464
#     4  11  20  50  77 108 149 218 252 323 400 473
#     4   9  20  44  78 106 142 206 254 312 377 462
#     4  10  22  49  69 115 144 198 245 323 385 453
#     4  12  26  49  70 112 154 194 258 313 397 471
#     4   7  20  40  79  98 143 190 248 307 364 445
#
# _framework density 22.058367000000001
#
# number of rings (size 3 to 8) (size 9 to 14) (size 15 to 20)
#    1.000    0.333    3.333    2.000    2.333    2.667 
#    6.000    0.000    0.000    0.000    0.000    0.000 
#    0.000    0.000    0.000    0.000    0.000    0.000 
#
# Total GULP energy -133679.258783 kJ/mol
# GULP energy per Si atom -5569.969116 kJ/mol
# Density = 2.200816 g / cm^3
# Si number density = 22.058367 Si / 1000 Ang^3
#
#
#
# Elastic Constant Matrix: (Units=GPa)
#
#
# Indices 1 2 3 4 5 6 
#
# 1 155.0143 38.4534 48.1959 0.0000 0.0000 0.0000
# 2 38.4534 104.9777 41.8068 0.0000 0.0000 0.0000
# 3 48.1959 41.8068 92.9061 0.0000 0.0000 0.0000
# 4 0.0000 0.0000 0.0000 37.2139 0.0000 0.0000
# 5 0.0000 0.0000 0.0000 0.0000 33.1154 0.0000
# 6 0.0000 0.0000 0.0000 0.0000 0.0000 33.2617
#
#
#
# Elastic Compliance Matrix: (Units=1/GPa)
#
#
# Indices 1 2 3 4 5 6 
#
# 1 0.007890 -0.001535 -0.003402 0.000000 0.000000 0.000000
# 2 -0.001535 0.011904 -0.004560 0.000000 0.000000 0.000000
# 3 -0.003402 -0.004560 0.014581 0.000000 0.000000 0.000000
# 4 0.000000 0.000000 0.000000 0.026872 0.000000 0.000000
# 5 0.000000 0.000000 0.000000 0.000000 0.030197 0.000000
# 6 0.000000 0.000000 0.000000 0.000000 0.000000 0.030065
#
#
# Mechanical properties :
#
#
# Convention : Reuss Voigt Hill
#
# Bulk Modulus (GPa) = 65.02263 67.75668 66.38965
# Shear Modulus (GPa) = 34.33367 35.68101 35.00734
#
# Velocity S-wave (km/s) = 3.94952 4.02627 3.98808
# Velocity P-wave (km/s) = 7.09506 7.23866 7.16722
#
# Compressibility (1/GPa) = 0.01537926
#
# Stress axis : x y z
#
# Youngs Moduli (GPa) = 126.75001 84.00300 68.58462
#
# Poissons Ratio (x) = 0.12896 0.23332
# Poissons Ratio (y) = 0.19458 0.31278
# Poissons Ratio (z) = 0.43120 0.38309
#
# Static dielectric constant tensor:
#      x y z
#    x 1.893920 0.000000 0.000000 
#    y 0.000000 1.822980 0.000000 
#    z 0.000000 0.000000 1.867960 
# 
# From -- ./inp_files/7940.got.cif
#   From: 2010.05.17/outbox.cif.g08.bks.cpg/sg43_4_cif.got.tgz:7940.got - 2010.06.03 19:21:55.
