data_PCOD9371958
_publ_section_title
;
Structure prediction by ZEFSAII (Michael W. Deem and Ramdas Pophale) SiO2 
 PCOD9371958
Probable space group: F D D 2
;
_chemical_formula_sum "Si O2"
_cell_formula_units_Z 80
_cell_length_a 26.782816
_cell_length_b 5.066808
_cell_length_c 25.889073
_cell_angle_alpha 90.000000
_cell_angle_beta 90.000000
_cell_angle_gamma 90.000000
_cell_volume 3513.234876
_symmetry_space_group_name_H-M "F D D 2"
_symmetry_group_IT_number 43
_symmetry_cell_setting 'orthorhombic'
loop_
_space_group_symop_operation_xyz
x,y,z
-x,-y,z
1/4-x,1/4+y,1/4+z
1/4+x,1/4-y,1/4+z
x,1/2+y,1/2+z
-x,1/2-y,1/2+z
1/4-x,3/4+y,3/4+z
1/4+x,3/4-y,3/4+z
1/2+x,y,1/2+z
1/2-x,-y,1/2+z
3/4-x,1/4+y,3/4+z
3/4+x,1/4-y,3/4+z
1/2+x,1/2+y,z
1/2-x,1/2-y,z
3/4-x,3/4+y,1/4+z
3/4+x,3/4-y,1/4+z
loop_
_atom_site_type_symbol
_atom_site_label
_atom_site_fract_x
_atom_site_fract_y
_atom_site_fract_z
Si Si1 0.361058 0.823618 0.272950
Si Si2 0.307531 0.336896 0.317852
Si Si3 0.966116 0.238212 0.870962
Si Si4 0.863100 0.842181 0.423480
Si Si5 0.806157 0.685437 0.516197
O O1 0.319495 0.597537 0.284469
O O2 0.372617 0.832531 0.211845
O O3 0.411856 0.674664 0.292798
O O4 0.341292 0.093548 0.296783
O O5 0.250000 0.250000 0.316651
O O6 0.326549 0.398674 0.375936
O O7 0.915097 0.244012 0.901743
O O8 0.000000 0.500000 0.875654
O O9 0.950687 0.221742 0.810540
O O10 0.000000 0.000000 0.887864
O O11 0.836373 0.643951 0.463724
O O12 0.750000 0.750000 0.500497
#
# Coordination Sequence:
#
# PCOD9371958 Si02
#       5
#    16  16  16  16  16
#     4  10  26  43  70 101 142 180 238 297 356 430
#     4  12  25  47  70 102 142 190 236 295 363 432
#     4  11  25  43  69  98 138 182 230 291 357 427
#     4  10  23  46  69 104 136 187 239 291 351 440
#     4   9  21  45  69 100 137 182 234 292 357 422
#
# _framework density 22.771035000000001
#
# number of rings (size 3 to 8) (size 9 to 14) (size 15 to 20)
#    1.200    0.400    2.000    1.200    5.600    5.600 
#    0.000    2.000    0.000    0.000    0.000    0.000 
#    0.000    0.000    0.000    0.000    0.000    0.000 
#
# Total GULP energy -111603.181642 kJ/mol
# GULP energy per Si atom -5580.159082 kJ/mol
# Density = 2.271921 g / cm^3
# Si number density = 22.771035 Si / 1000 Ang^3
#
#
#
# Elastic Constant Matrix: (Units=GPa)
#
#
# Indices 1 2 3 4 5 6 
#
# 1 165.1141 16.2049 31.8161 0.0308 -0.0030 -0.0412
# 2 16.2049 95.9219 11.1355 0.0067 0.0031 -0.0186
# 3 31.8161 11.1355 91.9893 0.0087 -0.0008 -0.0154
# 4 0.0308 0.0067 0.0087 -8.6502 -0.0022 -0.0089
# 5 -0.0030 0.0031 -0.0008 -0.0022 34.0305 0.0070
# 6 -0.0412 -0.0186 -0.0154 -0.0089 0.0070 17.5444
#
#
#
# Elastic Compliance Matrix: (Units=1/GPa)
#
#
# Indices 1 2 3 4 5 6 
#
# 1 0.006558 -0.000857 -0.002164 0.000021 0.000001 0.000013
# 2 -0.000857 0.010686 -0.000997 0.000004 -0.000001 0.000008
# 3 -0.002164 -0.000997 0.011740 0.000003 0.000000 0.000004
# 4 0.000021 0.000004 0.000003 -0.115604 -0.000008 -0.000059
# 5 0.000001 -0.000001 0.000000 -0.000008 0.029385 -0.000012
# 6 0.000013 0.000008 0.000004 -0.000059 -0.000012 0.056998
#
#
# Mechanical properties :
#
#
# Convention : Reuss Voigt Hill
#
# Bulk Modulus (GPa) = 47.73962 52.37090 50.05526
# Shear Modulus (GPa) = 338.25775 28.17620 183.21698
#
# Velocity S-wave (km/s) = 12.20122 3.52144 8.97971
# Velocity P-wave (km/s) = 14.81566 6.29150 11.38171
#
# Compressibility (1/GPa) = 0.02094696
#
# Stress axis : x y z
#
# Youngs Moduli (GPa) = 152.49631 93.58365 85.17794
#
# Poissons Ratio (x) = 0.08016 0.18435
# Poissons Ratio (y) = 0.13062 0.08494
# Poissons Ratio (z) = 0.33006 0.09333
#
# Static dielectric constant tensor:
#      x y z
#    x 1.745690 -0.000030 0.000040 
#    y -0.000030 1.894260 -0.000010 
#    z 0.000040 -0.000010 1.879440 
# 
# From -- ./inp_files/26689.got.cif
#   From: 2010.05.17/outbox.cif.g08.bks.cpg/sg43_14_cif.got.tgz:26689.got - 2010.06.03 19:21:55.
