data_PCOD9371772
_publ_section_title
;
Structure prediction by ZEFSAII (Michael W. Deem and Ramdas Pophale) SiO2 
 PCOD9371772
Probable space group: F D D 2
;
_chemical_formula_sum "Si O2"
_cell_formula_units_Z 56
_cell_length_a 6.106052
_cell_length_b 19.257920
_cell_length_c 18.135458
_cell_angle_alpha 90.000000
_cell_angle_beta 90.000000
_cell_angle_gamma 90.000000
_cell_volume 2132.545984
_symmetry_space_group_name_H-M "F D D 2"
_symmetry_group_IT_number 43
_symmetry_cell_setting 'orthorhombic'
loop_
_space_group_symop_operation_xyz
x,y,z
-x,-y,z
1/4-x,1/4+y,1/4+z
1/4+x,1/4-y,1/4+z
x,1/2+y,1/2+z
-x,1/2-y,1/2+z
1/4-x,3/4+y,3/4+z
1/4+x,3/4-y,3/4+z
1/2+x,y,1/2+z
1/2-x,-y,1/2+z
3/4-x,1/4+y,3/4+z
3/4+x,1/4-y,3/4+z
1/2+x,1/2+y,z
1/2-x,1/2-y,z
3/4-x,3/4+y,1/4+z
3/4+x,3/4-y,1/4+z
loop_
_atom_site_type_symbol
_atom_site_label
_atom_site_fract_x
_atom_site_fract_y
_atom_site_fract_z
Si Si1 0.115479 0.653289 0.286290
Si Si2 0.250000 0.250000 0.512961
Si Si3 0.000000 0.500000 0.253953
Si Si4 0.247814 0.123567 0.627938
Si Si5 0.750000 0.750000 0.316172
O O1 0.254033 0.649948 0.210752
O O2 0.264530 0.663143 0.358649
O O3 0.010909 0.575968 0.293460
O O4 0.952270 0.717227 0.272872
O O5 0.493792 0.247915 0.475443
O O6 0.252780 0.184483 0.568310
O O7 0.432087 0.067831 0.611289
#
# Coordination Sequence:
#
# PCOD9371772 Si02
#       5
#    16   8   8  16   8
#     4  11  27  47  75 111 156 205 264 330 400 478
#     4  10  22  47  69 108 152 204 254 318 394 473
#     4  10  22  47  69 108 152 204 254 318 394 473
#     4  11  27  47  75 111 156 205 264 330 400 478
#     4  12  26  50  80 114 146 206 272 332 390 486
#
# _framework density 26.259691
#
# number of rings (size 3 to 8) (size 9 to 14) (size 15 to 20)
#    0.000    1.143    2.857    0.857    8.000   11.429 
#    0.000    0.000    0.000    0.000    0.000    0.000 
#    0.000    0.000    0.000    0.000    0.000    0.000 
#
# Total GULP energy -78126.561569 kJ/mol
# GULP energy per Si atom -5580.468684 kJ/mol
# Density = 2.619992 g / cm^3
# Si number density = 26.259691 Si / 1000 Ang^3
#
#
#
# Elastic Constant Matrix: (Units=GPa)
#
#
# Indices 1 2 3 4 5 6 
#
# 1 157.1053 66.2634 27.4900 0.0000 0.0000 0.0000
# 2 66.2634 151.2148 31.5417 0.0000 0.0000 0.0000
# 3 27.4900 31.5417 85.4812 0.0000 0.0000 0.0000
# 4 0.0000 0.0000 0.0000 35.3884 0.0000 0.0000
# 5 0.0000 0.0000 0.0000 0.0000 30.2884 0.0000
# 6 0.0000 0.0000 0.0000 0.0000 0.0000 81.0637
#
#
#
# Elastic Compliance Matrix: (Units=1/GPa)
#
#
# Indices 1 2 3 4 5 6 
#
# 1 0.007955 -0.003199 -0.001378 0.000000 0.000000 0.000000
# 2 -0.003199 0.008451 -0.002090 0.000000 0.000000 0.000000
# 3 -0.001378 -0.002090 0.012913 0.000000 0.000000 0.000000
# 4 0.000000 0.000000 0.000000 0.028258 0.000000 0.000000
# 5 0.000000 0.000000 0.000000 0.000000 0.033016 0.000000
# 6 0.000000 0.000000 0.000000 0.000000 0.000000 0.012336
#
#
# Mechanical properties :
#
#
# Convention : Reuss Voigt Hill
#
# Bulk Modulus (GPa) = 62.55431 71.59906 67.07668
# Shear Modulus (GPa) = 41.12185 47.24851 44.18518
#
# Velocity S-wave (km/s) = 3.96153 4.24639 4.10643
# Velocity P-wave (km/s) = 6.69313 7.16711 6.93417
#
# Compressibility (1/GPa) = 0.01598611
#
# Stress axis : x y z
#
# Youngs Moduli (GPa) = 125.70044 118.33425 77.44320
#
# Poissons Ratio (x) = 0.37851 0.10673
# Poissons Ratio (y) = 0.40207 0.16182
# Poissons Ratio (z) = 0.17323 0.24726
#
# Static dielectric constant tensor:
#      x y z
#    x 2.208980 0.000000 0.000000 
#    y 0.000000 2.072260 0.000000 
#    z 0.000000 0.000000 2.012940 
# 
# From -- ./inp_files/12084.got.cif
#   From: 2010.05.17/outbox.cif.g08.bks.cpg/sg43_7_cif.got.tgz:12084.got - 2010.06.03 19:21:55.
