data_PCOD9371446
_publ_section_title
;
Structure prediction by ZEFSAII (Michael W. Deem and Ramdas Pophale) SiO2 
 PCOD9371446
Probable space group: F D D 2
;
_chemical_formula_sum "Si O2"
_cell_formula_units_Z 120
_cell_length_a 27.502174
_cell_length_b 14.544858
_cell_length_c 12.602964
_cell_angle_alpha 90.000000
_cell_angle_beta 90.000000
_cell_angle_gamma 90.000000
_cell_volume 5041.377361
_symmetry_space_group_name_H-M "F D D 2"
_symmetry_group_IT_number 43
_symmetry_cell_setting 'orthorhombic'
loop_
_space_group_symop_operation_xyz
x,y,z
-x,-y,z
1/4-x,1/4+y,1/4+z
1/4+x,1/4-y,1/4+z
x,1/2+y,1/2+z
-x,1/2-y,1/2+z
1/4-x,3/4+y,3/4+z
1/4+x,3/4-y,3/4+z
1/2+x,y,1/2+z
1/2-x,-y,1/2+z
3/4-x,1/4+y,3/4+z
3/4+x,1/4-y,3/4+z
1/2+x,1/2+y,z
1/2-x,1/2-y,z
3/4-x,3/4+y,1/4+z
3/4+x,3/4-y,1/4+z
loop_
_atom_site_type_symbol
_atom_site_label
_atom_site_fract_x
_atom_site_fract_y
_atom_site_fract_z
Si Si1 0.430290 0.298357 0.645830
Si Si2 0.167787 0.763736 0.069927
Si Si3 0.450086 0.945010 0.593174
Si Si4 0.250000 0.524619 0.737890
Si Si5 0.069710 0.298356 0.829949
Si Si6 0.250000 0.250000 0.737889
Si Si7 0.799914 0.804990 0.132605
Si Si8 0.082213 0.486264 0.155851
O O1 0.384319 0.230656 0.627110
O O2 0.462261 0.291290 0.543474
O O3 0.460411 0.250001 0.737890
O O4 0.420496 0.403174 0.671767
O O5 0.170495 0.653173 0.054011
O O6 0.210925 0.790881 0.150760
O O7 0.170134 0.806214 0.952440
O O8 0.467806 0.844690 0.558086
O O9 0.500000 0.000000 0.620281
O O10 0.430314 0.000000 0.487889
O O11 0.287740 0.458710 0.682305
O O12 0.217806 0.594690 0.667693
O O13 0.115681 0.230654 0.848669
O O14 0.210925 0.209118 0.825019
O O15 0.750000 0.750000 0.105498
O O16 0.829866 0.806215 0.023338
#
# Coordination Sequence:
#
# PCOD9371446 Si02
#       8
#    16  16  16  16  16   8  16  16
#     4  11  23  41  60  92 126 166 205 268 315 377
#     4  11  23  39  64  91 128 163 215 252 323 386
#     4   9  18  37  64  89 118 166 207 257 314 380
#     4  10  22  40  64  90 128 162 214 266 322 364
#     4  11  23  41  60  92 126 166 205 268 315 377
#     4  12  22  40  62  94 116 172 202 258 306 398
#     4   9  18  37  64  89 118 166 207 257 314 380
#     4  11  23  39  64  91 128 163 215 252 323 386
#
# _framework density 23.803018999999999
#
# number of rings (size 3 to 8) (size 9 to 14) (size 15 to 20)
#    0.000    1.867    2.667    4.000    0.000    1.067 
#    0.000    1.333    0.000    0.000    0.000    0.000 
#    0.000    0.000    0.000    0.000    0.000    0.000 
#
# Total GULP energy -167357.854162 kJ/mol
# GULP energy per Si atom -5578.595139 kJ/mol
# Density = 2.374884 g / cm^3
# Si number density = 23.803019 Si / 1000 Ang^3
#
#
#
# Elastic Constant Matrix: (Units=GPa)
#
#
# Indices 1 2 3 4 5 6 
#
# 1 69.0188 -11.4979 31.5847 0.0000 0.0000 0.0000
# 2 -11.4979 65.2028 22.3394 0.0000 0.0000 0.0000
# 3 31.5847 22.3394 156.5655 0.0000 0.0000 0.0000
# 4 0.0000 0.0000 0.0000 20.0049 0.0000 0.0000
# 5 0.0000 0.0000 0.0000 0.0000 30.1491 0.0000
# 6 0.0000 0.0000 0.0000 0.0000 0.0000 9.2275
#
#
#
# Elastic Compliance Matrix: (Units=1/GPa)
#
#
# Indices 1 2 3 4 5 6 
#
# 1 0.017089 0.004410 -0.004077 0.000000 0.000000 0.000000
# 2 0.004410 0.017263 -0.003353 0.000000 0.000000 0.000000
# 3 -0.004077 -0.003353 0.007688 0.000000 0.000000 0.000000
# 4 0.000000 0.000000 0.000000 0.049988 0.000000 0.000000
# 5 0.000000 0.000000 0.000000 0.000000 0.033168 0.000000
# 6 0.000000 0.000000 0.000000 0.000000 0.000000 0.108372
#
#
# Mechanical properties :
#
#
# Convention : Reuss Voigt Hill
#
# Bulk Modulus (GPa) = 27.77660 41.73772 34.75716
# Shear Modulus (GPa) = 19.87221 28.43369 24.15295
#
# Velocity S-wave (km/s) = 2.89253 3.45996 3.18889
# Velocity P-wave (km/s) = 4.78020 5.79090 5.30965
#
# Compressibility (1/GPa) = 0.03600153
#
# Stress axis : x y z
#
# Youngs Moduli (GPa) = 58.51669 57.92665 130.07401
#
# Poissons Ratio (x) = -0.25547 0.53028
# Poissons Ratio (y) = -0.25807 0.43612
# Poissons Ratio (z) = 0.23856 0.19422
#
# Static dielectric constant tensor:
#      x y z
#    x 1.997370 0.000000 0.000000 
#    y 0.000000 1.439220 0.000000 
#    z 0.000000 0.000000 1.934110 
# 
# From -- ./inp_files/7973.got.cif
#   From: 2010.05.17/outbox.cif.g08.bks.cpg/sg43_4_cif.got.tgz:7973.got - 2010.06.03 19:21:55.
