data_PCOD9371879
_publ_section_title
;
Structure prediction by ZEFSAII (Michael W. Deem and Ramdas Pophale) SiO2 
 PCOD9371879
Probable space group: F D D 2
;
_chemical_formula_sum "Si O2"
_cell_formula_units_Z 104
_cell_length_a 9.511259
_cell_length_b 17.017283
_cell_length_c 26.422670
_cell_angle_alpha 90.000000
_cell_angle_beta 90.000000
_cell_angle_gamma 90.000000
_cell_volume 4276.662023
_symmetry_space_group_name_H-M "F D D 2"
_symmetry_group_IT_number 43
_symmetry_cell_setting 'orthorhombic'
loop_
_space_group_symop_operation_xyz
x,y,z
-x,-y,z
1/4-x,1/4+y,1/4+z
1/4+x,1/4-y,1/4+z
x,1/2+y,1/2+z
-x,1/2-y,1/2+z
1/4-x,3/4+y,3/4+z
1/4+x,3/4-y,3/4+z
1/2+x,y,1/2+z
1/2-x,-y,1/2+z
3/4-x,1/4+y,3/4+z
3/4+x,1/4-y,3/4+z
1/2+x,1/2+y,z
1/2-x,1/2-y,z
3/4-x,3/4+y,1/4+z
3/4+x,3/4-y,1/4+z
loop_
_atom_site_type_symbol
_atom_site_label
_atom_site_fract_x
_atom_site_fract_y
_atom_site_fract_z
Si Si1 0.727921 0.156035 0.798490
Si Si2 0.500000 0.000000 0.848779
Si Si3 0.653650 0.617740 0.671743
Si Si4 0.753185 0.569290 0.777044
Si Si5 0.173378 0.048959 0.567028
Si Si6 0.003532 0.125394 0.835365
Si Si7 0.841123 0.168180 0.692183
O O1 0.750000 0.250000 0.804425
O O2 0.563472 0.150159 0.805290
O O3 0.783776 0.131102 0.743675
O O4 0.836602 0.113692 0.835145
O O5 0.498613 0.929555 0.891066
O O6 0.632962 0.980851 0.810453
O O7 0.722585 0.567147 0.717100
O O8 0.621306 0.560864 0.624357
O O9 0.512096 0.663592 0.690706
O O10 0.809232 0.659215 0.782738
O O11 0.605074 0.565841 0.806278
O O12 0.216313 0.959598 0.559730
O O13 0.048822 0.128214 0.892774
O O14 0.750000 0.250000 0.688967
#
# Coordination Sequence:
#
# PCOD9371879 Si02
#       7
#    16   8  16  16  16  16  16
#     4   9  21  40  64  97 136 169 233 292 354 434
#     4  10  24  44  70 112 148 180 258 302 360 460
#     4  11  24  44  73 101 146 197 234 307 385 440
#     4  11  23  43  74 102 143 191 247 300 370 446
#     4  10  23  43  69 104 137 178 244 302 362 457
#     4  11  21  43  69  99 138 184 235 302 362 441
#     4  11  23  41  67 103 139 187 243 296 372 446
#
# _framework density 24.31803
#
# number of rings (size 3 to 8) (size 9 to 14) (size 15 to 20)
#    0.000    1.538    4.615    0.462    2.154    3.692 
#    9.692    0.000    0.000    0.000    0.000    0.000 
#    0.000    0.000    0.000    0.000    0.000    0.000 
#
# Total GULP energy -144918.697853 kJ/mol
# GULP energy per Si atom -5573.796071 kJ/mol
# Density = 2.426268 g / cm^3
# Si number density = 24.318030 Si / 1000 Ang^3
#
#
#
# Elastic Constant Matrix: (Units=GPa)
#
#
# Indices 1 2 3 4 5 6 
#
# 1 150.2615 26.6172 19.4234 0.0000 0.0000 0.0000
# 2 26.6172 75.0343 -10.7064 0.0000 0.0000 0.0000
# 3 19.4234 -10.7064 96.7706 0.0000 0.0000 0.0000
# 4 0.0000 0.0000 0.0000 23.7613 0.0000 0.0000
# 5 0.0000 0.0000 0.0000 0.0000 -103.4415 0.0000
# 6 0.0000 0.0000 0.0000 0.0000 0.0000 42.3025
#
#
#
# Elastic Compliance Matrix: (Units=1/GPa)
#
#
# Indices 1 2 3 4 5 6 
#
# 1 0.007399 -0.002882 -0.001804 0.000000 0.000000 0.000000
# 2 -0.002882 0.014664 0.002201 0.000000 0.000000 0.000000
# 3 -0.001804 0.002201 0.010939 0.000000 0.000000 0.000000
# 4 0.000000 0.000000 0.000000 0.042085 0.000000 0.000000
# 5 0.000000 0.000000 0.000000 0.000000 -0.009667 0.000000
# 6 0.000000 0.000000 0.000000 0.000000 0.000000 0.023639
#
#
# Mechanical properties :
#
#
# Convention : Reuss Voigt Hill
#
# Bulk Modulus (GPa) = 35.67424 43.63722 39.65573
# Shear Modulus (GPa) = 48.36857 11.63993 30.00425
#
# Velocity S-wave (km/s) = 4.46466 2.19019 3.51640
# Velocity P-wave (km/s) = 6.42490 4.93754 5.72968
#
# Compressibility (1/GPa) = 0.02803143
#
# Stress axis : x y z
#
# Youngs Moduli (GPa) = 135.15786 68.19609 91.41374
#
# Poissons Ratio (x) = 0.19654 0.16490
# Poissons Ratio (y) = 0.38952 -0.20118
# Poissons Ratio (z) = 0.24381 -0.15009
#
# Static dielectric constant tensor:
#      x y z
#    x 2.026460 0.000000 0.000000 
#    y 0.000000 2.170750 0.000000 
#    z 0.000000 0.000000 1.873360 
# 
# From -- ./inp_files/24299.got.cif
#   From: 2010.05.17/outbox.cif.g08.bks.cpg/sg43_13_cif.got.tgz:24299.got - 2010.06.03 19:21:55.
