data_PCOD9371867
_publ_section_title
;
Structure prediction by ZEFSAII (Michael W. Deem and Ramdas Pophale) SiO2 
 PCOD9371867
Probable space group: F D D 2
;
_chemical_formula_sum "Si O2"
_cell_formula_units_Z 80
_cell_length_a 7.557576
_cell_length_b 27.181673
_cell_length_c 15.166829
_cell_angle_alpha 90.000000
_cell_angle_beta 90.000000
_cell_angle_gamma 90.000000
_cell_volume 3115.684667
_symmetry_space_group_name_H-M "F D D 2"
_symmetry_group_IT_number 43
_symmetry_cell_setting 'orthorhombic'
loop_
_space_group_symop_operation_xyz
x,y,z
-x,-y,z
1/4-x,1/4+y,1/4+z
1/4+x,1/4-y,1/4+z
x,1/2+y,1/2+z
-x,1/2-y,1/2+z
1/4-x,3/4+y,3/4+z
1/4+x,3/4-y,3/4+z
1/2+x,y,1/2+z
1/2-x,-y,1/2+z
3/4-x,1/4+y,3/4+z
3/4+x,1/4-y,3/4+z
1/2+x,1/2+y,z
1/2-x,1/2-y,z
3/4-x,3/4+y,1/4+z
3/4+x,3/4-y,1/4+z
loop_
_atom_site_type_symbol
_atom_site_label
_atom_site_fract_x
_atom_site_fract_y
_atom_site_fract_z
Si Si1 0.859937 0.073624 0.641450
Si Si2 0.543227 0.132348 0.668276
Si Si3 0.449237 0.267737 0.057625
Si Si4 0.058226 0.227433 0.726535
Si Si5 0.006871 0.684213 0.840280
O O1 0.752944 0.121288 0.672580
O O2 0.779188 0.030044 0.704293
O O3 0.805473 0.069675 0.538440
O O4 0.072894 0.067754 0.646059
O O5 0.516912 0.180019 0.606306
O O6 0.429939 0.085572 0.638331
O O7 0.470586 0.144631 0.763858
O O8 0.250000 0.250000 0.068005
O O9 0.543520 0.227920 0.121307
O O10 0.250000 0.250000 0.744475
O O11 0.945975 0.267991 0.780639
#
# Coordination Sequence:
#
# PCOD9371867 Si02
#       5
#    16  16  16  16  16
#     4  11  24  46  71  99 143 185 229 296 357 412
#     4  11  24  43  68 102 136 183 237 289 354 426
#     4  11  24  44  67 103 139 183 239 284 358 418
#     4   9  22  45  67  98 138 180 231 289 348 425
#     4  10  23  43  66  98 139 178 232 286 351 417
#
# _framework density 25.676541
#
# number of rings (size 3 to 8) (size 9 to 14) (size 15 to 20)
#    0.000    1.600    2.000    1.800    8.400    0.000 
#   14.400    0.000    0.000    0.000    0.000    0.000 
#    0.000    0.000    0.000    0.000    0.000    0.000 
#
# Total GULP energy -111469.561361 kJ/mol
# GULP energy per Si atom -5573.478068 kJ/mol
# Density = 2.561810 g / cm^3
# Si number density = 25.676541 Si / 1000 Ang^3
#
#
#
# Elastic Constant Matrix: (Units=GPa)
#
#
# Indices 1 2 3 4 5 6 
#
# 1 89.1768 19.4367 29.6080 0.0000 0.0000 0.0000
# 2 19.4367 17.0262 -1.5505 0.0000 0.0000 0.0000
# 3 29.6080 -1.5505 111.5966 0.0000 0.0000 0.0000
# 4 0.0000 0.0000 0.0000 26.1144 0.0000 0.0000
# 5 0.0000 0.0000 0.0000 0.0000 34.9160 0.0000
# 6 0.0000 0.0000 0.0000 0.0000 0.0000 42.1321
#
#
#
# Elastic Compliance Matrix: (Units=1/GPa)
#
#
# Indices 1 2 3 4 5 6 
#
# 1 0.017196 -0.020071 -0.004841 0.000000 0.000000 0.000000
# 2 -0.020071 0.082234 0.006468 0.000000 0.000000 0.000000
# 3 -0.004841 0.006468 0.010335 0.000000 0.000000 0.000000
# 4 0.000000 0.000000 0.000000 0.038293 0.000000 0.000000
# 5 0.000000 0.000000 0.000000 0.000000 0.028640 0.000000
# 6 0.000000 0.000000 0.000000 0.000000 0.000000 0.023735
#
#
# Mechanical properties :
#
#
# Convention : Reuss Voigt Hill
#
# Bulk Modulus (GPa) = 13.72188 34.75423 24.23806
# Shear Modulus (GPa) = 19.11213 31.98619 25.54916
#
# Velocity S-wave (km/s) = 2.73122 3.53333 3.15785
# Velocity P-wave (km/s) = 3.91176 5.49642 4.77035
#
# Compressibility (1/GPa) = 0.07287631
#
# Stress axis : x y z
#
# Youngs Moduli (GPa) = 58.15450 12.16037 96.75769
#
# Poissons Ratio (x) = 0.24407 0.46841
# Poissons Ratio (y) = 1.16721 -0.62579
# Poissons Ratio (z) = 0.28153 -0.07865
#
# Static dielectric constant tensor:
#      x y z
#    x 1.989190 0.000000 0.000000 
#    y 0.000000 2.142610 0.000000 
#    z 0.000000 0.000000 2.056770 
# 
# From -- ./inp_files/12780.got.cif
#   From: 2010.05.17/outbox.cif.g08.bks.cpg/sg43_7_cif.got.tgz:12780.got - 2010.06.03 19:21:55.
