data_PCOD9371270
_publ_section_title
;
Structure prediction by ZEFSAII (Michael W. Deem and Ramdas Pophale) SiO2 
 PCOD9371270
Probable space group: F D D 2
;
_chemical_formula_sum "Si O2"
_cell_formula_units_Z 120
_cell_length_a 24.546886
_cell_length_b 16.036782
_cell_length_c 12.305117
_cell_angle_alpha 90.000000
_cell_angle_beta 90.000000
_cell_angle_gamma 90.000000
_cell_volume 4843.946955
_symmetry_space_group_name_H-M "F D D 2"
_symmetry_group_IT_number 43
_symmetry_cell_setting 'orthorhombic'
loop_
_space_group_symop_operation_xyz
x,y,z
-x,-y,z
1/4-x,1/4+y,1/4+z
1/4+x,1/4-y,1/4+z
x,1/2+y,1/2+z
-x,1/2-y,1/2+z
1/4-x,3/4+y,3/4+z
1/4+x,3/4-y,3/4+z
1/2+x,y,1/2+z
1/2-x,-y,1/2+z
3/4-x,1/4+y,3/4+z
3/4+x,1/4-y,3/4+z
1/2+x,1/2+y,z
1/2-x,1/2-y,z
3/4-x,3/4+y,1/4+z
3/4+x,3/4-y,1/4+z
loop_
_atom_site_type_symbol
_atom_site_label
_atom_site_fract_x
_atom_site_fract_y
_atom_site_fract_z
Si Si1 0.018553 0.664553 0.504700
Si Si2 0.000000 0.000000 0.874291
Si Si3 0.256929 0.435019 0.626718
Si Si4 0.897088 0.669647 0.563613
Si Si5 0.835093 0.533246 0.453171
Si Si6 0.711090 0.632236 0.857634
Si Si7 0.853227 0.348964 0.042604
Si Si8 0.430826 0.448180 0.688370
O O1 0.960403 0.694472 0.553184
O O2 0.007177 0.578298 0.450243
O O3 0.036446 0.728582 0.410160
O O4 0.060577 0.664788 0.602365
O O5 0.943928 0.995418 0.801429
O O6 0.203986 0.461043 0.559623
O O7 0.260104 0.390351 0.743775
O O8 0.290365 0.372508 0.551879
O O9 0.886471 0.586375 0.493388
O O10 0.864266 0.751717 0.529426
O O11 0.878502 0.647307 0.685109
O O12 0.828793 0.438876 0.405864
O O13 0.764274 0.642854 0.932958
O O14 0.683782 0.723262 0.855724
O O15 0.882398 0.388529 0.149775
#
# Coordination Sequence:
#
# PCOD9371270 Si02
#       8
#    16   8  16  16  16  16  16  16
#     4  11  25  45  67 102 142 191 234 290 365 424
#     4  10  24  40  70  94 140 190 232 292 346 436
#     4  11  22  42  68  97 137 182 228 294 352 418
#     4  12  27  46  71 106 145 189 239 300 358 441
#     4  11  23  43  70  97 146 187 229 294 359 424
#     4   9  20  40  66  99 132 183 231 283 356 416
#     4  12  26  42  71 106 137 183 242 296 357 430
#     4  10  21  42  70  99 135 177 238 295 348 420
#
# _framework density 24.773187
#
# number of rings (size 3 to 8) (size 9 to 14) (size 15 to 20)
#    0.000    1.333    1.333    5.600    3.733    3.733 
#    2.400    0.000    0.000    0.000    0.000    0.000 
#    0.000    0.000    0.000    0.000    0.000    0.000 
#
# Total GULP energy -167519.700497 kJ/mol
# GULP energy per Si atom -5583.990017 kJ/mol
# Density = 2.471680 g / cm^3
# Si number density = 24.773187 Si / 1000 Ang^3
#
#
#
# Elastic Constant Matrix: (Units=GPa)
#
#
# Indices 1 2 3 4 5 6 
#
# 1 34.2820 -4.8902 -5.9652 0.0000 0.0000 0.0000
# 2 -4.8902 105.2624 29.0080 0.0000 0.0000 0.0000
# 3 -5.9652 29.0080 86.5493 0.0000 0.0000 0.0000
# 4 0.0000 0.0000 0.0000 38.6691 0.0000 0.0000
# 5 0.0000 0.0000 0.0000 0.0000 21.2357 0.0000
# 6 0.0000 0.0000 0.0000 0.0000 0.0000 23.9443
#
#
#
# Elastic Compliance Matrix: (Units=1/GPa)
#
#
# Indices 1 2 3 4 5 6 
#
# 1 0.029600 0.000896 0.001740 0.000000 0.000000 0.000000
# 2 0.000896 0.010494 -0.003455 0.000000 0.000000 0.000000
# 3 0.001740 -0.003455 0.012832 0.000000 0.000000 0.000000
# 4 0.000000 0.000000 0.000000 0.025860 0.000000 0.000000
# 5 0.000000 0.000000 0.000000 0.000000 0.047091 0.000000
# 6 0.000000 0.000000 0.000000 0.000000 0.000000 0.041764
#
#
# Mechanical properties :
#
#
# Convention : Reuss Voigt Hill
#
# Bulk Modulus (GPa) = 19.49821 29.15544 24.32682
# Shear Modulus (GPa) = 26.82744 30.63254 28.72999
#
# Velocity S-wave (km/s) = 3.29435 3.52023 3.40916
# Velocity P-wave (km/s) = 4.72843 5.32139 5.03365
#
# Compressibility (1/GPa) = 0.05128675
#
# Stress axis : x y z
#
# Youngs Moduli (GPa) = 33.78341 95.29329 77.92917
#
# Poissons Ratio (x) = -0.08535 -0.13559
# Poissons Ratio (y) = -0.03026 0.26928
# Poissons Ratio (z) = -0.05878 0.32928
#
# Static dielectric constant tensor:
#      x y z
#    x 2.013330 0.000000 0.000000 
#    y 0.000000 1.937150 0.000000 
#    z 0.000000 0.000000 2.049640 
# 
# From -- ./inp_files/7980.got.cif
#   From: 2010.05.17/outbox.cif.g08.bks.cpg/sg43_4_cif.got.tgz:7980.got - 2010.06.03 19:21:55.
