data_PCOD9371329
_publ_section_title
;
Structure prediction by ZEFSAII (Michael W. Deem and Ramdas Pophale) SiO2 
 PCOD9371329
Probable space group: F D D 2
;
_chemical_formula_sum "Si O2"
_cell_formula_units_Z 72
_cell_length_a 12.027737
_cell_length_b 22.701775
_cell_length_c 11.318768
_cell_angle_alpha 90.000000
_cell_angle_beta 90.000000
_cell_angle_gamma 90.000000
_cell_volume 3090.600685
_symmetry_space_group_name_H-M "F D D 2"
_symmetry_group_IT_number 43
_symmetry_cell_setting 'orthorhombic'
loop_
_space_group_symop_operation_xyz
x,y,z
-x,-y,z
1/4-x,1/4+y,1/4+z
1/4+x,1/4-y,1/4+z
x,1/2+y,1/2+z
-x,1/2-y,1/2+z
1/4-x,3/4+y,3/4+z
1/4+x,3/4-y,3/4+z
1/2+x,y,1/2+z
1/2-x,-y,1/2+z
3/4-x,1/4+y,3/4+z
3/4+x,1/4-y,3/4+z
1/2+x,1/2+y,z
1/2-x,1/2-y,z
3/4-x,3/4+y,1/4+z
3/4+x,3/4-y,1/4+z
loop_
_atom_site_type_symbol
_atom_site_label
_atom_site_fract_x
_atom_site_fract_y
_atom_site_fract_z
Si Si1 0.823713 0.958299 0.443810
Si Si2 0.344432 0.437865 0.919554
Si Si3 0.757578 0.343294 0.033477
Si Si4 0.750000 0.250000 0.856837
Si Si5 0.681428 0.335814 0.419738
O O1 0.900385 0.937417 0.336611
O O2 0.737047 0.904877 0.467313
O O3 0.903086 0.957094 0.559954
O O4 0.758506 0.017264 0.422843
O O5 0.296571 0.371396 0.925352
O O6 0.406025 0.442947 0.794551
O O7 0.421504 0.459813 0.026079
O O8 0.837942 0.363982 0.138986
O O9 0.811440 0.297221 0.942166
#
# Coordination Sequence:
#
# PCOD9371329 Si02
#       5
#    16  16  16   8  16
#     4  10  22  42  79 102 144 193 254 296 375 455
#     4  12  26  47  72 111 149 194 252 311 376 439
#     4  10  21  44  75 108 139 205 243 299 376 451
#     4  12  28  44  72 106 152 194 248 318 370 440
#     4  10  23  50  72 106 148 192 251 307 371 448
#
# _framework density 23.296441999999999
#
# number of rings (size 3 to 8) (size 9 to 14) (size 15 to 20)
#    1.333    0.000    2.222    2.667    6.222    3.556 
#    4.000    0.000    0.000    0.000    0.000    0.000 
#    0.000    0.000    0.000    0.000    0.000    0.000 
#
# Total GULP energy -100489.615341 kJ/mol
# GULP energy per Si atom -5582.756408 kJ/mol
# Density = 2.324342 g / cm^3
# Si number density = 23.296442 Si / 1000 Ang^3
#
#
#
# Elastic Constant Matrix: (Units=GPa)
#
#
# Indices 1 2 3 4 5 6 
#
# 1 54.5512 15.8160 25.4082 0.0000 0.0000 0.0000
# 2 15.8160 78.1510 48.6650 0.0000 0.0000 0.0000
# 3 25.4082 48.6650 124.1118 0.0000 0.0000 0.0000
# 4 0.0000 0.0000 0.0000 37.7717 0.0000 0.0000
# 5 0.0000 0.0000 0.0000 0.0000 33.7665 0.0000
# 6 0.0000 0.0000 0.0000 0.0000 0.0000 38.4112
#
#
#
# Elastic Compliance Matrix: (Units=1/GPa)
#
#
# Indices 1 2 3 4 5 6 
#
# 1 0.020505 -0.002032 -0.003401 0.000000 0.000000 0.000000
# 2 -0.002032 0.017131 -0.006301 0.000000 0.000000 0.000000
# 3 -0.003401 -0.006301 0.011224 0.000000 0.000000 0.000000
# 4 0.000000 0.000000 0.000000 0.026475 0.000000 0.000000
# 5 0.000000 0.000000 0.000000 0.000000 0.029615 0.000000
# 6 0.000000 0.000000 0.000000 0.000000 0.000000 0.026034
#
#
# Mechanical properties :
#
#
# Convention : Reuss Voigt Hill
#
# Bulk Modulus (GPa) = 39.38317 48.51030 43.94673
# Shear Modulus (GPa) = 30.69081 33.11819 31.90450
#
# Velocity S-wave (km/s) = 3.63354 3.77450 3.70469
# Velocity P-wave (km/s) = 5.87754 6.31380 6.09957
#
# Compressibility (1/GPa) = 0.02539156
#
# Stress axis : x y z
#
# Youngs Moduli (GPa) = 48.76964 58.37489 89.09321
#
# Poissons Ratio (x) = 0.11861 0.30301
# Poissons Ratio (y) = 0.09909 0.56138
# Poissons Ratio (z) = 0.16587 0.36782
#
# Static dielectric constant tensor:
#      x y z
#    x 1.887760 0.000000 0.000000 
#    y 0.000000 1.934950 0.000000 
#    z 0.000000 0.000000 1.862480 
# 
# From -- ./inp_files/5630.got.cif
#   From: 2010.05.17/outbox.cif.g08.bks.cpg/sg43_3_cif.got.tgz:5630.got - 2010.06.03 19:21:55.
