data_PCOD9371097
_publ_section_title
;
Structure prediction by ZEFSAII (Michael W. Deem and Ramdas Pophale) SiO2 
 PCOD9371097
Probable space group: F D D 2
;
_chemical_formula_sum "Si O2"
_cell_formula_units_Z 96
_cell_length_a 18.701567
_cell_length_b 9.757758
_cell_length_c 22.556549
_cell_angle_alpha 90.000000
_cell_angle_beta 90.000000
_cell_angle_gamma 90.000000
_cell_volume 4116.240078
_symmetry_space_group_name_H-M "F D D 2"
_symmetry_group_IT_number 43
_symmetry_cell_setting 'orthorhombic'
loop_
_space_group_symop_operation_xyz
x,y,z
-x,-y,z
1/4-x,1/4+y,1/4+z
1/4+x,1/4-y,1/4+z
x,1/2+y,1/2+z
-x,1/2-y,1/2+z
1/4-x,3/4+y,3/4+z
1/4+x,3/4-y,3/4+z
1/2+x,y,1/2+z
1/2-x,-y,1/2+z
3/4-x,1/4+y,3/4+z
3/4+x,1/4-y,3/4+z
1/2+x,1/2+y,z
1/2-x,1/2-y,z
3/4-x,3/4+y,1/4+z
3/4+x,3/4-y,1/4+z
loop_
_atom_site_type_symbol
_atom_site_label
_atom_site_fract_x
_atom_site_fract_y
_atom_site_fract_z
Si Si1 0.059770 0.382564 0.902160
Si Si2 0.539584 0.794620 0.325572
Si Si3 0.979842 0.304014 0.493375
Si Si4 0.917502 0.170262 0.101621
Si Si5 0.843408 0.307567 0.675747
Si Si6 0.751754 0.101945 0.966840
O O1 0.126812 0.437375 0.865000
O O2 0.000000 0.500000 0.902832
O O3 0.025191 0.259379 0.865649
O O4 0.063961 0.327205 0.969935
O O5 0.608218 0.688777 0.328045
O O6 0.569048 0.931007 0.357279
O O7 0.505771 0.776198 0.261039
O O8 0.934168 0.431033 0.466014
O O9 0.012383 0.319373 0.559297
O O10 0.055092 0.313284 0.457553
O O11 0.941047 0.133572 0.168094
O O12 0.926244 0.328236 0.680364
O O13 0.750000 0.250000 0.000079
#
# Coordination Sequence:
#
# PCOD9371097 Si02
#       6
#    16  16  16  16  16  16
#     4   9  21  40  65  99 133 181 235 297 350 421
#     4  10  21  39  63 101 139 166 235 291 344 417
#     4  10  22  42  67  94 141 185 228 296 356 419
#     4  11  22  39  69 100 134 184 240 286 349 425
#     4  10  22  38  64  97 137 177 223 290 355 410
#     4  12  23  36  67 104 134 179 235 295 340 419
#
# _framework density 23.322254999999998
#
# number of rings (size 3 to 8) (size 9 to 14) (size 15 to 20)
#    0.000    1.667    3.333    1.500    4.667    0.000 
#    0.000    7.500    0.000    0.000    0.000    0.000 
#    0.000    0.000    0.000    0.000    0.000    0.000 
#
# Total GULP energy -133609.713405 kJ/mol
# GULP energy per Si atom -5567.071392 kJ/mol
# Density = 2.326917 g / cm^3
# Si number density = 23.322255 Si / 1000 Ang^3
#
#
#
# Elastic Constant Matrix: (Units=GPa)
#
#
# Indices 1 2 3 4 5 6 
#
# 1 69.5197 25.9001 18.0195 0.0000 0.0000 0.0000
# 2 25.9001 68.6493 32.5453 0.0000 0.0000 0.0000
# 3 18.0195 32.5453 122.6911 0.0000 0.0000 0.0000
# 4 0.0000 0.0000 0.0000 26.2487 0.0000 0.0000
# 5 0.0000 0.0000 0.0000 0.0000 36.2500 0.0000
# 6 0.0000 0.0000 0.0000 0.0000 0.0000 15.4326
#
#
#
# Elastic Compliance Matrix: (Units=1/GPa)
#
#
# Indices 1 2 3 4 5 6 
#
# 1 0.016823 -0.005920 -0.000900 0.000000 0.000000 0.000000
# 2 -0.005920 0.018746 -0.004103 0.000000 0.000000 0.000000
# 3 -0.000900 -0.004103 0.009371 0.000000 0.000000 0.000000
# 4 0.000000 0.000000 0.000000 0.038097 0.000000 0.000000
# 5 0.000000 0.000000 0.000000 0.000000 0.027586 0.000000
# 6 0.000000 0.000000 0.000000 0.000000 0.000000 0.064798
#
#
# Mechanical properties :
#
#
# Convention : Reuss Voigt Hill
#
# Bulk Modulus (GPa) = 43.30358 45.97664 44.64011
# Shear Modulus (GPa) = 24.39426 27.87928 26.13677
#
# Velocity S-wave (km/s) = 3.23765 3.46120 3.35129
# Velocity P-wave (km/s) = 5.70826 5.97743 5.84439
#
# Compressibility (1/GPa) = 0.02309278
#
# Stress axis : x y z
#
# Youngs Moduli (GPa) = 59.44086 53.34600 106.71042
#
# Poissons Ratio (x) = 0.31582 0.09608
# Poissons Ratio (y) = 0.35191 0.43783
# Poissons Ratio (z) = 0.05352 0.21888
#
# Static dielectric constant tensor:
#      x y z
#    x 1.879930 0.000000 0.000000 
#    y 0.000000 1.999240 0.000000 
#    z 0.000000 0.000000 2.064820 
# 
# From -- ./inp_files/18319.got.cif
#   From: 2010.05.17/outbox.cif.g08.bks.cpg/sg43_10_cif.got.tgz:18319.got - 2010.06.03 19:21:55.
