data_PCOD9371063
_publ_section_title
;
Structure prediction by ZEFSAII (Michael W. Deem and Ramdas Pophale) SiO2 
 PCOD9371063
Probable space group: F D D 2
;
_chemical_formula_sum "Si O2"
_cell_formula_units_Z 104
_cell_length_a 19.470127
_cell_length_b 24.949649
_cell_length_c 8.172758
_cell_angle_alpha 90.000000
_cell_angle_beta 90.000000
_cell_angle_gamma 90.000000
_cell_volume 3970.103820
_symmetry_space_group_name_H-M "F D D 2"
_symmetry_group_IT_number 43
_symmetry_cell_setting 'orthorhombic'
loop_
_space_group_symop_operation_xyz
x,y,z
-x,-y,z
1/4-x,1/4+y,1/4+z
1/4+x,1/4-y,1/4+z
x,1/2+y,1/2+z
-x,1/2-y,1/2+z
1/4-x,3/4+y,3/4+z
1/4+x,3/4-y,3/4+z
1/2+x,y,1/2+z
1/2-x,-y,1/2+z
3/4-x,1/4+y,3/4+z
3/4+x,1/4-y,3/4+z
1/2+x,1/2+y,z
1/2-x,1/2-y,z
3/4-x,3/4+y,1/4+z
3/4+x,3/4-y,1/4+z
loop_
_atom_site_type_symbol
_atom_site_label
_atom_site_fract_x
_atom_site_fract_y
_atom_site_fract_z
Si Si1 0.802382 0.543707 0.964240
Si Si2 0.136108 0.550564 0.823715
Si Si3 0.538756 0.570989 0.053241
Si Si4 0.111013 0.425300 0.659838
Si Si5 0.250000 0.250000 0.731893
Si Si6 0.731843 0.656193 0.980026
Si Si7 0.169759 0.437585 0.333393
O O1 0.797719 0.484783 0.877847
O O2 0.859848 0.568081 0.841628
O O3 0.748121 0.593181 0.956387
O O4 0.817940 0.533962 0.156969
O O5 0.108476 0.552226 0.637595
O O6 0.138376 0.611477 0.881126
O O7 0.070402 0.521519 0.903770
O O8 0.466283 0.552397 0.131242
O O9 0.534222 0.634772 0.078893
O O10 0.535915 0.566700 0.857939
O O11 0.162028 0.452759 0.525211
O O12 0.268655 0.304365 0.828606
O O13 0.658010 0.664379 0.059820
#
# Coordination Sequence:
#
# PCOD9371063 Si02
#       7
#    16  16  16  16   8  16  16
#     4  11  21  38  65  92 128 166 213 276 322 386
#     4  11  22  38  64  97 122 169 227 262 330 407
#     4   9  21  39  64  87 129 167 213 270 326 391
#     4  10  21  39  63  91 128 169 211 274 324 383
#     4  12  20  34  62  94 120 160 224 252 326 398
#     4  10  21  38  63  89 127 171 211 273 325 389
#     4   9  20  38  62  85 125 166 211 256 326 392
#
# _framework density 26.195788
#
# number of rings (size 3 to 8) (size 9 to 14) (size 15 to 20)
#    0.000    1.846    3.077    0.923    0.000    3.077 
#    0.000    0.000   47.385    0.000    0.000    0.000 
#    0.000    0.000    0.000    0.000    0.000    0.000 
#
# Total GULP energy -144926.467815 kJ/mol
# GULP energy per Si atom -5574.094916 kJ/mol
# Density = 2.613616 g / cm^3
# Si number density = 26.195788 Si / 1000 Ang^3
#
#
#
# Elastic Constant Matrix: (Units=GPa)
#
#
# Indices 1 2 3 4 5 6 
#
# 1 47.8017 -0.0792 37.7993 0.0000 0.0000 0.0000
# 2 -0.0792 138.7332 35.9931 0.0001 0.0000 0.0000
# 3 37.7993 35.9931 118.2035 -0.0003 0.0005 0.0002
# 4 0.0000 0.0001 -0.0003 44.3532 0.0002 0.0001
# 5 0.0000 0.0000 0.0005 0.0002 35.9102 -0.0001
# 6 0.0000 0.0000 0.0002 0.0001 -0.0001 44.8784
#
#
#
# Elastic Compliance Matrix: (Units=1/GPa)
#
#
# Indices 1 2 3 4 5 6 
#
# 1 0.028849 0.002617 -0.010022 0.000000 0.000000 0.000000
# 2 0.002617 0.008064 -0.003292 0.000000 0.000000 0.000000
# 3 -0.010022 -0.003292 0.012667 0.000000 0.000000 0.000000
# 4 0.000000 0.000000 0.000000 0.022546 0.000000 0.000000
# 5 0.000000 0.000000 0.000000 0.000000 0.027847 0.000000
# 6 0.000000 0.000000 0.000000 0.000000 0.000000 0.022282
#
#
# Mechanical properties :
#
#
# Convention : Reuss Voigt Hill
#
# Bulk Modulus (GPa) = 35.48014 50.24054 42.86034
# Shear Modulus (GPa) = 32.66979 40.43004 36.54991
#
# Velocity S-wave (km/s) = 3.53532 3.93285 3.73937
# Velocity P-wave (km/s) = 5.49893 6.31218 5.91954
#
# Compressibility (1/GPa) = 0.02818478
#
# Stress axis : x y z
#
# Youngs Moduli (GPa) = 34.66304 124.01262 78.94296
#
# Poissons Ratio (x) = -0.32450 0.79118
# Poissons Ratio (y) = -0.09070 0.25989
# Poissons Ratio (z) = 0.34740 0.40827
#
# Static dielectric constant tensor:
#      x y z
#    x 2.184310 0.000000 0.000000 
#    y 0.000000 2.138320 0.000000 
#    z 0.000000 0.000000 2.141300 
# 
# From -- ./inp_files/3480.got.cif
#   From: 2010.05.17/outbox.cif.g08.bks.cpg/sg43_2_cif.got.tgz:3480.got - 2010.06.03 19:21:55.
