data_PCOD9371268
_publ_section_title
;
Structure prediction by ZEFSAII (Michael W. Deem and Ramdas Pophale) SiO2 
 PCOD9371268
Probable space group: F D D 2
;
_chemical_formula_sum "Si O2"
_cell_formula_units_Z 96
_cell_length_a 8.895441
_cell_length_b 20.085068
_cell_length_c 24.827944
_cell_angle_alpha 90.000000
_cell_angle_beta 90.000000
_cell_angle_gamma 90.000000
_cell_volume 4435.897957
_symmetry_space_group_name_H-M "F D D 2"
_symmetry_group_IT_number 43
_symmetry_cell_setting 'orthorhombic'
loop_
_space_group_symop_operation_xyz
x,y,z
-x,-y,z
1/4-x,1/4+y,1/4+z
1/4+x,1/4-y,1/4+z
x,1/2+y,1/2+z
-x,1/2-y,1/2+z
1/4-x,3/4+y,3/4+z
1/4+x,3/4-y,3/4+z
1/2+x,y,1/2+z
1/2-x,-y,1/2+z
3/4-x,1/4+y,3/4+z
3/4+x,1/4-y,3/4+z
1/2+x,1/2+y,z
1/2-x,1/2-y,z
3/4-x,3/4+y,1/4+z
3/4+x,3/4-y,1/4+z
loop_
_atom_site_type_symbol
_atom_site_label
_atom_site_fract_x
_atom_site_fract_y
_atom_site_fract_z
Si Si1 0.842079 0.184780 0.772200
Si Si2 0.000000 0.500000 0.891286
Si Si3 0.198761 0.360213 0.150553
Si Si4 0.208753 0.447435 0.329620
Si Si5 0.820117 0.507951 0.097303
Si Si6 0.370650 0.135709 0.905673
Si Si7 0.000000 0.000000 0.737711
O O1 0.750000 0.250000 0.782290
O O2 0.828596 0.164333 0.710581
O O3 0.770047 0.126257 0.806490
O O4 0.005502 0.206618 0.794105
O O5 0.142754 0.521736 0.855039
O O6 0.045199 0.431922 0.922550
O O7 0.325941 0.315669 0.123221
O O8 0.234753 0.438761 0.142758
O O9 0.030839 0.359301 0.125374
O O10 0.136457 0.484355 0.278272
O O11 0.779851 0.433563 0.117289
O O12 0.000000 0.500000 0.093722
O O13 0.306616 0.187240 0.951352
#
# Coordination Sequence:
#
# PCOD9371268 Si02
#       7
#    16   8  16  16  16  16   8
#     4  11  22  38  67 100 130 176 231 281 348 422
#     4  12  28  44  64 107 154 173 234 316 362 408
#     4  10  21  42  70  95 133 183 236 285 350 432
#     4  11  25  45  68  99 142 191 226 295 362 430
#     4   9  19  41  69  92 134 175 230 286 343 418
#     4  11  21  45  68 103 137 184 237 295 353 435
#     4  12  22  46  80  95 134 203 248 270 372 450
#
# _framework density 21.641615999999999
#
# number of rings (size 3 to 8) (size 9 to 14) (size 15 to 20)
#    0.000    1.333    4.167    2.000    3.500    0.000 
#    4.500    0.000    3.667    0.000    0.000    0.000 
#    0.000    0.000    0.000    0.000    0.000    0.000 
#
# Total GULP energy -133673.679673 kJ/mol
# GULP energy per Si atom -5569.736653 kJ/mol
# Density = 2.159236 g / cm^3
# Si number density = 21.641616 Si / 1000 Ang^3
#
#
#
# Elastic Constant Matrix: (Units=GPa)
#
#
# Indices 1 2 3 4 5 6 
#
# 1 102.8414 66.3001 54.4463 0.0000 0.0000 0.0000
# 2 66.3001 163.8618 56.0684 0.0000 0.0000 0.0000
# 3 54.4463 56.0684 119.9548 0.0000 0.0000 0.0000
# 4 0.0000 0.0000 0.0000 17.7855 0.0000 0.0000
# 5 0.0000 0.0000 0.0000 0.0000 13.5237 0.0000
# 6 0.0000 0.0000 0.0000 0.0000 0.0000 46.0326
#
#
#
# Elastic Compliance Matrix: (Units=1/GPa)
#
#
# Indices 1 2 3 4 5 6 
#
# 1 0.015150 -0.004496 -0.004775 0.000000 0.000000 0.000000
# 2 -0.004496 0.008599 -0.001978 0.000000 0.000000 0.000000
# 3 -0.004775 -0.001978 0.011429 0.000000 0.000000 0.000000
# 4 0.000000 0.000000 0.000000 0.056226 0.000000 0.000000
# 5 0.000000 0.000000 0.000000 0.000000 0.073944 0.000000
# 6 0.000000 0.000000 0.000000 0.000000 0.000000 0.021724
#
#
# Mechanical properties :
#
#
# Convention : Reuss Voigt Hill
#
# Bulk Modulus (GPa) = 78.87371 82.25418 80.56395
# Shear Modulus (GPa) = 23.38672 29.45790 26.42231
#
# Velocity S-wave (km/s) = 3.29087 3.69340 3.49793
# Velocity P-wave (km/s) = 7.13893 7.50188 7.32265
#
# Compressibility (1/GPa) = 0.01267850
#
# Stress axis : x y z
#
# Youngs Moduli (GPa) = 66.00550 116.29482 87.49998
#
# Poissons Ratio (x) = 0.52287 0.41781
# Poissons Ratio (y) = 0.29677 0.17312
# Poissons Ratio (z) = 0.31518 0.23009
#
# Static dielectric constant tensor:
#      x y z
#    x 1.861340 0.000000 0.000000 
#    y 0.000000 1.868250 0.000000 
#    z 0.000000 0.000000 1.814530 
# 
# From -- ./inp_files/24247.got.cif
#   From: 2010.05.17/outbox.cif.g08.bks.cpg/sg43_13_cif.got.tgz:24247.got - 2010.06.03 19:21:55.
