data_PCOD9371984
_publ_section_title
;
Structure prediction by ZEFSAII (Michael W. Deem and Ramdas Pophale) SiO2 
 PCOD9371984
Probable space group: F D D 2
;
_chemical_formula_sum "Si O2"
_cell_formula_units_Z 80
_cell_length_a 15.379112
_cell_length_b 18.818643
_cell_length_c 10.971657
_cell_angle_alpha 90.000000
_cell_angle_beta 90.000000
_cell_angle_gamma 90.000000
_cell_volume 3175.351341
_symmetry_space_group_name_H-M "F D D 2"
_symmetry_group_IT_number 43
_symmetry_cell_setting 'orthorhombic'
loop_
_space_group_symop_operation_xyz
x,y,z
-x,-y,z
1/4-x,1/4+y,1/4+z
1/4+x,1/4-y,1/4+z
x,1/2+y,1/2+z
-x,1/2-y,1/2+z
1/4-x,3/4+y,3/4+z
1/4+x,3/4-y,3/4+z
1/2+x,y,1/2+z
1/2-x,-y,1/2+z
3/4-x,1/4+y,3/4+z
3/4+x,1/4-y,3/4+z
1/2+x,1/2+y,z
1/2-x,1/2-y,z
3/4-x,3/4+y,1/4+z
3/4+x,3/4-y,1/4+z
loop_
_atom_site_type_symbol
_atom_site_label
_atom_site_fract_x
_atom_site_fract_y
_atom_site_fract_z
Si Si1 0.149320 0.571628 0.580970
Si Si2 0.513093 0.846720 0.006204
Si Si3 0.150025 0.738750 0.584159
Si Si4 0.913677 0.298711 0.241633
Si Si5 0.922782 0.943077 0.345763
O O1 0.129197 0.655662 0.575396
O O2 0.110512 0.524831 0.469547
O O3 0.252623 0.562243 0.571987
O O4 0.117989 0.550654 0.714047
O O5 0.577181 0.912679 0.038217
O O6 0.462222 0.867616 0.884281
O O7 0.580786 0.782252 0.004500
O O8 0.443806 0.834160 0.112856
O O9 0.250000 0.750000 0.547054
O O10 0.892725 0.218613 0.201587
O O11 0.000000 0.000000 0.348395
#
# Coordination Sequence:
#
# PCOD9371984 Si02
#       5
#    16  16  16  16  16
#     4  11  25  46  76 117 158 209 263 339 400 482
#     4  10  23  48  70 108 147 200 257 321 391 475
#     4  11  24  48  76 112 156 209 271 333 402 483
#     4  10  23  47  72 110 146 207 256 322 391 468
#     4  10  24  48  75 109 155 201 260 327 398 481
#
# _framework density 25.194064000000001
#
# number of rings (size 3 to 8) (size 9 to 14) (size 15 to 20)
#    0.000    1.600    2.000    0.600    2.800    4.800 
#   32.400    0.000    0.000    0.000    0.000    0.000 
#    0.000    0.000    0.000    0.000    0.000    0.000 
#
# Total GULP energy -112060.707706 kJ/mol
# GULP energy per Si atom -5603.035385 kJ/mol
# Density = 2.513672 g / cm^3
# Si number density = 25.194064 Si / 1000 Ang^3
#
#
#
# Elastic Constant Matrix: (Units=GPa)
#
#
# Indices 1 2 3 4 5 6 
#
# 1 64.9375 45.2439 50.8233 0.0000 0.0000 0.0000
# 2 45.2439 139.3901 67.7183 0.0000 0.0000 0.0000
# 3 50.8233 67.7183 131.2823 0.0000 0.0000 0.0000
# 4 0.0000 0.0000 0.0000 36.2013 0.0000 0.0000
# 5 0.0000 0.0000 0.0000 0.0000 57.3950 0.0000
# 6 0.0000 0.0000 0.0000 0.0000 0.0000 47.2441
#
#
#
# Elastic Compliance Matrix: (Units=1/GPa)
#
#
# Indices 1 2 3 4 5 6 
#
# 1 0.023926 -0.004358 -0.007014 0.000000 0.000000 0.000000
# 2 -0.004358 0.010367 -0.003660 0.000000 0.000000 0.000000
# 3 -0.007014 -0.003660 0.012221 0.000000 0.000000 0.000000
# 4 0.000000 0.000000 0.000000 0.027623 0.000000 0.000000
# 5 0.000000 0.000000 0.000000 0.000000 0.017423 0.000000
# 6 0.000000 0.000000 0.000000 0.000000 0.000000 0.021167
#
#
# Mechanical properties :
#
#
# Convention : Reuss Voigt Hill
#
# Bulk Modulus (GPa) = 60.79888 73.68677 67.24282
# Shear Modulus (GPa) = 33.72126 39.62305 36.67215
#
# Velocity S-wave (km/s) = 3.66247 3.97005 3.81935
# Velocity P-wave (km/s) = 6.48610 7.09410 6.79690
#
# Compressibility (1/GPa) = 0.01644767
#
# Stress axis : x y z
#
# Youngs Moduli (GPa) = 41.79623 96.46021 81.82870
#
# Poissons Ratio (x) = 0.42040 0.57397
# Poissons Ratio (y) = 0.18216 0.29952
# Poissons Ratio (z) = 0.29317 0.35307
#
# Static dielectric constant tensor:
#      x y z
#    x 1.940620 0.000000 0.000000 
#    y 0.000000 2.042680 0.000000 
#    z 0.000000 0.000000 2.009790 
# 
# From -- ./inp_files/6080.got.cif
#   From: 2010.05.17/outbox.cif.g08.bks.cpg/sg43_4_cif.got.tgz:6080.got - 2010.06.03 19:21:55.
