data_PCOD9371436
_publ_section_title
;
Structure prediction by ZEFSAII (Michael W. Deem and Ramdas Pophale) SiO2 
 PCOD9371436
Probable space group: F D D 2
;
_chemical_formula_sum "Si O2"
_cell_formula_units_Z 96
_cell_length_a 31.991999
_cell_length_b 14.887674
_cell_length_c 10.374038
_cell_angle_alpha 90.000000
_cell_angle_beta 90.000000
_cell_angle_gamma 90.000000
_cell_volume 4941.013749
_symmetry_space_group_name_H-M "F D D 2"
_symmetry_group_IT_number 43
_symmetry_cell_setting 'orthorhombic'
loop_
_space_group_symop_operation_xyz
x,y,z
-x,-y,z
1/4-x,1/4+y,1/4+z
1/4+x,1/4-y,1/4+z
x,1/2+y,1/2+z
-x,1/2-y,1/2+z
1/4-x,3/4+y,3/4+z
1/4+x,3/4-y,3/4+z
1/2+x,y,1/2+z
1/2-x,-y,1/2+z
3/4-x,1/4+y,3/4+z
3/4+x,1/4-y,3/4+z
1/2+x,1/2+y,z
1/2-x,1/2-y,z
3/4-x,3/4+y,1/4+z
3/4+x,3/4-y,1/4+z
loop_
_atom_site_type_symbol
_atom_site_label
_atom_site_fract_x
_atom_site_fract_y
_atom_site_fract_z
Si Si1 0.750000 0.250000 0.461870
Si Si2 0.837659 0.308871 0.945736
Si Si3 0.334690 0.461798 0.660950
Si Si4 0.500000 0.500000 0.133053
Si Si5 0.835454 0.334608 0.403140
Si Si6 0.586172 0.327894 0.935710
Si Si7 0.743453 0.405777 0.672416
O O1 0.792288 0.278603 0.389643
O O2 0.741465 0.336742 0.552258
O O3 0.793181 0.259192 0.958717
O O4 0.838946 0.350795 0.801947
O O5 0.877886 0.245131 0.957896
O O6 0.835493 0.386912 0.050588
O O7 0.375113 0.521434 0.634715
O O8 0.336624 0.413522 0.799188
O O9 0.294093 0.525032 0.661822
O O10 0.507045 0.587979 0.043848
O O11 0.840204 0.373561 0.547711
O O12 0.538136 0.294078 0.931845
#
# Coordination Sequence:
#
# PCOD9371436 Si02
#       7
#     8  16  16   8  16  16  16
#     4   9  20  39  62  86 114 150 198 242 284 344
#     4  11  23  38  59  87 117 150 190 243 287 334
#     4  12  24  37  59  89 120 150 190 243 292 335
#     4   9  20  39  60  82 116 156 192 228 284 356
#     4  11  23  39  61  85 116 158 194 236 288 351
#     4  10  22  40  61  82 112 155 194 230 284 349
#     4   9  20  39  61  85 114 154 195 234 285 349
#
# _framework density 19.429210000000001
#
# number of rings (size 3 to 8) (size 9 to 14) (size 15 to 20)
#    0.000    1.667    0.000    5.000    0.000    8.667 
#    0.000    0.000    0.000    0.000    0.000    0.000 
#    0.000    0.000    0.000    0.000    0.000    0.000 
#
# Total GULP energy -134006.031805 kJ/mol
# GULP energy per Si atom -5583.584659 kJ/mol
# Density = 1.938499 g / cm^3
# Si number density = 19.429210 Si / 1000 Ang^3
#
#
#
# Elastic Constant Matrix: (Units=GPa)
#
#
# Indices 1 2 3 4 5 6 
#
# 1 197.3611 90.2614 7.7775 0.0000 0.0000 0.0000
# 2 90.2614 84.5943 16.8063 0.0000 0.0000 0.0000
# 3 7.7775 16.8063 51.8832 0.0000 0.0000 0.0000
# 4 0.0000 0.0000 0.0000 14.7356 0.0000 0.0000
# 5 0.0000 0.0000 0.0000 0.0000 22.5663 0.0000
# 6 0.0000 0.0000 0.0000 0.0000 0.0000 61.7510
#
#
#
# Elastic Compliance Matrix: (Units=1/GPa)
#
#
# Indices 1 2 3 4 5 6 
#
# 1 0.010108 -0.011206 0.002114 0.000000 0.000000 0.000000
# 2 -0.011206 0.025056 -0.006437 0.000000 0.000000 0.000000
# 3 0.002114 -0.006437 0.021042 0.000000 0.000000 0.000000
# 4 0.000000 0.000000 0.000000 0.067863 0.000000 0.000000
# 5 0.000000 0.000000 0.000000 0.000000 0.044314 0.000000
# 6 0.000000 0.000000 0.000000 0.000000 0.000000 0.016194
#
#
# Mechanical properties :
#
#
# Convention : Reuss Voigt Hill
#
# Bulk Modulus (GPa) = 39.75952 62.61434 51.18693
# Shear Modulus (GPa) = 22.31981 34.41012 28.36497
#
# Velocity S-wave (km/s) = 3.39304 4.21295 3.82503
# Velocity P-wave (km/s) = 5.98819 7.48079 6.77571
#
# Compressibility (1/GPa) = 0.02515121
#
# Stress axis : x y z
#
# Youngs Moduli (GPa) = 98.92890 39.91054 47.52389
#
# Poissons Ratio (x) = 0.44722 -0.10049
# Poissons Ratio (y) = 1.10855 0.30589
# Poissons Ratio (z) = -0.20918 0.25689
#
# Static dielectric constant tensor:
#      x y z
#    x 1.684700 0.000000 0.000000 
#    y 0.000000 1.649570 0.000000 
#    z 0.000000 0.000000 1.678780 
# 
# From -- ./inp_files/6291.got.cif
#   From: 2010.05.17/outbox.cif.g08.bks.cpg/sg43_4_cif.got.tgz:6291.got - 2010.06.03 19:21:55.
