data_PCOD9371893
_publ_section_title
;
Structure prediction by ZEFSAII (Michael W. Deem and Ramdas Pophale) SiO2 
 PCOD9371893
Probable space group: F D D 2
;
_chemical_formula_sum "Si O2"
_cell_formula_units_Z 120
_cell_length_a 11.602629
_cell_length_b 23.945574
_cell_length_c 20.185979
_cell_angle_alpha 90.000000
_cell_angle_beta 90.000000
_cell_angle_gamma 90.000000
_cell_volume 5608.303072
_symmetry_space_group_name_H-M "F D D 2"
_symmetry_group_IT_number 43
_symmetry_cell_setting 'orthorhombic'
loop_
_space_group_symop_operation_xyz
x,y,z
-x,-y,z
1/4-x,1/4+y,1/4+z
1/4+x,1/4-y,1/4+z
x,1/2+y,1/2+z
-x,1/2-y,1/2+z
1/4-x,3/4+y,3/4+z
1/4+x,3/4-y,3/4+z
1/2+x,y,1/2+z
1/2-x,-y,1/2+z
3/4-x,1/4+y,3/4+z
3/4+x,1/4-y,3/4+z
1/2+x,1/2+y,z
1/2-x,1/2-y,z
3/4-x,3/4+y,1/4+z
3/4+x,3/4-y,1/4+z
loop_
_atom_site_type_symbol
_atom_site_label
_atom_site_fract_x
_atom_site_fract_y
_atom_site_fract_z
Si Si1 0.122240 0.968409 0.112380
Si Si2 0.936219 0.830061 0.220518
Si Si3 0.315798 0.134906 0.706993
Si Si4 0.254216 0.992163 0.354816
Si Si5 0.510602 0.829969 0.405191
Si Si6 0.879881 0.897872 0.810557
Si Si7 0.665974 0.711014 0.993576
Si Si8 0.750000 0.750000 0.634341
O O1 0.149188 0.911709 0.152764
O O2 0.204012 0.015997 0.144009
O O3 0.134010 0.950066 0.035220
O O4 0.000000 0.000000 0.120021
O O5 0.962017 0.784386 0.163294
O O6 0.858446 0.878724 0.185387
O O7 0.061324 0.853819 0.242320
O O8 0.212177 0.114467 0.753529
O O9 0.273857 0.193725 0.676034
O O10 0.315537 0.012060 0.287723
O O11 0.307023 0.931031 0.366105
O O12 0.117795 0.990872 0.344777
O O13 0.452320 0.846092 0.335944
O O14 0.402525 0.834610 0.454017
O O15 0.986060 0.937473 0.790882
O O16 0.750000 0.750000 0.948782
#
# Coordination Sequence:
#
# PCOD9371893 Si02
#       8
#    16  16  16  16  16  16  16   8
#     4  12  28  49  75 112 156 197 257 322 391 466
#     4  11  27  46  76 107 149 195 258 316 379 460
#     4  11  27  52  69 113 149 197 257 317 386 468
#     4  10  23  47  67 106 139 192 244 303 376 459
#     4  12  27  44  76 110 146 201 250 317 388 453
#     4  11  26  43  75 102 148 193 250 304 387 455
#     4  10  23  44  66  98 146 185 243 301 367 458
#     4  10  26  44  78 100 140 186 250 308 382 442
#
# _framework density 21.396846
#
# number of rings (size 3 to 8) (size 9 to 14) (size 15 to 20)
#    0.000    1.067    2.667    1.600   14.933    1.067 
#    2.400    0.000    0.000    0.000    0.000    0.000 
#    0.000    0.000    0.000    0.000    0.000    0.000 
#
# Total GULP energy -167116.415708 kJ/mol
# GULP energy per Si atom -5570.547190 kJ/mol
# Density = 2.134815 g / cm^3
# Si number density = 21.396846 Si / 1000 Ang^3
#
#
#
# Elastic Constant Matrix: (Units=GPa)
#
#
# Indices 1 2 3 4 5 6 
#
# 1 164.9527 55.8968 33.9091 0.0000 0.0000 0.0000
# 2 55.8968 118.8379 34.4373 0.0000 0.0000 0.0000
# 3 33.9091 34.4373 51.1755 0.0000 0.0000 0.0000
# 4 0.0000 0.0000 0.0000 34.9301 0.0000 0.0000
# 5 0.0000 0.0000 0.0000 0.0000 23.8114 0.0000
# 6 0.0000 0.0000 0.0000 0.0000 0.0000 27.8434
#
#
#
# Elastic Compliance Matrix: (Units=1/GPa)
#
#
# Indices 1 2 3 4 5 6 
#
# 1 0.007631 -0.002639 -0.003281 0.000000 0.000000 0.000000
# 2 -0.002639 0.011366 -0.005900 0.000000 0.000000 0.000000
# 3 -0.003281 -0.005900 0.025685 0.000000 0.000000 0.000000
# 4 0.000000 0.000000 0.000000 0.028629 0.000000 0.000000
# 5 0.000000 0.000000 0.000000 0.000000 0.041997 0.000000
# 6 0.000000 0.000000 0.000000 0.000000 0.000000 0.035915
#
#
# Mechanical properties :
#
#
# Convention : Reuss Voigt Hill
#
# Bulk Modulus (GPa) = 47.52221 64.82805 56.17513
# Shear Modulus (GPa) = 27.49155 31.36517 29.42836
#
# Velocity S-wave (km/s) = 3.58836 3.83283 3.71261
# Velocity P-wave (km/s) = 6.27906 7.06762 6.68497
#
# Compressibility (1/GPa) = 0.02104279
#
# Stress axis : x y z
#
# Youngs Moduli (GPa) = 131.04656 87.98487 38.93389
#
# Poissons Ratio (x) = 0.23216 0.12773
# Poissons Ratio (y) = 0.34578 0.22970
# Poissons Ratio (z) = 0.42992 0.51910
#
# Static dielectric constant tensor:
#      x y z
#    x 1.821170 0.000000 0.000000 
#    y 0.000000 2.078370 0.000000 
#    z 0.000000 0.000000 1.852170 
# 
# From -- ./inp_files/21236.got.cif
#   From: 2010.05.17/outbox.cif.g08.bks.cpg/sg43_11_cif.got.tgz:21236.got - 2010.06.03 19:21:55.
