data_PCOD9371928
_publ_section_title
;
Structure prediction by ZEFSAII (Michael W. Deem and Ramdas Pophale) SiO2 
 PCOD9371928
Probable space group: F D D 2
;
_chemical_formula_sum "Si O2"
_cell_formula_units_Z 120
_cell_length_a 22.541964
_cell_length_b 9.490992
_cell_length_c 25.589864
_cell_angle_alpha 90.000000
_cell_angle_beta 90.000000
_cell_angle_gamma 90.000000
_cell_volume 5474.838807
_symmetry_space_group_name_H-M "F D D 2"
_symmetry_group_IT_number 43
_symmetry_cell_setting 'orthorhombic'
loop_
_space_group_symop_operation_xyz
x,y,z
-x,-y,z
1/4-x,1/4+y,1/4+z
1/4+x,1/4-y,1/4+z
x,1/2+y,1/2+z
-x,1/2-y,1/2+z
1/4-x,3/4+y,3/4+z
1/4+x,3/4-y,3/4+z
1/2+x,y,1/2+z
1/2-x,-y,1/2+z
3/4-x,1/4+y,3/4+z
3/4+x,1/4-y,3/4+z
1/2+x,1/2+y,z
1/2-x,1/2-y,z
3/4-x,3/4+y,1/4+z
3/4+x,3/4-y,1/4+z
loop_
_atom_site_type_symbol
_atom_site_label
_atom_site_fract_x
_atom_site_fract_y
_atom_site_fract_z
Si Si1 0.954819 0.365705 0.035580
Si Si2 0.880516 0.290574 0.218966
Si Si3 0.155605 0.601189 0.870725
Si Si4 0.747885 0.515407 0.013441
Si Si5 0.702317 0.947098 0.226082
Si Si6 0.119673 0.863189 0.806347
Si Si7 0.945105 0.895882 0.857457
Si Si8 0.500000 0.500000 0.197257
O O1 0.938812 0.261168 0.083205
O O2 0.000000 0.500000 0.046905
O O3 0.895095 0.428134 0.010226
O O4 0.986199 0.268816 0.991561
O O5 0.866287 0.237889 0.161012
O O6 0.950272 0.318281 0.225016
O O7 0.845797 0.430493 0.230203
O O8 0.119108 0.723003 0.841626
O O9 0.200908 0.684585 0.908945
O O10 0.688312 0.603973 0.019846
O O11 0.784326 0.520061 0.068657
O O12 0.728125 0.370055 0.987001
O O13 0.679855 0.848302 0.272945
O O14 0.695370 0.889527 0.168225
O O15 0.111300 0.009643 0.838760
O O16 0.000000 0.000000 0.850859
#
# Coordination Sequence:
#
# PCOD9371928 Si02
#       8
#    16  16  16  16  16  16  16   8
#     4  10  25  47  66  99 142 180 233 293 348 423
#     4  10  24  44  64 100 132 178 237 277 348 422
#     4  11  25  42  70 102 136 181 228 288 355 407
#     4  10  23  45  64  94 141 174 230 283 340 417
#     4  11  24  42  71  95 136 180 228 288 343 421
#     4  11  25  41  69 102 136 178 228 287 346 418
#     4  10  24  42  65  99 134 180 226 278 349 422
#     4  10  24  44  66 100 136 178 234 280 340 424
#
# _framework density 21.918453
#
# number of rings (size 3 to 8) (size 9 to 14) (size 15 to 20)
#    0.000    1.600    1.333    0.800   13.067    0.000 
#    6.000    0.000    0.000    0.000    0.000    0.000 
#    0.000    0.000    0.000    0.000    0.000    0.000 
#
# Total GULP energy -167231.649552 kJ/mol
# GULP energy per Si atom -5574.388318 kJ/mol
# Density = 2.186857 g / cm^3
# Si number density = 21.918453 Si / 1000 Ang^3
#
#
#
# Elastic Constant Matrix: (Units=GPa)
#
#
# Indices 1 2 3 4 5 6 
#
# 1 60.6847 16.9979 14.2214 0.0000 0.0000 0.0000
# 2 16.9979 75.5898 52.3618 0.0000 0.0000 0.0000
# 3 14.2214 52.3618 116.9684 0.0000 0.0000 0.0000
# 4 0.0000 0.0000 0.0000 45.1082 0.0000 0.0000
# 5 0.0000 0.0000 0.0000 0.0000 26.7571 0.0000
# 6 0.0000 0.0000 0.0000 0.0000 0.0000 21.8303
#
#
#
# Elastic Compliance Matrix: (Units=1/GPa)
#
#
# Indices 1 2 3 4 5 6 
#
# 1 0.017609 -0.003590 -0.000534 0.000000 0.000000 0.000000
# 2 -0.003590 0.019907 -0.008475 0.000000 0.000000 0.000000
# 3 -0.000534 -0.008475 0.012408 0.000000 0.000000 0.000000
# 4 0.000000 0.000000 0.000000 0.022169 0.000000 0.000000
# 5 0.000000 0.000000 0.000000 0.000000 0.037373 0.000000
# 6 0.000000 0.000000 0.000000 0.000000 0.000000 0.045808
#
#
# Mechanical properties :
#
#
# Convention : Reuss Voigt Hill
#
# Bulk Modulus (GPa) = 40.44202 46.71167 43.57685
# Shear Modulus (GPa) = 26.49488 30.04990 28.27239
#
# Velocity S-wave (km/s) = 3.48054 3.70670 3.59540
# Velocity P-wave (km/s) = 5.88587 6.29900 6.09593
#
# Compressibility (1/GPa) = 0.02472676
#
# Stress axis : x y z
#
# Youngs Moduli (GPa) = 56.78815 50.23238 80.59148
#
# Poissons Ratio (x) = 0.18033 0.04303
# Poissons Ratio (y) = 0.20387 0.68303
# Poissons Ratio (z) = 0.03032 0.42573
#
# Static dielectric constant tensor:
#      x y z
#    x 1.808770 0.000000 0.000000 
#    y 0.000000 1.886630 0.000000 
#    z 0.000000 0.000000 1.836400 
# 
# From -- ./inp_files/22837.got.cif
#   From: 2010.05.17/outbox.cif.g08.bks.cpg/sg43_12_cif.got.tgz:22837.got - 2010.06.03 19:21:55.
