data_PCOD9371452
_publ_section_title
;
Structure prediction by ZEFSAII (Michael W. Deem and Ramdas Pophale) SiO2 
 PCOD9371452
Probable space group: F D D 2
;
_chemical_formula_sum "Si O2"
_cell_formula_units_Z 96
_cell_length_a 15.681080
_cell_length_b 24.578539
_cell_length_c 9.588600
_cell_angle_alpha 90.000000
_cell_angle_beta 90.000000
_cell_angle_gamma 90.000000
_cell_volume 3695.619383
_symmetry_space_group_name_H-M "F D D 2"
_symmetry_group_IT_number 43
_symmetry_cell_setting 'orthorhombic'
loop_
_space_group_symop_operation_xyz
x,y,z
-x,-y,z
1/4-x,1/4+y,1/4+z
1/4+x,1/4-y,1/4+z
x,1/2+y,1/2+z
-x,1/2-y,1/2+z
1/4-x,3/4+y,3/4+z
1/4+x,3/4-y,3/4+z
1/2+x,y,1/2+z
1/2-x,-y,1/2+z
3/4-x,1/4+y,3/4+z
3/4+x,1/4-y,3/4+z
1/2+x,1/2+y,z
1/2-x,1/2-y,z
3/4-x,3/4+y,1/4+z
3/4+x,3/4-y,1/4+z
loop_
_atom_site_type_symbol
_atom_site_label
_atom_site_fract_x
_atom_site_fract_y
_atom_site_fract_z
Si Si1 0.919404 0.294361 0.017850
Si Si2 0.879771 0.470178 0.524197
Si Si3 0.576299 0.054332 0.229861
Si Si4 0.485222 0.415227 0.250009
Si Si5 0.303404 0.876155 0.380795
Si Si6 0.826642 0.944756 0.447887
O O1 0.018397 0.432026 0.176385
O O2 0.955667 0.247796 0.118432
O O3 0.822256 0.308640 0.059488
O O4 0.979945 0.345808 0.036378
O O5 0.906902 0.481974 0.365500
O O6 0.819491 0.416672 0.510691
O O7 0.838469 0.517813 0.614891
O O8 0.960112 0.447000 0.609650
O O9 0.611538 0.113143 0.290736
O O10 0.633960 0.040513 0.097814
O O11 0.404797 0.423809 0.350143
O O12 0.510243 0.354025 0.212153
#
# Coordination Sequence:
#
# PCOD9371452 Si02
#       6
#    16  16  16  16  16  16
#     4  11  24  43  67  96 134 171 226 265 333 402
#     4   9  24  40  66  94 133 169 217 277 318 390
#     4  10  22  40  65  98 127 171 220 269 329 382
#     4  11  24  43  67  96 131 174 223 270 334 398
#     4  10  23  39  69  93 134 166 218 277 317 400
#     4  11  23  41  69  95 128 181 214 273 334 394
#
# _framework density 25.976700000000001
#
# number of rings (size 3 to 8) (size 9 to 14) (size 15 to 20)
#    1.000    0.667    1.667    3.000    7.000    0.000 
#    0.000    3.333   11.000    0.000    0.000    0.000 
#    0.000    0.000    0.000    0.000    0.000    0.000 
#
# Total GULP energy -134306.033819 kJ/mol
# GULP energy per Si atom -5596.084742 kJ/mol
# Density = 2.591758 g / cm^3
# Si number density = 25.976700 Si / 1000 Ang^3
#
#
#
# Elastic Constant Matrix: (Units=GPa)
#
#
# Indices 1 2 3 4 5 6 
#
# 1 77.4773 6.1473 7.4422 0.0000 0.0000 0.0000
# 2 6.1473 81.6214 39.6234 0.0000 0.0000 0.0000
# 3 7.4422 39.6234 158.4302 0.0000 0.0000 0.0000
# 4 0.0000 0.0000 0.0000 41.8013 0.0000 0.0000
# 5 0.0000 0.0000 0.0000 0.0000 35.8901 0.0000
# 6 0.0000 0.0000 0.0000 0.0000 0.0000 49.1440
#
#
#
# Elastic Compliance Matrix: (Units=1/GPa)
#
#
# Indices 1 2 3 4 5 6 
#
# 1 0.013009 -0.000777 -0.000417 0.000000 0.000000 0.000000
# 2 -0.000777 0.013991 -0.003463 0.000000 0.000000 0.000000
# 3 -0.000417 -0.003463 0.007198 0.000000 0.000000 0.000000
# 4 0.000000 0.000000 0.000000 0.023923 0.000000 0.000000
# 5 0.000000 0.000000 0.000000 0.000000 0.027863 0.000000
# 6 0.000000 0.000000 0.000000 0.000000 0.000000 0.020348
#
#
# Mechanical properties :
#
#
# Convention : Reuss Voigt Hill
#
# Bulk Modulus (GPa) = 40.18670 47.10605 43.64637
# Shear Modulus (GPa) = 40.34223 42.98814 41.66519
#
# Velocity S-wave (km/s) = 3.94511 4.07243 4.00927
# Velocity P-wave (km/s) = 6.02127 6.34714 6.18635
#
# Compressibility (1/GPa) = 0.02488386
#
# Stress axis : x y z
#
# Youngs Moduli (GPa) = 76.87153 71.47338 138.93678
#
# Poissons Ratio (x) = 0.05557 0.05788
# Poissons Ratio (y) = 0.05977 0.48109
# Poissons Ratio (z) = 0.03203 0.24749
#
# Static dielectric constant tensor:
#      x y z
#    x 2.075480 0.000000 0.000000 
#    y 0.000000 2.035590 0.000000 
#    z 0.000000 0.000000 2.028180 
# 
# From -- ./inp_files/3794.got.cif
#   From: 2010.05.17/outbox.cif.g08.bks.cpg/sg43_2_cif.got.tgz:3794.got - 2010.06.03 19:21:55.
