data_PCOD9371309
_publ_section_title
;
Structure prediction by ZEFSAII (Michael W. Deem and Ramdas Pophale) SiO2 
 PCOD9371309
Probable space group: F D D 2
;
_chemical_formula_sum "Si O2"
_cell_formula_units_Z 88
_cell_length_a 10.444295
_cell_length_b 23.610659
_cell_length_c 16.539499
_cell_angle_alpha 90.000000
_cell_angle_beta 90.000000
_cell_angle_gamma 90.000000
_cell_volume 4078.585670
_symmetry_space_group_name_H-M "F D D 2"
_symmetry_group_IT_number 43
_symmetry_cell_setting 'orthorhombic'
loop_
_space_group_symop_operation_xyz
x,y,z
-x,-y,z
1/4-x,1/4+y,1/4+z
1/4+x,1/4-y,1/4+z
x,1/2+y,1/2+z
-x,1/2-y,1/2+z
1/4-x,3/4+y,3/4+z
1/4+x,3/4-y,3/4+z
1/2+x,y,1/2+z
1/2-x,-y,1/2+z
3/4-x,1/4+y,3/4+z
3/4+x,1/4-y,3/4+z
1/2+x,1/2+y,z
1/2-x,1/2-y,z
3/4-x,3/4+y,1/4+z
3/4+x,3/4-y,1/4+z
loop_
_atom_site_type_symbol
_atom_site_label
_atom_site_fract_x
_atom_site_fract_y
_atom_site_fract_z
Si Si1 0.500000 0.000000 0.390750
Si Si2 0.998299 0.791886 0.958933
Si Si3 0.196652 0.561446 0.294650
Si Si4 0.250000 0.250000 0.865886
Si Si5 0.399954 0.647126 0.358060
Si Si6 0.346790 0.338190 0.257724
Si Si7 0.500000 0.000000 0.623070
O O1 0.562463 0.050831 0.339057
O O2 0.398126 0.034272 0.446945
O O3 0.114830 0.758673 0.916237
O O4 0.860651 0.782363 0.916638
O O5 0.031820 0.856790 0.969976
O O6 0.989564 0.754137 0.038825
O O7 0.300554 0.596498 0.344403
O O8 0.177497 0.587942 0.203472
O O9 0.327547 0.201914 0.821103
O O10 0.525853 0.641144 0.303681
O O11 0.260057 0.309019 0.325714
#
# Coordination Sequence:
#
# PCOD9371309 Si02
#       7
#     8  16  16   8  16  16   8
#     4  11  27  44  70 106 144 188 248 281 365 428
#     4  11  23  43  73  98 146 184 236 291 362 418
#     4  11  24  46  68 104 142 187 235 295 356 428
#     4  10  21  44  65 103 139 194 216 300 349 424
#     4  11  24  45  71 103 145 187 240 290 361 421
#     4  11  25  44  73 105 139 189 242 292 349 436
#     4  11  22  46  69 105 137 192 236 297 348 424
#
# _framework density 21.576107
#
# number of rings (size 3 to 8) (size 9 to 14) (size 15 to 20)
#    0.000    1.091    3.636    4.364    2.545    1.455 
#    9.818    0.000    0.000    0.000    0.000    0.000 
#    0.000    0.000    0.000    0.000    0.000    0.000 
#
# Total GULP energy -122501.209280 kJ/mol
# GULP energy per Si atom -5568.236785 kJ/mol
# Density = 2.152700 g / cm^3
# Si number density = 21.576107 Si / 1000 Ang^3
#
#
#
# Elastic Constant Matrix: (Units=GPa)
#
#
# Indices 1 2 3 4 5 6 
#
# 1 117.5176 15.5170 33.9702 0.0000 0.0000 0.0000
# 2 15.5170 81.7390 -3.3282 0.0000 0.0000 0.0000
# 3 33.9702 -3.3282 56.1908 0.0000 0.0000 0.0000
# 4 0.0000 0.0000 0.0000 -33.7090 0.0000 0.0000
# 5 0.0000 0.0000 0.0000 0.0000 20.4904 0.0000
# 6 0.0000 0.0000 0.0000 0.0000 0.0000 43.4812
#
#
#
# Elastic Compliance Matrix: (Units=1/GPa)
#
#
# Indices 1 2 3 4 5 6 
#
# 1 0.010728 -0.002306 -0.006622 0.000000 0.000000 0.000000
# 2 -0.002306 0.012759 0.002150 0.000000 0.000000 0.000000
# 3 -0.006622 0.002150 0.021927 0.000000 0.000000 0.000000
# 4 0.000000 0.000000 0.000000 -0.029666 0.000000 0.000000
# 5 0.000000 0.000000 0.000000 0.000000 0.048803 0.000000
# 6 0.000000 0.000000 0.000000 0.000000 0.000000 0.022998
#
#
# Mechanical properties :
#
#
# Convention : Reuss Voigt Hill
#
# Bulk Modulus (GPa) = 31.38946 38.64058 35.01502
# Shear Modulus (GPa) = 44.75171 20.00507 32.37839
#
# Velocity S-wave (km/s) = 4.55921 3.04828 3.87804
# Velocity P-wave (km/s) = 6.50346 5.50792 6.02628
#
# Compressibility (1/GPa) = 0.03185783
#
# Stress axis : x y z
#
# Youngs Moduli (GPa) = 93.21264 78.37351 45.60508
#
# Poissons Ratio (x) = 0.18075 0.30201
# Poissons Ratio (y) = 0.21497 -0.09805
# Poissons Ratio (z) = 0.61728 -0.16850
#
# Static dielectric constant tensor:
#      x y z
#    x 1.209340 0.000000 0.000000 
#    y 0.000000 1.815750 0.000000 
#    z 0.000000 0.000000 1.912680 
# 
# From -- ./inp_files/9612.got.cif
#   From: 2010.05.17/outbox.cif.g08.bks.cpg/sg43_5_cif.got.tgz:9612.got - 2010.06.03 19:21:55.
