data_PCOD9371495
_publ_section_title
;
Structure prediction by ZEFSAII (Michael W. Deem and Ramdas Pophale) SiO2 
 PCOD9371495
Probable space group: F D D 2
;
_chemical_formula_sum "Si O2"
_cell_formula_units_Z 112
_cell_length_a 14.793096
_cell_length_b 16.460099
_cell_length_c 21.458724
_cell_angle_alpha 90.000000
_cell_angle_beta 90.000000
_cell_angle_gamma 90.000000
_cell_volume 5225.109697
_symmetry_space_group_name_H-M "F D D 2"
_symmetry_group_IT_number 43
_symmetry_cell_setting 'orthorhombic'
loop_
_space_group_symop_operation_xyz
x,y,z
-x,-y,z
1/4-x,1/4+y,1/4+z
1/4+x,1/4-y,1/4+z
x,1/2+y,1/2+z
-x,1/2-y,1/2+z
1/4-x,3/4+y,3/4+z
1/4+x,3/4-y,3/4+z
1/2+x,y,1/2+z
1/2-x,-y,1/2+z
3/4-x,1/4+y,3/4+z
3/4+x,1/4-y,3/4+z
1/2+x,1/2+y,z
1/2-x,1/2-y,z
3/4-x,3/4+y,1/4+z
3/4+x,3/4-y,1/4+z
loop_
_atom_site_type_symbol
_atom_site_label
_atom_site_fract_x
_atom_site_fract_y
_atom_site_fract_z
Si Si1 0.256710 0.089689 0.685510
Si Si2 0.193207 0.073300 0.005595
Si Si3 0.153544 0.128286 0.532387
Si Si4 0.656927 0.393100 0.049229
Si Si5 0.999676 0.329580 0.114041
Si Si6 0.471242 0.303720 0.011164
Si Si7 0.114127 0.435896 0.032694
O O1 0.342630 0.083184 0.730280
O O2 0.300942 0.111747 0.619568
O O3 0.189879 0.152514 0.721692
O O4 0.217581 0.998993 0.696649
O O5 0.227067 0.061372 0.934545
O O6 0.112650 0.136286 0.009866
O O7 0.285909 0.102003 0.038629
O O8 0.157386 0.988112 0.032414
O O9 0.256282 0.145944 0.515885
O O10 0.106513 0.159131 0.596441
O O11 0.134753 0.031531 0.530005
O O12 0.564301 0.351343 0.028360
O O13 0.037236 0.260193 0.068002
O O14 0.051038 0.409984 0.089937
#
# Coordination Sequence:
#
# PCOD9371495 Si02
#       7
#    16  16  16  16  16  16  16
#     4  10  22  41  64  93 126 155 206 262 305 371
#     4  11  24  41  63  91 123 169 204 253 311 366
#     4   9  20  41  65  99 120 157 201 259 323 360
#     4  11  24  41  63  91 123 169 204 253 311 366
#     4  10  22  41  64  93 126 155 206 262 305 371
#     4  10  25  44  59  94 122 166 216 242 313 378
#     4   9  20  41  65  99 120 157 201 259 323 360
#
# _framework density 21.434957000000001
#
# number of rings (size 3 to 8) (size 9 to 14) (size 15 to 20)
#    0.000    2.286    0.000    3.000    8.000    5.714 
#   15.429    0.000    0.000    0.000    0.000    0.000 
#    0.000    0.000    0.000    0.000    0.000    0.000 
#
# Total GULP energy -156072.537512 kJ/mol
# GULP energy per Si atom -5574.019197 kJ/mol
# Density = 2.138617 g / cm^3
# Si number density = 21.434957 Si / 1000 Ang^3
#
#
#
# Elastic Constant Matrix: (Units=GPa)
#
#
# Indices 1 2 3 4 5 6 
#
# 1 104.4543 6.7301 -18.3186 0.0000 0.0000 0.0000
# 2 6.7301 43.7858 -4.4455 0.0000 0.0000 0.0000
# 3 -18.3186 -4.4455 28.3405 0.0000 0.0000 0.0000
# 4 0.0000 0.0000 0.0000 15.6231 0.0000 0.0000
# 5 0.0000 0.0000 0.0000 0.0000 -55.0471 0.0000
# 6 0.0000 0.0000 0.0000 0.0000 0.0000 31.7508
#
#
#
# Elastic Compliance Matrix: (Units=1/GPa)
#
#
# Indices 1 2 3 4 5 6 
#
# 1 0.010838 -0.000970 0.006853 0.000000 0.000000 0.000000
# 2 -0.000970 0.023295 0.003027 0.000000 0.000000 0.000000
# 3 0.006853 0.003027 0.040190 0.000000 0.000000 0.000000
# 4 0.000000 0.000000 0.000000 0.064008 0.000000 0.000000
# 5 0.000000 0.000000 0.000000 0.000000 -0.018166 0.000000
# 6 0.000000 0.000000 0.000000 0.000000 0.000000 0.031495
#
#
# Mechanical properties :
#
#
# Convention : Reuss Voigt Hill
#
# Bulk Modulus (GPa) = 10.85269 16.05694 13.45482
# Shear Modulus (GPa) = 30.38530 11.30634 20.84582
#
# Velocity S-wave (km/s) = 3.76913 2.29917 3.12190
# Velocity P-wave (km/s) = 4.90060 3.81517 4.39155
#
# Compressibility (1/GPa) = 0.09214303
#
# Stress axis : x y z
#
# Youngs Moduli (GPa) = 92.26840 42.92787 24.88196
#
# Poissons Ratio (x) = 0.04164 -0.17052
# Poissons Ratio (y) = 0.08950 -0.07532
# Poissons Ratio (z) = -0.63234 -0.12994
#
# Static dielectric constant tensor:
#      x y z
#    x 1.822990 0.000000 0.000000 
#    y 0.000000 1.814800 0.000000 
#    z 0.000000 0.000000 1.878520 
# 
# From -- ./inp_files/21739.got.cif
#   From: 2010.05.17/outbox.cif.g08.bks.cpg/sg43_11_cif.got.tgz:21739.got - 2010.06.03 19:21:55.
