data_PCOD9371302
_publ_section_title
;
Structure prediction by ZEFSAII (Michael W. Deem and Ramdas Pophale) SiO2 
 PCOD9371302
Probable space group: F D D 2
;
_chemical_formula_sum "Si O2"
_cell_formula_units_Z 112
_cell_length_a 26.938159
_cell_length_b 16.635892
_cell_length_c 11.092008
_cell_angle_alpha 90.000000
_cell_angle_beta 90.000000
_cell_angle_gamma 90.000000
_cell_volume 4970.775835
_symmetry_space_group_name_H-M "F D D 2"
_symmetry_group_IT_number 43
_symmetry_cell_setting 'orthorhombic'
loop_
_space_group_symop_operation_xyz
x,y,z
-x,-y,z
1/4-x,1/4+y,1/4+z
1/4+x,1/4-y,1/4+z
x,1/2+y,1/2+z
-x,1/2-y,1/2+z
1/4-x,3/4+y,3/4+z
1/4+x,3/4-y,3/4+z
1/2+x,y,1/2+z
1/2-x,-y,1/2+z
3/4-x,1/4+y,3/4+z
3/4+x,1/4-y,3/4+z
1/2+x,1/2+y,z
1/2-x,1/2-y,z
3/4-x,3/4+y,1/4+z
3/4+x,3/4-y,1/4+z
loop_
_atom_site_type_symbol
_atom_site_label
_atom_site_fract_x
_atom_site_fract_y
_atom_site_fract_z
Si Si1 0.991944 0.672320 0.402200
Si Si2 0.250000 0.750000 0.741474
Si Si3 0.000000 0.500000 0.076004
Si Si4 0.841336 0.989857 0.307824
Si Si5 0.348861 0.664069 0.836695
Si Si6 0.088275 0.739810 0.485836
Si Si7 0.443850 0.150869 0.171155
Si Si8 0.850195 0.179988 0.286022
O O1 0.980846 0.577506 0.418342
O O2 0.963574 0.714934 0.512913
O O3 0.972618 0.700456 0.273342
O O4 0.049927 0.689163 0.406335
O O5 0.297716 0.711415 0.810281
O O6 0.024813 0.430510 0.156534
O O7 0.045524 0.538159 0.001886
O O8 0.847115 0.085629 0.313016
O O9 0.874965 0.954985 0.199164
O O10 0.860524 0.950034 0.431046
O O11 0.343136 0.567816 0.853232
O O12 0.387664 0.655166 0.724260
O O13 0.060482 0.817186 0.536643
O O14 0.133033 0.771705 0.405941
#
# Coordination Sequence:
#
# PCOD9371302 Si02
#       8
#    16   8   8  16  16  16  16  16
#     4  10  24  42  71 102 138 184 230 307 355 436
#     4  10  21  43  72 108 140 177 243 300 374 408
#     4  12  25  45  70 102 142 197 231 300 360 438
#     4  11  26  46  70 106 144 187 237 297 371 433
#     4  10  24  44  72 103 137 188 237 305 353 443
#     4  11  25  44  69 101 140 186 244 296 359 438
#     4  11  24  42  70 100 137 184 241 290 363 433
#     4  12  27  45  71 102 149 189 243 298 369 438
#
# _framework density 22.531693000000001
#
# number of rings (size 3 to 8) (size 9 to 14) (size 15 to 20)
#    0.000    1.143    1.429    3.000   12.000    1.714 
#    0.000    0.000    0.000    0.000    0.000    0.000 
#    0.000    0.000    0.000    0.000    0.000    0.000 
#
# Total GULP energy -156180.863162 kJ/mol
# GULP energy per Si atom -5577.887970 kJ/mol
# Density = 2.248041 g / cm^3
# Si number density = 22.531693 Si / 1000 Ang^3
#
#
#
# Elastic Constant Matrix: (Units=GPa)
#
#
# Indices 1 2 3 4 5 6 
#
# 1 87.1034 17.8909 -1.1969 0.0000 0.0000 0.0000
# 2 17.8909 112.8384 6.6328 0.0000 0.0000 0.0000
# 3 -1.1969 6.6328 30.1958 0.0000 0.0000 0.0000
# 4 0.0000 0.0000 0.0000 25.4503 0.0000 0.0000
# 5 0.0000 0.0000 0.0000 0.0000 16.1962 0.0000
# 6 0.0000 0.0000 0.0000 0.0000 0.0000 34.1960
#
#
#
# Elastic Compliance Matrix: (Units=1/GPa)
#
#
# Indices 1 2 3 4 5 6 
#
# 1 0.011891 -0.001938 0.000897 0.000000 0.000000 0.000000
# 2 -0.001938 0.009294 -0.002118 0.000000 0.000000 0.000000
# 3 0.000897 -0.002118 0.033618 0.000000 0.000000 0.000000
# 4 0.000000 0.000000 0.000000 0.039292 0.000000 0.000000
# 5 0.000000 0.000000 0.000000 0.000000 0.061743 0.000000
# 6 0.000000 0.000000 0.000000 0.000000 0.000000 0.029243
#
#
# Mechanical properties :
#
#
# Convention : Reuss Voigt Hill
#
# Bulk Modulus (GPa) = 20.62521 30.75457 25.68989
# Shear Modulus (GPa) = 24.08922 28.95587 26.52254
#
# Velocity S-wave (km/s) = 3.27330 3.58874 3.43464
# Velocity P-wave (km/s) = 4.84352 5.55439 5.21109
#
# Compressibility (1/GPa) = 0.04848436
#
# Stress axis : x y z
#
# Youngs Moduli (GPa) = 84.09709 107.59579 29.74592
#
# Poissons Ratio (x) = 0.20853 -0.02668
# Poissons Ratio (y) = 0.16299 0.06301
# Poissons Ratio (z) = -0.07544 0.22792
#
# Static dielectric constant tensor:
#      x y z
#    x 1.911890 0.000000 0.000000 
#    y 0.000000 1.926470 0.000000 
#    z 0.000000 0.000000 1.816790 
# 
# From -- ./inp_files/6347.got.cif
#   From: 2010.05.17/outbox.cif.g08.bks.cpg/sg43_4_cif.got.tgz:6347.got - 2010.06.03 19:21:55.
