data_PCOD9371180
_publ_section_title
;
Structure prediction by ZEFSAII (Michael W. Deem and Ramdas Pophale) SiO2 
 PCOD9371180
Probable space group: F D D 2
;
_chemical_formula_sum "Si O2"
_cell_formula_units_Z 112
_cell_length_a 16.960897
_cell_length_b 22.222415
_cell_length_c 13.634185
_cell_angle_alpha 90.000000
_cell_angle_beta 90.000000
_cell_angle_gamma 90.000000
_cell_volume 5138.889190
_symmetry_space_group_name_H-M "F D D 2"
_symmetry_group_IT_number 43
_symmetry_cell_setting 'orthorhombic'
loop_
_space_group_symop_operation_xyz
x,y,z
-x,-y,z
1/4-x,1/4+y,1/4+z
1/4+x,1/4-y,1/4+z
x,1/2+y,1/2+z
-x,1/2-y,1/2+z
1/4-x,3/4+y,3/4+z
1/4+x,3/4-y,3/4+z
1/2+x,y,1/2+z
1/2-x,-y,1/2+z
3/4-x,1/4+y,3/4+z
3/4+x,1/4-y,3/4+z
1/2+x,1/2+y,z
1/2-x,1/2-y,z
3/4-x,3/4+y,1/4+z
3/4+x,3/4-y,1/4+z
loop_
_atom_site_type_symbol
_atom_site_label
_atom_site_fract_x
_atom_site_fract_y
_atom_site_fract_z
Si Si1 0.395532 0.250205 0.932120
Si Si2 0.775197 0.422469 0.594841
Si Si3 0.104385 0.453167 0.381779
Si Si4 0.934711 0.460973 0.993896
Si Si5 0.287006 0.076515 0.721613
Si Si6 0.978305 0.744138 0.660549
Si Si7 0.663511 0.237182 0.855485
O O1 0.451445 0.308884 0.914160
O O2 0.333624 0.244433 0.845903
O O3 0.456472 0.194500 0.918531
O O4 0.355969 0.251616 0.038767
O O5 0.801215 0.353404 0.599747
O O6 0.752158 0.455023 0.491862
O O7 0.854868 0.457238 0.624853
O O8 0.199435 0.447635 0.398176
O O9 0.078827 0.475898 0.488677
O O10 0.000000 0.500000 0.938341
O O11 0.965757 0.394184 0.007314
O O12 0.851199 0.461657 0.940580
O O13 0.288273 0.030648 0.811988
O O14 0.363390 0.066512 0.654049
O O15 0.750000 0.250000 0.895799
#
# Coordination Sequence:
#
# PCOD9371180 Si02
#       7
#    16  16  16  16  16  16  16
#     4   9  22  44  61  95 130 167 222 270 328 399
#     4   9  20  39  65  89 126 169 209 264 333 381
#     4  10  21  40  69  89 130 174 204 281 330 378
#     4  11  25  41  66  97 125 174 224 268 335 405
#     4  10  23  43  65  86 135 171 207 280 324 390
#     4   9  22  44  60  97 130 165 224 266 329 400
#     4  10  23  39  59 103 123 161 223 257 325 403
#
# _framework density 21.794592999999999
#
# number of rings (size 3 to 8) (size 9 to 14) (size 15 to 20)
#    0.000    2.286    0.000    0.857    8.000    3.429 
#    0.000    0.000    0.000    0.000    0.000    0.000 
#    0.000    0.000    0.000    0.000    0.000    0.000 
#
# Total GULP energy -156174.129538 kJ/mol
# GULP energy per Si atom -5577.647483 kJ/mol
# Density = 2.174499 g / cm^3
# Si number density = 21.794593 Si / 1000 Ang^3
#
#
#
# Elastic Constant Matrix: (Units=GPa)
#
#
# Indices 1 2 3 4 5 6 
#
# 1 121.1104 42.7436 16.3717 0.0000 0.0000 0.0000
# 2 42.7436 81.8238 5.7103 0.0000 0.0000 0.0000
# 3 16.3717 5.7103 56.7611 0.0000 0.0000 0.0000
# 4 0.0000 0.0000 0.0000 6.0506 0.0000 0.0000
# 5 0.0000 0.0000 0.0000 0.0000 -11.4041 0.0000
# 6 0.0000 0.0000 0.0000 0.0000 0.0000 -6.0155
#
#
#
# Elastic Compliance Matrix: (Units=1/GPa)
#
#
# Indices 1 2 3 4 5 6 
#
# 1 0.010460 -0.005291 -0.002485 0.000000 0.000000 0.000000
# 2 -0.005291 0.014984 0.000019 0.000000 0.000000 0.000000
# 3 -0.002485 0.000019 0.018333 0.000000 0.000000 0.000000
# 4 0.000000 0.000000 0.000000 0.165274 0.000000 0.000000
# 5 0.000000 0.000000 0.000000 0.000000 -0.087687 0.000000
# 6 0.000000 0.000000 0.000000 0.000000 0.000000 -0.166237
#
#
# Mechanical properties :
#
#
# Convention : Reuss Voigt Hill
#
# Bulk Modulus (GPa) = 35.38238 43.26072 39.32155
# Shear Modulus (GPa) = -250.75629 10.71750 -120.01940
#
# Velocity S-wave (km/s) = -10.73798 2.21995 -7.42886
# Velocity P-wave (km/s) = 11.72472 5.14425 7.45003
#
# Compressibility (1/GPa) = 0.02826265
#
# Stress axis : x y z
#
# Youngs Moduli (GPa) = 95.60129 66.73816 54.54792
#
# Poissons Ratio (x) = 0.35310 0.13554
# Poissons Ratio (y) = 0.50581 -0.00102
# Poissons Ratio (z) = 0.23755 -0.00124
#
# Static dielectric constant tensor:
#      x y z
#    x 1.818990 0.000000 0.000000 
#    y 0.000000 1.778580 0.000000 
#    z 0.000000 0.000000 1.833020 
# 
# From -- ./inp_files/10174.got.cif
#   From: 2010.05.17/outbox.cif.g08.bks.cpg/sg43_6_cif.got.tgz:10174.got - 2010.06.03 19:21:55.
