data_PCOD9371170
_publ_section_title
;
Structure prediction by ZEFSAII (Michael W. Deem and Ramdas Pophale) SiO2 
 PCOD9371170
Probable space group: F D D 2
;
_chemical_formula_sum "Si O2"
_cell_formula_units_Z 104
_cell_length_a 27.400207
_cell_length_b 17.916760
_cell_length_c 9.454226
_cell_angle_alpha 90.000000
_cell_angle_beta 90.000000
_cell_angle_gamma 90.000000
_cell_volume 4641.296355
_symmetry_space_group_name_H-M "F D D 2"
_symmetry_group_IT_number 43
_symmetry_cell_setting 'orthorhombic'
loop_
_space_group_symop_operation_xyz
x,y,z
-x,-y,z
1/4-x,1/4+y,1/4+z
1/4+x,1/4-y,1/4+z
x,1/2+y,1/2+z
-x,1/2-y,1/2+z
1/4-x,3/4+y,3/4+z
1/4+x,3/4-y,3/4+z
1/2+x,y,1/2+z
1/2-x,-y,1/2+z
3/4-x,1/4+y,3/4+z
3/4+x,1/4-y,3/4+z
1/2+x,1/2+y,z
1/2-x,1/2-y,z
3/4-x,3/4+y,1/4+z
3/4+x,3/4-y,1/4+z
loop_
_atom_site_type_symbol
_atom_site_label
_atom_site_fract_x
_atom_site_fract_y
_atom_site_fract_z
Si Si1 0.033572 0.300283 0.137690
Si Si2 0.113028 0.914016 0.547747
Si Si3 0.500000 0.000000 0.596233
Si Si4 0.421812 0.439211 0.958249
Si Si5 0.110589 0.671235 0.706905
Si Si6 0.796931 0.493652 0.075300
Si Si7 0.916365 0.592712 0.728461
O O1 0.065357 0.376941 0.122674
O O2 0.067084 0.231913 0.197408
O O3 0.986119 0.299964 0.235399
O O4 0.023381 0.276164 0.975889
O O5 0.152803 0.849277 0.569215
O O6 0.146769 0.981241 0.604790
O O7 0.102097 0.925832 0.384542
O O8 0.478143 0.935623 0.497401
O O9 0.545320 0.971645 0.686422
O O10 0.407272 0.525095 0.934506
O O11 0.396254 0.393758 0.090364
O O12 0.122491 0.645592 0.866517
O O13 0.802522 0.418286 0.986161
#
# Coordination Sequence:
#
# PCOD9371170 Si02
#       7
#    16  16   8  16  16  16  16
#     4  10  23  42  65  97 135 179 231 284 340 417
#     4  10  23  44  61 100 138 176 222 288 346 409
#     4  10  22  44  66 100 128 180 232 276 328 422
#     4  10  21  42  67  92 137 174 229 280 339 410
#     4  10  21  40  67  97 130 179 226 280 344 414
#     4  11  23  42  66  97 136 179 233 279 348 416
#     4  10  24  39  69  97 135 179 223 282 347 404
#
# _framework density 22.407533000000001
#
# number of rings (size 3 to 8) (size 9 to 14) (size 15 to 20)
#    0.000    1.846    1.538    0.923    6.462    1.231 
#    5.538    0.000    0.000    0.923    0.000    0.000 
#    0.000    0.000    0.000    0.000    0.000    0.000 
#
# Total GULP energy -144762.071961 kJ/mol
# GULP energy per Si atom -5567.771998 kJ/mol
# Density = 2.235653 g / cm^3
# Si number density = 22.407533 Si / 1000 Ang^3
#
#
#
# Elastic Constant Matrix: (Units=GPa)
#
#
# Indices 1 2 3 4 5 6 
#
# 1 80.7289 25.5050 57.6946 0.0000 0.0000 0.0000
# 2 25.5050 58.5580 17.5828 0.0000 0.0000 0.0000
# 3 57.6946 17.5828 72.2430 0.0000 0.0000 0.0000
# 4 0.0000 0.0000 0.0000 35.0094 0.0000 0.0000
# 5 0.0000 0.0000 0.0000 0.0000 40.0524 0.0000
# 6 0.0000 0.0000 0.0000 0.0000 0.0000 37.2039
#
#
#
# Elastic Compliance Matrix: (Units=1/GPa)
#
#
# Indices 1 2 3 4 5 6 
#
# 1 0.031025 -0.006552 -0.023183 0.000000 0.000000 0.000000
# 2 -0.006552 0.019807 0.000412 0.000000 0.000000 0.000000
# 3 -0.023183 0.000412 0.032256 0.000000 0.000000 0.000000
# 4 0.000000 0.000000 0.000000 0.028564 0.000000 0.000000
# 5 0.000000 0.000000 0.000000 0.000000 0.024967 0.000000
# 6 0.000000 0.000000 0.000000 0.000000 0.000000 0.026879
#
#
# Mechanical properties :
#
#
# Convention : Reuss Voigt Hill
#
# Bulk Modulus (GPa) = 40.91207 45.89943 43.40575
# Shear Modulus (GPa) = 21.71164 29.83630 25.77397
#
# Velocity S-wave (km/s) = 3.11616 3.65297 3.39519
# Velocity P-wave (km/s) = 5.58973 6.19037 5.89770
#
# Compressibility (1/GPa) = 0.02444267
#
# Stress axis : x y z
#
# Youngs Moduli (GPa) = 32.23198 50.48667 31.00206
#
# Poissons Ratio (x) = 0.33080 0.71871
# Poissons Ratio (y) = 0.21119 -0.01277
# Poissons Ratio (z) = 0.74722 -0.02080
#
# Static dielectric constant tensor:
#      x y z
#    x 1.841650 0.000000 0.000000 
#    y 0.000000 1.938100 0.000000 
#    z 0.000000 0.000000 1.885450 
# 
# From -- ./inp_files/3869.got.cif
#   From: 2010.05.17/outbox.cif.g08.bks.cpg/sg43_2_cif.got.tgz:3869.got - 2010.06.03 19:21:55.
