data_PCOD9371252
_publ_section_title
;
Structure prediction by ZEFSAII (Michael W. Deem and Ramdas Pophale) SiO2 
 PCOD9371252
Probable space group: F D D 2
;
_chemical_formula_sum "Si O2"
_cell_formula_units_Z 96
_cell_length_a 21.595495
_cell_length_b 11.645828
_cell_length_c 14.771124
_cell_angle_alpha 90.000000
_cell_angle_beta 90.000000
_cell_angle_gamma 90.000000
_cell_volume 3714.899582
_symmetry_space_group_name_H-M "F D D 2"
_symmetry_group_IT_number 43
_symmetry_cell_setting 'orthorhombic'
loop_
_space_group_symop_operation_xyz
x,y,z
-x,-y,z
1/4-x,1/4+y,1/4+z
1/4+x,1/4-y,1/4+z
x,1/2+y,1/2+z
-x,1/2-y,1/2+z
1/4-x,3/4+y,3/4+z
1/4+x,3/4-y,3/4+z
1/2+x,y,1/2+z
1/2-x,-y,1/2+z
3/4-x,1/4+y,3/4+z
3/4+x,1/4-y,3/4+z
1/2+x,1/2+y,z
1/2-x,1/2-y,z
3/4-x,3/4+y,1/4+z
3/4+x,3/4-y,1/4+z
loop_
_atom_site_type_symbol
_atom_site_label
_atom_site_fract_x
_atom_site_fract_y
_atom_site_fract_z
Si Si1 0.023786 0.620985 0.097570
Si Si2 0.929152 0.567846 0.676074
Si Si3 0.485791 0.231459 0.923734
Si Si4 0.818987 0.212107 0.726690
Si Si5 0.149347 0.718147 0.121671
Si Si6 0.044219 0.730519 0.730116
O O1 0.093998 0.626555 0.127322
O O2 0.000000 0.500000 0.065142
O O3 0.981140 0.656211 0.180533
O O4 0.019640 0.717926 0.019572
O O5 0.930143 0.496287 0.583615
O O6 0.876908 0.668566 0.669031
O O7 0.913637 0.500370 0.767816
O O8 0.993504 0.636167 0.695515
O O9 0.455853 0.107302 0.905547
O O10 0.530442 0.249195 0.837325
O O11 0.434881 0.330227 0.943135
O O12 0.750000 0.250000 0.694708
O O13 0.883859 0.271169 0.698721
#
# Coordination Sequence:
#
# PCOD9371252 Si02
#       6
#    16  16  16  16  16  16
#     4  11  22  41  68  97 131 176 227 280 337 415
#     4  10  23  43  69  98 136 182 232 291 347 422
#     4  11  25  44  71 103 138 183 235 294 354 423
#     4  12  26  44  70 101 142 185 236 301 366 427
#     4  10  21  42  66  94 131 176 226 276 343 415
#     4  10  25  46  66  99 139 184 233 288 362 428
#
# _framework density 25.841882999999999
#
# number of rings (size 3 to 8) (size 9 to 14) (size 15 to 20)
#    0.000    1.333    0.000    5.000    0.000    8.667 
#    0.000    5.000    0.000    0.000    0.000    0.000 
#    0.000    0.000    0.000    0.000    0.000    0.000 
#
# Total GULP energy -134170.470443 kJ/mol
# GULP energy per Si atom -5590.436268 kJ/mol
# Density = 2.578307 g / cm^3
# Si number density = 25.841883 Si / 1000 Ang^3
#
#
#
# Elastic Constant Matrix: (Units=GPa)
#
#
# Indices 1 2 3 4 5 6 
#
# 1 154.7044 45.0300 31.4331 0.0000 0.0000 0.0000
# 2 45.0300 97.8237 35.6027 0.0000 0.0000 0.0000
# 3 31.4331 35.6027 82.7920 0.0000 0.0000 0.0000
# 4 0.0000 0.0000 0.0000 48.1004 0.0000 0.0000
# 5 0.0000 0.0000 0.0000 0.0000 28.8068 0.0000
# 6 0.0000 0.0000 0.0000 0.0000 0.0000 46.3457
#
#
#
# Elastic Compliance Matrix: (Units=1/GPa)
#
#
# Indices 1 2 3 4 5 6 
#
# 1 0.007649 -0.002921 -0.001648 0.000000 0.000000 0.000000
# 2 -0.002921 0.013235 -0.004582 0.000000 0.000000 0.000000
# 3 -0.001648 -0.004582 0.014675 0.000000 0.000000 0.000000
# 4 0.000000 0.000000 0.000000 0.020790 0.000000 0.000000
# 5 0.000000 0.000000 0.000000 0.000000 0.034714 0.000000
# 6 0.000000 0.000000 0.000000 0.000000 0.000000 0.021577
#
#
# Mechanical properties :
#
#
# Convention : Reuss Voigt Hill
#
# Bulk Modulus (GPa) = 57.95156 62.16130 60.05643
# Shear Modulus (GPa) = 36.57805 39.53420 38.05613
#
# Velocity S-wave (km/s) = 3.76634 3.91557 3.84168
# Velocity P-wave (km/s) = 6.43334 6.67450 6.55503
#
# Compressibility (1/GPa) = 0.01725579
#
# Stress axis : x y z
#
# Youngs Moduli (GPa) = 130.73528 75.55795 68.14514
#
# Poissons Ratio (x) = 0.22072 0.11229
# Poissons Ratio (y) = 0.38191 0.31226
# Poissons Ratio (z) = 0.21543 0.34622
#
# Static dielectric constant tensor:
#      x y z
#    x 2.063920 0.000000 0.000000 
#    y 0.000000 2.076620 0.000000 
#    z 0.000000 0.000000 1.992720 
# 
# From -- ./inp_files/10919.got.cif
#   From: 2010.05.17/outbox.cif.g08.bks.cpg/sg43_6_cif.got.tgz:10919.got - 2010.06.03 19:21:55.
