data_PCOD9371424
_publ_section_title
;
Structure prediction by ZEFSAII (Michael W. Deem and Ramdas Pophale) SiO2 
 PCOD9371424
Probable space group: F D D 2
;
_chemical_formula_sum "Si O2"
_cell_formula_units_Z 96
_cell_length_a 13.036126
_cell_length_b 22.623350
_cell_length_c 15.357879
_cell_angle_alpha 90.000000
_cell_angle_beta 90.000000
_cell_angle_gamma 90.000000
_cell_volume 4529.358593
_symmetry_space_group_name_H-M "F D D 2"
_symmetry_group_IT_number 43
_symmetry_cell_setting 'orthorhombic'
loop_
_space_group_symop_operation_xyz
x,y,z
-x,-y,z
1/4-x,1/4+y,1/4+z
1/4+x,1/4-y,1/4+z
x,1/2+y,1/2+z
-x,1/2-y,1/2+z
1/4-x,3/4+y,3/4+z
1/4+x,3/4-y,3/4+z
1/2+x,y,1/2+z
1/2-x,-y,1/2+z
3/4-x,1/4+y,3/4+z
3/4+x,1/4-y,3/4+z
1/2+x,1/2+y,z
1/2-x,1/2-y,z
3/4-x,3/4+y,1/4+z
3/4+x,3/4-y,1/4+z
loop_
_atom_site_type_symbol
_atom_site_label
_atom_site_fract_x
_atom_site_fract_y
_atom_site_fract_z
Si Si1 0.947284 0.833099 0.038620
Si Si2 0.214780 0.931489 0.117291
Si Si3 0.439030 0.063134 0.942549
Si Si4 0.137181 0.727251 0.367501
Si Si5 0.441506 0.061438 0.456895
Si Si6 0.626204 0.743843 0.535465
O O1 0.870483 0.832420 0.120600
O O2 0.901164 0.797103 0.958490
O O3 0.971936 0.896087 0.997211
O O4 0.057822 0.801458 0.056643
O O5 0.243448 0.867296 0.156979
O O6 0.160728 0.966630 0.195478
O O7 0.317589 0.966772 0.092703
O O8 0.143170 0.936479 0.033425
O O9 0.358089 0.050572 0.865962
O O10 0.500000 0.000000 0.950097
O O11 0.389685 0.069515 0.037693
O O12 0.250000 0.750000 0.382569
O O13 0.500000 0.000000 0.440376
O O14 0.750000 0.750000 0.527942
#
# Coordination Sequence:
#
# PCOD9371424 Si02
#       6
#    16  16  16  16  16  16
#     4  11  27  47  73 105 149 198 245 308 368 448
#     4  11  25  41  74 105 143 193 244 312 366 441
#     4  10  22  39  66 100 137 183 239 300 355 430
#     4  10  24  46  68 102 146 192 247 298 374 441
#     4  12  28  48  78 107 151 191 252 300 380 441
#     4  10  22  43  68 103 145 190 244 301 371 432
#
# _framework density 21.195053000000001
#
# number of rings (size 3 to 8) (size 9 to 14) (size 15 to 20)
#    0.000    1.333    0.000    4.000   14.000    4.000 
#    0.000    0.000    0.000    0.000    0.000    0.000 
#    0.000    0.000    0.000    0.000    0.000    0.000 
#
# Total GULP energy -133905.907650 kJ/mol
# GULP energy per Si atom -5579.412819 kJ/mol
# Density = 2.114681 g / cm^3
# Si number density = 21.195053 Si / 1000 Ang^3
#
#
#
# Elastic Constant Matrix: (Units=GPa)
#
#
# Indices 1 2 3 4 5 6 
#
# 1 106.3377 47.3963 47.9029 0.0000 0.0000 0.0000
# 2 47.3963 94.7994 34.8153 0.0000 0.0000 0.0000
# 3 47.9029 34.8153 152.6342 0.0000 0.0000 0.0000
# 4 0.0000 0.0000 0.0000 19.6737 0.0000 0.0000
# 5 0.0000 0.0000 0.0000 0.0000 -66.3414 0.0000
# 6 0.0000 0.0000 0.0000 0.0000 0.0000 33.3423
#
#
#
# Elastic Compliance Matrix: (Units=1/GPa)
#
#
# Indices 1 2 3 4 5 6 
#
# 1 0.013159 -0.005525 -0.002870 0.000000 0.000000 0.000000
# 2 -0.005525 0.013833 -0.001421 0.000000 0.000000 0.000000
# 3 -0.002870 -0.001421 0.007776 0.000000 0.000000 0.000000
# 4 0.000000 0.000000 0.000000 0.050829 0.000000 0.000000
# 5 0.000000 0.000000 0.000000 0.000000 -0.015074 0.000000
# 6 0.000000 0.000000 0.000000 0.000000 0.000000 0.029992
#
#
# Mechanical properties :
#
#
# Convention : Reuss Voigt Hill
#
# Bulk Modulus (GPa) = 66.06566 68.22226 67.14396
# Shear Modulus (GPa) = 39.93784 12.24536 26.09160
#
# Velocity S-wave (km/s) = 4.34556 2.40624 3.51240
# Velocity P-wave (km/s) = 7.51109 6.32279 6.94241
#
# Compressibility (1/GPa) = 0.01513646
#
# Stress axis : x y z
#
# Youngs Moduli (GPa) = 75.99091 72.29082 128.59429
#
# Poissons Ratio (x) = 0.39943 0.36902
# Poissons Ratio (y) = 0.41988 0.18275
# Poissons Ratio (z) = 0.21807 0.10274
#
# Static dielectric constant tensor:
#      x y z
#    x 1.960410 0.000000 0.000000 
#    y 0.000000 1.809010 0.000000 
#    z 0.000000 0.000000 1.801720 
# 
# From -- ./inp_files/10095.got.cif
#   From: 2010.05.17/outbox.cif.g08.bks.cpg/sg43_6_cif.got.tgz:10095.got - 2010.06.03 19:21:55.
