data_PCOD9371050
_publ_section_title
;
Structure prediction by ZEFSAII (Michael W. Deem and Ramdas Pophale) SiO2 
 PCOD9371050
Probable space group: F D D 2
;
_chemical_formula_sum "Si O2"
_cell_formula_units_Z 80
_cell_length_a 24.653381
_cell_length_b 10.810838
_cell_length_c 12.543750
_cell_angle_alpha 90.000000
_cell_angle_beta 90.000000
_cell_angle_gamma 90.000000
_cell_volume 3343.206764
_symmetry_space_group_name_H-M "F D D 2"
_symmetry_group_IT_number 43
_symmetry_cell_setting 'orthorhombic'
loop_
_space_group_symop_operation_xyz
x,y,z
-x,-y,z
1/4-x,1/4+y,1/4+z
1/4+x,1/4-y,1/4+z
x,1/2+y,1/2+z
-x,1/2-y,1/2+z
1/4-x,3/4+y,3/4+z
1/4+x,3/4-y,3/4+z
1/2+x,y,1/2+z
1/2-x,-y,1/2+z
3/4-x,1/4+y,3/4+z
3/4+x,1/4-y,3/4+z
1/2+x,1/2+y,z
1/2-x,1/2-y,z
3/4-x,3/4+y,1/4+z
3/4+x,3/4-y,1/4+z
loop_
_atom_site_type_symbol
_atom_site_label
_atom_site_fract_x
_atom_site_fract_y
_atom_site_fract_z
Si Si1 0.796612 0.032189 0.188900
Si Si2 0.500000 0.000000 0.078991
Si Si3 0.801921 0.105589 0.686320
Si Si4 0.653827 0.808101 0.982361
Si Si5 0.155720 0.085974 0.394933
Si Si6 0.750000 0.250000 0.879896
O O1 0.761874 0.133472 0.254237
O O2 0.847518 0.099234 0.136516
O O3 0.751433 0.952188 0.129479
O O4 0.824072 0.945624 0.277331
O O5 0.552361 0.994240 0.154992
O O6 0.827719 0.202217 0.604353
O O7 0.783530 0.162404 0.798717
O O8 0.846705 0.003208 0.709746
O O9 0.651461 0.954928 0.955343
O O10 0.204005 0.172347 0.442217
#
# Coordination Sequence:
#
# PCOD9371050 Si02
#       6
#    16   8  16  16  16   8
#     4  10  21  39  59  85 120 157 201 251 305 369
#     4  10  21  38  61  90 120 154 202 254 305 374
#     4  11  23  40  62  91 123 160 205 256 313 375
#     4  11  22  39  64  91 120 161 207 254 314 377
#     4  10  22  39  60  88 121 161 205 253 311 371
#     4  10  25  42  59  90 128 160 206 260 315 372
#
# _framework density 23.929120999999999
#
# number of rings (size 3 to 8) (size 9 to 14) (size 15 to 20)
#    0.000    1.600    0.000    5.400    0.000    6.400 
#    0.000    0.000    0.000    0.000    0.000    0.000 
#    0.000    0.000    0.000    0.000    0.000    0.000 
#
# Total GULP energy -111918.314944 kJ/mol
# GULP energy per Si atom -5595.915747 kJ/mol
# Density = 2.387466 g / cm^3
# Si number density = 23.929121 Si / 1000 Ang^3
#
#
#
# Elastic Constant Matrix: (Units=GPa)
#
#
# Indices 1 2 3 4 5 6 
#
# 1 183.4401 78.7936 21.6134 0.0000 0.0000 0.0000
# 2 78.7936 96.0344 11.2090 0.0000 0.0000 0.0000
# 3 21.6134 11.2090 35.6727 0.0000 0.0000 0.0000
# 4 0.0000 0.0000 0.0000 21.0282 0.0000 0.0000
# 5 0.0000 0.0000 0.0000 0.0000 19.9235 0.0000
# 6 0.0000 0.0000 0.0000 0.0000 0.0000 51.3662
#
#
#
# Elastic Compliance Matrix: (Units=1/GPa)
#
#
# Indices 1 2 3 4 5 6 
#
# 1 0.008748 -0.006809 -0.003161 0.000000 0.000000 0.000000
# 2 -0.006809 0.016109 -0.000936 0.000000 0.000000 0.000000
# 3 -0.003161 -0.000936 0.030242 0.000000 0.000000 0.000000
# 4 0.000000 0.000000 0.000000 0.047555 0.000000 0.000000
# 5 0.000000 0.000000 0.000000 0.000000 0.050192 0.000000
# 6 0.000000 0.000000 0.000000 0.000000 0.000000 0.019468
#
#
# Mechanical properties :
#
#
# Convention : Reuss Voigt Hill
#
# Bulk Modulus (GPa) = 30.04190 59.81990 44.93090
# Shear Modulus (GPa) = 24.36378 32.03232 28.19805
#
# Velocity S-wave (km/s) = 3.19433 3.66270 3.43651
# Velocity P-wave (km/s) = 5.11730 6.55288 5.87907
#
# Compressibility (1/GPa) = 0.03328684
#
# Stress axis : x y z
#
# Youngs Moduli (GPa) = 114.30556 62.07801 33.06651
#
# Poissons Ratio (x) = 0.42269 0.10452
# Poissons Ratio (y) = 0.77830 0.03096
# Poissons Ratio (z) = 0.36133 0.05812
#
# Static dielectric constant tensor:
#      x y z
#    x 1.912620 0.000000 0.000000 
#    y 0.000000 2.226630 0.000000 
#    z 0.000000 0.000000 1.909340 
# 
# From -- ./inp_files/9547.got.cif
#   From: 2010.05.17/outbox.cif.g08.bks.cpg/sg43_5_cif.got.tgz:9547.got - 2010.06.03 19:21:55.
