data_PCOD9371466
_publ_section_title
;
Structure prediction by ZEFSAII (Michael W. Deem and Ramdas Pophale) SiO2 
 PCOD9371466
Probable space group: F D D 2
;
_chemical_formula_sum "Si O2"
_cell_formula_units_Z 120
_cell_length_a 21.613224
_cell_length_b 8.935133
_cell_length_c 29.876549
_cell_angle_alpha 90.000000
_cell_angle_beta 90.000000
_cell_angle_gamma 90.000000
_cell_volume 5769.670439
_symmetry_space_group_name_H-M "F D D 2"
_symmetry_group_IT_number 43
_symmetry_cell_setting 'orthorhombic'
loop_
_space_group_symop_operation_xyz
x,y,z
-x,-y,z
1/4-x,1/4+y,1/4+z
1/4+x,1/4-y,1/4+z
x,1/2+y,1/2+z
-x,1/2-y,1/2+z
1/4-x,3/4+y,3/4+z
1/4+x,3/4-y,3/4+z
1/2+x,y,1/2+z
1/2-x,-y,1/2+z
3/4-x,1/4+y,3/4+z
3/4+x,1/4-y,3/4+z
1/2+x,1/2+y,z
1/2-x,1/2-y,z
3/4-x,3/4+y,1/4+z
3/4+x,3/4-y,1/4+z
loop_
_atom_site_type_symbol
_atom_site_label
_atom_site_fract_x
_atom_site_fract_y
_atom_site_fract_z
Si Si1 0.427850 0.293144 0.583960
Si Si2 0.507490 0.231760 0.775846
Si Si3 0.233504 0.925726 0.627856
Si Si4 0.149909 0.717330 0.997926
Si Si5 0.590980 0.955812 0.147688
Si Si6 0.391269 0.811807 0.895464
Si Si7 0.210053 0.390269 0.377688
Si Si8 0.000000 0.500000 0.217651
O O1 0.405930 0.287247 0.533149
O O2 0.428870 0.462931 0.601746
O O3 0.492088 0.205068 0.591396
O O4 0.379136 0.211443 0.618827
O O5 0.490674 0.272586 0.826423
O O6 0.558290 0.105479 0.765835
O O7 0.528164 0.377235 0.749898
O O8 0.443714 0.174403 0.755027
O O9 0.250000 0.750000 0.631942
O O10 0.164787 0.947913 0.647057
O O11 0.286504 0.028874 0.649273
O O12 0.132946 0.716402 0.945829
O O13 0.561091 0.790171 0.153250
O O14 0.556157 0.050695 0.185667
O O15 0.355148 0.686116 0.865522
O O16 0.250000 0.250000 0.398438
#
# Coordination Sequence:
#
# PCOD9371466 Si02
#       8
#    16  16  16  16  16  16  16   8
#     4  11  22  41  69  99 133 172 228 291 339 399
#     4  11  24  41  66  97 136 173 232 280 334 426
#     4  12  24  44  65  99 143 180 216 285 367 417
#     4  11  24  41  67 101 131 180 234 281 342 421
#     4  12  23  40  70  99 133 173 223 288 341 406
#     4  11  24  43  68  98 137 184 227 281 352 421
#     4  10  22  40  67  96 127 177 226 271 338 409
#     4  12  24  42  68 104 126 174 238 286 330 408
#
# _framework density 20.798416
#
# number of rings (size 3 to 8) (size 9 to 14) (size 15 to 20)
#    0.000    0.800    6.000    1.600    7.467    0.533 
#    0.000    4.667    2.933    0.000    0.000    0.000 
#    0.000    0.000    0.000    0.000    0.000    0.000 
#
# Total GULP energy -167218.472455 kJ/mol
# GULP energy per Si atom -5573.949082 kJ/mol
# Density = 2.075108 g / cm^3
# Si number density = 20.798416 Si / 1000 Ang^3
#
#
#
# Elastic Constant Matrix: (Units=GPa)
#
#
# Indices 1 2 3 4 5 6 
#
# 1 118.9476 0.6347 34.8441 0.0000 0.0000 -0.0001
# 2 0.6347 60.7497 -0.8712 0.0000 0.0000 -0.0002
# 3 34.8441 -0.8712 80.5453 0.0000 0.0000 0.0000
# 4 0.0000 0.0000 0.0000 19.5202 0.0000 0.0000
# 5 0.0000 0.0000 0.0000 0.0000 26.2817 0.0000
# 6 -0.0001 -0.0002 0.0000 0.0000 0.0000 25.0446
#
#
#
# Elastic Compliance Matrix: (Units=1/GPa)
#
#
# Indices 1 2 3 4 5 6 
#
# 1 0.009629 -0.000160 -0.004167 0.000000 0.000000 0.000000
# 2 -0.000160 0.016466 0.000247 0.000000 0.000000 0.000000
# 3 -0.004167 0.000247 0.014221 0.000000 0.000000 0.000000
# 4 0.000000 0.000000 0.000000 0.051229 0.000000 0.000000
# 5 0.000000 0.000000 0.000000 0.000000 0.038049 0.000000
# 6 0.000000 0.000000 0.000000 0.000000 0.000000 0.039929
#
#
# Mechanical properties :
#
#
# Convention : Reuss Voigt Hill
#
# Bulk Modulus (GPa) = 31.09876 36.60641 33.85259
# Shear Modulus (GPa) = 26.53913 29.21164 27.87538
#
# Velocity S-wave (km/s) = 3.57601 3.75175 3.66493
# Velocity P-wave (km/s) = 5.65998 6.03376 5.84986
#
# Compressibility (1/GPa) = 0.03215562
#
# Stress axis : x y z
#
# Youngs Moduli (GPa) = 103.85707 60.73042 70.31976
#
# Poissons Ratio (x) = 0.00974 0.29303
# Poissons Ratio (y) = 0.01665 -0.01740
# Poissons Ratio (z) = 0.43278 -0.01503
#
# Static dielectric constant tensor:
#      x y z
#    x 1.776840 0.000000 0.000000 
#    y 0.000000 1.817880 0.000000 
#    z 0.000000 0.000000 1.723580 
# 
# From -- ./inp_files/29867.got.cif
#   From: 2010.05.17/outbox.cif.g08.bks.cpg/sg43_15_cif.got.tgz:29867.got - 2010.06.03 19:21:55.
