data_PCOD9371828
_publ_section_title
;
Structure prediction by ZEFSAII (Michael W. Deem and Ramdas Pophale) SiO2 
 PCOD9371828
Probable space group: F D D 2
;
_chemical_formula_sum "Si O2"
_cell_formula_units_Z 112
_cell_length_a 27.421289
_cell_length_b 11.247903
_cell_length_c 15.452966
_cell_angle_alpha 90.000000
_cell_angle_beta 90.000000
_cell_angle_gamma 90.000000
_cell_volume 4766.189191
_symmetry_space_group_name_H-M "F D D 2"
_symmetry_group_IT_number 43
_symmetry_cell_setting 'orthorhombic'
loop_
_space_group_symop_operation_xyz
x,y,z
-x,-y,z
1/4-x,1/4+y,1/4+z
1/4+x,1/4-y,1/4+z
x,1/2+y,1/2+z
-x,1/2-y,1/2+z
1/4-x,3/4+y,3/4+z
1/4+x,3/4-y,3/4+z
1/2+x,y,1/2+z
1/2-x,-y,1/2+z
3/4-x,1/4+y,3/4+z
3/4+x,1/4-y,3/4+z
1/2+x,1/2+y,z
1/2-x,1/2-y,z
3/4-x,3/4+y,1/4+z
3/4+x,3/4-y,1/4+z
loop_
_atom_site_type_symbol
_atom_site_label
_atom_site_fract_x
_atom_site_fract_y
_atom_site_fract_z
Si Si1 0.397342 0.706630 0.570840
Si Si2 0.682800 0.405996 0.329603
Si Si3 0.186021 0.202777 0.967272
Si Si4 0.544173 0.070129 0.631572
Si Si5 0.528864 0.221053 0.797193
Si Si6 0.231263 0.614604 0.209946
Si Si7 0.126279 0.377715 0.656200
O O1 0.401900 0.634670 0.659489
O O2 0.343287 0.732275 0.542145
O O3 0.426149 0.830474 0.580298
O O4 0.427146 0.640856 0.495588
O O5 0.698556 0.304177 0.397324
O O6 0.732884 0.443761 0.281809
O O7 0.649408 0.360508 0.250592
O O8 0.651739 0.511550 0.371848
O O9 0.220556 0.106526 0.013407
O O10 0.521726 0.137088 0.714687
O O11 0.500000 0.000000 0.586412
O O12 0.585197 0.978126 0.661311
O O13 0.579918 0.177756 0.843563
O O14 0.488282 0.199211 0.869190
O O15 0.250000 0.750000 0.200353
#
# Coordination Sequence:
#
# PCOD9371828 Si02
#       7
#    16  16  16  16  16  16  16
#     4  11  24  44  67  96 138 171 221 272 339 391
#     4  11  23  38  67  94 133 173 226 265 335 390
#     4  11  23  43  66  97 131 181 212 276 326 405
#     4  11  22  40  66  99 128 169 220 278 327 395
#     4  10  23  41  68  94 133 172 223 269 332 390
#     4  11  23  43  65  98 134 175 220 284 332 394
#     4  11  21  40  63  99 128 177 218 270 324 406
#
# _framework density 23.498857000000001
#
# number of rings (size 3 to 8) (size 9 to 14) (size 15 to 20)
#    0.000    1.143    4.286    2.143    2.000    1.143 
#    2.571    4.286    0.000    0.000    0.000    0.000 
#    0.000    0.000    0.000    0.000    0.000    0.000 
#
# Total GULP energy -156683.597539 kJ/mol
# GULP energy per Si atom -5595.842769 kJ/mol
# Density = 2.344537 g / cm^3
# Si number density = 23.498857 Si / 1000 Ang^3
#
#
#
# Elastic Constant Matrix: (Units=GPa)
#
#
# Indices 1 2 3 4 5 6 
#
# 1 41.8271 18.0197 -0.8287 0.0000 0.0000 0.0000
# 2 18.0197 109.5567 38.9450 0.0000 0.0000 0.0000
# 3 -0.8287 38.9450 83.5063 0.0000 0.0000 0.0000
# 4 0.0000 0.0000 0.0000 29.6661 0.0000 0.0000
# 5 0.0000 0.0000 0.0000 0.0000 33.7062 0.0000
# 6 0.0000 0.0000 0.0000 0.0000 0.0000 24.3105
#
#
#
# Elastic Compliance Matrix: (Units=1/GPa)
#
#
# Indices 1 2 3 4 5 6 
#
# 1 0.026238 -0.005284 0.002725 0.000000 0.000000 0.000000
# 2 -0.005284 0.012006 -0.005652 0.000000 0.000000 0.000000
# 3 0.002725 -0.005652 0.014638 0.000000 0.000000 0.000000
# 4 0.000000 0.000000 0.000000 0.033709 0.000000 0.000000
# 5 0.000000 0.000000 0.000000 0.000000 0.029668 0.000000
# 6 0.000000 0.000000 0.000000 0.000000 0.000000 0.041135
#
#
# Mechanical properties :
#
#
# Convention : Reuss Voigt Hill
#
# Bulk Modulus (GPa) = 27.42725 38.57358 33.00041
# Shear Modulus (GPa) = 26.88619 29.45349 28.16984
#
# Velocity S-wave (km/s) = 3.38620 3.54418 3.46609
# Velocity P-wave (km/s) = 5.19476 5.76186 5.48564
#
# Compressibility (1/GPa) = 0.03646009
#
# Stress axis : x y z
#
# Youngs Moduli (GPa) = 38.11199 83.29247 68.31553
#
# Poissons Ratio (x) = 0.44014 -0.18615
# Poissons Ratio (y) = 0.20139 0.38610
# Poissons Ratio (z) = -0.10385 0.47074
#
# Static dielectric constant tensor:
#      x y z
#    x 1.915650 0.000000 0.000000 
#    y 0.000000 1.905130 0.000000 
#    z 0.000000 0.000000 1.840160 
# 
# From -- ./inp_files/9769.got.cif
#   From: 2010.05.17/outbox.cif.g08.bks.cpg/sg43_5_cif.got.tgz:9769.got - 2010.06.03 19:21:55.
