data_PCOD9371925
_publ_section_title
;
Structure prediction by ZEFSAII (Michael W. Deem and Ramdas Pophale) SiO2 
 PCOD9371925
Probable space group: F D D 2
;
_chemical_formula_sum "Si O2"
_cell_formula_units_Z 88
_cell_length_a 28.982179
_cell_length_b 17.484532
_cell_length_c 7.206607
_cell_angle_alpha 90.000000
_cell_angle_beta 90.000000
_cell_angle_gamma 90.000000
_cell_volume 3651.874850
_symmetry_space_group_name_H-M "F D D 2"
_symmetry_group_IT_number 43
_symmetry_cell_setting 'orthorhombic'
loop_
_space_group_symop_operation_xyz
x,y,z
-x,-y,z
1/4-x,1/4+y,1/4+z
1/4+x,1/4-y,1/4+z
x,1/2+y,1/2+z
-x,1/2-y,1/2+z
1/4-x,3/4+y,3/4+z
1/4+x,3/4-y,3/4+z
1/2+x,y,1/2+z
1/2-x,-y,1/2+z
3/4-x,1/4+y,3/4+z
3/4+x,1/4-y,3/4+z
1/2+x,1/2+y,z
1/2-x,1/2-y,z
3/4-x,3/4+y,1/4+z
3/4+x,3/4-y,1/4+z
loop_
_atom_site_type_symbol
_atom_site_label
_atom_site_fract_x
_atom_site_fract_y
_atom_site_fract_z
Si Si1 0.347093 0.308376 0.475170
Si Si2 0.000000 0.500000 0.166937
Si Si3 0.056868 0.554547 0.480477
Si Si4 0.915097 0.736970 0.758831
Si Si5 0.345717 0.977380 0.440448
Si Si6 0.748726 0.408278 0.493460
O O1 0.307244 0.249034 0.410253
O O2 0.333663 0.395990 0.479366
O O3 0.371334 0.275353 0.658007
O O4 0.386205 0.296999 0.315722
O O5 0.955471 0.500213 0.304805
O O6 0.001011 0.586754 0.095618
O O7 0.109894 0.578633 0.456086
O O8 0.020854 0.620820 0.435287
O O9 0.961151 0.779141 0.688809
O O10 0.911845 0.746591 0.978468
O O11 0.299000 0.941653 0.514774
#
# Coordination Sequence:
#
# PCOD9371925 Si02
#       6
#    16   8  16  16  16  16
#     4  10  27  44  75 105 157 197 266 314 417 460
#     4   8  20  40  74 106 146 196 250 320 398 454
#     4   8  21  43  75 106 147 200 245 325 388 467
#     4  12  26  46  75 119 150 211 271 323 398 498
#     4  10  25  45  79 103 159 209 250 336 392 475
#     4  10  23  44  79 112 148 205 266 310 406 468
#
# _framework density 24.097213
#
# number of rings (size 3 to 8) (size 9 to 14) (size 15 to 20)
#    2.182    0.000    0.000    1.091    7.636    2.909 
#    0.000    0.000    0.000    0.000    0.000    0.000 
#    0.000    0.000    0.000    0.000    0.000    0.000 
#
# Total GULP energy -122617.006419 kJ/mol
# GULP energy per Si atom -5573.500292 kJ/mol
# Density = 2.404237 g / cm^3
# Si number density = 24.097213 Si / 1000 Ang^3
#
#
#
# Elastic Constant Matrix: (Units=GPa)
#
#
# Indices 1 2 3 4 5 6 
#
# 1 134.6140 67.7629 27.5443 0.0000 0.0000 0.0000
# 2 67.7629 160.4922 52.3429 0.0000 0.0000 0.0000
# 3 27.5443 52.3429 81.0271 0.0002 -0.0001 0.0000
# 4 0.0000 0.0000 0.0002 63.4763 -0.0001 0.0000
# 5 0.0000 0.0000 -0.0001 -0.0001 4.8283 0.0000
# 6 0.0000 0.0000 0.0000 0.0000 0.0000 40.3368
#
#
#
# Elastic Compliance Matrix: (Units=1/GPa)
#
#
# Indices 1 2 3 4 5 6 
#
# 1 0.009475 -0.003738 -0.000807 0.000000 0.000000 0.000000
# 2 -0.003738 0.009368 -0.004781 0.000000 0.000000 0.000000
# 3 -0.000807 -0.004781 0.015704 0.000000 0.000000 0.000000
# 4 0.000000 0.000000 0.000000 0.015754 0.000000 0.000000
# 5 0.000000 0.000000 0.000000 0.000000 0.207112 0.000000
# 6 0.000000 0.000000 0.000000 0.000000 0.000000 0.024791
#
#
# Mechanical properties :
#
#
# Convention : Reuss Voigt Hill
#
# Bulk Modulus (GPa) = 62.90482 74.60374 68.75428
# Shear Modulus (GPa) = 16.33160 36.96049 26.64604
#
# Velocity S-wave (km/s) = 2.60616 3.92063 3.32892
# Velocity P-wave (km/s) = 5.93442 7.17787 6.58556
#
# Compressibility (1/GPa) = 0.01589703
#
# Stress axis : x y z
#
# Youngs Moduli (GPa) = 105.53971 106.74345 63.67639
#
# Poissons Ratio (x) = 0.39896 0.05136
# Poissons Ratio (y) = 0.39446 0.30446
# Poissons Ratio (z) = 0.08512 0.51037
#
# Static dielectric constant tensor:
#      x y z
#    x 1.919650 0.000000 0.000000 
#    y 0.000000 1.935820 0.000000 
#    z 0.000000 0.000000 1.956370 
# 
# From -- ./inp_files/4698.got.cif
#   From: 2010.05.17/outbox.cif.g08.bks.cpg/sg43_3_cif.got.tgz:4698.got - 2010.06.03 19:21:55.
