data_PCOD9371278
_publ_section_title
;
Structure prediction by ZEFSAII (Michael W. Deem and Ramdas Pophale) SiO2 
 PCOD9371278
Probable space group: F D D 2
;
_chemical_formula_sum "Si O2"
_cell_formula_units_Z 104
_cell_length_a 9.414155
_cell_length_b 21.176238
_cell_length_c 27.308524
_cell_angle_alpha 90.000000
_cell_angle_beta 90.000000
_cell_angle_gamma 90.000000
_cell_volume 5444.128675
_symmetry_space_group_name_H-M "F D D 2"
_symmetry_group_IT_number 43
_symmetry_cell_setting 'orthorhombic'
loop_
_space_group_symop_operation_xyz
x,y,z
-x,-y,z
1/4-x,1/4+y,1/4+z
1/4+x,1/4-y,1/4+z
x,1/2+y,1/2+z
-x,1/2-y,1/2+z
1/4-x,3/4+y,3/4+z
1/4+x,3/4-y,3/4+z
1/2+x,y,1/2+z
1/2-x,-y,1/2+z
3/4-x,1/4+y,3/4+z
3/4+x,1/4-y,3/4+z
1/2+x,1/2+y,z
1/2-x,1/2-y,z
3/4-x,3/4+y,1/4+z
3/4+x,3/4-y,1/4+z
loop_
_atom_site_type_symbol
_atom_site_label
_atom_site_fract_x
_atom_site_fract_y
_atom_site_fract_z
Si Si1 0.405394 0.865311 0.920590
Si Si2 0.666831 0.015834 0.219997
Si Si3 0.000000 0.500000 0.888471
Si Si4 0.532965 0.279034 0.582638
Si Si5 0.258451 0.324625 0.319133
Si Si6 0.140506 0.108567 0.219490
Si Si7 0.289507 0.343829 0.116224
O O1 0.538018 0.822192 0.934564
O O2 0.443121 0.939566 0.918681
O O3 0.350226 0.844243 0.866899
O O4 0.277730 0.850227 0.959131
O O5 0.768748 0.955284 0.211931
O O6 0.500000 0.000000 0.216715
O O7 0.703240 0.036888 0.275057
O O8 0.127012 0.476290 0.853862
O O9 0.617269 0.214611 0.596031
O O10 0.624820 0.333583 0.607286
O O11 0.250000 0.250000 0.311182
O O12 0.317761 0.360969 0.271434
O O13 0.102350 0.348089 0.335683
O O14 0.183933 0.152214 0.173784
#
# Coordination Sequence:
#
# PCOD9371278 Si02
#       7
#    16  16   8  16  16  16  16
#     4  11  26  43  65  99 137 176 223 277 335 406
#     4  12  24  43  69  99 130 176 229 276 338 405
#     4  12  24  44  68  96 138 172 234 280 334 388
#     4  11  22  42  68  92 128 173 228 274 323 404
#     4  11  22  42  67 102 135 170 223 276 335 406
#     4  11  22  42  70  95 130 182 217 269 351 391
#     4  10  21  43  64  98 124 171 224 273 324 401
#
# _framework density 19.103149999999999
#
# number of rings (size 3 to 8) (size 9 to 14) (size 15 to 20)
#    0.000    0.923    6.154    2.308    8.615    0.000 
#    2.769    0.000    1.692    0.000    0.000    0.000 
#    0.000    0.000    0.000    0.000    0.000    0.000 
#
# Total GULP energy -145151.750793 kJ/mol
# GULP energy per Si atom -5582.759646 kJ/mol
# Density = 1.905967 g / cm^3
# Si number density = 19.103150 Si / 1000 Ang^3
#
#
#
# Elastic Constant Matrix: (Units=GPa)
#
#
# Indices 1 2 3 4 5 6 
#
# 1 149.7276 38.0285 31.1490 0.0000 0.0000 0.0000
# 2 38.0285 88.2162 22.6766 0.0000 0.0000 0.0000
# 3 31.1490 22.6766 97.4452 0.0000 0.0000 0.0000
# 4 0.0000 0.0000 0.0000 3.6090 0.0000 0.0000
# 5 0.0000 0.0000 0.0000 0.0000 20.7733 0.0000
# 6 0.0000 0.0000 0.0000 0.0000 0.0000 36.9228
#
#
#
# Elastic Compliance Matrix: (Units=1/GPa)
#
#
# Indices 1 2 3 4 5 6 
#
# 1 0.007791 -0.002891 -0.001818 0.000000 0.000000 0.000000
# 2 -0.002891 0.013130 -0.002131 0.000000 0.000000 0.000000
# 3 -0.001818 -0.002131 0.011339 0.000000 0.000000 0.000000
# 4 0.000000 0.000000 0.000000 0.277083 0.000000 0.000000
# 5 0.000000 0.000000 0.000000 0.000000 0.048139 0.000000
# 6 0.000000 0.000000 0.000000 0.000000 0.000000 0.027084
#
#
# Mechanical properties :
#
#
# Convention : Reuss Voigt Hill
#
# Bulk Modulus (GPa) = 53.82178 57.67746 55.74962
# Shear Modulus (GPa) = 12.36276 28.49667 20.42972
#
# Velocity S-wave (km/s) = 2.54669 3.86648 3.27378
# Velocity P-wave (km/s) = 6.07313 7.08456 6.59826
#
# Compressibility (1/GPa) = 0.01857984
#
# Stress axis : x y z
#
# Youngs Moduli (GPa) = 128.34786 76.16091 88.18980
#
# Poissons Ratio (x) = 0.22022 0.16030
# Poissons Ratio (y) = 0.37111 0.18795
# Poissons Ratio (z) = 0.23329 0.16232
#
# Static dielectric constant tensor:
#      x y z
#    x 1.726600 0.000000 0.000000 
#    y 0.000000 1.714730 0.000000 
#    z 0.000000 0.000000 1.655800 
# 
# From -- ./inp_files/24322.got.cif
#   From: 2010.05.17/outbox.cif.g08.bks.cpg/sg43_13_cif.got.tgz:24322.got - 2010.06.03 19:21:55.
