data_PCOD9371159
_publ_section_title
;
Structure prediction by ZEFSAII (Michael W. Deem and Ramdas Pophale) SiO2 
 PCOD9371159
Probable space group: F D D 2
;
_chemical_formula_sum "Si O2"
_cell_formula_units_Z 128
_cell_length_a 22.277160
_cell_length_b 23.962024
_cell_length_c 12.578233
_cell_angle_alpha 90.000000
_cell_angle_beta 90.000000
_cell_angle_gamma 90.000000
_cell_volume 6714.334265
_symmetry_space_group_name_H-M "F D D 2"
_symmetry_group_IT_number 43
_symmetry_cell_setting 'orthorhombic'
loop_
_space_group_symop_operation_xyz
x,y,z
-x,-y,z
1/4-x,1/4+y,1/4+z
1/4+x,1/4-y,1/4+z
x,1/2+y,1/2+z
-x,1/2-y,1/2+z
1/4-x,3/4+y,3/4+z
1/4+x,3/4-y,3/4+z
1/2+x,y,1/2+z
1/2-x,-y,1/2+z
3/4-x,1/4+y,3/4+z
3/4+x,1/4-y,3/4+z
1/2+x,1/2+y,z
1/2-x,1/2-y,z
3/4-x,3/4+y,1/4+z
3/4+x,3/4-y,1/4+z
loop_
_atom_site_type_symbol
_atom_site_label
_atom_site_fract_x
_atom_site_fract_y
_atom_site_fract_z
Si Si1 0.421886 0.219856 0.114080
Si Si2 0.948783 0.038984 0.893433
Si Si3 0.146377 0.094625 0.063879
Si Si4 0.726430 0.073505 0.151393
Si Si5 0.651270 0.487276 0.223106
Si Si6 0.213104 0.542948 0.912782
Si Si7 0.740855 0.841072 0.342311
Si Si8 0.473844 0.055256 0.807385
O O1 0.360191 0.251798 0.135024
O O2 0.424087 0.171589 0.201113
O O3 0.473987 0.263146 0.140855
O O4 0.433895 0.196479 0.996866
O O5 0.931002 0.100408 0.852608
O O6 0.000000 0.000000 0.840780
O O7 0.973455 0.052170 0.011442
O O8 0.075193 0.105894 0.049599
O O9 0.150526 0.040469 0.142400
O O10 0.793947 0.052058 0.181133
O O11 0.723726 0.139928 0.130159
O O12 0.705701 0.046905 0.039087
O O13 0.666409 0.510007 0.341038
O O14 0.589134 0.454935 0.245123
O O15 0.219804 0.604396 0.864372
O O16 0.730933 0.815718 0.458945
O O17 0.500000 0.000000 0.862559
#
# Coordination Sequence:
#
# PCOD9371159 Si02
#       8
#    16  16  16  16  16  16  16  16
#     4  11  23  43  63  93 131 176 215 273 326 400
#     4  12  24  40  67 101 134 167 221 282 335 387
#     4  12  22  40  70  98 133 166 217 284 332 395
#     4  10  25  44  62  91 134 180 214 264 338 408
#     4  11  22  41  67  97 125 173 223 271 337 389
#     4  10  21  40  66  91 126 171 221 263 334 394
#     4  11  21  36  67 104 126 163 215 284 338 374
#     4  11  23  39  65 100 131 165 222 282 326 391
#
# _framework density 19.063690999999999
#
# number of rings (size 3 to 8) (size 9 to 14) (size 15 to 20)
#    0.000    1.000    6.250    1.125    0.000    2.000 
#    6.750    0.625    0.000    0.000    0.000    0.000 
#    0.000    0.000    0.000    0.000    0.000    0.000 
#
# Total GULP energy -178479.462040 kJ/mol
# GULP energy per Si atom -5577.483189 kJ/mol
# Density = 1.902030 g / cm^3
# Si number density = 19.063691 Si / 1000 Ang^3
#
#
#
# Elastic Constant Matrix: (Units=GPa)
#
#
# Indices 1 2 3 4 5 6 
#
# 1 63.7748 33.7170 31.4631 0.0000 0.0000 0.0000
# 2 33.7170 127.3317 62.4443 0.0000 0.0000 0.0000
# 3 31.4631 62.4443 124.9810 0.0000 0.0000 0.0000
# 4 0.0000 0.0000 0.0000 8.3082 0.0000 0.0000
# 5 0.0000 0.0000 0.0000 0.0000 13.9121 0.0000
# 6 0.0000 0.0000 0.0000 0.0000 0.0000 22.9786
#
#
#
# Elastic Compliance Matrix: (Units=1/GPa)
#
#
# Indices 1 2 3 4 5 6 
#
# 1 0.019053 -0.003567 -0.003014 0.000000 0.000000 0.000000
# 2 -0.003567 0.011070 -0.004633 0.000000 0.000000 0.000000
# 3 -0.003014 -0.004633 0.011075 0.000000 0.000000 0.000000
# 4 0.000000 0.000000 0.000000 0.120363 0.000000 0.000000
# 5 0.000000 0.000000 0.000000 0.000000 0.071880 0.000000
# 6 0.000000 0.000000 0.000000 0.000000 0.000000 0.043519
#
#
# Mechanical properties :
#
#
# Convention : Reuss Voigt Hill
#
# Bulk Modulus (GPa) = 53.27803 63.48182 58.37993
# Shear Modulus (GPa) = 16.35888 21.60400 18.98144
#
# Velocity S-wave (km/s) = 2.93254 3.37004 3.15887
# Velocity P-wave (km/s) = 6.28287 6.96527 6.63285
#
# Compressibility (1/GPa) = 0.01876946
#
# Stress axis : x y z
#
# Youngs Moduli (GPa) = 52.48490 90.33371 90.29478
#
# Poissons Ratio (x) = 0.32222 0.27218
# Poissons Ratio (y) = 0.18721 0.41833
# Poissons Ratio (z) = 0.15821 0.41851
#
# Static dielectric constant tensor:
#      x y z
#    x 1.720700 0.000000 0.000000 
#    y 0.000000 1.753000 0.000000 
#    z 0.000000 0.000000 1.662850 
# 
# From -- ./inp_files/7686.got.cif
#   From: 2010.05.17/outbox.cif.g08.bks.cpg/sg43_4_cif.got.tgz:7686.got - 2010.06.03 19:21:55.
