data_PCOD9371467
_publ_section_title
;
Structure prediction by ZEFSAII (Michael W. Deem and Ramdas Pophale) SiO2 
 PCOD9371467
Probable space group: F D D 2
;
_chemical_formula_sum "Si O2"
_cell_formula_units_Z 104
_cell_length_a 18.741853
_cell_length_b 14.084817
_cell_length_c 19.337105
_cell_angle_alpha 90.000000
_cell_angle_beta 90.000000
_cell_angle_gamma 90.000000
_cell_volume 5104.523310
_symmetry_space_group_name_H-M "F D D 2"
_symmetry_group_IT_number 43
_symmetry_cell_setting 'orthorhombic'
loop_
_space_group_symop_operation_xyz
x,y,z
-x,-y,z
1/4-x,1/4+y,1/4+z
1/4+x,1/4-y,1/4+z
x,1/2+y,1/2+z
-x,1/2-y,1/2+z
1/4-x,3/4+y,3/4+z
1/4+x,3/4-y,3/4+z
1/2+x,y,1/2+z
1/2-x,-y,1/2+z
3/4-x,1/4+y,3/4+z
3/4+x,1/4-y,3/4+z
1/2+x,1/2+y,z
1/2-x,1/2-y,z
3/4-x,3/4+y,1/4+z
3/4+x,3/4-y,1/4+z
loop_
_atom_site_type_symbol
_atom_site_label
_atom_site_fract_x
_atom_site_fract_y
_atom_site_fract_z
Si Si1 0.220465 0.142781 0.898170
Si Si2 0.500000 0.000000 0.432243
Si Si3 0.097867 0.442538 0.548642
Si Si4 0.255042 0.484532 0.505631
Si Si5 0.429542 0.554969 0.202515
Si Si6 0.280708 0.011407 0.774523
Si Si7 0.695176 0.439631 0.645275
O O1 0.250000 0.250000 0.896613
O O2 0.248752 0.080168 0.833061
O O3 0.135310 0.153661 0.898912
O O4 0.242703 0.083069 0.965918
O O5 0.565221 0.002358 0.485980
O O6 0.496464 0.903302 0.389908
O O7 0.180477 0.436995 0.529289
O O8 0.087248 0.482972 0.625364
O O9 0.053557 0.344480 0.548343
O O10 0.296743 0.414069 0.455221
O O11 0.297327 0.499799 0.576254
O O12 0.500000 0.500000 0.228931
O O13 0.356430 0.547831 0.244852
O O14 0.223896 0.996193 0.712256
#
# Coordination Sequence:
#
# PCOD9371467 Si02
#       7
#    16   8  16  16  16  16  16
#     4  12  28  48  69 103 147 193 234 288 362 439
#     4  10  22  40  68 102 134 168 232 296 350 414
#     4  11  21  42  67 104 132 178 229 304 353 415
#     4  12  25  44  71 100 142 184 237 287 363 425
#     4  12  23  42  72 103 138 181 238 300 357 418
#     4  11  25  46  71 101 141 181 241 297 354 430
#     4  11  26  44  71 101 137 185 234 289 360 426
#
# _framework density 20.374085999999998
#
# number of rings (size 3 to 8) (size 9 to 14) (size 15 to 20)
#    0.000    0.615    6.923    0.923    3.231    0.000 
#    0.000    0.769    0.000    0.000    0.000    0.000 
#    0.000    0.000    0.000    0.000    0.000    0.000 
#
# Total GULP energy -145127.713027 kJ/mol
# GULP energy per Si atom -5581.835116 kJ/mol
# Density = 2.032771 g / cm^3
# Si number density = 20.374086 Si / 1000 Ang^3
#
#
#
# Elastic Constant Matrix: (Units=GPa)
#
#
# Indices 1 2 3 4 5 6 
#
# 1 115.3419 25.3711 38.9748 0.0000 0.0000 0.0000
# 2 25.3711 90.5545 37.4789 0.0000 0.0000 0.0000
# 3 38.9748 37.4789 91.3877 0.0000 0.0000 0.0000
# 4 0.0000 0.0000 0.0000 -36.3942 0.0000 0.0000
# 5 0.0000 0.0000 0.0000 0.0000 39.9825 0.0000
# 6 0.0000 0.0000 0.0000 0.0000 0.0000 25.0287
#
#
#
# Elastic Compliance Matrix: (Units=1/GPa)
#
#
# Indices 1 2 3 4 5 6 
#
# 1 0.010251 -0.001280 -0.003847 0.000000 0.000000 0.000000
# 2 -0.001280 0.013461 -0.004974 0.000000 0.000000 0.000000
# 3 -0.003847 -0.004974 0.014623 0.000000 0.000000 0.000000
# 4 0.000000 0.000000 0.000000 -0.027477 0.000000 0.000000
# 5 0.000000 0.000000 0.000000 0.000000 0.025011 0.000000
# 6 0.000000 0.000000 0.000000 0.000000 0.000000 0.039954
#
#
# Mechanical properties :
#
#
# Convention : Reuss Voigt Hill
#
# Bulk Modulus (GPa) = 55.15059 55.65930 55.40494
# Shear Modulus (GPa) = 48.98601 18.75403 33.87002
#
# Velocity S-wave (km/s) = 4.90872 3.03724 4.08169
# Velocity P-wave (km/s) = 7.69773 6.29903 7.03324
#
# Compressibility (1/GPa) = 0.01813217
#
# Stress axis : x y z
#
# Youngs Moduli (GPa) = 97.54801 74.29143 68.38486
#
# Poissons Ratio (x) = 0.09509 0.26308
# Poissons Ratio (y) = 0.12486 0.34017
# Poissons Ratio (z) = 0.37527 0.36956
#
# Static dielectric constant tensor:
#      x y z
#    x 1.059480 0.000000 0.000000 
#    y 0.000000 1.739930 0.000000 
#    z 0.000000 0.000000 1.695460 
# 
# From -- ./inp_files/13904.got.cif
#   From: 2010.05.17/outbox.cif.g08.bks.cpg/sg43_7_cif.got.tgz:13904.got - 2010.06.03 19:21:55.
