data_PCOD9371803
_publ_section_title
;
Structure prediction by ZEFSAII (Michael W. Deem and Ramdas Pophale) SiO2 
 PCOD9371803
Probable space group: F D D 2
;
_chemical_formula_sum "Si O2"
_cell_formula_units_Z 64
_cell_length_a 5.364051
_cell_length_b 25.975754
_cell_length_c 19.339010
_cell_angle_alpha 90.000000
_cell_angle_beta 90.000000
_cell_angle_gamma 90.000000
_cell_volume 2694.606165
_symmetry_space_group_name_H-M "F D D 2"
_symmetry_group_IT_number 43
_symmetry_cell_setting 'orthorhombic'
loop_
_space_group_symop_operation_xyz
x,y,z
-x,-y,z
1/4-x,1/4+y,1/4+z
1/4+x,1/4-y,1/4+z
x,1/2+y,1/2+z
-x,1/2-y,1/2+z
1/4-x,3/4+y,3/4+z
1/4+x,3/4-y,3/4+z
1/2+x,y,1/2+z
1/2-x,-y,1/2+z
3/4-x,1/4+y,3/4+z
3/4+x,1/4-y,3/4+z
1/2+x,1/2+y,z
1/2-x,1/2-y,z
3/4-x,3/4+y,1/4+z
3/4+x,3/4-y,1/4+z
loop_
_atom_site_type_symbol
_atom_site_label
_atom_site_fract_x
_atom_site_fract_y
_atom_site_fract_z
Si Si1 0.292666 0.536506 0.236440
Si Si2 0.719117 0.807224 0.123597
Si Si3 0.004838 0.273912 0.830683
Si Si4 0.468260 0.379545 0.394388
O O1 0.500000 0.500000 0.270927
O O2 0.084297 0.549004 0.292022
O O3 0.240423 0.508447 0.163107
O O4 0.359512 0.593120 0.208638
O O5 0.750000 0.750000 0.153232
O O6 0.477447 0.839087 0.150977
O O7 0.980251 0.835763 0.130989
O O8 0.750000 0.250000 0.804158
O O9 0.005985 0.335569 0.835070
O O10 0.250000 0.250000 0.797402
#
# Coordination Sequence:
#
# PCOD9371803 Si02
#       4
#    16  16  16  16
#     4   9  21  39  67  91 121 157 216 261 314 363
#     4  12  23  38  61  92 124 161 212 256 307 372
#     4   9  17  33  58  85 114 148 198 254 305 350
#     4  10  23  36  60  92 125 157 203 263 317 363
#
# _framework density 23.751152000000001
#
# number of rings (size 3 to 8) (size 9 to 14) (size 15 to 20)
#    1.500    0.500    0.000    4.500    0.000    4.000 
#    0.000    0.000    0.000   24.000    0.000    0.000 
#    0.000    0.000    0.000    0.000    0.000    0.000 
#
# Total GULP energy -89173.513179 kJ/mol
# GULP energy per Si atom -5573.344574 kJ/mol
# Density = 2.369709 g / cm^3
# Si number density = 23.751152 Si / 1000 Ang^3
#
#
#
# Elastic Constant Matrix: (Units=GPa)
#
#
# Indices 1 2 3 4 5 6 
#
# 1 228.8664 127.6038 4.6065 0.0000 0.0000 0.0000
# 2 127.6038 199.6666 9.3648 0.0000 0.0000 0.0000
# 3 4.6065 9.3648 64.8286 0.0000 0.0000 0.0000
# 4 0.0000 0.0000 0.0000 -44.9854 0.0000 0.0000
# 5 0.0000 0.0000 0.0000 0.0000 -5.9876 0.0000
# 6 0.0000 0.0000 0.0000 0.0000 0.0000 65.8820
#
#
#
# Elastic Compliance Matrix: (Units=1/GPa)
#
#
# Indices 1 2 3 4 5 6 
#
# 1 0.006789 -0.004346 0.000145 0.000000 0.000000 0.000000
# 2 -0.004346 0.007824 -0.000821 0.000000 0.000000 0.000000
# 3 0.000145 -0.000821 0.015534 0.000000 0.000000 0.000000
# 4 0.000000 0.000000 0.000000 -0.022229 0.000000 0.000000
# 5 0.000000 0.000000 0.000000 0.000000 -0.167011 0.000000
# 6 0.000000 0.000000 0.000000 0.000000 0.000000 0.015179
#
#
# Mechanical properties :
#
#
# Convention : Reuss Voigt Hill
#
# Bulk Modulus (GPa) = 49.74279 86.27907 68.01093
# Shear Modulus (GPa) = -39.31767 26.43424 -6.44171
#
# Velocity S-wave (km/s) = -4.07308 3.33973 -1.64865
# Velocity P-wave (km/s) = 1.06355 7.16079 5.00728
#
# Compressibility (1/GPa) = 0.02010342
#
# Stress axis : x y z
#
# Youngs Moduli (GPa) = 147.28730 127.80793 64.37645
#
# Poissons Ratio (x) = 0.55543 -0.00936
# Poissons Ratio (y) = 0.64009 0.05288
# Poissons Ratio (z) = -0.02141 0.10499
#
# Static dielectric constant tensor:
#      x y z
#    x 2.000530 0.000000 0.000000 
#    y 0.000000 1.923290 0.000000 
#    z 0.000000 0.000000 1.966210 
# 
# From -- ./inp_files/19398.got.cif
#   From: 2010.05.17/outbox.cif.g08.bks.cpg/sg43_10_cif.got.tgz:19398.got - 2010.06.03 19:21:55.
