data_PCOD9371454
_publ_section_title
;
Structure prediction by ZEFSAII (Michael W. Deem and Ramdas Pophale) SiO2 
 PCOD9371454
Probable space group: F D D 2
;
_chemical_formula_sum "Si O2"
_cell_formula_units_Z 56
_cell_length_a 17.584665
_cell_length_b 15.163576
_cell_length_c 7.962759
_cell_angle_alpha 90.000000
_cell_angle_beta 90.000000
_cell_angle_gamma 90.000000
_cell_volume 2123.241055
_symmetry_space_group_name_H-M "F D D 2"
_symmetry_group_IT_number 43
_symmetry_cell_setting 'orthorhombic'
loop_
_space_group_symop_operation_xyz
x,y,z
-x,-y,z
1/4-x,1/4+y,1/4+z
1/4+x,1/4-y,1/4+z
x,1/2+y,1/2+z
-x,1/2-y,1/2+z
1/4-x,3/4+y,3/4+z
1/4+x,3/4-y,3/4+z
1/2+x,y,1/2+z
1/2-x,-y,1/2+z
3/4-x,1/4+y,3/4+z
3/4+x,1/4-y,3/4+z
1/2+x,1/2+y,z
1/2-x,1/2-y,z
3/4-x,3/4+y,1/4+z
3/4+x,3/4-y,1/4+z
loop_
_atom_site_type_symbol
_atom_site_label
_atom_site_fract_x
_atom_site_fract_y
_atom_site_fract_z
Si Si1 0.103748 0.980096 0.205530
Si Si2 0.033007 0.639029 0.554853
Si Si3 0.000000 0.500000 0.010401
Si Si4 0.996925 0.321826 0.170924
O O1 0.181948 0.943172 0.277446
O O2 0.044912 0.909243 0.122379
O O3 0.098129 0.067837 0.092642
O O4 0.067506 0.015604 0.380129
O O5 0.031043 0.664072 0.360031
O O6 0.042313 0.730247 0.654299
O O7 0.972818 0.582534 0.118806
#
# Coordination Sequence:
#
# PCOD9371454 Si02
#       4
#    16  16   8  16
#     4  10  23  45  68 101 144 186 234 297 361 423
#     4  10  23  43  70 105 142 185 247 293 351 447
#     4  10  22  40  66 102 138 180 244 290 348 442
#     4  12  23  43  73 102 143 190 233 303 364 418
#
# _framework density 26.374770999999999
#
# number of rings (size 3 to 8) (size 9 to 14) (size 15 to 20)
#    0.000    1.714    0.000    6.857    0.000    2.286 
#    0.000   22.857    0.000    0.000    0.000    0.000 
#    0.000    0.000    0.000    0.000    0.000    0.000 
#
# Total GULP energy -78328.541076 kJ/mol
# GULP energy per Si atom -5594.895791 kJ/mol
# Density = 2.631474 g / cm^3
# Si number density = 26.374771 Si / 1000 Ang^3
#
#
#
# Elastic Constant Matrix: (Units=GPa)
#
#
# Indices 1 2 3 4 5 6 
#
# 1 64.2167 36.1393 20.8955 0.0000 0.0000 0.0000
# 2 36.1393 244.5441 107.3990 0.0000 0.0000 0.0000
# 3 20.8955 107.3990 217.2391 0.0001 -0.0001 0.0000
# 4 0.0000 0.0000 0.0001 68.6311 0.0000 0.0000
# 5 0.0000 0.0000 -0.0001 0.0000 16.5972 0.0000
# 6 0.0000 0.0000 0.0000 0.0000 0.0000 38.6309
#
#
#
# Elastic Compliance Matrix: (Units=1/GPa)
#
#
# Indices 1 2 3 4 5 6 
#
# 1 0.017028 -0.002296 -0.000503 0.000000 0.000000 0.000000
# 2 -0.002296 0.005533 -0.002515 0.000000 0.000000 0.000000
# 3 -0.000503 -0.002515 0.005895 0.000000 0.000000 0.000000
# 4 0.000000 0.000000 0.000000 0.014571 0.000000 0.000000
# 5 0.000000 0.000000 0.000000 0.000000 0.060251 0.000000
# 6 0.000000 0.000000 0.000000 0.000000 0.000000 0.025886
#
#
# Mechanical properties :
#
#
# Convention : Reuss Voigt Hill
#
# Bulk Modulus (GPa) = 56.08747 94.98530 75.53638
# Shear Modulus (GPa) = 34.30947 48.87623 41.59285
#
# Velocity S-wave (km/s) = 3.61063 4.30949 3.97545
# Velocity P-wave (km/s) = 6.22045 7.80090 7.05507
#
# Compressibility (1/GPa) = 0.01782929
#
# Stress axis : x y z
#
# Youngs Moduli (GPa) = 58.72755 180.74021 169.64291
#
# Poissons Ratio (x) = 0.41489 0.08533
# Poissons Ratio (y) = 0.13481 0.42657
# Poissons Ratio (z) = 0.02954 0.45447
#
# Static dielectric constant tensor:
#      x y z
#    x 2.240940 0.000000 0.000000 
#    y 0.000000 2.132120 0.000000 
#    z 0.000000 0.000000 2.007920 
# 
# From -- ./inp_files/1928.got.cif
#   From: 2010.05.17/outbox.cif.g08.bks.cpg/sg43_1_cif.got.tgz:1928.got - 2010.06.03 19:21:55.
