data_PCOD9371194
_publ_section_title
;
Structure prediction by ZEFSAII (Michael W. Deem and Ramdas Pophale) SiO2 
 PCOD9371194
Probable space group: F D D 2
;
_chemical_formula_sum "Si O2"
_cell_formula_units_Z 104
_cell_length_a 30.241071
_cell_length_b 15.295401
_cell_length_c 11.109760
_cell_angle_alpha 90.000000
_cell_angle_beta 90.000000
_cell_angle_gamma 90.000000
_cell_volume 5138.811796
_symmetry_space_group_name_H-M "F D D 2"
_symmetry_group_IT_number 43
_symmetry_cell_setting 'orthorhombic'
loop_
_space_group_symop_operation_xyz
x,y,z
-x,-y,z
1/4-x,1/4+y,1/4+z
1/4+x,1/4-y,1/4+z
x,1/2+y,1/2+z
-x,1/2-y,1/2+z
1/4-x,3/4+y,3/4+z
1/4+x,3/4-y,3/4+z
1/2+x,y,1/2+z
1/2-x,-y,1/2+z
3/4-x,1/4+y,3/4+z
3/4+x,1/4-y,3/4+z
1/2+x,1/2+y,z
1/2-x,1/2-y,z
3/4-x,3/4+y,1/4+z
3/4+x,3/4-y,1/4+z
loop_
_atom_site_type_symbol
_atom_site_label
_atom_site_fract_x
_atom_site_fract_y
_atom_site_fract_z
Si Si1 0.659744 0.983861 0.924810
Si Si2 0.040486 0.730399 0.424731
Si Si3 0.750000 0.250000 0.266038
Si Si4 0.703387 0.919138 0.691306
Si Si5 0.901826 0.919529 0.012084
Si Si6 0.581978 0.892739 0.067170
Si Si7 0.623260 0.392770 0.020450
O O1 0.680253 0.923078 0.821523
O O2 0.650597 0.075867 0.860278
O O3 0.614028 0.944091 0.974873
O O4 0.692215 0.990010 0.038383
O O5 0.055606 0.636885 0.474752
O O6 0.065498 0.803478 0.505209
O O7 0.989134 0.753814 0.432616
O O8 0.728827 0.326861 0.185808
O O9 0.710891 0.202883 0.339971
O O10 0.666793 0.926251 0.589629
O O11 0.889292 0.905043 0.150522
O O12 0.905309 0.022372 0.988379
O O13 0.861843 0.880677 0.931259
#
# Coordination Sequence:
#
# PCOD9371194 Si02
#       7
#    16  16   8  16  16  16  16
#     4  11  23  40  69  94 130 178 228 271 333 414
#     4  10  24  41  65  92 137 174 226 277 333 409
#     4  10  22  40  68  94 130 172 230 280 326 396
#     4  11  24  40  66  99 131 175 229 286 334 401
#     4  11  24  40  67  95 137 178 218 272 351 404
#     4  10  21  41  64 100 128 176 223 276 330 410
#     4  12  23  43  68  98 134 176 221 280 343 408
#
# _framework density 20.238140999999999
#
# number of rings (size 3 to 8) (size 9 to 14) (size 15 to 20)
#    0.000    1.231    4.615    0.923    4.308    0.000 
#    0.000    0.769    0.000    0.000    0.000    0.000 
#    0.000    0.000    0.000    0.000    0.000    0.000 
#
# Total GULP energy -145348.922617 kJ/mol
# GULP energy per Si atom -5590.343178 kJ/mol
# Density = 2.019208 g / cm^3
# Si number density = 20.238141 Si / 1000 Ang^3
#
#
#
# Elastic Constant Matrix: (Units=GPa)
#
#
# Indices 1 2 3 4 5 6 
#
# 1 65.1468 20.3334 14.7718 0.0000 0.0000 0.0000
# 2 20.3334 78.8640 -16.5131 0.0000 0.0000 0.0000
# 3 14.7718 -16.5131 65.8938 0.0000 0.0000 0.0000
# 4 0.0000 0.0000 0.0000 24.8578 0.0000 0.0000
# 5 0.0000 0.0000 0.0000 0.0000 14.8237 0.0000
# 6 0.0000 0.0000 0.0000 0.0000 0.0000 26.3850
#
#
#
# Elastic Compliance Matrix: (Units=1/GPa)
#
#
# Indices 1 2 3 4 5 6 
#
# 1 0.018483 -0.005945 -0.005633 0.000000 0.000000 0.000000
# 2 -0.005945 0.015294 0.005166 0.000000 0.000000 0.000000
# 3 -0.005633 0.005166 0.017733 0.000000 0.000000 0.000000
# 4 0.000000 0.000000 0.000000 0.040229 0.000000 0.000000
# 5 0.000000 0.000000 0.000000 0.000000 0.067459 0.000000
# 6 0.000000 0.000000 0.000000 0.000000 0.000000 0.037900
#
#
# Mechanical properties :
#
#
# Convention : Reuss Voigt Hill
#
# Bulk Modulus (GPa) = 25.84963 27.45430 26.65197
# Shear Modulus (GPa) = 22.43971 25.96747 24.20359
#
# Velocity S-wave (km/s) = 3.33345 3.58592 3.46199
# Velocity P-wave (km/s) = 5.25512 5.54438 5.40169
#
# Compressibility (1/GPa) = 0.03868528
#
# Stress axis : x y z
#
# Youngs Moduli (GPa) = 54.10447 65.38328 56.39121
#
# Poissons Ratio (x) = 0.38870 0.31766
# Poissons Ratio (y) = 0.32165 -0.29129
# Poissons Ratio (z) = 0.30478 -0.33774
#
# Static dielectric constant tensor:
#      x y z
#    x 1.707720 0.000000 0.000000 
#    y 0.000000 1.737450 0.000000 
#    z 0.000000 0.000000 1.671910 
# 
# From -- ./inp_files/8358.got.cif
#   From: 2010.05.17/outbox.cif.g08.bks.cpg/sg43_5_cif.got.tgz:8358.got - 2010.06.03 19:21:55.
