data_PCOD9371872
_publ_section_title
;
Structure prediction by ZEFSAII (Michael W. Deem and Ramdas Pophale) SiO2 
 PCOD9371872
Probable space group: F D D 2
;
_chemical_formula_sum "Si O2"
_cell_formula_units_Z 112
_cell_length_a 12.307363
_cell_length_b 26.202300
_cell_length_c 13.825775
_cell_angle_alpha 90.000000
_cell_angle_beta 90.000000
_cell_angle_gamma 90.000000
_cell_volume 4458.552755
_symmetry_space_group_name_H-M "F D D 2"
_symmetry_group_IT_number 43
_symmetry_cell_setting 'orthorhombic'
loop_
_space_group_symop_operation_xyz
x,y,z
-x,-y,z
1/4-x,1/4+y,1/4+z
1/4+x,1/4-y,1/4+z
x,1/2+y,1/2+z
-x,1/2-y,1/2+z
1/4-x,3/4+y,3/4+z
1/4+x,3/4-y,3/4+z
1/2+x,y,1/2+z
1/2-x,-y,1/2+z
3/4-x,1/4+y,3/4+z
3/4+x,1/4-y,3/4+z
1/2+x,1/2+y,z
1/2-x,1/2-y,z
3/4-x,3/4+y,1/4+z
3/4+x,3/4-y,1/4+z
loop_
_atom_site_type_symbol
_atom_site_label
_atom_site_fract_x
_atom_site_fract_y
_atom_site_fract_z
Si Si1 0.859575 0.727602 0.088150
Si Si2 0.903884 0.620175 0.121295
Si Si3 0.160495 0.520933 0.859453
Si Si4 0.493904 0.821522 0.793994
Si Si5 0.387721 0.978387 0.571116
Si Si6 0.923484 0.146133 0.956480
Si Si7 0.641845 0.659513 0.670169
O O1 0.750000 0.750000 0.046677
O O2 0.969056 0.757093 0.069592
O O3 0.855168 0.727094 0.205326
O O4 0.864817 0.669377 0.059667
O O5 0.921931 0.581411 0.032863
O O6 0.803517 0.607409 0.191818
O O7 0.016508 0.640622 0.163870
O O8 0.174925 0.550873 0.961170
O O9 0.127261 0.562952 0.782714
O O10 0.103922 0.466024 0.871667
O O11 0.453302 0.770331 0.847659
O O12 0.387420 0.844318 0.737033
O O13 0.540893 0.865868 0.862553
O O14 0.365669 0.921868 0.607552
O O15 0.500000 0.000000 0.610733
#
# Coordination Sequence:
#
# PCOD9371872 Si02
#       7
#    16  16  16  16  16  16  16
#     4   9  19  40  66  95 137 171 230 303 356 420
#     4  11  24  44  71 102 138 191 242 305 369 441
#     4  10  25  44  65 104 146 184 245 301 373 445
#     4  11  27  46  74 105 147 196 239 308 380 440
#     4  10  23  43  68 104 141 175 235 306 355 429
#     4  12  26  39  79 100 137 189 258 290 367 449
#     4  11  28  49  70 104 156 192 243 311 381 457
#
# _framework density 25.120259999999998
#
# number of rings (size 3 to 8) (size 9 to 14) (size 15 to 20)
#    0.000    1.429    0.000    5.143   16.000    0.000 
#    0.000    2.143    0.000    0.000    0.000    0.000 
#    0.000    0.000    0.000    0.000    0.000    0.000 
#
# Total GULP energy -156508.985179 kJ/mol
# GULP energy per Si atom -5589.606614 kJ/mol
# Density = 2.506309 g / cm^3
# Si number density = 25.120260 Si / 1000 Ang^3
#
#
#
# Elastic Constant Matrix: (Units=GPa)
#
#
# Indices 1 2 3 4 5 6 
#
# 1 70.3062 17.2030 23.9364 0.0000 0.0000 0.0000
# 2 17.2030 71.9622 44.3252 0.0000 0.0000 0.0000
# 3 23.9364 44.3252 88.6670 0.0000 0.0000 0.0000
# 4 0.0000 0.0000 0.0000 45.4613 0.0000 0.0000
# 5 0.0000 0.0000 0.0000 0.0000 23.4878 0.0000
# 6 0.0000 0.0000 0.0000 0.0000 0.0000 56.9134
#
#
#
# Elastic Compliance Matrix: (Units=1/GPa)
#
#
# Indices 1 2 3 4 5 6 
#
# 1 0.015799 -0.001661 -0.003435 0.000000 0.000000 0.000000
# 2 -0.001661 0.020254 -0.009676 0.000000 0.000000 0.000000
# 3 -0.003435 -0.009676 0.017043 0.000000 0.000000 0.000000
# 4 0.000000 0.000000 0.000000 0.021997 0.000000 0.000000
# 5 0.000000 0.000000 0.000000 0.000000 0.042575 0.000000
# 6 0.000000 0.000000 0.000000 0.000000 0.000000 0.017571
#
#
# Mechanical properties :
#
#
# Convention : Reuss Voigt Hill
#
# Bulk Modulus (GPa) = 42.46141 44.65160 43.55651
# Shear Modulus (GPa) = 28.96314 34.87053 31.91683
#
# Velocity S-wave (km/s) = 3.39924 3.72982 3.56836
# Velocity P-wave (km/s) = 5.68739 6.03013 5.86127
#
# Compressibility (1/GPa) = 0.02355079
#
# Stress axis : x y z
#
# Youngs Moduli (GPa) = 63.29362 49.37414 58.67631
#
# Poissons Ratio (x) = 0.08203 0.20153
# Poissons Ratio (y) = 0.10515 0.56777
# Poissons Ratio (z) = 0.21739 0.47776
#
# Static dielectric constant tensor:
#      x y z
#    x 2.040230 0.000000 0.000000 
#    y 0.000000 2.023200 0.000000 
#    z 0.000000 0.000000 2.013260 
# 
# From -- ./inp_files/10182.got.cif
#   From: 2010.05.17/outbox.cif.g08.bks.cpg/sg43_6_cif.got.tgz:10182.got - 2010.06.03 19:21:55.
