data_PCOD9371354
_publ_section_title
;
Structure prediction by ZEFSAII (Michael W. Deem and Ramdas Pophale) SiO2 
 PCOD9371354
Probable space group: F D D 2
;
_chemical_formula_sum "Si O2"
_cell_formula_units_Z 72
_cell_length_a 18.347918
_cell_length_b 21.803778
_cell_length_c 6.857744
_cell_angle_alpha 90.000000
_cell_angle_beta 90.000000
_cell_angle_gamma 90.000000
_cell_volume 2743.467444
_symmetry_space_group_name_H-M "F D D 2"
_symmetry_group_IT_number 43
_symmetry_cell_setting 'orthorhombic'
loop_
_space_group_symop_operation_xyz
x,y,z
-x,-y,z
1/4-x,1/4+y,1/4+z
1/4+x,1/4-y,1/4+z
x,1/2+y,1/2+z
-x,1/2-y,1/2+z
1/4-x,3/4+y,3/4+z
1/4+x,3/4-y,3/4+z
1/2+x,y,1/2+z
1/2-x,-y,1/2+z
3/4-x,1/4+y,3/4+z
3/4+x,1/4-y,3/4+z
1/2+x,1/2+y,z
1/2-x,1/2-y,z
3/4-x,3/4+y,1/4+z
3/4+x,3/4-y,1/4+z
loop_
_atom_site_type_symbol
_atom_site_label
_atom_site_fract_x
_atom_site_fract_y
_atom_site_fract_z
Si Si1 0.664396 0.971215 0.103330
Si Si2 0.584101 0.056923 0.880082
Si Si3 0.750000 0.750000 0.291155
Si Si4 0.003362 0.669581 0.025047
Si Si5 0.279153 0.884214 0.686323
O O1 0.699285 0.915761 0.230600
O O2 0.722650 0.024519 0.153556
O O3 0.674755 0.942796 0.887955
O O4 0.593121 0.012651 0.069084
O O5 0.563669 0.020113 0.687806
O O6 0.659498 0.091844 0.831882
O O7 0.522332 0.107575 0.916463
O O8 0.726866 0.688629 0.181850
O O9 0.953378 0.655787 0.214451
#
# Coordination Sequence:
#
# PCOD9371354 Si02
#       5
#    16  16   8  16  16
#     4  10  21  47  71 104 144 191 240 301 385 431
#     4  12  24  47  77 105 153 186 255 317 364 463
#     4  12  28  48  72 114 144 204 260 294 392 446
#     4  10  23  43  74 108 134 199 240 301 381 448
#     4  10  24  47  70 105 143 197 243 309 374 437
#
# _framework density 26.244161999999999
#
# number of rings (size 3 to 8) (size 9 to 14) (size 15 to 20)
#    1.333    0.000    2.222    2.667    0.000    2.667 
#    8.000    0.000    0.000    0.000    0.000    0.000 
#    0.000    0.000    0.000    0.000    0.000    0.000 
#
# Total GULP energy -100438.145821 kJ/mol
# GULP energy per Si atom -5579.896990 kJ/mol
# Density = 2.618443 g / cm^3
# Si number density = 26.244162 Si / 1000 Ang^3
#
#
#
# Elastic Constant Matrix: (Units=GPa)
#
#
# Indices 1 2 3 4 5 6 
#
# 1 56.0597 32.3985 9.3403 0.0001 -0.0007 -0.0003
# 2 32.3985 190.9026 38.4446 0.0003 -0.0005 0.0000
# 3 9.3403 38.4446 52.3640 0.0004 -0.0016 -0.0004
# 4 0.0001 0.0003 0.0004 27.6990 -0.0003 0.0002
# 5 -0.0007 -0.0005 -0.0016 -0.0003 33.6079 0.0002
# 6 -0.0003 0.0000 -0.0004 0.0002 0.0002 38.5625
#
#
#
# Elastic Compliance Matrix: (Units=1/GPa)
#
#
# Indices 1 2 3 4 5 6 
#
# 1 0.019848 -0.003116 -0.001252 0.000000 0.000000 0.000000
# 2 -0.003116 0.006636 -0.004316 0.000000 0.000000 0.000000
# 3 -0.001252 -0.004316 0.022490 0.000000 0.000001 0.000000
# 4 0.000000 0.000000 0.000000 0.036102 0.000000 0.000000
# 5 0.000000 0.000000 0.000001 0.000000 0.029755 0.000000
# 6 0.000000 0.000000 0.000000 0.000000 0.000000 0.025932
#
#
# Mechanical properties :
#
#
# Convention : Reuss Voigt Hill
#
# Bulk Modulus (GPa) = 31.64209 51.07701 41.35955
# Shear Modulus (GPa) = 29.64410 34.58341 32.11375
#
# Velocity S-wave (km/s) = 3.36452 3.63403 3.50187
# Velocity P-wave (km/s) = 5.21309 6.09202 5.66961
#
# Compressibility (1/GPa) = 0.03160347
#
# Stress axis : x y z
#
# Youngs Moduli (GPa) = 50.38359 150.68430 44.46508
#
# Poissons Ratio (x) = 0.46956 0.05569
# Poissons Ratio (y) = 0.15700 0.19193
# Poissons Ratio (z) = 0.06310 0.65042
#
# Static dielectric constant tensor:
#      x y z
#    x 2.230820 0.000000 0.000000 
#    y 0.000000 2.055230 0.000000 
#    z 0.000000 0.000000 2.066750 
# 
# From -- ./inp_files/2728.got.cif
#   From: 2010.05.17/outbox.cif.g08.bks.cpg/sg43_2_cif.got.tgz:2728.got - 2010.06.03 19:21:55.
