data_PCOD9371438
_publ_section_title
;
Structure prediction by ZEFSAII (Michael W. Deem and Ramdas Pophale) SiO2 
 PCOD9371438
Probable space group: F D D 2
;
_chemical_formula_sum "Si O2"
_cell_formula_units_Z 96
_cell_length_a 16.547661
_cell_length_b 25.763688
_cell_length_c 10.994230
_cell_angle_alpha 90.000000
_cell_angle_beta 90.000000
_cell_angle_gamma 90.000000
_cell_volume 4687.156609
_symmetry_space_group_name_H-M "F D D 2"
_symmetry_group_IT_number 43
_symmetry_cell_setting 'orthorhombic'
loop_
_space_group_symop_operation_xyz
x,y,z
-x,-y,z
1/4-x,1/4+y,1/4+z
1/4+x,1/4-y,1/4+z
x,1/2+y,1/2+z
-x,1/2-y,1/2+z
1/4-x,3/4+y,3/4+z
1/4+x,3/4-y,3/4+z
1/2+x,y,1/2+z
1/2-x,-y,1/2+z
3/4-x,1/4+y,3/4+z
3/4+x,1/4-y,3/4+z
1/2+x,1/2+y,z
1/2-x,1/2-y,z
3/4-x,3/4+y,1/4+z
3/4+x,3/4-y,1/4+z
loop_
_atom_site_type_symbol
_atom_site_label
_atom_site_fract_x
_atom_site_fract_y
_atom_site_fract_z
Si Si1 0.546039 0.054343 0.802170
Si Si2 0.043305 0.740315 0.040007
Si Si3 0.920639 0.886021 0.793749
Si Si4 0.272232 0.125839 0.788400
Si Si5 0.046641 0.554439 0.534072
Si Si6 0.514342 0.778929 0.293064
O O1 0.522236 0.076143 0.667978
O O2 0.500000 0.000000 0.823506
O O3 0.637227 0.033223 0.794377
O O4 0.533805 0.092946 0.913969
O O5 0.995998 0.748739 0.164436
O O6 0.069048 0.679601 0.036671
O O7 0.996493 0.746856 0.913933
O O8 0.823426 0.886655 0.804108
O O9 0.954699 0.827656 0.795828
O O10 0.947529 0.905618 0.659734
O O11 0.961943 0.913528 0.909804
O O12 0.142497 0.545443 0.544427
O O13 0.000000 0.500000 0.522977
#
# Coordination Sequence:
#
# PCOD9371438 Si02
#       6
#    16  16  16  16  16  16
#     4  10  22  42  64  96 133 177 224 282 344 423
#     4  10  22  40  62  93 133 166 224 272 344 405
#     4  11  22  44  64  98 133 174 229 289 344 412
#     4  11  24  42  68  95 139 175 230 291 342 420
#     4  10  22  43  63  92 137 172 222 283 350 415
#     4  10  22  41  59  94 130 164 223 279 322 425
#
# _framework density 20.481501000000002
#
# number of rings (size 3 to 8) (size 9 to 14) (size 15 to 20)
#    0.000    1.667    3.333    2.000    2.333    3.333 
#   21.000    0.000    0.000    0.000    0.000    0.000 
#    0.000    0.000    0.000    0.000    0.000    0.000 
#
# Total GULP energy -133751.619409 kJ/mol
# GULP energy per Si atom -5572.984142 kJ/mol
# Density = 2.043488 g / cm^3
# Si number density = 20.481501 Si / 1000 Ang^3
#
#
#
# Elastic Constant Matrix: (Units=GPa)
#
#
# Indices 1 2 3 4 5 6 
#
# 1 46.2808 1.5893 14.7195 0.0000 0.0000 0.0000
# 2 1.5893 45.6507 61.7601 0.0000 0.0000 0.0000
# 3 14.7195 61.7601 251.5877 0.0000 0.0000 0.0000
# 4 0.0000 0.0000 0.0000 46.1413 0.0000 0.0000
# 5 0.0000 0.0000 0.0000 0.0000 27.9546 0.0000
# 6 0.0000 0.0000 0.0000 0.0000 0.0000 6.7263
#
#
#
# Elastic Compliance Matrix: (Units=1/GPa)
#
#
# Indices 1 2 3 4 5 6 
#
# 1 0.022082 0.001466 -0.001652 0.000000 0.000000 0.000000
# 2 0.001466 0.032895 -0.008161 0.000000 0.000000 0.000000
# 3 -0.001652 -0.008161 0.006075 0.000000 0.000000 0.000000
# 4 0.000000 0.000000 0.000000 0.021673 0.000000 0.000000
# 5 0.000000 0.000000 0.000000 0.000000 0.035772 0.000000
# 6 0.000000 0.000000 0.000000 0.000000 0.000000 0.148671
#
#
# Mechanical properties :
#
#
# Convention : Reuss Voigt Hill
#
# Bulk Modulus (GPa) = 22.54353 55.51746 39.03050
# Shear Modulus (GPa) = 16.74212 33.86111 25.30162
#
# Velocity S-wave (km/s) = 2.86217 4.07043 3.51855
# Velocity P-wave (km/s) = 4.68544 7.01828 5.96698
#
# Compressibility (1/GPa) = 0.04435862
#
# Stress axis : x y z
#
# Youngs Moduli (GPa) = 45.28519 30.39956 164.61562
#
# Poissons Ratio (x) = -0.04456 0.27192
# Poissons Ratio (y) = -0.06639 1.34342
# Poissons Ratio (z) = 0.07480 0.24809
#
# Static dielectric constant tensor:
#      x y z
#    x 1.746490 0.000000 0.000000 
#    y 0.000000 1.731120 0.000000 
#    z 0.000000 0.000000 1.816560 
# 
# From -- ./inp_files/6689.got.cif
#   From: 2010.05.17/outbox.cif.g08.bks.cpg/sg43_4_cif.got.tgz:6689.got - 2010.06.03 19:21:55.
