data_PCOD9371264
_publ_section_title
;
Structure prediction by ZEFSAII (Michael W. Deem and Ramdas Pophale) SiO2 
 PCOD9371264
Probable space group: F D D 2
;
_chemical_formula_sum "Si O2"
_cell_formula_units_Z 72
_cell_length_a 10.428537
_cell_length_b 10.958708
_cell_length_c 26.390626
_cell_angle_alpha 90.000000
_cell_angle_beta 90.000000
_cell_angle_gamma 90.000000
_cell_volume 3016.007613
_symmetry_space_group_name_H-M "F D D 2"
_symmetry_group_IT_number 43
_symmetry_cell_setting 'orthorhombic'
loop_
_space_group_symop_operation_xyz
x,y,z
-x,-y,z
1/4-x,1/4+y,1/4+z
1/4+x,1/4-y,1/4+z
x,1/2+y,1/2+z
-x,1/2-y,1/2+z
1/4-x,3/4+y,3/4+z
1/4+x,3/4-y,3/4+z
1/2+x,y,1/2+z
1/2-x,-y,1/2+z
3/4-x,1/4+y,3/4+z
3/4+x,1/4-y,3/4+z
1/2+x,1/2+y,z
1/2-x,1/2-y,z
3/4-x,3/4+y,1/4+z
3/4+x,3/4-y,1/4+z
loop_
_atom_site_type_symbol
_atom_site_label
_atom_site_fract_x
_atom_site_fract_y
_atom_site_fract_z
Si Si1 0.649787 0.140625 0.307700
Si Si2 0.460553 0.132455 0.403887
Si Si3 0.250000 0.250000 0.618794
Si Si4 0.482776 0.629950 0.081596
Si Si5 0.627446 0.331801 0.446179
O O1 0.750000 0.250000 0.314993
O O2 0.544720 0.144977 0.351896
O O3 0.602496 0.432703 0.404006
O O4 0.601094 0.145159 0.250102
O O5 0.315278 0.134230 0.383857
O O6 0.505035 0.241043 0.440609
O O7 0.500000 0.000000 0.424854
O O8 0.332028 0.153235 0.588033
O O9 0.500000 0.500000 0.054461
O O10 0.537945 0.755425 0.059499
O O11 0.750000 0.250000 0.434844
#
# Coordination Sequence:
#
# PCOD9371264 Si02
#       5
#    16  16   8  16  16
#     4  11  24  44  69 104 141 190 239 296 360 436
#     4  10  21  42  69  96 134 183 232 292 360 423
#     4  12  24  44  70 104 136 186 236 300 360 430
#     4  11  23  42  69  98 138 176 236 293 362 419
#     4  12  23  42  70 100 141 185 240 292 359 432
#
# _framework density 23.872617000000002
#
# number of rings (size 3 to 8) (size 9 to 14) (size 15 to 20)
#    0.000    0.889    3.333    6.667    0.000    0.889 
#    0.000    4.444    0.000    0.000    0.000    0.000 
#    0.000    0.000    0.000    0.000    0.000    0.000 
#
# Total GULP energy -100706.949356 kJ/mol
# GULP energy per Si atom -5594.830520 kJ/mol
# Density = 2.381828 g / cm^3
# Si number density = 23.872617 Si / 1000 Ang^3
#
#
#
# Elastic Constant Matrix: (Units=GPa)
#
#
# Indices 1 2 3 4 5 6 
#
# 1 98.5425 25.6451 10.7838 0.0000 0.0000 0.0000
# 2 25.6451 152.4048 6.1616 0.0000 0.0000 0.0000
# 3 10.7838 6.1616 71.1226 0.0000 0.0000 0.0000
# 4 0.0000 0.0000 0.0000 33.0729 0.0000 0.0000
# 5 0.0000 0.0000 0.0000 0.0000 -2.4538 0.0000
# 6 0.0000 0.0000 0.0000 0.0000 0.0000 59.1475
#
#
#
# Elastic Compliance Matrix: (Units=1/GPa)
#
#
# Indices 1 2 3 4 5 6 
#
# 1 0.010766 -0.001752 -0.001481 0.000000 0.000000 0.000000
# 2 -0.001752 0.006870 -0.000330 0.000000 0.000000 0.000000
# 3 -0.001481 -0.000330 0.014313 0.000000 0.000000 0.000000
# 4 0.000000 0.000000 0.000000 0.030236 0.000000 0.000000
# 5 0.000000 0.000000 0.000000 0.000000 -0.407525 0.000000
# 6 0.000000 0.000000 0.000000 0.000000 0.000000 0.016907
#
#
# Mechanical properties :
#
#
# Convention : Reuss Voigt Hill
#
# Bulk Modulus (GPa) = 40.28200 45.25010 42.76605
# Shear Modulus (GPa) = -15.97269 36.58526 10.30629
#
# Velocity S-wave (km/s) = -2.58946 3.91899 2.08004
# Velocity P-wave (km/s) = 2.82311 6.28283 4.87052
#
# Compressibility (1/GPa) = 0.02482498
#
# Stress axis : x y z
#
# Youngs Moduli (GPa) = 92.88670 145.56991 69.86524
#
# Poissons Ratio (x) = 0.25499 0.10344
# Poissons Ratio (y) = 0.16271 0.02302
# Poissons Ratio (z) = 0.13753 0.04797
#
# Static dielectric constant tensor:
#      x y z
#    x 1.936160 0.000000 0.000000 
#    y 0.000000 1.973960 0.000000 
#    z 0.000000 0.000000 1.871350 
# 
# From -- ./inp_files/24879.got.cif
#   From: 2010.05.17/outbox.cif.g08.bks.cpg/sg43_13_cif.got.tgz:24879.got - 2010.06.03 19:21:55.
