data_PCOD9371800
_publ_section_title
;
Structure prediction by ZEFSAII (Michael W. Deem and Ramdas Pophale) SiO2 
 PCOD9371800
Probable space group: F D D 2
;
_chemical_formula_sum "Si O2"
_cell_formula_units_Z 72
_cell_length_a 16.047587
_cell_length_b 11.590424
_cell_length_c 13.585326
_cell_angle_alpha 90.000000
_cell_angle_beta 90.000000
_cell_angle_gamma 90.000000
_cell_volume 2526.848050
_symmetry_space_group_name_H-M "F D D 2"
_symmetry_group_IT_number 43
_symmetry_cell_setting 'orthorhombic'
loop_
_space_group_symop_operation_xyz
x,y,z
-x,-y,z
1/4-x,1/4+y,1/4+z
1/4+x,1/4-y,1/4+z
x,1/2+y,1/2+z
-x,1/2-y,1/2+z
1/4-x,3/4+y,3/4+z
1/4+x,3/4-y,3/4+z
1/2+x,y,1/2+z
1/2-x,-y,1/2+z
3/4-x,1/4+y,3/4+z
3/4+x,1/4-y,3/4+z
1/2+x,1/2+y,z
1/2-x,1/2-y,z
3/4-x,3/4+y,1/4+z
3/4+x,3/4-y,1/4+z
loop_
_atom_site_type_symbol
_atom_site_label
_atom_site_fract_x
_atom_site_fract_y
_atom_site_fract_z
Si Si1 0.257246 0.129291 0.111600
Si Si2 0.360921 0.519229 0.775953
Si Si3 0.356631 0.664468 0.117547
Si Si4 0.750000 0.250000 0.942880
Si Si5 0.783665 0.623931 0.832333
O O1 0.250000 0.250000 0.171888
O O2 0.309302 0.044498 0.178133
O O3 0.318648 0.169376 0.024628
O O4 0.164450 0.122299 0.067890
O O5 0.293591 0.463144 0.847400
O O6 0.436018 0.578869 0.130072
O O7 0.388894 0.796310 0.116427
O O8 0.304449 0.639929 0.215566
O O9 0.301695 0.664538 0.017697
O O10 0.750000 0.750000 0.859817
#
# Coordination Sequence:
#
# PCOD9371800 Si02
#       5
#    16  16  16   8  16
#     4   8  21  46  74 113 146 204 255 327 384 474
#     4   9  21  46  74 113 151 202 261 326 391 472
#     4  10  24  48  82 113 163 211 269 333 410 478
#     4  10  22  52  80 122 156 218 264 340 404 490
#     4  11  24  48  74 113 156 212 268 331 395 489
#
# _framework density 28.493994000000001
#
# number of rings (size 3 to 8) (size 9 to 14) (size 15 to 20)
#    1.333    0.889    1.111    0.000    0.000    5.333 
#   18.000    2.222    0.000    0.000    0.000    0.000 
#    0.000    0.000    0.000    0.000    0.000    0.000 
#
# Total GULP energy -100459.886576 kJ/mol
# GULP energy per Si atom -5581.104810 kJ/mol
# Density = 2.842914 g / cm^3
# Si number density = 28.493994 Si / 1000 Ang^3
#
#
#
# Elastic Constant Matrix: (Units=GPa)
#
#
# Indices 1 2 3 4 5 6 
#
# 1 178.1671 100.9999 60.4000 0.0000 0.0000 0.0000
# 2 100.9999 150.5597 90.4015 0.0000 0.0000 0.0000
# 3 60.4000 90.4015 122.1174 0.0000 0.0000 0.0000
# 4 0.0000 0.0000 0.0000 53.2895 0.0000 0.0000
# 5 0.0000 0.0000 0.0000 0.0000 -11.0000 0.0000
# 6 0.0000 0.0000 0.0000 0.0000 0.0000 55.6555
#
#
#
# Elastic Compliance Matrix: (Units=1/GPa)
#
#
# Indices 1 2 3 4 5 6 
#
# 1 0.009057 -0.006095 0.000033 0.000000 0.000000 0.000000
# 2 -0.006095 0.016058 -0.008873 0.000000 0.000000 0.000000
# 3 0.000033 -0.008873 0.014741 0.000000 0.000000 0.000000
# 4 0.000000 0.000000 0.000000 0.018765 0.000000 0.000000
# 5 0.000000 0.000000 0.000000 0.000000 -0.090909 0.000000
# 6 0.000000 0.000000 0.000000 0.000000 0.000000 0.017968
#
#
# Mechanical properties :
#
#
# Convention : Reuss Voigt Hill
#
# Bulk Modulus (GPa) = 100.14751 106.04966 103.09859
# Shear Modulus (GPa) = 264.82348 32.85853 148.84100
#
# Velocity S-wave (km/s) = 9.65100 3.39953 7.23528
# Velocity P-wave (km/s) = 12.62586 7.26003 10.29855
#
# Compressibility (1/GPa) = 0.00998527
#
# Stress axis : x y z
#
# Youngs Moduli (GPa) = 110.41247 62.27250 67.83658
#
# Poissons Ratio (x) = 0.37957 -0.00221
# Poissons Ratio (y) = 0.67299 0.60192
# Poissons Ratio (z) = -0.00360 0.55255
#
# Static dielectric constant tensor:
#      x y z
#    x 2.311800 0.000000 0.000000 
#    y 0.000000 2.343680 0.000000 
#    z 0.000000 0.000000 2.355200 
# 
# From -- ./inp_files/14148.got.cif
#   From: 2010.05.17/outbox.cif.g08.bks.cpg/sg43_8_cif.got.tgz:14148.got - 2010.06.03 19:21:55.
