data_PCOD9371917
_publ_section_title
;
Structure prediction by ZEFSAII (Michael W. Deem and Ramdas Pophale) SiO2 
 PCOD9371917
Probable space group: F D D 2
;
_chemical_formula_sum "Si O2"
_cell_formula_units_Z 88
_cell_length_a 17.611375
_cell_length_b 16.152124
_cell_length_c 11.355224
_cell_angle_alpha 90.000000
_cell_angle_beta 90.000000
_cell_angle_gamma 90.000000
_cell_volume 3230.119655
_symmetry_space_group_name_H-M "F D D 2"
_symmetry_group_IT_number 43
_symmetry_cell_setting 'orthorhombic'
loop_
_space_group_symop_operation_xyz
x,y,z
-x,-y,z
1/4-x,1/4+y,1/4+z
1/4+x,1/4-y,1/4+z
x,1/2+y,1/2+z
-x,1/2-y,1/2+z
1/4-x,3/4+y,3/4+z
1/4+x,3/4-y,3/4+z
1/2+x,y,1/2+z
1/2-x,-y,1/2+z
3/4-x,1/4+y,3/4+z
3/4+x,1/4-y,3/4+z
1/2+x,1/2+y,z
1/2-x,1/2-y,z
3/4-x,3/4+y,1/4+z
3/4+x,3/4-y,1/4+z
loop_
_atom_site_type_symbol
_atom_site_label
_atom_site_fract_x
_atom_site_fract_y
_atom_site_fract_z
Si Si1 0.000000 0.500000 0.521070
Si Si2 0.260889 0.966350 0.222295
Si Si3 0.642800 0.596937 0.294779
Si Si4 0.225686 0.864174 0.442224
Si Si5 0.887674 0.368881 0.543906
Si Si6 0.864154 0.479002 0.036921
O O1 0.047869 0.421379 0.570994
O O2 0.073490 0.553469 0.475482
O O3 0.182374 0.014635 0.238860
O O4 0.320189 0.039437 0.247047
O O5 0.265114 0.902609 0.326944
O O6 0.287818 0.938180 0.094167
O O7 0.609621 0.568501 0.418876
O O8 0.594833 0.624148 0.182656
O O9 0.296418 0.858617 0.531968
O O10 0.178554 0.789122 0.384593
O O11 0.165215 0.930763 0.494774
#
# Coordination Sequence:
#
# PCOD9371917 Si02
#       6
#     8  16  16  16  16  16
#     4  10  24  40  74 108 134 208 258 312 386 472
#     4  10  24  45  67 107 147 200 258 317 394 473
#     4  10  23  44  73 106 151 199 256 319 392 479
#     4  11  26  46  77 112 159 201 263 330 400 479
#     4  11  23  46  76 105 151 207 263 325 394 482
#     4  11  26  47  74 116 157 204 256 331 400 481
#
# _framework density 27.243573999999999
#
# number of rings (size 3 to 8) (size 9 to 14) (size 15 to 20)
#    0.000    1.455    1.818    1.091    7.636    6.545 
#    0.000    1.818    0.000    0.000    0.000    0.000 
#    0.000    0.000    0.000    0.000    0.000    0.000 
#
# Total GULP energy -122803.896951 kJ/mol
# GULP energy per Si atom -5581.995316 kJ/mol
# Density = 2.718157 g / cm^3
# Si number density = 27.243574 Si / 1000 Ang^3
#
#
#
# Elastic Constant Matrix: (Units=GPa)
#
#
# Indices 1 2 3 4 5 6 
#
# 1 124.7272 48.6492 48.3019 0.0000 0.0000 0.0000
# 2 48.6492 73.5776 30.6155 0.0000 0.0000 0.0000
# 3 48.3019 30.6155 147.7758 0.0000 0.0000 0.0000
# 4 0.0000 0.0000 0.0000 39.9826 0.0000 0.0000
# 5 0.0000 0.0000 0.0000 0.0000 53.6570 0.0000
# 6 0.0000 0.0000 0.0000 0.0000 0.0000 13.8684
#
#
#
# Elastic Compliance Matrix: (Units=1/GPa)
#
#
# Indices 1 2 3 4 5 6 
#
# 1 0.011530 -0.006627 -0.002396 0.000000 0.000000 0.000000
# 2 -0.006627 0.018682 -0.001704 0.000000 0.000000 0.000000
# 3 -0.002396 -0.001704 0.007903 0.000000 0.000000 0.000000
# 4 0.000000 0.000000 0.000000 0.025011 0.000000 0.000000
# 5 0.000000 0.000000 0.000000 0.000000 0.018637 0.000000
# 6 0.000000 0.000000 0.000000 0.000000 0.000000 0.072106
#
#
# Mechanical properties :
#
#
# Convention : Reuss Voigt Hill
#
# Bulk Modulus (GPa) = 60.01962 66.80155 63.41058
# Shear Modulus (GPa) = 27.64314 36.06921 31.85618
#
# Velocity S-wave (km/s) = 3.18884 3.64256 3.42323
# Velocity P-wave (km/s) = 5.96966 6.50111 6.24104
#
# Compressibility (1/GPa) = 0.01666122
#
# Stress axis : x y z
#
# Youngs Moduli (GPa) = 86.73014 53.52783 126.53084
#
# Poissons Ratio (x) = 0.35471 0.30314
# Poissons Ratio (y) = 0.57474 0.21566
# Poissons Ratio (z) = 0.20779 0.09123
#
# Static dielectric constant tensor:
#      x y z
#    x 2.225160 0.000000 0.000000 
#    y 0.000000 2.140180 0.000000 
#    z 0.000000 0.000000 2.161300 
# 
# From -- ./inp_files/7056.got.cif
#   From: 2010.05.17/outbox.cif.g08.bks.cpg/sg43_4_cif.got.tgz:7056.got - 2010.06.03 19:21:55.
