data_PCOD9371169
_publ_section_title
;
Structure prediction by ZEFSAII (Michael W. Deem and Ramdas Pophale) SiO2 
 PCOD9371169
Probable space group: F D D 2
;
_chemical_formula_sum "Si O2"
_cell_formula_units_Z 64
_cell_length_a 8.596041
_cell_length_b 15.001614
_cell_length_c 20.994995
_cell_angle_alpha 90.000000
_cell_angle_beta 90.000000
_cell_angle_gamma 90.000000
_cell_volume 2707.398852
_symmetry_space_group_name_H-M "F D D 2"
_symmetry_group_IT_number 43
_symmetry_cell_setting 'orthorhombic'
loop_
_space_group_symop_operation_xyz
x,y,z
-x,-y,z
1/4-x,1/4+y,1/4+z
1/4+x,1/4-y,1/4+z
x,1/2+y,1/2+z
-x,1/2-y,1/2+z
1/4-x,3/4+y,3/4+z
1/4+x,3/4-y,3/4+z
1/2+x,y,1/2+z
1/2-x,-y,1/2+z
3/4-x,1/4+y,3/4+z
3/4+x,1/4-y,3/4+z
1/2+x,1/2+y,z
1/2-x,1/2-y,z
3/4-x,3/4+y,1/4+z
3/4+x,3/4-y,1/4+z
loop_
_atom_site_type_symbol
_atom_site_label
_atom_site_fract_x
_atom_site_fract_y
_atom_site_fract_z
Si Si1 0.430684 0.267598 0.831960
Si Si2 0.131066 0.182145 0.077611
Si Si3 0.676810 0.015037 0.940428
Si Si4 0.058020 0.099040 0.280845
O O1 0.250000 0.250000 0.847839
O O2 0.527870 0.349161 0.859775
O O3 0.293295 0.508541 0.881774
O O4 0.512023 0.171179 0.835364
O O5 0.250000 0.250000 0.045428
O O6 0.994244 0.149419 0.031329
O O7 0.307201 0.041755 0.005600
O O8 0.500000 0.000000 0.921601
O O9 0.718617 0.111622 0.969961
O O10 0.000000 0.000000 0.289479
#
# Coordination Sequence:
#
# PCOD9371169 Si02
#       4
#    16  16  16  16
#     4   9  21  43  66  94 142 177 221 291 340 410
#     4  12  24  37  71 103 137 185 231 282 357 418
#     4   9  23  44  69  94 142 179 236 291 346 404
#     4  10  21  40  67  96 139 178 226 286 348 409
#
# _framework density 23.638923999999999
#
# number of rings (size 3 to 8) (size 9 to 14) (size 15 to 20)
#    1.500    0.500    0.000    3.000    3.500    2.000 
#    0.000    1.250    0.000    0.000    0.000    0.000 
#    0.000    0.000    0.000    0.000    0.000    0.000 
#
# Total GULP energy -89107.555877 kJ/mol
# GULP energy per Si atom -5569.222242 kJ/mol
# Density = 2.358512 g / cm^3
# Si number density = 23.638924 Si / 1000 Ang^3
#
#
#
# Elastic Constant Matrix: (Units=GPa)
#
#
# Indices 1 2 3 4 5 6 
#
# 1 209.2039 96.0372 11.7421 0.0000 0.0000 0.0000
# 2 96.0372 132.5174 -17.1436 0.0000 0.0000 0.0000
# 3 11.7421 -17.1436 48.2670 0.0000 0.0000 0.0000
# 4 0.0000 0.0000 0.0000 11.8321 0.0000 0.0000
# 5 0.0000 0.0000 0.0000 0.0000 22.9077 0.0000
# 6 0.0000 0.0000 0.0000 0.0000 0.0000 49.2577
#
#
#
# Elastic Compliance Matrix: (Units=1/GPa)
#
#
# Indices 1 2 3 4 5 6 
#
# 1 0.007879 -0.006245 -0.004135 0.000000 0.000000 0.000000
# 2 -0.006245 0.012859 0.006087 0.000000 0.000000 0.000000
# 3 -0.004135 0.006087 0.023886 0.000000 0.000000 0.000000
# 4 0.000000 0.000000 0.000000 0.084516 0.000000 0.000000
# 5 0.000000 0.000000 0.000000 0.000000 0.043653 0.000000
# 6 0.000000 0.000000 0.000000 0.000000 0.000000 0.020301
#
#
# Mechanical properties :
#
#
# Convention : Reuss Voigt Hill
#
# Bulk Modulus (GPa) = 27.74849 63.47332 45.61090
# Shear Modulus (GPa) = 23.39806 36.75636 30.07721
#
# Velocity S-wave (km/s) = 3.14954 3.94751 3.57088
# Velocity P-wave (km/s) = 4.99901 6.90555 6.02813
#
# Compressibility (1/GPa) = 0.03603800
#
# Stress axis : x y z
#
# Youngs Moduli (GPa) = 126.92210 77.76475 41.86582
#
# Poissons Ratio (x) = 0.48563 0.17311
# Poissons Ratio (y) = 0.79261 -0.25482
# Poissons Ratio (z) = 0.52479 -0.47332
#
# Static dielectric constant tensor:
#      x y z
#    x 1.885180 0.000000 0.000000 
#    y 0.000000 1.890810 0.000000 
#    z 0.000000 0.000000 2.021110 
# 
# From -- ./inp_files/19913.got.cif
#   From: 2010.05.17/outbox.cif.g08.bks.cpg/sg43_10_cif.got.tgz:19913.got - 2010.06.03 19:21:55.
