data_PCOD9371137
_publ_section_title
;
Structure prediction by ZEFSAII (Michael W. Deem and Ramdas Pophale) SiO2 
 PCOD9371137
Probable space group: F D D 2
;
_chemical_formula_sum "Si O2"
_cell_formula_units_Z 64
_cell_length_a 7.791502
_cell_length_b 14.406599
_cell_length_c 27.028470
_cell_angle_alpha 90.000000
_cell_angle_beta 90.000000
_cell_angle_gamma 90.000000
_cell_volume 3033.919943
_symmetry_space_group_name_H-M "F D D 2"
_symmetry_group_IT_number 43
_symmetry_cell_setting 'orthorhombic'
loop_
_space_group_symop_operation_xyz
x,y,z
-x,-y,z
1/4-x,1/4+y,1/4+z
1/4+x,1/4-y,1/4+z
x,1/2+y,1/2+z
-x,1/2-y,1/2+z
1/4-x,3/4+y,3/4+z
1/4+x,3/4-y,3/4+z
1/2+x,y,1/2+z
1/2-x,-y,1/2+z
3/4-x,1/4+y,3/4+z
3/4+x,1/4-y,3/4+z
1/2+x,1/2+y,z
1/2-x,1/2-y,z
3/4-x,3/4+y,1/4+z
3/4+x,3/4-y,1/4+z
loop_
_atom_site_type_symbol
_atom_site_label
_atom_site_fract_x
_atom_site_fract_y
_atom_site_fract_z
Si Si1 0.648713 0.927706 0.335110
Si Si2 0.632686 0.833380 0.674119
Si Si3 0.372243 0.337607 0.259311
Si Si4 0.953246 0.236644 0.357516
O O1 0.783241 0.958609 0.376654
O O2 0.744879 0.912077 0.283348
O O3 0.564002 0.831544 0.354819
O O4 0.500000 0.000000 0.329258
O O5 0.750000 0.750000 0.694769
O O6 0.491658 0.863263 0.713953
O O7 0.735506 0.920546 0.652087
O O8 0.250000 0.250000 0.246013
O O9 0.493488 0.310775 0.305632
O O10 0.750000 0.250000 0.360012
#
# Coordination Sequence:
#
# PCOD9371137 Si02
#       4
#    16  16  16  16
#     4  10  21  41  65  90 125 164 204 257 312 364
#     4  11  21  37  63  91 125 166 206 251 309 373
#     4   9  20  38  61  90 125 163 206 254 307 371
#     4  10  21  40  62  89 126 163 204 258 309 366
#
# _framework density 21.094822000000001
#
# number of rings (size 3 to 8) (size 9 to 14) (size 15 to 20)
#    0.000    2.000    0.000    5.250    0.000    0.000 
#    0.000   26.250    0.000    0.000    0.000    0.000 
#    0.000    0.000    0.000    0.000    0.000    0.000 
#
# Total GULP energy -89433.514585 kJ/mol
# GULP energy per Si atom -5589.594662 kJ/mol
# Density = 2.104681 g / cm^3
# Si number density = 21.094822 Si / 1000 Ang^3
#
#
#
# Elastic Constant Matrix: (Units=GPa)
#
#
# Indices 1 2 3 4 5 6 
#
# 1 133.8858 38.5377 33.4640 0.0000 0.0000 0.0000
# 2 38.5377 69.9464 32.8929 0.0000 0.0000 0.0000
# 3 33.4640 32.8929 58.3853 0.0000 0.0000 0.0000
# 4 0.0000 0.0000 0.0000 -1.4667 0.0000 0.0000
# 5 0.0000 0.0000 0.0000 0.0000 34.9516 0.0000
# 6 0.0000 0.0000 0.0000 0.0000 0.0000 40.4596
#
#
#
# Elastic Compliance Matrix: (Units=1/GPa)
#
#
# Indices 1 2 3 4 5 6 
#
# 1 0.009331 -0.003572 -0.003336 0.000000 0.000000 0.000000
# 2 -0.003572 0.020817 -0.009680 0.000000 0.000000 0.000000
# 3 -0.003336 -0.009680 0.024493 0.000000 0.000000 0.000000
# 4 0.000000 0.000000 0.000000 -0.681808 0.000000 0.000000
# 5 0.000000 0.000000 0.000000 0.000000 0.028611 0.000000
# 6 0.000000 0.000000 0.000000 0.000000 0.000000 0.024716
#
#
# Mechanical properties :
#
#
# Convention : Reuss Voigt Hill
#
# Bulk Modulus (GPa) = 46.58823 52.44521 49.51672
# Shear Modulus (GPa) = -9.37193 25.27710 7.95259
#
# Velocity S-wave (km/s) = -2.11007 3.46535 1.94374
# Velocity P-wave (km/s) = 4.02449 6.39743 5.34433
#
# Compressibility (1/GPa) = 0.02146465
#
# Stress axis : x y z
#
# Youngs Moduli (GPa) = 107.16914 48.03714 40.82790
#
# Poissons Ratio (x) = 0.17161 0.13618
# Poissons Ratio (y) = 0.38286 0.39523
# Poissons Ratio (z) = 0.35746 0.46502
#
# Static dielectric constant tensor:
#      x y z
#    x 1.749240 0.000000 0.000000 
#    y 0.000000 1.791980 0.000000 
#    z 0.000000 0.000000 1.734420 
# 
# From -- ./inp_files/19920.got.cif
#   From: 2010.05.17/outbox.cif.g08.bks.cpg/sg43_10_cif.got.tgz:19920.got - 2010.06.03 19:21:55.
