data_PCOD9371413
_publ_section_title
;
Structure prediction by ZEFSAII (Michael W. Deem and Ramdas Pophale) SiO2 
 PCOD9371413
Probable space group: F D D 2
;
_chemical_formula_sum "Si O2"
_cell_formula_units_Z 96
_cell_length_a 23.300358
_cell_length_b 8.541481
_cell_length_c 18.641010
_cell_angle_alpha 90.000000
_cell_angle_beta 90.000000
_cell_angle_gamma 90.000000
_cell_volume 3709.925704
_symmetry_space_group_name_H-M "F D D 2"
_symmetry_group_IT_number 43
_symmetry_cell_setting 'orthorhombic'
loop_
_space_group_symop_operation_xyz
x,y,z
-x,-y,z
1/4-x,1/4+y,1/4+z
1/4+x,1/4-y,1/4+z
x,1/2+y,1/2+z
-x,1/2-y,1/2+z
1/4-x,3/4+y,3/4+z
1/4+x,3/4-y,3/4+z
1/2+x,y,1/2+z
1/2-x,-y,1/2+z
3/4-x,1/4+y,3/4+z
3/4+x,1/4-y,3/4+z
1/2+x,1/2+y,z
1/2-x,1/2-y,z
3/4-x,3/4+y,1/4+z
3/4+x,3/4-y,1/4+z
loop_
_atom_site_type_symbol
_atom_site_label
_atom_site_fract_x
_atom_site_fract_y
_atom_site_fract_z
Si Si1 0.072762 0.343934 0.728170
Si Si2 0.309082 0.186043 0.175722
Si Si3 0.166353 0.704195 0.831782
Si Si4 0.055498 0.419574 0.983204
Si Si5 0.571283 0.792856 0.126713
Si Si6 0.549029 0.203584 0.775680
O O1 0.063415 0.330566 0.641428
O O2 0.135416 0.267891 0.734054
O O3 0.068109 0.528490 0.748331
O O4 0.019879 0.284739 0.777572
O O5 0.250000 0.250000 0.145133
O O6 0.319558 0.296956 0.247008
O O7 0.360191 0.197781 0.119864
O O8 0.310089 0.005385 0.201213
O O9 0.096587 0.722008 0.837159
O O10 0.194090 0.865884 0.856930
O O11 0.043610 0.396055 0.067110
O O12 0.000000 0.500000 0.947838
O O13 0.561962 0.822159 0.210266
#
# Coordination Sequence:
#
# PCOD9371413 Si02
#       6
#    16  16  16  16  16  16
#     4  10  22  39  61  96 133 167 224 276 338 403
#     4  10  23  41  67  94 126 179 226 261 343 412
#     4   9  20  38  65  91 124 171 219 271 329 412
#     4  11  26  41  62 101 134 169 223 284 344 400
#     4   9  21  41  62  89 124 167 218 271 329 402
#     4   9  20  39  66  93 122 178 222 269 343 410
#
# _framework density 25.876529999999999
#
# number of rings (size 3 to 8) (size 9 to 14) (size 15 to 20)
#    0.000    2.333    0.000    0.000   14.000    4.000 
#    3.000    5.833    0.000    0.000    0.000    0.000 
#    0.000    0.000    0.000    0.000    0.000    0.000 
#
# Total GULP energy -133856.056628 kJ/mol
# GULP energy per Si atom -5577.335693 kJ/mol
# Density = 2.581763 g / cm^3
# Si number density = 25.876530 Si / 1000 Ang^3
#
#
#
# Elastic Constant Matrix: (Units=GPa)
#
#
# Indices 1 2 3 4 5 6 
#
# 1 127.9880 51.9345 -18.3225 0.0000 0.0000 0.0000
# 2 51.9345 66.0865 13.5981 0.0000 0.0000 0.0000
# 3 -18.3225 13.5981 48.8697 0.0000 0.0000 0.0000
# 4 0.0000 0.0000 0.0000 25.2491 0.0000 0.0000
# 5 0.0000 0.0000 0.0000 0.0000 29.1649 0.0000
# 6 0.0000 0.0000 0.0000 0.0000 0.0000 46.2780
#
#
#
# Elastic Compliance Matrix: (Units=1/GPa)
#
#
# Indices 1 2 3 4 5 6 
#
# 1 0.014512 -0.013284 0.009137 0.000000 0.000000 0.000000
# 2 -0.013284 0.028211 -0.012830 0.000000 0.000000 0.000000
# 3 0.009137 -0.012830 0.027458 0.000000 0.000000 0.000000
# 4 0.000000 0.000000 0.000000 0.039605 0.000000 0.000000
# 5 0.000000 0.000000 0.000000 0.000000 0.034288 0.000000
# 6 0.000000 0.000000 0.000000 0.000000 0.000000 0.021609
#
#
# Mechanical properties :
#
#
# Convention : Reuss Voigt Hill
#
# Bulk Modulus (GPa) = 27.60416 37.48492 32.54454
# Shear Modulus (GPa) = 23.61687 33.18736 28.40211
#
# Velocity S-wave (km/s) = 3.02433 3.58512 3.31660
# Velocity P-wave (km/s) = 4.78395 5.62628 5.22213
#
# Compressibility (1/GPa) = 0.03622643
#
# Stress axis : x y z
#
# Youngs Moduli (GPa) = 68.90995 35.44702 36.41874
#
# Poissons Ratio (x) = 0.47088 -0.33276
# Poissons Ratio (y) = 0.91541 0.46727
# Poissons Ratio (z) = -0.62964 0.45480
#
# Static dielectric constant tensor:
#      x y z
#    x 2.150850 0.000000 0.000000 
#    y 0.000000 2.037330 0.000000 
#    z 0.000000 0.000000 2.068130 
# 
# From -- ./inp_files/18822.got.cif
#   From: 2010.05.17/outbox.cif.g08.bks.cpg/sg43_10_cif.got.tgz:18822.got - 2010.06.03 19:21:55.
