data_PCOD9371543
_publ_section_title
;
Structure prediction by ZEFSAII (Michael W. Deem and Ramdas Pophale) SiO2 
 PCOD9371543
Probable space group: F D D 2
;
_chemical_formula_sum "Si O2"
_cell_formula_units_Z 72
_cell_length_a 18.140726
_cell_length_b 23.681943
_cell_length_c 8.105278
_cell_angle_alpha 90.000000
_cell_angle_beta 90.000000
_cell_angle_gamma 90.000000
_cell_volume 3482.089346
_symmetry_space_group_name_H-M "F D D 2"
_symmetry_group_IT_number 43
_symmetry_cell_setting 'orthorhombic'
loop_
_space_group_symop_operation_xyz
x,y,z
-x,-y,z
1/4-x,1/4+y,1/4+z
1/4+x,1/4-y,1/4+z
x,1/2+y,1/2+z
-x,1/2-y,1/2+z
1/4-x,3/4+y,3/4+z
1/4+x,3/4-y,3/4+z
1/2+x,y,1/2+z
1/2-x,-y,1/2+z
3/4-x,1/4+y,3/4+z
3/4+x,1/4-y,3/4+z
1/2+x,1/2+y,z
1/2-x,1/2-y,z
3/4-x,3/4+y,1/4+z
3/4+x,3/4-y,1/4+z
loop_
_atom_site_type_symbol
_atom_site_label
_atom_site_fract_x
_atom_site_fract_y
_atom_site_fract_z
Si Si1 0.764933 0.094664 0.050500
Si Si2 0.891999 0.941183 0.493164
Si Si3 0.500000 0.000000 0.237405
Si Si4 0.239185 0.326358 0.281934
Si Si5 0.621017 0.493841 0.162832
O O1 0.805044 0.143678 0.158728
O O2 0.809762 0.038257 0.089827
O O3 0.678525 0.086603 0.079870
O O4 0.770105 0.111935 0.856012
O O5 0.934938 0.979657 0.621434
O O6 0.866501 0.981344 0.343174
O O7 0.516494 0.945770 0.355481
O O8 0.160887 0.295504 0.305338
O O9 0.301008 0.299116 0.404496
#
# Coordination Sequence:
#
# PCOD9371543 Si02
#       5
#    16  16   8  16  16
#     4  11  21  41  67  99 124 189 225 274 343 425
#     4  11  23  40  69  94 140 176 228 285 350 413
#     4  10  22  42  62  96 134 176 216 290 352 392
#     4   9  20  42  64  90 135 173 217 284 340 405
#     4   9  19  38  66  89 128 177 219 272 335 402
#
# _framework density 20.677242
#
# number of rings (size 3 to 8) (size 9 to 14) (size 15 to 20)
#    0.000    2.222    2.222    2.667    0.000    3.556 
#    8.000    2.222    0.000    0.000    0.000    0.000 
#    0.000    0.000    0.000    0.000    0.000    0.000 
#
# Total GULP energy -100267.901186 kJ/mol
# GULP energy per Si atom -5570.438955 kJ/mol
# Density = 2.063018 g / cm^3
# Si number density = 20.677242 Si / 1000 Ang^3
#
#
#
# Elastic Constant Matrix: (Units=GPa)
#
#
# Indices 1 2 3 4 5 6 
#
# 1 135.1068 55.7149 52.9270 0.0000 0.0000 0.0000
# 2 55.7149 70.4034 49.7087 0.0000 0.0000 0.0000
# 3 52.9270 49.7087 76.5418 0.0000 0.0000 0.0000
# 4 0.0000 0.0000 0.0000 9.2985 0.0000 0.0000
# 5 0.0000 0.0000 0.0000 0.0000 19.0795 0.0000
# 6 0.0000 0.0000 0.0000 0.0000 0.0000 41.2299
#
#
#
# Elastic Compliance Matrix: (Units=1/GPa)
#
#
# Indices 1 2 3 4 5 6 
#
# 1 0.011553 -0.006468 -0.003788 0.000000 0.000000 0.000000
# 2 -0.006468 0.029853 -0.014915 0.000000 0.000000 0.000000
# 3 -0.003788 -0.014915 0.025371 0.000000 0.000000 0.000000
# 4 0.000000 0.000000 0.000000 0.107545 0.000000 0.000000
# 5 0.000000 0.000000 0.000000 0.000000 0.052412 0.000000
# 6 0.000000 0.000000 0.000000 0.000000 0.000000 0.024254
#
#
# Mechanical properties :
#
#
# Convention : Reuss Voigt Hill
#
# Bulk Modulus (GPa) = 60.84865 66.52813 63.68839
# Shear Modulus (GPa) = 16.29680 22.16832 19.23256
#
# Velocity S-wave (km/s) = 2.81045 3.27786 3.05311
# Velocity P-wave (km/s) = 6.32639 6.82424 6.58003
#
# Compressibility (1/GPa) = 0.01643422
#
# Stress axis : x y z
#
# Youngs Moduli (GPa) = 86.56017 33.49696 39.41567
#
# Poissons Ratio (x) = 0.21665 0.14931
# Poissons Ratio (y) = 0.55986 0.58790
# Poissons Ratio (z) = 0.32789 0.49962
#
# Static dielectric constant tensor:
#      x y z
#    x 1.751880 0.000000 0.000000 
#    y 0.000000 1.796860 0.000000 
#    z 0.000000 0.000000 1.758190 
# 
# From -- ./inp_files/2712.got.cif
#   From: 2010.05.17/outbox.cif.g08.bks.cpg/sg43_2_cif.got.tgz:2712.got - 2010.06.03 19:21:55.
