data_PCOD9371990
_publ_section_title
;
Structure prediction by ZEFSAII (Michael W. Deem and Ramdas Pophale) SiO2 
 PCOD9371990
Probable space group: F D D 2
;
_chemical_formula_sum "Si O2"
_cell_formula_units_Z 56
_cell_length_a 8.316390
_cell_length_b 11.657604
_cell_length_c 25.904112
_cell_angle_alpha 90.000000
_cell_angle_beta 90.000000
_cell_angle_gamma 90.000000
_cell_volume 2511.382451
_symmetry_space_group_name_H-M "F D D 2"
_symmetry_group_IT_number 43
_symmetry_cell_setting 'orthorhombic'
loop_
_space_group_symop_operation_xyz
x,y,z
-x,-y,z
1/4-x,1/4+y,1/4+z
1/4+x,1/4-y,1/4+z
x,1/2+y,1/2+z
-x,1/2-y,1/2+z
1/4-x,3/4+y,3/4+z
1/4+x,3/4-y,3/4+z
1/2+x,y,1/2+z
1/2-x,-y,1/2+z
3/4-x,1/4+y,3/4+z
3/4+x,1/4-y,3/4+z
1/2+x,1/2+y,z
1/2-x,1/2-y,z
3/4-x,3/4+y,1/4+z
3/4+x,3/4-y,1/4+z
loop_
_atom_site_type_symbol
_atom_site_label
_atom_site_fract_x
_atom_site_fract_y
_atom_site_fract_z
Si Si1 0.159193 0.078197 0.159990
Si Si2 0.250000 0.750000 0.190790
Si Si3 0.418681 0.293696 0.512372
Si Si4 0.964012 0.175273 0.623625
O O1 0.099938 0.205394 0.147566
O O2 0.332303 0.075703 0.131866
O O3 0.206105 0.051664 0.219190
O O4 0.000000 0.000000 0.147699
O O5 0.338226 0.660594 0.229103
O O6 0.366074 0.826463 0.154299
O O7 0.250000 0.250000 0.534098
O O8 0.525511 0.309314 0.562255
#
# Coordination Sequence:
#
# PCOD9371990 Si02
#       4
#    16   8  16  16
#     4  10  23  48  68 103 152 188 249 308 358 457
#     4  12  24  42  72 106 142 194 256 308 368 450
#     4  11  24  45  70 105 149 191 245 304 374 449
#     4  11  24  43  74 105 144 199 243 307 380 433
#
# _framework density 22.298476999999998
#
# number of rings (size 3 to 8) (size 9 to 14) (size 15 to 20)
#    0.000    1.143    7.143    0.000    0.000   10.286 
#    5.143    0.000    0.000    0.000    0.000    0.000 
#    0.000    0.000    0.000    0.000    0.000    0.000 
#
# Total GULP energy -77946.205760 kJ/mol
# GULP energy per Si atom -5567.586126 kJ/mol
# Density = 2.224772 g / cm^3
# Si number density = 22.298477 Si / 1000 Ang^3
#
#
#
# Elastic Constant Matrix: (Units=GPa)
#
#
# Indices 1 2 3 4 5 6 
#
# 1 138.2490 40.8916 60.6029 0.0000 0.0000 0.0000
# 2 40.8916 114.6161 49.9379 0.0000 0.0000 0.0000
# 3 60.6029 49.9379 171.4681 0.0000 0.0000 0.0000
# 4 0.0000 0.0000 0.0000 1.3376 0.0000 0.0000
# 5 0.0000 0.0000 0.0000 0.0000 112.7791 0.0000
# 6 0.0000 0.0000 0.0000 0.0000 0.0000 47.7924
#
#
#
# Elastic Compliance Matrix: (Units=1/GPa)
#
#
# Indices 1 2 3 4 5 6 
#
# 1 0.008974 -0.002084 -0.002565 0.000000 0.000000 0.000000
# 2 -0.002084 0.010477 -0.002315 0.000000 0.000000 0.000000
# 3 -0.002565 -0.002315 0.007413 0.000000 0.000000 0.000000
# 4 0.000000 0.000000 0.000000 0.747602 0.000000 0.000000
# 5 0.000000 0.000000 0.000000 0.000000 0.008867 0.000000
# 6 0.000000 0.000000 0.000000 0.000000 0.000000 0.020924
#
#
# Mechanical properties :
#
#
# Convention : Reuss Voigt Hill
#
# Bulk Modulus (GPa) = 77.30182 80.79980 79.05081
# Shear Modulus (GPa) = 6.07906 50.57521 28.32713
#
# Velocity S-wave (km/s) = 1.65292 4.76763 3.56808
# Velocity P-wave (km/s) = 6.19556 8.16218 7.24590
#
# Compressibility (1/GPa) = 0.01293631
#
# Stress axis : x y z
#
# Youngs Moduli (GPa) = 111.43187 95.44859 134.90610
#
# Poissons Ratio (x) = 0.19894 0.34600
# Poissons Ratio (y) = 0.23225 0.31225
# Poissons Ratio (z) = 0.28580 0.22093
#
# Static dielectric constant tensor:
#      x y z
#    x 2.017920 0.000000 0.000000 
#    y 0.000000 -1.563770 0.000000 
#    z 0.000000 0.000000 1.772860 
# 
# From -- ./inp_files/15956.got.cif
#   From: 2010.05.17/outbox.cif.g08.bks.cpg/sg43_8_cif.got.tgz:15956.got - 2010.06.03 19:21:55.
