data_PCOD9371480
_publ_section_title
;
Structure prediction by ZEFSAII (Michael W. Deem and Ramdas Pophale) SiO2 
 PCOD9371480
Probable space group: F D D 2
;
_chemical_formula_sum "Si O2"
_cell_formula_units_Z 80
_cell_length_a 16.937063
_cell_length_b 22.352720
_cell_length_c 8.799674
_cell_angle_alpha 90.000000
_cell_angle_beta 90.000000
_cell_angle_gamma 90.000000
_cell_volume 3331.463536
_symmetry_space_group_name_H-M "F D D 2"
_symmetry_group_IT_number 43
_symmetry_cell_setting 'orthorhombic'
loop_
_space_group_symop_operation_xyz
x,y,z
-x,-y,z
1/4-x,1/4+y,1/4+z
1/4+x,1/4-y,1/4+z
x,1/2+y,1/2+z
-x,1/2-y,1/2+z
1/4-x,3/4+y,3/4+z
1/4+x,3/4-y,3/4+z
1/2+x,y,1/2+z
1/2-x,-y,1/2+z
3/4-x,1/4+y,3/4+z
3/4+x,1/4-y,3/4+z
1/2+x,1/2+y,z
1/2-x,1/2-y,z
3/4-x,3/4+y,1/4+z
3/4+x,3/4-y,1/4+z
loop_
_atom_site_type_symbol
_atom_site_label
_atom_site_fract_x
_atom_site_fract_y
_atom_site_fract_z
Si Si1 0.000000 0.500000 0.648480
Si Si2 0.995982 0.396901 0.900198
Si Si3 0.000000 0.000000 0.638727
Si Si4 0.331044 0.470715 0.607179
Si Si5 0.120805 0.420053 0.503213
Si Si6 0.021299 0.306517 0.540700
O O1 0.989872 0.442143 0.756504
O O2 0.926556 0.520122 0.544795
O O3 0.917615 0.356494 0.898565
O O4 0.064362 0.348105 0.894840
O O5 0.005990 0.439821 0.040510
O O6 0.910066 0.992312 0.693296
O O7 0.258176 0.510550 0.665029
O O8 0.328604 0.472559 0.421300
O O9 0.191806 0.426672 0.384105
O O10 0.059598 0.366153 0.469459
#
# Coordination Sequence:
#
# PCOD9371480 Si02
#       6
#     8  16   8  16  16  16
#     4  11  20  39  76 100 136 194 250 286 350 444
#     4  10  22  40  72 100 138 195 237 292 348 448
#     4  11  22  43  68 102 142 178 240 294 358 414
#     4  11  25  47  69 108 140 191 237 300 362 431
#     4  11  22  44  70 108 136 196 247 293 356 437
#     4  11  26  46  75 102 151 185 247 295 368 432
#
# _framework density 24.013468
#
# number of rings (size 3 to 8) (size 9 to 14) (size 15 to 20)
#    0.000    1.200    6.000    0.000    5.600    2.400 
#   10.800    0.000    0.000    0.000    0.000    0.000 
#    0.000    0.000    0.000    0.000    0.000    0.000 
#
# Total GULP energy -111609.519610 kJ/mol
# GULP energy per Si atom -5580.475981 kJ/mol
# Density = 2.395881 g / cm^3
# Si number density = 24.013468 Si / 1000 Ang^3
#
#
#
# Elastic Constant Matrix: (Units=GPa)
#
#
# Indices 1 2 3 4 5 6 
#
# 1 145.9105 50.7113 10.3829 0.0000 0.0000 0.0000
# 2 50.7113 106.3215 6.5376 0.0000 0.0000 0.0000
# 3 10.3829 6.5376 28.1975 0.0000 0.0000 0.0000
# 4 0.0000 0.0000 0.0000 21.8897 0.0000 0.0000
# 5 0.0000 0.0000 0.0000 0.0000 32.3285 0.0000
# 6 0.0000 0.0000 0.0000 0.0000 0.0000 47.5459
#
#
#
# Elastic Compliance Matrix: (Units=1/GPa)
#
#
# Indices 1 2 3 4 5 6 
#
# 1 0.008346 -0.003846 -0.002181 0.000000 0.000000 0.000000
# 2 -0.003846 0.011314 -0.001207 0.000000 0.000000 0.000000
# 3 -0.002181 -0.001207 0.036547 0.000000 0.000000 0.000000
# 4 0.000000 0.000000 0.000000 0.045683 0.000000 0.000000
# 5 0.000000 0.000000 0.000000 0.000000 0.030932 0.000000
# 6 0.000000 0.000000 0.000000 0.000000 0.000000 0.021032
#
#
# Mechanical properties :
#
#
# Convention : Reuss Voigt Hill
#
# Bulk Modulus (GPa) = 23.95901 46.18811 35.07356
# Shear Modulus (GPa) = 27.43683 34.53935 30.98809
#
# Velocity S-wave (km/s) = 3.38384 3.79665 3.59618
# Velocity P-wave (km/s) = 5.02655 6.20447 5.64631
#
# Compressibility (1/GPa) = 0.04173796
#
# Stress axis : x y z
#
# Youngs Moduli (GPa) = 119.82447 88.38436 27.36191
#
# Poissons Ratio (x) = 0.33996 0.05968
# Poissons Ratio (y) = 0.46089 0.03302
# Poissons Ratio (z) = 0.26136 0.10667
#
# Static dielectric constant tensor:
#      x y z
#    x 2.054620 0.000000 0.000000 
#    y 0.000000 1.889150 0.000000 
#    z 0.000000 0.000000 1.998060 
# 
# From -- ./inp_files/6101.got.cif
#   From: 2010.05.17/outbox.cif.g08.bks.cpg/sg43_4_cif.got.tgz:6101.got - 2010.06.03 19:21:55.
