data_PCOD9371693
_publ_section_title
;
Structure prediction by ZEFSAII (Michael W. Deem and Ramdas Pophale) SiO2 
 PCOD9371693
Probable space group: F D D 2
;
_chemical_formula_sum "Si O2"
_cell_formula_units_Z 64
_cell_length_a 14.412452
_cell_length_b 13.569694
_cell_length_c 12.642682
_cell_angle_alpha 90.000000
_cell_angle_beta 90.000000
_cell_angle_gamma 90.000000
_cell_volume 2472.561727
_symmetry_space_group_name_H-M "F D D 2"
_symmetry_group_IT_number 43
_symmetry_cell_setting 'orthorhombic'
loop_
_space_group_symop_operation_xyz
x,y,z
-x,-y,z
1/4-x,1/4+y,1/4+z
1/4+x,1/4-y,1/4+z
x,1/2+y,1/2+z
-x,1/2-y,1/2+z
1/4-x,3/4+y,3/4+z
1/4+x,3/4-y,3/4+z
1/2+x,y,1/2+z
1/2-x,-y,1/2+z
3/4-x,1/4+y,3/4+z
3/4+x,1/4-y,3/4+z
1/2+x,1/2+y,z
1/2-x,1/2-y,z
3/4-x,3/4+y,1/4+z
3/4+x,3/4-y,1/4+z
loop_
_atom_site_type_symbol
_atom_site_label
_atom_site_fract_x
_atom_site_fract_y
_atom_site_fract_z
Si Si1 0.130941 0.604451 0.301940
Si Si2 0.690157 0.988175 0.704201
Si Si3 0.000000 0.500000 0.160170
Si Si4 0.000000 0.500000 0.734905
Si Si5 0.615138 0.679473 0.217150
O O1 0.222107 0.572143 0.236970
O O2 0.161870 0.709894 0.345625
O O3 0.126429 0.523046 0.394329
O O4 0.039786 0.588776 0.231834
O O5 0.656261 0.957324 0.587724
O O6 0.600731 0.973355 0.782720
O O7 0.702988 0.106060 0.706461
O O8 0.033171 0.602922 0.681973
#
# Coordination Sequence:
#
# PCOD9371693 Si02
#       5
#    16  16   8   8  16
#     4  12  29  50  79 121 161 217 267 344 407 477
#     4  10  23  41  75 106 157 201 267 323 392 483
#     4  12  34  52  86 112 182 204 282 334 418 478
#     4   8  22  34  70 110 146 202 250 322 380 494
#     4  10  22  44  71 110 156 203 268 316 409 472
#
# _framework density 25.884087000000001
#
# number of rings (size 3 to 8) (size 9 to 14) (size 15 to 20)
#    1.500    0.000    0.000    3.000   10.500    4.000 
#    0.000    0.000    0.000    0.000    0.000    0.000 
#    0.000    0.000    0.000    0.000    0.000    0.000 
#
# Total GULP energy -89277.288404 kJ/mol
# GULP energy per Si atom -5579.830525 kJ/mol
# Density = 2.582517 g / cm^3
# Si number density = 25.884087 Si / 1000 Ang^3
#
#
#
# Elastic Constant Matrix: (Units=GPa)
#
#
# Indices 1 2 3 4 5 6 
#
# 1 96.6310 8.1066 7.8354 0.0000 0.0000 0.0000
# 2 8.1066 103.8991 32.5961 0.0000 0.0000 0.0000
# 3 7.8354 32.5961 90.3114 0.0000 0.0000 0.0000
# 4 0.0000 0.0000 0.0000 31.7650 0.0000 0.0000
# 5 0.0000 0.0000 0.0000 0.0000 26.2814 0.0000
# 6 0.0000 0.0000 0.0000 0.0000 0.0000 51.8076
#
#
#
# Elastic Compliance Matrix: (Units=1/GPa)
#
#
# Indices 1 2 3 4 5 6 
#
# 1 0.010455 -0.000599 -0.000691 0.000000 0.000000 0.000000
# 2 -0.000599 0.010888 -0.003878 0.000000 0.000000 0.000000
# 3 -0.000691 -0.003878 0.012532 0.000000 0.000000 0.000000
# 4 0.000000 0.000000 0.000000 0.031481 0.000000 0.000000
# 5 0.000000 0.000000 0.000000 0.000000 0.038050 0.000000
# 6 0.000000 0.000000 0.000000 0.000000 0.000000 0.019302
#
#
# Mechanical properties :
#
#
# Convention : Reuss Voigt Hill
#
# Bulk Modulus (GPa) = 42.48105 43.10197 42.79151
# Shear Modulus (GPa) = 35.48856 38.12437 36.80646
#
# Velocity S-wave (km/s) = 3.70680 3.84199 3.77500
# Velocity P-wave (km/s) = 5.89645 6.03069 5.96395
#
# Compressibility (1/GPa) = 0.02353991
#
# Stress axis : x y z
#
# Youngs Moduli (GPa) = 95.64876 91.84384 79.79336
#
# Poissons Ratio (x) = 0.05501 0.05513
# Poissons Ratio (y) = 0.05729 0.30943
# Poissons Ratio (z) = 0.06608 0.35616
#
# Static dielectric constant tensor:
#      x y z
#    x 2.097500 0.000000 0.000000 
#    y 0.000000 2.028310 0.000000 
#    z 0.000000 0.000000 2.121890 
# 
# From -- ./inp_files/6489.got.cif
#   From: 2010.05.17/outbox.cif.g08.bks.cpg/sg43_4_cif.got.tgz:6489.got - 2010.06.03 19:21:55.
