data_PCOD9371370
_publ_section_title
;
Structure prediction by ZEFSAII (Michael W. Deem and Ramdas Pophale) SiO2 
 PCOD9371370
Probable space group: F D D 2
;
_chemical_formula_sum "Si O2"
_cell_formula_units_Z 120
_cell_length_a 16.847257
_cell_length_b 29.392687
_cell_length_c 11.341402
_cell_angle_alpha 90.000000
_cell_angle_beta 90.000000
_cell_angle_gamma 90.000000
_cell_volume 5616.105213
_symmetry_space_group_name_H-M "F D D 2"
_symmetry_group_IT_number 43
_symmetry_cell_setting 'orthorhombic'
loop_
_space_group_symop_operation_xyz
x,y,z
-x,-y,z
1/4-x,1/4+y,1/4+z
1/4+x,1/4-y,1/4+z
x,1/2+y,1/2+z
-x,1/2-y,1/2+z
1/4-x,3/4+y,3/4+z
1/4+x,3/4-y,3/4+z
1/2+x,y,1/2+z
1/2-x,-y,1/2+z
3/4-x,1/4+y,3/4+z
3/4+x,1/4-y,3/4+z
1/2+x,1/2+y,z
1/2-x,1/2-y,z
3/4-x,3/4+y,1/4+z
3/4+x,3/4-y,1/4+z
loop_
_atom_site_type_symbol
_atom_site_label
_atom_site_fract_x
_atom_site_fract_y
_atom_site_fract_z
Si Si1 0.997689 0.655131 0.244520
Si Si2 0.968259 0.260176 0.402076
Si Si3 0.267346 0.076713 0.367461
Si Si4 0.561747 0.594014 0.950035
Si Si5 0.889519 0.307143 0.836601
Si Si6 0.000000 0.000000 0.022798
Si Si7 0.014204 0.630372 0.983993
Si Si8 0.637748 0.072465 0.071777
O O1 0.902254 0.649987 0.244446
O O2 0.029456 0.700777 0.304210
O O3 0.039150 0.615419 0.322703
O O4 0.011804 0.657680 0.105504
O O5 0.895952 0.225242 0.389736
O O6 0.976456 0.286232 0.524161
O O7 0.043564 0.228517 0.376791
O O8 0.264543 0.123961 0.294521
O O9 0.344291 0.071773 0.451783
O O10 0.193745 0.069992 0.455760
O O11 0.544211 0.540133 0.951955
O O12 0.809254 0.280110 0.849887
O O13 0.910739 0.350960 0.911442
O O14 0.047811 0.582628 0.032210
O O15 0.935811 0.640300 0.905422
#
# Coordination Sequence:
#
# PCOD9371370 Si02
#       8
#    16  16  16  16  16   8  16  16
#     4  11  22  41  62  90 124 166 210 260 323 381
#     4   9  20  36  62  88 116 163 209 255 307 379
#     4   9  20  39  59  88 120 155 211 248 314 371
#     4  11  23  38  66  92 127 165 204 271 314 381
#     4  10  22  36  60  88 122 164 198 263 307 374
#     4  12  22  38  58  96 128 150 212 256 318 368
#     4  10  22  40  58  88 122 163 208 250 321 376
#     4  10  22  37  64  88 122 167 204 266 307 390
#
# _framework density 21.36712
#
# number of rings (size 3 to 8) (size 9 to 14) (size 15 to 20)
#    0.000    2.133    1.333    2.400    7.467    4.267 
#    2.400    0.000    0.000    3.200    0.000    0.933 
#    0.000    0.000    0.000    0.000    0.000    0.000 
#
# Total GULP energy -167156.727459 kJ/mol
# GULP energy per Si atom -5571.890915 kJ/mol
# Density = 2.131849 g / cm^3
# Si number density = 21.367120 Si / 1000 Ang^3
#
#
#
# Elastic Constant Matrix: (Units=GPa)
#
#
# Indices 1 2 3 4 5 6 
#
# 1 22.4926 22.5044 1.5426 0.0000 0.0000 0.0000
# 2 22.5044 94.1522 22.7701 0.0000 0.0000 0.0000
# 3 1.5426 22.7701 112.5984 0.0000 0.0000 0.0000
# 4 0.0000 0.0000 0.0000 20.5868 0.0000 0.0000
# 5 0.0000 0.0000 0.0000 0.0000 5.1360 0.0000
# 6 0.0000 0.0000 0.0000 0.0000 0.0000 15.7177
#
#
#
# Elastic Compliance Matrix: (Units=1/GPa)
#
#
# Indices 1 2 3 4 5 6 
#
# 1 0.058922 -0.014603 0.002146 0.000000 0.000000 0.000000
# 2 -0.014603 0.014786 -0.002790 0.000000 0.000000 0.000000
# 3 0.002146 -0.002790 0.009416 0.000000 0.000000 0.000000
# 4 0.000000 0.000000 0.000000 0.048575 0.000000 0.000000
# 5 0.000000 0.000000 0.000000 0.000000 0.194703 0.000000
# 6 0.000000 0.000000 0.000000 0.000000 0.000000 0.063623
#
#
# Mechanical properties :
#
#
# Convention : Reuss Voigt Hill
#
# Bulk Modulus (GPa) = 19.00038 35.87528 27.43783
# Shear Modulus (GPa) = 11.41390 20.44982 15.93186
#
# Velocity S-wave (km/s) = 2.31374 3.09701 2.73358
# Velocity P-wave (km/s) = 4.00619 5.44197 4.77831
#
# Compressibility (1/GPa) = 0.05263053
#
# Stress axis : x y z
#
# Youngs Moduli (GPa) = 16.97150 67.63049 106.20289
#
# Poissons Ratio (x) = 0.98759 -0.22789
# Poissons Ratio (y) = 0.24783 0.29631
# Poissons Ratio (z) = -0.03642 0.18869
#
# Static dielectric constant tensor:
#      x y z
#    x 1.862510 0.000000 0.000000 
#    y 0.000000 1.848480 0.000000 
#    z 0.000000 0.000000 1.796210 
# 
# From -- ./inp_files/7271.got.cif
#   From: 2010.05.17/outbox.cif.g08.bks.cpg/sg43_4_cif.got.tgz:7271.got - 2010.06.03 19:21:55.
