data_PCOD9371499
_publ_section_title
;
Structure prediction by ZEFSAII (Michael W. Deem and Ramdas Pophale) SiO2 
 PCOD9371499
Probable space group: F D D 2
;
_chemical_formula_sum "Si O2"
_cell_formula_units_Z 88
_cell_length_a 24.056239
_cell_length_b 5.705011
_cell_length_c 28.683997
_cell_angle_alpha 90.000000
_cell_angle_beta 90.000000
_cell_angle_gamma 90.000000
_cell_volume 3936.623533
_symmetry_space_group_name_H-M "F D D 2"
_symmetry_group_IT_number 43
_symmetry_cell_setting 'orthorhombic'
loop_
_space_group_symop_operation_xyz
x,y,z
-x,-y,z
1/4-x,1/4+y,1/4+z
1/4+x,1/4-y,1/4+z
x,1/2+y,1/2+z
-x,1/2-y,1/2+z
1/4-x,3/4+y,3/4+z
1/4+x,3/4-y,3/4+z
1/2+x,y,1/2+z
1/2-x,-y,1/2+z
3/4-x,1/4+y,3/4+z
3/4+x,1/4-y,3/4+z
1/2+x,1/2+y,z
1/2-x,1/2-y,z
3/4-x,3/4+y,1/4+z
3/4+x,3/4-y,1/4+z
loop_
_atom_site_type_symbol
_atom_site_label
_atom_site_fract_x
_atom_site_fract_y
_atom_site_fract_z
Si Si1 0.750000 0.750000 0.806810
Si Si2 0.641391 0.873288 0.406390
Si Si3 0.500000 0.500000 0.110200
Si Si4 0.444500 0.156279 0.333311
Si Si5 0.685893 0.188251 0.483502
Si Si6 0.335887 0.229002 0.725466
Si Si7 0.500000 0.000000 0.903552
O O1 0.741121 0.500870 0.833623
O O2 0.698452 0.804073 0.772365
O O3 0.692967 0.714677 0.389301
O O4 0.606201 0.956638 0.361818
O O5 0.602273 0.746777 0.444834
O O6 0.669657 0.077658 0.434909
O O7 0.428586 0.216995 0.280453
O O8 0.461460 0.364436 0.367253
O O9 0.500000 0.000000 0.331354
O O10 0.750000 0.250000 0.481542
O O11 0.643300 0.400099 0.488915
O O12 0.293715 0.369933 0.689914
#
# Coordination Sequence:
#
# PCOD9371499 Si02
#       7
#     8  16   8  16  16  16   8
#     4  11  28  48  78 107 148 195 254 304 367 448
#     4  11  25  42  72  98 142 189 237 304 367 438
#     4  12  28  49  70 115 150 195 244 307 384 446
#     4  10  22  41  64  97 128 176 229 292 350 427
#     4  11  24  41  64 101 138 183 234 294 365 438
#     4  10  23  44  69 100 135 187 242 301 357 435
#     4   9  20  41  64  94 122 172 230 289 351 416
#
# _framework density 22.354182999999999
#
# number of rings (size 3 to 8) (size 9 to 14) (size 15 to 20)
#    0.000    1.455    0.000    3.273    8.909    3.636 
#    9.818    0.000    0.000    0.000    0.000    0.000 
#    0.000    0.000    0.000    0.000    0.000    0.000 
#
# Total GULP energy -122623.216595 kJ/mol
# GULP energy per Si atom -5573.782572 kJ/mol
# Density = 2.230330 g / cm^3
# Si number density = 22.354183 Si / 1000 Ang^3
#
#
#
# Elastic Constant Matrix: (Units=GPa)
#
#
# Indices 1 2 3 4 5 6 
#
# 1 125.0423 4.8294 34.1963 0.0039 -0.0048 0.0043
# 2 4.8294 37.5337 10.6726 0.0043 -0.0074 0.0045
# 3 34.1963 10.6726 62.9878 -0.0006 0.0007 0.0019
# 4 0.0039 0.0043 -0.0006 34.9221 0.0016 0.0029
# 5 -0.0048 -0.0074 0.0007 0.0016 57.8314 0.0076
# 6 0.0043 0.0045 0.0019 0.0029 0.0076 27.0027
#
#
#
# Elastic Compliance Matrix: (Units=1/GPa)
#
#
# Indices 1 2 3 4 5 6 
#
# 1 0.009394 0.000254 -0.005143 -0.000001 0.000001 -0.000001
# 2 0.000254 0.027998 -0.004882 -0.000004 0.000004 -0.000004
# 3 -0.005143 -0.004882 0.019495 0.000002 -0.000001 0.000000
# 4 -0.000001 -0.000004 0.000002 0.028635 -0.000001 -0.000003
# 5 0.000001 0.000004 -0.000001 -0.000001 0.017292 -0.000005
# 6 -0.000001 -0.000004 0.000000 -0.000003 -0.000005 0.037033
#
#
# Mechanical properties :
#
#
# Convention : Reuss Voigt Hill
#
# Bulk Modulus (GPa) = 26.77697 36.10671 31.44184
# Shear Modulus (GPa) = 29.09711 35.67562 32.38636
#
# Velocity S-wave (km/s) = 3.61174 3.99924 3.81042
# Velocity P-wave (km/s) = 5.42194 6.12473 5.78402
#
# Compressibility (1/GPa) = 0.03734552
#
# Stress axis : x y z
#
# Youngs Moduli (GPa) = 106.45089 35.71655 51.29405
#
# Poissons Ratio (x) = -0.00906 0.26381
# Poissons Ratio (y) = -0.02701 0.25040
# Poissons Ratio (z) = 0.54748 0.17436
#
# Static dielectric constant tensor:
#      x y z
#    x 2.027410 0.000020 -0.000010 
#    y 0.000020 1.863790 0.000000 
#    z -0.000010 0.000000 1.834620 
# 
# From -- ./inp_files/27267.got.cif
#   From: 2010.05.17/outbox.cif.g08.bks.cpg/sg43_14_cif.got.tgz:27267.got - 2010.06.03 19:21:55.
