data_PCOD9371815
_publ_section_title
;
Structure prediction by ZEFSAII (Michael W. Deem and Ramdas Pophale) SiO2 
 PCOD9371815
Probable space group: F D D 2
;
_chemical_formula_sum "Si O2"
_cell_formula_units_Z 80
_cell_length_a 21.774780
_cell_length_b 5.846683
_cell_length_c 29.308615
_cell_angle_alpha 90.000000
_cell_angle_beta 90.000000
_cell_angle_gamma 90.000000
_cell_volume 3731.286694
_symmetry_space_group_name_H-M "F D D 2"
_symmetry_group_IT_number 43
_symmetry_cell_setting 'orthorhombic'
loop_
_space_group_symop_operation_xyz
x,y,z
-x,-y,z
1/4-x,1/4+y,1/4+z
1/4+x,1/4-y,1/4+z
x,1/2+y,1/2+z
-x,1/2-y,1/2+z
1/4-x,3/4+y,3/4+z
1/4+x,3/4-y,3/4+z
1/2+x,y,1/2+z
1/2-x,-y,1/2+z
3/4-x,1/4+y,3/4+z
3/4+x,1/4-y,3/4+z
1/2+x,1/2+y,z
1/2-x,1/2-y,z
3/4-x,3/4+y,1/4+z
3/4+x,3/4-y,1/4+z
loop_
_atom_site_type_symbol
_atom_site_label
_atom_site_fract_x
_atom_site_fract_y
_atom_site_fract_z
Si Si1 0.066185 0.125823 0.001530
Si Si2 0.348899 0.926313 0.585869
Si Si3 0.794726 0.446723 0.882754
Si Si4 0.500000 0.500000 0.549751
Si Si5 0.641330 0.969336 0.155349
Si Si6 0.750000 0.750000 0.618940
O O1 0.118647 0.054931 0.037194
O O2 0.050930 0.387992 0.016947
O O3 0.092825 0.086906 0.951312
O O4 0.000000 0.000000 0.004456
O O5 0.352833 0.676325 0.608726
O O6 0.394672 0.063011 0.618646
O O7 0.283431 0.051105 0.589692
O O8 0.750000 0.250000 0.902224
O O9 0.767171 0.549552 0.835722
O O10 0.824183 0.663090 0.909034
O O11 0.697743 0.143551 0.150539
#
# Coordination Sequence:
#
# PCOD9371815 Si02
#       6
#    16  16  16   8  16   8
#     4  12  23  39  70 105 127 174 239 287 336 424
#     4  11  21  41  66  90 136 177 220 280 346 405
#     4  11  20  40  67  96 129 175 217 277 346 407
#     4  12  19  40  70  98 126 166 228 284 337 396
#     4  11  24  41  68  97 137 172 228 288 352 417
#     4  10  23  40  62  92 136 182 214 280 349 414
#
# _framework density 21.440325000000001
#
# number of rings (size 3 to 8) (size 9 to 14) (size 15 to 20)
#    0.000    0.800    6.000    2.400    0.000    1.600 
#    0.000    0.000   24.200    0.000    0.000    0.000 
#    0.000    0.000    0.000    0.000    0.000    0.000 
#
# Total GULP energy -111436.192227 kJ/mol
# GULP energy per Si atom -5571.809611 kJ/mol
# Density = 2.139153 g / cm^3
# Si number density = 21.440325 Si / 1000 Ang^3
#
#
#
# Elastic Constant Matrix: (Units=GPa)
#
#
# Indices 1 2 3 4 5 6 
#
# 1 112.0590 28.5890 44.5789 0.0013 -0.0015 0.0005
# 2 28.5890 56.9378 9.2198 -0.0001 0.0004 0.0108
# 3 44.5789 9.2198 96.9222 -0.0009 0.0008 -0.0005
# 4 0.0013 -0.0001 -0.0009 7.7304 -0.0005 -0.0009
# 5 -0.0015 0.0004 0.0008 -0.0005 30.3679 0.0011
# 6 0.0005 0.0108 -0.0005 -0.0009 0.0011 55.0690
#
#
#
# Elastic Compliance Matrix: (Units=1/GPa)
#
#
# Indices 1 2 3 4 5 6 
#
# 1 0.012349 -0.005363 -0.005170 -0.000003 0.000001 0.000001
# 2 -0.005363 0.020167 0.000548 0.000001 -0.000001 -0.000004
# 3 -0.005170 0.000548 0.012643 0.000002 -0.000001 0.000000
# 4 -0.000003 0.000001 0.000002 0.129360 0.000002 0.000002
# 5 0.000001 -0.000001 -0.000001 0.000002 0.032930 -0.000001
# 6 0.000001 -0.000004 0.000000 0.000002 -0.000001 0.018159
#
#
# Mechanical properties :
#
#
# Convention : Reuss Voigt Hill
#
# Bulk Modulus (GPa) = 39.69810 47.85492 43.77651
# Shear Modulus (GPa) = 19.68710 30.86887 25.27799
#
# Velocity S-wave (km/s) = 3.03351 3.79853 3.43737
# Velocity P-wave (km/s) = 5.55207 6.45035 6.01799
#
# Compressibility (1/GPa) = 0.02519012
#
# Stress axis : x y z
#
# Youngs Moduli (GPa) = 80.98008 49.58549 79.09457
#
# Poissons Ratio (x) = 0.26594 0.40888
# Poissons Ratio (y) = 0.43432 -0.04338
# Poissons Ratio (z) = 0.41863 -0.02719
#
# Static dielectric constant tensor:
#      x y z
#    x 1.789440 0.000000 0.000000 
#    y 0.000000 2.011640 0.000000 
#    z 0.000000 0.000000 1.752760 
# 
# From -- ./inp_files/27210.got.cif
#   From: 2010.05.17/outbox.cif.g08.bks.cpg/sg43_14_cif.got.tgz:27210.got - 2010.06.03 19:21:55.
