data_PCOD9371659
_publ_section_title
;
Structure prediction by ZEFSAII (Michael W. Deem and Ramdas Pophale) SiO2 
 PCOD9371659
Probable space group: F D D 2
;
_chemical_formula_sum "Si O2"
_cell_formula_units_Z 80
_cell_length_a 12.847890
_cell_length_b 25.312053
_cell_length_c 11.911737
_cell_angle_alpha 90.000000
_cell_angle_beta 90.000000
_cell_angle_gamma 90.000000
_cell_volume 3873.773973
_symmetry_space_group_name_H-M "F D D 2"
_symmetry_group_IT_number 43
_symmetry_cell_setting 'orthorhombic'
loop_
_space_group_symop_operation_xyz
x,y,z
-x,-y,z
1/4-x,1/4+y,1/4+z
1/4+x,1/4-y,1/4+z
x,1/2+y,1/2+z
-x,1/2-y,1/2+z
1/4-x,3/4+y,3/4+z
1/4+x,3/4-y,3/4+z
1/2+x,y,1/2+z
1/2-x,-y,1/2+z
3/4-x,1/4+y,3/4+z
3/4+x,1/4-y,3/4+z
1/2+x,1/2+y,z
1/2-x,1/2-y,z
3/4-x,3/4+y,1/4+z
3/4+x,3/4-y,1/4+z
loop_
_atom_site_type_symbol
_atom_site_label
_atom_site_fract_x
_atom_site_fract_y
_atom_site_fract_z
Si Si1 0.849456 0.146589 0.825430
Si Si2 0.133788 0.893260 0.066454
Si Si3 0.259887 0.998505 0.593003
Si Si4 0.319955 0.705871 0.220375
Si Si5 0.811414 0.797402 0.954859
O O1 0.734768 0.151256 0.775568
O O2 0.910442 0.201453 0.821605
O O3 0.920028 0.102361 0.765605
O O4 0.818469 0.127129 0.949955
O O5 0.159165 0.847037 0.153888
O O6 0.178759 0.947586 0.115732
O O7 0.179992 0.016031 0.495049
O O8 0.176788 0.975844 0.682294
O O9 0.250000 0.750000 0.158865
O O10 0.255809 0.695065 0.338155
O O11 0.750000 0.750000 0.016482
#
# Coordination Sequence:
#
# PCOD9371659 Si02
#       5
#    16  16  16  16  16
#     4  12  24  44  65 102 135 171 221 282 337 391
#     4  12  24  44  65 102 135 171 221 282 337 391
#     4  10  22  44  64  94 138 168 222 268 336 396
#     4   9  22  44  69  97 129 178 229 264 330 416
#     4   9  22  44  69  97 129 178 229 264 330 416
#
# _framework density 20.651695
#
# number of rings (size 3 to 8) (size 9 to 14) (size 15 to 20)
#    0.000    2.000    4.000    0.600    0.000    9.600 
#    7.200    0.000    0.000    0.000    0.000    0.000 
#    0.000    0.000    0.000    0.000    0.000    0.000 
#
# Total GULP energy -111416.125696 kJ/mol
# GULP energy per Si atom -5570.806285 kJ/mol
# Density = 2.060469 g / cm^3
# Si number density = 20.651695 Si / 1000 Ang^3
#
#
#
# Elastic Constant Matrix: (Units=GPa)
#
#
# Indices 1 2 3 4 5 6 
#
# 1 89.0383 61.1428 6.0036 0.0000 0.0000 0.0000
# 2 61.1428 217.9895 36.5666 0.0000 0.0000 0.0000
# 3 6.0036 36.5666 43.1780 0.0000 0.0000 0.0000
# 4 0.0000 0.0000 0.0000 33.0740 0.0000 0.0000
# 5 0.0000 0.0000 0.0000 0.0000 5.1826 0.0000
# 6 0.0000 0.0000 0.0000 0.0000 0.0000 40.6542
#
#
#
# Elastic Compliance Matrix: (Units=1/GPa)
#
#
# Indices 1 2 3 4 5 6 
#
# 1 0.014006 -0.004198 0.001608 0.000000 0.000000 0.000000
# 2 -0.004198 0.006605 -0.005010 0.000000 0.000000 0.000000
# 3 0.001608 -0.005010 0.027179 0.000000 0.000000 0.000000
# 4 0.000000 0.000000 0.000000 0.030235 0.000000 0.000000
# 5 0.000000 0.000000 0.000000 0.000000 0.192954 0.000000
# 6 0.000000 0.000000 0.000000 0.000000 0.000000 0.024598
#
#
# Mechanical properties :
#
#
# Convention : Reuss Voigt Hill
#
# Bulk Modulus (GPa) = 30.68476 61.95909 46.32193
# Shear Modulus (GPa) = 15.54529 32.21502 23.88016
#
# Velocity S-wave (km/s) = 2.74658 3.95387 3.40417
# Velocity P-wave (km/s) = 4.99487 7.13521 6.15873
#
# Compressibility (1/GPa) = 0.03258946
#
# Stress axis : x y z
#
# Youngs Moduli (GPa) = 71.40041 151.39361 36.79259
#
# Poissons Ratio (x) = 0.63556 -0.05916
# Poissons Ratio (y) = 0.29974 0.18434
# Poissons Ratio (z) = -0.11480 0.75851
#
# Static dielectric constant tensor:
#      x y z
#    x 1.760470 0.000000 0.000000 
#    y 0.000000 1.722190 0.000000 
#    z 0.000000 0.000000 1.778460 
# 
# From -- ./inp_files/9538.got.cif
#   From: 2010.05.17/outbox.cif.g08.bks.cpg/sg43_5_cif.got.tgz:9538.got - 2010.06.03 19:21:55.
