data_PCOD9371725
_publ_section_title
;
Structure prediction by ZEFSAII (Michael W. Deem and Ramdas Pophale) SiO2 
 PCOD9371725
Probable space group: F D D 2
;
_chemical_formula_sum "Si O2"
_cell_formula_units_Z 72
_cell_length_a 22.277931
_cell_length_b 7.396211
_cell_length_c 17.250034
_cell_angle_alpha 90.000000
_cell_angle_beta 90.000000
_cell_angle_gamma 90.000000
_cell_volume 2842.327403
_symmetry_space_group_name_H-M "F D D 2"
_symmetry_group_IT_number 43
_symmetry_cell_setting 'orthorhombic'
loop_
_space_group_symop_operation_xyz
x,y,z
-x,-y,z
1/4-x,1/4+y,1/4+z
1/4+x,1/4-y,1/4+z
x,1/2+y,1/2+z
-x,1/2-y,1/2+z
1/4-x,3/4+y,3/4+z
1/4+x,3/4-y,3/4+z
1/2+x,y,1/2+z
1/2-x,-y,1/2+z
3/4-x,1/4+y,3/4+z
3/4+x,1/4-y,3/4+z
1/2+x,1/2+y,z
1/2-x,1/2-y,z
3/4-x,3/4+y,1/4+z
3/4+x,3/4-y,1/4+z
loop_
_atom_site_type_symbol
_atom_site_label
_atom_site_fract_x
_atom_site_fract_y
_atom_site_fract_z
Si Si1 0.254749 0.537852 0.503450
Si Si2 0.146824 0.535443 0.384767
Si Si3 0.117797 0.209067 0.652071
Si Si4 0.428778 0.013352 0.524213
Si Si5 0.750000 0.750000 0.636231
O O1 0.250000 0.750000 0.519422
O O2 0.205654 0.494104 0.437238
O O3 0.319650 0.496003 0.467925
O O4 0.245752 0.421194 0.579324
O O5 0.141598 0.750187 0.378378
O O6 0.151749 0.425924 0.305751
O O7 0.091864 0.464008 0.436305
O O8 0.099883 0.334993 0.579420
O O9 0.186436 0.237501 0.678512
O O10 0.500000 0.000000 0.530934
#
# Coordination Sequence:
#
# PCOD9371725 Si02
#       5
#    16  16  16  16   8
#     4  10  22  45  68  98 141 190 234 296 371 434
#     4  11  26  46  74 108 149 195 246 314 372 451
#     4  11  26  43  71 107 142 193 246 300 369 443
#     4  12  26  48  75 109 152 200 252 310 383 454
#     4  12  24  44  74 100 142 190 240 300 366 446
#
# _framework density 25.331353
#
# number of rings (size 3 to 8) (size 9 to 14) (size 15 to 20)
#    0.000    0.889    4.444    1.333    6.222    1.778 
#    0.000    0.000    0.000    0.000    0.000    0.000 
#    0.000    0.000    0.000    0.000    0.000    0.000 
#
# Total GULP energy -101125.362652 kJ/mol
# GULP energy per Si atom -5618.075703 kJ/mol
# Density = 2.527370 g / cm^3
# Si number density = 25.331353 Si / 1000 Ang^3
#
#
#
# Elastic Constant Matrix: (Units=GPa)
#
#
# Indices 1 2 3 4 5 6 
#
# 1 200.1248 32.9186 36.9943 0.0000 0.0000 0.0000
# 2 32.9186 97.7114 28.2261 0.0000 0.0000 0.0000
# 3 36.9943 28.2261 68.0620 0.0000 0.0000 0.0000
# 4 0.0000 0.0000 0.0000 24.2488 0.0000 0.0000
# 5 0.0000 0.0000 0.0000 0.0000 36.1420 0.0000
# 6 0.0000 0.0000 0.0000 0.0000 0.0000 27.9758
#
#
#
# Elastic Compliance Matrix: (Units=1/GPa)
#
#
# Indices 1 2 3 4 5 6 
#
# 1 0.005668 -0.001158 -0.002600 0.000000 0.000000 0.000000
# 2 -0.001158 0.011864 -0.004290 0.000000 0.000000 0.000000
# 3 -0.002600 -0.004290 0.017885 0.000000 0.000000 0.000000
# 4 0.000000 0.000000 0.000000 0.041239 0.000000 0.000000
# 5 0.000000 0.000000 0.000000 0.000000 0.027669 0.000000
# 6 0.000000 0.000000 0.000000 0.000000 0.000000 0.035745
#
#
# Mechanical properties :
#
#
# Convention : Reuss Voigt Hill
#
# Bulk Modulus (GPa) = 51.76345 62.46402 57.11373
# Shear Modulus (GPa) = 30.74873 35.52393 33.13633
#
# Velocity S-wave (km/s) = 3.48783 3.74889 3.62071
# Velocity P-wave (km/s) = 6.05796 6.59175 6.33048
#
# Compressibility (1/GPa) = 0.01931865
#
# Stress axis : x y z
#
# Youngs Moduli (GPa) = 176.42492 84.28952 55.91202
#
# Poissons Ratio (x) = 0.09764 0.14540
# Poissons Ratio (y) = 0.20437 0.23989
# Poissons Ratio (z) = 0.45879 0.36164
#
# Static dielectric constant tensor:
#      x y z
#    x 2.026380 0.000000 0.000000 
#    y 0.000000 1.978740 0.000000 
#    z 0.000000 0.000000 1.929140 
# 
# From -- ./inp_files/12568.got.cif
#   From: 2010.05.17/outbox.cif.g08.bks.cpg/sg43_7_cif.got.tgz:12568.got - 2010.06.03 19:21:55.
