data_PCOD9371190
_publ_section_title
;
Structure prediction by ZEFSAII (Michael W. Deem and Ramdas Pophale) SiO2 
 PCOD9371190
Probable space group: F D D 2
;
_chemical_formula_sum "Si O2"
_cell_formula_units_Z 104
_cell_length_a 17.785271
_cell_length_b 9.580841
_cell_length_c 26.594929
_cell_angle_alpha 90.000000
_cell_angle_beta 90.000000
_cell_angle_gamma 90.000000
_cell_volume 4531.718818
_symmetry_space_group_name_H-M "F D D 2"
_symmetry_group_IT_number 43
_symmetry_cell_setting 'orthorhombic'
loop_
_space_group_symop_operation_xyz
x,y,z
-x,-y,z
1/4-x,1/4+y,1/4+z
1/4+x,1/4-y,1/4+z
x,1/2+y,1/2+z
-x,1/2-y,1/2+z
1/4-x,3/4+y,3/4+z
1/4+x,3/4-y,3/4+z
1/2+x,y,1/2+z
1/2-x,-y,1/2+z
3/4-x,1/4+y,3/4+z
3/4+x,1/4-y,3/4+z
1/2+x,1/2+y,z
1/2-x,1/2-y,z
3/4-x,3/4+y,1/4+z
3/4+x,3/4-y,1/4+z
loop_
_atom_site_type_symbol
_atom_site_label
_atom_site_fract_x
_atom_site_fract_y
_atom_site_fract_z
Si Si1 0.000000 0.500000 0.207260
Si Si2 0.341550 0.260704 0.625993
Si Si3 0.387578 0.123472 0.017830
Si Si4 0.949440 0.269977 0.427331
Si Si5 0.337862 0.296888 0.513170
Si Si6 0.133505 0.026797 0.161488
Si Si7 0.582223 0.801683 0.134151
O O1 0.932299 0.461772 0.245305
O O2 0.980441 0.626698 0.169020
O O3 0.250000 0.250000 0.632445
O O4 0.354879 0.413671 0.646946
O O5 0.360793 0.251752 0.568354
O O6 0.383713 0.135361 0.652440
O O7 0.408067 0.147116 0.076458
O O8 0.362315 0.961205 0.010409
O O9 0.452917 0.187896 0.980915
O O10 0.906240 0.413710 0.418618
O O11 0.028405 0.286950 0.399424
O O12 0.250000 0.250000 0.508374
O O13 0.377411 0.207033 0.470806
O O14 0.081358 0.134598 0.133191
#
# Coordination Sequence:
#
# PCOD9371190 Si02
#       7
#     8  16  16  16  16  16  16
#     4  10  26  44  66 102 142 170 242 286 348 444
#     4   9  19  36  60  88 123 163 219 267 326 412
#     4  11  23  41  69  94 132 186 220 284 363 416
#     4  10  21  41  61  96 127 170 229 272 338 433
#     4  11  22  38  63  92 127 174 223 273 351 414
#     4  11  23  39  63  94 130 166 221 285 334 406
#     4  11  24  42  67  98 134 179 228 287 349 416
#
# _framework density 22.949349999999999
#
# number of rings (size 3 to 8) (size 9 to 14) (size 15 to 20)
#    0.000    1.538    3.077    1.385    2.154    3.692 
#    0.000    0.000    0.000    1.846    0.000    0.000 
#    0.000    0.000    0.000    0.000    0.000    0.000 
#
# Total GULP energy -144866.191001 kJ/mol
# GULP energy per Si atom -5571.776577 kJ/mol
# Density = 2.289712 g / cm^3
# Si number density = 22.949350 Si / 1000 Ang^3
#
#
#
# Elastic Constant Matrix: (Units=GPa)
#
#
# Indices 1 2 3 4 5 6 
#
# 1 38.8966 1.9787 -4.6631 0.0000 0.0000 0.0000
# 2 1.9787 88.2481 14.3697 0.0000 0.0000 0.0000
# 3 -4.6631 14.3697 79.7471 0.0000 0.0000 0.0000
# 4 0.0000 0.0000 0.0000 30.3808 0.0000 0.0000
# 5 0.0000 0.0000 0.0000 0.0000 19.8839 0.0000
# 6 0.0000 0.0000 0.0000 0.0000 0.0000 25.0185
#
#
#
# Elastic Compliance Matrix: (Units=1/GPa)
#
#
# Indices 1 2 3 4 5 6 
#
# 1 0.025953 -0.000854 0.001671 0.000000 0.000000 0.000000
# 2 -0.000854 0.011702 -0.002159 0.000000 0.000000 0.000000
# 3 0.001671 -0.002159 0.013026 0.000000 0.000000 0.000000
# 4 0.000000 0.000000 0.000000 0.032915 0.000000 0.000000
# 5 0.000000 0.000000 0.000000 0.000000 0.050292 0.000000
# 6 0.000000 0.000000 0.000000 0.000000 0.000000 0.039970
#
#
# Mechanical properties :
#
#
# Convention : Reuss Voigt Hill
#
# Bulk Modulus (GPa) = 20.83367 25.58471 23.20919
# Shear Modulus (GPa) = 25.96840 28.07041 27.01940
#
# Velocity S-wave (km/s) = 3.36751 3.50115 3.43498
# Velocity P-wave (km/s) = 4.92117 5.24562 5.08599
#
# Compressibility (1/GPa) = 0.04799923
#
# Stress axis : x y z
#
# Youngs Moduli (GPa) = 38.53119 85.45310 76.76761
#
# Poissons Ratio (x) = 0.07298 -0.12831
# Poissons Ratio (y) = 0.03291 0.16571
# Poissons Ratio (z) = -0.06440 0.18446
#
# Static dielectric constant tensor:
#      x y z
#    x 1.961760 0.000000 0.000000 
#    y 0.000000 1.868250 0.000000 
#    z 0.000000 0.000000 1.827660 
# 
# From -- ./inp_files/26356.got.cif
#   From: 2010.05.17/outbox.cif.g08.bks.cpg/sg43_14_cif.got.tgz:26356.got - 2010.06.03 19:21:55.
