data_PCOD9371910
_publ_section_title
;
Structure prediction by ZEFSAII (Michael W. Deem and Ramdas Pophale) SiO2 
 PCOD9371910
Probable space group: F D D 2
;
_chemical_formula_sum "Si O2"
_cell_formula_units_Z 88
_cell_length_a 20.206732
_cell_length_b 7.664237
_cell_length_c 27.665196
_cell_angle_alpha 90.000000
_cell_angle_beta 90.000000
_cell_angle_gamma 90.000000
_cell_volume 4284.486303
_symmetry_space_group_name_H-M "F D D 2"
_symmetry_group_IT_number 43
_symmetry_cell_setting 'orthorhombic'
loop_
_space_group_symop_operation_xyz
x,y,z
-x,-y,z
1/4-x,1/4+y,1/4+z
1/4+x,1/4-y,1/4+z
x,1/2+y,1/2+z
-x,1/2-y,1/2+z
1/4-x,3/4+y,3/4+z
1/4+x,3/4-y,3/4+z
1/2+x,y,1/2+z
1/2-x,-y,1/2+z
3/4-x,1/4+y,3/4+z
3/4+x,1/4-y,3/4+z
1/2+x,1/2+y,z
1/2-x,1/2-y,z
3/4-x,3/4+y,1/4+z
3/4+x,3/4-y,1/4+z
loop_
_atom_site_type_symbol
_atom_site_label
_atom_site_fract_x
_atom_site_fract_y
_atom_site_fract_z
Si Si1 0.198289 0.599879 0.743960
Si Si2 0.750000 0.750000 0.989004
Si Si3 0.042249 0.830770 0.175870
Si Si4 0.140787 0.583628 0.554023
Si Si5 0.308460 0.603796 0.150874
Si Si6 0.739850 0.054615 0.329278
O O1 0.250000 0.750000 0.755788
O O2 0.132266 0.685459 0.765280
O O3 0.208856 0.547656 0.689007
O O4 0.220314 0.444977 0.778972
O O5 0.767484 0.584381 0.955973
O O6 0.809825 0.796665 0.024251
O O7 0.122136 0.834006 0.175526
O O8 0.025529 0.811904 0.119249
O O9 0.000000 0.000000 0.192645
O O10 0.173683 0.483228 0.599399
O O11 0.081653 0.713770 0.571921
O O12 0.250000 0.750000 0.148113
O O13 0.750000 0.250000 0.348304
#
# Coordination Sequence:
#
# PCOD9371910 Si02
#       6
#    16   8  16  16  16  16
#     4  10  23  44  71 101 143 190 240 298 363 440
#     4  12  30  44  74 110 144 194 246 302 382 430
#     4  12  24  50  74 102 149 197 248 297 370 462
#     4  11  26  48  67 108 149 187 246 317 365 436
#     4  12  27  44  75 112 145 191 244 314 374 434
#     4  11  22  44  75 100 138 198 248 289 364 460
#
# _framework density 20.539217000000001
#
# number of rings (size 3 to 8) (size 9 to 14) (size 15 to 20)
#    0.000    0.727    4.545    2.182    8.909    3.636 
#    0.000    0.000    0.000    0.000    0.000    0.000 
#    0.000    0.000    0.000    0.000    0.000    0.000 
#
# Total GULP energy -122631.410762 kJ/mol
# GULP energy per Si atom -5574.155035 kJ/mol
# Density = 2.049247 g / cm^3
# Si number density = 20.539217 Si / 1000 Ang^3
#
#
#
# Elastic Constant Matrix: (Units=GPa)
#
#
# Indices 1 2 3 4 5 6 
#
# 1 108.6719 42.3249 16.5344 0.0000 0.0000 -0.0002
# 2 42.3249 118.8639 25.4871 0.0000 0.0000 -0.0003
# 3 16.5344 25.4871 78.2959 0.0000 0.0000 0.0000
# 4 0.0000 0.0000 0.0000 37.8441 0.0000 0.0000
# 5 0.0000 0.0000 0.0000 0.0000 34.9785 0.0000
# 6 -0.0002 -0.0003 0.0000 0.0000 0.0000 11.7355
#
#
#
# Elastic Compliance Matrix: (Units=1/GPa)
#
#
# Indices 1 2 3 4 5 6 
#
# 1 0.010772 -0.003599 -0.001103 0.000000 0.000000 0.000000
# 2 -0.003599 0.010247 -0.002576 0.000000 0.000000 0.000000
# 3 -0.001103 -0.002576 0.013843 0.000000 0.000000 0.000000
# 4 0.000000 0.000000 0.000000 0.026424 0.000000 0.000000
# 5 0.000000 0.000000 0.000000 0.000000 0.028589 0.000000
# 6 0.000000 0.000000 0.000000 0.000000 0.000000 0.085212
#
#
# Mechanical properties :
#
#
# Convention : Reuss Voigt Hill
#
# Bulk Modulus (GPa) = 49.24558 52.72493 50.98525
# Shear Modulus (GPa) = 25.45686 31.67731 28.56708
#
# Velocity S-wave (km/s) = 3.52437 3.93145 3.73346
# Velocity P-wave (km/s) = 6.37103 6.80695 6.59259
#
# Compressibility (1/GPa) = 0.02030639
#
# Stress axis : x y z
#
# Youngs Moduli (GPa) = 92.83699 97.59193 72.23650
#
# Poissons Ratio (x) = 0.35123 0.07969
# Poissons Ratio (y) = 0.33412 0.18605
# Poissons Ratio (z) = 0.10241 0.25135
#
# Static dielectric constant tensor:
#      x y z
#    x 1.633840 0.000000 0.000000 
#    y 0.000000 1.766130 0.000000 
#    z 0.000000 0.000000 1.694350 
# 
# From -- ./inp_files/22349.got.cif
#   From: 2010.05.17/outbox.cif.g08.bks.cpg/sg43_12_cif.got.tgz:22349.got - 2010.06.03 19:21:55.
