data_PCOD9371090
_publ_section_title
;
Structure prediction by ZEFSAII (Michael W. Deem and Ramdas Pophale) SiO2 
 PCOD9371090
Probable space group: F D D 2
;
_chemical_formula_sum "Si O2"
_cell_formula_units_Z 104
_cell_length_a 25.188857
_cell_length_b 16.765341
_cell_length_c 11.152204
_cell_angle_alpha 90.000000
_cell_angle_beta 90.000000
_cell_angle_gamma 90.000000
_cell_volume 4709.573262
_symmetry_space_group_name_H-M "F D D 2"
_symmetry_group_IT_number 43
_symmetry_cell_setting 'orthorhombic'
loop_
_space_group_symop_operation_xyz
x,y,z
-x,-y,z
1/4-x,1/4+y,1/4+z
1/4+x,1/4-y,1/4+z
x,1/2+y,1/2+z
-x,1/2-y,1/2+z
1/4-x,3/4+y,3/4+z
1/4+x,3/4-y,3/4+z
1/2+x,y,1/2+z
1/2-x,-y,1/2+z
3/4-x,1/4+y,3/4+z
3/4+x,1/4-y,3/4+z
1/2+x,1/2+y,z
1/2-x,1/2-y,z
3/4-x,3/4+y,1/4+z
3/4+x,3/4-y,1/4+z
loop_
_atom_site_type_symbol
_atom_site_label
_atom_site_fract_x
_atom_site_fract_y
_atom_site_fract_z
Si Si1 0.500000 0.500000 0.178051
Si Si2 0.508958 0.644699 0.714114
Si Si3 0.152744 0.789185 0.389713
Si Si4 0.810558 0.475770 0.815885
Si Si5 0.392722 0.639849 0.626926
Si Si6 0.467144 0.869883 0.484797
Si Si7 0.397650 0.586527 0.217681
O O1 0.480685 0.431117 0.088868
O O2 0.450017 0.535588 0.247477
O O3 0.538107 0.575744 0.638426
O O4 0.546674 0.720434 0.683194
O O5 0.448831 0.664533 0.681436
O O6 0.512300 0.613915 0.850024
O O7 0.152145 0.701377 0.335477
O O8 0.130117 0.801195 0.525369
O O9 0.115598 0.847607 0.315427
O O10 0.751963 0.458014 0.764322
O O11 0.847707 0.526088 0.725502
O O12 0.838885 0.391807 0.851401
O O13 0.345957 0.625085 0.722599
#
# Coordination Sequence:
#
# PCOD9371090 Si02
#       7
#     8  16  16  16  16  16  16
#     4  10  24  42  60  92 124 170 208 264 316 406
#     4  10  22  38  64  91 128 164 210 267 323 378
#     4  10  21  39  60  90 126 158 214 272 311 395
#     4  10  22  44  64  96 128 171 218 271 321 400
#     4  11  22  38  64  93 125 172 211 267 328 365
#     4  10  23  40  61  91 128 159 220 254 316 390
#     4  10  21  44  64  89 132 169 215 269 334 378
#
# _framework density 22.082681000000001
#
# number of rings (size 3 to 8) (size 9 to 14) (size 15 to 20)
#    0.000    1.846    0.000    4.154    6.462    0.000 
#   16.615    0.000    0.000    0.000    0.000    0.000 
#    0.000    0.000    0.000    0.000    0.000    0.000 
#
# Total GULP energy -144861.182255 kJ/mol
# GULP energy per Si atom -5571.583933 kJ/mol
# Density = 2.203242 g / cm^3
# Si number density = 22.082681 Si / 1000 Ang^3
#
#
#
# Elastic Constant Matrix: (Units=GPa)
#
#
# Indices 1 2 3 4 5 6 
#
# 1 148.8061 23.2734 17.4040 0.0000 0.0000 0.0000
# 2 23.2734 66.2100 -5.2932 0.0000 0.0000 0.0000
# 3 17.4040 -5.2932 25.3046 0.0000 0.0000 0.0000
# 4 0.0000 0.0000 0.0000 21.7764 0.0000 0.0000
# 5 0.0000 0.0000 0.0000 0.0000 33.7836 0.0000
# 6 0.0000 0.0000 0.0000 0.0000 0.0000 41.5663
#
#
#
# Elastic Compliance Matrix: (Units=1/GPa)
#
#
# Indices 1 2 3 4 5 6 
#
# 1 0.007955 -0.003289 -0.006159 0.000000 0.000000 0.000000
# 2 -0.003289 0.016720 0.005759 0.000000 0.000000 0.000000
# 3 -0.006159 0.005759 0.044959 0.000000 0.000000 0.000000
# 4 0.000000 0.000000 0.000000 0.045921 0.000000 0.000000
# 5 0.000000 0.000000 0.000000 0.000000 0.029600 0.000000
# 6 0.000000 0.000000 0.000000 0.000000 0.000000 0.024058
#
#
# Mechanical properties :
#
#
# Convention : Reuss Voigt Hill
#
# Bulk Modulus (GPa) = 16.06235 34.56544 25.31390
# Shear Modulus (GPa) = 25.33664 33.08770 29.21217
#
# Velocity S-wave (km/s) = 3.39094 3.87506 3.64105
# Velocity P-wave (km/s) = 4.75613 5.97563 5.40041
#
# Compressibility (1/GPa) = 0.06225738
#
# Stress axis : x y z
#
# Youngs Moduli (GPa) = 125.70944 59.80906 22.24228
#
# Poissons Ratio (x) = 0.19669 0.13699
# Poissons Ratio (y) = 0.41341 -0.12810
# Poissons Ratio (z) = 0.77426 -0.34446
#
# Static dielectric constant tensor:
#      x y z
#    x 1.856680 0.000000 0.000000 
#    y 0.000000 1.823530 0.000000 
#    z 0.000000 0.000000 1.823500 
# 
# From -- ./inp_files/6791.got.cif
#   From: 2010.05.17/outbox.cif.g08.bks.cpg/sg43_4_cif.got.tgz:6791.got - 2010.06.03 19:21:55.
