data_PCOD9371965
_publ_section_title
;
Structure prediction by ZEFSAII (Michael W. Deem and Ramdas Pophale) SiO2 
 PCOD9371965
Probable space group: F D D 2
;
_chemical_formula_sum "Si O2"
_cell_formula_units_Z 88
_cell_length_a 6.710811
_cell_length_b 21.102592
_cell_length_c 26.568335
_cell_angle_alpha 90.000000
_cell_angle_beta 90.000000
_cell_angle_gamma 90.000000
_cell_volume 3762.488218
_symmetry_space_group_name_H-M "F D D 2"
_symmetry_group_IT_number 43
_symmetry_cell_setting 'orthorhombic'
loop_
_space_group_symop_operation_xyz
x,y,z
-x,-y,z
1/4-x,1/4+y,1/4+z
1/4+x,1/4-y,1/4+z
x,1/2+y,1/2+z
-x,1/2-y,1/2+z
1/4-x,3/4+y,3/4+z
1/4+x,3/4-y,3/4+z
1/2+x,y,1/2+z
1/2-x,-y,1/2+z
3/4-x,1/4+y,3/4+z
3/4+x,1/4-y,3/4+z
1/2+x,1/2+y,z
1/2-x,1/2-y,z
3/4-x,3/4+y,1/4+z
3/4+x,3/4-y,1/4+z
loop_
_atom_site_type_symbol
_atom_site_label
_atom_site_fract_x
_atom_site_fract_y
_atom_site_fract_z
Si Si1 0.006652 0.639956 0.391800
Si Si2 0.795657 0.463420 0.007960
Si Si3 0.500000 0.000000 0.419868
Si Si4 0.500000 0.500000 0.302448
Si Si5 0.872319 0.309370 0.494984
Si Si6 0.750000 0.250000 0.846657
Si Si7 0.247051 0.611143 0.307604
O O1 0.833097 0.690117 0.378524
O O2 0.983754 0.563660 0.386370
O O3 0.065884 0.646193 0.449674
O O4 0.185391 0.656182 0.353380
O O5 0.665784 0.475432 0.057625
O O6 0.000000 0.500000 0.010994
O O7 0.867635 0.390895 0.013414
O O8 0.682051 0.488631 0.958960
O O9 0.320130 0.467938 0.271052
O O10 0.380012 0.554726 0.330631
O O11 0.750000 0.250000 0.473137
O O12 0.714213 0.342342 0.532200
#
# Coordination Sequence:
#
# PCOD9371965 Si02
#       7
#    16  16   8   8  16   8  16
#     4  12  26  46  72 111 145 193 249 318 361 467
#     4  11  23  49  72 102 140 200 239 311 372 453
#     4  11  28  46  73 106 156 186 255 312 394 441
#     4  10  23  46  71  98 146 196 227 300 377 434
#     4  10  24  46  69 103 144 190 244 303 367 450
#     4  11  27  44  76 102 146 190 256 296 377 447
#     4  11  25  43  75 100 147 188 247 302 380 440
#
# _framework density 23.388777000000001
#
# number of rings (size 3 to 8) (size 9 to 14) (size 15 to 20)
#    0.000    1.091    1.818    2.727   11.455    1.455 
#    8.182    0.000    0.000    0.000    0.000    0.000 
#    0.000    0.000    0.000    0.000    0.000    0.000 
#
# Total GULP energy -122810.730144 kJ/mol
# GULP energy per Si atom -5582.305916 kJ/mol
# Density = 2.333554 g / cm^3
# Si number density = 23.388777 Si / 1000 Ang^3
#
#
#
# Elastic Constant Matrix: (Units=GPa)
#
#
# Indices 1 2 3 4 5 6 
#
# 1 154.6333 46.0979 38.7958 0.0000 0.0000 0.0000
# 2 46.0979 107.9830 26.6775 0.0000 0.0000 0.0000
# 3 38.7958 26.6775 88.6954 0.0000 0.0000 0.0000
# 4 0.0000 0.0000 0.0000 -32.9972 0.0000 0.0000
# 5 0.0000 0.0000 0.0000 0.0000 18.0800 0.0000
# 6 0.0000 0.0000 0.0000 0.0000 0.0000 52.7163
#
#
#
# Elastic Compliance Matrix: (Units=1/GPa)
#
#
# Indices 1 2 3 4 5 6 
#
# 1 0.007949 -0.002738 -0.002653 0.000000 0.000000 0.000000
# 2 -0.002738 0.010947 -0.002095 0.000000 0.000000 0.000000
# 3 -0.002653 -0.002095 0.013065 0.000000 0.000000 0.000000
# 4 0.000000 0.000000 0.000000 -0.030306 0.000000 0.000000
# 5 0.000000 0.000000 0.000000 0.000000 0.055310 0.000000
# 6 0.000000 0.000000 0.000000 0.000000 0.000000 0.018969
#
#
# Mechanical properties :
#
#
# Convention : Reuss Voigt Hill
#
# Bulk Modulus (GPa) = 58.86298 63.82826 61.34562
# Shear Modulus (GPa) = 51.77588 23.54253 37.65920
#
# Velocity S-wave (km/s) = 4.71011 3.17610 4.01701
# Velocity P-wave (km/s) = 7.40284 6.38745 6.91381
#
# Compressibility (1/GPa) = 0.01698861
#
# Stress axis : x y z
#
# Youngs Moduli (GPa) = 125.80534 91.34852 76.53865
#
# Poissons Ratio (x) = 0.25010 0.20309
# Poissons Ratio (y) = 0.34443 0.16036
# Poissons Ratio (z) = 0.33381 0.19138
#
# Static dielectric constant tensor:
#      x y z
#    x 1.893420 0.000000 0.000000 
#    y 0.000000 11.514730 0.000000 
#    z 0.000000 0.000000 1.837990 
# 
# From -- ./inp_files/27263.got.cif
#   From: 2010.05.17/outbox.cif.g08.bks.cpg/sg43_14_cif.got.tgz:27263.got - 2010.06.03 19:21:55.
