data_PCOD9371263
_publ_section_title
;
Structure prediction by ZEFSAII (Michael W. Deem and Ramdas Pophale) SiO2 
 PCOD9371263
Probable space group: F D D 2
;
_chemical_formula_sum "Si O2"
_cell_formula_units_Z 72
_cell_length_a 24.531677
_cell_length_b 12.710410
_cell_length_c 9.261619
_cell_angle_alpha 90.000000
_cell_angle_beta 90.000000
_cell_angle_gamma 90.000000
_cell_volume 2887.843865
_symmetry_space_group_name_H-M "F D D 2"
_symmetry_group_IT_number 43
_symmetry_cell_setting 'orthorhombic'
loop_
_space_group_symop_operation_xyz
x,y,z
-x,-y,z
1/4-x,1/4+y,1/4+z
1/4+x,1/4-y,1/4+z
x,1/2+y,1/2+z
-x,1/2-y,1/2+z
1/4-x,3/4+y,3/4+z
1/4+x,3/4-y,3/4+z
1/2+x,y,1/2+z
1/2-x,-y,1/2+z
3/4-x,1/4+y,3/4+z
3/4+x,1/4-y,3/4+z
1/2+x,1/2+y,z
1/2-x,1/2-y,z
3/4-x,3/4+y,1/4+z
3/4+x,3/4-y,1/4+z
loop_
_atom_site_type_symbol
_atom_site_label
_atom_site_fract_x
_atom_site_fract_y
_atom_site_fract_z
Si Si1 0.000000 0.000000 0.955760
Si Si2 0.040588 0.153893 0.300823
Si Si3 0.817879 0.295297 0.184964
Si Si4 0.572461 0.097822 0.211733
Si Si5 0.777751 0.450001 0.810467
O O1 0.959730 0.933966 0.853952
O O2 0.038417 0.923736 0.048756
O O3 0.044759 0.253303 0.405741
O O4 0.983851 0.102846 0.363692
O O5 0.032540 0.188873 0.136149
O O6 0.081656 0.057546 0.334551
O O7 0.809109 0.238535 0.339222
O O8 0.863149 0.383557 0.210019
O O9 0.553052 0.214103 0.165677
#
# Coordination Sequence:
#
# PCOD9371263 Si02
#       5
#     8  16  16  16  16
#     4  12  24  42  70  98 138 184 228 278 352 404
#     4  10  21  42  69  95 137 180 219 288 349 404
#     4  10  22  40  67  92 137 177 224 281 351 400
#     4  11  23  43  64 103 136 177 232 288 339 418
#     4  11  22  41  68  96 135 179 228 279 345 409
#
# _framework density 24.932096000000001
#
# number of rings (size 3 to 8) (size 9 to 14) (size 15 to 20)
#    0.000    1.333    2.222    5.333    0.000    0.000 
#    4.000    2.222    0.000    0.000    0.000    0.000 
#    0.000    0.000    0.000    0.000    0.000    0.000 
#
# Total GULP energy -100301.094319 kJ/mol
# GULP energy per Si atom -5572.283018 kJ/mol
# Density = 2.487535 g / cm^3
# Si number density = 24.932096 Si / 1000 Ang^3
#
#
#
# Elastic Constant Matrix: (Units=GPa)
#
#
# Indices 1 2 3 4 5 6 
#
# 1 72.1460 31.6865 9.1593 0.0000 0.0000 0.0000
# 2 31.6865 119.4894 25.7998 0.0000 0.0000 0.0000
# 3 9.1593 25.7998 109.0352 0.0000 0.0000 0.0000
# 4 0.0000 0.0000 0.0000 53.9615 0.0000 0.0000
# 5 0.0000 0.0000 0.0000 0.0000 8.0100 0.0000
# 6 0.0000 0.0000 0.0000 0.0000 0.0000 45.9650
#
#
#
# Elastic Compliance Matrix: (Units=1/GPa)
#
#
# Indices 1 2 3 4 5 6 
#
# 1 0.015701 -0.004088 -0.000352 0.000000 0.000000 0.000000
# 2 -0.004088 0.009884 -0.001995 0.000000 0.000000 0.000000
# 3 -0.000352 -0.001995 0.009673 0.000000 0.000000 0.000000
# 4 0.000000 0.000000 0.000000 0.018532 0.000000 0.000000
# 5 0.000000 0.000000 0.000000 0.000000 0.124844 0.000000
# 6 0.000000 0.000000 0.000000 0.000000 0.000000 0.021756
#
#
# Mechanical properties :
#
#
# Convention : Reuss Voigt Hill
#
# Bulk Modulus (GPa) = 44.66634 48.21797 46.44216
# Shear Modulus (GPa) = 22.65304 37.18897 29.92101
#
# Velocity S-wave (km/s) = 3.01755 3.86633 3.46800
# Velocity P-wave (km/s) = 5.48588 6.27001 5.89101
#
# Compressibility (1/GPa) = 0.02238822
#
# Stress axis : x y z
#
# Youngs Moduli (GPa) = 63.69136 101.17638 103.38026
#
# Poissons Ratio (x) = 0.41357 0.03636
# Poissons Ratio (y) = 0.26035 0.20628
# Poissons Ratio (z) = 0.02240 0.20188
#
# Static dielectric constant tensor:
#      x y z
#    x 2.089280 0.000000 0.000000 
#    y 0.000000 1.995170 0.000000 
#    z 0.000000 0.000000 2.025120 
# 
# From -- ./inp_files/4112.got.cif
#   From: 2010.05.17/outbox.cif.g08.bks.cpg/sg43_3_cif.got.tgz:4112.got - 2010.06.03 19:21:55.
