data_PCOD9371205
_publ_section_title
;
Structure prediction by ZEFSAII (Michael W. Deem and Ramdas Pophale) SiO2 
 PCOD9371205
Probable space group: F D D 2
;
_chemical_formula_sum "Si O2"
_cell_formula_units_Z 112
_cell_length_a 25.077629
_cell_length_b 15.042324
_cell_length_c 13.681911
_cell_angle_alpha 90.000000
_cell_angle_beta 90.000000
_cell_angle_gamma 90.000000
_cell_volume 5161.170104
_symmetry_space_group_name_H-M "F D D 2"
_symmetry_group_IT_number 43
_symmetry_cell_setting 'orthorhombic'
loop_
_space_group_symop_operation_xyz
x,y,z
-x,-y,z
1/4-x,1/4+y,1/4+z
1/4+x,1/4-y,1/4+z
x,1/2+y,1/2+z
-x,1/2-y,1/2+z
1/4-x,3/4+y,3/4+z
1/4+x,3/4-y,3/4+z
1/2+x,y,1/2+z
1/2-x,-y,1/2+z
3/4-x,1/4+y,3/4+z
3/4+x,1/4-y,3/4+z
1/2+x,1/2+y,z
1/2-x,1/2-y,z
3/4-x,3/4+y,1/4+z
3/4+x,3/4-y,1/4+z
loop_
_atom_site_type_symbol
_atom_site_label
_atom_site_fract_x
_atom_site_fract_y
_atom_site_fract_z
Si Si1 0.802127 0.535591 0.219280
Si Si2 0.124131 0.830354 0.214627
Si Si3 0.132569 0.629572 0.180024
Si Si4 0.843770 0.848183 0.087107
Si Si5 0.346817 0.054669 0.531442
Si Si6 0.744320 0.531178 0.413296
Si Si7 0.772403 0.144384 0.526629
O O1 0.817067 0.435020 0.190920
O O2 0.856259 0.571758 0.269045
O O3 0.756223 0.540084 0.299581
O O4 0.785780 0.591752 0.126155
O O5 0.142857 0.727807 0.221363
O O6 0.132642 0.881806 0.315675
O O7 0.147440 0.878972 0.121083
O O8 0.061124 0.822041 0.195059
O O9 0.082153 0.586750 0.236050
O O10 0.857687 0.815698 0.197318
O O11 0.785762 0.811304 0.051676
O O12 0.843060 0.955316 0.075863
O O13 0.292677 0.074043 0.472865
O O14 0.745132 0.427830 0.443659
#
# Coordination Sequence:
#
# PCOD9371205 Si02
#       7
#    16  16  16  16  16  16  16
#     4  11  22  41  66  93 130 162 219 266 319 389
#     4  11  22  43  66  93 132 169 212 270 321 386
#     4  11  23  40  64  94 130 168 207 267 323 386
#     4  10  23  40  65  91 125 168 212 265 318 383
#     4  10  21  41  66  92 120 171 215 255 321 385
#     4   9  21  39  65  87 124 176 200 256 334 377
#     4  10  22  40  62  92 127 172 203 263 335 375
#
# _framework density 21.700505
#
# number of rings (size 3 to 8) (size 9 to 14) (size 15 to 20)
#    0.000    1.714    2.857    1.714    6.000    4.000 
#    0.000   10.714    0.000    0.000    0.000    0.000 
#    0.000    0.000    0.000    0.000    0.000    0.000 
#
# Total GULP energy -156320.653392 kJ/mol
# GULP energy per Si atom -5582.880478 kJ/mol
# Density = 2.165111 g / cm^3
# Si number density = 21.700505 Si / 1000 Ang^3
#
#
#
# Elastic Constant Matrix: (Units=GPa)
#
#
# Indices 1 2 3 4 5 6 
#
# 1 99.7910 61.0254 41.2219 0.0000 0.0000 0.0000
# 2 61.0254 95.0127 41.0742 0.0000 0.0000 0.0000
# 3 41.2219 41.0742 117.5591 0.0000 0.0000 0.0000
# 4 0.0000 0.0000 0.0000 29.8566 0.0000 0.0000
# 5 0.0000 0.0000 0.0000 0.0000 28.3252 0.0000
# 6 0.0000 0.0000 0.0000 0.0000 0.0000 37.7124
#
#
#
# Elastic Compliance Matrix: (Units=1/GPa)
#
#
# Indices 1 2 3 4 5 6 
#
# 1 0.017127 -0.009899 -0.002547 0.000000 0.000000 0.000000
# 2 -0.009899 0.018119 -0.002860 0.000000 0.000000 0.000000
# 3 -0.002547 -0.002860 0.010398 0.000000 0.000000 0.000000
# 4 0.000000 0.000000 0.000000 0.033493 0.000000 0.000000
# 5 0.000000 0.000000 0.000000 0.000000 0.035304 0.000000
# 6 0.000000 0.000000 0.000000 0.000000 0.000000 0.026516
#
#
# Mechanical properties :
#
#
# Convention : Reuss Voigt Hill
#
# Bulk Modulus (GPa) = 66.51897 66.55621 66.53759
# Shear Modulus (GPa) = 28.31564 30.44827 29.38196
#
# Velocity S-wave (km/s) = 3.61617 3.74988 3.68363
# Velocity P-wave (km/s) = 6.93941 7.03461 6.98717
#
# Compressibility (1/GPa) = 0.01503330
#
# Stress axis : x y z
#
# Youngs Moduli (GPa) = 58.38837 55.18974 96.16805
#
# Poissons Ratio (x) = 0.54634 0.24491
# Poissons Ratio (y) = 0.57800 0.27500
# Poissons Ratio (z) = 0.14870 0.15782
#
# Static dielectric constant tensor:
#      x y z
#    x 1.802230 0.000000 0.000000 
#    y 0.000000 2.016130 0.000000 
#    z 0.000000 0.000000 1.742870 
# 
# From -- ./inp_files/8285.got.cif
#   From: 2010.05.17/outbox.cif.g08.bks.cpg/sg43_5_cif.got.tgz:8285.got - 2010.06.03 19:21:55.
