data_PCOD9371203
_publ_section_title
;
Structure prediction by ZEFSAII (Michael W. Deem and Ramdas Pophale) SiO2 
 PCOD9371203
Probable space group: F D D 2
;
_chemical_formula_sum "Si O2"
_cell_formula_units_Z 96
_cell_length_a 7.605299
_cell_length_b 28.362475
_cell_length_c 20.817355
_cell_angle_alpha 90.000000
_cell_angle_beta 90.000000
_cell_angle_gamma 90.000000
_cell_volume 4490.409699
_symmetry_space_group_name_H-M "F D D 2"
_symmetry_group_IT_number 43
_symmetry_cell_setting 'orthorhombic'
loop_
_space_group_symop_operation_xyz
x,y,z
-x,-y,z
1/4-x,1/4+y,1/4+z
1/4+x,1/4-y,1/4+z
x,1/2+y,1/2+z
-x,1/2-y,1/2+z
1/4-x,3/4+y,3/4+z
1/4+x,3/4-y,3/4+z
1/2+x,y,1/2+z
1/2-x,-y,1/2+z
3/4-x,1/4+y,3/4+z
3/4+x,1/4-y,3/4+z
1/2+x,1/2+y,z
1/2-x,1/2-y,z
3/4-x,3/4+y,1/4+z
3/4+x,3/4-y,1/4+z
loop_
_atom_site_type_symbol
_atom_site_label
_atom_site_fract_x
_atom_site_fract_y
_atom_site_fract_z
Si Si1 0.319045 0.196925 0.932540
Si Si2 0.859572 0.796116 0.532098
Si Si3 0.859639 0.705702 0.128502
Si Si4 0.727784 0.199734 0.771354
Si Si5 0.241715 0.126306 0.034639
Si Si6 0.880426 0.152959 0.292897
O O1 0.250000 0.250000 0.920870
O O2 0.365629 0.171001 0.866278
O O3 0.486776 0.202066 0.978998
O O4 0.197943 0.161294 0.975066
O O5 0.750000 0.750000 0.517174
O O6 0.791984 0.849891 0.535243
O O7 0.945148 0.788527 0.602436
O O8 0.750000 0.750000 0.102639
O O9 0.829247 0.703698 0.203633
O O10 0.788175 0.659073 0.094794
O O11 0.750000 0.250000 0.805259
O O12 0.835347 0.158080 0.804193
O O13 0.524372 0.186992 0.760972
O O14 0.427437 0.099670 0.018853
#
# Coordination Sequence:
#
# PCOD9371203 Si02
#       6
#    16  16  16  16  16  16
#     4  10  22  41  67  95 129 174 213 268 337 379
#     4  10  22  42  67 102 122 166 231 264 322 393
#     4   9  20  41  61  91 122 165 210 257 323 372
#     4  11  25  41  60  94 127 170 213 251 329 390
#     4  10  21  41  66  89 129 165 217 266 317 379
#     4  10  24  41  63  94 132 164 216 264 330 384
#
# _framework density 21.378895
#
# number of rings (size 3 to 8) (size 9 to 14) (size 15 to 20)
#    0.000    2.333    0.000    4.000    7.000    3.333 
#   12.000    0.000    0.000    0.000    0.000    0.000 
#    0.000    0.000    0.000    0.000    0.000    0.000 
#
# Total GULP energy -133808.060334 kJ/mol
# GULP energy per Si atom -5575.335847 kJ/mol
# Density = 2.133024 g / cm^3
# Si number density = 21.378895 Si / 1000 Ang^3
#
#
#
# Elastic Constant Matrix: (Units=GPa)
#
#
# Indices 1 2 3 4 5 6 
#
# 1 46.9725 37.2417 -8.8726 0.0000 0.0000 0.0000
# 2 37.2417 135.3429 4.2632 0.0000 0.0000 0.0000
# 3 -8.8726 4.2632 44.2041 0.0000 0.0000 0.0000
# 4 0.0000 0.0000 0.0000 9.4761 0.0000 0.0000
# 5 0.0000 0.0000 0.0000 0.0000 7.5537 0.0000
# 6 0.0000 0.0000 0.0000 0.0000 0.0000 41.7203
#
#
#
# Elastic Compliance Matrix: (Units=1/GPa)
#
#
# Indices 1 2 3 4 5 6 
#
# 1 0.029040 -0.008199 0.006620 0.000000 0.000000 0.000000
# 2 -0.008199 0.009726 -0.002584 0.000000 0.000000 0.000000
# 3 0.006620 -0.002584 0.024200 0.000000 0.000000 0.000000
# 4 0.000000 0.000000 0.000000 0.105529 0.000000 0.000000
# 5 0.000000 0.000000 0.000000 0.000000 0.132385 0.000000
# 6 0.000000 0.000000 0.000000 0.000000 0.000000 0.023969
#
#
# Mechanical properties :
#
#
# Convention : Reuss Voigt Hill
#
# Bulk Modulus (GPa) = 18.30170 32.42046 25.36108
# Shear Modulus (GPa) = 14.22923 24.67585 19.45254
#
# Velocity S-wave (km/s) = 2.58267 3.40106 3.01972
# Velocity P-wave (km/s) = 4.18005 5.53359 4.90374
#
# Compressibility (1/GPa) = 0.05463973
#
# Stress axis : x y z
#
# Youngs Moduli (GPa) = 34.43496 102.81488 41.32192
#
# Poissons Ratio (x) = 0.84302 -0.27354
# Poissons Ratio (y) = 0.28235 0.10677
# Poissons Ratio (z) = -0.22795 0.26565
#
# Static dielectric constant tensor:
#      x y z
#    x 1.813680 0.000000 0.000000 
#    y 0.000000 1.887600 0.000000 
#    z 0.000000 0.000000 1.769280 
# 
# From -- ./inp_files/16497.got.cif
#   From: 2010.05.17/outbox.cif.g08.bks.cpg/sg43_9_cif.got.tgz:16497.got - 2010.06.03 19:21:55.
