data_PCOD9371799
_publ_section_title
;
Structure prediction by ZEFSAII (Michael W. Deem and Ramdas Pophale) SiO2 
 PCOD9371799
Probable space group: F D D 2
;
_chemical_formula_sum "Si O2"
_cell_formula_units_Z 48
_cell_length_a 17.184163
_cell_length_b 13.673156
_cell_length_c 7.931696
_cell_angle_alpha 90.000000
_cell_angle_beta 90.000000
_cell_angle_gamma 90.000000
_cell_volume 1863.645105
_symmetry_space_group_name_H-M "F D D 2"
_symmetry_group_IT_number 43
_symmetry_cell_setting 'orthorhombic'
loop_
_space_group_symop_operation_xyz
x,y,z
-x,-y,z
1/4-x,1/4+y,1/4+z
1/4+x,1/4-y,1/4+z
x,1/2+y,1/2+z
-x,1/2-y,1/2+z
1/4-x,3/4+y,3/4+z
1/4+x,3/4-y,3/4+z
1/2+x,y,1/2+z
1/2-x,-y,1/2+z
3/4-x,1/4+y,3/4+z
3/4+x,1/4-y,3/4+z
1/2+x,1/2+y,z
1/2-x,1/2-y,z
3/4-x,3/4+y,1/4+z
3/4+x,3/4-y,1/4+z
loop_
_atom_site_type_symbol
_atom_site_label
_atom_site_fract_x
_atom_site_fract_y
_atom_site_fract_z
Si Si1 0.408486 0.318845 0.590390
Si Si2 0.500000 0.500000 0.656343
Si Si3 0.242524 0.900064 0.667308
Si Si4 0.000000 0.000000 0.193757
O O1 0.446003 0.425462 0.553284
O O2 0.426356 0.312923 0.789863
O O3 0.457966 0.238160 0.491018
O O4 0.320166 0.305974 0.535659
O O5 0.539137 0.423806 0.790352
O O6 0.214398 0.833414 0.821368
#
# Coordination Sequence:
#
# PCOD9371799 Si02
#       4
#    16   8  16   8
#     4  10  22  51  91 120 175 238 290 374 453 531
#     4   7  20  48  85 115 167 226 290 351 445 534
#     4   9  22  50  85 120 179 229 295 357 462 540
#     4  11  24  50  91 135 175 230 308 385 435 532
#
# _framework density 25.755976
#
# number of rings (size 3 to 8) (size 9 to 14) (size 15 to 20)
#    2.000    0.667    0.000    0.000    0.000    2.667 
#    6.000   18.333    0.000    6.000    0.000    0.000 
#    0.000    0.000    0.000    0.000    0.000    0.000 
#
# Total GULP energy -66986.761918 kJ/mol
# GULP energy per Si atom -5582.230160 kJ/mol
# Density = 2.569735 g / cm^3
# Si number density = 25.755976 Si / 1000 Ang^3
#
#
#
# Elastic Constant Matrix: (Units=GPa)
#
#
# Indices 1 2 3 4 5 6 
#
# 1 160.3791 106.5494 99.7309 0.0000 0.0000 0.0000
# 2 106.5494 217.8069 79.0928 0.0000 0.0000 0.0000
# 3 99.7309 79.0928 140.2123 0.0000 0.0000 0.0000
# 4 0.0000 0.0000 0.0000 36.3185 0.0000 0.0000
# 5 0.0000 0.0000 0.0000 0.0000 29.2573 0.0000
# 6 0.0000 0.0000 0.0000 0.0000 0.0000 43.9743
#
#
#
# Elastic Compliance Matrix: (Units=1/GPa)
#
#
# Indices 1 2 3 4 5 6 
#
# 1 0.013362 -0.003880 -0.007316 0.000000 0.000000 0.000000
# 2 -0.003880 0.006901 -0.001133 0.000000 0.000000 0.000000
# 3 -0.007316 -0.001133 0.012974 0.000000 0.000000 0.000000
# 4 0.000000 0.000000 0.000000 0.027534 0.000000 0.000000
# 5 0.000000 0.000000 0.000000 0.000000 0.034179 0.000000
# 6 0.000000 0.000000 0.000000 0.000000 0.000000 0.022741
#
#
# Mechanical properties :
#
#
# Convention : Reuss Voigt Hill
#
# Bulk Modulus (GPa) = 116.54413 121.01607 118.78010
# Shear Modulus (GPa) = 34.43321 37.44503 35.93912
#
# Velocity S-wave (km/s) = 3.66033 3.81706 3.73952
# Velocity P-wave (km/s) = 7.95058 8.15563 8.05375
#
# Compressibility (1/GPa) = 0.00858044
#
# Stress axis : x y z
#
# Youngs Moduli (GPa) = 74.83801 144.91285 77.07452
#
# Poissons Ratio (x) = 0.56229 0.56384
# Poissons Ratio (y) = 0.29038 0.08730
# Poissons Ratio (z) = 0.54748 0.16415
#
# Static dielectric constant tensor:
#      x y z
#    x 1.965010 0.000000 0.000000 
#    y 0.000000 2.036630 0.000000 
#    z 0.000000 0.000000 2.153280 
# 
# From -- ./inp_files/2095.got.cif
#   From: 2010.05.17/outbox.cif.g08.bks.cpg/sg43_2_cif.got.tgz:2095.got - 2010.06.03 19:21:55.
