data_PCOD9371869
_publ_section_title
;
Structure prediction by ZEFSAII (Michael W. Deem and Ramdas Pophale) SiO2 
 PCOD9371869
Probable space group: F D D 2
;
_chemical_formula_sum "Si O2"
_cell_formula_units_Z 104
_cell_length_a 16.939385
_cell_length_b 21.085473
_cell_length_c 11.080138
_cell_angle_alpha 90.000000
_cell_angle_beta 90.000000
_cell_angle_gamma 90.000000
_cell_volume 3957.547681
_symmetry_space_group_name_H-M "F D D 2"
_symmetry_group_IT_number 43
_symmetry_cell_setting 'orthorhombic'
loop_
_space_group_symop_operation_xyz
x,y,z
-x,-y,z
1/4-x,1/4+y,1/4+z
1/4+x,1/4-y,1/4+z
x,1/2+y,1/2+z
-x,1/2-y,1/2+z
1/4-x,3/4+y,3/4+z
1/4+x,3/4-y,3/4+z
1/2+x,y,1/2+z
1/2-x,-y,1/2+z
3/4-x,1/4+y,3/4+z
3/4+x,1/4-y,3/4+z
1/2+x,1/2+y,z
1/2-x,1/2-y,z
3/4-x,3/4+y,1/4+z
3/4+x,3/4-y,1/4+z
loop_
_atom_site_type_symbol
_atom_site_label
_atom_site_fract_x
_atom_site_fract_y
_atom_site_fract_z
Si Si1 0.188222 0.924771 0.543580
Si Si2 0.145696 0.810940 0.305608
Si Si3 0.500000 0.000000 0.516318
Si Si4 0.390193 0.952181 0.312731
Si Si5 0.434056 0.632059 0.995188
Si Si6 0.723788 0.386183 0.096974
Si Si7 0.529191 0.232544 0.046716
O O1 0.124767 0.872124 0.582596
O O2 0.264275 0.902100 0.625901
O O3 0.210272 0.931881 0.402477
O O4 0.145661 0.992506 0.549203
O O5 0.187019 0.804328 0.437283
O O6 0.202948 0.832211 0.197181
O O7 0.066901 0.857291 0.317864
O O8 0.569762 0.018915 0.427069
O O9 0.471789 0.069867 0.561458
O O10 0.313728 0.992835 0.290494
O O11 0.339805 0.619298 0.988905
O O12 0.435414 0.698688 0.066618
O O13 0.699533 0.450387 0.169972
#
# Coordination Sequence:
#
# PCOD9371869 Si02
#       7
#    16  16   8  16  16  16  16
#     4  11  22  43  72 100 140 194 248 303 375 442
#     4  11  23  46  71 105 147 194 250 305 381 455
#     4  10  26  44  64 114 138 182 252 302 376 454
#     4  10  23  43  68 100 137 184 248 306 364 440
#     4  11  24  46  70 106 143 194 242 314 379 456
#     4  11  24  46  70 106 148 196 249 306 390 456
#     4  11  23  45  70 100 147 196 242 311 380 443
#
# _framework density 26.278901000000001
#
# number of rings (size 3 to 8) (size 9 to 14) (size 15 to 20)
#    0.000    1.231    6.154    0.000    2.154    2.462 
#   11.077    3.077    0.000    0.000    0.000    0.000 
#    0.000    0.000    0.000    0.000    0.000    0.000 
#
# Total GULP energy -144788.971560 kJ/mol
# GULP energy per Si atom -5568.806598 kJ/mol
# Density = 2.621909 g / cm^3
# Si number density = 26.278901 Si / 1000 Ang^3
#
#
#
# Elastic Constant Matrix: (Units=GPa)
#
#
# Indices 1 2 3 4 5 6 
#
# 1 67.1340 26.0751 20.8368 0.0000 0.0000 0.0000
# 2 26.0751 131.3309 26.2510 0.0000 0.0000 0.0000
# 3 20.8368 26.2510 53.7417 0.0000 0.0000 0.0000
# 4 0.0000 0.0000 0.0000 35.2408 0.0000 0.0000
# 5 0.0000 0.0000 0.0000 0.0000 41.4658 0.0000
# 6 0.0000 0.0000 0.0000 0.0000 0.0000 32.6437
#
#
#
# Elastic Compliance Matrix: (Units=1/GPa)
#
#
# Indices 1 2 3 4 5 6 
#
# 1 0.017568 -0.002357 -0.005660 0.000000 0.000000 0.000000
# 2 -0.002357 0.008754 -0.003362 0.000000 0.000000 0.000000
# 3 -0.005660 -0.003362 0.022445 0.000000 0.000000 0.000000
# 4 0.000000 0.000000 0.000000 0.028376 0.000000 0.000000
# 5 0.000000 0.000000 0.000000 0.000000 0.024116 0.000000
# 6 0.000000 0.000000 0.000000 0.000000 0.000000 0.030634
#
#
# Mechanical properties :
#
#
# Convention : Reuss Voigt Hill
#
# Bulk Modulus (GPa) = 38.44979 44.28139 41.36559
# Shear Modulus (GPa) = 30.61459 33.80632 32.21045
#
# Velocity S-wave (km/s) = 3.41689 3.59059 3.50482
# Velocity P-wave (km/s) = 5.49819 5.83755 5.67041
#
# Compressibility (1/GPa) = 0.02600795
#
# Stress axis : x y z
#
# Youngs Moduli (GPa) = 56.92262 114.22889 44.55420
#
# Poissons Ratio (x) = 0.26919 0.25219
# Poissons Ratio (y) = 0.13414 0.14981
# Poissons Ratio (z) = 0.32220 0.38409
#
# Static dielectric constant tensor:
#      x y z
#    x 2.048200 0.000000 0.000000 
#    y 0.000000 2.186550 0.000000 
#    z 0.000000 0.000000 2.228570 
# 
# From -- ./inp_files/10638.got.cif
#   From: 2010.05.17/outbox.cif.g08.bks.cpg/sg43_6_cif.got.tgz:10638.got - 2010.06.03 19:21:55.
