data_PCOD9371887
_publ_section_title
;
Structure prediction by ZEFSAII (Michael W. Deem and Ramdas Pophale) SiO2 
 PCOD9371887
Probable space group: F D D 2
;
_chemical_formula_sum "Si O2"
_cell_formula_units_Z 120
_cell_length_a 11.057588
_cell_length_b 27.472576
_cell_length_c 17.432732
_cell_angle_alpha 90.000000
_cell_angle_beta 90.000000
_cell_angle_gamma 90.000000
_cell_volume 5295.722766
_symmetry_space_group_name_H-M "F D D 2"
_symmetry_group_IT_number 43
_symmetry_cell_setting 'orthorhombic'
loop_
_space_group_symop_operation_xyz
x,y,z
-x,-y,z
1/4-x,1/4+y,1/4+z
1/4+x,1/4-y,1/4+z
x,1/2+y,1/2+z
-x,1/2-y,1/2+z
1/4-x,3/4+y,3/4+z
1/4+x,3/4-y,3/4+z
1/2+x,y,1/2+z
1/2-x,-y,1/2+z
3/4-x,1/4+y,3/4+z
3/4+x,1/4-y,3/4+z
1/2+x,1/2+y,z
1/2-x,1/2-y,z
3/4-x,3/4+y,1/4+z
3/4+x,3/4-y,1/4+z
loop_
_atom_site_type_symbol
_atom_site_label
_atom_site_fract_x
_atom_site_fract_y
_atom_site_fract_z
Si Si1 0.223711 0.997625 0.177640
Si Si2 0.329848 0.425237 0.797199
Si Si3 0.679355 0.575391 0.087374
Si Si4 0.588096 0.314882 0.057004
Si Si5 0.250000 0.250000 0.668005
Si Si6 0.826111 0.085064 0.447047
Si Si7 0.172575 0.683222 0.631995
Si Si8 0.591389 0.931775 0.556035
O O1 0.293434 0.968076 0.240752
O O2 0.173736 0.958451 0.117755
O O3 0.278115 0.038725 0.121936
O O4 0.140858 0.034293 0.229124
O O5 0.355967 0.379808 0.739794
O O6 0.223851 0.412725 0.859314
O O7 0.449180 0.444652 0.842411
O O8 0.684760 0.624657 0.134396
O O9 0.543343 0.557196 0.084798
O O10 0.706579 0.583930 0.998665
O O11 0.671981 0.288134 0.118271
O O12 0.447314 0.308549 0.081434
O O13 0.611489 0.373000 0.055570
O O14 0.345803 0.286043 0.707527
O O15 0.148674 0.700554 0.718531
#
# Coordination Sequence:
#
# PCOD9371887 Si02
#       8
#    16  16  16  16   8  16  16  16
#     4  12  25  42  69 111 146 193 245 309 381 446
#     4  11  25  49  75 109 151 199 245 315 386 461
#     4  10  23  43  73 108 141 191 250 311 366 447
#     4  11  26  45  72 107 144 196 246 315 374 454
#     4  12  26  46  66 102 150 192 250 306 378 452
#     4  11  25  46  75 104 150 198 249 313 384 449
#     4  10  23  47  77 101 148 192 251 306 384 444
#     4  11  23  44  76 108 142 194 253 314 366 456
#
# _framework density 22.659796
#
# number of rings (size 3 to 8) (size 9 to 14) (size 15 to 20)
#    0.000    1.067    4.000    1.200    3.733    1.600 
#    9.600    0.000    0.000    0.000    0.000    0.000 
#    0.000    0.000    0.000    0.000    0.000    0.000 
#
# Total GULP energy -167305.913618 kJ/mol
# GULP energy per Si atom -5576.863787 kJ/mol
# Density = 2.260822 g / cm^3
# Si number density = 22.659796 Si / 1000 Ang^3
#
#
#
# Elastic Constant Matrix: (Units=GPa)
#
#
# Indices 1 2 3 4 5 6 
#
# 1 43.3173 38.2827 30.3315 0.0000 0.0000 0.0000
# 2 38.2827 106.9805 57.4213 0.0000 0.0000 0.0000
# 3 30.3315 57.4213 135.2185 0.0000 0.0000 0.0000
# 4 0.0000 0.0000 0.0000 42.3157 0.0000 0.0000
# 5 0.0000 0.0000 0.0000 0.0000 6.4864 0.0000
# 6 0.0000 0.0000 0.0000 0.0000 0.0000 6.2481
#
#
#
# Elastic Compliance Matrix: (Units=1/GPa)
#
#
# Indices 1 2 3 4 5 6 
#
# 1 0.034842 -0.010716 -0.003265 0.000000 0.000000 0.000000
# 2 -0.010716 0.015403 -0.004137 0.000000 0.000000 0.000000
# 3 -0.003265 -0.004137 0.009885 0.000000 0.000000 0.000000
# 4 0.000000 0.000000 0.000000 0.023632 0.000000 0.000000
# 5 0.000000 0.000000 0.000000 0.000000 0.154168 0.000000
# 6 0.000000 0.000000 0.000000 0.000000 0.000000 0.160050
#
#
# Mechanical properties :
#
#
# Convention : Reuss Voigt Hill
#
# Bulk Modulus (GPa) = 41.85223 59.73191 50.79207
# Shear Modulus (GPa) = 11.30764 21.64209 16.47486
#
# Velocity S-wave (km/s) = 2.23629 3.09380 2.69932
# Velocity P-wave (km/s) = 5.01776 6.25937 5.67264
#
# Compressibility (1/GPa) = 0.02389359
#
# Stress axis : x y z
#
# Youngs Moduli (GPa) = 28.70105 64.92394 101.16623
#
# Poissons Ratio (x) = 0.69570 0.33032
# Poissons Ratio (y) = 0.30755 0.41854
# Poissons Ratio (z) = 0.09371 0.26860
#
# Static dielectric constant tensor:
#      x y z
#    x 1.859990 0.000000 0.000000 
#    y 0.000000 1.936100 0.000000 
#    z 0.000000 0.000000 1.915480 
# 
# From -- ./inp_files/13547.got.cif
#   From: 2010.05.17/outbox.cif.g08.bks.cpg/sg43_7_cif.got.tgz:13547.got - 2010.06.03 19:21:55.
