data_PCOD9371350
_publ_section_title
;
Structure prediction by ZEFSAII (Michael W. Deem and Ramdas Pophale) SiO2 
 PCOD9371350
Probable space group: F D D 2
;
_chemical_formula_sum "Si O2"
_cell_formula_units_Z 56
_cell_length_a 9.438543
_cell_length_b 17.088845
_cell_length_c 13.644570
_cell_angle_alpha 90.000000
_cell_angle_beta 90.000000
_cell_angle_gamma 90.000000
_cell_volume 2200.784522
_symmetry_space_group_name_H-M "F D D 2"
_symmetry_group_IT_number 43
_symmetry_cell_setting 'orthorhombic'
loop_
_space_group_symop_operation_xyz
x,y,z
-x,-y,z
1/4-x,1/4+y,1/4+z
1/4+x,1/4-y,1/4+z
x,1/2+y,1/2+z
-x,1/2-y,1/2+z
1/4-x,3/4+y,3/4+z
1/4+x,3/4-y,3/4+z
1/2+x,y,1/2+z
1/2-x,-y,1/2+z
3/4-x,1/4+y,3/4+z
3/4+x,1/4-y,3/4+z
1/2+x,1/2+y,z
1/2-x,1/2-y,z
3/4-x,3/4+y,1/4+z
3/4+x,3/4-y,1/4+z
loop_
_atom_site_type_symbol
_atom_site_label
_atom_site_fract_x
_atom_site_fract_y
_atom_site_fract_z
Si Si1 0.250000 0.750000 0.613940
Si Si2 0.911440 0.223991 0.367529
Si Si3 0.634258 0.848406 0.293490
Si Si4 0.664074 0.674797 0.477963
O O1 0.327528 0.690522 0.690012
O O2 0.158625 0.688852 0.550451
O O3 0.750000 0.250000 0.370741
O O4 0.926438 0.152264 0.291553
O O5 0.004824 0.296505 0.331512
O O6 0.998993 0.192560 0.461338
O O7 0.762068 0.838253 0.371584
O O8 0.750000 0.750000 0.520073
#
# Coordination Sequence:
#
# PCOD9371350 Si02
#       4
#     8  16  16  16
#     4  12  24  48  84 112 154 208 268 318 402 468
#     4  11  24  44  72 114 149 196 262 320 387 462
#     4  11  22  48  78 108 153 207 255 325 387 478
#     4  10  21  46  75 103 154 202 254 317 397 461
#
# _framework density 25.445471999999999
#
# number of rings (size 3 to 8) (size 9 to 14) (size 15 to 20)
#    0.000    1.143    7.143    0.000    0.000    3.429 
#   18.000    0.000    0.000    0.000    0.000    0.000 
#    0.000    0.000    0.000    0.000    0.000    0.000 
#
# Total GULP energy -78459.346320 kJ/mol
# GULP energy per Si atom -5604.239023 kJ/mol
# Density = 2.538756 g / cm^3
# Si number density = 25.445472 Si / 1000 Ang^3
#
#
#
# Elastic Constant Matrix: (Units=GPa)
#
#
# Indices 1 2 3 4 5 6 
#
# 1 181.6776 78.1028 37.4649 0.0000 0.0000 0.0000
# 2 78.1028 241.0287 77.7676 0.0000 0.0000 0.0000
# 3 37.4649 77.7676 76.9627 0.0000 0.0000 0.0000
# 4 0.0000 0.0000 0.0000 59.9307 0.0000 0.0000
# 5 0.0000 0.0000 0.0000 0.0000 17.9057 0.0000
# 6 0.0000 0.0000 0.0000 0.0000 0.0000 51.9909
#
#
#
# Elastic Compliance Matrix: (Units=1/GPa)
#
#
# Indices 1 2 3 4 5 6 
#
# 1 0.006516 -0.001614 -0.001541 0.000000 0.000000 0.000000
# 2 -0.001614 0.006556 -0.005838 0.000000 0.000000 0.000000
# 3 -0.001541 -0.005838 0.019643 0.000000 0.000000 0.000000
# 4 0.000000 0.000000 0.000000 0.016686 0.000000 0.000000
# 5 0.000000 0.000000 0.000000 0.000000 0.055848 0.000000
# 6 0.000000 0.000000 0.000000 0.000000 0.000000 0.019234
#
#
# Mechanical properties :
#
#
# Convention : Reuss Voigt Hill
#
# Bulk Modulus (GPa) = 67.89999 98.48216 83.19107
# Shear Modulus (GPa) = 33.92609 46.38770 40.15689
#
# Velocity S-wave (km/s) = 3.65538 4.27432 3.97691
# Velocity P-wave (km/s) = 6.67519 7.94651 7.33843
#
# Compressibility (1/GPa) = 0.01472754
#
# Stress axis : x y z
#
# Youngs Moduli (GPa) = 153.46905 152.53742 50.90902
#
# Poissons Ratio (x) = 0.24624 0.07844
# Poissons Ratio (y) = 0.24775 0.29723
# Poissons Ratio (z) = 0.23645 0.89059
#
# Static dielectric constant tensor:
#      x y z
#    x 2.004370 0.000000 0.000000 
#    y 0.000000 1.980450 0.000000 
#    z 0.000000 0.000000 2.086620 
# 
# From -- ./inp_files/10805.got.cif
#   From: 2010.05.17/outbox.cif.g08.bks.cpg/sg43_6_cif.got.tgz:10805.got - 2010.06.03 19:21:55.
