data_PCOD9371185
_publ_section_title
;
Structure prediction by ZEFSAII (Michael W. Deem and Ramdas Pophale) SiO2 
 PCOD9371185
Probable space group: F D D 2
;
_chemical_formula_sum "Si O2"
_cell_formula_units_Z 112
_cell_length_a 31.990406
_cell_length_b 14.067592
_cell_length_c 10.031176
_cell_angle_alpha 90.000000
_cell_angle_beta 90.000000
_cell_angle_gamma 90.000000
_cell_volume 4514.309868
_symmetry_space_group_name_H-M "F D D 2"
_symmetry_group_IT_number 43
_symmetry_cell_setting 'orthorhombic'
loop_
_space_group_symop_operation_xyz
x,y,z
-x,-y,z
1/4-x,1/4+y,1/4+z
1/4+x,1/4-y,1/4+z
x,1/2+y,1/2+z
-x,1/2-y,1/2+z
1/4-x,3/4+y,3/4+z
1/4+x,3/4-y,3/4+z
1/2+x,y,1/2+z
1/2-x,-y,1/2+z
3/4-x,1/4+y,3/4+z
3/4+x,1/4-y,3/4+z
1/2+x,1/2+y,z
1/2-x,1/2-y,z
3/4-x,3/4+y,1/4+z
3/4+x,3/4-y,1/4+z
loop_
_atom_site_type_symbol
_atom_site_label
_atom_site_fract_x
_atom_site_fract_y
_atom_site_fract_z
Si Si1 0.563588 0.645712 0.829210
Si Si2 0.890211 0.995147 0.617649
Si Si3 0.913085 0.727872 0.405114
Si Si4 0.250000 0.750000 0.004825
Si Si5 0.232472 0.543863 0.883184
Si Si6 0.800664 0.895770 0.904895
Si Si7 0.250000 0.250000 0.080950
Si Si8 0.838093 0.189730 0.093037
O O1 0.588097 0.578493 0.719402
O O2 0.598042 0.703306 0.912661
O O3 0.538230 0.728655 0.750692
O O4 0.534697 0.566091 0.902139
O O5 0.921668 0.078053 0.565371
O O6 0.883699 0.944669 0.476722
O O7 0.949522 0.705076 0.511643
O O8 0.917344 0.663900 0.276039
O O9 0.868305 0.720451 0.473974
O O10 0.922438 0.829310 0.342145
O O11 0.243087 0.650792 0.926191
O O12 0.207095 0.761855 0.086654
O O13 0.274383 0.483241 0.848674
O O14 0.768728 0.826314 0.979455
#
# Coordination Sequence:
#
# PCOD9371185 Si02
#       8
#    16  16  16   8  16  16   8  16
#     4  10  21  40  71 101 137 180 243 296 355 430
#     4  11  22  41  71 107 135 192 236 300 359 442
#     4  12  25  47  72 104 152 188 245 313 377 440
#     4  12  28  44  74 106 142 196 252 290 388 448
#     4  11  23  46  67 104 144 191 241 304 372 444
#     4  10  24  43  70 105 147 188 244 307 370 445
#     4   8  20  42  64  94 142 182 222 298 360 424
#     4  12  25  44  72 108 143 194 242 315 371 450
#
# _framework density 24.809992999999999
#
# number of rings (size 3 to 8) (size 9 to 14) (size 15 to 20)
#    0.000    1.143    4.286    0.857    4.000    3.429 
#    2.571    0.000    0.000    0.000    0.000    0.000 
#    0.000    0.000    0.000    0.000    0.000    0.000 
#
# Total GULP energy -156339.672454 kJ/mol
# GULP energy per Si atom -5583.559731 kJ/mol
# Density = 2.475352 g / cm^3
# Si number density = 24.809993 Si / 1000 Ang^3
#
#
#
# Elastic Constant Matrix: (Units=GPa)
#
#
# Indices 1 2 3 4 5 6 
#
# 1 120.5640 41.1237 35.2737 0.0000 0.0000 0.0000
# 2 41.1237 152.0327 19.2217 0.0000 0.0000 0.0000
# 3 35.2737 19.2217 47.0106 0.0000 0.0000 0.0000
# 4 0.0000 0.0000 0.0000 16.6950 0.0000 0.0000
# 5 0.0000 0.0000 0.0000 0.0000 18.2046 0.0000
# 6 0.0000 0.0000 0.0000 0.0000 0.0000 98.6842
#
#
#
# Elastic Compliance Matrix: (Units=1/GPa)
#
#
# Indices 1 2 3 4 5 6 
#
# 1 0.011217 -0.002077 -0.007567 0.000000 0.000000 0.000000
# 2 -0.002077 0.007321 -0.001435 0.000000 0.000000 0.000000
# 3 -0.007567 -0.001435 0.027536 0.000000 0.000000 0.000000
# 4 0.000000 0.000000 0.000000 0.059898 0.000000 0.000000
# 5 0.000000 0.000000 0.000000 0.000000 0.054931 0.000000
# 6 0.000000 0.000000 0.000000 0.000000 0.000000 0.010133
#
#
# Mechanical properties :
#
#
# Convention : Reuss Voigt Hill
#
# Bulk Modulus (GPa) = 41.81326 56.76063 49.28695
# Shear Modulus (GPa) = 24.85505 41.64931 33.25218
#
# Velocity S-wave (km/s) = 3.16858 4.10168 3.66495
# Velocity P-wave (km/s) = 5.50241 6.73494 6.14963
#
# Compressibility (1/GPa) = 0.02391586
#
# Stress axis : x y z
#
# Youngs Moduli (GPa) = 89.15184 136.59665 36.31590
#
# Poissons Ratio (x) = 0.28376 0.27480
# Poissons Ratio (y) = 0.18520 0.05210
# Poissons Ratio (z) = 0.67461 0.19596
#
# Static dielectric constant tensor:
#      x y z
#    x 2.065280 0.000000 0.000000 
#    y 0.000000 1.987440 0.000000 
#    z 0.000000 0.000000 1.920750 
# 
# From -- ./inp_files/8327.got.cif
#   From: 2010.05.17/outbox.cif.g08.bks.cpg/sg43_5_cif.got.tgz:8327.got - 2010.06.03 19:21:55.
