data_PCOD9371290
_publ_section_title
;
Structure prediction by ZEFSAII (Michael W. Deem and Ramdas Pophale) SiO2 
 PCOD9371290
Probable space group: F D D 2
;
_chemical_formula_sum "Si O2"
_cell_formula_units_Z 104
_cell_length_a 10.335504
_cell_length_b 25.457780
_cell_length_c 16.837113
_cell_angle_alpha 90.000000
_cell_angle_beta 90.000000
_cell_angle_gamma 90.000000
_cell_volume 4430.164117
_symmetry_space_group_name_H-M "F D D 2"
_symmetry_group_IT_number 43
_symmetry_cell_setting 'orthorhombic'
loop_
_space_group_symop_operation_xyz
x,y,z
-x,-y,z
1/4-x,1/4+y,1/4+z
1/4+x,1/4-y,1/4+z
x,1/2+y,1/2+z
-x,1/2-y,1/2+z
1/4-x,3/4+y,3/4+z
1/4+x,3/4-y,3/4+z
1/2+x,y,1/2+z
1/2-x,-y,1/2+z
3/4-x,1/4+y,3/4+z
3/4+x,1/4-y,3/4+z
1/2+x,1/2+y,z
1/2-x,1/2-y,z
3/4-x,3/4+y,1/4+z
3/4+x,3/4-y,1/4+z
loop_
_atom_site_type_symbol
_atom_site_label
_atom_site_fract_x
_atom_site_fract_y
_atom_site_fract_z
Si Si1 0.275435 0.528069 0.879030
Si Si2 0.669744 0.356718 0.106223
Si Si3 0.500000 0.500000 0.335043
Si Si4 0.855951 0.511302 0.204235
Si Si5 0.308400 0.799027 0.770453
Si Si6 0.126405 0.876996 0.669168
Si Si7 0.340851 0.397124 0.736240
O O1 0.224239 0.587852 0.878410
O O2 0.355142 0.522415 0.798615
O O3 0.360127 0.517903 0.954284
O O4 0.139813 0.496439 0.878258
O O5 0.726714 0.309014 0.051035
O O6 0.751675 0.357515 0.187017
O O7 0.655530 0.412068 0.065016
O O8 0.806704 0.564876 0.164656
O O9 0.792031 0.454190 0.205571
O O10 0.000000 0.500000 0.172982
O O11 0.250000 0.750000 0.819782
O O12 0.211658 0.837910 0.722342
O O13 0.093445 0.856548 0.581130
O O14 0.988728 0.887729 0.710513
#
# Coordination Sequence:
#
# PCOD9371290 Si02
#       7
#    16  16   8  16  16  16  16
#     4  10  21  43  69  96 141 189 241 288 370 444
#     4  10  25  45  65 106 140 186 245 307 370 437
#     4   8  22  42  66  90 138 192 236 286 364 448
#     4  10  21  44  67 101 136 187 240 297 360 444
#     4  12  25  42  75 108 147 189 246 310 370 443
#     4  11  24  46  71 104 142 193 240 296 366 447
#     4  11  26  41  73 102 142 184 245 300 367 433
#
# _framework density 23.475428000000001
#
# number of rings (size 3 to 8) (size 9 to 14) (size 15 to 20)
#    0.923    0.615    1.538    3.231    6.462    1.231 
#    4.154    0.000    0.000    0.000    0.000    0.000 
#    0.000    0.000    0.000    0.000    0.000    0.000 
#
# Total GULP energy -144796.243655 kJ/mol
# GULP energy per Si atom -5569.086294 kJ/mol
# Density = 2.342200 g / cm^3
# Si number density = 23.475428 Si / 1000 Ang^3
#
#
#
# Elastic Constant Matrix: (Units=GPa)
#
#
# Indices 1 2 3 4 5 6 
#
# 1 59.0399 23.9568 13.2697 0.0000 0.0000 0.0000
# 2 23.9568 151.8750 36.1083 0.0000 0.0000 0.0000
# 3 13.2697 36.1083 60.8520 0.0000 0.0000 0.0000
# 4 0.0000 0.0000 0.0000 20.9027 0.0000 0.0000
# 5 0.0000 0.0000 0.0000 0.0000 22.5879 0.0000
# 6 0.0000 0.0000 0.0000 0.0000 0.0000 36.1380
#
#
#
# Elastic Compliance Matrix: (Units=1/GPa)
#
#
# Indices 1 2 3 4 5 6 
#
# 1 0.018463 -0.002276 -0.002675 0.000000 0.000000 0.000000
# 2 -0.002276 0.007946 -0.004219 0.000000 0.000000 0.000000
# 3 -0.002675 -0.004219 0.019520 0.000000 0.000000 0.000000
# 4 0.000000 0.000000 0.000000 0.047841 0.000000 0.000000
# 5 0.000000 0.000000 0.000000 0.000000 0.044271 0.000000
# 6 0.000000 0.000000 0.000000 0.000000 0.000000 0.027672
#
#
# Mechanical properties :
#
#
# Convention : Reuss Voigt Hill
#
# Bulk Modulus (GPa) = 36.24740 46.49295 41.37018
# Shear Modulus (GPa) = 25.87320 29.15454 27.51387
#
# Velocity S-wave (km/s) = 3.32345 3.52791 3.42720
# Velocity P-wave (km/s) = 5.49556 6.03679 5.77252
#
# Compressibility (1/GPa) = 0.02758819
#
# Stress axis : x y z
#
# Youngs Moduli (GPa) = 54.16342 125.84226 51.22917
#
# Poissons Ratio (x) = 0.28645 0.13706
# Poissons Ratio (y) = 0.12329 0.21613
# Poissons Ratio (z) = 0.14491 0.53091
#
# Static dielectric constant tensor:
#      x y z
#    x 1.898130 0.000000 0.000000 
#    y 0.000000 2.039390 0.000000 
#    z 0.000000 0.000000 1.860100 
# 
# From -- ./inp_files/13442.got.cif
#   From: 2010.05.17/outbox.cif.g08.bks.cpg/sg43_7_cif.got.tgz:13442.got - 2010.06.03 19:21:55.
