data_PCOD9371013
_publ_section_title
;
Structure prediction by ZEFSAII (Michael W. Deem and Ramdas Pophale) SiO2 
 PCOD9371013
Probable space group: F D D 2
;
_chemical_formula_sum "Si O2"
_cell_formula_units_Z 80
_cell_length_a 5.734965
_cell_length_b 39.175078
_cell_length_c 18.662969
_cell_angle_alpha 90.000000
_cell_angle_beta 90.000000
_cell_angle_gamma 90.000000
_cell_volume 4192.966343
_symmetry_space_group_name_H-M "F D D 2"
_symmetry_group_IT_number 43
_symmetry_cell_setting 'orthorhombic'
loop_
_space_group_symop_operation_xyz
x,y,z
-x,-y,z
1/4-x,1/4+y,1/4+z
1/4+x,1/4-y,1/4+z
x,1/2+y,1/2+z
-x,1/2-y,1/2+z
1/4-x,3/4+y,3/4+z
1/4+x,3/4-y,3/4+z
1/2+x,y,1/2+z
1/2-x,-y,1/2+z
3/4-x,1/4+y,3/4+z
3/4+x,1/4-y,3/4+z
1/2+x,1/2+y,z
1/2-x,1/2-y,z
3/4-x,3/4+y,1/4+z
3/4+x,3/4-y,1/4+z
loop_
_atom_site_type_symbol
_atom_site_label
_atom_site_fract_x
_atom_site_fract_y
_atom_site_fract_z
Si Si1 0.156567 0.571217 0.747600
Si Si2 0.927523 0.108361 0.631568
Si Si3 0.750000 0.250000 0.629891
Si Si4 0.189224 0.869255 0.228398
Si Si5 0.845329 0.323365 0.647182
Si Si6 0.750000 0.250000 0.044154
O O1 0.278644 0.580067 0.672791
O O2 0.340855 0.570526 0.812898
O O3 0.992378 0.603734 0.762027
O O4 0.024852 0.535251 0.750618
O O5 0.915138 0.106482 0.546416
O O6 0.180774 0.108835 0.667590
O O7 0.836866 0.146050 0.653429
O O8 0.766964 0.285979 0.670834
O O9 0.498338 0.252439 0.587582
O O10 0.065975 0.837426 0.190605
#
# Coordination Sequence:
#
# PCOD9371013 Si02
#       6
#    16  16   8  16  16   8
#     4  10  21  36  60  95 119 161 212 260 309 373
#     4  11  21  36  61  90 126 159 209 257 313 364
#     4  10  22  38  64  95 125 162 214 262 312 376
#     4  11  21  36  61  90 126 159 209 257 313 364
#     4  10  21  36  60  95 119 161 212 260 309 373
#     4  10  22  38  64  95 125 162 214 262 312 376
#
# _framework density 19.07957
#
# number of rings (size 3 to 8) (size 9 to 14) (size 15 to 20)
#    0.000    1.600    4.000    1.200    5.600    0.000 
#    0.000    0.000    0.000    7.200    0.000    0.000 
#    0.000    0.000    0.000    0.000    0.000    0.000 
#
# Total GULP energy -111392.559757 kJ/mol
# GULP energy per Si atom -5569.627988 kJ/mol
# Density = 1.903614 g / cm^3
# Si number density = 19.079570 Si / 1000 Ang^3
#
#
#
# Elastic Constant Matrix: (Units=GPa)
#
#
# Indices 1 2 3 4 5 6 
#
# 1 56.9677 17.8580 4.1263 0.0000 0.0000 0.0000
# 2 17.8580 108.0246 14.2568 0.0000 0.0000 0.0000
# 3 4.1263 14.2568 66.0251 0.0000 0.0000 0.0000
# 4 0.0000 0.0000 0.0000 24.6958 0.0000 0.0000
# 5 0.0000 0.0000 0.0000 0.0000 23.9569 0.0000
# 6 0.0000 0.0000 0.0000 0.0000 0.0000 29.3721
#
#
#
# Elastic Compliance Matrix: (Units=1/GPa)
#
#
# Indices 1 2 3 4 5 6 
#
# 1 0.018530 -0.002996 -0.000511 0.000000 0.000000 0.000000
# 2 -0.002996 0.010013 -0.001975 0.000000 0.000000 0.000000
# 3 -0.000511 -0.001975 0.015604 0.000000 0.000000 0.000000
# 4 0.000000 0.000000 0.000000 0.040493 0.000000 0.000000
# 5 0.000000 0.000000 0.000000 0.000000 0.041742 0.000000
# 6 0.000000 0.000000 0.000000 0.000000 0.000000 0.034046
#
#
# Mechanical properties :
#
#
# Convention : Reuss Voigt Hill
#
# Bulk Modulus (GPa) = 30.13552 33.72217 31.92885
# Shear Modulus (GPa) = 27.40444 28.59005 27.99724
#
# Velocity S-wave (km/s) = 3.79400 3.87520 3.83481
# Velocity P-wave (km/s) = 5.91790 6.14294 6.03147
#
# Compressibility (1/GPa) = 0.03318343
#
# Stress axis : x y z
#
# Youngs Moduli (GPa) = 53.96672 99.86977 64.08553
#
# Poissons Ratio (x) = 0.29919 0.03276
# Poissons Ratio (y) = 0.16167 0.12656
# Poissons Ratio (z) = 0.02759 0.19723
#
# Static dielectric constant tensor:
#      x y z
#    x 1.752190 0.000000 0.000000 
#    y 0.000000 1.644540 0.000000 
#    z 0.000000 0.000000 1.649910 
# 
# From -- ./inp_files/19519.got.cif
#   From: 2010.05.17/outbox.cif.g08.bks.cpg/sg43_10_cif.got.tgz:19519.got - 2010.06.03 19:21:55.
