data_PCOD9371831
_publ_section_title
;
Structure prediction by ZEFSAII (Michael W. Deem and Ramdas Pophale) SiO2 
 PCOD9371831
Probable space group: F D D 2
;
_chemical_formula_sum "Si O2"
_cell_formula_units_Z 88
_cell_length_a 18.846690
_cell_length_b 12.534442
_cell_length_c 14.604649
_cell_angle_alpha 90.000000
_cell_angle_beta 90.000000
_cell_angle_gamma 90.000000
_cell_volume 3450.096289
_symmetry_space_group_name_H-M "F D D 2"
_symmetry_group_IT_number 43
_symmetry_cell_setting 'orthorhombic'
loop_
_space_group_symop_operation_xyz
x,y,z
-x,-y,z
1/4-x,1/4+y,1/4+z
1/4+x,1/4-y,1/4+z
x,1/2+y,1/2+z
-x,1/2-y,1/2+z
1/4-x,3/4+y,3/4+z
1/4+x,3/4-y,3/4+z
1/2+x,y,1/2+z
1/2-x,-y,1/2+z
3/4-x,1/4+y,3/4+z
3/4+x,1/4-y,3/4+z
1/2+x,1/2+y,z
1/2-x,1/2-y,z
3/4-x,3/4+y,1/4+z
3/4+x,3/4-y,1/4+z
loop_
_atom_site_type_symbol
_atom_site_label
_atom_site_fract_x
_atom_site_fract_y
_atom_site_fract_z
Si Si1 0.116679 0.407415 0.006720
Si Si2 0.565345 0.079914 0.099407
Si Si3 0.439703 0.805564 0.746161
Si Si4 0.042008 0.893814 0.888540
Si Si5 0.500000 0.000000 0.865262
Si Si6 0.010264 0.731539 0.553207
O O1 0.130742 0.505987 0.072660
O O2 0.078960 0.307931 0.052760
O O3 0.182649 0.366358 0.952179
O O4 0.063081 0.451927 0.928400
O O5 0.554064 0.183980 0.039307
O O6 0.500000 0.000000 0.089462
O O7 0.362737 0.827105 0.698553
O O8 0.441021 0.696914 0.809954
O O9 0.464514 0.904693 0.808315
O O10 0.491430 0.810192 0.656404
O O11 0.000000 0.000000 0.856684
O O12 0.990946 0.845092 0.967897
#
# Coordination Sequence:
#
# PCOD9371831 Si02
#       6
#    16  16  16  16   8  16
#     4  11  22  45  70 104 148 194 249 318 373 464
#     4  10  23  41  71 103 144 190 250 308 379 451
#     4  12  29  47  84 117 156 216 261 334 403 473
#     4  12  28  53  77 115 165 208 271 330 401 481
#     4  12  24  48  76 116 148 200 264 318 400 470
#     4  11  25  47  70 111 150 200 258 319 396 463
#
# _framework density 25.506535
#
# number of rings (size 3 to 8) (size 9 to 14) (size 15 to 20)
#    0.000    0.727    4.545    2.182    6.364    9.455 
#    0.000    0.000    0.000    0.000    0.000    0.000 
#    0.000    0.000    0.000    0.000    0.000    0.000 
#
# Total GULP energy -122951.569612 kJ/mol
# GULP energy per Si atom -5588.707710 kJ/mol
# Density = 2.544848 g / cm^3
# Si number density = 25.506535 Si / 1000 Ang^3
#
#
#
# Elastic Constant Matrix: (Units=GPa)
#
#
# Indices 1 2 3 4 5 6 
#
# 1 62.7999 47.6039 45.1787 0.0000 0.0000 0.0000
# 2 47.6039 139.4176 63.6220 0.0000 0.0000 0.0000
# 3 45.1787 63.6220 118.5750 0.0000 0.0000 0.0000
# 4 0.0000 0.0000 0.0000 48.6428 0.0000 0.0000
# 5 0.0000 0.0000 0.0000 0.0000 38.3626 0.0000
# 6 0.0000 0.0000 0.0000 0.0000 0.0000 22.2592
#
#
#
# Elastic Compliance Matrix: (Units=1/GPa)
#
#
# Indices 1 2 3 4 5 6 
#
# 1 0.024751 -0.005493 -0.006484 0.000000 0.000000 0.000000
# 2 -0.005493 0.010717 -0.003658 0.000000 0.000000 0.000000
# 3 -0.006484 -0.003658 0.012866 0.000000 0.000000 0.000000
# 4 0.000000 0.000000 0.000000 0.020558 0.000000 0.000000
# 5 0.000000 0.000000 0.000000 0.000000 0.026067 0.000000
# 6 0.000000 0.000000 0.000000 0.000000 0.000000 0.044925
#
#
# Mechanical properties :
#
#
# Convention : Reuss Voigt Hill
#
# Bulk Modulus (GPa) = 58.59116 70.40019 64.49567
# Shear Modulus (GPa) = 28.27380 32.81211 30.54295
#
# Velocity S-wave (km/s) = 3.33301 3.59056 3.46418
# Velocity P-wave (km/s) = 6.15084 6.69703 6.42974
#
# Compressibility (1/GPa) = 0.01706742
#
# Stress axis : x y z
#
# Youngs Moduli (GPa) = 40.40167 93.30733 77.72224
#
# Poissons Ratio (x) = 0.51250 0.50392
# Poissons Ratio (y) = 0.22191 0.28428
# Poissons Ratio (z) = 0.26195 0.34128
#
# Static dielectric constant tensor:
#      x y z
#    x 2.363840 0.000000 0.000000 
#    y 0.000000 2.101600 0.000000 
#    z 0.000000 0.000000 1.972280 
# 
# From -- ./inp_files/11209.got.cif
#   From: 2010.05.17/outbox.cif.g08.bks.cpg/sg43_6_cif.got.tgz:11209.got - 2010.06.03 19:21:55.
