data_PCOD9371663
_publ_section_title
;
Structure prediction by ZEFSAII (Michael W. Deem and Ramdas Pophale) SiO2 
 PCOD9371663
Probable space group: F D D 2
;
_chemical_formula_sum "Si O2"
_cell_formula_units_Z 120
_cell_length_a 23.772780
_cell_length_b 25.292200
_cell_length_c 8.684003
_cell_angle_alpha 90.000000
_cell_angle_beta 90.000000
_cell_angle_gamma 90.000000
_cell_volume 5221.394934
_symmetry_space_group_name_H-M "F D D 2"
_symmetry_group_IT_number 43
_symmetry_cell_setting 'orthorhombic'
loop_
_space_group_symop_operation_xyz
x,y,z
-x,-y,z
1/4-x,1/4+y,1/4+z
1/4+x,1/4-y,1/4+z
x,1/2+y,1/2+z
-x,1/2-y,1/2+z
1/4-x,3/4+y,3/4+z
1/4+x,3/4-y,3/4+z
1/2+x,y,1/2+z
1/2-x,-y,1/2+z
3/4-x,1/4+y,3/4+z
3/4+x,1/4-y,3/4+z
1/2+x,1/2+y,z
1/2-x,1/2-y,z
3/4-x,3/4+y,1/4+z
3/4+x,3/4-y,1/4+z
loop_
_atom_site_type_symbol
_atom_site_label
_atom_site_fract_x
_atom_site_fract_y
_atom_site_fract_z
Si Si1 0.677149 0.001382 0.369580
Si Si2 0.221616 0.355893 0.619359
Si Si3 0.250000 0.750000 0.289785
Si Si4 0.954532 0.718911 0.473045
Si Si5 0.179298 0.689149 0.537515
Si Si6 0.162895 0.112516 0.779973
Si Si7 0.780920 0.350256 0.829656
Si Si8 0.134144 0.431787 0.778837
O O1 0.696138 0.019198 0.540916
O O2 0.648523 0.051662 0.287096
O O3 0.732573 0.984293 0.276933
O O4 0.628424 0.957976 0.364476
O O5 0.223244 0.296883 0.688246
O O6 0.278120 0.382636 0.689341
O O7 0.226303 0.355585 0.435456
O O8 0.172860 0.393391 0.677550
O O9 0.202960 0.725619 0.401671
O O10 0.946958 0.658795 0.532445
O O11 0.910942 0.760727 0.547397
O O12 0.170095 0.633980 0.451167
O O13 0.224661 0.681494 0.672156
O O14 0.121637 0.151563 0.690533
O O15 0.824553 0.319395 0.941198
#
# Coordination Sequence:
#
# PCOD9371663 Si02
#       8
#    16  16   8  16  16  16  16  16
#     4  12  25  45  71 103 138 186 237 290 357 423
#     4  10  22  44  66  97 137 185 230 290 345 431
#     4  10  24  46  70  98 144 188 238 280 372 424
#     4  12  26  44  71 101 140 186 238 291 354 422
#     4  11  24  46  66 105 140 185 231 299 355 426
#     4  10  23  41  69  98 137 178 235 286 351 417
#     4  11  25  43  67 103 143 180 239 293 355 422
#     4  11  23  43  69 100 141 183 237 291 356 422
#
# _framework density 22.982364
#
# number of rings (size 3 to 8) (size 9 to 14) (size 15 to 20)
#    0.000    1.067    4.000    1.600    3.733    3.733 
#    4.800    0.000    0.000    0.000    0.000    0.000 
#    0.000    0.000    0.000    0.000    0.000    0.000 
#
# Total GULP energy -167775.543676 kJ/mol
# GULP energy per Si atom -5592.518123 kJ/mol
# Density = 2.293005 g / cm^3
# Si number density = 22.982364 Si / 1000 Ang^3
#
#
#
# Elastic Constant Matrix: (Units=GPa)
#
#
# Indices 1 2 3 4 5 6 
#
# 1 37.7869 1.5778 11.4970 -0.0001 0.0000 0.0000
# 2 1.5778 59.7788 8.5150 0.0003 -0.0001 -0.0001
# 3 11.4970 8.5150 115.7827 -0.0005 0.0008 -0.0002
# 4 -0.0001 0.0003 -0.0005 24.2555 -0.0001 -0.0003
# 5 0.0000 -0.0001 0.0008 -0.0001 37.9637 0.0003
# 6 0.0000 -0.0001 -0.0002 -0.0003 0.0003 27.1255
#
#
#
# Elastic Compliance Matrix: (Units=1/GPa)
#
#
# Indices 1 2 3 4 5 6 
#
# 1 0.027295 -0.000338 -0.002686 0.000000 0.000000 0.000000
# 2 -0.000338 0.016910 -0.001210 0.000000 0.000000 0.000000
# 3 -0.002686 -0.001210 0.008993 0.000000 0.000000 0.000000
# 4 0.000000 0.000000 0.000000 0.041228 0.000000 0.000000
# 5 0.000000 0.000000 0.000000 0.000000 0.026341 0.000000
# 6 0.000000 0.000000 0.000000 0.000000 0.000000 0.036866
#
#
# Mechanical properties :
#
#
# Convention : Reuss Voigt Hill
#
# Bulk Modulus (GPa) = 22.35607 28.50312 25.42960
# Shear Modulus (GPa) = 27.62294 30.65286 29.13790
#
# Velocity S-wave (km/s) = 3.47063 3.65602 3.56453
# Velocity P-wave (km/s) = 5.08025 5.50010 5.29434
#
# Compressibility (1/GPa) = 0.04473057
#
# Stress axis : x y z
#
# Youngs Moduli (GPa) = 36.63624 59.13799 111.20347
#
# Poissons Ratio (x) = 0.01998 0.29864
# Poissons Ratio (y) = 0.01238 0.13456
# Poissons Ratio (z) = 0.09839 0.07156
#
# Static dielectric constant tensor:
#      x y z
#    x 1.834940 0.000000 0.000000 
#    y 0.000000 1.859260 0.000000 
#    z 0.000000 0.000000 1.865710 
# 
# From -- ./inp_files/4343.got.cif
#   From: 2010.05.17/outbox.cif.g08.bks.cpg/sg43_3_cif.got.tgz:4343.got - 2010.06.03 19:21:55.
