data_PCOD9371536
_publ_section_title
;
Structure prediction by ZEFSAII (Michael W. Deem and Ramdas Pophale) SiO2 
 PCOD9371536
Probable space group: F D D 2
;
_chemical_formula_sum "Si O2"
_cell_formula_units_Z 96
_cell_length_a 14.468957
_cell_length_b 27.803970
_cell_length_c 9.696269
_cell_angle_alpha 90.000000
_cell_angle_beta 90.000000
_cell_angle_gamma 90.000000
_cell_volume 3900.755169
_symmetry_space_group_name_H-M "F D D 2"
_symmetry_group_IT_number 43
_symmetry_cell_setting 'orthorhombic'
loop_
_space_group_symop_operation_xyz
x,y,z
-x,-y,z
1/4-x,1/4+y,1/4+z
1/4+x,1/4-y,1/4+z
x,1/2+y,1/2+z
-x,1/2-y,1/2+z
1/4-x,3/4+y,3/4+z
1/4+x,3/4-y,3/4+z
1/2+x,y,1/2+z
1/2-x,-y,1/2+z
3/4-x,1/4+y,3/4+z
3/4+x,1/4-y,3/4+z
1/2+x,1/2+y,z
1/2-x,1/2-y,z
3/4-x,3/4+y,1/4+z
3/4+x,3/4-y,1/4+z
loop_
_atom_site_type_symbol
_atom_site_label
_atom_site_fract_x
_atom_site_fract_y
_atom_site_fract_z
Si Si1 0.030942 0.338430 0.761110
Si Si2 0.425532 0.272480 0.765909
Si Si3 0.000000 0.500000 0.616120
Si Si4 0.000000 0.500000 0.132897
Si Si5 0.081943 0.160425 0.996390
Si Si6 0.605005 0.179241 0.006942
Si Si7 0.213102 0.816820 0.614098
O O1 0.989582 0.354124 0.614297
O O2 0.065613 0.284026 0.745808
O O3 0.100399 0.379574 0.806479
O O4 0.951122 0.334202 0.872297
O O5 0.315686 0.281798 0.788588
O O6 0.456880 0.299239 0.629349
O O7 0.461386 0.295593 0.907578
O O8 0.929435 0.530506 0.709131
O O9 0.045989 0.536908 0.506055
O O10 0.937862 0.467673 0.236143
O O11 0.178712 0.172475 0.072992
O O12 0.089136 0.116337 0.889917
#
# Coordination Sequence:
#
# PCOD9371536 Si02
#       7
#    16  16   8   8  16  16  16
#     4  12  26  48  70 111 146 192 254 305 375 451
#     4  11  27  44  71 100 151 187 247 303 374 438
#     4  11  21  44  70 100 138 194 240 300 376 432
#     4   9  23  46  66 104 136 190 232 304 364 446
#     4  11  22  46  65 105 132 193 234 301 362 440
#     4  12  28  45  75 109 147 200 246 319 373 446
#     4  10  22  41  72  97 138 179 245 292 364 441
#
# _framework density 24.610620000000001
#
# number of rings (size 3 to 8) (size 9 to 14) (size 15 to 20)
#    0.000    1.000    3.333    1.500    7.000    4.000 
#    0.000    0.000    0.000    0.000    0.000    0.000 
#    0.000    0.000    0.000    0.000    0.000    0.000 
#
# Total GULP energy -134262.536281 kJ/mol
# GULP energy per Si atom -5594.272345 kJ/mol
# Density = 2.455461 g / cm^3
# Si number density = 24.610620 Si / 1000 Ang^3
#
#
#
# Elastic Constant Matrix: (Units=GPa)
#
#
# Indices 1 2 3 4 5 6 
#
# 1 20.4397 21.2152 18.2630 0.0000 0.0000 0.0000
# 2 21.2152 159.3947 36.3858 0.0000 0.0000 0.0000
# 3 18.2630 36.3858 114.8558 0.0000 0.0000 0.0000
# 4 0.0000 0.0000 0.0000 33.6881 0.0000 0.0000
# 5 0.0000 0.0000 0.0000 0.0000 -19.0726 0.0000
# 6 0.0000 0.0000 0.0000 0.0000 0.0000 39.2109
#
#
#
# Elastic Compliance Matrix: (Units=1/GPa)
#
#
# Indices 1 2 3 4 5 6 
#
# 1 0.062792 -0.006552 -0.007909 0.000000 0.000000 0.000000
# 2 -0.006552 0.007446 -0.001317 0.000000 0.000000 0.000000
# 3 -0.007909 -0.001317 0.010381 0.000000 0.000000 0.000000
# 4 0.000000 0.000000 0.000000 0.029684 0.000000 0.000000
# 5 0.000000 0.000000 0.000000 0.000000 -0.052431 0.000000
# 6 0.000000 0.000000 0.000000 0.000000 0.000000 0.025503
#
#
# Mechanical properties :
#
#
# Convention : Reuss Voigt Hill
#
# Bulk Modulus (GPa) = 20.38176 49.60203 34.99189
# Shear Modulus (GPa) = 38.08484 25.35369 31.71926
#
# Velocity S-wave (km/s) = 3.93809 3.21314 3.59394
# Velocity P-wave (km/s) = 5.38310 5.82788 5.60990
#
# Compressibility (1/GPa) = 0.04906349
#
# Stress axis : x y z
#
# Youngs Moduli (GPa) = 15.92571 134.29144 96.32621
#
# Poissons Ratio (x) = 0.87989 0.76181
# Poissons Ratio (y) = 0.10435 0.12688
# Poissons Ratio (z) = 0.12595 0.17689
#
# Static dielectric constant tensor:
#      x y z
#    x 1.976000 0.000000 0.000000 
#    y 0.000000 2.093580 0.000000 
#    z 0.000000 0.000000 1.912950 
# 
# From -- ./inp_files/3340.got.cif
#   From: 2010.05.17/outbox.cif.g08.bks.cpg/sg43_2_cif.got.tgz:3340.got - 2010.06.03 19:21:55.
