data_PCOD9371774
_publ_section_title
;
Structure prediction by ZEFSAII (Michael W. Deem and Ramdas Pophale) SiO2 
 PCOD9371774
Probable space group: F D D 2
;
_chemical_formula_sum "Si O2"
_cell_formula_units_Z 96
_cell_length_a 21.619949
_cell_length_b 8.744752
_cell_length_c 23.100991
_cell_angle_alpha 90.000000
_cell_angle_beta 90.000000
_cell_angle_gamma 90.000000
_cell_volume 4367.498591
_symmetry_space_group_name_H-M "F D D 2"
_symmetry_group_IT_number 43
_symmetry_cell_setting 'orthorhombic'
loop_
_space_group_symop_operation_xyz
x,y,z
-x,-y,z
1/4-x,1/4+y,1/4+z
1/4+x,1/4-y,1/4+z
x,1/2+y,1/2+z
-x,1/2-y,1/2+z
1/4-x,3/4+y,3/4+z
1/4+x,3/4-y,3/4+z
1/2+x,y,1/2+z
1/2-x,-y,1/2+z
3/4-x,1/4+y,3/4+z
3/4+x,1/4-y,3/4+z
1/2+x,1/2+y,z
1/2-x,1/2-y,z
3/4-x,3/4+y,1/4+z
3/4+x,3/4-y,1/4+z
loop_
_atom_site_type_symbol
_atom_site_label
_atom_site_fract_x
_atom_site_fract_y
_atom_site_fract_z
Si Si1 0.570513 0.304605 0.870230
Si Si2 0.231930 0.927019 0.513494
Si Si3 0.032792 0.333511 0.946450
Si Si4 0.141003 0.401705 0.117434
Si Si5 0.803503 0.377043 0.899373
Si Si6 0.016569 0.330899 0.070861
O O1 0.539632 0.272542 0.806313
O O2 0.517667 0.268602 0.915523
O O3 0.581085 0.484445 0.878260
O O4 0.630853 0.205936 0.888186
O O5 0.250000 0.750000 0.498893
O O6 0.171451 0.938775 0.555149
O O7 0.212850 0.029318 0.458194
O O8 0.093661 0.293378 0.909390
O O9 0.000000 0.500000 0.940456
O O10 0.043477 0.269560 0.010901
O O11 0.069277 0.359307 0.117439
O O12 0.750000 0.250000 0.895134
O O13 0.790281 0.490349 0.846024
O O14 0.000000 0.500000 0.053150
#
# Coordination Sequence:
#
# PCOD9371774 Si02
#       6
#    16  16  16  16  16  16
#     4  10  23  46  68 100 139 186 233 279 345 423
#     4   9  22  43  72  95 134 190 233 281 349 416
#     4  10  24  43  72 102 132 180 233 278 343 406
#     4  10  22  47  70  94 136 185 229 279 350 414
#     4  12  25  42  66 106 143 175 235 289 349 411
#     4  11  26  42  64 104 135 181 224 286 347 404
#
# _framework density 21.980544999999999
#
# number of rings (size 3 to 8) (size 9 to 14) (size 15 to 20)
#    0.000    1.667    1.667    2.000    7.000    8.000 
#    0.000    0.000    0.000    0.000    0.000    0.000 
#    0.000    0.000    0.000    0.000    0.000    0.000 
#
# Total GULP energy -133681.362260 kJ/mol
# GULP energy per Si atom -5570.056761 kJ/mol
# Density = 2.193052 g / cm^3
# Si number density = 21.980545 Si / 1000 Ang^3
#
#
#
# Elastic Constant Matrix: (Units=GPa)
#
#
# Indices 1 2 3 4 5 6 
#
# 1 95.2290 15.4028 19.2752 0.0000 0.0000 0.0000
# 2 15.4028 59.1068 41.5488 0.0000 0.0000 0.0000
# 3 19.2752 41.5488 95.6387 0.0000 0.0000 0.0000
# 4 0.0000 0.0000 0.0000 49.9721 0.0000 0.0000
# 5 0.0000 0.0000 0.0000 0.0000 -55.9585 0.0000
# 6 0.0000 0.0000 0.0000 0.0000 0.0000 30.6355
#
#
#
# Elastic Compliance Matrix: (Units=1/GPa)
#
#
# Indices 1 2 3 4 5 6 
#
# 1 0.011094 -0.001899 -0.001411 0.000000 0.000000 0.000000
# 2 -0.001899 0.024682 -0.010340 0.000000 0.000000 0.000000
# 3 -0.001411 -0.010340 0.015232 0.000000 0.000000 0.000000
# 4 0.000000 0.000000 0.000000 0.020011 0.000000 0.000000
# 5 0.000000 0.000000 0.000000 0.000000 -0.017870 0.000000
# 6 0.000000 0.000000 0.000000 0.000000 0.000000 0.032642
#
#
# Mechanical properties :
#
#
# Convention : Reuss Voigt Hill
#
# Bulk Modulus (GPa) = 42.17960 44.71424 43.44692
# Shear Modulus (GPa) = 41.32470 16.51299 28.91884
#
# Velocity S-wave (km/s) = 4.34067 2.74388 3.63113
# Velocity P-wave (km/s) = 6.65981 5.51591 6.11467
#
# Compressibility (1/GPa) = 0.02370814
#
# Stress axis : x y z
#
# Youngs Moduli (GPa) = 90.14082 40.51566 65.64980
#
# Poissons Ratio (x) = 0.07695 0.09262
# Poissons Ratio (y) = 0.17120 0.67881
# Poissons Ratio (z) = 0.12717 0.41893
#
# Static dielectric constant tensor:
#      x y z
#    x 2.341770 0.000000 0.000000 
#    y 0.000000 1.764350 0.000000 
#    z 0.000000 0.000000 1.880830 
# 
# From -- ./inp_files/22589.got.cif
#   From: 2010.05.17/outbox.cif.g08.bks.cpg/sg43_12_cif.got.tgz:22589.got - 2010.06.03 19:21:55.
