data_PCOD9371697
_publ_section_title
;
Structure prediction by ZEFSAII (Michael W. Deem and Ramdas Pophale) SiO2 
 PCOD9371697
Probable space group: F D D 2
;
_chemical_formula_sum "Si O2"
_cell_formula_units_Z 72
_cell_length_a 21.450304
_cell_length_b 5.084331
_cell_length_c 29.455344
_cell_angle_alpha 90.000000
_cell_angle_beta 90.000000
_cell_angle_gamma 90.000000
_cell_volume 3212.412942
_symmetry_space_group_name_H-M "F D D 2"
_symmetry_group_IT_number 43
_symmetry_cell_setting 'orthorhombic'
loop_
_space_group_symop_operation_xyz
x,y,z
-x,-y,z
1/4-x,1/4+y,1/4+z
1/4+x,1/4-y,1/4+z
x,1/2+y,1/2+z
-x,1/2-y,1/2+z
1/4-x,3/4+y,3/4+z
1/4+x,3/4-y,3/4+z
1/2+x,y,1/2+z
1/2-x,-y,1/2+z
3/4-x,1/4+y,3/4+z
3/4+x,1/4-y,3/4+z
1/2+x,1/2+y,z
1/2-x,1/2-y,z
3/4-x,3/4+y,1/4+z
3/4+x,3/4-y,1/4+z
loop_
_atom_site_type_symbol
_atom_site_label
_atom_site_fract_x
_atom_site_fract_y
_atom_site_fract_z
Si Si1 0.613109 0.683783 0.521360
Si Si2 0.707561 0.503744 0.973311
Si Si3 0.097468 0.294126 0.940405
Si Si4 0.456712 0.741663 0.341636
Si Si5 0.750000 0.250000 0.755190
O O1 0.611647 0.547410 0.471565
O O2 0.647051 0.500505 0.557977
O O3 0.660352 0.923977 0.513143
O O4 0.544761 0.798248 0.532050
O O5 0.750000 0.750000 0.986821
O O6 0.660152 0.619868 0.935888
O O7 0.750000 0.250000 0.962031
O O8 0.068901 0.334655 0.891330
O O9 0.046436 0.151459 0.971707
O O10 0.500000 0.500000 0.326663
O O11 0.500000 0.000000 0.344323
#
# Coordination Sequence:
#
# PCOD9371697 Si02
#       5
#    16  16  16  16   8
#     4  11  25  43  77 104 149 196 242 309 372 438
#     4  11  23  41  72 106 144 190 239 296 364 435
#     4  11  24  47  75 103 149 199 238 303 372 442
#     4  12  29  46  75 112 145 189 260 310 363 450
#     4  10  22  44  72 104 148 192 244 286 378 448
#
# _framework density 22.413060000000002
#
# number of rings (size 3 to 8) (size 9 to 14) (size 15 to 20)
#    0.000    0.889    3.333    2.667   12.444    0.000 
#    0.000    4.444    2.444    0.000    0.000    0.000 
#    0.000    0.000    0.000    0.000    0.000    0.000 
#
# Total GULP energy -100540.692863 kJ/mol
# GULP energy per Si atom -5585.594048 kJ/mol
# Density = 2.236205 g / cm^3
# Si number density = 22.413060 Si / 1000 Ang^3
#
#
#
# Elastic Constant Matrix: (Units=GPa)
#
#
# Indices 1 2 3 4 5 6 
#
# 1 169.0118 64.5903 47.2171 -0.0014 0.0040 -0.0022
# 2 64.5903 127.4986 25.2963 -0.0053 0.0114 0.0126
# 3 47.2171 25.2963 103.1116 0.0024 0.0001 0.0021
# 4 -0.0014 -0.0053 0.0024 17.4021 0.0004 0.0043
# 5 0.0040 0.0114 0.0001 0.0004 39.0876 -0.0069
# 6 -0.0022 0.0126 0.0021 0.0043 -0.0069 55.7067
#
#
#
# Elastic Compliance Matrix: (Units=1/GPa)
#
#
# Indices 1 2 3 4 5 6 
#
# 1 0.008050 -0.003518 -0.002823 0.000000 0.000000 0.000001
# 2 -0.003518 0.009782 -0.000789 0.000003 -0.000003 -0.000002
# 3 -0.002823 -0.000789 0.011185 -0.000002 0.000001 0.000000
# 4 0.000000 0.000003 -0.000002 0.057464 -0.000001 -0.000004
# 5 0.000000 -0.000003 0.000001 -0.000001 0.025584 0.000003
# 6 0.000001 -0.000002 0.000000 -0.000004 0.000003 0.017951
#
#
# Mechanical properties :
#
#
# Convention : Reuss Voigt Hill
#
# Bulk Modulus (GPa) = 67.76696 74.86992 71.31844
# Shear Modulus (GPa) = 33.51341 39.94052 36.72696
#
# Velocity S-wave (km/s) = 3.87106 4.22598 4.05240
# Velocity P-wave (km/s) = 7.09093 7.56895 7.33383
#
# Compressibility (1/GPa) = 0.01475645
#
# Stress axis : x y z
#
# Youngs Moduli (GPa) = 124.22546 102.22963 89.40909
#
# Poissons Ratio (x) = 0.35963 0.25242
# Poissons Ratio (y) = 0.43701 0.07053
# Poissons Ratio (z) = 0.35071 0.08064
#
# Static dielectric constant tensor:
#      x y z
#    x 2.041500 0.000000 0.000000 
#    y 0.000000 1.961330 -0.000010 
#    z 0.000000 -0.000010 1.808060 
# 
# From -- ./inp_files/23417.got.cif
#   From: 2010.05.17/outbox.cif.g08.bks.cpg/sg43_12_cif.got.tgz:23417.got - 2010.06.03 19:21:55.
