data_PCOD9371988
_publ_section_title
;
Structure prediction by ZEFSAII (Michael W. Deem and Ramdas Pophale) SiO2 
 PCOD9371988
Probable space group: F D D 2
;
_chemical_formula_sum "Si O2"
_cell_formula_units_Z 80
_cell_length_a 7.518195
_cell_length_b 26.618260
_cell_length_c 17.672199
_cell_angle_alpha 90.000000
_cell_angle_beta 90.000000
_cell_angle_gamma 90.000000
_cell_volume 3536.582894
_symmetry_space_group_name_H-M "F D D 2"
_symmetry_group_IT_number 43
_symmetry_cell_setting 'orthorhombic'
loop_
_space_group_symop_operation_xyz
x,y,z
-x,-y,z
1/4-x,1/4+y,1/4+z
1/4+x,1/4-y,1/4+z
x,1/2+y,1/2+z
-x,1/2-y,1/2+z
1/4-x,3/4+y,3/4+z
1/4+x,3/4-y,3/4+z
1/2+x,y,1/2+z
1/2-x,-y,1/2+z
3/4-x,1/4+y,3/4+z
3/4+x,1/4-y,3/4+z
1/2+x,1/2+y,z
1/2-x,1/2-y,z
3/4-x,3/4+y,1/4+z
3/4+x,3/4-y,1/4+z
loop_
_atom_site_type_symbol
_atom_site_label
_atom_site_fract_x
_atom_site_fract_y
_atom_site_fract_z
Si Si1 0.889863 0.205705 0.273620
Si Si2 0.126789 0.340720 0.119120
Si Si3 0.770124 0.688630 0.615280
Si Si4 0.750000 0.250000 0.721861
Si Si5 0.250000 0.250000 0.913088
Si Si6 0.426258 0.829641 0.497406
O O1 0.750000 0.250000 0.254244
O O2 0.848078 0.173246 0.198927
O O3 0.831004 0.204547 0.361499
O O4 0.092814 0.223920 0.268861
O O5 0.161452 0.290068 0.166466
O O6 0.249028 0.342573 0.045245
O O7 0.188982 0.383682 0.176596
O O8 0.918185 0.338090 0.102473
O O9 0.750000 0.750000 0.605988
O O10 0.909967 0.669226 0.553989
O O11 0.400547 0.273881 0.964683
#
# Coordination Sequence:
#
# PCOD9371988 Si02
#       6
#    16  16  16   8   8  16
#     4   9  20  38  74  96 136 181 227 272 366 417
#     4  12  26  42  72 102 141 183 238 294 356 429
#     4  11  21  46  76  99 136 190 230 292 363 419
#     4  12  19  44  74  97 136 190 226 288 361 416
#     4  10  23  48  66 103 140 180 234 306 351 426
#     4  12  28  44  71 103 143 181 245 297 356 427
#
# _framework density 22.620705000000001
#
# number of rings (size 3 to 8) (size 9 to 14) (size 15 to 20)
#    0.600    0.400    6.000    1.800    5.600    3.200 
#    5.400    0.000    0.000    0.000    0.000    0.000 
#    0.000    0.000    0.000    0.000    0.000    0.000 
#
# Total GULP energy -111524.012859 kJ/mol
# GULP energy per Si atom -5576.200643 kJ/mol
# Density = 2.256922 g / cm^3
# Si number density = 22.620705 Si / 1000 Ang^3
#
#
#
# Elastic Constant Matrix: (Units=GPa)
#
#
# Indices 1 2 3 4 5 6 
#
# 1 152.4332 -0.0915 40.4829 0.0000 0.0000 0.0000
# 2 -0.0915 55.1961 15.7792 0.0000 0.0000 0.0000
# 3 40.4829 15.7792 108.8817 0.0000 0.0000 0.0000
# 4 0.0000 0.0000 0.0000 14.3353 0.0000 0.0000
# 5 0.0000 0.0000 0.0000 0.0000 46.7415 0.0000
# 6 0.0000 0.0000 0.0000 0.0000 0.0000 14.2239
#
#
#
# Elastic Compliance Matrix: (Units=1/GPa)
#
#
# Indices 1 2 3 4 5 6 
#
# 1 0.007315 0.000824 -0.002839 0.000000 0.000000 0.000000
# 2 0.000824 0.018993 -0.003059 0.000000 0.000000 0.000000
# 3 -0.002839 -0.003059 0.010683 0.000000 0.000000 0.000000
# 4 0.000000 0.000000 0.000000 0.069758 0.000000 0.000000
# 5 0.000000 0.000000 0.000000 0.000000 0.021394 0.000000
# 6 0.000000 0.000000 0.000000 0.000000 0.000000 0.070304
#
#
# Mechanical properties :
#
#
# Convention : Reuss Voigt Hill
#
# Bulk Modulus (GPa) = 37.25398 47.65024 42.45211
# Shear Modulus (GPa) = 22.98398 32.41616 27.70007
#
# Velocity S-wave (km/s) = 3.19103 3.78965 3.50315
# Velocity P-wave (km/s) = 5.48467 6.34501 5.93046
#
# Compressibility (1/GPa) = 0.02684277
#
# Stress axis : x y z
#
# Youngs Moduli (GPa) = 136.71046 52.65093 93.60552
#
# Poissons Ratio (x) = -0.04337 0.26575
# Poissons Ratio (y) = -0.11261 0.28632
# Poissons Ratio (z) = 0.38813 0.16105
#
# Static dielectric constant tensor:
#      x y z
#    x 1.778310 0.000000 0.000000 
#    y 0.000000 1.790500 0.000000 
#    z 0.000000 0.000000 1.897380 
# 
# From -- ./inp_files/12793.got.cif
#   From: 2010.05.17/outbox.cif.g08.bks.cpg/sg43_7_cif.got.tgz:12793.got - 2010.06.03 19:21:55.
