data_PCOD9371515
_publ_section_title
;
Structure prediction by ZEFSAII (Michael W. Deem and Ramdas Pophale) SiO2 
 PCOD9371515
Probable space group: F D D 2
;
_chemical_formula_sum "Si O2"
_cell_formula_units_Z 80
_cell_length_a 12.730718
_cell_length_b 19.738592
_cell_length_c 13.390198
_cell_angle_alpha 90.000000
_cell_angle_beta 90.000000
_cell_angle_gamma 90.000000
_cell_volume 3364.775300
_symmetry_space_group_name_H-M "F D D 2"
_symmetry_group_IT_number 43
_symmetry_cell_setting 'orthorhombic'
loop_
_space_group_symop_operation_xyz
x,y,z
-x,-y,z
1/4-x,1/4+y,1/4+z
1/4+x,1/4-y,1/4+z
x,1/2+y,1/2+z
-x,1/2-y,1/2+z
1/4-x,3/4+y,3/4+z
1/4+x,3/4-y,3/4+z
1/2+x,y,1/2+z
1/2-x,-y,1/2+z
3/4-x,1/4+y,3/4+z
3/4+x,1/4-y,3/4+z
1/2+x,1/2+y,z
1/2-x,1/2-y,z
3/4-x,3/4+y,1/4+z
3/4+x,3/4-y,1/4+z
loop_
_atom_site_type_symbol
_atom_site_label
_atom_site_fract_x
_atom_site_fract_y
_atom_site_fract_z
Si Si1 0.015481 0.922858 0.443220
Si Si2 0.772429 0.456829 0.700689
Si Si3 0.821594 0.939330 0.565303
Si Si4 0.823539 0.684054 0.262763
Si Si5 0.979686 0.284990 0.148277
O O1 0.995899 0.867540 0.359699
O O2 0.938860 0.915389 0.536605
O O3 0.140989 0.919101 0.452561
O O4 0.000000 0.000000 0.409146
O O5 0.680739 0.497635 0.641057
O O6 0.736175 0.387012 0.750848
O O7 0.860505 0.441727 0.616444
O O8 0.799414 0.511495 0.787203
O O9 0.774375 0.965824 0.462457
O O10 0.750000 0.750000 0.255934
O O11 0.906390 0.685886 0.170448
#
# Coordination Sequence:
#
# PCOD9371515 Si02
#       5
#    16  16  16  16  16
#     4  10  22  41  67  99 135 175 224 278 334 399
#     4  11  25  46  73 101 138 181 227 282 340 404
#     4  10  23  42  66 102 137 176 227 281 338 402
#     4  11  26  47  68 101 138 180 228 280 341 405
#     4  10  24  44  68 101 138 180 227 281 341 400
#
# _framework density 23.775732000000001
#
# number of rings (size 3 to 8) (size 9 to 14) (size 15 to 20)
#    0.000    1.600    0.000    2.400    0.000   24.800 
#    0.000    9.000    0.000    0.000    0.000    0.000 
#    0.000    0.000    0.000    0.000    0.000    0.000 
#
# Total GULP energy -111635.274456 kJ/mol
# GULP energy per Si atom -5581.763723 kJ/mol
# Density = 2.372162 g / cm^3
# Si number density = 23.775732 Si / 1000 Ang^3
#
#
#
# Elastic Constant Matrix: (Units=GPa)
#
#
# Indices 1 2 3 4 5 6 
#
# 1 99.0894 20.5999 25.3282 0.0000 0.0000 0.0000
# 2 20.5999 98.8603 34.6966 0.0000 0.0000 0.0000
# 3 25.3282 34.6966 111.2948 0.0000 0.0000 0.0000
# 4 0.0000 0.0000 0.0000 39.7989 0.0000 0.0000
# 5 0.0000 0.0000 0.0000 0.0000 33.2854 0.0000
# 6 0.0000 0.0000 0.0000 0.0000 0.0000 17.9841
#
#
#
# Elastic Compliance Matrix: (Units=1/GPa)
#
#
# Indices 1 2 3 4 5 6 
#
# 1 0.010930 -0.001577 -0.001996 0.000000 0.000000 0.000000
# 2 -0.001577 0.011586 -0.003253 0.000000 0.000000 0.000000
# 3 -0.001996 -0.003253 0.010453 0.000000 0.000000 0.000000
# 4 0.000000 0.000000 0.000000 0.025126 0.000000 0.000000
# 5 0.000000 0.000000 0.000000 0.000000 0.030043 0.000000
# 6 0.000000 0.000000 0.000000 0.000000 0.000000 0.055605
#
#
# Mechanical properties :
#
#
# Convention : Reuss Voigt Hill
#
# Bulk Modulus (GPa) = 51.76677 52.27711 52.02194
# Shear Modulus (GPa) = 30.51873 33.45499 31.98686
#
# Velocity S-wave (km/s) = 3.58663 3.75521 3.67189
# Velocity P-wave (km/s) = 6.24277 6.39042 6.31703
#
# Compressibility (1/GPa) = 0.01931741
#
# Stress axis : x y z
#
# Youngs Moduli (GPa) = 91.49221 86.31415 95.66216
#
# Poissons Ratio (x) = 0.13612 0.19092
# Poissons Ratio (y) = 0.14429 0.31118
# Poissons Ratio (z) = 0.18260 0.28078
#
# Static dielectric constant tensor:
#      x y z
#    x 2.011120 0.000000 0.000000 
#    y 0.000000 1.954060 0.000000 
#    z 0.000000 0.000000 1.932870 
# 
# From -- ./inp_files/9545.got.cif
#   From: 2010.05.17/outbox.cif.g08.bks.cpg/sg43_5_cif.got.tgz:9545.got - 2010.06.03 19:21:55.
