data_PCOD9371072
_publ_section_title
;
Structure prediction by ZEFSAII (Michael W. Deem and Ramdas Pophale) SiO2 
 PCOD9371072
Probable space group: F D D 2
;
_chemical_formula_sum "Si O2"
_cell_formula_units_Z 80
_cell_length_a 14.967303
_cell_length_b 15.675826
_cell_length_c 14.027570
_cell_angle_alpha 90.000000
_cell_angle_beta 90.000000
_cell_angle_gamma 90.000000
_cell_volume 3291.216332
_symmetry_space_group_name_H-M "F D D 2"
_symmetry_group_IT_number 43
_symmetry_cell_setting 'orthorhombic'
loop_
_space_group_symop_operation_xyz
x,y,z
-x,-y,z
1/4-x,1/4+y,1/4+z
1/4+x,1/4-y,1/4+z
x,1/2+y,1/2+z
-x,1/2-y,1/2+z
1/4-x,3/4+y,3/4+z
1/4+x,3/4-y,3/4+z
1/2+x,y,1/2+z
1/2-x,-y,1/2+z
3/4-x,1/4+y,3/4+z
3/4+x,1/4-y,3/4+z
1/2+x,1/2+y,z
1/2-x,1/2-y,z
3/4-x,3/4+y,1/4+z
3/4+x,3/4-y,1/4+z
loop_
_atom_site_type_symbol
_atom_site_label
_atom_site_fract_x
_atom_site_fract_y
_atom_site_fract_z
Si Si1 0.680223 0.953131 0.085240
Si Si2 0.300197 0.369361 0.694522
Si Si3 0.040580 0.687221 0.693590
Si Si4 0.786840 0.395875 0.741735
Si Si5 0.364008 0.815892 0.001463
O O1 0.725096 0.882443 0.151211
O O2 0.671277 0.037717 0.151843
O O3 0.592486 0.912155 0.042061
O O4 0.743259 0.984402 0.998126
O O5 0.343116 0.309237 0.613692
O O6 0.194156 0.372830 0.714232
O O7 0.024352 0.680519 0.579500
O O8 0.977899 0.606085 0.718473
O O9 0.138297 0.677880 0.742140
O O10 0.850818 0.475988 0.716779
#
# Coordination Sequence:
#
# PCOD9371072 Si02
#       5
#    16  16  16  16  16
#     4  10  23  42  67  95 130 175 220 279 337 411
#     4  10  21  40  64  96 131 166 227 273 338 395
#     4  11  22  39  64  95 126 172 223 274 338 404
#     4  11  22  40  62  93 134 171 217 278 345 413
#     4  10  21  38  64  92 125 174 220 283 325 402
#
# _framework density 24.307124000000002
#
# number of rings (size 3 to 8) (size 9 to 14) (size 15 to 20)
#    0.000    1.600    2.000    4.200    0.000    4.800 
#    3.600    2.000    0.000    0.000    0.000    0.000 
#    0.000    0.000    0.000    0.000    0.000    0.000 
#
# Total GULP energy -111491.026223 kJ/mol
# GULP energy per Si atom -5574.551311 kJ/mol
# Density = 2.425180 g / cm^3
# Si number density = 24.307124 Si / 1000 Ang^3
#
#
#
# Elastic Constant Matrix: (Units=GPa)
#
#
# Indices 1 2 3 4 5 6 
#
# 1 44.7909 12.1891 37.2078 0.0000 0.0000 0.0000
# 2 12.1891 22.4947 6.4649 0.0000 0.0000 0.0000
# 3 37.2078 6.4649 117.0958 0.0000 0.0000 0.0000
# 4 0.0000 0.0000 0.0000 28.6807 0.0000 0.0000
# 5 0.0000 0.0000 0.0000 0.0000 37.3479 0.0000
# 6 0.0000 0.0000 0.0000 0.0000 0.0000 21.6050
#
#
#
# Elastic Compliance Matrix: (Units=1/GPa)
#
#
# Indices 1 2 3 4 5 6 
#
# 1 0.035301 -0.016161 -0.010325 0.000000 0.000000 0.000000
# 2 -0.016161 0.052570 0.002233 0.000000 0.000000 0.000000
# 3 -0.010325 0.002233 0.011697 0.000000 0.000000 0.000000
# 4 0.000000 0.000000 0.000000 0.034867 0.000000 0.000000
# 5 0.000000 0.000000 0.000000 0.000000 0.026775 0.000000
# 6 0.000000 0.000000 0.000000 0.000000 0.000000 0.046286
#
#
# Mechanical properties :
#
#
# Convention : Reuss Voigt Hill
#
# Bulk Modulus (GPa) = 19.58377 32.90057 26.24217
# Shear Modulus (GPa) = 18.31353 26.09470 22.20412
#
# Velocity S-wave (km/s) = 2.74783 3.28005 3.02567
# Velocity P-wave (km/s) = 4.25931 5.28296 4.79851
#
# Compressibility (1/GPa) = 0.05106269
#
# Stress axis : x y z
#
# Youngs Moduli (GPa) = 28.32815 19.02220 85.48850
#
# Poissons Ratio (x) = 0.30741 0.88264
# Poissons Ratio (y) = 0.45781 -0.19087
# Poissons Ratio (z) = 0.29248 -0.04247
#
# Static dielectric constant tensor:
#      x y z
#    x 1.954310 0.000000 0.000000 
#    y 0.000000 2.022110 0.000000 
#    z 0.000000 0.000000 2.104270 
# 
# From -- ./inp_files/10000.got.cif
#   From: 2010.05.17/outbox.cif.g08.bks.cpg/sg43_5_cif.got.tgz:10000.got - 2010.06.03 19:21:55.
