data_PCOD9371403
_publ_section_title
;
Structure prediction by ZEFSAII (Michael W. Deem and Ramdas Pophale) SiO2 
 PCOD9371403
Probable space group: F D D 2
;
_chemical_formula_sum "Si O2"
_cell_formula_units_Z 112
_cell_length_a 10.034795
_cell_length_b 22.509099
_cell_length_c 21.765889
_cell_angle_alpha 90.000000
_cell_angle_beta 90.000000
_cell_angle_gamma 90.000000
_cell_volume 4916.352637
_symmetry_space_group_name_H-M "F D D 2"
_symmetry_group_IT_number 43
_symmetry_cell_setting 'orthorhombic'
loop_
_space_group_symop_operation_xyz
x,y,z
-x,-y,z
1/4-x,1/4+y,1/4+z
1/4+x,1/4-y,1/4+z
x,1/2+y,1/2+z
-x,1/2-y,1/2+z
1/4-x,3/4+y,3/4+z
1/4+x,3/4-y,3/4+z
1/2+x,y,1/2+z
1/2-x,-y,1/2+z
3/4-x,1/4+y,3/4+z
3/4+x,1/4-y,3/4+z
1/2+x,1/2+y,z
1/2-x,1/2-y,z
3/4-x,3/4+y,1/4+z
3/4+x,3/4-y,1/4+z
loop_
_atom_site_type_symbol
_atom_site_label
_atom_site_fract_x
_atom_site_fract_y
_atom_site_fract_z
Si Si1 0.404847 0.264718 0.677850
Si Si2 0.765955 0.101203 0.986613
Si Si3 0.765065 0.124211 0.514698
Si Si4 0.276142 0.087658 0.805336
Si Si5 0.623565 0.332948 0.887948
Si Si6 0.570435 0.196067 0.870289
Si Si7 0.028210 0.568171 0.150125
O O1 0.250000 0.250000 0.679204
O O2 0.472523 0.201482 0.690802
O O3 0.439268 0.312133 0.731934
O O4 0.440019 0.293417 0.611290
O O5 0.887482 0.134587 0.953384
O O6 0.649628 0.147048 0.010529
O O7 0.804259 0.066253 0.048270
O O8 0.685443 0.114022 0.577320
O O9 0.695567 0.154353 0.455786
O O10 0.883761 0.172912 0.524833
O O11 0.238320 0.150296 0.837407
O O12 0.572761 0.265497 0.886662
O O13 0.785102 0.329887 0.884717
O O14 0.438065 0.168508 0.900782
O O15 0.000000 0.500000 0.145478
#
# Coordination Sequence:
#
# PCOD9371403 Si02
#       7
#    16  16  16  16  16  16  16
#     4  11  23  42  71  98 132 177 229 290 345 409
#     4  11  23  42  68  95 134 176 224 284 344 420
#     4  11  22  42  64  97 136 171 232 284 343 418
#     4  10  23  40  67 100 128 172 234 278 340 415
#     4  11  24  41  65  95 134 184 223 277 354 417
#     4  10  23  43  61  94 137 177 227 283 351 416
#     4  10  22  38  67  95 126 175 229 287 344 409
#
# _framework density 22.781115
#
# number of rings (size 3 to 8) (size 9 to 14) (size 15 to 20)
#    0.000    1.429    2.857    1.714    6.000    4.571 
#    5.143    0.000    0.000    0.000    0.000    0.000 
#    0.000    0.000    0.000    0.000    0.000    0.000 
#
# Total GULP energy -156203.923467 kJ/mol
# GULP energy per Si atom -5578.711552 kJ/mol
# Density = 2.272926 g / cm^3
# Si number density = 22.781115 Si / 1000 Ang^3
#
#
#
# Elastic Constant Matrix: (Units=GPa)
#
#
# Indices 1 2 3 4 5 6 
#
# 1 80.4265 11.7727 34.6983 0.0000 0.0000 0.0000
# 2 11.7727 54.6386 45.3217 0.0000 0.0000 0.0000
# 3 34.6983 45.3217 150.9488 0.0000 0.0000 0.0000
# 4 0.0000 0.0000 0.0000 101.5413 0.0000 0.0000
# 5 0.0000 0.0000 0.0000 0.0000 18.6003 0.0000
# 6 0.0000 0.0000 0.0000 0.0000 0.0000 21.5312
#
#
#
# Elastic Compliance Matrix: (Units=1/GPa)
#
#
# Indices 1 2 3 4 5 6 
#
# 1 0.013811 -0.000456 -0.003038 0.000000 0.000000 0.000000
# 2 -0.000456 0.024387 -0.007217 0.000000 0.000000 0.000000
# 3 -0.003038 -0.007217 0.009490 0.000000 0.000000 0.000000
# 4 0.000000 0.000000 0.000000 0.009848 0.000000 0.000000
# 5 0.000000 0.000000 0.000000 0.000000 0.053763 0.000000
# 6 0.000000 0.000000 0.000000 0.000000 0.000000 0.046444
#
#
# Mechanical properties :
#
#
# Convention : Reuss Voigt Hill
#
# Bulk Modulus (GPa) = 38.07220 52.17768 45.12494
# Shear Modulus (GPa) = 26.60700 41.28264 33.94482
#
# Velocity S-wave (km/s) = 3.42122 4.26155 3.86429
# Velocity P-wave (km/s) = 5.68813 6.86790 6.30566
#
# Compressibility (1/GPa) = 0.02626588
#
# Stress axis : x y z
#
# Youngs Moduli (GPa) = 72.40572 41.00565 105.37405
#
# Poissons Ratio (x) = 0.01870 0.32011
# Poissons Ratio (y) = 0.03302 0.76051
# Poissons Ratio (z) = 0.21996 0.29595
#
# Static dielectric constant tensor:
#      x y z
#    x 2.018300 0.000000 0.000000 
#    y 0.000000 1.858910 0.000000 
#    z 0.000000 0.000000 1.952440 
# 
# From -- ./inp_files/17242.got.cif
#   From: 2010.05.17/outbox.cif.g08.bks.cpg/sg43_9_cif.got.tgz:17242.got - 2010.06.03 19:21:55.
