data_PCOD9371575
_publ_section_title
;
Structure prediction by ZEFSAII (Michael W. Deem and Ramdas Pophale) SiO2 
 PCOD9371575
Probable space group: F D D 2
;
_chemical_formula_sum "Si O2"
_cell_formula_units_Z 96
_cell_length_a 19.081775
_cell_length_b 9.269227
_cell_length_c 23.400289
_cell_angle_alpha 90.000000
_cell_angle_beta 90.000000
_cell_angle_gamma 90.000000
_cell_volume 4138.886431
_symmetry_space_group_name_H-M "F D D 2"
_symmetry_group_IT_number 43
_symmetry_cell_setting 'orthorhombic'
loop_
_space_group_symop_operation_xyz
x,y,z
-x,-y,z
1/4-x,1/4+y,1/4+z
1/4+x,1/4-y,1/4+z
x,1/2+y,1/2+z
-x,1/2-y,1/2+z
1/4-x,3/4+y,3/4+z
1/4+x,3/4-y,3/4+z
1/2+x,y,1/2+z
1/2-x,-y,1/2+z
3/4-x,1/4+y,3/4+z
3/4+x,1/4-y,3/4+z
1/2+x,1/2+y,z
1/2-x,1/2-y,z
3/4-x,3/4+y,1/4+z
3/4+x,3/4-y,1/4+z
loop_
_atom_site_type_symbol
_atom_site_label
_atom_site_fract_x
_atom_site_fract_y
_atom_site_fract_z
Si Si1 0.987693 0.230078 0.776400
Si Si2 0.208054 0.890597 0.914934
Si Si3 0.015492 0.163390 0.510388
Si Si4 0.666132 0.934454 0.879601
Si Si5 0.639218 0.787732 0.992733
Si Si6 0.421629 0.268922 0.393305
O O1 0.962070 0.355323 0.733780
O O2 0.976332 0.266061 0.842143
O O3 0.066543 0.176672 0.764495
O O4 0.935912 0.098692 0.759438
O O5 0.250000 0.750000 0.894199
O O6 0.253766 0.028680 0.898666
O O7 0.131740 0.865971 0.890044
O O8 0.937540 0.225717 0.520026
O O9 0.069648 0.158257 0.562917
O O10 0.046755 0.241603 0.455913
O O11 0.000000 0.000000 0.492568
O O12 0.620356 0.079279 0.888526
O O13 0.637077 0.815159 0.923761
#
# Coordination Sequence:
#
# PCOD9371575 Si02
#       6
#    16  16  16  16  16  16
#     4  10  22  42  68  89 135 168 218 277 327 404
#     4   9  20  39  67  92 121 173 214 263 332 384
#     4  12  25  40  65  98 133 171 222 277 334 405
#     4  10  22  42  68  91 134 169 221 278 329 403
#     4  10  23  46  61 103 127 178 223 270 352 395
#     4  11  22  43  62  99 127 168 226 267 327 401
#
# _framework density 23.194645999999999
#
# number of rings (size 3 to 8) (size 9 to 14) (size 15 to 20)
#    0.000    1.667    1.667    2.000    4.667    2.000 
#    6.000    1.667    0.000    0.000    0.000    0.000 
#    0.000    0.000    0.000    0.000    0.000    0.000 
#
# Total GULP energy -134039.104797 kJ/mol
# GULP energy per Si atom -5584.962700 kJ/mol
# Density = 2.314185 g / cm^3
# Si number density = 23.194646 Si / 1000 Ang^3
#
#
#
# Elastic Constant Matrix: (Units=GPa)
#
#
# Indices 1 2 3 4 5 6 
#
# 1 83.9552 4.7662 26.3349 0.0000 0.0000 0.0000
# 2 4.7662 26.5781 -10.6721 0.0000 0.0000 0.0000
# 3 26.3349 -10.6721 128.4865 0.0000 0.0000 0.0000
# 4 0.0000 0.0000 0.0000 25.6928 0.0000 0.0000
# 5 0.0000 0.0000 0.0000 0.0000 29.5443 0.0000
# 6 0.0000 0.0000 0.0000 0.0000 0.0000 18.9605
#
#
#
# Elastic Compliance Matrix: (Units=1/GPa)
#
#
# Indices 1 2 3 4 5 6 
#
# 1 0.013042 -0.003530 -0.002966 0.000000 0.000000 0.000000
# 2 -0.003530 0.039879 0.004036 0.000000 0.000000 0.000000
# 3 -0.002966 0.004036 0.008726 0.000000 0.000000 0.000000
# 4 0.000000 0.000000 0.000000 0.038921 0.000000 0.000000
# 5 0.000000 0.000000 0.000000 0.000000 0.033847 0.000000
# 6 0.000000 0.000000 0.000000 0.000000 0.000000 0.052741
#
#
# Mechanical properties :
#
#
# Convention : Reuss Voigt Hill
#
# Bulk Modulus (GPa) = 17.62863 31.09752 24.36308
# Shear Modulus (GPa) = 23.69827 29.41227 26.55527
#
# Velocity S-wave (km/s) = 3.19989 3.56485 3.38729
# Velocity P-wave (km/s) = 4.61186 5.51185 5.08182
#
# Compressibility (1/GPa) = 0.05672590
#
# Stress axis : x y z
#
# Youngs Moduli (GPa) = 76.67555 25.07614 114.59851
#
# Poissons Ratio (x) = 0.08852 0.33993
# Poissons Ratio (y) = 0.27066 -0.46250
# Poissons Ratio (z) = 0.22744 -0.10120
#
# Static dielectric constant tensor:
#      x y z
#    x 1.906010 0.000000 0.000000 
#    y 0.000000 1.862850 0.000000 
#    z 0.000000 0.000000 1.945840 
# 
# From -- ./inp_files/17126.got.cif
#   From: 2010.05.17/outbox.cif.g08.bks.cpg/sg43_9_cif.got.tgz:17126.got - 2010.06.03 19:21:55.
