data_PCOD9371858
_publ_section_title
;
Structure prediction by ZEFSAII (Michael W. Deem and Ramdas Pophale) SiO2 
 PCOD9371858
Probable space group: F D D 2
;
_chemical_formula_sum "Si O2"
_cell_formula_units_Z 56
_cell_length_a 31.001515
_cell_length_b 4.949023
_cell_length_c 15.173921
_cell_angle_alpha 90.000000
_cell_angle_beta 90.000000
_cell_angle_gamma 90.000000
_cell_volume 2328.092375
_symmetry_space_group_name_H-M "F D D 2"
_symmetry_group_IT_number 43
_symmetry_cell_setting 'orthorhombic'
loop_
_space_group_symop_operation_xyz
x,y,z
-x,-y,z
1/4-x,1/4+y,1/4+z
1/4+x,1/4-y,1/4+z
x,1/2+y,1/2+z
-x,1/2-y,1/2+z
1/4-x,3/4+y,3/4+z
1/4+x,3/4-y,3/4+z
1/2+x,y,1/2+z
1/2-x,-y,1/2+z
3/4-x,1/4+y,3/4+z
3/4+x,1/4-y,3/4+z
1/2+x,1/2+y,z
1/2-x,1/2-y,z
3/4-x,3/4+y,1/4+z
3/4+x,3/4-y,1/4+z
loop_
_atom_site_type_symbol
_atom_site_label
_atom_site_fract_x
_atom_site_fract_y
_atom_site_fract_z
Si Si1 0.412320 0.285200 0.227820
Si Si2 0.027378 0.256877 0.958361
Si Si3 0.250000 0.250000 0.532466
Si Si4 0.365892 0.833499 0.294025
O O1 0.461419 0.378112 0.227046
O O2 0.383219 0.550475 0.253730
O O3 0.403444 0.099944 0.142001
O O4 0.402362 0.064834 0.302044
O O5 0.000000 0.500000 0.999512
O O6 0.021777 0.296092 0.853047
O O7 0.076629 0.295254 0.985421
O O8 0.000000 0.000000 0.985224
#
# Coordination Sequence:
#
# PCOD9371858 Si02
#       4
#    16  16   8  16
#     4  12  27  45  74 104 146 192 247 305 369 449
#     4  10  23  42  73  96 141 182 240 294 370 434
#     4  10  26  44  70 104 142 184 246 300 376 434
#     4  12  26  48  71 105 145 194 247 302 374 441
#
# _framework density 24.054030000000001
#
# number of rings (size 3 to 8) (size 9 to 14) (size 15 to 20)
#    0.857    0.000    0.000    6.857   10.000    0.000 
#    0.000    0.000    0.000    0.000    0.000    0.000 
#    0.000    0.000    0.000    0.000    0.000    0.000 
#
# Total GULP energy -78096.631929 kJ/mol
# GULP energy per Si atom -5578.330852 kJ/mol
# Density = 2.399928 g / cm^3
# Si number density = 24.054030 Si / 1000 Ang^3
#
#
#
# Elastic Constant Matrix: (Units=GPa)
#
#
# Indices 1 2 3 4 5 6 
#
# 1 147.4607 40.0476 17.2511 0.0000 -0.0001 0.0000
# 2 40.0476 157.6915 7.4978 -0.0004 0.0002 0.0005
# 3 17.2511 7.4978 54.2516 -0.0002 0.0000 0.0001
# 4 0.0000 -0.0004 -0.0002 27.2340 0.0001 0.0002
# 5 -0.0001 0.0002 0.0000 0.0001 32.8847 0.0002
# 6 0.0000 0.0005 0.0001 0.0002 0.0002 43.6818
#
#
#
# Elastic Compliance Matrix: (Units=1/GPa)
#
#
# Indices 1 2 3 4 5 6 
#
# 1 0.007523 -0.001809 -0.002142 0.000000 0.000000 0.000000
# 2 -0.001809 0.006818 -0.000367 0.000000 0.000000 0.000000
# 3 -0.002142 -0.000367 0.019165 0.000000 0.000000 0.000000
# 4 0.000000 0.000000 0.000000 0.036719 0.000000 0.000000
# 5 0.000000 0.000000 0.000000 0.000000 0.030409 0.000000
# 6 0.000000 0.000000 0.000000 0.000000 0.000000 0.022893
#
#
# Mechanical properties :
#
#
# Convention : Reuss Voigt Hill
#
# Bulk Modulus (GPa) = 40.20953 54.33299 47.27126
# Shear Modulus (GPa) = 35.59894 40.40057 37.99976
#
# Velocity S-wave (km/s) = 3.85120 4.10271 3.97894
# Velocity P-wave (km/s) = 6.04386 6.71416 6.38781
#
# Compressibility (1/GPa) = 0.02486973
#
# Stress axis : x y z
#
# Youngs Moduli (GPa) = 132.92004 146.66386 52.17958
#
# Poissons Ratio (x) = 0.26528 0.11179
# Poissons Ratio (y) = 0.24042 0.01916
# Poissons Ratio (z) = 0.28476 0.05385
#
# Static dielectric constant tensor:
#      x y z
#    x 1.979090 0.000000 0.000000 
#    y 0.000000 1.906930 0.000000 
#    z 0.000000 0.000000 2.041250 
# 
# From -- ./inp_files/8626.got.cif
#   From: 2010.05.17/outbox.cif.g08.bks.cpg/sg43_5_cif.got.tgz:8626.got - 2010.06.03 19:21:55.
