data_PCOD9371171
_publ_section_title
;
Structure prediction by ZEFSAII (Michael W. Deem and Ramdas Pophale) SiO2 
 PCOD9371171
Probable space group: F D D 2
;
_chemical_formula_sum "Si O2"
_cell_formula_units_Z 104
_cell_length_a 8.837291
_cell_length_b 30.986146
_cell_length_c 18.812167
_cell_angle_alpha 90.000000
_cell_angle_beta 90.000000
_cell_angle_gamma 90.000000
_cell_volume 5151.403210
_symmetry_space_group_name_H-M "F D D 2"
_symmetry_group_IT_number 43
_symmetry_cell_setting 'orthorhombic'
loop_
_space_group_symop_operation_xyz
x,y,z
-x,-y,z
1/4-x,1/4+y,1/4+z
1/4+x,1/4-y,1/4+z
x,1/2+y,1/2+z
-x,1/2-y,1/2+z
1/4-x,3/4+y,3/4+z
1/4+x,3/4-y,3/4+z
1/2+x,y,1/2+z
1/2-x,-y,1/2+z
3/4-x,1/4+y,3/4+z
3/4+x,1/4-y,3/4+z
1/2+x,1/2+y,z
1/2-x,1/2-y,z
3/4-x,3/4+y,1/4+z
3/4+x,3/4-y,1/4+z
loop_
_atom_site_type_symbol
_atom_site_label
_atom_site_fract_x
_atom_site_fract_y
_atom_site_fract_z
Si Si1 0.000000 0.500000 0.294840
Si Si2 0.847334 0.521090 0.993843
Si Si3 0.918769 0.167647 0.504234
Si Si4 0.813477 0.203063 0.800936
Si Si5 0.856481 0.552049 0.421509
Si Si6 0.165267 0.898612 0.394174
Si Si7 0.599453 0.384817 0.147396
O O1 0.894708 0.466122 0.253243
O O2 0.901640 0.530975 0.346632
O O3 0.746937 0.482497 0.962597
O O4 0.872032 0.555836 0.931616
O O5 0.000000 0.500000 0.021031
O O6 0.743913 0.544503 0.051818
O O7 0.810046 0.135679 0.458647
O O8 0.955230 0.153287 0.585174
O O9 0.078522 0.160487 0.463991
O O10 0.750000 0.250000 0.821521
O O11 0.756675 0.194117 0.720041
O O12 0.740671 0.167039 0.848434
O O13 0.760485 0.595481 0.416298
O O14 0.004939 0.882642 0.361298
#
# Coordination Sequence:
#
# PCOD9371171 Si02
#       7
#     8  16  16  16  16  16  16
#     4  12  22  42  72  98 144 180 242 298 356 424
#     4  11  19  38  66 104 124 182 230 277 336 421
#     4  10  23  42  67 101 141 185 234 303 353 436
#     4  10  22  41  64  94 139 172 229 280 343 417
#     4  11  20  40  68  94 134 185 224 283 335 426
#     4  10  21  40  67  99 136 175 234 287 343 433
#     4  10  23  37  69  97 138 178 232 286 357 414
#
# _framework density 20.188673000000001
#
# number of rings (size 3 to 8) (size 9 to 14) (size 15 to 20)
#    0.923    0.615    5.385    0.923    2.154    0.000 
#    0.000    6.923    0.000    0.000    0.000    0.000 
#    0.000    0.000    0.000    0.000    0.000    0.000 
#
# Total GULP energy -144955.032458 kJ/mol
# GULP energy per Si atom -5575.193556 kJ/mol
# Density = 2.014272 g / cm^3
# Si number density = 20.188673 Si / 1000 Ang^3
#
#
#
# Elastic Constant Matrix: (Units=GPa)
#
#
# Indices 1 2 3 4 5 6 
#
# 1 89.9876 53.2531 28.7878 0.0000 0.0000 0.0000
# 2 53.2531 145.9722 53.9956 0.0000 0.0000 0.0000
# 3 28.7878 53.9956 58.3517 0.0000 0.0000 0.0000
# 4 0.0000 0.0000 0.0000 26.0018 0.0000 0.0000
# 5 0.0000 0.0000 0.0000 0.0000 13.0950 0.0000
# 6 0.0000 0.0000 0.0000 0.0000 0.0000 40.9789
#
#
#
# Elastic Compliance Matrix: (Units=1/GPa)
#
#
# Indices 1 2 3 4 5 6 
#
# 1 0.014618 -0.004052 -0.003462 0.000000 0.000000 0.000000
# 2 -0.004052 0.011539 -0.008679 0.000000 0.000000 0.000000
# 3 -0.003462 -0.008679 0.026876 0.000000 0.000000 0.000000
# 4 0.000000 0.000000 0.000000 0.038459 0.000000 0.000000
# 5 0.000000 0.000000 0.000000 0.000000 0.076365 0.000000
# 6 0.000000 0.000000 0.000000 0.000000 0.000000 0.024403
#
#
# Mechanical properties :
#
#
# Convention : Reuss Voigt Hill
#
# Bulk Modulus (GPa) = 48.43160 62.93161 55.68161
# Shear Modulus (GPa) = 21.59558 26.56681 24.08120
#
# Velocity S-wave (km/s) = 3.27416 3.63151 3.45745
# Velocity P-wave (km/s) = 6.19153 6.98736 6.60145
#
# Compressibility (1/GPa) = 0.02064768
#
# Stress axis : x y z
#
# Youngs Moduli (GPa) = 68.40730 86.66088 37.20764
#
# Poissons Ratio (x) = 0.35118 0.12882
# Poissons Ratio (y) = 0.27721 0.32291
# Poissons Ratio (z) = 0.23683 0.75209
#
# Static dielectric constant tensor:
#      x y z
#    x 1.759230 0.000000 0.000000 
#    y 0.000000 1.708420 0.000000 
#    z 0.000000 0.000000 1.741100 
# 
# From -- ./inp_files/16649.got.cif
#   From: 2010.05.17/outbox.cif.g08.bks.cpg/sg43_9_cif.got.tgz:16649.got - 2010.06.03 19:21:55.
