data_PCOD9371678
_publ_section_title
;
Structure prediction by ZEFSAII (Michael W. Deem and Ramdas Pophale) SiO2 
 PCOD9371678
Probable space group: F D D 2
;
_chemical_formula_sum "Si O2"
_cell_formula_units_Z 72
_cell_length_a 21.439685
_cell_length_b 8.042334
_cell_length_c 18.779804
_cell_angle_alpha 90.000000
_cell_angle_beta 90.000000
_cell_angle_gamma 90.000000
_cell_volume 3238.109726
_symmetry_space_group_name_H-M "F D D 2"
_symmetry_group_IT_number 43
_symmetry_cell_setting 'orthorhombic'
loop_
_space_group_symop_operation_xyz
x,y,z
-x,-y,z
1/4-x,1/4+y,1/4+z
1/4+x,1/4-y,1/4+z
x,1/2+y,1/2+z
-x,1/2-y,1/2+z
1/4-x,3/4+y,3/4+z
1/4+x,3/4-y,3/4+z
1/2+x,y,1/2+z
1/2-x,-y,1/2+z
3/4-x,1/4+y,3/4+z
3/4+x,1/4-y,3/4+z
1/2+x,1/2+y,z
1/2-x,1/2-y,z
3/4-x,3/4+y,1/4+z
3/4+x,3/4-y,1/4+z
loop_
_atom_site_type_symbol
_atom_site_label
_atom_site_fract_x
_atom_site_fract_y
_atom_site_fract_z
Si Si1 0.377267 0.006847 0.337840
Si Si2 0.394857 0.881045 0.844003
Si Si3 0.750000 0.750000 0.487461
Si Si4 0.730896 0.502998 0.360838
Si Si5 0.382196 0.944269 0.174555
O O1 0.400660 0.187730 0.362524
O O2 0.396591 0.971527 0.256744
O O3 0.301314 0.010267 0.335762
O O4 0.397968 0.857924 0.389870
O O5 0.443685 0.934775 0.784872
O O6 0.323359 0.904339 0.815974
O O7 0.402174 0.019281 0.906847
O O8 0.729908 0.601989 0.435717
O O9 0.695174 0.333380 0.378966
#
# Coordination Sequence:
#
# PCOD9371678 Si02
#       5
#    16  16   8  16  16
#     4  12  21  45  74 100 141 191 240 297 363 440
#     4  10  25  41  67 100 138 182 236 290 362 430
#     4  12  20  48  70 100 144 192 224 306 374 418
#     4  10  22  44  68  99 138 187 230 298 356 430
#     4  10  25  41  68 107 135 183 238 293 359 434
#
# _framework density 22.235195999999998
#
# number of rings (size 3 to 8) (size 9 to 14) (size 15 to 20)
#    1.333    0.000    2.222    3.333    0.000    0.000 
#    8.000    5.556    0.000    0.000    0.000    0.000 
#    0.000    0.000    0.000    0.000    0.000    0.000 
#
# Total GULP energy -100300.734618 kJ/mol
# GULP energy per Si atom -5572.263034 kJ/mol
# Density = 2.218459 g / cm^3
# Si number density = 22.235196 Si / 1000 Ang^3
#
#
#
# Elastic Constant Matrix: (Units=GPa)
#
#
# Indices 1 2 3 4 5 6 
#
# 1 50.4713 -15.1120 -7.7117 0.0000 0.0000 0.0000
# 2 -15.1120 140.1659 17.2490 0.0000 0.0000 0.0000
# 3 -7.7117 17.2490 35.6539 0.0000 0.0000 0.0000
# 4 0.0000 0.0000 0.0000 -206.5767 0.0000 0.0000
# 5 0.0000 0.0000 0.0000 0.0000 32.6598 0.0000
# 6 0.0000 0.0000 0.0000 0.0000 0.0000 20.3602
#
#
#
# Elastic Compliance Matrix: (Units=1/GPa)
#
#
# Indices 1 2 3 4 5 6 
#
# 1 0.020911 0.001805 0.003650 0.000000 0.000000 0.000000
# 2 0.001805 0.007742 -0.003355 0.000000 0.000000 0.000000
# 3 0.003650 -0.003355 0.030460 0.000000 0.000000 0.000000
# 4 0.000000 0.000000 0.000000 -0.004841 0.000000 0.000000
# 5 0.000000 0.000000 0.000000 0.000000 0.030619 0.000000
# 6 0.000000 0.000000 0.000000 0.000000 0.000000 0.049116
#
#
# Mechanical properties :
#
#
# Convention : Reuss Voigt Hill
#
# Bulk Modulus (GPa) = 15.79446 23.90463 19.84954
# Shear Modulus (GPa) = 33.13213 -15.25363 8.93925
#
# Velocity S-wave (km/s) = 3.86434 -2.62203 2.00725
# Velocity P-wave (km/s) = 5.19900 1.26785 3.78398
#
# Compressibility (1/GPa) = 0.06331334
#
# Stress axis : x y z
#
# Youngs Moduli (GPa) = 47.82068 129.16684 32.83009
#
# Poissons Ratio (x) = -0.23320 -0.11982
# Poissons Ratio (y) = -0.08634 0.11014
# Poissons Ratio (z) = -0.17452 0.43335
#
# Static dielectric constant tensor:
#      x y z
#    x 1.918420 0.000000 0.000000 
#    y 0.000000 1.915920 0.000000 
#    z 0.000000 0.000000 1.782140 
# 
# From -- ./inp_files/16286.got.cif
#   From: 2010.05.17/outbox.cif.g08.bks.cpg/sg43_9_cif.got.tgz:16286.got - 2010.06.03 19:21:55.
