data_PCOD9371421
_publ_section_title
;
Structure prediction by ZEFSAII (Michael W. Deem and Ramdas Pophale) SiO2 
 PCOD9371421
Probable space group: F D D 2
;
_chemical_formula_sum "Si O2"
_cell_formula_units_Z 120
_cell_length_a 22.509061
_cell_length_b 18.225354
_cell_length_c 12.535598
_cell_angle_alpha 90.000000
_cell_angle_beta 90.000000
_cell_angle_gamma 90.000000
_cell_volume 5142.548629
_symmetry_space_group_name_H-M "F D D 2"
_symmetry_group_IT_number 43
_symmetry_cell_setting 'orthorhombic'
loop_
_space_group_symop_operation_xyz
x,y,z
-x,-y,z
1/4-x,1/4+y,1/4+z
1/4+x,1/4-y,1/4+z
x,1/2+y,1/2+z
-x,1/2-y,1/2+z
1/4-x,3/4+y,3/4+z
1/4+x,3/4-y,3/4+z
1/2+x,y,1/2+z
1/2-x,-y,1/2+z
3/4-x,1/4+y,3/4+z
3/4+x,1/4-y,3/4+z
1/2+x,1/2+y,z
1/2-x,1/2-y,z
3/4-x,3/4+y,1/4+z
3/4+x,3/4-y,1/4+z
loop_
_atom_site_type_symbol
_atom_site_label
_atom_site_fract_x
_atom_site_fract_y
_atom_site_fract_z
Si Si1 0.269961 0.663811 0.929050
Si Si2 0.607339 0.052070 0.503390
Si Si3 0.693532 0.542798 0.668496
Si Si4 0.813588 0.284374 0.199624
Si Si5 0.567184 0.680495 0.374103
Si Si6 0.663109 0.693582 0.941395
Si Si7 0.500000 0.500000 0.857082
Si Si8 0.339642 0.930569 0.933133
O O1 0.250000 0.750000 0.933077
O O2 0.327821 0.659254 0.855908
O O3 0.215938 0.613326 0.883525
O O4 0.287172 0.627193 0.041494
O O5 0.644563 0.109455 0.435111
O O6 0.551407 0.029362 0.432631
O O7 0.646491 0.986859 0.551104
O O8 0.682005 0.628765 0.686013
O O9 0.763547 0.531456 0.688781
O O10 0.645233 0.491095 0.724147
O O11 0.684822 0.533081 0.541207
O O12 0.750000 0.250000 0.170647
O O13 0.818803 0.273482 0.327478
O O14 0.867717 0.244373 0.137754
O O15 0.611879 0.634457 0.447776
O O16 0.715792 0.696391 0.026546
#
# Coordination Sequence:
#
# PCOD9371421 Si02
#       8
#    16  16  16  16  16  16   8  16
#     4  11  23  43  65  98 137 173 229 283 344 421
#     4  12  25  45  70  96 137 185 232 284 347 425
#     4  10  24  43  66 104 137 174 235 288 353 421
#     4  11  21  43  69 100 134 174 227 284 356 415
#     4  11  23  41  69 102 135 178 230 285 356 417
#     4  11  26  45  68  97 136 183 232 286 345 421
#     4  12  24  46  68  96 134 180 228 282 352 406
#     4  10  22  39  65 103 132 176 214 283 348 414
#
# _framework density 23.334734000000001
#
# number of rings (size 3 to 8) (size 9 to 14) (size 15 to 20)
#    0.000    1.067    4.000    1.600    5.600    0.000 
#    4.800    0.000    0.000    0.000    0.000    0.000 
#    0.000    0.000    0.000    0.000    0.000    0.000 
#
# Total GULP energy -167488.809625 kJ/mol
# GULP energy per Si atom -5582.960321 kJ/mol
# Density = 2.328162 g / cm^3
# Si number density = 23.334734 Si / 1000 Ang^3
#
#
#
# Elastic Constant Matrix: (Units=GPa)
#
#
# Indices 1 2 3 4 5 6 
#
# 1 102.6990 38.0242 5.0502 0.0000 0.0000 0.0000
# 2 38.0242 98.9945 9.4457 0.0000 0.0000 0.0000
# 3 5.0502 9.4457 30.9542 0.0000 0.0000 0.0000
# 4 0.0000 0.0000 0.0000 -40.8094 0.0000 0.0000
# 5 0.0000 0.0000 0.0000 0.0000 19.9597 0.0000
# 6 0.0000 0.0000 0.0000 0.0000 0.0000 -6.7289
#
#
#
# Elastic Compliance Matrix: (Units=1/GPa)
#
#
# Indices 1 2 3 4 5 6 
#
# 1 0.011360 -0.004312 -0.000538 0.000000 0.000000 0.000000
# 2 -0.004312 0.012041 -0.002971 0.000000 0.000000 0.000000
# 3 -0.000538 -0.002971 0.033300 0.000000 0.000000 0.000000
# 4 0.000000 0.000000 0.000000 -0.024504 0.000000 0.000000
# 5 0.000000 0.000000 0.000000 0.000000 0.050101 0.000000
# 6 0.000000 0.000000 0.000000 0.000000 0.000000 -0.148612
#
#
# Mechanical properties :
#
#
# Convention : Reuss Voigt Hill
#
# Bulk Modulus (GPa) = 24.35442 37.52089 30.93766
# Shear Modulus (GPa) = -135.18736 6.49278 -64.34729
#
# Velocity S-wave (km/s) = -7.61969 1.66988 -5.25696
# Velocity P-wave (km/s) = 8.18250 4.45335 4.85392
#
# Compressibility (1/GPa) = 0.04106031
#
# Stress axis : x y z
#
# Youngs Moduli (GPa) = 88.02640 83.04696 30.03000
#
# Poissons Ratio (x) = 0.35812 0.01614
# Poissons Ratio (y) = 0.37959 0.08922
# Poissons Ratio (z) = 0.04732 0.24672
#
# Static dielectric constant tensor:
#      x y z
#    x 1.919250 0.000000 0.000000 
#    y 0.000000 1.886580 0.000000 
#    z 0.000000 0.000000 1.960920 
# 
# From -- ./inp_files/11320.got.cif
#   From: 2010.05.17/outbox.cif.g08.bks.cpg/sg43_6_cif.got.tgz:11320.got - 2010.06.03 19:21:55.
