data_PCOD9371638
_publ_section_title
;
Structure prediction by ZEFSAII (Michael W. Deem and Ramdas Pophale) SiO2 
 PCOD9371638
Probable space group: F D D 2
;
_chemical_formula_sum "Si O2"
_cell_formula_units_Z 64
_cell_length_a 7.728436
_cell_length_b 26.693302
_cell_length_c 12.455278
_cell_angle_alpha 90.000000
_cell_angle_beta 90.000000
_cell_angle_gamma 90.000000
_cell_volume 2569.492416
_symmetry_space_group_name_H-M "F D D 2"
_symmetry_group_IT_number 43
_symmetry_cell_setting 'orthorhombic'
loop_
_space_group_symop_operation_xyz
x,y,z
-x,-y,z
1/4-x,1/4+y,1/4+z
1/4+x,1/4-y,1/4+z
x,1/2+y,1/2+z
-x,1/2-y,1/2+z
1/4-x,3/4+y,3/4+z
1/4+x,3/4-y,3/4+z
1/2+x,y,1/2+z
1/2-x,-y,1/2+z
3/4-x,1/4+y,3/4+z
3/4+x,1/4-y,3/4+z
1/2+x,1/2+y,z
1/2-x,1/2-y,z
3/4-x,3/4+y,1/4+z
3/4+x,3/4-y,1/4+z
loop_
_atom_site_type_symbol
_atom_site_label
_atom_site_fract_x
_atom_site_fract_y
_atom_site_fract_z
Si Si1 0.649938 0.157645 0.047290
Si Si2 0.734972 0.808056 0.094516
Si Si3 0.100061 0.592355 0.576647
Si Si4 0.265029 0.808056 0.279421
O O1 0.452099 0.176091 0.049712
O O2 0.734203 0.183481 0.150652
O O3 0.628437 0.097795 0.067722
O O4 0.750000 0.166834 0.936968
O O5 0.750000 0.750000 0.069550
O O6 0.878438 0.847795 0.056214
O O7 0.734205 0.816519 0.223285
O O8 0.297900 0.573909 0.574225
O O9 0.250000 0.750000 0.304387
#
# Coordination Sequence:
#
# PCOD9371638 Si02
#       4
#    16  16  16  16
#     4  10  22  43  69 103 143 189 238 297 364 435
#     4  10  23  44  68 105 146 180 243 302 351 444
#     4  10  22  43  69 103 143 189 238 297 364 435
#     4  10  23  44  68 105 146 180 243 302 351 444
#
# _framework density 24.907644000000001
#
# number of rings (size 3 to 8) (size 9 to 14) (size 15 to 20)
#    0.000    2.000    0.000    1.500    7.000    1.000 
#    9.000   17.500    0.000    0.000    0.000    0.000 
#    0.000    0.000    0.000    0.000    0.000    0.000 
#
# Total GULP energy -89636.092392 kJ/mol
# GULP energy per Si atom -5602.255774 kJ/mol
# Density = 2.485095 g / cm^3
# Si number density = 24.907644 Si / 1000 Ang^3
#
#
#
# Elastic Constant Matrix: (Units=GPa)
#
#
# Indices 1 2 3 4 5 6 
#
# 1 79.2495 24.1268 41.5027 0.0000 0.0000 0.0000
# 2 24.1268 190.9635 39.2622 0.0000 0.0000 0.0000
# 3 41.5027 39.2622 159.9382 0.0000 0.0000 0.0000
# 4 0.0000 0.0000 0.0000 39.6335 0.0000 0.0000
# 5 0.0000 0.0000 0.0000 0.0000 37.0391 0.0000
# 6 0.0000 0.0000 0.0000 0.0000 0.0000 17.8515
#
#
#
# Elastic Compliance Matrix: (Units=1/GPa)
#
#
# Indices 1 2 3 4 5 6 
#
# 1 0.014835 -0.001140 -0.003570 0.000000 0.000000 0.000000
# 2 -0.001140 0.005603 -0.001079 0.000000 0.000000 0.000000
# 3 -0.003570 -0.001079 0.007444 0.000000 0.000000 0.000000
# 4 0.000000 0.000000 0.000000 0.025231 0.000000 0.000000
# 5 0.000000 0.000000 0.000000 0.000000 0.026998 0.000000
# 6 0.000000 0.000000 0.000000 0.000000 0.000000 0.056018
#
#
# Mechanical properties :
#
#
# Convention : Reuss Voigt Hill
#
# Bulk Modulus (GPa) = 61.34063 71.10388 66.22225
# Shear Modulus (GPa) = 32.64950 40.58878 36.61914
#
# Velocity S-wave (km/s) = 3.62446 4.04117 3.83847
# Velocity P-wave (km/s) = 6.49587 7.09815 6.80368
#
# Compressibility (1/GPa) = 0.01630241
#
# Stress axis : x y z
#
# Youngs Moduli (GPa) = 67.40841 178.48818 134.34211
#
# Poissons Ratio (x) = 0.20354 0.47955
# Poissons Ratio (y) = 0.07687 0.14501
# Poissons Ratio (z) = 0.24062 0.19267
#
# Static dielectric constant tensor:
#      x y z
#    x 2.037230 0.000000 0.000000 
#    y 0.000000 1.951800 0.000000 
#    z 0.000000 0.000000 1.985900 
# 
# From -- ./inp_files/9000.got.cif
#   From: 2010.05.17/outbox.cif.g08.bks.cpg/sg43_5_cif.got.tgz:9000.got - 2010.06.03 19:21:55.
