data_PCOD9371422
_publ_section_title
;
Structure prediction by ZEFSAII (Michael W. Deem and Ramdas Pophale) SiO2 
 PCOD9371422
Probable space group: F D D 2
;
_chemical_formula_sum "Si O2"
_cell_formula_units_Z 104
_cell_length_a 21.120763
_cell_length_b 27.914071
_cell_length_c 7.175586
_cell_angle_alpha 90.000000
_cell_angle_beta 90.000000
_cell_angle_gamma 90.000000
_cell_volume 4230.484965
_symmetry_space_group_name_H-M "F D D 2"
_symmetry_group_IT_number 43
_symmetry_cell_setting 'orthorhombic'
loop_
_space_group_symop_operation_xyz
x,y,z
-x,-y,z
1/4-x,1/4+y,1/4+z
1/4+x,1/4-y,1/4+z
x,1/2+y,1/2+z
-x,1/2-y,1/2+z
1/4-x,3/4+y,3/4+z
1/4+x,3/4-y,3/4+z
1/2+x,y,1/2+z
1/2-x,-y,1/2+z
3/4-x,1/4+y,3/4+z
3/4+x,1/4-y,3/4+z
1/2+x,1/2+y,z
1/2-x,1/2-y,z
3/4-x,3/4+y,1/4+z
3/4+x,3/4-y,1/4+z
loop_
_atom_site_type_symbol
_atom_site_label
_atom_site_fract_x
_atom_site_fract_y
_atom_site_fract_z
Si Si1 0.608966 0.928050 0.359730
Si Si2 0.750000 0.750000 0.482509
Si Si3 0.497562 0.189242 0.758840
Si Si4 0.529197 0.291464 0.862817
Si Si5 0.339225 0.717004 0.657014
Si Si6 0.579398 0.134081 0.265544
Si Si7 0.934960 0.093354 0.260194
O O1 0.680512 0.933241 0.438979
O O2 0.619376 0.895978 0.179461
O O3 0.567459 0.909643 0.533872
O O4 0.585606 0.981307 0.309858
O O5 0.701048 0.777270 0.345915
O O6 0.787617 0.792749 0.580691
O O7 0.496803 0.238748 0.870218
O O8 0.453875 0.197702 0.576448
O O9 0.474122 0.138640 0.834838
O O10 0.589108 0.289869 0.728481
O O11 0.479895 0.331572 0.797541
O O12 0.316738 0.672145 0.536618
O O13 0.613782 0.148566 0.077172
#
# Coordination Sequence:
#
# PCOD9371422 Si02
#       7
#    16   8  16  16  16  16  16
#     4   9  22  44  60  92 129 175 219 269 332 398
#     4  10  22  44  68  96 138 182 218 272 350 400
#     4  10  22  39  65  94 129 175 222 273 331 399
#     4  10  23  40  67  94 133 174 227 275 334 400
#     4  10  22  43  69  89 136 179 217 277 335 405
#     4  11  24  40  67 100 128 170 228 277 336 396
#     4  11  24  41  67  98 134 172 222 275 340 400
#
# _framework density 24.583470999999999
#
# number of rings (size 3 to 8) (size 9 to 14) (size 15 to 20)
#    0.000    1.846    0.000    2.769   12.923    1.231 
#    0.000    4.615    0.000    0.000    0.000    0.000 
#    0.000    0.000    0.000    0.000    0.000    0.000 
#
# Total GULP energy -145501.222314 kJ/mol
# GULP energy per Si atom -5596.200858 kJ/mol
# Density = 2.452752 g / cm^3
# Si number density = 24.583471 Si / 1000 Ang^3
#
#
#
# Elastic Constant Matrix: (Units=GPa)
#
#
# Indices 1 2 3 4 5 6 
#
# 1 76.4283 40.0484 5.3783 -0.0049 0.0088 0.0037
# 2 40.0484 168.2600 35.1893 -0.0030 0.0041 0.0018
# 3 5.3783 35.1893 46.9655 -0.0057 0.0128 0.0045
# 4 -0.0049 -0.0030 -0.0057 22.7788 0.0049 0.0018
# 5 0.0088 0.0041 0.0128 0.0049 11.4339 -0.0038
# 6 0.0037 0.0018 0.0045 0.0018 -0.0038 36.2171
#
#
#
# Elastic Compliance Matrix: (Units=1/GPa)
#
#
# Indices 1 2 3 4 5 6 
#
# 1 0.014999 -0.003807 0.001135 0.000003 -0.000011 -0.000001
# 2 -0.003807 0.008014 -0.005569 -0.000001 0.000006 0.000001
# 3 0.001135 -0.005569 0.025335 0.000006 -0.000027 -0.000003
# 4 0.000003 -0.000001 0.000006 0.043900 -0.000019 -0.000002
# 5 -0.000011 0.000006 -0.000027 -0.000019 0.087459 0.000009
# 6 -0.000001 0.000001 -0.000003 -0.000002 0.000009 0.027611
#
#
# Mechanical properties :
#
#
# Convention : Reuss Voigt Hill
#
# Bulk Modulus (GPa) = 31.38130 50.32064 40.85097
# Shear Modulus (GPa) = 21.32899 28.15515 24.74207
#
# Velocity S-wave (km/s) = 2.94873 3.38788 3.17590
# Velocity P-wave (km/s) = 4.93824 5.98476 5.48651
#
# Compressibility (1/GPa) = 0.03186612
#
# Stress axis : x y z
#
# Youngs Moduli (GPa) = 66.66934 124.78151 39.47183
#
# Poissons Ratio (x) = 0.47510 -0.04481
# Poissons Ratio (y) = 0.25384 0.21980
# Poissons Ratio (z) = -0.07568 0.69485
#
# Static dielectric constant tensor:
#      x y z
#    x 1.951250 0.000000 0.000000 
#    y 0.000000 1.956840 0.000000 
#    z 0.000000 0.000000 1.966050 
# 
# From -- ./inp_files/3841.got.cif
#   From: 2010.05.17/outbox.cif.g08.bks.cpg/sg43_2_cif.got.tgz:3841.got - 2010.06.03 19:21:55.
