data_PCOD9371976
_publ_section_title
;
Structure prediction by ZEFSAII (Michael W. Deem and Ramdas Pophale) SiO2 
 PCOD9371976
Probable space group: F D D 2
;
_chemical_formula_sum "Si O2"
_cell_formula_units_Z 80
_cell_length_a 25.831243
_cell_length_b 17.808397
_cell_length_c 7.461730
_cell_angle_alpha 90.000000
_cell_angle_beta 90.000000
_cell_angle_gamma 90.000000
_cell_volume 3432.493029
_symmetry_space_group_name_H-M "F D D 2"
_symmetry_group_IT_number 43
_symmetry_cell_setting 'orthorhombic'
loop_
_space_group_symop_operation_xyz
x,y,z
-x,-y,z
1/4-x,1/4+y,1/4+z
1/4+x,1/4-y,1/4+z
x,1/2+y,1/2+z
-x,1/2-y,1/2+z
1/4-x,3/4+y,3/4+z
1/4+x,3/4-y,3/4+z
1/2+x,y,1/2+z
1/2-x,-y,1/2+z
3/4-x,1/4+y,3/4+z
3/4+x,1/4-y,3/4+z
1/2+x,1/2+y,z
1/2-x,1/2-y,z
3/4-x,3/4+y,1/4+z
3/4+x,3/4-y,1/4+z
loop_
_atom_site_type_symbol
_atom_site_label
_atom_site_fract_x
_atom_site_fract_y
_atom_site_fract_z
Si Si1 0.232973 0.414619 0.033040
Si Si2 0.386723 0.580098 0.158122
Si Si3 0.956524 0.061879 0.505901
Si Si4 0.186537 0.029797 0.309669
Si Si5 0.061878 0.016304 0.849382
O O1 0.272341 0.423297 0.196835
O O2 0.187566 0.356033 0.082702
O O3 0.264940 0.379201 0.864637
O O4 0.211779 0.496423 0.986978
O O5 0.423307 0.581722 0.333437
O O6 0.332142 0.545044 0.209238
O O7 0.388226 0.664863 0.087219
O O8 0.409282 0.523323 0.010039
O O9 0.922681 0.021182 0.660988
O O10 0.000000 0.000000 0.455035
O O11 0.000000 0.000000 0.867744
#
# Coordination Sequence:
#
# PCOD9371976 Si02
#       5
#    16  16  16  16  16
#     4  10  23  47  66 101 137 187 226 279 343 416
#     4  12  25  43  67 106 132 178 228 289 333 404
#     4   9  20  40  72  96 132 175 224 275 342 401
#     4  12  27  43  68 102 140 175 232 279 347 401
#     4   9  19  44  69  96 132 178 225 271 341 403
#
# _framework density 23.306674000000001
#
# number of rings (size 3 to 8) (size 9 to 14) (size 15 to 20)
#    0.000    2.000    4.000    1.800    5.600    3.200 
#    3.600    0.000    0.000    0.000    0.000    0.000 
#    0.000    0.000    0.000    0.000    0.000    0.000 
#
# Total GULP energy -111797.441339 kJ/mol
# GULP energy per Si atom -5589.872067 kJ/mol
# Density = 2.325363 g / cm^3
# Si number density = 23.306674 Si / 1000 Ang^3
#
#
#
# Elastic Constant Matrix: (Units=GPa)
#
#
# Indices 1 2 3 4 5 6 
#
# 1 16.3967 14.7678 7.2984 0.0000 0.0000 0.0000
# 2 14.7678 121.8434 27.2069 0.0000 0.0000 0.0000
# 3 7.2984 27.2069 66.0395 -0.0001 0.0000 0.0000
# 4 0.0000 0.0000 -0.0001 32.2553 0.0000 0.0000
# 5 0.0000 0.0000 0.0000 0.0000 19.6446 0.0000
# 6 0.0000 0.0000 0.0000 0.0000 0.0000 32.1204
#
#
#
# Elastic Compliance Matrix: (Units=1/GPa)
#
#
# Indices 1 2 3 4 5 6 
#
# 1 0.069736 -0.007413 -0.004653 0.000000 0.000000 0.000000
# 2 -0.007413 0.009827 -0.003229 0.000000 0.000000 0.000000
# 3 -0.004653 -0.003229 0.016987 0.000000 0.000000 0.000000
# 4 0.000000 0.000000 0.000000 0.031003 0.000000 0.000000
# 5 0.000000 0.000000 0.000000 0.000000 0.050904 0.000000
# 6 0.000000 0.000000 0.000000 0.000000 0.000000 0.031133
#
#
# Mechanical properties :
#
#
# Convention : Reuss Voigt Hill
#
# Bulk Modulus (GPa) = 15.16088 33.64728 24.40408
# Shear Modulus (GPa) = 19.07187 27.13784 23.10486
#
# Velocity S-wave (km/s) = 2.86370 3.41600 3.15197
# Velocity P-wave (km/s) = 4.17773 5.47968 4.87239
#
# Compressibility (1/GPa) = 0.06595923
#
# Stress axis : x y z
#
# Youngs Moduli (GPa) = 14.33985 101.76236 58.86859
#
# Poissons Ratio (x) = 0.75439 0.27390
# Poissons Ratio (y) = 0.10630 0.19010
# Poissons Ratio (z) = 0.06672 0.32861
#
# Static dielectric constant tensor:
#      x y z
#    x 1.850050 0.000000 0.000000 
#    y 0.000000 1.928700 0.000000 
#    z 0.000000 0.000000 1.883400 
# 
# From -- ./inp_files/4167.got.cif
#   From: 2010.05.17/outbox.cif.g08.bks.cpg/sg43_3_cif.got.tgz:4167.got - 2010.06.03 19:21:55.
