data_PCOD9371500
_publ_section_title
;
Structure prediction by ZEFSAII (Michael W. Deem and Ramdas Pophale) SiO2 
 PCOD9371500
Probable space group: F D D 2
;
_chemical_formula_sum "Si O2"
_cell_formula_units_Z 120
_cell_length_a 20.803505
_cell_length_b 10.752269
_cell_length_c 23.306800
_cell_angle_alpha 90.000000
_cell_angle_beta 90.000000
_cell_angle_gamma 90.000000
_cell_volume 5213.378806
_symmetry_space_group_name_H-M "F D D 2"
_symmetry_group_IT_number 43
_symmetry_cell_setting 'orthorhombic'
loop_
_space_group_symop_operation_xyz
x,y,z
-x,-y,z
1/4-x,1/4+y,1/4+z
1/4+x,1/4-y,1/4+z
x,1/2+y,1/2+z
-x,1/2-y,1/2+z
1/4-x,3/4+y,3/4+z
1/4+x,3/4-y,3/4+z
1/2+x,y,1/2+z
1/2-x,-y,1/2+z
3/4-x,1/4+y,3/4+z
3/4+x,1/4-y,3/4+z
1/2+x,1/2+y,z
1/2-x,1/2-y,z
3/4-x,3/4+y,1/4+z
3/4+x,3/4-y,1/4+z
loop_
_atom_site_type_symbol
_atom_site_label
_atom_site_fract_x
_atom_site_fract_y
_atom_site_fract_z
Si Si1 0.038170 0.314341 0.251990
Si Si2 0.811595 0.681245 0.129357
Si Si3 0.157935 0.369575 0.422159
Si Si4 0.769954 0.437269 0.200766
Si Si5 0.648313 0.826939 0.009965
Si Si6 0.418622 0.218654 0.527514
Si Si7 0.250000 0.250000 0.327975
Si Si8 0.051395 0.593661 0.839759
O O1 0.966099 0.361847 0.245956
O O2 0.046146 0.221833 0.199316
O O3 0.088776 0.428072 0.253098
O O4 0.050895 0.225412 0.306704
O O5 0.750000 0.750000 0.101307
O O6 0.846545 0.797256 0.157508
O O7 0.789098 0.571372 0.171376
O O8 0.858066 0.639649 0.077541
O O9 0.131096 0.284514 0.473753
O O10 0.195461 0.307935 0.369901
O O11 0.838315 0.384614 0.221407
O O12 0.724741 0.440526 0.257052
O O13 0.727271 0.372516 0.151985
O O14 0.370820 0.221098 0.582100
O O15 0.460647 0.094654 0.538360
O O16 0.000000 0.500000 0.811791
#
# Coordination Sequence:
#
# PCOD9371500 Si02
#       8
#    16  16  16  16  16  16   8  16
#     4  10  22  41  65 101 135 179 234 286 342 419
#     4  12  20  36  65  99 135 174 229 299 349 403
#     4  11  24  37  65  97 135 180 223 285 358 398
#     4  12  23  44  69 104 135 187 231 291 362 420
#     4  11  22  39  70  98 138 181 230 293 348 416
#     4  11  25  41  67 100 136 172 238 284 339 421
#     4  12  26  42  66 102 140 178 228 298 346 404
#     4  11  26  48  69  98 145 190 227 287 359 424
#
# _framework density 23.017702
#
# number of rings (size 3 to 8) (size 9 to 14) (size 15 to 20)
#    0.000    0.800    5.333    2.400    9.333    1.067 
#    2.400    0.000    0.000    0.000    0.000    0.000 
#    0.000    0.000    0.000    0.000    0.000    0.000 
#
# Total GULP energy -167399.969341 kJ/mol
# GULP energy per Si atom -5579.998978 kJ/mol
# Density = 2.296531 g / cm^3
# Si number density = 23.017702 Si / 1000 Ang^3
#
#
#
# Elastic Constant Matrix: (Units=GPa)
#
#
# Indices 1 2 3 4 5 6 
#
# 1 114.4527 10.2313 45.9401 0.0000 0.0000 0.0000
# 2 10.2313 39.4487 8.7254 0.0000 0.0000 0.0000
# 3 45.9401 8.7254 81.6940 0.0000 0.0000 0.0000
# 4 0.0000 0.0000 0.0000 23.3547 0.0000 0.0000
# 5 0.0000 0.0000 0.0000 0.0000 45.5943 0.0000
# 6 0.0000 0.0000 0.0000 0.0000 0.0000 21.8166
#
#
#
# Elastic Compliance Matrix: (Units=1/GPa)
#
#
# Indices 1 2 3 4 5 6 
#
# 1 0.011379 -0.001573 -0.006231 0.000000 0.000000 0.000000
# 2 -0.001573 0.026180 -0.001912 0.000000 0.000000 0.000000
# 3 -0.006231 -0.001912 0.015949 0.000000 0.000000 0.000000
# 4 0.000000 0.000000 0.000000 0.042818 0.000000 0.000000
# 5 0.000000 0.000000 0.000000 0.000000 0.021933 0.000000
# 6 0.000000 0.000000 0.000000 0.000000 0.000000 0.045837
#
#
# Mechanical properties :
#
#
# Convention : Reuss Voigt Hill
#
# Bulk Modulus (GPa) = 29.34539 40.59881 34.97210
# Shear Modulus (GPa) = 25.65619 29.53305 27.59462
#
# Velocity S-wave (km/s) = 3.34223 3.58587 3.46619
# Velocity P-wave (km/s) = 5.26030 5.90093 5.58980
#
# Compressibility (1/GPa) = 0.03407690
#
# Stress axis : x y z
#
# Youngs Moduli (GPa) = 87.88253 38.19687 62.70056
#
# Poissons Ratio (x) = 0.06008 0.39067
# Poissons Ratio (y) = 0.13824 0.11986
# Poissons Ratio (z) = 0.54758 0.07302
#
# Static dielectric constant tensor:
#      x y z
#    x 1.896550 0.000000 0.000000 
#    y 0.000000 1.919530 0.000000 
#    z 0.000000 0.000000 1.947500 
# 
# From -- ./inp_files/26456.got.cif
#   From: 2010.05.17/outbox.cif.g08.bks.cpg/sg43_14_cif.got.tgz:26456.got - 2010.06.03 19:21:55.
