data_PCOD9371560
_publ_section_title
;
Structure prediction by ZEFSAII (Michael W. Deem and Ramdas Pophale) SiO2 
 PCOD9371560
Probable space group: F D D 2
;
_chemical_formula_sum "Si O2"
_cell_formula_units_Z 72
_cell_length_a 15.822705
_cell_length_b 11.595450
_cell_length_c 17.694943
_cell_angle_alpha 90.000000
_cell_angle_beta 90.000000
_cell_angle_gamma 90.000000
_cell_volume 3246.515694
_symmetry_space_group_name_H-M "F D D 2"
_symmetry_group_IT_number 43
_symmetry_cell_setting 'orthorhombic'
loop_
_space_group_symop_operation_xyz
x,y,z
-x,-y,z
1/4-x,1/4+y,1/4+z
1/4+x,1/4-y,1/4+z
x,1/2+y,1/2+z
-x,1/2-y,1/2+z
1/4-x,3/4+y,3/4+z
1/4+x,3/4-y,3/4+z
1/2+x,y,1/2+z
1/2-x,-y,1/2+z
3/4-x,1/4+y,3/4+z
3/4+x,1/4-y,3/4+z
1/2+x,1/2+y,z
1/2-x,1/2-y,z
3/4-x,3/4+y,1/4+z
3/4+x,3/4-y,1/4+z
loop_
_atom_site_type_symbol
_atom_site_label
_atom_site_fract_x
_atom_site_fract_y
_atom_site_fract_z
Si Si1 0.019255 0.162431 0.888750
Si Si2 0.718276 0.620658 0.306005
Si Si3 0.250000 0.750000 0.506165
Si Si4 0.045825 0.299912 0.165293
Si Si5 0.782432 0.622921 0.554674
O O1 0.113034 0.111945 0.905340
O O2 0.970697 0.091909 0.821977
O O3 0.022970 0.293189 0.859837
O O4 0.969193 0.147534 0.966019
O O5 0.750000 0.750000 0.320939
O O6 0.772267 0.516149 0.339364
O O7 0.625196 0.614326 0.339958
O O8 0.269237 0.648275 0.445095
O O9 0.044142 0.199877 0.228094
O O10 0.750000 0.750000 0.539552
#
# Coordination Sequence:
#
# PCOD9371560 Si02
#       5
#    16  16   8  16  16
#     4  11  23  45  71  96 139 185 235 277 352 423
#     4  12  25  43  74 104 133 186 239 286 347 424
#     4  10  22  42  66  94 132 178 224 280 338 410
#     4  11  24  43  72  99 137 182 234 284 349 417
#     4  11  27  46  69 102 145 180 231 297 352 410
#
# _framework density 22.177622
#
# number of rings (size 3 to 8) (size 9 to 14) (size 15 to 20)
#    0.000    0.889    3.333    2.000   12.444    0.000 
#    2.000    0.000    0.000    0.000    0.000    0.000 
#    0.000    0.000    0.000    0.000    0.000    0.000 
#
# Total GULP energy -100206.216690 kJ/mol
# GULP energy per Si atom -5567.012038 kJ/mol
# Density = 2.212714 g / cm^3
# Si number density = 22.177622 Si / 1000 Ang^3
#
#
#
# Elastic Constant Matrix: (Units=GPa)
#
#
# Indices 1 2 3 4 5 6 
#
# 1 70.5337 51.3843 19.4756 0.0000 0.0000 0.0000
# 2 51.3843 197.1810 67.3517 0.0000 0.0000 0.0000
# 3 19.4756 67.3517 87.8216 0.0000 0.0000 0.0000
# 4 0.0000 0.0000 0.0000 -3.5040 0.0000 0.0000
# 5 0.0000 0.0000 0.0000 0.0000 212.5848 0.0000
# 6 0.0000 0.0000 0.0000 0.0000 0.0000 9.1143
#
#
#
# Elastic Compliance Matrix: (Units=1/GPa)
#
#
# Indices 1 2 3 4 5 6 
#
# 1 0.017517 -0.004387 -0.000520 0.000000 0.000000 0.000000
# 2 -0.004387 0.007970 -0.005140 0.000000 0.000000 0.000000
# 3 -0.000520 -0.005140 0.015444 0.000000 0.000000 0.000000
# 4 0.000000 0.000000 0.000000 -0.285384 0.000000 0.000000
# 5 0.000000 0.000000 0.000000 0.000000 0.004704 0.000000
# 6 0.000000 0.000000 0.000000 0.000000 0.000000 0.109717
#
#
# Mechanical properties :
#
#
# Convention : Reuss Voigt Hill
#
# Bulk Modulus (GPa) = 47.99035 70.21771 59.10403
# Shear Modulus (GPa) = -48.54761 58.12733 4.78986
#
# Velocity S-wave (km/s) = -4.68379 5.12511 1.47121
# Velocity P-wave (km/s) = 2.75035 8.17023 5.44005
#
# Compressibility (1/GPa) = 0.02083752
#
# Stress axis : x y z
#
# Youngs Moduli (GPa) = 57.08616 125.46490 64.75123
#
# Poissons Ratio (x) = 0.55045 0.03367
# Poissons Ratio (y) = 0.25045 0.33280
# Poissons Ratio (z) = 0.02969 0.64485
#
# Static dielectric constant tensor:
#      x y z
#    x 0.941690 0.000000 0.000000 
#    y 0.000000 1.869780 0.000000 
#    z 0.000000 0.000000 1.811370 
# 
# From -- ./inp_files/10532.got.cif
#   From: 2010.05.17/outbox.cif.g08.bks.cpg/sg43_6_cif.got.tgz:10532.got - 2010.06.03 19:21:55.
