data_PCOD9371934
_publ_section_title
;
Structure prediction by ZEFSAII (Michael W. Deem and Ramdas Pophale) SiO2 
 PCOD9371934
Probable space group: F D D 2
;
_chemical_formula_sum "Si O2"
_cell_formula_units_Z 72
_cell_length_a 20.621063
_cell_length_b 16.626119
_cell_length_c 8.501788
_cell_angle_alpha 90.000000
_cell_angle_beta 90.000000
_cell_angle_gamma 90.000000
_cell_volume 2914.823115
_symmetry_space_group_name_H-M "F D D 2"
_symmetry_group_IT_number 43
_symmetry_cell_setting 'orthorhombic'
loop_
_space_group_symop_operation_xyz
x,y,z
-x,-y,z
1/4-x,1/4+y,1/4+z
1/4+x,1/4-y,1/4+z
x,1/2+y,1/2+z
-x,1/2-y,1/2+z
1/4-x,3/4+y,3/4+z
1/4+x,3/4-y,3/4+z
1/2+x,y,1/2+z
1/2-x,-y,1/2+z
3/4-x,1/4+y,3/4+z
3/4+x,1/4-y,3/4+z
1/2+x,1/2+y,z
1/2-x,1/2-y,z
3/4-x,3/4+y,1/4+z
3/4+x,3/4-y,1/4+z
loop_
_atom_site_type_symbol
_atom_site_label
_atom_site_fract_x
_atom_site_fract_y
_atom_site_fract_z
Si Si1 0.363149 0.698150 0.345360
Si Si2 0.860837 0.196629 0.701994
Si Si3 0.000000 0.500000 0.891931
Si Si4 0.558172 0.902215 0.637110
Si Si5 0.205557 0.460836 0.284188
O O1 0.337437 0.682362 0.521139
O O2 0.312321 0.751290 0.251854
O O3 0.378214 0.624115 0.232119
O O4 0.431749 0.741934 0.379322
O O5 0.823379 0.269706 0.784291
O O6 0.845561 0.114348 0.790598
O O7 0.934189 0.227188 0.671461
O O8 0.006995 0.425548 0.773928
O O9 0.525506 0.829123 0.542620
#
# Coordination Sequence:
#
# PCOD9371934 Si02
#       5
#    16  16   8  16  16
#     4  10  27  45  70 108 140 196 237 301 366 436
#     4  10  23  45  70 101 146 190 239 297 380 417
#     4  12  24  46  72 104 150 182 254 298 360 444
#     4  12  23  46  73 107 142 197 244 304 368 438
#     4  10  23  45  69 104 137 192 237 300 358 440
#
# _framework density 24.701326999999999
#
# number of rings (size 3 to 8) (size 9 to 14) (size 15 to 20)
#    1.333    0.000    2.222    2.667    3.111    1.778 
#    8.000    0.000    0.000    0.000    0.000    0.000 
#    0.000    0.000    0.000    0.000    0.000    0.000 
#
# Total GULP energy -100416.335950 kJ/mol
# GULP energy per Si atom -5578.685331 kJ/mol
# Density = 2.464511 g / cm^3
# Si number density = 24.701327 Si / 1000 Ang^3
#
#
#
# Elastic Constant Matrix: (Units=GPa)
#
#
# Indices 1 2 3 4 5 6 
#
# 1 29.7058 -8.1175 32.0383 0.0000 0.0000 0.0000
# 2 -8.1175 64.8347 27.7744 0.0000 0.0000 0.0000
# 3 32.0383 27.7744 101.1410 0.0001 0.0000 0.0000
# 4 0.0000 0.0000 0.0001 36.0057 0.0000 0.0000
# 5 0.0000 0.0000 0.0000 0.0000 33.6117 0.0000
# 6 0.0000 0.0000 0.0000 0.0000 0.0000 37.9833
#
#
#
# Elastic Compliance Matrix: (Units=1/GPa)
#
#
# Indices 1 2 3 4 5 6 
#
# 1 0.068703 0.020315 -0.027342 0.000000 0.000000 0.000000
# 2 0.020315 0.023487 -0.012885 0.000000 0.000000 0.000000
# 3 -0.027342 -0.012885 0.022087 0.000000 0.000000 0.000000
# 4 0.000000 0.000000 0.000000 0.027773 0.000000 0.000000
# 5 0.000000 0.000000 0.000000 0.000000 0.029752 0.000000
# 6 0.000000 0.000000 0.000000 0.000000 0.000000 0.026327
#
#
# Mechanical properties :
#
#
# Convention : Reuss Voigt Hill
#
# Bulk Modulus (GPa) = 13.43123 33.23021 23.33072
# Shear Modulus (GPa) = 19.02798 31.11921 25.07360
#
# Velocity S-wave (km/s) = 2.77848 3.55324 3.18947
# Velocity P-wave (km/s) = 3.96768 5.50600 4.79888
#
# Compressibility (1/GPa) = 0.07445335
#
# Stress axis : x y z
#
# Youngs Moduli (GPa) = 14.55530 42.57664 45.27646
#
# Poissons Ratio (x) = -0.86494 1.23794
# Poissons Ratio (y) = -0.29569 0.58338
# Poissons Ratio (z) = 0.39797 0.54860
#
# Static dielectric constant tensor:
#      x y z
#    x 2.008060 0.000000 0.000000 
#    y 0.000000 2.017470 0.000000 
#    z 0.000000 0.000000 1.964030 
# 
# From -- ./inp_files/2658.got.cif
#   From: 2010.05.17/outbox.cif.g08.bks.cpg/sg43_2_cif.got.tgz:2658.got - 2010.06.03 19:21:55.
