data_PCOD9371277
_publ_section_title
;
Structure prediction by ZEFSAII (Michael W. Deem and Ramdas Pophale) SiO2 
 PCOD9371277
Probable space group: F D D 2
;
_chemical_formula_sum "Si O2"
_cell_formula_units_Z 120
_cell_length_a 25.600495
_cell_length_b 29.035978
_cell_length_c 6.718551
_cell_angle_alpha 90.000000
_cell_angle_beta 90.000000
_cell_angle_gamma 90.000000
_cell_volume 4994.136860
_symmetry_space_group_name_H-M "F D D 2"
_symmetry_group_IT_number 43
_symmetry_cell_setting 'orthorhombic'
loop_
_space_group_symop_operation_xyz
x,y,z
-x,-y,z
1/4-x,1/4+y,1/4+z
1/4+x,1/4-y,1/4+z
x,1/2+y,1/2+z
-x,1/2-y,1/2+z
1/4-x,3/4+y,3/4+z
1/4+x,3/4-y,3/4+z
1/2+x,y,1/2+z
1/2-x,-y,1/2+z
3/4-x,1/4+y,3/4+z
3/4+x,1/4-y,3/4+z
1/2+x,1/2+y,z
1/2-x,1/2-y,z
3/4-x,3/4+y,1/4+z
3/4+x,3/4-y,1/4+z
loop_
_atom_site_type_symbol
_atom_site_label
_atom_site_fract_x
_atom_site_fract_y
_atom_site_fract_z
Si Si1 0.553765 0.434445 0.215370
Si Si2 0.750000 0.250000 0.276904
Si Si3 0.150630 0.793997 0.368612
Si Si4 0.865165 0.728784 0.303389
Si Si5 0.045310 0.711615 0.708645
Si Si6 0.310062 0.011804 0.998261
Si Si7 0.448162 0.888942 0.596797
Si Si8 0.159998 0.393624 0.904510
O O1 0.521023 0.460084 0.385553
O O2 0.601516 0.409252 0.333266
O O3 0.578856 0.475207 0.078679
O O4 0.510216 0.403187 0.101707
O O5 0.796334 0.232328 0.408516
O O6 0.124225 0.792584 0.583045
O O7 0.115513 0.763838 0.221164
O O8 0.165074 0.844592 0.299946
O O9 0.922130 0.751437 0.339339
O O10 0.834380 0.685441 0.397156
O O11 0.059450 0.722009 0.478646
O O12 0.057275 0.657294 0.730485
O O13 0.985099 0.724694 0.727360
O O14 0.305249 0.060346 0.883371
O O15 0.425291 0.872288 0.381718
#
# Coordination Sequence:
#
# PCOD9371277 Si02
#       8
#    16   8  16  16  16  16  16  16
#     4  12  23  44  71 103 141 184 244 313 359 451
#     4  12  24  38  72 100 136 180 236 306 362 436
#     4  10  23  43  65  96 136 183 231 296 373 446
#     4  10  23  43  68  96 138 187 238 300 366 448
#     4  10  23  41  66  94 138 183 228 299 370 429
#     4  10  21  43  62  93 137 181 230 296 366 437
#     4  10  22  45  67 103 142 189 247 295 384 453
#     4  10  23  42  67 102 141 184 245 304 367 458
#
# _framework density 24.028176999999999
#
# number of rings (size 3 to 8) (size 9 to 14) (size 15 to 20)
#    0.000    1.600    2.667    0.800    5.600    1.067 
#   12.000    0.000    0.000    0.000    0.000    0.000 
#    0.000    0.000    0.000    0.000    0.000    0.000 
#
# Total GULP energy -167143.553290 kJ/mol
# GULP energy per Si atom -5571.451776 kJ/mol
# Density = 2.397349 g / cm^3
# Si number density = 24.028177 Si / 1000 Ang^3
#
#
#
# Elastic Constant Matrix: (Units=GPa)
#
#
# Indices 1 2 3 4 5 6 
#
# 1 115.3395 65.8502 -5.2257 -0.7701 -0.0437 -0.0179
# 2 65.8502 180.3522 37.4860 -0.9436 -0.0288 -0.0085
# 3 -5.2257 37.4860 53.2052 -1.3573 -0.0615 -0.0158
# 4 -0.7701 -0.9436 -1.3573 618.4832 1.0706 0.7610
# 5 -0.0437 -0.0288 -0.0615 1.0706 24.2972 0.0349
# 6 -0.0179 -0.0085 -0.0158 0.7610 0.0349 38.6306
#
#
#
# Elastic Compliance Matrix: (Units=1/GPa)
#
#
# Indices 1 2 3 4 5 6 
#
# 1 0.011988 -0.005415 0.004993 0.000018 0.000027 0.000006
# 2 -0.005415 0.008942 -0.006832 -0.000008 -0.000016 -0.000003
# 3 0.004993 -0.006832 0.024100 0.000049 0.000060 0.000010
# 4 0.000018 -0.000008 0.000049 0.001617 -0.000071 -0.000032
# 5 0.000027 -0.000016 0.000060 -0.000071 0.041160 -0.000036
# 6 0.000006 -0.000003 0.000010 -0.000032 -0.000036 0.025887
#
#
# Mechanical properties :
#
#
# Convention : Reuss Voigt Hill
#
# Bulk Modulus (GPa) = 32.76302 60.56863 46.66582
# Shear Modulus (GPa) = 36.13352 153.00129 94.56740
#
# Velocity S-wave (km/s) = 3.88209 7.98837 6.28031
# Velocity P-wave (km/s) = 5.81025 10.50464 8.48842
#
# Compressibility (1/GPa) = 0.03052222
#
# Stress axis : x y z
#
# Youngs Moduli (GPa) = 83.41856 111.83616 41.49323
#
# Poissons Ratio (x) = 0.60555 -0.20717
# Poissons Ratio (y) = 0.45168 0.28348
# Poissons Ratio (z) = -0.41649 0.76406
#
# Static dielectric constant tensor:
#      x y z
#    x 1.980770 -0.000090 0.000020 
#    y -0.000090 1.805290 0.000250 
#    z 0.000020 0.000250 2.054820 
# 
# From -- ./inp_files/3902.got.cif
#   From: 2010.05.17/outbox.cif.g08.bks.cpg/sg43_2_cif.got.tgz:3902.got - 2010.06.03 19:21:55.
