data_PCOD9371641
_publ_section_title
;
Structure prediction by ZEFSAII (Michael W. Deem and Ramdas Pophale) SiO2 
 PCOD9371641
Probable space group: F D D 2
;
_chemical_formula_sum "Si O2"
_cell_formula_units_Z 120
_cell_length_a 25.281485
_cell_length_b 24.554081
_cell_length_c 8.533994
_cell_angle_alpha 90.000000
_cell_angle_beta 90.000000
_cell_angle_gamma 90.000000
_cell_volume 5297.593098
_symmetry_space_group_name_H-M "F D D 2"
_symmetry_group_IT_number 43
_symmetry_cell_setting 'orthorhombic'
loop_
_space_group_symop_operation_xyz
x,y,z
-x,-y,z
1/4-x,1/4+y,1/4+z
1/4+x,1/4-y,1/4+z
x,1/2+y,1/2+z
-x,1/2-y,1/2+z
1/4-x,3/4+y,3/4+z
1/4+x,3/4-y,3/4+z
1/2+x,y,1/2+z
1/2-x,-y,1/2+z
3/4-x,1/4+y,3/4+z
3/4+x,1/4-y,3/4+z
1/2+x,1/2+y,z
1/2-x,1/2-y,z
3/4-x,3/4+y,1/4+z
3/4+x,3/4-y,1/4+z
loop_
_atom_site_type_symbol
_atom_site_label
_atom_site_fract_x
_atom_site_fract_y
_atom_site_fract_z
Si Si1 0.250000 0.250000 0.619841
Si Si2 0.347970 0.261615 0.993871
Si Si3 0.638849 0.334055 0.688695
Si Si4 0.289299 0.081452 0.695050
Si Si5 0.598354 0.057663 0.925069
Si Si6 0.450076 0.100422 0.071885
Si Si7 0.545835 0.677663 0.080349
Si Si8 0.687415 0.040638 0.704149
O O1 0.195230 0.277682 0.560653
O O2 0.274317 0.303689 0.709769
O O3 0.352056 0.231570 0.825811
O O4 0.309660 0.313720 0.977477
O O5 0.329988 0.214915 0.109913
O O6 0.405490 0.281083 0.051511
O O7 0.608481 0.372557 0.560680
O O8 0.678193 0.370509 0.787454
O O9 0.592642 0.310082 0.799109
O O10 0.327601 0.132609 0.714075
O O11 0.239193 0.098932 0.799123
O O12 0.276576 0.074140 0.509819
O O13 0.314486 0.023900 0.735564
O O14 0.654066 0.065771 0.844705
O O15 0.497927 0.691951 0.966063
#
# Coordination Sequence:
#
# PCOD9371641 Si02
#       8
#     8  16  16  16  16  16  16  16
#     4   8  18  42  64  98 128 168 232 286 340 420
#     4  10  22  43  70 102 138 182 241 299 360 435
#     4  11  23  44  67 102 146 186 231 300 366 431
#     4  11  23  45  70 103 140 182 239 300 358 435
#     4  10  23  43  70 101 134 181 237 289 361 433
#     4   9  21  38  71  93 135 179 229 288 354 421
#     4  11  25  43  69 105 147 185 238 300 369 430
#     4  12  26  41  69 101 142 187 239 293 366 433
#
# _framework density 22.651796000000001
#
# number of rings (size 3 to 8) (size 9 to 14) (size 15 to 20)
#    0.000    1.600    2.667    0.800    3.733    6.400 
#    2.400    0.000    0.000    2.400    0.000    0.000 
#    0.000    0.000    0.000    0.000    0.000    0.000 
#
# Total GULP energy -167228.722482 kJ/mol
# GULP energy per Si atom -5574.290749 kJ/mol
# Density = 2.260024 g / cm^3
# Si number density = 22.651796 Si / 1000 Ang^3
#
#
#
# Elastic Constant Matrix: (Units=GPa)
#
#
# Indices 1 2 3 4 5 6 
#
# 1 62.8332 25.6060 8.2759 -0.0001 -0.0030 -0.0015
# 2 25.6060 103.6200 11.3916 -0.0004 -0.0037 -0.0036
# 3 8.2759 11.3916 54.0717 -0.0030 -0.0069 -0.0067
# 4 -0.0001 -0.0004 -0.0030 24.6550 -0.0035 -0.0016
# 5 -0.0030 -0.0037 -0.0069 -0.0035 19.4134 0.0029
# 6 -0.0015 -0.0036 -0.0067 -0.0016 0.0029 19.1867
#
#
#
# Elastic Compliance Matrix: (Units=1/GPa)
#
#
# Indices 1 2 3 4 5 6 
#
# 1 0.017876 -0.004214 -0.001848 0.000000 0.000001 0.000000
# 2 -0.004214 0.010873 -0.001646 0.000000 0.000001 0.000001
# 3 -0.001848 -0.001646 0.019124 0.000002 0.000006 0.000006
# 4 0.000000 0.000000 0.000002 0.040560 0.000007 0.000003
# 5 0.000001 0.000001 0.000006 0.000007 0.051511 -0.000008
# 6 0.000000 0.000001 0.000006 0.000003 -0.000008 0.052120
#
#
# Mechanical properties :
#
#
# Convention : Reuss Voigt Hill
#
# Bulk Modulus (GPa) = 30.81062 34.56356 32.68709
# Shear Modulus (GPa) = 22.90452 24.33443 23.61948
#
# Velocity S-wave (km/s) = 3.18332 3.28118 3.23262
# Velocity P-wave (km/s) = 5.20987 5.44487 5.32867
#
# Compressibility (1/GPa) = 0.03245634
#
# Stress axis : x y z
#
# Youngs Moduli (GPa) = 55.94103 91.97128 52.29160
#
# Poissons Ratio (x) = 0.38759 0.09664
# Poissons Ratio (y) = 0.23575 0.08605
# Poissons Ratio (z) = 0.10339 0.15135
#
# Static dielectric constant tensor:
#      x y z
#    x 1.883590 0.000000 0.000000 
#    y 0.000000 1.856620 0.000000 
#    z 0.000000 0.000000 1.877670 
# 
# From -- ./inp_files/4325.got.cif
#   From: 2010.05.17/outbox.cif.g08.bks.cpg/sg43_3_cif.got.tgz:4325.got - 2010.06.03 19:21:55.
