data_PCOD9371571
_publ_section_title
;
Structure prediction by ZEFSAII (Michael W. Deem and Ramdas Pophale) SiO2 
 PCOD9371571
Probable space group: F D D 2
;
_chemical_formula_sum "Si O2"
_cell_formula_units_Z 88
_cell_length_a 20.255253
_cell_length_b 16.565788
_cell_length_c 11.517979
_cell_angle_alpha 90.000000
_cell_angle_beta 90.000000
_cell_angle_gamma 90.000000
_cell_volume 3864.791361
_symmetry_space_group_name_H-M "F D D 2"
_symmetry_group_IT_number 43
_symmetry_cell_setting 'orthorhombic'
loop_
_space_group_symop_operation_xyz
x,y,z
-x,-y,z
1/4-x,1/4+y,1/4+z
1/4+x,1/4-y,1/4+z
x,1/2+y,1/2+z
-x,1/2-y,1/2+z
1/4-x,3/4+y,3/4+z
1/4+x,3/4-y,3/4+z
1/2+x,y,1/2+z
1/2-x,-y,1/2+z
3/4-x,1/4+y,3/4+z
3/4+x,1/4-y,3/4+z
1/2+x,1/2+y,z
1/2-x,1/2-y,z
3/4-x,3/4+y,1/4+z
3/4+x,3/4-y,1/4+z
loop_
_atom_site_type_symbol
_atom_site_label
_atom_site_fract_x
_atom_site_fract_y
_atom_site_fract_z
Si Si1 0.529818 0.138060 0.831070
Si Si2 0.056756 0.935945 0.528536
Si Si3 0.250000 0.750000 0.912773
Si Si4 0.694995 0.484714 0.434241
Si Si5 0.173170 0.620571 0.770803
Si Si6 0.282214 0.838190 0.518284
O O1 0.538044 0.055409 0.756032
O O2 0.489350 0.203921 0.758927
O O3 0.607407 0.155124 0.836511
O O4 0.483113 0.123445 0.942807
O O5 0.118713 0.976831 0.468422
O O6 0.080495 0.909942 0.656256
O O7 0.000000 0.000000 0.554406
O O8 0.224998 0.681427 0.827055
O O9 0.691900 0.529276 0.309454
O O10 0.725826 0.398105 0.466661
O O11 0.180064 0.630923 0.632615
O O12 0.250000 0.750000 0.542986
#
# Coordination Sequence:
#
# PCOD9371571 Si02
#       6
#    16  16   8  16  16  16
#     4  11  24  43  78 106 146 202 260 315 384 473
#     4  11  24  47  71 110 145 201 247 324 379 465
#     4  10  22  42  68 100 146 194 250 324 370 468
#     4  11  27  45  77 108 150 203 261 310 398 462
#     4  11  24  48  73 113 151 202 259 318 390 465
#     4  11  28  47  75 108 159 201 251 329 391 459
#
# _framework density 22.769663000000001
#
# number of rings (size 3 to 8) (size 9 to 14) (size 15 to 20)
#    0.000    1.091    3.636    0.000   10.182    4.364 
#    0.000    0.000    0.000    0.000    0.000    0.000 
#    0.000    0.000    0.000    0.000    0.000    0.000 
#
# Total GULP energy -122487.167643 kJ/mol
# GULP energy per Si atom -5567.598529 kJ/mol
# Density = 2.271784 g / cm^3
# Si number density = 22.769663 Si / 1000 Ang^3
#
#
#
# Elastic Constant Matrix: (Units=GPa)
#
#
# Indices 1 2 3 4 5 6 
#
# 1 42.5305 24.3131 8.8583 0.0000 0.0000 0.0000
# 2 24.3131 104.3454 52.9910 0.0000 0.0000 0.0000
# 3 8.8583 52.9910 142.1794 0.0000 0.0000 0.0000
# 4 0.0000 0.0000 0.0000 12.8892 0.0000 0.0000
# 5 0.0000 0.0000 0.0000 0.0000 28.0294 0.0000
# 6 0.0000 0.0000 0.0000 0.0000 0.0000 -13.0958
#
#
#
# Elastic Compliance Matrix: (Units=1/GPa)
#
#
# Indices 1 2 3 4 5 6 
#
# 1 0.027204 -0.006757 0.000823 0.000000 0.000000 0.000000
# 2 -0.006757 0.013499 -0.004610 0.000000 0.000000 0.000000
# 3 0.000823 -0.004610 0.008700 0.000000 0.000000 0.000000
# 4 0.000000 0.000000 0.000000 0.077584 0.000000 0.000000
# 5 0.000000 0.000000 0.000000 0.000000 0.035677 0.000000
# 6 0.000000 0.000000 0.000000 0.000000 0.000000 -0.076360
#
#
# Mechanical properties :
#
#
# Convention : Reuss Voigt Hill
#
# Bulk Modulus (GPa) = 35.31581 51.26445 43.29013
# Shear Modulus (GPa) = 42.79737 19.09077 30.94407
#
# Velocity S-wave (km/s) = 4.34011 2.89871 3.69047
# Velocity P-wave (km/s) = 6.37645 5.81090 6.10023
#
# Compressibility (1/GPa) = 0.02831593
#
# Stress axis : x y z
#
# Youngs Moduli (GPa) = 36.75979 74.07852 114.93816
#
# Poissons Ratio (x) = 0.50053 -0.09464
# Poissons Ratio (y) = 0.24838 0.52989
# Poissons Ratio (z) = -0.03027 0.34152
#
# Static dielectric constant tensor:
#      x y z
#    x 1.697540 0.000000 0.000000 
#    y 0.000000 1.776910 0.000000 
#    z 0.000000 0.000000 1.956400 
# 
# From -- ./inp_files/7050.got.cif
#   From: 2010.05.17/outbox.cif.g08.bks.cpg/sg43_4_cif.got.tgz:7050.got - 2010.06.03 19:21:55.
