data_PCOD9371388
_publ_section_title
;
Structure prediction by ZEFSAII (Michael W. Deem and Ramdas Pophale) SiO2 
 PCOD9371388
Probable space group: F D D 2
;
_chemical_formula_sum "Si O2"
_cell_formula_units_Z 120
_cell_length_a 7.781310
_cell_length_b 30.318211
_cell_length_c 24.125642
_cell_angle_alpha 90.000000
_cell_angle_beta 90.000000
_cell_angle_gamma 90.000000
_cell_volume 5691.610445
_symmetry_space_group_name_H-M "F D D 2"
_symmetry_group_IT_number 43
_symmetry_cell_setting 'orthorhombic'
loop_
_space_group_symop_operation_xyz
x,y,z
-x,-y,z
1/4-x,1/4+y,1/4+z
1/4+x,1/4-y,1/4+z
x,1/2+y,1/2+z
-x,1/2-y,1/2+z
1/4-x,3/4+y,3/4+z
1/4+x,3/4-y,3/4+z
1/2+x,y,1/2+z
1/2-x,-y,1/2+z
3/4-x,1/4+y,3/4+z
3/4+x,1/4-y,3/4+z
1/2+x,1/2+y,z
1/2-x,1/2-y,z
3/4-x,3/4+y,1/4+z
3/4+x,3/4-y,1/4+z
loop_
_atom_site_type_symbol
_atom_site_label
_atom_site_fract_x
_atom_site_fract_y
_atom_site_fract_z
Si Si1 0.000000 0.500000 0.688390
Si Si2 0.670396 0.518707 0.531602
Si Si3 0.993318 0.140818 0.115848
Si Si4 0.713946 0.575048 0.036556
Si Si5 0.933226 0.418923 0.759716
Si Si6 0.640095 0.537813 0.649911
Si Si7 0.270860 0.884495 0.218508
Si Si8 0.076384 0.923304 0.958997
O O1 0.908790 0.463234 0.725983
O O2 0.840830 0.523932 0.658104
O O3 0.500000 0.500000 0.502633
O O4 0.744468 0.473688 0.558722
O O5 0.626123 0.548750 0.584698
O O6 0.787382 0.546355 0.491056
O O7 0.891216 0.167906 0.070416
O O8 0.854726 0.130325 0.165950
O O9 0.096083 0.101496 0.082155
O O10 0.137021 0.170864 0.144705
O O11 0.870798 0.601860 0.008020
O O12 0.604163 0.562494 0.982014
O O13 0.845595 0.377490 0.728873
O O14 0.135235 0.408575 0.758400
O O15 0.500000 0.500000 0.661545
O O16 0.607769 0.579569 0.689204
#
# Coordination Sequence:
#
# PCOD9371388 Si02
#       8
#     8  16  16  16  16  16  16  16
#     4  10  22  38  62  92 124 172 210 276 320 390
#     4  11  23  40  63  99 125 165 218 274 318 393
#     4  10  22  41  65  90 127 175 207 266 327 392
#     4  11  24  39  69  93 128 169 219 266 319 397
#     4   9  20  39  61  87 122 166 211 257 324 387
#     4  10  23  35  65  93 127 161 216 273 331 383
#     4  10  22  41  61  95 127 164 214 271 325 389
#     4  10  22  38  64  91 129 161 212 265 325 382
#
# _framework density 21.083663000000001
#
# number of rings (size 3 to 8) (size 9 to 14) (size 15 to 20)
#    0.000    1.867    0.000    3.600   11.200    3.200 
#    3.600    0.000    5.867    0.000    0.000    0.000 
#    0.000    0.000    0.000    0.000    0.000    0.000 
#
# Total GULP energy -167072.111612 kJ/mol
# GULP energy per Si atom -5569.070387 kJ/mol
# Density = 2.103568 g / cm^3
# Si number density = 21.083663 Si / 1000 Ang^3
#
#
#
# Elastic Constant Matrix: (Units=GPa)
#
#
# Indices 1 2 3 4 5 6 
#
# 1 51.1259 4.8741 28.6400 0.0000 0.0000 0.0000
# 2 4.8741 74.5498 27.1373 0.0000 0.0000 0.0000
# 3 28.6400 27.1373 101.3941 0.0000 0.0000 0.0000
# 4 0.0000 0.0000 0.0000 31.6940 0.0000 0.0000
# 5 0.0000 0.0000 0.0000 0.0000 39.9297 0.0000
# 6 0.0000 0.0000 0.0000 0.0000 0.0000 34.2662
#
#
#
# Elastic Compliance Matrix: (Units=1/GPa)
#
#
# Indices 1 2 3 4 5 6 
#
# 1 0.023299 0.000966 -0.006840 0.000000 0.000000 0.000000
# 2 0.000966 0.014902 -0.004261 0.000000 0.000000 0.000000
# 3 -0.006840 -0.004261 0.012935 0.000000 0.000000 0.000000
# 4 0.000000 0.000000 0.000000 0.031552 0.000000 0.000000
# 5 0.000000 0.000000 0.000000 0.000000 0.025044 0.000000
# 6 0.000000 0.000000 0.000000 0.000000 0.000000 0.029183
#
#
# Mechanical properties :
#
#
# Convention : Reuss Voigt Hill
#
# Bulk Modulus (GPa) = 32.39751 38.70807 35.55279
# Shear Modulus (GPa) = 29.85558 32.27254 31.06406
#
# Velocity S-wave (km/s) = 3.76713 3.91665 3.84262
# Velocity P-wave (km/s) = 5.85843 6.23319 6.04871
#
# Compressibility (1/GPa) = 0.03086657
#
# Stress axis : x y z
#
# Youngs Moduli (GPa) = 42.92044 67.10569 77.30966
#
# Poissons Ratio (x) = -0.06486 0.52878
# Poissons Ratio (y) = -0.04148 0.32944
# Poissons Ratio (z) = 0.29356 0.28596
#
# Static dielectric constant tensor:
#      x y z
#    x 1.856410 0.000000 0.000000 
#    y 0.000000 1.802700 0.000000 
#    z 0.000000 0.000000 1.776590 
# 
# From -- ./inp_files/20434.got.cif
#   From: 2010.05.17/outbox.cif.g08.bks.cpg/sg43_11_cif.got.tgz:20434.got - 2010.06.03 19:21:55.
