data_PCOD9371653
_publ_section_title
;
Structure prediction by ZEFSAII (Michael W. Deem and Ramdas Pophale) SiO2 
 PCOD9371653
Probable space group: F D D 2
;
_chemical_formula_sum "Si O2"
_cell_formula_units_Z 64
_cell_length_a 18.223617
_cell_length_b 5.571172
_cell_length_c 25.295989
_cell_angle_alpha 90.000000
_cell_angle_beta 90.000000
_cell_angle_gamma 90.000000
_cell_volume 2568.223466
_symmetry_space_group_name_H-M "F D D 2"
_symmetry_group_IT_number 43
_symmetry_cell_setting 'orthorhombic'
loop_
_space_group_symop_operation_xyz
x,y,z
-x,-y,z
1/4-x,1/4+y,1/4+z
1/4+x,1/4-y,1/4+z
x,1/2+y,1/2+z
-x,1/2-y,1/2+z
1/4-x,3/4+y,3/4+z
1/4+x,3/4-y,3/4+z
1/2+x,y,1/2+z
1/2-x,-y,1/2+z
3/4-x,1/4+y,3/4+z
3/4+x,1/4-y,3/4+z
1/2+x,1/2+y,z
1/2-x,1/2-y,z
3/4-x,3/4+y,1/4+z
3/4+x,3/4-y,1/4+z
loop_
_atom_site_type_symbol
_atom_site_label
_atom_site_fract_x
_atom_site_fract_y
_atom_site_fract_z
Si Si1 0.406162 0.763193 0.743250
Si Si2 0.912651 0.018420 0.478346
Si Si3 0.830486 0.265247 0.387476
Si Si4 0.272428 0.506886 0.587195
O O1 0.354674 0.532099 0.753177
O O2 0.425566 0.727015 0.681423
O O3 0.477079 0.740228 0.781802
O O4 0.367215 0.016732 0.751145
O O5 0.862983 0.053012 0.424733
O O6 0.000000 0.000000 0.472359
O O7 0.750000 0.250000 0.364265
O O8 0.891107 0.281924 0.342798
O O9 0.250000 0.250000 0.609639
O O10 0.250000 0.750000 0.617741
#
# Coordination Sequence:
#
# PCOD9371653 Si02
#       4
#    16  16  16  16
#     4  10  24  43  78 108 154 201 262 312 402 462
#     4  10  22  43  76 114 143 206 258 317 388 478
#     4  10  26  45  78 113 152 208 260 319 396 475
#     4  12  27  48  77 110 160 206 254 338 386 453
#
# _framework density 24.919951999999999
#
# number of rings (size 3 to 8) (size 9 to 14) (size 15 to 20)
#    1.500    0.000    0.000    3.750   10.500    0.000 
#    0.000    7.500    0.000    0.000    0.000    0.000 
#    0.000    0.000    0.000    0.000    0.000    0.000 
#
# Total GULP energy -89121.207959 kJ/mol
# GULP energy per Si atom -5570.075497 kJ/mol
# Density = 2.486323 g / cm^3
# Si number density = 24.919952 Si / 1000 Ang^3
#
#
#
# Elastic Constant Matrix: (Units=GPa)
#
#
# Indices 1 2 3 4 5 6 
#
# 1 282.9515 92.2242 54.4484 0.0008 0.0000 -0.0016
# 2 92.2242 205.7977 48.8027 0.0007 -0.0001 0.0008
# 3 54.4484 48.8027 70.0218 0.0002 0.0000 -0.0010
# 4 0.0008 0.0007 0.0002 -24.4281 -0.0001 -0.0004
# 5 0.0000 -0.0001 0.0000 -0.0001 48.2765 0.0000
# 6 -0.0016 0.0008 -0.0010 -0.0004 0.0000 32.8987
#
#
#
# Elastic Compliance Matrix: (Units=1/GPa)
#
#
# Indices 1 2 3 4 5 6 
#
# 1 0.004475 -0.001414 -0.002494 0.000000 0.000000 0.000000
# 2 -0.001414 0.006268 -0.003269 0.000000 0.000000 0.000000
# 3 -0.002494 -0.003269 0.018499 0.000000 0.000000 0.000000
# 4 0.000000 0.000000 0.000000 -0.040936 0.000000 0.000000
# 5 0.000000 0.000000 0.000000 0.000000 0.020714 0.000000
# 6 0.000000 0.000000 0.000000 0.000000 0.000000 0.030396
#
#
# Mechanical properties :
#
#
# Convention : Reuss Voigt Hill
#
# Bulk Modulus (GPa) = 67.16983 105.52462 86.34722
# Shear Modulus (GPa) = 85.13054 35.56914 60.34984
#
# Velocity S-wave (km/s) = 5.85113 3.78211 4.92646
# Velocity P-wave (km/s) = 8.52411 7.84282 8.19055
#
# Compressibility (1/GPa) = 0.01488764
#
# Stress axis : x y z
#
# Youngs Moduli (GPa) = 223.46427 159.54084 54.05610
#
# Poissons Ratio (x) = 0.22557 0.13483
# Poissons Ratio (y) = 0.31595 0.17672
# Poissons Ratio (z) = 0.55739 0.52156
#
# Static dielectric constant tensor:
#      x y z
#    x 1.924630 0.000000 0.000000 
#    y 0.000000 2.054100 0.000000 
#    z 0.000000 0.000000 2.070720 
# 
# From -- ./inp_files/29303.got.cif
#   From: 2010.05.17/outbox.cif.g08.bks.cpg/sg43_15_cif.got.tgz:29303.got - 2010.06.03 19:21:55.
