data_PCOD9371163
_publ_section_title
;
Structure prediction by ZEFSAII (Michael W. Deem and Ramdas Pophale) SiO2 
 PCOD9371163
Probable space group: F D D 2
;
_chemical_formula_sum "Si O2"
_cell_formula_units_Z 120
_cell_length_a 16.974964
_cell_length_b 27.302968
_cell_length_c 11.821429
_cell_angle_alpha 90.000000
_cell_angle_beta 90.000000
_cell_angle_gamma 90.000000
_cell_volume 5478.841039
_symmetry_space_group_name_H-M "F D D 2"
_symmetry_group_IT_number 43
_symmetry_cell_setting 'orthorhombic'
loop_
_space_group_symop_operation_xyz
x,y,z
-x,-y,z
1/4-x,1/4+y,1/4+z
1/4+x,1/4-y,1/4+z
x,1/2+y,1/2+z
-x,1/2-y,1/2+z
1/4-x,3/4+y,3/4+z
1/4+x,3/4-y,3/4+z
1/2+x,y,1/2+z
1/2-x,-y,1/2+z
3/4-x,1/4+y,3/4+z
3/4+x,1/4-y,3/4+z
1/2+x,1/2+y,z
1/2-x,1/2-y,z
3/4-x,3/4+y,1/4+z
3/4+x,3/4-y,1/4+z
loop_
_atom_site_type_symbol
_atom_site_label
_atom_site_fract_x
_atom_site_fract_y
_atom_site_fract_z
Si Si1 0.365489 0.523170 0.512340
Si Si2 0.449483 0.837751 0.466682
Si Si3 0.419767 0.586242 0.914159
Si Si4 0.207026 0.151991 0.634971
Si Si5 0.000000 0.000000 0.817019
Si Si6 0.883601 0.441244 0.185316
Si Si7 0.765614 0.510704 0.796161
Si Si8 0.362159 0.090092 0.668486
O O1 0.345589 0.558734 0.617229
O O2 0.437987 0.546470 0.443354
O O3 0.375778 0.469825 0.566838
O O4 0.294791 0.520504 0.422376
O O5 0.500677 0.881909 0.418467
O O6 0.388679 0.853114 0.564562
O O7 0.507503 0.796678 0.520667
O O8 0.437945 0.529217 0.891249
O O9 0.383824 0.589911 0.038165
O O10 0.137391 0.115138 0.676018
O O11 0.289700 0.129116 0.674095
O O12 0.187656 0.151918 0.500559
O O13 0.034600 0.042068 0.736830
O O14 0.817623 0.464632 0.267409
O O15 0.825328 0.538863 0.712272
#
# Coordination Sequence:
#
# PCOD9371163 Si02
#       8
#    16  16  16  16   8  16  16  16
#     4  10  21  40  66  94 127 170 227 268 329 402
#     4  11  25  42  66 100 133 178 218 281 337 403
#     4  12  26  42  67  97 138 172 225 270 346 401
#     4  10  22  40  65  93 129 172 221 279 329 404
#     4  12  24  42  62  96 130 172 214 276 324 392
#     4  10  22  37  64  93 127 166 215 275 330 386
#     4   9  21  41  65  91 122 174 220 261 332 394
#     4  10  23  41  64  94 129 177 218 273 334 402
#
# _framework density 21.902441
#
# number of rings (size 3 to 8) (size 9 to 14) (size 15 to 20)
#    0.000    1.600    2.667    1.600    9.333    5.333 
#    0.000    0.000    0.000    0.000    0.000    0.000 
#    0.000    0.000    0.000    0.000    0.000    0.000 
#
# Total GULP energy -167609.435902 kJ/mol
# GULP energy per Si atom -5586.981197 kJ/mol
# Density = 2.185259 g / cm^3
# Si number density = 21.902441 Si / 1000 Ang^3
#
#
#
# Elastic Constant Matrix: (Units=GPa)
#
#
# Indices 1 2 3 4 5 6 
#
# 1 48.1042 16.3263 32.6634 0.0000 0.0000 0.0000
# 2 16.3263 57.7776 20.4325 0.0000 0.0000 0.0000
# 3 32.6634 20.4325 123.2355 0.0000 0.0000 0.0000
# 4 0.0000 0.0000 0.0000 29.0770 0.0000 0.0000
# 5 0.0000 0.0000 0.0000 0.0000 27.0140 0.0000
# 6 0.0000 0.0000 0.0000 0.0000 0.0000 25.4053
#
#
#
# Elastic Compliance Matrix: (Units=1/GPa)
#
#
# Indices 1 2 3 4 5 6 
#
# 1 0.026840 -0.005384 -0.006221 0.000000 0.000000 0.000000
# 2 -0.005384 0.019466 -0.001800 0.000000 0.000000 0.000000
# 3 -0.006221 -0.001800 0.010062 0.000000 0.000000 0.000000
# 4 0.000000 0.000000 0.000000 0.034391 0.000000 0.000000
# 5 0.000000 0.000000 0.000000 0.000000 0.037018 0.000000
# 6 0.000000 0.000000 0.000000 0.000000 0.000000 0.039362
#
#
# Mechanical properties :
#
#
# Convention : Reuss Voigt Hill
#
# Bulk Modulus (GPa) = 33.83376 40.88463 37.35920
# Shear Modulus (GPa) = 24.53359 26.94559 25.73959
#
# Velocity S-wave (km/s) = 3.35047 3.51130 3.43183
# Velocity P-wave (km/s) = 5.51802 5.92843 5.72690
#
# Compressibility (1/GPa) = 0.02955628
#
# Stress axis : x y z
#
# Youngs Moduli (GPa) = 37.25808 51.37211 99.38424
#
# Poissons Ratio (x) = 0.27659 0.61829
# Poissons Ratio (y) = 0.20060 0.17893
# Poissons Ratio (z) = 0.23179 0.09249
#
# Static dielectric constant tensor:
#      x y z
#    x 1.839430 0.000000 0.000000 
#    y 0.000000 1.793870 0.000000 
#    z 0.000000 0.000000 1.794860 
# 
# From -- ./inp_files/6819.got.cif
#   From: 2010.05.17/outbox.cif.g08.bks.cpg/sg43_4_cif.got.tgz:6819.got - 2010.06.03 19:21:55.
