data_PCOD9371865
_publ_section_title
;
Structure prediction by ZEFSAII (Michael W. Deem and Ramdas Pophale) SiO2 
 PCOD9371865
Probable space group: F D D 2
;
_chemical_formula_sum "Si O2"
_cell_formula_units_Z 112
_cell_length_a 15.682626
_cell_length_b 26.794547
_cell_length_c 11.626827
_cell_angle_alpha 90.000000
_cell_angle_beta 90.000000
_cell_angle_gamma 90.000000
_cell_volume 4885.695713
_symmetry_space_group_name_H-M "F D D 2"
_symmetry_group_IT_number 43
_symmetry_cell_setting 'orthorhombic'
loop_
_space_group_symop_operation_xyz
x,y,z
-x,-y,z
1/4-x,1/4+y,1/4+z
1/4+x,1/4-y,1/4+z
x,1/2+y,1/2+z
-x,1/2-y,1/2+z
1/4-x,3/4+y,3/4+z
1/4+x,3/4-y,3/4+z
1/2+x,y,1/2+z
1/2-x,-y,1/2+z
3/4-x,1/4+y,3/4+z
3/4+x,1/4-y,3/4+z
1/2+x,1/2+y,z
1/2-x,1/2-y,z
3/4-x,3/4+y,1/4+z
3/4+x,3/4-y,1/4+z
loop_
_atom_site_type_symbol
_atom_site_label
_atom_site_fract_x
_atom_site_fract_y
_atom_site_fract_z
Si Si1 0.019949 0.049989 0.153260
Si Si2 0.448099 0.171668 0.129934
Si Si3 0.834192 0.084188 0.182084
Si Si4 0.901215 0.506812 0.248188
Si Si5 0.849351 0.433678 0.825172
Si Si6 0.975105 0.745988 0.788956
Si Si7 0.920818 0.354787 0.514198
O O1 0.087381 0.033918 0.249235
O O2 0.932221 0.070489 0.204641
O O3 0.063373 0.095577 0.087767
O O4 0.000000 0.000000 0.080929
O O5 0.483417 0.204083 0.236799
O O6 0.391319 0.124245 0.164155
O O7 0.526556 0.159472 0.045195
O O8 0.386333 0.209738 0.064117
O O9 0.844995 0.136189 0.114412
O O10 0.790143 0.041175 0.104827
O O11 0.848347 0.509850 0.129660
O O12 0.879475 0.557702 0.317177
O O13 0.000000 0.500000 0.228172
O O14 0.767364 0.415657 0.751494
O O15 0.813500 0.464363 0.932803
#
# Coordination Sequence:
#
# PCOD9371865 Si02
#       7
#    16  16  16  16  16  16  16
#     4  11  24  43  73 106 135 184 249 297 362 421
#     4  11  25  44  74 100 144 187 238 290 362 435
#     4  10  23  43  66 104 137 184 227 289 359 416
#     4  11  28  46  69 106 150 192 236 295 373 433
#     4  11  24  45  71 101 141 181 236 294 350 424
#     4  11  24  47  69 100 148 178 231 301 343 430
#     4  11  26  46  72 106 144 190 238 301 364 438
#
# _framework density 22.924063
#
# number of rings (size 3 to 8) (size 9 to 14) (size 15 to 20)
#    0.000    1.143    1.429    3.429    8.000    3.429 
#    2.571    0.000    0.000    0.000    0.000    0.000 
#    0.000    0.000    0.000    0.000    0.000    0.000 
#
# Total GULP energy -156631.753917 kJ/mol
# GULP energy per Si atom -5593.991211 kJ/mol
# Density = 2.287189 g / cm^3
# Si number density = 22.924063 Si / 1000 Ang^3
#
#
#
# Elastic Constant Matrix: (Units=GPa)
#
#
# Indices 1 2 3 4 5 6 
#
# 1 145.1971 25.8254 37.0720 0.0000 0.0000 0.0000
# 2 25.8254 93.6806 -5.0378 0.0000 0.0000 0.0000
# 3 37.0720 -5.0378 46.6400 0.0000 0.0000 0.0000
# 4 0.0000 0.0000 0.0000 31.8597 0.0000 0.0000
# 5 0.0000 0.0000 0.0000 0.0000 10.9995 0.0000
# 6 0.0000 0.0000 0.0000 0.0000 0.0000 -35.3028
#
#
#
# Elastic Compliance Matrix: (Units=1/GPa)
#
#
# Indices 1 2 3 4 5 6 
#
# 1 0.009418 -0.003016 -0.007812 0.000000 0.000000 0.000000
# 2 -0.003016 0.011703 0.003662 0.000000 0.000000 0.000000
# 3 -0.007812 0.003662 0.028046 0.000000 0.000000 0.000000
# 4 0.000000 0.000000 0.000000 0.031388 0.000000 0.000000
# 5 0.000000 0.000000 0.000000 0.000000 0.090913 0.000000
# 6 0.000000 0.000000 0.000000 0.000000 0.000000 -0.028326
#
#
# Mechanical properties :
#
#
# Convention : Reuss Voigt Hill
#
# Bulk Modulus (GPa) = 28.70785 44.58188 36.64487
# Shear Modulus (GPa) = 29.57071 16.68848 23.12959
#
# Velocity S-wave (km/s) = 3.59547 2.70106 3.17987
# Velocity P-wave (km/s) = 5.45773 5.40532 5.43158
#
# Compressibility (1/GPa) = 0.03483367
#
# Stress axis : x y z
#
# Youngs Moduli (GPa) = 106.17643 85.44781 35.65600
#
# Poissons Ratio (x) = 0.25775 0.27854
# Poissons Ratio (y) = 0.32028 -0.13056
# Poissons Ratio (z) = 0.82945 -0.31289
#
# Static dielectric constant tensor:
#      x y z
#    x 1.801090 0.000000 0.000000 
#    y 0.000000 1.873400 0.000000 
#    z 0.000000 0.000000 1.876230 
# 
# From -- ./inp_files/6314.got.cif
#   From: 2010.05.17/outbox.cif.g08.bks.cpg/sg43_4_cif.got.tgz:6314.got - 2010.06.03 19:21:55.
