data_PCOD9371069
_publ_section_title
;
Structure prediction by ZEFSAII (Michael W. Deem and Ramdas Pophale) SiO2 
 PCOD9371069
Probable space group: F D D 2
;
_chemical_formula_sum "Si O2"
_cell_formula_units_Z 96
_cell_length_a 9.468788
_cell_length_b 18.118837
_cell_length_c 31.035027
_cell_angle_alpha 90.000000
_cell_angle_beta 90.000000
_cell_angle_gamma 90.000000
_cell_volume 5324.475569
_symmetry_space_group_name_H-M "F D D 2"
_symmetry_group_IT_number 43
_symmetry_cell_setting 'orthorhombic'
loop_
_space_group_symop_operation_xyz
x,y,z
-x,-y,z
1/4-x,1/4+y,1/4+z
1/4+x,1/4-y,1/4+z
x,1/2+y,1/2+z
-x,1/2-y,1/2+z
1/4-x,3/4+y,3/4+z
1/4+x,3/4-y,3/4+z
1/2+x,y,1/2+z
1/2-x,-y,1/2+z
3/4-x,1/4+y,3/4+z
3/4+x,1/4-y,3/4+z
1/2+x,1/2+y,z
1/2-x,1/2-y,z
3/4-x,3/4+y,1/4+z
3/4+x,3/4-y,1/4+z
loop_
_atom_site_type_symbol
_atom_site_label
_atom_site_fract_x
_atom_site_fract_y
_atom_site_fract_z
Si Si1 0.643637 0.455357 0.148250
Si Si2 0.842464 0.466276 0.891916
Si Si3 0.617218 0.803681 0.974207
Si Si4 0.107426 0.796084 0.574123
Si Si5 0.659123 0.969070 0.077626
Si Si6 0.586482 0.224939 0.230672
O O1 0.500000 0.500000 0.154653
O O2 0.606091 0.371151 0.135805
O O3 0.740426 0.455969 0.190899
O O4 0.738063 0.493459 0.111559
O O5 0.756103 0.509538 0.855590
O O6 0.000000 0.500000 0.892429
O O7 0.776960 0.481760 0.939530
O O8 0.750000 0.750000 0.965774
O O9 0.566844 0.792635 0.023529
O O10 0.668460 0.888194 0.970514
O O11 0.250000 0.750000 0.578905
O O12 0.142071 0.881322 0.583943
O O13 0.717384 0.984914 0.029271
O O14 0.500000 0.000000 0.081575
O O15 0.750000 0.250000 0.233763
#
# Coordination Sequence:
#
# PCOD9371069 Si02
#       6
#    16  16  16  16  16  16
#     4  12  24  38  57  90 126 148 185 249 299 335
#     4  11  21  39  61  86 119 156 191 236 290 348
#     4  10  21  39  62  85 114 156 201 235 280 348
#     4  10  22  40  61  87 117 151 195 245 286 339
#     4  10  21  38  64  86 111 157 202 231 280 351
#     4   9  18  38  61  84 115 151 197 238 278 340
#
# _framework density 18.029945000000001
#
# number of rings (size 3 to 8) (size 9 to 14) (size 15 to 20)
#    0.000    1.667    3.333    2.500    2.333    0.667 
#    3.000    0.833    0.000    0.000    0.000    0.000 
#    0.000    0.000    0.000    0.000    0.000    0.000 
#
# Total GULP energy -133927.089069 kJ/mol
# GULP energy per Si atom -5580.295378 kJ/mol
# Density = 1.798891 g / cm^3
# Si number density = 18.029945 Si / 1000 Ang^3
#
#
#
# Elastic Constant Matrix: (Units=GPa)
#
#
# Indices 1 2 3 4 5 6 
#
# 1 49.1496 39.0442 61.3065 0.0000 0.0000 0.0000
# 2 39.0442 144.0234 60.4668 0.0000 0.0000 0.0000
# 3 61.3065 60.4668 143.8842 0.0000 0.0000 0.0000
# 4 0.0000 0.0000 0.0000 27.4628 0.0000 0.0000
# 5 0.0000 0.0000 0.0000 0.0000 21.1458 0.0000
# 6 0.0000 0.0000 0.0000 0.0000 0.0000 20.4941
#
#
#
# Elastic Compliance Matrix: (Units=1/GPa)
#
#
# Indices 1 2 3 4 5 6 
#
# 1 0.046423 -0.005198 -0.017596 0.000000 0.000000 0.000000
# 2 -0.005198 0.009013 -0.001573 0.000000 0.000000 0.000000
# 3 -0.017596 -0.001573 0.015108 0.000000 0.000000 0.000000
# 4 0.000000 0.000000 0.000000 0.036413 0.000000 0.000000
# 5 0.000000 0.000000 0.000000 0.000000 0.047291 0.000000
# 6 0.000000 0.000000 0.000000 0.000000 0.000000 0.048795
#
#
# Mechanical properties :
#
#
# Convention : Reuss Voigt Hill
#
# Bulk Modulus (GPa) = 45.84774 73.18804 59.51789
# Shear Modulus (GPa) = 19.30166 25.56985 22.43575
#
# Velocity S-wave (km/s) = 3.27545 3.76997 3.53138
# Velocity P-wave (km/s) = 6.30782 7.72210 7.05051
#
# Compressibility (1/GPa) = 0.02181132
#
# Stress axis : x y z
#
# Youngs Moduli (GPa) = 21.54111 110.95364 66.18903
#
# Poissons Ratio (x) = 0.57670 1.16464
# Poissons Ratio (y) = 0.11196 0.10411
# Poissons Ratio (z) = 0.37903 0.17452
#
# Static dielectric constant tensor:
#      x y z
#    x 1.574870 0.000000 0.000000 
#    y 0.000000 1.602090 0.000000 
#    z 0.000000 0.000000 1.661070 
# 
# From -- ./inp_files/24239.got.cif
#   From: 2010.05.17/outbox.cif.g08.bks.cpg/sg43_13_cif.got.tgz:24239.got - 2010.06.03 19:21:55.
