data_PCOD9371189
_publ_section_title
;
Structure prediction by ZEFSAII (Michael W. Deem and Ramdas Pophale) SiO2 
 PCOD9371189
Probable space group: F D D 2
;
_chemical_formula_sum "Si O2"
_cell_formula_units_Z 112
_cell_length_a 23.731707
_cell_length_b 11.834740
_cell_length_c 14.620766
_cell_angle_alpha 90.000000
_cell_angle_beta 90.000000
_cell_angle_gamma 90.000000
_cell_volume 4106.367608
_symmetry_space_group_name_H-M "F D D 2"
_symmetry_group_IT_number 43
_symmetry_cell_setting 'orthorhombic'
loop_
_space_group_symop_operation_xyz
x,y,z
-x,-y,z
1/4-x,1/4+y,1/4+z
1/4+x,1/4-y,1/4+z
x,1/2+y,1/2+z
-x,1/2-y,1/2+z
1/4-x,3/4+y,3/4+z
1/4+x,3/4-y,3/4+z
1/2+x,y,1/2+z
1/2-x,-y,1/2+z
3/4-x,1/4+y,3/4+z
3/4+x,1/4-y,3/4+z
1/2+x,1/2+y,z
1/2-x,1/2-y,z
3/4-x,3/4+y,1/4+z
3/4+x,3/4-y,1/4+z
loop_
_atom_site_type_symbol
_atom_site_label
_atom_site_fract_x
_atom_site_fract_y
_atom_site_fract_z
Si Si1 0.050197 0.589527 0.407300
Si Si2 0.610951 0.578741 0.069487
Si Si3 0.008446 0.699094 0.665242
Si Si4 0.964435 0.163374 0.500100
Si Si5 0.366288 0.039769 0.900099
Si Si6 0.435351 0.976992 0.221825
Si Si7 0.442564 0.356182 0.358150
O O1 0.095362 0.524495 0.470704
O O2 0.062939 0.616979 0.302914
O O3 0.000000 0.500000 0.406250
O O4 0.041517 0.709850 0.455740
O O5 0.551372 0.606399 0.119098
O O6 0.649058 0.495045 0.126956
O O7 0.650407 0.679524 0.028433
O O8 0.030436 0.808710 0.607503
O O9 0.022018 0.685490 0.771438
O O10 0.940400 0.710831 0.655939
O O11 0.912737 0.083395 0.475213
O O12 0.157293 0.281511 0.585238
O O13 0.019376 0.123507 0.446444
O O14 0.341431 0.165753 0.884627
O O15 0.500000 0.000000 0.205425
#
# Coordination Sequence:
#
# PCOD9371189 Si02
#       7
#    16  16  16  16  16  16  16
#     4  10  21  40  79 106 153 209 294 349 411 510
#     4  11  24  45  76 116 163 216 288 357 430 526
#     4  11  27  51  82 121 167 232 289 354 462 515
#     4  11  26  53  76 122 173 233 290 358 443 537
#     4  12  27  51  82 122 177 224 290 371 447 538
#     4  11  22  45  75 115 155 218 284 360 422 523
#     4  12  28  50  82 122 177 227 298 369 443 536
#
# _framework density 27.274712999999998
#
# number of rings (size 3 to 8) (size 9 to 14) (size 15 to 20)
#    0.000    0.857    2.857    4.714    6.000    2.286 
#    2.571    1.429    0.000    0.000    0.000    0.000 
#    0.000    0.000    0.000    0.000    0.000    0.000 
#
# Total GULP energy -156087.513464 kJ/mol
# GULP energy per Si atom -5574.554052 kJ/mol
# Density = 2.721263 g / cm^3
# Si number density = 27.274713 Si / 1000 Ang^3
#
#
#
# Elastic Constant Matrix: (Units=GPa)
#
#
# Indices 1 2 3 4 5 6 
#
# 1 197.5577 63.3435 56.0383 0.0000 0.0000 0.0000
# 2 63.3435 102.4041 35.3059 0.0000 0.0000 0.0000
# 3 56.0383 35.3059 103.7681 0.0000 0.0000 0.0000
# 4 0.0000 0.0000 0.0000 26.6848 0.0000 0.0000
# 5 0.0000 0.0000 0.0000 0.0000 27.4334 0.0000
# 6 0.0000 0.0000 0.0000 0.0000 0.0000 51.0082
#
#
#
# Elastic Compliance Matrix: (Units=1/GPa)
#
#
# Indices 1 2 3 4 5 6 
#
# 1 0.006868 -0.003364 -0.002564 0.000000 0.000000 0.000000
# 2 -0.003364 0.012711 -0.002508 0.000000 0.000000 0.000000
# 3 -0.002564 -0.002508 0.011875 0.000000 0.000000 0.000000
# 4 0.000000 0.000000 0.000000 0.037475 0.000000 0.000000
# 5 0.000000 0.000000 0.000000 0.000000 0.036452 0.000000
# 6 0.000000 0.000000 0.000000 0.000000 0.000000 0.019605
#
#
# Mechanical properties :
#
#
# Convention : Reuss Voigt Hill
#
# Bulk Modulus (GPa) = 68.58273 79.23392 73.90833
# Shear Modulus (GPa) = 34.07904 37.62809 35.85356
#
# Velocity S-wave (km/s) = 3.53862 3.71832 3.62958
# Velocity P-wave (km/s) = 6.47268 6.89550 6.68743
#
# Compressibility (1/GPa) = 0.01458093
#
# Stress axis : x y z
#
# Youngs Moduli (GPa) = 145.60661 78.67311 84.21077
#
# Poissons Ratio (x) = 0.26466 0.21594
# Poissons Ratio (y) = 0.48984 0.21120
# Poissons Ratio (z) = 0.37337 0.19731
#
# Static dielectric constant tensor:
#      x y z
#    x 2.238770 0.000000 0.000000 
#    y 0.000000 2.231680 0.000000 
#    z 0.000000 0.000000 2.228720 
# 
# From -- ./inp_files/14640.got.cif
#   From: 2010.05.17/outbox.cif.g08.bks.cpg/sg43_8_cif.got.tgz:14640.got - 2010.06.03 19:21:55.
