data_PCOD9371877
_publ_section_title
;
Structure prediction by ZEFSAII (Michael W. Deem and Ramdas Pophale) SiO2 
 PCOD9371877
Probable space group: F D D 2
;
_chemical_formula_sum "Si O2"
_cell_formula_units_Z 120
_cell_length_a 23.729351
_cell_length_b 8.807672
_cell_length_c 26.376639
_cell_angle_alpha 90.000000
_cell_angle_beta 90.000000
_cell_angle_gamma 90.000000
_cell_volume 5512.726529
_symmetry_space_group_name_H-M "F D D 2"
_symmetry_group_IT_number 43
_symmetry_cell_setting 'orthorhombic'
loop_
_space_group_symop_operation_xyz
x,y,z
-x,-y,z
1/4-x,1/4+y,1/4+z
1/4+x,1/4-y,1/4+z
x,1/2+y,1/2+z
-x,1/2-y,1/2+z
1/4-x,3/4+y,3/4+z
1/4+x,3/4-y,3/4+z
1/2+x,y,1/2+z
1/2-x,-y,1/2+z
3/4-x,1/4+y,3/4+z
3/4+x,1/4-y,3/4+z
1/2+x,1/2+y,z
1/2-x,1/2-y,z
3/4-x,3/4+y,1/4+z
3/4+x,3/4-y,1/4+z
loop_
_atom_site_type_symbol
_atom_site_label
_atom_site_fract_x
_atom_site_fract_y
_atom_site_fract_z
Si Si1 0.684689 0.790753 0.688130
Si Si2 0.193062 0.677528 0.569132
Si Si3 0.387991 0.963445 0.720803
Si Si4 0.911879 0.710027 0.003872
Si Si5 0.644492 0.327353 0.666707
Si Si6 0.937904 0.935491 0.325087
Si Si7 0.220288 0.084582 0.856108
Si Si8 0.000000 0.000000 0.155771
O O1 0.750000 0.750000 0.694047
O O2 0.668222 0.961854 0.699087
O O3 0.649052 0.703800 0.730500
O O4 0.668533 0.758190 0.630128
O O5 0.250000 0.750000 0.547554
O O6 0.141330 0.722663 0.533171
O O7 0.183470 0.752541 0.624205
O O8 0.193540 0.496646 0.575028
O O9 0.443490 0.015813 0.689732
O O10 0.380151 0.788729 0.707791
O O11 0.397414 0.984494 0.780052
O O12 0.959684 0.696296 0.046365
O O13 0.924908 0.799829 0.951897
O O14 0.589067 0.368805 0.634345
O O15 0.000000 0.000000 0.315455
O O16 0.250000 0.250000 0.861460
O O17 0.242512 0.916750 0.877073
#
# Coordination Sequence:
#
# PCOD9371877 Si02
#       8
#    16  16  16  16  16  16  16   8
#     4  11  27  46  67 105 144 186 247 295 363 445
#     4  11  25  44  70 103 139 186 241 292 360 442
#     4  11  22  45  73  99 142 181 244 301 364 439
#     4  11  25  46  68 104 141 186 238 292 369 431
#     4  10  23  43  69 101 141 184 233 295 363 430
#     4  11  24  44  71 103 139 186 239 294 364 439
#     4  10  24  48  70 103 149 183 242 302 361 444
#     4  10  24  44  76 114 130 196 244 300 386 428
#
# _framework density 21.767814000000001
#
# number of rings (size 3 to 8) (size 9 to 14) (size 15 to 20)
#    0.000    1.333    3.333    0.400    7.467    1.600 
#    8.400    0.000    0.000    0.800    0.000    0.000 
#    0.000    0.000    0.000    0.000    0.000    0.000 
#
# Total GULP energy -167309.483210 kJ/mol
# GULP energy per Si atom -5576.982774 kJ/mol
# Density = 2.171827 g / cm^3
# Si number density = 21.767814 Si / 1000 Ang^3
#
#
#
# Elastic Constant Matrix: (Units=GPa)
#
#
# Indices 1 2 3 4 5 6 
#
# 1 66.8277 38.9253 22.9695 0.0000 0.0000 0.0000
# 2 38.9253 101.6101 45.3460 0.0000 0.0000 0.0000
# 3 22.9695 45.3460 126.3582 0.0000 0.0000 0.0000
# 4 0.0000 0.0000 0.0000 34.9069 0.0000 0.0000
# 5 0.0000 0.0000 0.0000 0.0000 -21.0428 0.0000
# 6 0.0000 0.0000 0.0000 0.0000 0.0000 32.4518
#
#
#
# Elastic Compliance Matrix: (Units=1/GPa)
#
#
# Indices 1 2 3 4 5 6 
#
# 1 0.019372 -0.006965 -0.001022 0.000000 0.000000 0.000000
# 2 -0.006965 0.014223 -0.003838 0.000000 0.000000 0.000000
# 3 -0.001022 -0.003838 0.009477 0.000000 0.000000 0.000000
# 4 0.000000 0.000000 0.000000 0.028648 0.000000 0.000000
# 5 0.000000 0.000000 0.000000 0.000000 -0.047522 0.000000
# 6 0.000000 0.000000 0.000000 0.000000 0.000000 0.030815
#
#
# Mechanical properties :
#
#
# Convention : Reuss Voigt Hill
#
# Bulk Modulus (GPa) = 51.48839 56.58641 54.03740
# Shear Modulus (GPa) = 58.72962 21.76685 40.24823
#
# Velocity S-wave (km/s) = 5.19987 3.16564 4.30464
# Velocity P-wave (km/s) = 7.73022 6.27802 7.04166
#
# Compressibility (1/GPa) = 0.01942185
#
# Stress axis : x y z
#
# Youngs Moduli (GPa) = 51.62068 70.31101 105.51779
#
# Poissons Ratio (x) = 0.48972 0.10783
# Poissons Ratio (y) = 0.35954 0.40497
# Poissons Ratio (z) = 0.05275 0.26985
#
# Static dielectric constant tensor:
#      x y z
#    x 1.844890 0.000000 0.000000 
#    y 0.000000 1.986770 0.000000 
#    z 0.000000 0.000000 1.785910 
# 
# From -- ./inp_files/20451.got.cif
#   From: 2010.05.17/outbox.cif.g08.bks.cpg/sg43_11_cif.got.tgz:20451.got - 2010.06.03 19:21:55.
