data_PCOD9371214
_publ_section_title
;
Structure prediction by ZEFSAII (Michael W. Deem and Ramdas Pophale) SiO2 
 PCOD9371214
Probable space group: F D D 2
;
_chemical_formula_sum "Si O2"
_cell_formula_units_Z 96
_cell_length_a 23.167120
_cell_length_b 14.722236
_cell_length_c 11.500123
_cell_angle_alpha 90.000000
_cell_angle_beta 90.000000
_cell_angle_gamma 90.000000
_cell_volume 3922.367745
_symmetry_space_group_name_H-M "F D D 2"
_symmetry_group_IT_number 43
_symmetry_cell_setting 'orthorhombic'
loop_
_space_group_symop_operation_xyz
x,y,z
-x,-y,z
1/4-x,1/4+y,1/4+z
1/4+x,1/4-y,1/4+z
x,1/2+y,1/2+z
-x,1/2-y,1/2+z
1/4-x,3/4+y,3/4+z
1/4+x,3/4-y,3/4+z
1/2+x,y,1/2+z
1/2-x,-y,1/2+z
3/4-x,1/4+y,3/4+z
3/4+x,1/4-y,3/4+z
1/2+x,1/2+y,z
1/2-x,1/2-y,z
3/4-x,3/4+y,1/4+z
3/4+x,3/4-y,1/4+z
loop_
_atom_site_type_symbol
_atom_site_label
_atom_site_fract_x
_atom_site_fract_y
_atom_site_fract_z
Si Si1 0.694883 0.472407 0.658550
Si Si2 0.795641 0.498068 0.804765
Si Si3 0.467950 0.586887 0.643547
Si Si4 0.689883 0.699811 0.310088
Si Si5 0.868212 0.838670 0.702887
Si Si6 0.123412 0.870917 0.837502
O O1 0.763978 0.484417 0.677977
O O2 0.670899 0.414732 0.549064
O O3 0.657439 0.564897 0.662331
O O4 0.676197 0.424141 0.778196
O O5 0.756635 0.579942 0.852858
O O6 0.796117 0.398433 0.864990
O O7 0.858354 0.535457 0.842166
O O8 0.500000 0.500000 0.695587
O O9 0.434152 0.549052 0.529720
O O10 0.422308 0.627125 0.733126
O O11 0.750000 0.750000 0.284214
O O12 0.648570 0.773100 0.370124
O O13 0.654871 0.672315 0.194452
#
# Coordination Sequence:
#
# PCOD9371214 Si02
#       6
#    16  16  16  16  16  16
#     4  10  21  41  67  99 135 180 242 292 365 428
#     4  11  23  39  66 103 141 186 231 299 368 433
#     4  10  22  41  73 101 136 180 248 295 367 431
#     4  12  26  42  68  99 147 185 241 294 370 436
#     4  10  22  39  68  99 143 175 235 303 353 437
#     4  11  23  41  66  99 133 180 237 305 349 434
#
# _framework density 24.475012
#
# number of rings (size 3 to 8) (size 9 to 14) (size 15 to 20)
#    0.000    1.333    1.667    5.500    2.333    2.667 
#    0.000    0.000    0.000    1.000    0.000    0.000 
#    0.000    0.000    0.000    0.000    0.000    0.000 
#
# Total GULP energy -133893.323472 kJ/mol
# GULP energy per Si atom -5578.888478 kJ/mol
# Density = 2.441931 g / cm^3
# Si number density = 24.475012 Si / 1000 Ang^3
#
#
#
# Elastic Constant Matrix: (Units=GPa)
#
#
# Indices 1 2 3 4 5 6 
#
# 1 110.8050 67.9357 58.7778 0.0000 0.0000 0.0000
# 2 67.9357 169.8482 28.0685 0.0000 0.0000 0.0000
# 3 58.7778 28.0685 89.1154 0.0000 0.0000 0.0000
# 4 0.0000 0.0000 0.0000 23.2568 0.0000 0.0000
# 5 0.0000 0.0000 0.0000 0.0000 34.0606 0.0000
# 6 0.0000 0.0000 0.0000 0.0000 0.0000 60.5825
#
#
#
# Elastic Compliance Matrix: (Units=1/GPa)
#
#
# Indices 1 2 3 4 5 6 
#
# 1 0.017585 -0.005398 -0.009898 0.000000 0.000000 0.000000
# 2 -0.005398 0.007868 0.001082 0.000000 0.000000 0.000000
# 3 -0.009898 0.001082 0.017409 0.000000 0.000000 0.000000
# 4 0.000000 0.000000 0.000000 0.042998 0.000000 0.000000
# 5 0.000000 0.000000 0.000000 0.000000 0.029359 0.000000
# 6 0.000000 0.000000 0.000000 0.000000 0.000000 0.016506
#
#
# Mechanical properties :
#
#
# Convention : Reuss Voigt Hill
#
# Bulk Modulus (GPa) = 69.28148 75.48141 72.38145
# Shear Modulus (GPa) = 30.30931 37.91242 34.11086
#
# Velocity S-wave (km/s) = 3.52288 3.94004 3.73728
# Velocity P-wave (km/s) = 6.70194 7.18371 6.94700
#
# Compressibility (1/GPa) = 0.01443387
#
# Stress axis : x y z
#
# Youngs Moduli (GPa) = 56.86624 127.10003 57.44067
#
# Poissons Ratio (x) = 0.68607 0.56857
# Poissons Ratio (y) = 0.30696 -0.06216
# Poissons Ratio (z) = 0.56289 -0.13754
#
# Static dielectric constant tensor:
#      x y z
#    x 2.026020 0.000000 0.000000 
#    y 0.000000 1.947880 0.000000 
#    z 0.000000 0.000000 1.960710 
# 
# From -- ./inp_files/10916.got.cif
#   From: 2010.05.17/outbox.cif.g08.bks.cpg/sg43_6_cif.got.tgz:10916.got - 2010.06.03 19:21:55.
