data_PCOD9371104
_publ_section_title
;
Structure prediction by ZEFSAII (Michael W. Deem and Ramdas Pophale) SiO2 
 PCOD9371104
Probable space group: F D D 2
;
_chemical_formula_sum "Si O2"
_cell_formula_units_Z 64
_cell_length_a 32.394215
_cell_length_b 14.831685
_cell_length_c 4.994763
_cell_angle_alpha 90.000000
_cell_angle_beta 90.000000
_cell_angle_gamma 90.000000
_cell_volume 2399.787790
_symmetry_space_group_name_H-M "F D D 2"
_symmetry_group_IT_number 43
_symmetry_cell_setting 'orthorhombic'
loop_
_space_group_symop_operation_xyz
x,y,z
-x,-y,z
1/4-x,1/4+y,1/4+z
1/4+x,1/4-y,1/4+z
x,1/2+y,1/2+z
-x,1/2-y,1/2+z
1/4-x,3/4+y,3/4+z
1/4+x,3/4-y,3/4+z
1/2+x,y,1/2+z
1/2-x,-y,1/2+z
3/4-x,1/4+y,3/4+z
3/4+x,1/4-y,3/4+z
1/2+x,1/2+y,z
1/2-x,1/2-y,z
3/4-x,3/4+y,1/4+z
3/4+x,3/4-y,1/4+z
loop_
_atom_site_type_symbol
_atom_site_label
_atom_site_fract_x
_atom_site_fract_y
_atom_site_fract_z
Si Si1 0.249030 0.627357 0.011830
Si Si2 0.082983 0.930972 0.113899
Si Si3 0.794287 0.068517 0.517730
Si Si4 0.871198 0.393708 0.384494
O O1 0.223742 0.531866 0.027472
O O2 0.284588 0.613044 0.231506
O O3 0.211188 0.698003 0.004386
O O4 0.268457 0.628667 0.721308
O O5 0.107576 0.870322 0.328028
O O6 0.082770 0.878404 0.829683
O O7 0.107590 0.019462 0.020186
O O8 0.840522 0.072939 0.629007
#
# Coordination Sequence:
#
# PCOD9371104 Si02
#       4
#    16  16  16  16
#     4  10  21  39  64  93 127 169 218 276 344 418
#     4  12  25  43  67  97 134 178 230 289 351 421
#     4  10  21  39  64  93 127 169 218 276 344 418
#     4  12  25  43  67  97 134 178 230 289 351 421
#
# _framework density 26.669021000000001
#
# number of rings (size 3 to 8) (size 9 to 14) (size 15 to 20)
#    0.000    1.000    0.000    7.500    0.000    5.000 
#    0.000    2.500    0.000    0.000    0.000    0.000 
#    0.000    0.000    0.000    0.000    0.000    0.000 
#
# Total GULP energy -89404.093017 kJ/mol
# GULP energy per Si atom -5587.755814 kJ/mol
# Density = 2.660832 g / cm^3
# Si number density = 26.669021 Si / 1000 Ang^3
#
#
#
# Elastic Constant Matrix: (Units=GPa)
#
#
# Indices 1 2 3 4 5 6 
#
# 1 103.0121 -21.5696 7.3040 0.0003 -0.0005 -0.0002
# 2 -21.5696 73.7901 9.9224 0.0007 -0.0004 -0.0001
# 3 7.3040 9.9224 137.2232 0.0015 -0.0007 -0.0002
# 4 0.0003 0.0007 0.0015 32.1414 -0.0003 0.0000
# 5 -0.0005 -0.0004 -0.0007 -0.0003 34.3039 0.0004
# 6 -0.0002 -0.0001 -0.0002 0.0000 0.0004 34.9405
#
#
#
# Elastic Compliance Matrix: (Units=1/GPa)
#
#
# Indices 1 2 3 4 5 6 
#
# 1 0.010423 0.003152 -0.000783 0.000000 0.000000 0.000000
# 2 0.003152 0.014638 -0.001226 0.000000 0.000000 0.000000
# 3 -0.000783 -0.001226 0.007418 0.000000 0.000000 0.000000
# 4 0.000000 0.000000 0.000000 0.031113 0.000000 0.000000
# 5 0.000000 0.000000 0.000000 0.000000 0.029151 0.000000
# 6 0.000000 0.000000 0.000000 0.000000 0.000000 0.028620
#
#
# Mechanical properties :
#
#
# Convention : Reuss Voigt Hill
#
# Bulk Modulus (GPa) = 28.76444 33.92659 31.34552
# Shear Modulus (GPa) = 38.26576 41.50173 39.88374
#
# Velocity S-wave (km/s) = 3.79204 3.94912 3.87138
# Velocity P-wave (km/s) = 5.47557 5.79164 5.63582
#
# Compressibility (1/GPa) = 0.03476514
#
# Stress axis : x y z
#
# Youngs Moduli (GPa) = 95.94086 68.31441 134.81222
#
# Poissons Ratio (x) = -0.21533 0.10552
# Poissons Ratio (y) = -0.30241 0.16531
# Poissons Ratio (z) = 0.07509 0.08377
#
# Static dielectric constant tensor:
#      x y z
#    x 2.131890 0.000000 0.000000 
#    y 0.000000 2.296740 0.000000 
#    z 0.000000 0.000000 1.930520 
# 
# From -- ./inp_files/517.got.cif
#   From: 2010.05.17/outbox.cif.g08.bks.cpg/sg43_1_cif.got.tgz:517.got - 2010.06.03 19:21:55.
