data_PCOD9371644
_publ_section_title
;
Structure prediction by ZEFSAII (Michael W. Deem and Ramdas Pophale) SiO2 
 PCOD9371644
Probable space group: F D D 2
;
_chemical_formula_sum "Si O2"
_cell_formula_units_Z 96
_cell_length_a 16.833233
_cell_length_b 17.276239
_cell_length_c 13.870934
_cell_angle_alpha 90.000000
_cell_angle_beta 90.000000
_cell_angle_gamma 90.000000
_cell_volume 4033.875067
_symmetry_space_group_name_H-M "F D D 2"
_symmetry_group_IT_number 43
_symmetry_cell_setting 'orthorhombic'
loop_
_space_group_symop_operation_xyz
x,y,z
-x,-y,z
1/4-x,1/4+y,1/4+z
1/4+x,1/4-y,1/4+z
x,1/2+y,1/2+z
-x,1/2-y,1/2+z
1/4-x,3/4+y,3/4+z
1/4+x,3/4-y,3/4+z
1/2+x,y,1/2+z
1/2-x,-y,1/2+z
3/4-x,1/4+y,3/4+z
3/4+x,1/4-y,3/4+z
1/2+x,1/2+y,z
1/2-x,1/2-y,z
3/4-x,3/4+y,1/4+z
3/4+x,3/4-y,1/4+z
loop_
_atom_site_type_symbol
_atom_site_label
_atom_site_fract_x
_atom_site_fract_y
_atom_site_fract_z
Si Si1 0.710006 0.586382 0.112290
Si Si2 0.639083 0.366221 0.286154
Si Si3 0.186577 0.448147 0.298224
Si Si4 0.686707 0.815842 0.985351
Si Si5 0.661513 0.283027 0.080784
Si Si6 0.285738 0.066830 0.512711
O O1 0.753780 0.585329 0.217188
O O2 0.638480 0.641783 0.074070
O O3 0.786311 0.609587 0.044883
O O4 0.682206 0.501407 0.078959
O O5 0.690687 0.333197 0.372748
O O6 0.655802 0.323237 0.185754
O O7 0.640741 0.459708 0.296694
O O8 0.548061 0.342183 0.306028
O O9 0.147922 0.528928 0.263292
O O10 0.226423 0.458203 0.402536
O O11 0.750000 0.750000 0.010577
O O12 0.750000 0.250000 0.072703
O O13 0.658434 0.357687 0.011999
#
# Coordination Sequence:
#
# PCOD9371644 Si02
#       6
#    16  16  16  16  16  16
#     4  11  24  46  73 106 152 199 250 314 382 459
#     4  11  22  44  69  99 145 179 245 299 377 435
#     4  11  25  44  72 108 148 196 251 306 384 465
#     4  10  22  43  71 107 139 185 243 304 362 452
#     4  10  25  43  66 106 137 188 239 306 372 464
#     4  11  25  42  67 103 139 195 243 299 378 447
#
# _framework density 23.798458
#
# number of rings (size 3 to 8) (size 9 to 14) (size 15 to 20)
#    0.000    1.333    1.667    2.500    4.667    1.333 
#    3.000    2.500    0.000    0.000    0.000    0.000 
#    0.000    0.000    0.000    0.000    0.000    0.000 
#
# Total GULP energy -133955.640717 kJ/mol
# GULP energy per Si atom -5581.485030 kJ/mol
# Density = 2.374429 g / cm^3
# Si number density = 23.798458 Si / 1000 Ang^3
#
#
#
# Elastic Constant Matrix: (Units=GPa)
#
#
# Indices 1 2 3 4 5 6 
#
# 1 81.2927 19.2503 11.6365 0.0000 0.0000 0.0000
# 2 19.2503 127.1250 31.3200 0.0000 0.0000 0.0000
# 3 11.6365 31.3200 142.1115 0.0000 0.0000 0.0000
# 4 0.0000 0.0000 0.0000 36.6117 0.0000 0.0000
# 5 0.0000 0.0000 0.0000 0.0000 36.5110 0.0000
# 6 0.0000 0.0000 0.0000 0.0000 0.0000 -121.4953
#
#
#
# Elastic Compliance Matrix: (Units=1/GPa)
#
#
# Indices 1 2 3 4 5 6 
#
# 1 0.012817 -0.001779 -0.000657 0.000000 0.000000 0.000000
# 2 -0.001779 0.008565 -0.001742 0.000000 0.000000 0.000000
# 3 -0.000657 -0.001742 0.007474 0.000000 0.000000 0.000000
# 4 0.000000 0.000000 0.000000 0.027314 0.000000 0.000000
# 5 0.000000 0.000000 0.000000 0.000000 0.027389 0.000000
# 6 0.000000 0.000000 0.000000 0.000000 0.000000 -0.008231
#
#
# Mechanical properties :
#
#
# Convention : Reuss Voigt Hill
#
# Bulk Modulus (GPa) = 48.78179 52.77143 50.77661
# Shear Modulus (GPa) = 55.23805 9.54696 32.39250
#
# Velocity S-wave (km/s) = 4.82298 2.00507 3.69334
# Velocity P-wave (km/s) = 7.18034 5.25194 6.29047
#
# Compressibility (1/GPa) = 0.02049945
#
# Stress axis : x y z
#
# Youngs Moduli (GPa) = 78.02408 116.75694 133.78874
#
# Poissons Ratio (x) = 0.20769 0.08796
# Poissons Ratio (y) = 0.13879 0.23305
# Poissons Ratio (z) = 0.05129 0.20338
#
# Static dielectric constant tensor:
#      x y z
#    x 1.970120 0.000000 0.000000 
#    y 0.000000 1.913650 0.000000 
#    z 0.000000 0.000000 1.899190 
# 
# From -- ./inp_files/10912.got.cif
#   From: 2010.05.17/outbox.cif.g08.bks.cpg/sg43_6_cif.got.tgz:10912.got - 2010.06.03 19:21:55.
