data_PCOD9371387
_publ_section_title
;
Structure prediction by ZEFSAII (Michael W. Deem and Ramdas Pophale) SiO2 
 PCOD9371387
Probable space group: F D D 2
;
_chemical_formula_sum "Si O2"
_cell_formula_units_Z 104
_cell_length_a 22.144274
_cell_length_b 16.852370
_cell_length_c 12.790429
_cell_angle_alpha 90.000000
_cell_angle_beta 90.000000
_cell_angle_gamma 90.000000
_cell_volume 4773.177046
_symmetry_space_group_name_H-M "F D D 2"
_symmetry_group_IT_number 43
_symmetry_cell_setting 'orthorhombic'
loop_
_space_group_symop_operation_xyz
x,y,z
-x,-y,z
1/4-x,1/4+y,1/4+z
1/4+x,1/4-y,1/4+z
x,1/2+y,1/2+z
-x,1/2-y,1/2+z
1/4-x,3/4+y,3/4+z
1/4+x,3/4-y,3/4+z
1/2+x,y,1/2+z
1/2-x,-y,1/2+z
3/4-x,1/4+y,3/4+z
3/4+x,1/4-y,3/4+z
1/2+x,1/2+y,z
1/2-x,1/2-y,z
3/4-x,3/4+y,1/4+z
3/4+x,3/4-y,1/4+z
loop_
_atom_site_type_symbol
_atom_site_label
_atom_site_fract_x
_atom_site_fract_y
_atom_site_fract_z
Si Si1 0.500000 0.000000 0.367100
Si Si2 0.568716 0.111006 0.205999
Si Si3 0.401272 0.744369 0.330678
Si Si4 0.021135 0.758699 0.734801
Si Si5 0.318704 0.363982 0.281136
Si Si6 0.190788 0.929307 0.798478
Si Si7 0.126842 0.781560 0.881627
O O1 0.545814 0.048267 0.292424
O O2 0.460725 0.059753 0.438487
O O3 0.612126 0.177175 0.260627
O O4 0.599267 0.067678 0.108301
O O5 0.508644 0.162836 0.184304
O O6 0.461899 0.711154 0.275119
O O7 0.421268 0.777499 0.444259
O O8 0.070969 0.725731 0.655601
O O9 0.058930 0.776377 0.838716
O O10 0.262351 0.418331 0.310711
O O11 0.370937 0.423350 0.241604
O O12 0.341548 0.302978 0.368979
O O13 0.161305 0.843335 0.806680
#
# Coordination Sequence:
#
# PCOD9371387 Si02
#       7
#     8  16  16  16  16  16  16
#     4  12  18  34  60  94 120 142 210 262 328 380
#     4  10  22  38  62  91 132 164 216 269 326 393
#     4  10  22  40  61  93 129 171 214 271 323 392
#     4  10  24  39  58  98 126 170 216 262 336 394
#     4  12  22  38  59  97 123 164 207 264 331 390
#     4  12  22  38  66  92 130 170 210 276 333 389
#     4  12  21  38  64  93 127 158 211 273 326 383
#
# _framework density 21.788423000000002
#
# number of rings (size 3 to 8) (size 9 to 14) (size 15 to 20)
#    0.923    0.000    7.692    0.923    2.154    0.000 
#    2.769    0.000    0.000    0.000    0.000    0.000 
#    0.000    0.000    0.000    0.000    0.000    0.000 
#
# Total GULP energy -144920.750363 kJ/mol
# GULP energy per Si atom -5573.875014 kJ/mol
# Density = 2.173883 g / cm^3
# Si number density = 21.788423 Si / 1000 Ang^3
#
#
#
# Elastic Constant Matrix: (Units=GPa)
#
#
# Indices 1 2 3 4 5 6 
#
# 1 45.9167 2.8682 -4.4417 0.0000 0.0000 0.0000
# 2 2.8682 50.6670 9.5259 0.0000 0.0000 0.0000
# 3 -4.4417 9.5259 23.6522 0.0000 0.0000 0.0000
# 4 0.0000 0.0000 0.0000 16.4345 0.0000 0.0000
# 5 0.0000 0.0000 0.0000 0.0000 30.1266 0.0000
# 6 0.0000 0.0000 0.0000 0.0000 0.0000 36.1560
#
#
#
# Elastic Compliance Matrix: (Units=1/GPa)
#
#
# Indices 1 2 3 4 5 6 
#
# 1 0.022412 -0.002229 0.005106 0.000000 0.000000 0.000000
# 2 -0.002229 0.021575 -0.009108 0.000000 0.000000 0.000000
# 3 0.005106 -0.009108 0.046907 0.000000 0.000000 0.000000
# 4 0.000000 0.000000 0.000000 0.060848 0.000000 0.000000
# 5 0.000000 0.000000 0.000000 0.000000 0.033193 0.000000
# 6 0.000000 0.000000 0.000000 0.000000 0.000000 0.027658
#
#
# Mechanical properties :
#
#
# Convention : Reuss Voigt Hill
#
# Bulk Modulus (GPa) = 12.74975 15.12675 13.93825
# Shear Modulus (GPa) = 19.90468 24.02899 21.96683
#
# Velocity S-wave (km/s) = 3.02577 3.32450 3.17864
# Velocity P-wave (km/s) = 4.25104 4.65768 4.45900
#
# Compressibility (1/GPa) = 0.07843289
#
# Stress axis : x y z
#
# Youngs Moduli (GPa) = 44.61948 46.34941 21.31901
#
# Poissons Ratio (x) = 0.10330 -0.10886
# Poissons Ratio (y) = 0.09945 0.19417
# Poissons Ratio (z) = -0.22785 0.42215
#
# Static dielectric constant tensor:
#      x y z
#    x 1.829770 0.000000 0.000000 
#    y 0.000000 1.832820 0.000000 
#    z 0.000000 0.000000 1.851640 
# 
# From -- ./inp_files/11312.got.cif
#   From: 2010.05.17/outbox.cif.g08.bks.cpg/sg43_6_cif.got.tgz:11312.got - 2010.06.03 19:21:55.
