data_PCOD9371279
_publ_section_title
;
Structure prediction by ZEFSAII (Michael W. Deem and Ramdas Pophale) SiO2 
 PCOD9371279
Probable space group: F D D 2
;
_chemical_formula_sum "Si O2"
_cell_formula_units_Z 120
_cell_length_a 16.244764
_cell_length_b 23.683164
_cell_length_c 12.710288
_cell_angle_alpha 90.000000
_cell_angle_beta 90.000000
_cell_angle_gamma 90.000000
_cell_volume 4889.996182
_symmetry_space_group_name_H-M "F D D 2"
_symmetry_group_IT_number 43
_symmetry_cell_setting 'orthorhombic'
loop_
_space_group_symop_operation_xyz
x,y,z
-x,-y,z
1/4-x,1/4+y,1/4+z
1/4+x,1/4-y,1/4+z
x,1/2+y,1/2+z
-x,1/2-y,1/2+z
1/4-x,3/4+y,3/4+z
1/4+x,3/4-y,3/4+z
1/2+x,y,1/2+z
1/2-x,-y,1/2+z
3/4-x,1/4+y,3/4+z
3/4+x,1/4-y,3/4+z
1/2+x,1/2+y,z
1/2-x,1/2-y,z
3/4-x,3/4+y,1/4+z
3/4+x,3/4-y,1/4+z
loop_
_atom_site_type_symbol
_atom_site_label
_atom_site_fract_x
_atom_site_fract_y
_atom_site_fract_z
Si Si1 0.750000 0.750000 0.008160
Si Si2 0.422173 0.672295 0.347814
Si Si3 0.536079 0.115695 0.259377
Si Si4 0.173962 0.980255 0.194210
Si Si5 0.210841 0.187486 0.279818
Si Si6 0.383080 0.145840 0.359186
Si Si7 0.105551 0.466070 0.061864
Si Si8 0.197789 0.197699 0.593585
O O1 0.713419 0.804239 0.064586
O O2 0.683569 0.726277 0.925054
O O3 0.340827 0.648140 0.406751
O O4 0.486805 0.704272 0.423042
O O5 0.393104 0.723767 0.275759
O O6 0.464989 0.615664 0.305282
O O7 0.442375 0.136791 0.257549
O O8 0.580479 0.165958 0.318501
O O9 0.107828 0.948377 0.119684
O O10 0.144295 0.964950 0.310791
O O11 0.161417 0.045781 0.165655
O O12 0.250000 0.250000 0.258898
O O13 0.288746 0.151266 0.322787
O O14 0.160039 0.154734 0.188153
O O15 0.043985 0.446680 0.969780
O O16 0.250000 0.250000 0.550450
#
# Coordination Sequence:
#
# PCOD9371279 Si02
#       8
#     8  16  16  16  16  16  16  16
#     4  10  22  40  68 100 142 176 238 300 348 430
#     4  10  24  42  67  99 142 182 230 303 356 430
#     4  10  23  39  68 100 138 188 230 295 363 428
#     4  11  25  46  68 101 143 186 240 294 359 441
#     4  10  26  47  73 102 143 193 247 303 364 444
#     4  11  24  49  70 101 146 192 242 302 363 436
#     4  10  21  43  64  98 137 180 224 296 361 417
#     4  11  24  39  69 100 131 179 232 287 361 425
#
# _framework density 24.539897
#
# number of rings (size 3 to 8) (size 9 to 14) (size 15 to 20)
#    0.000    1.600    2.000    1.200    8.400    3.200 
#    0.000    0.000    0.000    0.000    0.000    0.000 
#    0.000    0.000    0.000    0.000    0.000    0.000 
#
# Total GULP energy -167397.673017 kJ/mol
# GULP energy per Si atom -5579.922434 kJ/mol
# Density = 2.448404 g / cm^3
# Si number density = 24.539897 Si / 1000 Ang^3
#
#
#
# Elastic Constant Matrix: (Units=GPa)
#
#
# Indices 1 2 3 4 5 6 
#
# 1 110.2558 34.6165 36.0329 0.0000 0.0000 0.0000
# 2 34.6165 183.2735 22.5928 0.0000 0.0000 0.0000
# 3 36.0329 22.5928 59.2019 0.0000 0.0000 0.0000
# 4 0.0000 0.0000 0.0000 32.4113 0.0000 0.0000
# 5 0.0000 0.0000 0.0000 0.0000 34.4615 0.0000
# 6 0.0000 0.0000 0.0000 0.0000 0.0000 49.9299
#
#
#
# Elastic Compliance Matrix: (Units=1/GPa)
#
#
# Indices 1 2 3 4 5 6 
#
# 1 0.011651 -0.001392 -0.006560 0.000000 0.000000 0.000000
# 2 -0.001392 0.005892 -0.001401 0.000000 0.000000 0.000000
# 3 -0.006560 -0.001401 0.021419 0.000000 0.000000 0.000000
# 4 0.000000 0.000000 0.000000 0.030853 0.000000 0.000000
# 5 0.000000 0.000000 0.000000 0.000000 0.029018 0.000000
# 6 0.000000 0.000000 0.000000 0.000000 0.000000 0.020028
#
#
# Mechanical properties :
#
#
# Convention : Reuss Voigt Hill
#
# Bulk Modulus (GPa) = 49.37029 59.91285 54.64157
# Shear Modulus (GPa) = 34.64548 40.65981 37.65265
#
# Velocity S-wave (km/s) = 3.76147 4.07490 3.92132
# Velocity P-wave (km/s) = 6.24716 6.82695 6.54348
#
# Compressibility (1/GPa) = 0.02025510
#
# Stress axis : x y z
#
# Youngs Moduli (GPa) = 85.83175 169.72241 46.68792
#
# Poissons Ratio (x) = 0.23624 0.30627
# Poissons Ratio (y) = 0.11947 0.06543
# Poissons Ratio (z) = 0.56305 0.23784
#
# Static dielectric constant tensor:
#      x y z
#    x 1.995160 0.000000 0.000000 
#    y 0.000000 1.987850 0.000000 
#    z 0.000000 0.000000 2.059730 
# 
# From -- ./inp_files/10708.got.cif
#   From: 2010.05.17/outbox.cif.g08.bks.cpg/sg43_6_cif.got.tgz:10708.got - 2010.06.03 19:21:55.
