data_PCOD9371056
_publ_section_title
;
Structure prediction by ZEFSAII (Michael W. Deem and Ramdas Pophale) SiO2 
 PCOD9371056
Probable space group: F D D 2
;
_chemical_formula_sum "Si O2"
_cell_formula_units_Z 80
_cell_length_a 12.426455
_cell_length_b 21.098389
_cell_length_c 14.333289
_cell_angle_alpha 90.000000
_cell_angle_beta 90.000000
_cell_angle_gamma 90.000000
_cell_volume 3757.875645
_symmetry_space_group_name_H-M "F D D 2"
_symmetry_group_IT_number 43
_symmetry_cell_setting 'orthorhombic'
loop_
_space_group_symop_operation_xyz
x,y,z
-x,-y,z
1/4-x,1/4+y,1/4+z
1/4+x,1/4-y,1/4+z
x,1/2+y,1/2+z
-x,1/2-y,1/2+z
1/4-x,3/4+y,3/4+z
1/4+x,3/4-y,3/4+z
1/2+x,y,1/2+z
1/2-x,-y,1/2+z
3/4-x,1/4+y,3/4+z
3/4+x,1/4-y,3/4+z
1/2+x,1/2+y,z
1/2-x,1/2-y,z
3/4-x,3/4+y,1/4+z
3/4+x,3/4-y,1/4+z
loop_
_atom_site_type_symbol
_atom_site_label
_atom_site_fract_x
_atom_site_fract_y
_atom_site_fract_z
Si Si1 0.075365 0.644050 0.928750
Si Si2 0.340627 0.997149 0.455571
Si Si3 0.301114 0.004909 0.244549
Si Si4 0.398889 0.198013 0.813098
Si Si5 0.748080 0.148794 0.778097
O O1 0.981146 0.643365 0.851404
O O2 0.190476 0.641637 0.878402
O O3 0.061734 0.588178 0.002755
O O4 0.055062 0.712731 0.974113
O O5 0.342328 0.983788 0.345810
O O6 0.397762 0.943317 0.517738
O O7 0.221936 0.009022 0.495401
O O8 0.409997 0.061359 0.469474
O O9 0.376393 0.985507 0.157528
O O10 0.275306 0.078767 0.244466
#
# Coordination Sequence:
#
# PCOD9371056 Si02
#       5
#    16  16  16  16  16
#     4   9  20  40  64  87 126 157 214 251 309 360
#     4  10  21  38  61  94 120 158 206 268 301 360
#     4  10  22  38  65  88 128 167 197 264 308 374
#     4   9  20  39  61  92 119 160 205 253 309 364
#     4  10  21  39  64  88 121 162 218 248 307 374
#
# _framework density 21.288623000000001
#
# number of rings (size 3 to 8) (size 9 to 14) (size 15 to 20)
#    1.200    1.200    2.000    0.000    2.800    0.000 
#    7.200    0.000    4.400    0.000    0.000    0.000 
#    0.000    0.000    0.000    0.000    0.000    0.000 
#
# Total GULP energy -111388.536464 kJ/mol
# GULP energy per Si atom -5569.426823 kJ/mol
# Density = 2.124017 g / cm^3
# Si number density = 21.288623 Si / 1000 Ang^3
#
#
#
# Elastic Constant Matrix: (Units=GPa)
#
#
# Indices 1 2 3 4 5 6 
#
# 1 27.4722 11.5950 6.3360 0.0000 0.0000 0.0000
# 2 11.5950 63.9117 13.8506 0.0000 0.0000 0.0000
# 3 6.3360 13.8506 102.3435 0.0000 0.0000 0.0000
# 4 0.0000 0.0000 0.0000 41.6013 0.0000 0.0000
# 5 0.0000 0.0000 0.0000 0.0000 17.9621 0.0000
# 6 0.0000 0.0000 0.0000 0.0000 0.0000 4.5135
#
#
#
# Elastic Compliance Matrix: (Units=1/GPa)
#
#
# Indices 1 2 3 4 5 6 
#
# 1 0.039649 -0.006862 -0.001526 0.000000 0.000000 0.000000
# 2 -0.006862 0.017307 -0.001917 0.000000 0.000000 0.000000
# 3 -0.001526 -0.001917 0.010125 0.000000 0.000000 0.000000
# 4 0.000000 0.000000 0.000000 0.024038 0.000000 0.000000
# 5 0.000000 0.000000 0.000000 0.000000 0.055673 0.000000
# 6 0.000000 0.000000 0.000000 0.000000 0.000000 0.221557
#
#
# Mechanical properties :
#
#
# Convention : Reuss Voigt Hill
#
# Bulk Modulus (GPa) = 21.51958 28.58784 25.05371
# Shear Modulus (GPa) = 12.36248 23.61178 17.98713
#
# Velocity S-wave (km/s) = 2.41240 3.33397 2.90990
# Velocity P-wave (km/s) = 4.22966 5.31774 4.80460
#
# Compressibility (1/GPa) = 0.04646932
#
# Stress axis : x y z
#
# Youngs Moduli (GPa) = 25.22146 57.77969 98.76572
#
# Poissons Ratio (x) = 0.39651 0.15071
# Poissons Ratio (y) = 0.17308 0.18937
# Poissons Ratio (z) = 0.03849 0.11079
#
# Static dielectric constant tensor:
#      x y z
#    x 1.801720 0.000000 0.000000 
#    y 0.000000 1.751380 0.000000 
#    z 0.000000 0.000000 1.806310 
# 
# From -- ./inp_files/10561.got.cif
#   From: 2010.05.17/outbox.cif.g08.bks.cpg/sg43_6_cif.got.tgz:10561.got - 2010.06.03 19:21:55.
