data_PCOD9371532
_publ_section_title
;
Structure prediction by ZEFSAII (Michael W. Deem and Ramdas Pophale) SiO2 
 PCOD9371532
Probable space group: F D D 2
;
_chemical_formula_sum "Si O2"
_cell_formula_units_Z 120
_cell_length_a 24.642194
_cell_length_b 18.708799
_cell_length_c 11.605027
_cell_angle_alpha 90.000000
_cell_angle_beta 90.000000
_cell_angle_gamma 90.000000
_cell_volume 5350.217489
_symmetry_space_group_name_H-M "F D D 2"
_symmetry_group_IT_number 43
_symmetry_cell_setting 'orthorhombic'
loop_
_space_group_symop_operation_xyz
x,y,z
-x,-y,z
1/4-x,1/4+y,1/4+z
1/4+x,1/4-y,1/4+z
x,1/2+y,1/2+z
-x,1/2-y,1/2+z
1/4-x,3/4+y,3/4+z
1/4+x,3/4-y,3/4+z
1/2+x,y,1/2+z
1/2-x,-y,1/2+z
3/4-x,1/4+y,3/4+z
3/4+x,1/4-y,3/4+z
1/2+x,1/2+y,z
1/2-x,1/2-y,z
3/4-x,3/4+y,1/4+z
3/4+x,3/4-y,1/4+z
loop_
_atom_site_type_symbol
_atom_site_label
_atom_site_fract_x
_atom_site_fract_y
_atom_site_fract_z
Si Si1 0.760112 0.443897 0.635900
Si Si2 0.087748 0.550416 0.129157
Si Si3 0.734253 0.327425 0.991573
Si Si4 0.500000 0.500000 0.470993
Si Si5 0.947926 0.949253 0.893023
Si Si6 0.323370 0.043486 0.780270
Si Si7 0.880578 0.953549 0.116402
Si Si8 0.691975 0.039693 0.990098
O O1 0.720189 0.380677 0.667411
O O2 0.821511 0.416595 0.616123
O O3 0.768950 0.507448 0.728882
O O4 0.737292 0.481637 0.522433
O O5 0.075380 0.546198 0.263787
O O6 0.070521 0.628211 0.080319
O O7 0.150579 0.544296 0.095917
O O8 0.051487 0.494566 0.055474
O O9 0.738795 0.313898 0.129349
O O10 0.883060 0.279312 0.929377
O O11 0.674306 0.339221 0.943024
O O12 0.776758 0.388087 0.961744
O O13 0.904026 0.965166 0.990469
O O14 0.000000 0.000000 0.900964
O O15 0.341053 0.990294 0.882394
O O16 0.000000 0.000000 0.190115
#
# Coordination Sequence:
#
# PCOD9371532 Si02
#       8
#    16  16  16   8  16  16  16  16
#     4  10  26  45  70 110 144 197 241 309 376 450
#     4  12  25  45  75 105 155 193 249 316 379 454
#     4  10  22  41  71 105 137 188 248 307 362 438
#     4  10  24  44  70 110 136 192 252 296 374 444
#     4  12  26  49  73 112 150 200 256 311 386 461
#     4  10  24  47  71 105 146 191 251 304 379 448
#     4  10  24  46  72 105 148 191 250 308 375 441
#     4  12  24  43  75 106 147 190 250 313 376 446
#
# _framework density 22.428993999999999
#
# number of rings (size 3 to 8) (size 9 to 14) (size 15 to 20)
#    1.200    0.000    2.000    3.600    1.867    4.267 
#    2.400    0.000    0.000    0.000    0.000    0.000 
#    0.000    0.000    0.000    0.000    0.000    0.000 
#
# Total GULP energy -167491.485534 kJ/mol
# GULP energy per Si atom -5583.049518 kJ/mol
# Density = 2.237795 g / cm^3
# Si number density = 22.428994 Si / 1000 Ang^3
#
#
#
# Elastic Constant Matrix: (Units=GPa)
#
#
# Indices 1 2 3 4 5 6 
#
# 1 81.6378 10.2831 42.3192 0.0000 0.0000 0.0000
# 2 10.2831 55.0625 25.4484 0.0000 0.0000 0.0000
# 3 42.3192 25.4484 152.2513 0.0000 0.0000 0.0000
# 4 0.0000 0.0000 0.0000 18.2466 0.0000 0.0000
# 5 0.0000 0.0000 0.0000 0.0000 40.6174 0.0000
# 6 0.0000 0.0000 0.0000 0.0000 0.0000 14.8058
#
#
#
# Elastic Compliance Matrix: (Units=1/GPa)
#
#
# Indices 1 2 3 4 5 6 
#
# 1 0.014353 -0.000907 -0.003838 0.000000 0.000000 0.000000
# 2 -0.000907 0.019739 -0.003047 0.000000 0.000000 0.000000
# 3 -0.003838 -0.003047 0.008144 0.000000 0.000000 0.000000
# 4 0.000000 0.000000 0.000000 0.054805 0.000000 0.000000
# 5 0.000000 0.000000 0.000000 0.000000 0.024620 0.000000
# 6 0.000000 0.000000 0.000000 0.000000 0.000000 0.067541
#
#
# Mechanical properties :
#
#
# Convention : Reuss Voigt Hill
#
# Bulk Modulus (GPa) = 37.52028 49.45032 43.48530
# Shear Modulus (GPa) = 23.40059 28.79400 26.09730
#
# Velocity S-wave (km/s) = 3.23355 3.58688 3.41479
# Velocity P-wave (km/s) = 5.54129 6.26495 5.91420
#
# Compressibility (1/GPa) = 0.02665225
#
# Stress axis : x y z
#
# Youngs Moduli (GPa) = 69.67214 50.66141 122.78648
#
# Poissons Ratio (x) = 0.04593 0.47125
# Poissons Ratio (y) = 0.06317 0.37417
# Poissons Ratio (z) = 0.26740 0.15438
#
# Static dielectric constant tensor:
#      x y z
#    x 1.853780 0.000000 0.000000 
#    y 0.000000 1.852180 0.000000 
#    z 0.000000 0.000000 1.875670 
# 
# From -- ./inp_files/8032.got.cif
#   From: 2010.05.17/outbox.cif.g08.bks.cpg/sg43_5_cif.got.tgz:8032.got - 2010.06.03 19:21:55.
