data_PCOD9371042
_publ_section_title
;
Structure prediction by ZEFSAII (Michael W. Deem and Ramdas Pophale) SiO2 
 PCOD9371042
Probable space group: F D D 2
;
_chemical_formula_sum "Si O2"
_cell_formula_units_Z 80
_cell_length_a 26.877814
_cell_length_b 20.425022
_cell_length_c 7.832483
_cell_angle_alpha 90.000000
_cell_angle_beta 90.000000
_cell_angle_gamma 90.000000
_cell_volume 4299.876065
_symmetry_space_group_name_H-M "F D D 2"
_symmetry_group_IT_number 43
_symmetry_cell_setting 'orthorhombic'
loop_
_space_group_symop_operation_xyz
x,y,z
-x,-y,z
1/4-x,1/4+y,1/4+z
1/4+x,1/4-y,1/4+z
x,1/2+y,1/2+z
-x,1/2-y,1/2+z
1/4-x,3/4+y,3/4+z
1/4+x,3/4-y,3/4+z
1/2+x,y,1/2+z
1/2-x,-y,1/2+z
3/4-x,1/4+y,3/4+z
3/4+x,1/4-y,3/4+z
1/2+x,1/2+y,z
1/2-x,1/2-y,z
3/4-x,3/4+y,1/4+z
3/4+x,3/4-y,1/4+z
loop_
_atom_site_type_symbol
_atom_site_label
_atom_site_fract_x
_atom_site_fract_y
_atom_site_fract_z
Si Si1 0.289953 0.806415 0.846860
Si Si2 0.219967 0.923516 0.756020
Si Si3 0.792512 0.802852 0.735325
Si Si4 0.894504 0.593944 0.284875
Si Si5 0.225898 0.567438 0.408961
O O1 0.250000 0.750000 0.802032
O O2 0.258892 0.873783 0.839981
O O3 0.332683 0.812714 0.705847
O O4 0.308323 0.795013 0.039518
O O5 0.164056 0.899761 0.787623
O O6 0.232862 0.924948 0.555036
O O7 0.225384 0.996204 0.830080
O O8 0.750000 0.750000 0.773212
O O9 0.836802 0.800271 0.873488
O O10 0.769436 0.875066 0.769016
O O11 0.923590 0.662321 0.250356
#
# Coordination Sequence:
#
# PCOD9371042 Si02
#       5
#    16  16  16  16  16
#     4  10  21  38  60  87 119 156 200 247 300 363
#     4  11  21  40  60  86 128 157 195 264 295 361
#     4   9  19  40  58  86 117 152 201 244 298 365
#     4   9  22  37  61  87 117 159 205 237 309 359
#     4   9  22  37  59  89 119 159 199 243 313 351
#
# _framework density 18.605187999999998
#
# number of rings (size 3 to 8) (size 9 to 14) (size 15 to 20)
#    1.200    1.200    0.000    1.800    2.800    0.000 
#    7.200    4.000    0.000    0.000    0.000    0.000 
#    0.000    0.000    0.000    0.000    0.000    0.000 
#
# Total GULP energy -111415.171744 kJ/mol
# GULP energy per Si atom -5570.758587 kJ/mol
# Density = 1.856284 g / cm^3
# Si number density = 18.605188 Si / 1000 Ang^3
#
#
#
# Elastic Constant Matrix: (Units=GPa)
#
#
# Indices 1 2 3 4 5 6 
#
# 1 80.8207 -5.2841 29.1670 0.0000 0.0000 0.0000
# 2 -5.2841 75.7359 -16.1760 0.0000 -0.0002 0.0000
# 3 29.1670 -16.1760 76.5227 0.0005 -0.0009 0.0000
# 4 0.0000 0.0000 0.0005 13.2177 -0.0004 0.0000
# 5 0.0000 -0.0002 -0.0009 -0.0004 35.5189 -0.0002
# 6 0.0000 0.0000 0.0000 0.0000 -0.0002 15.3101
#
#
#
# Elastic Compliance Matrix: (Units=1/GPa)
#
#
# Indices 1 2 3 4 5 6 
#
# 1 0.014349 -0.000175 -0.005506 0.000000 0.000000 0.000000
# 2 -0.000175 0.013830 0.002990 0.000000 0.000000 0.000000
# 3 -0.005506 0.002990 0.015799 -0.000001 0.000000 0.000000
# 4 0.000000 0.000000 -0.000001 0.075656 0.000001 0.000000
# 5 0.000000 0.000000 0.000000 0.000001 0.028154 0.000000
# 6 0.000000 0.000000 0.000000 0.000000 0.000000 0.065316
#
#
# Mechanical properties :
#
#
# Convention : Reuss Voigt Hill
#
# Bulk Modulus (GPa) = 25.90925 27.61033 26.75979
# Shear Modulus (GPa) = 21.61215 27.83416 24.72315
#
# Velocity S-wave (km/s) = 3.41195 3.87207 3.64927
# Velocity P-wave (km/s) = 5.42936 5.90448 5.67190
#
# Compressibility (1/GPa) = 0.03859625
#
# Stress axis : x y z
#
# Youngs Moduli (GPa) = 69.69279 72.30536 63.29605
#
# Poissons Ratio (x) = 0.01265 0.34851
# Poissons Ratio (y) = 0.01219 -0.18927
# Poissons Ratio (z) = 0.38373 -0.21621
#
# Static dielectric constant tensor:
#      x y z
#    x 1.590600 0.000000 0.000000 
#    y 0.000000 1.636900 0.000000 
#    z 0.000000 0.000000 1.649120 
# 
# From -- ./inp_files/4165.got.cif
#   From: 2010.05.17/outbox.cif.g08.bks.cpg/sg43_3_cif.got.tgz:4165.got - 2010.06.03 19:21:55.
