data_PCOD9371123
_publ_section_title
;
Structure prediction by ZEFSAII (Michael W. Deem and Ramdas Pophale) SiO2 
 PCOD9371123
Probable space group: F D D 2
;
_chemical_formula_sum "Si O2"
_cell_formula_units_Z 112
_cell_length_a 14.762431
_cell_length_b 35.064342
_cell_length_c 9.466050
_cell_angle_alpha 90.000000
_cell_angle_beta 90.000000
_cell_angle_gamma 90.000000
_cell_volume 4899.958123
_symmetry_space_group_name_H-M "F D D 2"
_symmetry_group_IT_number 43
_symmetry_cell_setting 'orthorhombic'
loop_
_space_group_symop_operation_xyz
x,y,z
-x,-y,z
1/4-x,1/4+y,1/4+z
1/4+x,1/4-y,1/4+z
x,1/2+y,1/2+z
-x,1/2-y,1/2+z
1/4-x,3/4+y,3/4+z
1/4+x,3/4-y,3/4+z
1/2+x,y,1/2+z
1/2-x,-y,1/2+z
3/4-x,1/4+y,3/4+z
3/4+x,1/4-y,3/4+z
1/2+x,1/2+y,z
1/2-x,1/2-y,z
3/4-x,3/4+y,1/4+z
3/4+x,3/4-y,1/4+z
loop_
_atom_site_type_symbol
_atom_site_label
_atom_site_fract_x
_atom_site_fract_y
_atom_site_fract_z
Si Si1 0.553912 0.904648 0.099590
Si Si2 0.923965 0.971111 0.571294
Si Si3 0.019903 0.248434 0.288309
Si Si4 0.020417 0.668929 0.199177
Si Si5 0.419208 0.325258 0.134310
Si Si6 0.660483 0.602384 0.231349
Si Si7 0.076985 0.527533 0.735355
O O1 0.525091 0.860366 0.090838
O O2 0.610657 0.918361 0.240056
O O3 0.462657 0.929398 0.100887
O O4 0.622088 0.914489 0.971983
O O5 0.821777 0.981748 0.606898
O O6 0.922627 0.976655 0.402544
O O7 0.000000 0.000000 0.630990
O O8 0.071722 0.216710 0.196937
O O9 0.081189 0.263221 0.415585
O O10 0.999792 0.286331 0.196066
O O11 0.972350 0.652608 0.341761
O O12 0.374075 0.354908 0.242326
O O13 0.522145 0.338674 0.103066
O O14 0.577591 0.572922 0.209758
O O15 0.000000 0.500000 0.675900
#
# Coordination Sequence:
#
# PCOD9371123 Si02
#       7
#    16  16  16  16  16  16  16
#     4  10  21  44  65  95 130 179 220 277 340 397
#     4  11  22  42  65  89 132 178 215 276 335 398
#     4  11  22  43  67  98 130 178 222 278 341 404
#     4   9  20  41  64  90 132 166 220 275 329 392
#     4  10  21  39  68  94 131 174 224 274 334 407
#     4   9  19  38  63  87 127 173 211 274 329 387
#     4  10  23  42  63  91 135 175 218 278 341 391
#
# _framework density 22.857337999999999
#
# number of rings (size 3 to 8) (size 9 to 14) (size 15 to 20)
#    0.000    2.000    2.857    0.000    2.000    0.000 
#   10.286    0.000    0.000    0.000    0.000    0.000 
#    0.000    0.000    0.000    0.000    0.000    0.000 
#
# Total GULP energy -156290.567385 kJ/mol
# GULP energy per Si atom -5581.805978 kJ/mol
# Density = 2.280531 g / cm^3
# Si number density = 22.857338 Si / 1000 Ang^3
#
#
#
# Elastic Constant Matrix: (Units=GPa)
#
#
# Indices 1 2 3 4 5 6 
#
# 1 100.7583 65.8233 11.5660 0.0000 0.0000 0.0000
# 2 65.8233 175.4348 15.6014 0.0000 0.0000 0.0000
# 3 11.5660 15.6014 20.8811 0.0000 0.0000 0.0000
# 4 0.0000 0.0000 0.0000 18.4004 0.0000 0.0000
# 5 0.0000 0.0000 0.0000 0.0000 14.0413 0.0000
# 6 0.0000 0.0000 0.0000 0.0000 0.0000 26.5117
#
#
#
# Elastic Compliance Matrix: (Units=1/GPa)
#
#
# Indices 1 2 3 4 5 6 
#
# 1 0.013443 -0.004694 -0.003939 0.000000 0.000000 0.000000
# 2 -0.004694 0.007745 -0.003187 0.000000 0.000000 0.000000
# 3 -0.003939 -0.003187 0.052453 0.000000 0.000000 0.000000
# 4 0.000000 0.000000 0.000000 0.054347 0.000000 0.000000
# 5 0.000000 0.000000 0.000000 0.000000 0.071219 0.000000
# 6 0.000000 0.000000 0.000000 0.000000 0.000000 0.037719
#
#
# Mechanical properties :
#
#
# Convention : Reuss Voigt Hill
#
# Bulk Modulus (GPa) = 19.99927 53.67285 36.83606
# Shear Modulus (GPa) = 18.03546 25.39624 21.71585
#
# Velocity S-wave (km/s) = 2.81204 3.33690 3.08565
# Velocity P-wave (km/s) = 4.39455 6.19509 5.37081
#
# Compressibility (1/GPa) = 0.05000184
#
# Stress axis : x y z
#
# Youngs Moduli (GPa) = 74.38738 129.12334 19.06462
#
# Poissons Ratio (x) = 0.60605 0.07510
# Poissons Ratio (y) = 0.34914 0.06075
# Poissons Ratio (z) = 0.29304 0.41147
#
# Static dielectric constant tensor:
#      x y z
#    x 1.876300 0.000000 0.000000 
#    y 0.000000 1.877680 0.000000 
#    z 0.000000 0.000000 1.884990 
# 
# From -- ./inp_files/6326.got.cif
#   From: 2010.05.17/outbox.cif.g08.bks.cpg/sg43_4_cif.got.tgz:6326.got - 2010.06.03 19:21:55.
