data_PCOD9372851
_publ_section_title
;
Structure prediction by ZEFSAII (Michael W. Deem and Ramdas Pophale) SiO2 
 PCOD9372851
Probable space group: F D D 2
;
_chemical_formula_sum "Si O2"
_cell_formula_units_Z 88
_cell_length_a 18.986826
_cell_length_b 24.876977
_cell_length_c 6.522369
_cell_angle_alpha 90.000000
_cell_angle_beta 90.000000
_cell_angle_gamma 90.000000
_cell_volume 3080.742077
_symmetry_space_group_name_H-M "F D D 2"
_symmetry_group_IT_number 43
_symmetry_cell_setting 'orthorhombic'
loop_
_space_group_symop_operation_xyz
x,y,z
-x,-y,z
1/4-x,1/4+y,1/4+z
1/4+x,1/4-y,1/4+z
x,1/2+y,1/2+z
-x,1/2-y,1/2+z
1/4-x,3/4+y,3/4+z
1/4+x,3/4-y,3/4+z
1/2+x,y,1/2+z
1/2-x,-y,1/2+z
3/4-x,1/4+y,3/4+z
3/4+x,1/4-y,3/4+z
1/2+x,1/2+y,z
1/2-x,1/2-y,z
3/4-x,3/4+y,1/4+z
3/4+x,3/4-y,1/4+z
loop_
_atom_site_type_symbol
_atom_site_label
_atom_site_fract_x
_atom_site_fract_y
_atom_site_fract_z
Si Si1 0.750000 0.250000 0.195220
Si Si2 0.962725 0.625485 0.505691
Si Si3 0.050456 0.093261 0.374406
Si Si4 0.043684 0.188086 0.702207
Si Si5 0.400134 0.717929 0.933568
Si Si6 0.401721 0.025065 0.281838
O O1 0.810343 0.232503 0.386901
O O2 0.683681 0.277179 0.018331
O O3 0.024214 0.624954 0.665326
O O4 0.971000 0.674238 0.332692
O O5 0.946847 0.569905 0.403196
O O6 0.973673 0.564718 0.927499
O O7 0.055485 0.138234 0.555827
O O8 0.141706 0.092515 0.324757
O O9 0.051478 0.241800 0.568595
O O10 0.095556 0.194815 0.890444
O O11 0.387871 0.742497 0.709695
#
# Coordination Sequence:
#
# PCOD9372851 Si02
#       6
#     8  16  16  16  16  16
#     4  12  24  50  80 100 154 204 256 314 392 456
#     4  12  28  47  79 107 157 197 257 319 393 466
#     4  12  27  50  74 114 148 205 258 320 387 478
#     4  12  28  48  74 116 150 196 258 318 396 464
#     4  12  28  47  79 107 157 197 257 319 393 466
#     4  12  27  50  74 114 148 205 258 320 387 478
#
# _framework density 28.564544999999999
#
# number of rings (size 3 to 8) (size 9 to 14) (size 15 to 20)
#    0.000    0.000    3.636    5.455   10.182    0.000 
#    0.000    0.000    0.000    0.000    0.000    0.000 
#    0.000    0.000    0.000    0.000    0.000    0.000 
#
# Total GULP energy -122767.227827 kJ/mol
# GULP energy per Si atom -5580.328538 kJ/mol
# Density = 2.849953 g / cm^3
# Si number density = 28.564545 Si / 1000 Ang^3
#
#
#
# Elastic Constant Matrix: (Units=GPa)
#
#
# Indices 1 2 3 4 5 6 
#
# 1 157.2919 70.2212 79.7109 -0.0018 0.0019 -0.0002
# 2 70.2212 175.4336 83.7165 0.0005 -0.0005 0.0000
# 3 79.7109 83.7165 200.7280 -0.0019 0.0010 -0.0009
# 4 -0.0018 0.0005 -0.0019 45.5819 0.0029 -0.0002
# 5 0.0019 -0.0005 0.0010 0.0029 75.2367 0.0002
# 6 -0.0002 0.0000 -0.0009 -0.0002 0.0002 65.6594
#
#
#
# Elastic Compliance Matrix: (Units=1/GPa)
#
#
# Indices 1 2 3 4 5 6 
#
# 1 0.008628 -0.002270 -0.002479 0.000000 0.000000 0.000000
# 2 -0.002270 0.007714 -0.002316 0.000000 0.000000 0.000000
# 3 -0.002479 -0.002316 0.006932 0.000000 0.000000 0.000000
# 4 0.000000 0.000000 0.000000 0.021939 -0.000001 0.000000
# 5 0.000000 0.000000 0.000000 -0.000001 0.013291 0.000000
# 6 0.000000 0.000000 0.000000 0.000000 0.000000 0.015230
#
#
# Mechanical properties :
#
#
# Convention : Reuss Voigt Hill
#
# Bulk Modulus (GPa) = 109.36957 111.19452 110.28204
# Shear Modulus (GPa) = 54.99838 57.28259 56.14049
#
# Velocity S-wave (km/s) = 4.39271 4.48300 4.43808
# Velocity P-wave (km/s) = 8.00622 8.11223 8.05940
#
# Compressibility (1/GPa) = 0.00914331
#
# Stress axis : x y z
#
# Youngs Moduli (GPa) = 115.90774 129.63579 144.25525
#
# Poissons Ratio (x) = 0.29431 0.35764
# Poissons Ratio (y) = 0.26314 0.33404
# Poissons Ratio (z) = 0.28736 0.30019
#
# Static dielectric constant tensor:
#      x y z
#    x 2.377740 -0.000010 0.000000 
#    y -0.000010 2.374650 0.000010 
#    z 0.000000 0.000010 2.466830 
# 
# From -- ./inp_files/1228.got.cif
#   From: 2010.05.17/outbox.cif.g08.bks.cpg/sg43_1_cif.got.tgz:1228.got - 2010.06.03 19:21:55.
