data_PCOD9372069
_publ_section_title
;
Structure prediction by ZEFSAII (Michael W. Deem and Ramdas Pophale) SiO2 
 PCOD9372069
Probable space group: F D D 2
;
_chemical_formula_sum "Si O2"
_cell_formula_units_Z 104
_cell_length_a 23.317722
_cell_length_b 7.597349
_cell_length_c 26.951080
_cell_angle_alpha 90.000000
_cell_angle_beta 90.000000
_cell_angle_gamma 90.000000
_cell_volume 4774.461223
_symmetry_space_group_name_H-M "F D D 2"
_symmetry_group_IT_number 43
_symmetry_cell_setting 'orthorhombic'
loop_
_space_group_symop_operation_xyz
x,y,z
-x,-y,z
1/4-x,1/4+y,1/4+z
1/4+x,1/4-y,1/4+z
x,1/2+y,1/2+z
-x,1/2-y,1/2+z
1/4-x,3/4+y,3/4+z
1/4+x,3/4-y,3/4+z
1/2+x,y,1/2+z
1/2-x,-y,1/2+z
3/4-x,1/4+y,3/4+z
3/4+x,1/4-y,3/4+z
1/2+x,1/2+y,z
1/2-x,1/2-y,z
3/4-x,3/4+y,1/4+z
3/4+x,3/4-y,1/4+z
loop_
_atom_site_type_symbol
_atom_site_label
_atom_site_fract_x
_atom_site_fract_y
_atom_site_fract_z
Si Si1 0.450986 0.206647 0.359410
Si Si2 0.510620 0.793669 0.570503
Si Si3 0.126860 0.979947 0.382851
Si Si4 0.492075 0.208379 0.960802
Si Si5 0.388250 0.139798 0.095373
Si Si6 0.750000 0.250000 0.521834
Si Si7 0.867374 0.131182 0.484293
O O1 0.422104 0.399115 0.359518
O O2 0.484713 0.196923 0.411679
O O3 0.399898 0.062012 0.356354
O O4 0.489125 0.160097 0.311116
O O5 0.564807 0.760085 0.604309
O O6 0.522539 0.744051 0.513235
O O7 0.455066 0.692621 0.592455
O O8 0.500000 0.000000 0.571023
O O9 0.119976 0.769673 0.380164
O O10 0.132968 0.015323 0.441558
O O11 0.425354 0.243118 0.974482
O O12 0.500000 0.000000 0.951044
O O13 0.375115 0.067506 0.040317
O O14 0.806255 0.228480 0.487975
#
# Coordination Sequence:
#
# PCOD9372069 Si02
#       7
#    16  16  16  16  16   8  16
#     4  11  25  45  71 105 136 182 245 293 362 436
#     4  11  23  42  70 105 146 189 244 290 362 432
#     4  12  24  44  73 101 142 189 238 300 357 433
#     4  11  23  43  69 104 140 186 244 292 358 439
#     4  10  24  47  68 101 145 190 231 304 355 429
#     4  10  26  48  68 106 150 188 238 312 366 440
#     4  10  24  44  69 100 141 183 238 287 364 428
#
# _framework density 21.782563
#
# number of rings (size 3 to 8) (size 9 to 14) (size 15 to 20)
#    0.000    1.231    3.077    2.308    7.538    1.231 
#    0.000    1.538    0.000    0.000    0.000    0.000 
#    0.000    0.000    0.000    0.000    0.000    0.000 
#
# Total GULP energy -145182.552518 kJ/mol
# GULP energy per Si atom -5583.944328 kJ/mol
# Density = 2.173298 g / cm^3
# Si number density = 21.782563 Si / 1000 Ang^3
#
#
#
# Elastic Constant Matrix: (Units=GPa)
#
#
# Indices 1 2 3 4 5 6 
#
# 1 131.9807 10.2853 42.6528 0.0000 0.0000 0.0000
# 2 10.2853 85.2030 13.0564 0.0001 0.0001 0.0000
# 3 42.6528 13.0564 103.2188 0.0000 0.0000 0.0000
# 4 0.0000 0.0001 0.0000 14.7232 0.0000 0.0000
# 5 0.0000 0.0001 0.0000 0.0000 42.0200 0.0000
# 6 0.0000 0.0000 0.0000 0.0000 0.0000 22.1160
#
#
#
# Elastic Compliance Matrix: (Units=1/GPa)
#
#
# Indices 1 2 3 4 5 6 
#
# 1 0.008767 -0.000513 -0.003558 0.000000 0.000000 0.000000
# 2 -0.000513 0.011999 -0.001306 0.000000 0.000000 0.000000
# 3 -0.003558 -0.001306 0.011323 0.000000 0.000000 0.000000
# 4 0.000000 0.000000 0.000000 0.067920 0.000000 0.000000
# 5 0.000000 0.000000 0.000000 0.000000 0.023798 0.000000
# 6 0.000000 0.000000 0.000000 0.000000 0.000000 0.045216
#
#
# Mechanical properties :
#
#
# Convention : Reuss Voigt Hill
#
# Bulk Modulus (GPa) = 46.86969 50.26572 48.56770
# Shear Modulus (GPa) = 26.75400 32.73238 29.74319
#
# Velocity S-wave (km/s) = 3.50841 3.88066 3.69922
# Velocity P-wave (km/s) = 6.16245 6.57309 6.37108
#
# Compressibility (1/GPa) = 0.02133575
#
# Stress axis : x y z
#
# Youngs Moduli (GPa) = 114.06917 83.34242 88.31223
#
# Poissons Ratio (x) = 0.04276 0.31419
# Poissons Ratio (y) = 0.05853 0.11531
# Poissons Ratio (z) = 0.40582 0.10882
#
# Static dielectric constant tensor:
#      x y z
#    x 1.866430 0.000000 0.000000 
#    y 0.000000 1.850790 0.000000 
#    z 0.000000 0.000000 1.796580 
# 
# From -- ./inp_files/26557.got.cif
#   From: 2010.05.17/outbox.cif.g08.bks.cpg/sg43_14_cif.got.tgz:26557.got - 2010.06.03 19:21:55.
