data_PCOD9372308
_publ_section_title
;
Structure prediction by ZEFSAII (Michael W. Deem and Ramdas Pophale) SiO2 
 PCOD9372308
Probable space group: F D D 2
;
_chemical_formula_sum "Si O2"
_cell_formula_units_Z 56
_cell_length_a 13.138277
_cell_length_b 34.722761
_cell_length_c 5.020360
_cell_angle_alpha 90.000000
_cell_angle_beta 90.000000
_cell_angle_gamma 90.000000
_cell_volume 2290.274437
_symmetry_space_group_name_H-M "F D D 2"
_symmetry_group_IT_number 43
_symmetry_cell_setting 'orthorhombic'
loop_
_space_group_symop_operation_xyz
x,y,z
-x,-y,z
1/4-x,1/4+y,1/4+z
1/4+x,1/4-y,1/4+z
x,1/2+y,1/2+z
-x,1/2-y,1/2+z
1/4-x,3/4+y,3/4+z
1/4+x,3/4-y,3/4+z
1/2+x,y,1/2+z
1/2-x,-y,1/2+z
3/4-x,1/4+y,3/4+z
3/4+x,1/4-y,3/4+z
1/2+x,1/2+y,z
1/2-x,1/2-y,z
3/4-x,3/4+y,1/4+z
3/4+x,3/4-y,1/4+z
loop_
_atom_site_type_symbol
_atom_site_label
_atom_site_fract_x
_atom_site_fract_y
_atom_site_fract_z
Si Si1 0.250000 0.250000 0.288180
Si Si2 0.086167 0.808007 0.642005
Si Si3 0.658821 0.850336 0.656131
Si Si4 0.138449 0.682418 0.106754
O O1 0.158565 0.270750 0.131661
O O2 0.192569 0.218039 0.463987
O O3 0.086007 0.826761 0.351822
O O4 0.968297 0.803493 0.727770
O O5 0.139198 0.835951 0.858017
O O6 0.769533 0.837406 0.770479
O O7 0.638373 0.895363 0.675423
#
# Coordination Sequence:
#
# PCOD9372308 Si02
#       4
#     8  16  16  16
#     4  10  28  46  72 112 150 188 246 296 382 420
#     4  11  27  48  72 107 146 192 235 307 357 437
#     4  11  26  44  76 105 140 189 252 286 366 432
#     4  11  25  48  74 108 145 193 242 308 356 439
#
# _framework density 24.451217
#
# number of rings (size 3 to 8) (size 9 to 14) (size 15 to 20)
#    0.000    1.143    2.857    0.000    8.000   16.000 
#    0.000    0.000    0.000    0.000    0.000    0.000 
#    0.000    0.000    0.000    0.000    0.000    0.000 
#
# Total GULP energy -78187.138448 kJ/mol
# GULP energy per Si atom -5584.795603 kJ/mol
# Density = 2.439557 g / cm^3
# Si number density = 24.451217 Si / 1000 Ang^3
#
#
#
# Elastic Constant Matrix: (Units=GPa)
#
#
# Indices 1 2 3 4 5 6 
#
# 1 182.9071 47.6199 -6.2137 0.0000 0.0000 0.0000
# 2 47.6199 155.7450 18.0965 0.0001 0.0000 0.0000
# 3 -6.2137 18.0965 48.0730 0.0006 0.0000 -0.0001
# 4 0.0000 0.0001 0.0006 14.2283 0.0000 0.0001
# 5 0.0000 0.0000 0.0000 0.0000 26.5742 0.0000
# 6 0.0000 0.0000 -0.0001 0.0001 0.0000 48.5082
#
#
#
# Elastic Compliance Matrix: (Units=1/GPa)
#
#
# Indices 1 2 3 4 5 6 
#
# 1 0.006048 -0.002029 0.001545 0.000000 0.000000 0.000000
# 2 -0.002029 0.007395 -0.003046 0.000000 0.000000 0.000000
# 3 0.001545 -0.003046 0.022148 -0.000001 0.000000 0.000000
# 4 0.000000 0.000000 -0.000001 0.070283 0.000000 0.000000
# 5 0.000000 0.000000 0.000000 0.000000 0.037630 0.000000
# 6 0.000000 0.000000 0.000000 0.000000 0.000000 0.020615
#
#
# Mechanical properties :
#
#
# Convention : Reuss Voigt Hill
#
# Bulk Modulus (GPa) = 35.04790 56.19227 45.62009
# Shear Modulus (GPa) = 27.67194 39.67697 33.67445
#
# Velocity S-wave (km/s) = 3.36775 4.03264 3.71510
# Velocity P-wave (km/s) = 5.43022 6.68687 6.09104
#
# Compressibility (1/GPa) = 0.02853238
#
# Stress axis : x y z
#
# Youngs Moduli (GPa) = 165.34543 135.22695 45.15067
#
# Poissons Ratio (x) = 0.27434 -0.06978
# Poissons Ratio (y) = 0.33545 0.13753
# Poissons Ratio (z) = -0.25553 0.41190
#
# Static dielectric constant tensor:
#      x y z
#    x 2.045450 0.000000 0.000000 
#    y 0.000000 1.941670 0.000000 
#    z 0.000000 0.000000 1.896980 
# 
# From -- ./inp_files/318.got.cif
#   From: 2010.05.17/outbox.cif.g08.bks.cpg/sg43_1_cif.got.tgz:318.got - 2010.06.03 19:21:55.
