data_PCOD9372717
_publ_section_title
;
Structure prediction by ZEFSAII (Michael W. Deem and Ramdas Pophale) SiO2 
 PCOD9372717
Probable space group: F D D 2
;
_chemical_formula_sum "Si O2"
_cell_formula_units_Z 56
_cell_length_a 14.400069
_cell_length_b 5.669232
_cell_length_c 30.669037
_cell_angle_alpha 90.000000
_cell_angle_beta 90.000000
_cell_angle_gamma 90.000000
_cell_volume 2503.738355
_symmetry_space_group_name_H-M "F D D 2"
_symmetry_group_IT_number 43
_symmetry_cell_setting 'orthorhombic'
loop_
_space_group_symop_operation_xyz
x,y,z
-x,-y,z
1/4-x,1/4+y,1/4+z
1/4+x,1/4-y,1/4+z
x,1/2+y,1/2+z
-x,1/2-y,1/2+z
1/4-x,3/4+y,3/4+z
1/4+x,3/4-y,3/4+z
1/2+x,y,1/2+z
1/2-x,-y,1/2+z
3/4-x,1/4+y,3/4+z
3/4+x,1/4-y,3/4+z
1/2+x,1/2+y,z
1/2-x,1/2-y,z
3/4-x,3/4+y,1/4+z
3/4+x,3/4-y,1/4+z
loop_
_atom_site_type_symbol
_atom_site_label
_atom_site_fract_x
_atom_site_fract_y
_atom_site_fract_z
Si Si1 0.896293 0.399499 0.744180
Si Si2 0.000000 0.500000 0.009244
Si Si3 0.356979 0.301708 0.065122
Si Si4 0.054910 0.755126 0.655934
O O1 0.815052 0.578437 0.731538
O O2 0.870643 0.298609 0.791574
O O3 0.902629 0.216285 0.704372
O O4 0.000000 0.500000 0.748595
O O5 0.074412 0.373156 0.040184
O O6 0.250000 0.250000 0.054854
O O7 0.374908 0.282745 0.116152
O O8 0.000000 0.500000 0.657060
O O9 0.000000 0.000000 0.647294
#
# Coordination Sequence:
#
# PCOD9372717 Si02
#       4
#    16   8  16  16
#     4  11  25  47  75 109 154 201 256 314 382 455
#     4  12  24  46  74 106 150 200 242 312 382 442
#     4  12  25  46  75 107 151 200 253 313 381 455
#     4  11  26  49  76 111 155 199 257 318 376 455
#
# _framework density 22.366555000000002
#
# number of rings (size 3 to 8) (size 9 to 14) (size 15 to 20)
#    0.000    0.571    4.286    3.429    4.000    2.286 
#    2.571    0.000    0.000    0.000    0.000    0.000 
#    0.000    0.000    0.000    0.000    0.000    0.000 
#
# Total GULP energy -78165.302004 kJ/mol
# GULP energy per Si atom -5583.235857 kJ/mol
# Density = 2.231565 g / cm^3
# Si number density = 22.366555 Si / 1000 Ang^3
#
#
#
# Elastic Constant Matrix: (Units=GPa)
#
#
# Indices 1 2 3 4 5 6 
#
# 1 142.3797 47.2980 19.6682 0.0000 0.0000 0.0000
# 2 47.2980 93.1857 14.6065 0.0000 0.0000 0.0000
# 3 19.6682 14.6065 104.3176 0.0000 0.0000 0.0000
# 4 0.0000 0.0000 0.0000 33.9097 0.0000 0.0000
# 5 0.0000 0.0000 0.0000 0.0000 24.0633 0.0000
# 6 0.0000 0.0000 0.0000 0.0000 0.0000 34.5193
#
#
#
# Elastic Compliance Matrix: (Units=1/GPa)
#
#
# Indices 1 2 3 4 5 6 
#
# 1 0.008554 -0.004181 -0.001027 0.000000 0.000000 0.000000
# 2 -0.004181 0.013015 -0.001034 0.000000 0.000000 0.000000
# 3 -0.001027 -0.001034 0.009925 0.000000 0.000000 0.000000
# 4 0.000000 0.000000 0.000000 0.029490 0.000000 0.000000
# 5 0.000000 0.000000 0.000000 0.000000 0.041557 0.000000
# 6 0.000000 0.000000 0.000000 0.000000 0.000000 0.028969
#
#
# Mechanical properties :
#
#
# Convention : Reuss Voigt Hill
#
# Bulk Modulus (GPa) = 52.60532 55.89203 54.24868
# Shear Modulus (GPa) = 33.25972 35.71914 34.48943
#
# Velocity S-wave (km/s) = 3.86038 4.00057 3.93110
# Velocity P-wave (km/s) = 6.59096 6.81049 6.70163
#
# Compressibility (1/GPa) = 0.01900948
#
# Stress axis : x y z
#
# Youngs Moduli (GPa) = 116.90087 76.83201 100.75948
#
# Poissons Ratio (x) = 0.32122 0.10352
# Poissons Ratio (y) = 0.48874 0.10420
# Poissons Ratio (z) = 0.12011 0.07946
#
# Static dielectric constant tensor:
#      x y z
#    x 1.833370 0.000000 0.000000 
#    y 0.000000 1.966290 0.000000 
#    z 0.000000 0.000000 1.780220 
# 
# From -- ./inp_files/26980.got.cif
#   From: 2010.05.17/outbox.cif.g08.bks.cpg/sg43_14_cif.got.tgz:26980.got - 2010.06.03 19:21:55.
