data_PCOD9372198
_publ_section_title
;
Structure prediction by ZEFSAII (Michael W. Deem and Ramdas Pophale) SiO2 
 PCOD9372198
Probable space group: F D D 2
;
_chemical_formula_sum "Si O2"
_cell_formula_units_Z 56
_cell_length_a 5.218318
_cell_length_b 13.709197
_cell_length_c 30.895979
_cell_angle_alpha 90.000000
_cell_angle_beta 90.000000
_cell_angle_gamma 90.000000
_cell_volume 2210.265881
_symmetry_space_group_name_H-M "F D D 2"
_symmetry_group_IT_number 43
_symmetry_cell_setting 'orthorhombic'
loop_
_space_group_symop_operation_xyz
x,y,z
-x,-y,z
1/4-x,1/4+y,1/4+z
1/4+x,1/4-y,1/4+z
x,1/2+y,1/2+z
-x,1/2-y,1/2+z
1/4-x,3/4+y,3/4+z
1/4+x,3/4-y,3/4+z
1/2+x,y,1/2+z
1/2-x,-y,1/2+z
3/4-x,1/4+y,3/4+z
3/4+x,1/4-y,3/4+z
1/2+x,1/2+y,z
1/2-x,1/2-y,z
3/4-x,3/4+y,1/4+z
3/4+x,3/4-y,1/4+z
loop_
_atom_site_type_symbol
_atom_site_label
_atom_site_fract_x
_atom_site_fract_y
_atom_site_fract_z
Si Si1 0.501103 0.814217 0.144600
Si Si2 0.375911 0.394051 0.737618
Si Si3 0.152805 0.594324 0.572420
Si Si4 0.750000 0.750000 0.539301
O O1 0.750000 0.750000 0.155939
O O2 0.415807 0.867743 0.188394
O O3 0.611373 0.879612 0.104778
O O4 0.250000 0.750000 0.136149
O O5 0.500000 0.500000 0.742554
O O6 0.498206 0.324501 0.773849
O O7 0.097166 0.415629 0.756749
O O8 0.000000 0.500000 0.588946
O O9 0.971011 0.690448 0.565814
#
# Coordination Sequence:
#
# PCOD9372198 Si02
#       4
#    16  16  16   8
#     4  12  30  51  79 124 171 216 285 351 422 509
#     4  10  25  49  78 117 168 216 278 351 418 504
#     4  11  27  52  85 121 165 229 279 352 428 511
#     4  10  24  52  86 118 168 220 278 354 424 506
#
# _framework density 25.336317999999999
#
# number of rings (size 3 to 8) (size 9 to 14) (size 15 to 20)
#    0.000    1.143    0.000    3.429   20.000    2.286 
#    2.571    0.000    0.000    0.000    3.714    0.000 
#    0.000    0.000    0.000    0.000    0.000    0.000 
#
# Total GULP energy -78185.594161 kJ/mol
# GULP energy per Si atom -5584.685297 kJ/mol
# Density = 2.527865 g / cm^3
# Si number density = 25.336318 Si / 1000 Ang^3
#
#
#
# Elastic Constant Matrix: (Units=GPa)
#
#
# Indices 1 2 3 4 5 6 
#
# 1 169.0211 67.3271 79.4910 0.0000 0.0000 0.0000
# 2 67.3271 119.9146 66.0378 0.0000 0.0000 0.0000
# 3 79.4910 66.0378 213.9293 0.0000 0.0000 0.0000
# 4 0.0000 0.0000 0.0000 21.8853 0.0000 0.0000
# 5 0.0000 0.0000 0.0000 0.0000 -4.9133 0.0000
# 6 0.0000 0.0000 0.0000 0.0000 0.0000 52.3307
#
#
#
# Elastic Compliance Matrix: (Units=1/GPa)
#
#
# Indices 1 2 3 4 5 6 
#
# 1 0.008258 -0.003550 -0.001973 0.000000 0.000000 0.000000
# 2 -0.003550 0.011574 -0.002253 0.000000 0.000000 0.000000
# 3 -0.001973 -0.002253 0.006103 0.000000 0.000000 0.000000
# 4 0.000000 0.000000 0.000000 0.045693 0.000000 0.000000
# 5 0.000000 0.000000 0.000000 0.000000 -0.203531 0.000000
# 6 0.000000 0.000000 0.000000 0.000000 0.000000 0.019109
#
#
# Mechanical properties :
#
#
# Convention : Reuss Voigt Hill
#
# Bulk Modulus (GPa) = 96.31924 103.17520 99.74722
# Shear Modulus (GPa) = -53.31618 33.19448 -10.06085
#
# Velocity S-wave (km/s) = -4.59228 3.62353 -1.99488
# Velocity P-wave (km/s) = 3.15912 7.63658 5.84369
#
# Compressibility (1/GPa) = 0.01038214
#
# Stress axis : x y z
#
# Youngs Moduli (GPa) = 121.08854 86.40309 163.85276
#
# Poissons Ratio (x) = 0.30677 0.32322
# Poissons Ratio (y) = 0.42991 0.36923
# Poissons Ratio (z) = 0.23887 0.19470
#
# Static dielectric constant tensor:
#      x y z
#    x 2.177210 0.000000 0.000000 
#    y 0.000000 2.035080 0.000000 
#    z 0.000000 0.000000 2.190940 
# 
# From -- ./inp_files/26984.got.cif
#   From: 2010.05.17/outbox.cif.g08.bks.cpg/sg43_14_cif.got.tgz:26984.got - 2010.06.03 19:21:55.
