data_PCOD9372845
_publ_section_title
;
Structure prediction by ZEFSAII (Michael W. Deem and Ramdas Pophale) SiO2 
 PCOD9372845
Probable space group: F D D 2
;
_chemical_formula_sum "Si O2"
_cell_formula_units_Z 72
_cell_length_a 18.696814
_cell_length_b 18.696815
_cell_length_c 8.239194
_cell_angle_alpha 90.000000
_cell_angle_beta 90.000000
_cell_angle_gamma 90.000000
_cell_volume 2880.182235
_symmetry_space_group_name_H-M "F D D 2"
_symmetry_group_IT_number 43
_symmetry_cell_setting 'orthorhombic'
loop_
_space_group_symop_operation_xyz
x,y,z
-x,-y,z
1/4-x,1/4+y,1/4+z
1/4+x,1/4-y,1/4+z
x,1/2+y,1/2+z
-x,1/2-y,1/2+z
1/4-x,3/4+y,3/4+z
1/4+x,3/4-y,3/4+z
1/2+x,y,1/2+z
1/2-x,-y,1/2+z
3/4-x,1/4+y,3/4+z
3/4+x,1/4-y,3/4+z
1/2+x,1/2+y,z
1/2-x,1/2-y,z
3/4-x,3/4+y,1/4+z
3/4+x,3/4-y,1/4+z
loop_
_atom_site_type_symbol
_atom_site_label
_atom_site_fract_x
_atom_site_fract_y
_atom_site_fract_z
Si Si1 0.500000 0.000000 0.178520
Si Si2 0.623167 0.356788 0.364356
Si Si3 0.763809 0.072426 0.901148
Si Si4 0.677577 0.986191 0.705892
Si Si5 0.606787 0.373166 0.742683
O O1 0.555057 0.057578 0.093079
O O2 0.442422 0.055057 0.263960
O O3 0.562107 0.336368 0.235366
O O4 0.630906 0.441863 0.330474
O O5 0.603751 0.353752 0.553519
O O6 0.808138 0.119098 0.776568
O O7 0.750038 0.999964 0.803520
O O8 0.815619 0.065620 0.053521
O O9 0.663635 0.062107 0.621672
#
# Coordination Sequence:
#
# PCOD9372845 Si02
#       5
#     8  16  16  16  16
#     4  12  24  48  80 118 164 216 276 354 428 500
#     4  12  27  47  77 116 163 220 281 349 429 514
#     4  12  25  45  72 109 155 210 272 340 419 509
#     4  12  25  45  72 109 155 210 272 340 419 509
#     4  12  27  47  77 116 163 220 281 349 429 514
#
# _framework density 24.998418000000001
#
# number of rings (size 3 to 8) (size 9 to 14) (size 15 to 20)
#    0.000    0.000    0.000   12.000    0.000    4.444 
#    0.000    0.000    0.000    0.000    0.000    0.000 
#    0.000    0.000    0.000    0.000    0.000    0.000 
#
# Total GULP energy -100275.262007 kJ/mol
# GULP energy per Si atom -5570.847889 kJ/mol
# Density = 2.494152 g / cm^3
# Si number density = 24.998418 Si / 1000 Ang^3
#
#
#
# Elastic Constant Matrix: (Units=GPa)
#
#
# Indices 1 2 3 4 5 6 
#
# 1 140.1958 68.7441 65.0232 0.0000 0.0000 0.0000
# 2 68.7441 140.1948 65.0237 0.0000 0.0000 0.0000
# 3 65.0232 65.0237 151.6348 -0.0001 0.0000 0.0000
# 4 0.0000 0.0000 -0.0001 26.1467 0.0000 0.0000
# 5 0.0000 0.0000 0.0000 0.0000 26.1499 0.0000
# 6 0.0000 0.0000 0.0000 0.0000 0.0000 62.1013
#
#
#
# Elastic Compliance Matrix: (Units=1/GPa)
#
#
# Indices 1 2 3 4 5 6 
#
# 1 0.010262 -0.003734 -0.002800 0.000000 0.000000 0.000000
# 2 -0.003734 0.010262 -0.002800 0.000000 0.000000 0.000000
# 3 -0.002800 -0.002800 0.008996 0.000000 0.000000 0.000000
# 4 0.000000 0.000000 0.000000 0.038246 0.000000 0.000000
# 5 0.000000 0.000000 0.000000 0.000000 0.038241 0.000000
# 6 0.000000 0.000000 0.000000 0.000000 0.000000 0.016103
#
#
# Mechanical properties :
#
#
# Convention : Reuss Voigt Hill
#
# Bulk Modulus (GPa) = 92.12609 92.17861 92.15235
# Shear Modulus (GPa) = 34.62773 38.42852 36.52812
#
# Velocity S-wave (km/s) = 3.72586 3.92502 3.82673
# Velocity P-wave (km/s) = 7.44595 7.58253 7.51455
#
# Compressibility (1/GPa) = 0.01085469
#
# Stress axis : x y z
#
# Youngs Moduli (GPa) = 97.44691 97.44570 111.16327
#
# Poissons Ratio (x) = 0.36381 0.31120
# Poissons Ratio (y) = 0.36382 0.31121
# Poissons Ratio (z) = 0.27280 0.27281
#
# Static dielectric constant tensor:
#      x y z
#    x 2.024280 0.000000 0.000000 
#    y 0.000000 2.024280 0.000000 
#    z 0.000000 0.000000 2.403900 
# 
# From -- ./inp_files/2674.got.cif
#   From: 2010.05.17/outbox.cif.g08.bks.cpg/sg43_2_cif.got.tgz:2674.got - 2010.06.03 19:21:55.
