data_PCOD9372590
_publ_section_title
;
Structure prediction by ZEFSAII (Michael W. Deem and Ramdas Pophale) SiO2 
 PCOD9372590
Probable space group: F D D 2
;
_chemical_formula_sum "Si O2"
_cell_formula_units_Z 64
_cell_length_a 7.110761
_cell_length_b 21.861726
_cell_length_c 16.285122
_cell_angle_alpha 90.000000
_cell_angle_beta 90.000000
_cell_angle_gamma 90.000000
_cell_volume 2531.579353
_symmetry_space_group_name_H-M "F D D 2"
_symmetry_group_IT_number 43
_symmetry_cell_setting 'orthorhombic'
loop_
_space_group_symop_operation_xyz
x,y,z
-x,-y,z
1/4-x,1/4+y,1/4+z
1/4+x,1/4-y,1/4+z
x,1/2+y,1/2+z
-x,1/2-y,1/2+z
1/4-x,3/4+y,3/4+z
1/4+x,3/4-y,3/4+z
1/2+x,y,1/2+z
1/2-x,-y,1/2+z
3/4-x,1/4+y,3/4+z
3/4+x,1/4-y,3/4+z
1/2+x,1/2+y,z
1/2-x,1/2-y,z
3/4-x,3/4+y,1/4+z
3/4+x,3/4-y,1/4+z
loop_
_atom_site_type_symbol
_atom_site_label
_atom_site_fract_x
_atom_site_fract_y
_atom_site_fract_z
Si Si1 0.186186 0.154736 0.817580
Si Si2 0.548985 0.724930 0.527130
Si Si3 0.338622 0.050734 0.582327
Si Si4 0.335978 0.100710 0.246185
O O1 0.256042 0.085186 0.827011
O O2 0.368566 0.197220 0.803729
O O3 0.072244 0.168471 0.901102
O O4 0.020967 0.142735 0.752898
O O5 0.750000 0.750000 0.550957
O O6 0.566525 0.701998 0.431522
O O7 0.414493 0.783804 0.537224
O O8 0.422519 0.111103 0.539110
O O9 0.500000 0.000000 0.562072
#
# Coordination Sequence:
#
# PCOD9372590 Si02
#       4
#    16  16  16  16
#     4  12  25  46  75 110 145 201 255 313 391 456
#     4  11  23  49  77 101 154 203 245 317 389 459
#     4  11  26  48  73 107 152 202 249 320 384 461
#     4  12  27  46  76 112 149 198 264 316 387 461
#
# _framework density 25.280660999999998
#
# number of rings (size 3 to 8) (size 9 to 14) (size 15 to 20)
#    0.000    0.500    5.000    3.750    0.000    5.000 
#    4.500    0.000    0.000    0.000    0.000    0.000 
#    0.000    0.000    0.000    0.000    0.000    0.000 
#
# Total GULP energy -89248.370833 kJ/mol
# GULP energy per Si atom -5578.023177 kJ/mol
# Density = 2.522312 g / cm^3
# Si number density = 25.280661 Si / 1000 Ang^3
#
#
#
# Elastic Constant Matrix: (Units=GPa)
#
#
# Indices 1 2 3 4 5 6 
#
# 1 137.9752 78.0410 42.0551 0.0000 0.0000 0.0000
# 2 78.0410 114.6191 22.0922 0.0000 0.0000 0.0000
# 3 42.0551 22.0922 52.3536 0.0000 0.0000 0.0000
# 4 0.0000 0.0000 0.0000 22.6103 0.0000 0.0000
# 5 0.0000 0.0000 0.0000 0.0000 117.7278 0.0000
# 6 0.0000 0.0000 0.0000 0.0000 0.0000 79.9730
#
#
#
# Elastic Compliance Matrix: (Units=1/GPa)
#
#
# Indices 1 2 3 4 5 6 
#
# 1 0.014354 -0.008219 -0.008062 0.000000 0.000000 0.000000
# 2 -0.008219 0.014204 0.000609 0.000000 0.000000 0.000000
# 3 -0.008062 0.000609 0.025320 0.000000 0.000000 0.000000
# 4 0.000000 0.000000 0.000000 0.044228 0.000000 0.000000
# 5 0.000000 0.000000 0.000000 0.000000 0.008494 0.000000
# 6 0.000000 0.000000 0.000000 0.000000 0.000000 0.012504
#
#
# Mechanical properties :
#
#
# Convention : Reuss Voigt Hill
#
# Bulk Modulus (GPa) = 44.37998 65.48050 54.93024
# Shear Modulus (GPa) = 31.65370 54.91284 43.28327
#
# Velocity S-wave (km/s) = 3.54233 4.66567 4.14225
# Velocity P-wave (km/s) = 5.85865 7.41500 6.68229
#
# Compressibility (1/GPa) = 0.02253268
#
# Stress axis : x y z
#
# Youngs Moduli (GPa) = 69.66707 70.40515 39.49437
#
# Poissons Ratio (x) = 0.57868 0.31840
# Poissons Ratio (y) = 0.57262 -0.02405
# Poissons Ratio (z) = 0.56166 -0.04287
#
# Static dielectric constant tensor:
#      x y z
#    x 2.051320 0.000000 0.000000 
#    y 0.000000 2.000930 0.000000 
#    z 0.000000 0.000000 1.920280 
# 
# From -- ./inp_files/12494.got.cif
#   From: 2010.05.17/outbox.cif.g08.bks.cpg/sg43_7_cif.got.tgz:12494.got - 2010.06.03 19:21:55.
