data_PCOD9372931
_publ_section_title
;
Structure prediction by ZEFSAII (Michael W. Deem and Ramdas Pophale) SiO2 
 PCOD9372931
Probable space group: F D D 2
;
_chemical_formula_sum "Si O2"
_cell_formula_units_Z 48
_cell_length_a 27.499435
_cell_length_b 4.931142
_cell_length_c 13.121698
_cell_angle_alpha 90.000000
_cell_angle_beta 90.000000
_cell_angle_gamma 90.000000
_cell_volume 1779.349735
_symmetry_space_group_name_H-M "F D D 2"
_symmetry_group_IT_number 43
_symmetry_cell_setting 'orthorhombic'
loop_
_space_group_symop_operation_xyz
x,y,z
-x,-y,z
1/4-x,1/4+y,1/4+z
1/4+x,1/4-y,1/4+z
x,1/2+y,1/2+z
-x,1/2-y,1/2+z
1/4-x,3/4+y,3/4+z
1/4+x,3/4-y,3/4+z
1/2+x,y,1/2+z
1/2-x,-y,1/2+z
3/4-x,1/4+y,3/4+z
3/4+x,1/4-y,3/4+z
1/2+x,1/2+y,z
1/2-x,1/2-y,z
3/4-x,3/4+y,1/4+z
3/4+x,3/4-y,1/4+z
loop_
_atom_site_type_symbol
_atom_site_label
_atom_site_fract_x
_atom_site_fract_y
_atom_site_fract_z
Si Si1 0.700963 0.934422 0.713430
Si Si2 0.407390 0.549957 0.167584
Si Si3 0.050854 0.476586 0.251951
O O1 0.750000 0.750000 0.723853
O O2 0.646626 0.829608 0.682327
O O3 0.685469 0.110375 0.814292
O O4 0.707610 0.116474 0.613651
O O5 0.414035 0.230810 0.190631
O O6 0.434112 0.713828 0.255845
O O7 0.000000 0.500000 0.194739
#
# Coordination Sequence:
#
# PCOD9372931 Si02
#       3
#    16  16  16
#     4  12  29  53  88 123 167 226 279 344 423 500
#     4  12  29  52  83 125 171 215 282 346 415 498
#     4  12  29  53  83 122 166 218 279 345 415 499
#
# _framework density 26.976144000000001
#
# number of rings (size 3 to 8) (size 9 to 14) (size 15 to 20)
#    0.000    0.000    3.333    4.000    4.667    8.000 
#    0.000    0.000    0.000    0.000    0.000    0.000 
#    0.000    0.000    0.000    0.000    0.000    0.000 
#
# Total GULP energy -66904.419062 kJ/mol
# GULP energy per Si atom -5575.368255 kJ/mol
# Density = 2.691474 g / cm^3
# Si number density = 26.976144 Si / 1000 Ang^3
#
#
#
# Elastic Constant Matrix: (Units=GPa)
#
#
# Indices 1 2 3 4 5 6 
#
# 1 115.8192 -15.1032 -8.5877 0.0020 -0.0078 -0.0004
# 2 -15.1032 61.0561 18.8829 0.0028 -0.0118 -0.0004
# 3 -8.5877 18.8829 174.4077 0.0015 -0.0016 -0.0001
# 4 0.0020 0.0028 0.0015 -13.8793 -0.0013 -0.0005
# 5 -0.0078 -0.0118 -0.0016 -0.0013 190.6760 0.0002
# 6 -0.0004 -0.0004 -0.0001 -0.0005 0.0002 67.7504
#
#
#
# Elastic Compliance Matrix: (Units=1/GPa)
#
#
# Indices 1 2 3 4 5 6 
#
# 1 0.008929 0.002145 0.000207 0.000002 0.000001 0.000000
# 2 0.002145 0.017461 -0.001785 0.000004 0.000001 0.000000
# 3 0.000207 -0.001785 0.005937 0.000000 0.000000 0.000000
# 4 0.000002 0.000004 0.000000 -0.072050 0.000000 -0.000001
# 5 0.000001 0.000001 0.000000 0.000000 0.005244 0.000000
# 6 0.000000 0.000000 0.000000 -0.000001 0.000000 0.014760
#
#
# Mechanical properties :
#
#
# Convention : Reuss Voigt Hill
#
# Bulk Modulus (GPa) = 29.88491 37.96298 33.92395
# Shear Modulus (GPa) = -515.53128 72.64882 -221.44123
#
# Velocity S-wave (km/s) = -13.83912 5.19512 -9.07006
# Velocity P-wave (km/s) = 15.62880 7.07736 9.85318
#
# Compressibility (1/GPa) = 0.03346170
#
# Stress axis : x y z
#
# Youngs Moduli (GPa) = 111.99213 57.27083 168.43090
#
# Poissons Ratio (x) = -0.12282 -0.03494
# Poissons Ratio (y) = -0.24018 0.30063
# Poissons Ratio (z) = -0.02324 0.10222
#
# Static dielectric constant tensor:
#      x y z
#    x 0.620790 -0.000030 0.000000 
#    y -0.000030 2.577390 0.000000 
#    z 0.000000 0.000000 2.156200 
# 
# From -- ./inp_files/8560.got.cif
#   From: 2010.05.17/outbox.cif.g08.bks.cpg/sg43_5_cif.got.tgz:8560.got - 2010.06.03 19:21:55.
