data_PCOD9372990
_publ_section_title
;
Structure prediction by ZEFSAII (Michael W. Deem and Ramdas Pophale) SiO2 
 PCOD9372990
Probable space group: I M M 2
;
_chemical_formula_sum "Si O2"
_cell_formula_units_Z 48
_cell_length_a 15.227752
_cell_length_b 20.770389
_cell_length_c 6.840516
_cell_angle_alpha 90.000000
_cell_angle_beta 90.000000
_cell_angle_gamma 90.000000
_cell_volume 2163.561719
_symmetry_space_group_name_H-M "I M M 2"
_symmetry_group_IT_number 44
_symmetry_cell_setting 'orthorhombic'
loop_
_space_group_symop_operation_xyz
x,y,z
-x,-y,z
-x,y,z
x,-y,z
1/2+x,1/2+y,1/2+z
1/2-x,1/2-y,1/2+z
1/2-x,1/2+y,1/2+z
1/2+x,1/2-y,1/2+z
loop_
_atom_site_type_symbol
_atom_site_label
_atom_site_fract_x
_atom_site_fract_y
_atom_site_fract_z
Si Si1 0.186270 0.429154 0.729920
Si Si2 0.000000 0.782981 0.597142
Si Si3 0.803260 0.928658 0.843028
Si Si4 0.500000 0.931474 0.010559
Si Si5 0.187397 0.316907 0.217248
Si Si6 0.500000 0.807909 0.734394
Si Si7 0.327697 0.791440 0.174389
Si Si8 0.500000 0.575457 0.234165
O O1 0.195739 0.500000 0.830014
O O2 0.258862 0.428870 0.556682
O O3 0.087486 0.429930 0.640532
O O4 0.190373 0.355178 0.804541
O O5 0.000000 0.754285 0.376769
O O6 0.914284 0.752229 0.701899
O O7 0.000000 0.860631 0.597637
O O8 0.750707 0.878545 0.708970
O O9 0.907824 0.917260 0.849411
O O10 0.790366 0.000000 0.761399
O O11 0.500000 0.000000 0.901475
O O12 0.500000 0.872846 0.863970
O O13 0.091579 0.311775 0.121972
O O14 0.243810 0.254132 0.177214
O O15 0.165003 0.314603 0.450013
O O16 0.500000 0.500000 0.159273
#
# Coordination Sequence:
#
# PCOD9372990 Si02
#       8
#     8   4   8   4   8   4   8   4
#     4   9  16  27  45  69  96 121 153 195 240 285
#     4  10  16  28  47  66  92 124 159 192 233 273
#     4   9  16  26  42  67  93 119 151 196 238 272
#     4  10  14  22  44  73  94 113 151 197 245 284
#     4  10  19  31  49  68  97 127 159 194 240 280
#     4  10  18  30  44  70  98 126 148 200 242 281
#     4  10  18  31  48  71  94 128 157 199 235 282
#     4  10  18  26  41  67  96 123 156 199 236 266
#
# _framework density 22.185638999999998
#
# number of rings (size 3 to 8) (size 9 to 14) (size 15 to 20)
#    0.000    2.333    6.667    0.000    0.000    0.000 
#    0.000    4.167    0.000    5.000    0.000    0.000 
#    0.000    2.667    0.000    0.000    0.000    0.000 
#
# Total GULP energy -133618.504046 kJ/mol
# GULP energy per Si atom -5567.437669 kJ/mol
# Density = 2.213514 g / cm^3
# Si number density = 22.185639 Si / 1000 Ang^3
#
#
#
# Elastic Constant Matrix: (Units=GPa)
#
#
# Indices 1 2 3 4 5 6 
#
# 1 199.3813 66.4259 11.4149 0.0000 0.0000 0.0000
# 2 66.4259 168.4125 -12.2420 0.0000 0.0000 0.0000
# 3 11.4149 -12.2420 25.7817 0.0000 0.0000 0.0000
# 4 0.0000 0.0000 0.0000 16.0865 0.0000 0.0000
# 5 0.0000 0.0000 0.0000 0.0000 16.4745 0.0000
# 6 0.0000 0.0000 0.0000 0.0000 0.0000 40.5344
#
#
#
# Elastic Compliance Matrix: (Units=1/GPa)
#
#
# Indices 1 2 3 4 5 6 
#
# 1 0.006151 -0.002718 -0.004014 0.000000 0.000000 0.000000
# 2 -0.002718 0.007351 0.004694 0.000000 0.000000 0.000000
# 3 -0.004014 0.004694 0.042793 0.000000 0.000000 0.000000
# 4 0.000000 0.000000 0.000000 0.062164 0.000000 0.000000
# 5 0.000000 0.000000 0.000000 0.000000 0.060700 0.000000
# 6 0.000000 0.000000 0.000000 0.000000 0.000000 0.024670
#
#
# Mechanical properties :
#
#
# Convention : Reuss Voigt Hill
#
# Bulk Modulus (GPa) = 19.15004 58.30813 38.72909
# Shear Modulus (GPa) = 22.19160 36.48422 29.33791
#
# Velocity S-wave (km/s) = 3.16613 4.05964 3.64040
# Velocity P-wave (km/s) = 4.69216 6.95077 5.92999
#
# Compressibility (1/GPa) = 0.05221920
#
# Stress axis : x y z
#
# Youngs Moduli (GPa) = 162.58153 136.03695 23.36831
#
# Poissons Ratio (x) = 0.36972 0.09379
# Poissons Ratio (y) = 0.44186 -0.10969
# Poissons Ratio (z) = 0.65256 -0.63853
#
# Static dielectric constant tensor:
#      x y z
#    x 1.838810 0.000000 0.000000 
#    y 0.000000 1.891160 0.000000 
#    z 0.000000 0.000000 1.893170 
# 
# From -- ./inp_files/12419.got.cif
#   From: 2010.05.17/outbox.cif.g08.bks.cpg/sg44_7_cif.got.tgz:12419.got - 2010.06.03 19:37:08.
