data_PCOD9372925
_publ_section_title
;
Structure prediction by ZEFSAII (Michael W. Deem and Ramdas Pophale) SiO2 
 PCOD9372925
Probable space group: F D D 2
;
_chemical_formula_sum "Si O2"
_cell_formula_units_Z 48
_cell_length_a 19.691052
_cell_length_b 5.067160
_cell_length_c 19.687505
_cell_angle_alpha 90.000000
_cell_angle_beta 90.000000
_cell_angle_gamma 90.000000
_cell_volume 1964.374185
_symmetry_space_group_name_H-M "F D D 2"
_symmetry_group_IT_number 43
_symmetry_cell_setting 'orthorhombic'
loop_
_space_group_symop_operation_xyz
x,y,z
-x,-y,z
1/4-x,1/4+y,1/4+z
1/4+x,1/4-y,1/4+z
x,1/2+y,1/2+z
-x,1/2-y,1/2+z
1/4-x,3/4+y,3/4+z
1/4+x,3/4-y,3/4+z
1/2+x,y,1/2+z
1/2-x,-y,1/2+z
3/4-x,1/4+y,3/4+z
3/4+x,1/4-y,3/4+z
1/2+x,1/2+y,z
1/2-x,1/2-y,z
3/4-x,3/4+y,1/4+z
3/4+x,3/4-y,1/4+z
loop_
_atom_site_type_symbol
_atom_site_label
_atom_site_fract_x
_atom_site_fract_y
_atom_site_fract_z
Si Si1 0.616167 0.234519 0.304720
Si Si2 0.750000 0.750000 0.474913
Si Si3 0.500000 0.500000 0.632172
Si Si4 0.545801 0.233733 0.443128
O O1 0.565568 0.439219 0.270166
O O2 0.686390 0.334589 0.336547
O O3 0.574879 0.135048 0.370568
O O4 0.642809 0.046562 0.244599
O O5 0.765681 0.499249 0.428630
O O6 0.500000 0.500000 0.434374
O O7 0.500000 0.000000 0.471743
#
# Coordination Sequence:
#
# PCOD9372925 Si02
#       4
#    16   8   8  16
#     4  12  28  54  82 122 162 222 270 348 410 497
#     4  12  30  51  80 123 164 216 278 342 410 494
#     4  12  30  47  84 121 166 210 280 340 416 488
#     4  12  30  50  83 120 165 213 280 338 413 493
#
# _framework density 24.435261000000001
#
# number of rings (size 3 to 8) (size 9 to 14) (size 15 to 20)
#    0.000    0.000    6.667    0.000    9.333    5.333 
#    0.000    0.000    0.000    0.000    0.000    0.000 
#    0.000    0.000    0.000    0.000    0.000    0.000 
#
# Total GULP energy -67239.149407 kJ/mol
# GULP energy per Si atom -5603.262451 kJ/mol
# Density = 2.437965 g / cm^3
# Si number density = 24.435261 Si / 1000 Ang^3
#
#
#
# Elastic Constant Matrix: (Units=GPa)
#
#
# Indices 1 2 3 4 5 6 
#
# 1 201.6624 72.6292 76.7506 0.0002 -0.0002 -0.0001
# 2 72.6292 129.9209 58.3258 0.0015 -0.0003 -0.0006
# 3 76.7506 58.3258 167.9997 0.0000 -0.0002 -0.0001
# 4 0.0002 0.0015 0.0000 9.7533 -0.0003 -0.0001
# 5 -0.0002 -0.0003 -0.0002 -0.0003 48.1127 0.0001
# 6 -0.0001 -0.0006 -0.0001 -0.0001 0.0001 54.4738
#
#
#
# Elastic Compliance Matrix: (Units=1/GPa)
#
#
# Indices 1 2 3 4 5 6 
#
# 1 0.006788 -0.002846 -0.002113 0.000000 0.000000 0.000000
# 2 -0.002846 0.010311 -0.002280 -0.000002 0.000000 0.000000
# 3 -0.002113 -0.002280 0.007709 0.000000 0.000000 0.000000
# 4 0.000000 -0.000002 0.000000 0.102529 0.000001 0.000000
# 5 0.000000 0.000000 0.000000 0.000001 0.020785 0.000000
# 6 0.000000 0.000000 0.000000 0.000000 0.000000 0.018357
#
#
# Mechanical properties :
#
#
# Convention : Reuss Voigt Hill
#
# Bulk Modulus (GPa) = 96.79507 101.66602 99.23054
# Shear Modulus (GPa) = 27.11484 41.92646 34.52065
#
# Velocity S-wave (km/s) = 3.33477 4.14674 3.76272
# Velocity P-wave (km/s) = 7.38420 8.03890 7.71849
#
# Compressibility (1/GPa) = 0.01033111
#
# Stress axis : x y z
#
# Youngs Moduli (GPa) = 147.31907 96.97961 129.71565
#
# Poissons Ratio (x) = 0.27601 0.27409
# Poissons Ratio (y) = 0.41928 0.29571
# Poissons Ratio (z) = 0.31128 0.22108
#
# Static dielectric constant tensor:
#      x y z
#    x 1.922180 0.000000 0.000000 
#    y 0.000000 1.896930 0.000000 
#    z 0.000000 0.000000 1.970180 
# 
# From -- ./inp_files/14723.got.cif
#   From: 2010.05.17/outbox.cif.g08.bks.cpg/sg43_8_cif.got.tgz:14723.got - 2010.06.03 19:21:55.
