data_PCOD9372236
_publ_section_title
;
Structure prediction by ZEFSAII (Michael W. Deem and Ramdas Pophale) SiO2 
 PCOD9372236
Probable space group: F D D 2
;
_chemical_formula_sum "Si O2"
_cell_formula_units_Z 88
_cell_length_a 16.577550
_cell_length_b 20.799184
_cell_length_c 11.449717
_cell_angle_alpha 90.000000
_cell_angle_beta 90.000000
_cell_angle_gamma 90.000000
_cell_volume 3947.856842
_symmetry_space_group_name_H-M "F D D 2"
_symmetry_group_IT_number 43
_symmetry_cell_setting 'orthorhombic'
loop_
_space_group_symop_operation_xyz
x,y,z
-x,-y,z
1/4-x,1/4+y,1/4+z
1/4+x,1/4-y,1/4+z
x,1/2+y,1/2+z
-x,1/2-y,1/2+z
1/4-x,3/4+y,3/4+z
1/4+x,3/4-y,3/4+z
1/2+x,y,1/2+z
1/2-x,-y,1/2+z
3/4-x,1/4+y,3/4+z
3/4+x,1/4-y,3/4+z
1/2+x,1/2+y,z
1/2-x,1/2-y,z
3/4-x,3/4+y,1/4+z
3/4+x,3/4-y,1/4+z
loop_
_atom_site_type_symbol
_atom_site_label
_atom_site_fract_x
_atom_site_fract_y
_atom_site_fract_z
Si Si1 0.250000 0.250000 0.961540
Si Si2 0.466872 0.820871 0.991908
Si Si3 0.336989 0.219825 0.384626
Si Si4 0.775646 0.896743 0.002804
Si Si5 0.176182 0.799861 0.128566
Si Si6 0.164597 0.502090 0.072761
O O1 0.236944 0.179848 0.021958
O O2 0.172084 0.251572 0.880179
O O3 0.392146 0.774487 0.950720
O O4 0.438536 0.891577 0.963357
O O5 0.534558 0.801527 0.898290
O O6 0.506931 0.831037 0.119632
O O7 0.250000 0.250000 0.348425
O O8 0.389848 0.180163 0.291949
O O9 0.324702 0.174067 0.496963
O O10 0.708614 0.933747 0.079957
O O11 0.250000 0.750000 0.131573
O O12 0.097199 0.768089 0.186091
#
# Coordination Sequence:
#
# PCOD9372236 Si02
#       6
#     8  16  16  16  16  16
#     4  12  26  42  76 102 150 196 234 318 364 454
#     4  11  24  43  74  99 144 189 244 301 367 443
#     4  10  25  49  73 107 144 191 247 309 371 447
#     4  11  25  49  69 114 146 192 248 306 386 440
#     4  11  22  41  74 100 130 186 245 296 345 443
#     4  11  24  43  71 103 139 191 246 306 358 447
#
# _framework density 22.290576000000001
#
# number of rings (size 3 to 8) (size 9 to 14) (size 15 to 20)
#    0.000    1.091    4.545    0.000   10.182    0.000 
#   14.727    0.000    0.000    0.000    0.000    0.000 
#    0.000    0.000    0.000    0.000    0.000    0.000 
#
# Total GULP energy -122559.646371 kJ/mol
# GULP energy per Si atom -5570.893017 kJ/mol
# Density = 2.223984 g / cm^3
# Si number density = 22.290576 Si / 1000 Ang^3
#
#
#
# Elastic Constant Matrix: (Units=GPa)
#
#
# Indices 1 2 3 4 5 6 
#
# 1 133.2702 37.1400 33.9942 0.0000 0.0000 0.0000
# 2 37.1400 116.0953 41.4608 0.0000 0.0000 0.0000
# 3 33.9942 41.4608 73.1085 0.0000 0.0000 0.0000
# 4 0.0000 0.0000 0.0000 41.7658 0.0000 0.0000
# 5 0.0000 0.0000 0.0000 0.0000 29.4632 0.0000
# 6 0.0000 0.0000 0.0000 0.0000 0.0000 9.2832
#
#
#
# Elastic Compliance Matrix: (Units=1/GPa)
#
#
# Indices 1 2 3 4 5 6 
#
# 1 0.008771 -0.001692 -0.003119 0.000000 0.000000 0.000000
# 2 -0.001692 0.011128 -0.005524 0.000000 0.000000 0.000000
# 3 -0.003119 -0.005524 0.018261 0.000000 0.000000 0.000000
# 4 0.000000 0.000000 0.000000 0.023943 0.000000 0.000000
# 5 0.000000 0.000000 0.000000 0.000000 0.033941 0.000000
# 6 0.000000 0.000000 0.000000 0.000000 0.000000 0.107722
#
#
# Mechanical properties :
#
#
# Convention : Reuss Voigt Hill
#
# Bulk Modulus (GPa) = 57.17462 60.85153 59.01307
# Shear Modulus (GPa) = 21.71422 30.09437 25.90430
#
# Velocity S-wave (km/s) = 3.12451 3.67835 3.41268
# Velocity P-wave (km/s) = 6.22271 6.73786 6.48541
#
# Compressibility (1/GPa) = 0.01749028
#
# Stress axis : x y z
#
# Youngs Moduli (GPa) = 114.01762 89.86638 54.76139
#
# Poissons Ratio (x) = 0.15206 0.17078
# Poissons Ratio (y) = 0.19292 0.30249
# Poissons Ratio (z) = 0.35557 0.49641
#
# Static dielectric constant tensor:
#      x y z
#    x 1.678590 0.000000 0.000000 
#    y 0.000000 1.931840 0.000000 
#    z 0.000000 0.000000 1.890040 
# 
# From -- ./inp_files/6154.got.cif
#   From: 2010.05.17/outbox.cif.g08.bks.cpg/sg43_4_cif.got.tgz:6154.got - 2010.06.03 19:21:55.
