data_PCOD9372402
_publ_section_title
;
Structure prediction by ZEFSAII (Michael W. Deem and Ramdas Pophale) SiO2 
 PCOD9372402
Probable space group: F D D 2
;
_chemical_formula_sum "Si O2"
_cell_formula_units_Z 64
_cell_length_a 19.175321
_cell_length_b 17.933827
_cell_length_c 6.969224
_cell_angle_alpha 90.000000
_cell_angle_beta 90.000000
_cell_angle_gamma 90.000000
_cell_volume 2396.624763
_symmetry_space_group_name_H-M "F D D 2"
_symmetry_group_IT_number 43
_symmetry_cell_setting 'orthorhombic'
loop_
_space_group_symop_operation_xyz
x,y,z
-x,-y,z
1/4-x,1/4+y,1/4+z
1/4+x,1/4-y,1/4+z
x,1/2+y,1/2+z
-x,1/2-y,1/2+z
1/4-x,3/4+y,3/4+z
1/4+x,3/4-y,3/4+z
1/2+x,y,1/2+z
1/2-x,-y,1/2+z
3/4-x,1/4+y,3/4+z
3/4+x,1/4-y,3/4+z
1/2+x,1/2+y,z
1/2-x,1/2-y,z
3/4-x,3/4+y,1/4+z
3/4+x,3/4-y,1/4+z
loop_
_atom_site_type_symbol
_atom_site_label
_atom_site_fract_x
_atom_site_fract_y
_atom_site_fract_z
Si Si1 0.453747 0.351959 0.852890
Si Si2 0.318038 0.581941 0.050538
Si Si3 0.856874 0.477754 0.868525
Si Si4 0.948259 0.095456 0.551466
O O1 0.498125 0.364350 0.413462
O O2 0.451498 0.271789 0.742609
O O3 0.377346 0.385971 0.804534
O O4 0.514847 0.400536 0.759395
O O5 0.379651 0.641064 0.102550
O O6 0.344068 0.507127 0.152795
O O7 0.299874 0.586061 0.827314
O O8 0.924972 0.515588 0.967347
#
# Coordination Sequence:
#
# PCOD9372402 Si02
#       4
#    16  16  16  16
#     4   9  22  39  67  96 131 179 218 287 341 407
#     4  11  21  43  68  97 135 180 226 289 346 412
#     4   9  23  41  65 100 132 171 236 281 336 424
#     4   9  21  42  63  99 132 170 233 277 335 423
#
# _framework density 26.704219999999999
#
# number of rings (size 3 to 8) (size 9 to 14) (size 15 to 20)
#    1.500    1.000    0.000    0.750    3.500    4.000 
#    0.000   10.000    0.000    0.000    0.000    0.000 
#    0.000    0.000    0.000    0.000    0.000    0.000 
#
# Total GULP energy -89519.342999 kJ/mol
# GULP energy per Si atom -5594.958937 kJ/mol
# Density = 2.664344 g / cm^3
# Si number density = 26.704220 Si / 1000 Ang^3
#
#
#
# Elastic Constant Matrix: (Units=GPa)
#
#
# Indices 1 2 3 4 5 6 
#
# 1 127.5848 17.5918 38.1722 0.0003 -0.0001 0.0000
# 2 17.5918 66.3980 21.4600 0.0005 -0.0003 -0.0001
# 3 38.1722 21.4600 213.0654 0.0017 -0.0011 -0.0004
# 4 0.0003 0.0005 0.0017 25.8114 -0.0005 -0.0002
# 5 -0.0001 -0.0003 -0.0011 -0.0005 60.6385 0.0001
# 6 0.0000 -0.0001 -0.0004 -0.0002 0.0001 24.1719
#
#
#
# Elastic Compliance Matrix: (Units=1/GPa)
#
#
# Indices 1 2 3 4 5 6 
#
# 1 0.008489 -0.001817 -0.001338 0.000000 0.000000 0.000000
# 2 -0.001817 0.015956 -0.001282 0.000000 0.000000 0.000000
# 3 -0.001338 -0.001282 0.005062 0.000000 0.000000 0.000000
# 4 0.000000 0.000000 0.000000 0.038743 0.000000 0.000000
# 5 0.000000 0.000000 0.000000 0.000000 0.016491 0.000000
# 6 0.000000 0.000000 0.000000 0.000000 0.000000 0.041370
#
#
# Mechanical properties :
#
#
# Convention : Reuss Voigt Hill
#
# Bulk Modulus (GPa) = 48.46179 62.38849 55.42514
# Shear Modulus (GPa) = 35.24558 44.11263 39.67911
#
# Velocity S-wave (km/s) = 3.63692 4.06876 3.85889
# Velocity P-wave (km/s) = 5.98525 6.74438 6.37612
#
# Compressibility (1/GPa) = 0.02063481
#
# Stress axis : x y z
#
# Youngs Moduli (GPa) = 117.80405 62.67142 197.54396
#
# Poissons Ratio (x) = 0.11385 0.26428
# Poissons Ratio (y) = 0.21401 0.25318
# Poissons Ratio (z) = 0.15760 0.08032
#
# Static dielectric constant tensor:
#      x y z
#    x 2.222340 0.000000 0.000000 
#    y 0.000000 2.080270 0.000000 
#    z 0.000000 0.000000 2.095930 
# 
# From -- ./inp_files/3616.got.cif
#   From: 2010.05.17/outbox.cif.g08.bks.cpg/sg43_2_cif.got.tgz:3616.got - 2010.06.03 19:21:55.
