data_PCOD9372631
_publ_section_title
;
Structure prediction by ZEFSAII (Michael W. Deem and Ramdas Pophale) SiO2 
 PCOD9372631
Probable space group: F D D 2
;
_chemical_formula_sum "Si O2"
_cell_formula_units_Z 88
_cell_length_a 13.926946
_cell_length_b 22.561558
_cell_length_c 12.400403
_cell_angle_alpha 90.000000
_cell_angle_beta 90.000000
_cell_angle_gamma 90.000000
_cell_volume 3896.375267
_symmetry_space_group_name_H-M "F D D 2"
_symmetry_group_IT_number 43
_symmetry_cell_setting 'orthorhombic'
loop_
_space_group_symop_operation_xyz
x,y,z
-x,-y,z
1/4-x,1/4+y,1/4+z
1/4+x,1/4-y,1/4+z
x,1/2+y,1/2+z
-x,1/2-y,1/2+z
1/4-x,3/4+y,3/4+z
1/4+x,3/4-y,3/4+z
1/2+x,y,1/2+z
1/2-x,-y,1/2+z
3/4-x,1/4+y,3/4+z
3/4+x,1/4-y,3/4+z
1/2+x,1/2+y,z
1/2-x,1/2-y,z
3/4-x,3/4+y,1/4+z
3/4+x,3/4-y,1/4+z
loop_
_atom_site_type_symbol
_atom_site_label
_atom_site_fract_x
_atom_site_fract_y
_atom_site_fract_z
Si Si1 0.064774 0.194307 0.186290
Si Si2 0.857351 0.926356 0.282959
Si Si3 0.127180 0.305183 0.060273
Si Si4 0.946895 0.576676 0.142661
Si Si5 0.000000 0.500000 0.937928
Si Si6 0.239654 0.502411 0.145947
O O1 0.110451 0.138472 0.246546
O O2 0.130982 0.244919 0.131479
O O3 0.992482 0.170474 0.096517
O O4 0.999580 0.226161 0.275810
O O5 0.831623 0.964648 0.177640
O O6 0.925695 0.966958 0.357549
O O7 0.100335 0.358905 0.138966
O O8 0.217784 0.319988 0.981264
O O9 0.031094 0.302629 0.984375
O O10 0.857827 0.533642 0.163248
O O11 0.977010 0.553086 0.023631
#
# Coordination Sequence:
#
# PCOD9372631 Si02
#       6
#    16  16  16  16   8  16
#     4  11  25  50  71 107 149 194 246 302 372 440
#     4  11  27  44  74 103 147 193 241 304 367 440
#     4  11  25  42  77 108 149 190 250 309 370 442
#     4  12  23  45  76 110 143 194 246 309 369 443
#     4  12  24  46  76 106 144 188 250 298 372 442
#     4  11  24  46  69 107 145 189 249 300 375 438
#
# _framework density 22.585094000000002
#
# number of rings (size 3 to 8) (size 9 to 14) (size 15 to 20)
#    0.000    0.727    3.636    2.182    5.091    7.273 
#    0.000    3.636    0.000    0.000    0.000    0.000 
#    0.000    0.000    0.000    0.000    0.000    0.000 
#
# Total GULP energy -122756.224093 kJ/mol
# GULP energy per Si atom -5579.828368 kJ/mol
# Density = 2.253369 g / cm^3
# Si number density = 22.585094 Si / 1000 Ang^3
#
#
#
# Elastic Constant Matrix: (Units=GPa)
#
#
# Indices 1 2 3 4 5 6 
#
# 1 95.9529 71.6364 48.1433 0.0000 0.0000 0.0000
# 2 71.6364 145.7568 55.8653 0.0000 0.0000 0.0000
# 3 48.1433 55.8653 98.9366 0.0000 0.0000 0.0000
# 4 0.0000 0.0000 0.0000 29.2530 0.0000 0.0000
# 5 0.0000 0.0000 0.0000 0.0000 47.3778 0.0000
# 6 0.0000 0.0000 0.0000 0.0000 0.0000 30.0874
#
#
#
# Elastic Compliance Matrix: (Units=1/GPa)
#
#
# Indices 1 2 3 4 5 6 
#
# 1 0.018108 -0.007048 -0.004832 0.000000 0.000000 0.000000
# 2 -0.007048 0.011499 -0.003063 0.000000 0.000000 0.000000
# 3 -0.004832 -0.003063 0.014188 0.000000 0.000000 0.000000
# 4 0.000000 0.000000 0.000000 0.034184 0.000000 0.000000
# 5 0.000000 0.000000 0.000000 0.000000 0.021107 0.000000
# 6 0.000000 0.000000 0.000000 0.000000 0.000000 0.033236
#
#
# Mechanical properties :
#
#
# Convention : Reuss Voigt Hill
#
# Bulk Modulus (GPa) = 71.89532 76.88181 74.38856
# Shear Modulus (GPa) = 29.96798 32.34374 31.15586
#
# Velocity S-wave (km/s) = 3.64660 3.78839 3.71817
# Velocity P-wave (km/s) = 7.04503 7.29731 7.17228
#
# Compressibility (1/GPa) = 0.01390911
#
# Stress axis : x y z
#
# Youngs Moduli (GPa) = 55.22508 86.96696 70.47986
#
# Poissons Ratio (x) = 0.61291 0.34055
# Poissons Ratio (y) = 0.38921 0.21590
# Poissons Ratio (z) = 0.26684 0.26641
#
# Static dielectric constant tensor:
#      x y z
#    x 1.839180 0.000000 0.000000 
#    y 0.000000 1.903200 0.000000 
#    z 0.000000 0.000000 1.919090 
# 
# From -- ./inp_files/6138.got.cif
#   From: 2010.05.17/outbox.cif.g08.bks.cpg/sg43_4_cif.got.tgz:6138.got - 2010.06.03 19:21:55.
