data_PCOD9372018
_publ_section_title
;
Structure prediction by ZEFSAII (Michael W. Deem and Ramdas Pophale) SiO2 
 PCOD9372018
Probable space group: F D D 2
;
_chemical_formula_sum "Si O2"
_cell_formula_units_Z 80
_cell_length_a 21.404566
_cell_length_b 13.319275
_cell_length_c 12.424472
_cell_angle_alpha 90.000000
_cell_angle_beta 90.000000
_cell_angle_gamma 90.000000
_cell_volume 3542.133733
_symmetry_space_group_name_H-M "F D D 2"
_symmetry_group_IT_number 43
_symmetry_cell_setting 'orthorhombic'
loop_
_space_group_symop_operation_xyz
x,y,z
-x,-y,z
1/4-x,1/4+y,1/4+z
1/4+x,1/4-y,1/4+z
x,1/2+y,1/2+z
-x,1/2-y,1/2+z
1/4-x,3/4+y,3/4+z
1/4+x,3/4-y,3/4+z
1/2+x,y,1/2+z
1/2-x,-y,1/2+z
3/4-x,1/4+y,3/4+z
3/4+x,1/4-y,3/4+z
1/2+x,1/2+y,z
1/2-x,1/2-y,z
3/4-x,3/4+y,1/4+z
3/4+x,3/4-y,1/4+z
loop_
_atom_site_type_symbol
_atom_site_label
_atom_site_fract_x
_atom_site_fract_y
_atom_site_fract_z
Si Si1 0.171496 0.534719 0.799730
Si Si2 0.953393 0.579708 0.747037
Si Si3 0.818167 0.784042 0.140672
Si Si4 0.461764 0.663824 0.461442
Si Si5 0.605928 0.421341 0.656369
O O1 0.110205 0.467478 0.792670
O O2 0.183954 0.585208 0.914095
O O3 0.161664 0.622397 0.712126
O O4 0.016465 0.723116 0.020821
O O5 0.989270 0.618527 0.852267
O O6 0.000000 0.500000 0.692568
O O7 0.750000 0.750000 0.175225
O O8 0.862656 0.688701 0.157284
O O9 0.816291 0.815179 0.015138
O O10 0.432589 0.583110 0.544959
O O11 0.408681 0.742648 0.419719
#
# Coordination Sequence:
#
# PCOD9372018 Si02
#       5
#    16  16  16  16  16
#     4  12  26  44  73  99 144 182 239 286 360 417
#     4  12  28  46  71 102 141 184 234 294 354 423
#     4  11  22  41  67 101 132 176 229 283 339 408
#     4  11  25  45  70 102 142 183 236 285 351 418
#     4  10  24  41  69  98 138 180 229 283 349 405
#
# _framework density 22.585256999999999
#
# number of rings (size 3 to 8) (size 9 to 14) (size 15 to 20)
#    0.000    0.800    2.000    4.200    8.400    4.000 
#    0.000    0.000    0.000    0.000    0.000    0.000 
#    0.000    0.000    0.000    0.000    0.000    0.000 
#
# Total GULP energy -111967.163263 kJ/mol
# GULP energy per Si atom -5598.358163 kJ/mol
# Density = 2.253385 g / cm^3
# Si number density = 22.585257 Si / 1000 Ang^3
#
#
#
# Elastic Constant Matrix: (Units=GPa)
#
#
# Indices 1 2 3 4 5 6 
#
# 1 67.8570 26.6323 30.2439 0.0000 0.0000 0.0000
# 2 26.6323 67.6324 47.6052 0.0000 0.0000 0.0000
# 3 30.2439 47.6052 147.0411 0.0000 0.0000 0.0000
# 4 0.0000 0.0000 0.0000 31.3116 0.0000 0.0000
# 5 0.0000 0.0000 0.0000 0.0000 22.0104 0.0000
# 6 0.0000 0.0000 0.0000 0.0000 0.0000 40.5884
#
#
#
# Elastic Compliance Matrix: (Units=1/GPa)
#
#
# Indices 1 2 3 4 5 6 
#
# 1 0.017792 -0.005738 -0.001802 0.000000 0.000000 0.000000
# 2 -0.005738 0.021000 -0.005619 0.000000 0.000000 0.000000
# 3 -0.001802 -0.005619 0.008991 0.000000 0.000000 0.000000
# 4 0.000000 0.000000 0.000000 0.031937 0.000000 0.000000
# 5 0.000000 0.000000 0.000000 0.000000 0.045433 0.000000
# 6 0.000000 0.000000 0.000000 0.000000 0.000000 0.024638
#
#
# Mechanical properties :
#
#
# Convention : Reuss Voigt Hill
#
# Bulk Modulus (GPa) = 46.58570 54.61037 50.59803
# Shear Modulus (GPa) = 27.28329 30.65202 28.96766
#
# Velocity S-wave (km/s) = 3.47942 3.68797 3.58521
# Velocity P-wave (km/s) = 6.06739 6.50900 6.29207
#
# Compressibility (1/GPa) = 0.02146582
#
# Stress axis : x y z
#
# Youngs Moduli (GPa) = 56.20530 47.61863 111.22827
#
# Poissons Ratio (x) = 0.27323 0.20042
# Poissons Ratio (y) = 0.32250 0.62496
# Poissons Ratio (z) = 0.10127 0.26756
#
# Static dielectric constant tensor:
#      x y z
#    x 1.774830 0.000000 0.000000 
#    y 0.000000 1.894080 0.000000 
#    z 0.000000 0.000000 1.819130 
# 
# From -- ./inp_files/6057.got.cif
#   From: 2010.05.17/outbox.cif.g08.bks.cpg/sg43_4_cif.got.tgz:6057.got - 2010.06.03 19:21:55.
