data_PCOD9372462
_publ_section_title
;
Structure prediction by ZEFSAII (Michael W. Deem and Ramdas Pophale) SiO2 
 PCOD9372462
Probable space group: F D D 2
;
_chemical_formula_sum "Si O2"
_cell_formula_units_Z 112
_cell_length_a 14.577338
_cell_length_b 23.911431
_cell_length_c 13.810684
_cell_angle_alpha 90.000000
_cell_angle_beta 90.000000
_cell_angle_gamma 90.000000
_cell_volume 4813.921231
_symmetry_space_group_name_H-M "F D D 2"
_symmetry_group_IT_number 43
_symmetry_cell_setting 'orthorhombic'
loop_
_space_group_symop_operation_xyz
x,y,z
-x,-y,z
1/4-x,1/4+y,1/4+z
1/4+x,1/4-y,1/4+z
x,1/2+y,1/2+z
-x,1/2-y,1/2+z
1/4-x,3/4+y,3/4+z
1/4+x,3/4-y,3/4+z
1/2+x,y,1/2+z
1/2-x,-y,1/2+z
3/4-x,1/4+y,3/4+z
3/4+x,1/4-y,3/4+z
1/2+x,1/2+y,z
1/2-x,1/2-y,z
3/4-x,3/4+y,1/4+z
3/4+x,3/4-y,1/4+z
loop_
_atom_site_type_symbol
_atom_site_label
_atom_site_fract_x
_atom_site_fract_y
_atom_site_fract_z
Si Si1 0.278839 0.492438 0.047750
Si Si2 0.343447 0.279768 0.454049
Si Si3 0.083985 0.855212 0.279857
Si Si4 0.711906 0.134815 0.237688
Si Si5 0.978761 0.730632 0.084183
Si Si6 0.178189 0.899737 0.634167
Si Si7 0.441440 0.056427 0.300836
O O1 0.372754 0.512456 0.096974
O O2 0.217905 0.547074 0.024802
O O3 0.241800 0.454158 0.135618
O O4 0.279392 0.461438 0.945505
O O5 0.250000 0.250000 0.478584
O O6 0.328443 0.346835 0.449226
O O7 0.418573 0.264763 0.538828
O O8 0.193130 0.845393 0.283912
O O9 0.043301 0.886380 0.373553
O O10 0.694460 0.070008 0.266570
O O11 0.627363 0.163917 0.286421
O O12 0.906105 0.781476 0.087506
O O13 0.099424 0.904394 0.715321
O O14 0.243181 0.845332 0.618953
O O15 0.500000 0.000000 0.274334
#
# Coordination Sequence:
#
# PCOD9372462 Si02
#       7
#    16  16  16  16  16  16  16
#     4  12  26  47  72 112 150 200 256 318 395 463
#     4  11  26  49  76 110 154 201 263 318 389 471
#     4  11  23  45  72 105 154 193 251 326 379 464
#     4  11  22  43  71 109 147 193 257 316 384 451
#     4  11  24  49  73 107 153 194 259 319 378 469
#     4  12  25  43  76 111 146 204 249 318 385 463
#     4  12  26  48  77 109 156 199 257 316 386 464
#
# _framework density 23.265857
#
# number of rings (size 3 to 8) (size 9 to 14) (size 15 to 20)
#    0.000    0.571    5.714    3.429    4.000    1.714 
#    2.571    0.000    0.000    0.000    0.000    0.000 
#    0.000    0.000    0.000    0.000    0.000    0.000 
#
# Total GULP energy -155998.922509 kJ/mol
# GULP energy per Si atom -5571.390090 kJ/mol
# Density = 2.321290 g / cm^3
# Si number density = 23.265857 Si / 1000 Ang^3
#
#
#
# Elastic Constant Matrix: (Units=GPa)
#
#
# Indices 1 2 3 4 5 6 
#
# 1 107.3037 64.6516 34.6254 0.0000 0.0000 0.0000
# 2 64.6516 102.7724 12.6772 0.0000 0.0000 0.0000
# 3 34.6254 12.6772 54.4547 0.0000 0.0000 0.0000
# 4 0.0000 0.0000 0.0000 24.1872 0.0000 0.0000
# 5 0.0000 0.0000 0.0000 0.0000 22.0400 0.0000
# 6 0.0000 0.0000 0.0000 0.0000 0.0000 39.9986
#
#
#
# Elastic Compliance Matrix: (Units=1/GPa)
#
#
# Indices 1 2 3 4 5 6 
#
# 1 0.018795 -0.010656 -0.009471 0.000000 0.000000 0.000000
# 2 -0.010656 0.016059 0.003037 0.000000 0.000000 0.000000
# 3 -0.009471 0.003037 0.023679 0.000000 0.000000 0.000000
# 4 0.000000 0.000000 0.000000 0.041344 0.000000 0.000000
# 5 0.000000 0.000000 0.000000 0.000000 0.045372 0.000000
# 6 0.000000 0.000000 0.000000 0.000000 0.000000 0.025001
#
#
# Mechanical properties :
#
#
# Convention : Reuss Voigt Hill
#
# Bulk Modulus (GPa) = 41.06004 54.27100 47.66552
# Shear Modulus (GPa) = 23.52424 27.41694 25.47059
#
# Velocity S-wave (km/s) = 3.18324 3.43654 3.31231
# Velocity P-wave (km/s) = 5.58544 6.25488 5.92961
#
# Compressibility (1/GPa) = 0.02435458
#
# Stress axis : x y z
#
# Youngs Moduli (GPa) = 53.20441 62.27126 42.23181
#
# Poissons Ratio (x) = 0.66353 0.39996
# Poissons Ratio (y) = 0.56692 -0.12825
# Poissons Ratio (z) = 0.50388 -0.18911
#
# Static dielectric constant tensor:
#      x y z
#    x 1.957680 0.000000 0.000000 
#    y 0.000000 2.006380 0.000000 
#    z 0.000000 0.000000 1.968390 
# 
# From -- ./inp_files/10271.got.cif
#   From: 2010.05.17/outbox.cif.g08.bks.cpg/sg43_6_cif.got.tgz:10271.got - 2010.06.03 19:21:55.
