data_PCOD9372929
_publ_section_title
;
Structure prediction by ZEFSAII (Michael W. Deem and Ramdas Pophale) SiO2 
 PCOD9372929
Probable space group: F D D 2
;
_chemical_formula_sum "Si O2"
_cell_formula_units_Z 56
_cell_length_a 13.498987
_cell_length_b 31.320287
_cell_length_c 4.703881
_cell_angle_alpha 90.000000
_cell_angle_beta 90.000000
_cell_angle_gamma 90.000000
_cell_volume 1988.763947
_symmetry_space_group_name_H-M "F D D 2"
_symmetry_group_IT_number 43
_symmetry_cell_setting 'orthorhombic'
loop_
_space_group_symop_operation_xyz
x,y,z
-x,-y,z
1/4-x,1/4+y,1/4+z
1/4+x,1/4-y,1/4+z
x,1/2+y,1/2+z
-x,1/2-y,1/2+z
1/4-x,3/4+y,3/4+z
1/4+x,3/4-y,3/4+z
1/2+x,y,1/2+z
1/2-x,-y,1/2+z
3/4-x,1/4+y,3/4+z
3/4+x,1/4-y,3/4+z
1/2+x,1/2+y,z
1/2-x,1/2-y,z
3/4-x,3/4+y,1/4+z
3/4+x,3/4-y,1/4+z
loop_
_atom_site_type_symbol
_atom_site_label
_atom_site_fract_x
_atom_site_fract_y
_atom_site_fract_z
Si Si1 0.724603 0.416137 0.586350
Si Si2 0.750000 0.250000 0.590396
Si Si3 0.342321 0.448168 0.553353
Si Si4 0.226085 0.666122 0.971700
O O1 0.677077 0.331073 0.165724
O O2 0.797981 0.426305 0.329288
O O3 0.617961 0.415108 0.433765
O O4 0.753826 0.373196 0.757874
O O5 0.844000 0.238873 0.395015
O O6 0.773854 0.290811 0.784583
O O7 0.254782 0.451802 0.323661
#
# Coordination Sequence:
#
# PCOD9372929 Si02
#       4
#    16   8  16  16
#     4  12  32  53  96 129 177 239 311 365 456 534
#     4  12  28  62  88 126 198 228 302 386 456 530
#     4  12  30  58  86 135 175 238 296 374 446 538
#     4  12  31  59  89 134 181 238 303 382 443 550
#
# _framework density 28.158193000000001
#
# number of rings (size 3 to 8) (size 9 to 14) (size 15 to 20)
#    0.000    0.000    2.857    2.571   12.000    2.286 
#   10.286    0.000    6.286    0.000    0.000    0.000 
#    0.000    0.000    0.000    0.000    0.000    0.000 
#
# Total GULP energy -78699.183926 kJ/mol
# GULP energy per Si atom -5621.370280 kJ/mol
# Density = 2.809410 g / cm^3
# Si number density = 28.158193 Si / 1000 Ang^3
#
#
#
# Elastic Constant Matrix: (Units=GPa)
#
#
# Indices 1 2 3 4 5 6 
#
# 1 209.0180 81.8853 96.2609 -0.0024 -0.0056 0.0016
# 2 81.8853 112.3709 65.3180 -0.0003 -0.0007 0.0001
# 3 96.2609 65.3180 225.6791 -0.0060 -0.0137 0.0029
# 4 -0.0024 -0.0003 -0.0060 73.3076 0.0018 -0.0008
# 5 -0.0056 -0.0007 -0.0137 0.0018 86.7323 -0.0014
# 6 0.0016 0.0001 0.0029 -0.0008 -0.0014 36.8918
#
#
#
# Elastic Compliance Matrix: (Units=1/GPa)
#
#
# Indices 1 2 3 4 5 6 
#
# 1 0.007314 -0.004227 -0.001896 0.000000 0.000000 0.000000
# 2 -0.004227 0.013143 -0.002001 0.000000 0.000000 0.000000
# 3 -0.001896 -0.002001 0.005819 0.000000 0.000001 0.000000
# 4 0.000000 0.000000 0.000000 0.013641 0.000000 0.000000
# 5 0.000000 0.000000 0.000001 0.000000 0.011530 0.000000
# 6 0.000000 0.000000 0.000000 0.000000 0.000000 0.027106
#
#
# Mechanical properties :
#
#
# Convention : Reuss Voigt Hill
#
# Bulk Modulus (GPa) = 99.73218 114.88851 107.31035
# Shear Modulus (GPa) = 50.94630 59.62661 55.28646
#
# Velocity S-wave (km/s) = 4.25819 4.60669 4.43586
# Velocity P-wave (km/s) = 7.72474 8.31776 8.02673
#
# Compressibility (1/GPa) = 0.01002685
#
# Stress axis : x y z
#
# Youngs Moduli (GPa) = 136.73203 76.08877 171.85523
#
# Poissons Ratio (x) = 0.32165 0.32584
# Poissons Ratio (y) = 0.57801 0.34383
# Poissons Ratio (z) = 0.25924 0.15223
#
# Static dielectric constant tensor:
#      x y z
#    x 2.168660 0.000000 0.000000 
#    y 0.000000 2.277190 0.000000 
#    z 0.000000 0.000000 2.155390 
# 
# From -- ./inp_files/306.got.cif
#   From: 2010.05.17/outbox.cif.g08.bks.cpg/sg43_1_cif.got.tgz:306.got - 2010.06.03 19:21:55.
