data_PCOD9372947
_publ_section_title
;
Structure prediction by ZEFSAII (Michael W. Deem and Ramdas Pophale) SiO2 
 PCOD9372947
Probable space group: F D D 2
;
_chemical_formula_sum "Si O2"
_cell_formula_units_Z 72
_cell_length_a 21.205624
_cell_length_b 20.287139
_cell_length_c 7.791049
_cell_angle_alpha 90.000000
_cell_angle_beta 90.000000
_cell_angle_gamma 90.000000
_cell_volume 3351.720512
_symmetry_space_group_name_H-M "F D D 2"
_symmetry_group_IT_number 43
_symmetry_cell_setting 'orthorhombic'
loop_
_space_group_symop_operation_xyz
x,y,z
-x,-y,z
1/4-x,1/4+y,1/4+z
1/4+x,1/4-y,1/4+z
x,1/2+y,1/2+z
-x,1/2-y,1/2+z
1/4-x,3/4+y,3/4+z
1/4+x,3/4-y,3/4+z
1/2+x,y,1/2+z
1/2-x,-y,1/2+z
3/4-x,1/4+y,3/4+z
3/4+x,1/4-y,3/4+z
1/2+x,1/2+y,z
1/2-x,1/2-y,z
3/4-x,3/4+y,1/4+z
3/4+x,3/4-y,1/4+z
loop_
_atom_site_type_symbol
_atom_site_label
_atom_site_fract_x
_atom_site_fract_y
_atom_site_fract_z
Si Si1 0.925025 0.789964 0.340960
Si Si2 0.365740 0.830010 0.209543
Si Si3 0.115740 0.080014 0.215665
Si Si4 0.250000 0.750000 0.087588
Si Si5 0.425020 0.710033 0.334257
O O1 0.900955 0.814732 0.528260
O O2 0.893582 0.841941 0.210693
O O3 0.903209 0.714216 0.329784
O O4 0.000003 0.794171 0.337606
O O5 0.296446 0.796791 0.195062
O O6 0.403201 0.785779 0.345436
O O7 0.356421 0.908055 0.214525
O O8 0.046447 0.046791 0.230119
O O9 0.150948 0.064736 0.396959
#
# Coordination Sequence:
#
# PCOD9372947 Si02
#       5
#    16  16  16   8  16
#     4   9  16  28  45  71  98 116 159 200 240 273
#     4   9  17  26  46  73  93 122 153 204 237 274
#     4   9  17  26  46  73  93 122 153 204 237 274
#     4   8  12  24  40  64  92 102 152 190 230 256
#     4   9  16  28  45  71  98 116 159 200 240 273
#
# _framework density 21.481504999999999
#
# number of rings (size 3 to 8) (size 9 to 14) (size 15 to 20)
#    0.000    3.556    2.222    0.000    0.000    0.000 
#    0.000    0.000    0.000   10.667    0.000    0.000 
#    0.000    0.000    0.000    0.000    0.000    0.889 
#
# Total GULP energy -100214.613214 kJ/mol
# GULP energy per Si atom -5567.478512 kJ/mol
# Density = 2.143261 g / cm^3
# Si number density = 21.481505 Si / 1000 Ang^3
#
#
#
# Elastic Constant Matrix: (Units=GPa)
#
#
# Indices 1 2 3 4 5 6 
#
# 1 125.1622 43.4537 20.3949 0.0006 -0.0002 -0.0007
# 2 43.4537 178.3114 57.3342 0.0007 -0.0004 -0.0010
# 3 20.3949 57.3342 55.6114 0.0019 -0.0010 -0.0024
# 4 0.0006 0.0007 0.0019 20.0154 -0.0008 -0.0015
# 5 -0.0002 -0.0004 -0.0010 -0.0008 -4.5492 0.0008
# 6 -0.0007 -0.0010 -0.0024 -0.0015 0.0008 -2.8428
#
#
#
# Elastic Compliance Matrix: (Units=1/GPa)
#
#
# Indices 1 2 3 4 5 6 
#
# 1 0.008813 -0.001658 -0.001523 0.000000 0.000000 0.000000
# 2 -0.001658 0.008701 -0.008363 0.000001 0.000001 0.000004
# 3 -0.001523 -0.008363 0.027162 -0.000002 -0.000005 -0.000019
# 4 0.000000 0.000001 -0.000002 0.049962 -0.000009 -0.000026
# 5 0.000000 0.000001 -0.000005 -0.000009 -0.219817 -0.000059
# 6 0.000000 0.000004 -0.000019 -0.000026 -0.000059 -0.351771
#
#
# Mechanical properties :
#
#
# Convention : Reuss Voigt Hill
#
# Bulk Modulus (GPa) = 46.31843 66.82784 56.57314
# Shear Modulus (GPa) = -11.19404 18.38482 3.59539
#
# Velocity S-wave (km/s) = -2.28524 2.92866 1.29512
# Velocity P-wave (km/s) = 3.82697 6.52787 5.35064
#
# Compressibility (1/GPa) = 0.02158968
#
# Stress axis : x y z
#
# Youngs Moduli (GPa) = 113.46310 114.92715 36.81614
#
# Poissons Ratio (x) = 0.19057 0.05606
# Poissons Ratio (y) = 0.18814 0.30788
# Poissons Ratio (z) = 0.17277 0.96109
#
# Static dielectric constant tensor:
#      x y z
#    x 1.732360 0.000000 0.000000 
#    y 0.000000 1.876910 0.000000 
#    z 0.000000 0.000000 2.000640 
# 
# From -- ./inp_files/3136.got.cif
#   From: 2010.05.17/outbox.cif.g08.bks.cpg/sg43_2_cif.got.tgz:3136.got - 2010.06.03 19:21:55.
