data_PCOD9372710
_publ_section_title
;
Structure prediction by ZEFSAII (Michael W. Deem and Ramdas Pophale) SiO2 
 PCOD9372710
Probable space group: F D D 2
;
_chemical_formula_sum "Si O2"
_cell_formula_units_Z 104
_cell_length_a 8.318964
_cell_length_b 31.442636
_cell_length_c 17.501203
_cell_angle_alpha 90.000000
_cell_angle_beta 90.000000
_cell_angle_gamma 90.000000
_cell_volume 4577.792416
_symmetry_space_group_name_H-M "F D D 2"
_symmetry_group_IT_number 43
_symmetry_cell_setting 'orthorhombic'
loop_
_space_group_symop_operation_xyz
x,y,z
-x,-y,z
1/4-x,1/4+y,1/4+z
1/4+x,1/4-y,1/4+z
x,1/2+y,1/2+z
-x,1/2-y,1/2+z
1/4-x,3/4+y,3/4+z
1/4+x,3/4-y,3/4+z
1/2+x,y,1/2+z
1/2-x,-y,1/2+z
3/4-x,1/4+y,3/4+z
3/4+x,1/4-y,3/4+z
1/2+x,1/2+y,z
1/2-x,1/2-y,z
3/4-x,3/4+y,1/4+z
3/4+x,3/4-y,1/4+z
loop_
_atom_site_type_symbol
_atom_site_label
_atom_site_fract_x
_atom_site_fract_y
_atom_site_fract_z
Si Si1 0.555764 0.049662 0.444960
Si Si2 0.119393 0.320844 0.019824
Si Si3 0.066084 0.188687 0.823055
Si Si4 0.229188 0.349588 0.713404
Si Si5 0.376413 0.634718 0.950499
Si Si6 0.750000 0.250000 0.411929
Si Si7 0.508223 0.949729 0.810031
O O1 0.571995 0.063615 0.356289
O O2 0.713014 0.052373 0.497421
O O3 0.449120 0.089261 0.476087
O O4 0.500000 0.000000 0.447307
O O5 0.931199 0.311583 0.026531
O O6 0.207817 0.288547 0.966307
O O7 0.121432 0.365835 0.975838
O O8 0.244535 0.172966 0.795712
O O9 0.099101 0.233418 0.863848
O O10 0.971510 0.155843 0.878775
O O11 0.254119 0.316099 0.646613
O O12 0.061396 0.371919 0.691595
O O13 0.373535 0.672219 0.013948
O O14 0.500000 0.000000 0.804661
#
# Coordination Sequence:
#
# PCOD9372710 Si02
#       7
#    16  16  16  16  16   8  16
#     4  12  27  48  78 113 152 202 261 320 389 477
#     4  11  25  47  72 107 145 201 250 307 381 467
#     4  12  28  48  74 112 154 197 263 320 391 463
#     4  11  26  45  77 109 149 198 258 315 386 461
#     4  11  27  48  76 113 156 206 250 329 400 464
#     4  12  30  44  80 106 156 198 250 318 388 454
#     4  11  25  46  77 108 153 197 260 312 386 464
#
# _framework density 22.718373
#
# number of rings (size 3 to 8) (size 9 to 14) (size 15 to 20)
#    0.000    0.615    3.846    1.846   11.846    4.308 
#    0.000    0.000    0.000    0.000    0.000    0.000 
#    0.000    0.000    0.000    0.000    0.000    0.000 
#
# Total GULP energy -145027.912672 kJ/mol
# GULP energy per Si atom -5577.996641 kJ/mol
# Density = 2.266667 g / cm^3
# Si number density = 22.718373 Si / 1000 Ang^3
#
#
#
# Elastic Constant Matrix: (Units=GPa)
#
#
# Indices 1 2 3 4 5 6 
#
# 1 51.5615 18.5924 24.2605 0.0000 0.0000 0.0000
# 2 18.5924 146.2077 26.1996 0.0000 0.0000 0.0000
# 3 24.2605 26.1996 99.0156 0.0000 0.0000 0.0000
# 4 0.0000 0.0000 0.0000 36.4725 0.0000 0.0000
# 5 0.0000 0.0000 0.0000 0.0000 44.9968 0.0000
# 6 0.0000 0.0000 0.0000 0.0000 0.0000 30.8049
#
#
#
# Elastic Compliance Matrix: (Units=1/GPa)
#
#
# Indices 1 2 3 4 5 6 
#
# 1 0.022445 -0.001962 -0.004980 0.000000 0.000000 0.000000
# 2 -0.001962 0.007351 -0.001465 0.000000 0.000000 0.000000
# 3 -0.004980 -0.001465 0.011707 0.000000 0.000000 0.000000
# 4 0.000000 0.000000 0.000000 0.027418 0.000000 0.000000
# 5 0.000000 0.000000 0.000000 0.000000 0.022224 0.000000
# 6 0.000000 0.000000 0.000000 0.000000 0.000000 0.032462
#
#
# Mechanical properties :
#
#
# Convention : Reuss Voigt Hill
#
# Bulk Modulus (GPa) = 40.50147 48.32107 44.41127
# Shear Modulus (GPa) = 33.63580 37.63702 35.63641
#
# Velocity S-wave (km/s) = 3.85197 4.07465 3.96487
# Velocity P-wave (km/s) = 6.13595 6.59187 6.36799
#
# Compressibility (1/GPa) = 0.02469046
#
# Stress axis : x y z
#
# Youngs Moduli (GPa) = 44.55329 136.02685 85.41757
#
# Poissons Ratio (x) = 0.26685 0.42541
# Poissons Ratio (y) = 0.08740 0.12510
# Poissons Ratio (z) = 0.22189 0.19922
#
# Static dielectric constant tensor:
#      x y z
#    x 1.884500 0.000000 0.000000 
#    y 0.000000 2.149880 0.000000 
#    z 0.000000 0.000000 1.895720 
# 
# From -- ./inp_files/16576.got.cif
#   From: 2010.05.17/outbox.cif.g08.bks.cpg/sg43_9_cif.got.tgz:16576.got - 2010.06.03 19:21:55.
