data_PCOD9372652
_publ_section_title
;
Structure prediction by ZEFSAII (Michael W. Deem and Ramdas Pophale) SiO2 
 PCOD9372652
Probable space group: F D D 2
;
_chemical_formula_sum "Si O2"
_cell_formula_units_Z 72
_cell_length_a 26.743746
_cell_length_b 23.876572
_cell_length_c 5.059697
_cell_angle_alpha 90.000000
_cell_angle_beta 90.000000
_cell_angle_gamma 90.000000
_cell_volume 3230.864343
_symmetry_space_group_name_H-M "F D D 2"
_symmetry_group_IT_number 43
_symmetry_cell_setting 'orthorhombic'
loop_
_space_group_symop_operation_xyz
x,y,z
-x,-y,z
1/4-x,1/4+y,1/4+z
1/4+x,1/4-y,1/4+z
x,1/2+y,1/2+z
-x,1/2-y,1/2+z
1/4-x,3/4+y,3/4+z
1/4+x,3/4-y,3/4+z
1/2+x,y,1/2+z
1/2-x,-y,1/2+z
3/4-x,1/4+y,3/4+z
3/4+x,1/4-y,3/4+z
1/2+x,1/2+y,z
1/2-x,1/2-y,z
3/4-x,3/4+y,1/4+z
3/4+x,3/4-y,1/4+z
loop_
_atom_site_type_symbol
_atom_site_label
_atom_site_fract_x
_atom_site_fract_y
_atom_site_fract_z
Si Si1 0.215727 0.851148 0.773560
Si Si2 0.240912 0.036316 0.101355
Si Si3 0.440345 0.080954 0.851981
Si Si4 0.750000 0.250000 0.397108
Si Si5 0.897941 0.139029 0.870195
O O1 0.222958 0.910029 0.624467
O O2 0.233977 0.801093 0.584549
O O3 0.159253 0.844029 0.861621
O O4 0.254724 0.853054 0.016258
O O5 0.185959 0.060001 0.174778
O O6 0.257723 0.990580 0.313939
O O7 0.407858 0.091201 0.590673
O O8 0.453973 0.019877 0.963467
O O9 0.415416 0.115025 0.088243
#
# Coordination Sequence:
#
# PCOD9372652 Si02
#       5
#    16  16  16   8  16
#     4  11  27  50  76 111 154 195 254 317 374 445
#     4  11  24  48  70 101 149 192 240 305 366 448
#     4  11  24  47  71 108 152 189 245 312 367 441
#     4  12  24  50  78 112 154 198 238 334 360 448
#     4  11  26  47  75 108 148 201 254 297 387 454
#
# _framework density 22.285059
#
# number of rings (size 3 to 8) (size 9 to 14) (size 15 to 20)
#    0.000    0.889    4.444    3.333    3.111    1.778 
#    8.000    0.000    0.000    0.000    0.000    0.000 
#    0.000    0.000    0.000    0.000    0.000    0.000 
#
# Total GULP energy -100717.062191 kJ/mol
# GULP energy per Si atom -5595.392344 kJ/mol
# Density = 2.223434 g / cm^3
# Si number density = 22.285059 Si / 1000 Ang^3
#
#
#
# Elastic Constant Matrix: (Units=GPa)
#
#
# Indices 1 2 3 4 5 6 
#
# 1 124.4667 18.9844 27.6239 -0.1179 0.1151 0.0230
# 2 18.9844 85.5942 18.9666 0.2034 -0.0033 -0.0324
# 3 27.6239 18.9666 129.9837 0.2595 -0.0605 0.0057
# 4 -0.1179 0.2034 0.2595 40.3166 -0.0114 0.0094
# 5 0.1151 -0.0033 -0.0605 -0.0114 18.1377 0.0109
# 6 0.0230 -0.0324 0.0057 0.0094 0.0109 9.4076
#
#
#
# Elastic Compliance Matrix: (Units=1/GPa)
#
#
# Indices 1 2 3 4 5 6 
#
# 1 0.008629 -0.001558 -0.001607 0.000043 -0.000060 -0.000025
# 2 -0.001558 0.012355 -0.001472 -0.000057 0.000007 0.000047
# 3 -0.001607 -0.001472 0.008250 -0.000050 0.000037 -0.000006
# 4 0.000043 -0.000057 -0.000050 0.024804 0.000015 -0.000025
# 5 -0.000060 0.000007 0.000037 0.000015 0.055134 -0.000063
# 6 -0.000025 0.000047 -0.000006 -0.000025 -0.000063 0.106298
#
#
# Mechanical properties :
#
#
# Convention : Reuss Voigt Hill
#
# Bulk Modulus (GPa) = 50.09786 52.35491 51.22639
# Shear Modulus (GPa) = 21.60808 31.87036 26.73922
#
# Velocity S-wave (km/s) = 3.11725 3.78580 3.46767
# Velocity P-wave (km/s) = 5.95698 6.53100 6.25058
#
# Compressibility (1/GPa) = 0.01996093
#
# Stress axis : x y z
#
# Youngs Moduli (GPa) = 115.89432 80.94022 121.21905
#
# Poissons Ratio (x) = 0.12610 0.19474
# Poissons Ratio (y) = 0.18055 0.17838
# Poissons Ratio (z) = 0.18619 0.11911
#
# Static dielectric constant tensor:
#      x y z
#    x 1.797340 -0.000040 0.000290 
#    y -0.000040 1.836560 0.000010 
#    z 0.000290 0.000010 1.840020 
# 
# From -- ./inp_files/920.got.cif
#   From: 2010.05.17/outbox.cif.g08.bks.cpg/sg43_1_cif.got.tgz:920.got - 2010.06.03 19:21:55.
