data_PCOD9372088
_publ_section_title
;
Structure prediction by ZEFSAII (Michael W. Deem and Ramdas Pophale) SiO2 
 PCOD9372088
Probable space group: F D D 2
;
_chemical_formula_sum "Si O2"
_cell_formula_units_Z 56
_cell_length_a 5.080556
_cell_length_b 22.981625
_cell_length_c 20.752248
_cell_angle_alpha 90.000000
_cell_angle_beta 90.000000
_cell_angle_gamma 90.000000
_cell_volume 2423.020705
_symmetry_space_group_name_H-M "F D D 2"
_symmetry_group_IT_number 43
_symmetry_cell_setting 'orthorhombic'
loop_
_space_group_symop_operation_xyz
x,y,z
-x,-y,z
1/4-x,1/4+y,1/4+z
1/4+x,1/4-y,1/4+z
x,1/2+y,1/2+z
-x,1/2-y,1/2+z
1/4-x,3/4+y,3/4+z
1/4+x,3/4-y,3/4+z
1/2+x,y,1/2+z
1/2-x,-y,1/2+z
3/4-x,1/4+y,3/4+z
3/4+x,1/4-y,3/4+z
1/2+x,1/2+y,z
1/2-x,1/2-y,z
3/4-x,3/4+y,1/4+z
3/4+x,3/4-y,1/4+z
loop_
_atom_site_type_symbol
_atom_site_label
_atom_site_fract_x
_atom_site_fract_y
_atom_site_fract_z
Si Si1 0.604025 0.408956 0.979330
Si Si2 0.990043 0.711518 0.124342
Si Si3 0.286914 0.396413 0.099299
Si Si4 0.000000 0.500000 0.041445
O O1 0.362687 0.445283 0.946439
O O2 0.666384 0.366840 0.919030
O O3 0.484088 0.380043 0.042180
O O4 0.166904 0.547730 0.001233
O O5 0.750000 0.750000 0.097083
O O6 0.961705 0.647832 0.093407
O O7 0.250000 0.750000 0.120243
O O8 0.193329 0.461740 0.086731
#
# Coordination Sequence:
#
# PCOD9372088 Si02
#       4
#    16  16  16   8
#     4  10  26  46  78 115 155 218 265 338 404 490
#     4  10  24  44  75 110 151 207 262 321 397 482
#     4  10  26  43  77 114 153 205 275 323 413 482
#     4  12  24  50  80 106 166 210 272 336 412 486
#
# _framework density 23.111646
#
# number of rings (size 3 to 8) (size 9 to 14) (size 15 to 20)
#    1.714    0.000    0.000    2.571   12.000    2.286 
#    2.571    0.000    6.286    0.000    0.000    0.000 
#    0.000    0.000    0.000    0.000    0.000    0.000 
#
# Total GULP energy -78028.028604 kJ/mol
# GULP energy per Si atom -5573.430615 kJ/mol
# Density = 2.305904 g / cm^3
# Si number density = 23.111646 Si / 1000 Ang^3
#
#
#
# Elastic Constant Matrix: (Units=GPa)
#
#
# Indices 1 2 3 4 5 6 
#
# 1 144.9978 46.7282 49.9594 0.0000 0.0000 0.0000
# 2 46.7282 98.7013 67.4303 0.0000 0.0000 0.0000
# 3 49.9594 67.4303 164.2018 0.0000 0.0000 0.0000
# 4 0.0000 0.0000 0.0000 53.2182 0.0000 0.0000
# 5 0.0000 0.0000 0.0000 0.0000 18.7517 0.0000
# 6 0.0000 0.0000 0.0000 0.0000 0.0000 48.3431
#
#
#
# Elastic Compliance Matrix: (Units=1/GPa)
#
#
# Indices 1 2 3 4 5 6 
#
# 1 0.008325 -0.003073 -0.001271 0.000000 0.000000 0.000000
# 2 -0.003073 0.015217 -0.005314 0.000000 0.000000 0.000000
# 3 -0.001271 -0.005314 0.008659 0.000000 0.000000 0.000000
# 4 0.000000 0.000000 0.000000 0.018791 0.000000 0.000000
# 5 0.000000 0.000000 0.000000 0.000000 0.053328 0.000000
# 6 0.000000 0.000000 0.000000 0.000000 0.000000 0.020685
#
#
# Mechanical properties :
#
#
# Convention : Reuss Voigt Hill
#
# Bulk Modulus (GPa) = 77.60985 81.79295 79.70140
# Shear Modulus (GPa) = 33.64387 40.31481 36.97934
#
# Velocity S-wave (km/s) = 3.81952 4.18107 4.00438
# Velocity P-wave (km/s) = 7.28731 7.66653 7.47933
#
# Compressibility (1/GPa) = 0.01288496
#
# Stress axis : x y z
#
# Youngs Moduli (GPa) = 120.12174 65.71725 115.48775
#
# Poissons Ratio (x) = 0.20195 0.14678
# Poissons Ratio (y) = 0.36913 0.61368
# Poissons Ratio (z) = 0.15267 0.34921
#
# Static dielectric constant tensor:
#      x y z
#    x 1.958140 0.000000 0.000000 
#    y 0.000000 1.917420 0.000000 
#    z 0.000000 0.000000 1.935540 
# 
# From -- ./inp_files/12132.got.cif
#   From: 2010.05.17/outbox.cif.g08.bks.cpg/sg43_7_cif.got.tgz:12132.got - 2010.06.03 19:21:55.
