data_PCOD9372589
_publ_section_title
;
Structure prediction by ZEFSAII (Michael W. Deem and Ramdas Pophale) SiO2 
 PCOD9372589
Probable space group: F D D 2
;
_chemical_formula_sum "Si O2"
_cell_formula_units_Z 120
_cell_length_a 26.994078
_cell_length_b 15.754107
_cell_length_c 12.031618
_cell_angle_alpha 90.000000
_cell_angle_beta 90.000000
_cell_angle_gamma 90.000000
_cell_volume 5116.657229
_symmetry_space_group_name_H-M "F D D 2"
_symmetry_group_IT_number 43
_symmetry_cell_setting 'orthorhombic'
loop_
_space_group_symop_operation_xyz
x,y,z
-x,-y,z
1/4-x,1/4+y,1/4+z
1/4+x,1/4-y,1/4+z
x,1/2+y,1/2+z
-x,1/2-y,1/2+z
1/4-x,3/4+y,3/4+z
1/4+x,3/4-y,3/4+z
1/2+x,y,1/2+z
1/2-x,-y,1/2+z
3/4-x,1/4+y,3/4+z
3/4+x,1/4-y,3/4+z
1/2+x,1/2+y,z
1/2-x,1/2-y,z
3/4-x,3/4+y,1/4+z
3/4+x,3/4-y,1/4+z
loop_
_atom_site_type_symbol
_atom_site_label
_atom_site_fract_x
_atom_site_fract_y
_atom_site_fract_z
Si Si1 0.030399 0.618908 0.712850
Si Si2 0.000000 0.000000 0.792170
Si Si3 0.161862 0.355393 0.694632
Si Si4 0.529725 0.718923 0.989108
Si Si5 0.856382 0.749540 0.379581
Si Si6 0.568583 0.393831 0.925682
Si Si7 0.813089 0.481101 0.003492
Si Si8 0.260519 0.619870 0.356038
O O1 0.059967 0.622714 0.829142
O O2 0.046039 0.677762 0.606636
O O3 0.052064 0.530163 0.667519
O O4 0.975347 0.651256 0.744073
O O5 0.046801 0.980434 0.870544
O O6 0.008559 0.922716 0.708296
O O7 0.136649 0.446656 0.720561
O O8 0.116588 0.292871 0.709813
O O9 0.202617 0.325889 0.781923
O O10 0.479472 0.665275 0.956746
O O11 0.561204 0.725389 0.875677
O O12 0.522967 0.817448 0.021899
O O13 0.846639 0.817169 0.281863
O O14 0.892772 0.668111 0.361005
O O15 0.790940 0.546977 0.917450
#
# Coordination Sequence:
#
# PCOD9372589 Si02
#       8
#    16   8  16  16  16  16  16  16
#     4  11  24  43  75 109 150 198 266 319 393 476
#     4  12  28  48  70 112 156 196 258 310 398 480
#     4  12  24  47  73 114 149 197 262 324 388 480
#     4  11  23  48  77 104 149 214 250 319 405 477
#     4  12  24  43  74 113 147 197 260 331 377 464
#     4  12  25  48  78 109 156 201 264 329 394 477
#     4  11  24  47  79 102 151 212 254 323 407 466
#     4  11  24  47  71 103 151 199 247 316 381 466
#
# _framework density 23.452812999999999
#
# number of rings (size 3 to 8) (size 9 to 14) (size 15 to 20)
#    0.000    0.533    5.333    3.200    1.867    2.667 
#    4.800    0.000    0.000    0.000    0.000    0.000 
#    0.000    0.000    0.000    0.000    0.000    0.000 
#
# Total GULP energy -167098.465723 kJ/mol
# GULP energy per Si atom -5569.948857 kJ/mol
# Density = 2.339943 g / cm^3
# Si number density = 23.452813 Si / 1000 Ang^3
#
#
#
# Elastic Constant Matrix: (Units=GPa)
#
#
# Indices 1 2 3 4 5 6 
#
# 1 58.3964 -4.3446 31.6937 0.0000 0.0000 0.0000
# 2 -4.3446 41.0343 4.5629 0.0000 0.0000 0.0000
# 3 31.6937 4.5629 116.6051 0.0000 0.0000 0.0000
# 4 0.0000 0.0000 0.0000 -5.3575 0.0000 0.0000
# 5 0.0000 0.0000 0.0000 0.0000 -29.1337 0.0000
# 6 0.0000 0.0000 0.0000 0.0000 0.0000 31.2801
#
#
#
# Elastic Compliance Matrix: (Units=1/GPa)
#
#
# Indices 1 2 3 4 5 6 
#
# 1 0.020400 0.002789 -0.005654 0.000000 0.000000 0.000000
# 2 0.002789 0.024858 -0.001731 0.000000 0.000000 0.000000
# 3 -0.005654 -0.001731 0.010180 0.000000 0.000000 0.000000
# 4 0.000000 0.000000 0.000000 -0.186653 0.000000 0.000000
# 5 0.000000 0.000000 0.000000 0.000000 -0.034324 0.000000
# 6 0.000000 0.000000 0.000000 0.000000 0.000000 0.031969
#
#
# Mechanical properties :
#
#
# Convention : Reuss Voigt Hill
#
# Bulk Modulus (GPa) = 21.62330 31.09551 26.35941
# Shear Modulus (GPa) = -45.88736 11.63268 -17.12734
#
# Velocity S-wave (km/s) = -4.42813 2.22953 -2.70532
# Velocity P-wave (km/s) = 4.11150 4.46265 1.22695
#
# Compressibility (1/GPa) = 0.04624640
#
# Stress axis : x y z
#
# Youngs Moduli (GPa) = 49.01856 40.22918 98.22732
#
# Poissons Ratio (x) = -0.11219 0.55538
# Poissons Ratio (y) = -0.13670 0.17000
# Poissons Ratio (z) = 0.27715 0.06962
#
# Static dielectric constant tensor:
#      x y z
#    x 1.949950 0.000000 0.000000 
#    y 0.000000 2.139550 0.000000 
#    z 0.000000 0.000000 1.877300 
# 
# From -- ./inp_files/7963.got.cif
#   From: 2010.05.17/outbox.cif.g08.bks.cpg/sg43_4_cif.got.tgz:7963.got - 2010.06.03 19:21:55.
