data_PCOD9372826
_publ_section_title
;
Structure prediction by ZEFSAII (Michael W. Deem and Ramdas Pophale) SiO2 
 PCOD9372826
Probable space group: F D D 2
;
_chemical_formula_sum "Si O2"
_cell_formula_units_Z 112
_cell_length_a 13.982928
_cell_length_b 25.602476
_cell_length_c 13.675457
_cell_angle_alpha 90.000000
_cell_angle_beta 90.000000
_cell_angle_gamma 90.000000
_cell_volume 4895.780491
_symmetry_space_group_name_H-M "F D D 2"
_symmetry_group_IT_number 43
_symmetry_cell_setting 'orthorhombic'
loop_
_space_group_symop_operation_xyz
x,y,z
-x,-y,z
1/4-x,1/4+y,1/4+z
1/4+x,1/4-y,1/4+z
x,1/2+y,1/2+z
-x,1/2-y,1/2+z
1/4-x,3/4+y,3/4+z
1/4+x,3/4-y,3/4+z
1/2+x,y,1/2+z
1/2-x,-y,1/2+z
3/4-x,1/4+y,3/4+z
3/4+x,1/4-y,3/4+z
1/2+x,1/2+y,z
1/2-x,1/2-y,z
3/4-x,3/4+y,1/4+z
3/4+x,3/4-y,1/4+z
loop_
_atom_site_type_symbol
_atom_site_label
_atom_site_fract_x
_atom_site_fract_y
_atom_site_fract_z
Si Si1 0.140279 0.235225 0.827530
Si Si2 0.341625 0.127592 0.993301
Si Si3 0.821677 0.932899 0.906432
Si Si4 0.762786 0.110187 0.097700
Si Si5 0.250433 0.515896 0.758820
Si Si6 0.326114 0.425306 0.426877
Si Si7 0.886198 0.503693 0.589845
O O1 0.250000 0.250000 0.841377
O O2 0.126799 0.179361 0.777317
O O3 0.093211 0.277219 0.752912
O O4 0.086219 0.233189 0.931386
O O5 0.340505 0.163243 0.089826
O O6 0.240512 0.116427 0.942760
O O7 0.421808 0.148749 0.918582
O O8 0.757313 0.965524 0.829312
O O9 0.850291 0.968846 0.997722
O O10 0.822075 0.158146 0.137796
O O11 0.836572 0.061375 0.086180
O O12 0.718592 0.120225 0.991981
O O13 0.243190 0.561693 0.837661
O O14 0.157194 0.517784 0.691005
O O15 0.000000 0.500000 0.589305
#
# Coordination Sequence:
#
# PCOD9372826 Si02
#       7
#    16  16  16  16  16  16  16
#     4  12  25  47  74 114 147 196 251 318 390 449
#     4  12  24  45  81 108 146 195 259 320 375 465
#     4  12  26  50  76 111 154 200 259 316 392 463
#     4  12  25  46  76 112 144 196 266 311 389 466
#     4  12  24  50  72 104 160 194 250 321 384 464
#     4  12  26  46  75 108 151 198 253 319 382 468
#     4  12  28  51  72 108 161 206 251 320 393 460
#
# _framework density 22.876843000000001
#
# number of rings (size 3 to 8) (size 9 to 14) (size 15 to 20)
#    0.000    0.000    8.571    0.857    4.000    2.286 
#    0.000    0.000    0.000    0.000    0.000    0.000 
#    0.000    0.000    0.000    0.000    0.000    0.000 
#
# Total GULP energy -156609.992421 kJ/mol
# GULP energy per Si atom -5593.214015 kJ/mol
# Density = 2.282477 g / cm^3
# Si number density = 22.876843 Si / 1000 Ang^3
#
#
#
# Elastic Constant Matrix: (Units=GPa)
#
#
# Indices 1 2 3 4 5 6 
#
# 1 123.2681 5.8003 56.3993 0.0000 0.0000 0.0000
# 2 5.8003 50.3983 43.3493 0.0000 0.0000 0.0000
# 3 56.3993 43.3493 177.1108 0.0000 0.0000 0.0000
# 4 0.0000 0.0000 0.0000 37.3061 0.0000 0.0000
# 5 0.0000 0.0000 0.0000 0.0000 23.2706 0.0000
# 6 0.0000 0.0000 0.0000 0.0000 0.0000 25.3588
#
#
#
# Elastic Compliance Matrix: (Units=1/GPa)
#
#
# Indices 1 2 3 4 5 6 
#
# 1 0.009643 0.001940 -0.003546 0.000000 0.000000 0.000000
# 2 0.001940 0.025523 -0.006865 0.000000 0.000000 0.000000
# 3 -0.003546 -0.006865 0.008455 0.000000 0.000000 0.000000
# 4 0.000000 0.000000 0.000000 0.026805 0.000000 0.000000
# 5 0.000000 0.000000 0.000000 0.000000 0.042973 0.000000
# 6 0.000000 0.000000 0.000000 0.000000 0.000000 0.039434
#
#
# Mechanical properties :
#
#
# Convention : Reuss Voigt Hill
#
# Bulk Modulus (GPa) = 37.47977 62.43055 49.95516
# Shear Modulus (GPa) = 27.98472 33.53564 30.76018
#
# Velocity S-wave (km/s) = 3.50133 3.83289 3.67086
# Velocity P-wave (km/s) = 5.72404 6.85107 6.31275
#
# Compressibility (1/GPa) = 0.02668106
#
# Stress axis : x y z
#
# Youngs Moduli (GPa) = 103.69819 39.17989 118.26674
#
# Poissons Ratio (x) = -0.07600 0.41933
# Poissons Ratio (y) = -0.20116 0.81187
# Poissons Ratio (z) = 0.36768 0.26896
#
# Static dielectric constant tensor:
#      x y z
#    x 1.882460 0.000000 0.000000 
#    y 0.000000 1.922620 0.000000 
#    z 0.000000 0.000000 1.829790 
# 
# From -- ./inp_files/6310.got.cif
#   From: 2010.05.17/outbox.cif.g08.bks.cpg/sg43_4_cif.got.tgz:6310.got - 2010.06.03 19:21:55.
