data_PCOD9372311
_publ_section_title
;
Structure prediction by ZEFSAII (Michael W. Deem and Ramdas Pophale) SiO2 
 PCOD9372311
Probable space group: F D D 2
;
_chemical_formula_sum "Si O2"
_cell_formula_units_Z 120
_cell_length_a 20.832533
_cell_length_b 22.474771
_cell_length_c 11.627937
_cell_angle_alpha 90.000000
_cell_angle_beta 90.000000
_cell_angle_gamma 90.000000
_cell_volume 5444.274621
_symmetry_space_group_name_H-M "F D D 2"
_symmetry_group_IT_number 43
_symmetry_cell_setting 'orthorhombic'
loop_
_space_group_symop_operation_xyz
x,y,z
-x,-y,z
1/4-x,1/4+y,1/4+z
1/4+x,1/4-y,1/4+z
x,1/2+y,1/2+z
-x,1/2-y,1/2+z
1/4-x,3/4+y,3/4+z
1/4+x,3/4-y,3/4+z
1/2+x,y,1/2+z
1/2-x,-y,1/2+z
3/4-x,1/4+y,3/4+z
3/4+x,1/4-y,3/4+z
1/2+x,1/2+y,z
1/2-x,1/2-y,z
3/4-x,3/4+y,1/4+z
3/4+x,3/4-y,1/4+z
loop_
_atom_site_type_symbol
_atom_site_label
_atom_site_fract_x
_atom_site_fract_y
_atom_site_fract_z
Si Si1 0.226417 0.843163 0.726510
Si Si2 0.773579 0.843162 0.970986
Si Si3 0.250000 0.250000 0.598745
Si Si4 0.305142 0.648574 0.252735
Si Si5 0.500002 0.801618 0.848746
Si Si6 0.153504 0.030313 0.974839
Si Si7 0.903501 0.280312 0.472660
Si Si8 0.305143 0.351426 0.444753
O O1 0.249996 0.829944 0.598747
O O2 0.168644 0.798716 0.758974
O O3 0.285633 0.840953 0.813848
O O4 0.194925 0.908920 0.728383
O O5 0.714366 0.840953 0.883641
O O6 0.805072 0.908919 0.969115
O O7 0.668648 0.701286 0.938528
O O8 0.291658 0.207233 0.679099
O O9 0.291657 0.292768 0.518391
O O10 0.259764 0.595674 0.205646
O O11 0.374998 0.624998 0.223742
O O12 0.438912 0.761301 0.817644
O O13 0.509769 0.845671 0.741842
O O14 0.561092 0.761301 0.879853
O O15 0.152989 0.000001 0.848749
#
# Coordination Sequence:
#
# PCOD9372311 Si02
#       8
#    16  16   8  16  16  16  16  16
#     4  11  26  44  72 114 150 195 254 316 393 457
#     4  11  26  44  72 114 150 195 254 316 393 457
#     4  10  28  48  70 108 148 192 254 312 374 460
#     4  11  27  47  74 108 149 198 259 308 392 463
#     4  11  24  47  72 104 139 204 257 306 382 468
#     4  11  24  45  72 103 150 195 254 311 380 461
#     4  11  24  45  72 103 150 195 254 311 380 461
#     4  11  27  47  74 108 149 198 259 308 392 463
#
# _framework density 22.041502999999999
#
# number of rings (size 3 to 8) (size 9 to 14) (size 15 to 20)
#    0.000    1.067    4.000    0.000    7.467    4.800 
#    0.000    0.000    0.000    0.000    0.000    0.000 
#    0.000    0.000    0.000    0.000    0.000    0.000 
#
# Total GULP energy -167981.090795 kJ/mol
# GULP energy per Si atom -5599.369693 kJ/mol
# Density = 2.199134 g / cm^3
# Si number density = 22.041503 Si / 1000 Ang^3
#
#
#
# Elastic Constant Matrix: (Units=GPa)
#
#
# Indices 1 2 3 4 5 6 
#
# 1 129.6074 52.4300 58.9668 0.0000 0.0000 0.0000
# 2 52.4300 133.4186 40.2242 0.0000 0.0000 0.0000
# 3 58.9668 40.2242 146.6559 0.0000 0.0000 0.0000
# 4 0.0000 0.0000 0.0000 25.5222 0.0000 0.0000
# 5 0.0000 0.0000 0.0000 0.0000 38.8559 0.0000
# 6 0.0000 0.0000 0.0000 0.0000 0.0000 31.9243
#
#
#
# Elastic Compliance Matrix: (Units=1/GPa)
#
#
# Indices 1 2 3 4 5 6 
#
# 1 0.010509 -0.003113 -0.003371 0.000000 0.000000 0.000000
# 2 -0.003113 0.009093 -0.001242 0.000000 0.000000 0.000000
# 3 -0.003371 -0.001242 0.008515 0.000000 0.000000 0.000000
# 4 0.000000 0.000000 0.000000 0.039182 0.000000 0.000000
# 5 0.000000 0.000000 0.000000 0.000000 0.025736 0.000000
# 6 0.000000 0.000000 0.000000 0.000000 0.000000 0.031324
#
#
# Mechanical properties :
#
#
# Convention : Reuss Voigt Hill
#
# Bulk Modulus (GPa) = 78.96996 79.21378 79.09187
# Shear Modulus (GPa) = 34.71405 36.46456 35.58930
#
# Velocity S-wave (km/s) = 3.97286 4.07179 4.02263
# Velocity P-wave (km/s) = 7.54655 7.62381 7.58528
#
# Compressibility (1/GPa) = 0.01266304
#
# Stress axis : x y z
#
# Youngs Moduli (GPa) = 95.15723 109.97265 117.43981
#
# Poissons Ratio (x) = 0.34237 0.39595
# Poissons Ratio (y) = 0.29625 0.14589
# Poissons Ratio (z) = 0.32082 0.13662
#
# Static dielectric constant tensor:
#      x y z
#    x 1.804380 0.000000 0.000000 
#    y 0.000000 1.805750 0.000000 
#    z 0.000000 0.000000 1.786590 
# 
# From -- ./inp_files/7219.got.cif
#   From: 2010.05.17/outbox.cif.g08.bks.cpg/sg43_4_cif.got.tgz:7219.got - 2010.06.03 19:21:55.
