data_PCOD9372167
_publ_section_title
;
Structure prediction by ZEFSAII (Michael W. Deem and Ramdas Pophale) SiO2 
 PCOD9372167
Probable space group: F D D 2
;
_chemical_formula_sum "Si O2"
_cell_formula_units_Z 88
_cell_length_a 9.584009
_cell_length_b 17.174696
_cell_length_c 24.255864
_cell_angle_alpha 90.000000
_cell_angle_beta 90.000000
_cell_angle_gamma 90.000000
_cell_volume 3992.574424
_symmetry_space_group_name_H-M "F D D 2"
_symmetry_group_IT_number 43
_symmetry_cell_setting 'orthorhombic'
loop_
_space_group_symop_operation_xyz
x,y,z
-x,-y,z
1/4-x,1/4+y,1/4+z
1/4+x,1/4-y,1/4+z
x,1/2+y,1/2+z
-x,1/2-y,1/2+z
1/4-x,3/4+y,3/4+z
1/4+x,3/4-y,3/4+z
1/2+x,y,1/2+z
1/2-x,-y,1/2+z
3/4-x,1/4+y,3/4+z
3/4+x,1/4-y,3/4+z
1/2+x,1/2+y,z
1/2-x,1/2-y,z
3/4-x,3/4+y,1/4+z
3/4+x,3/4-y,1/4+z
loop_
_atom_site_type_symbol
_atom_site_label
_atom_site_fract_x
_atom_site_fract_y
_atom_site_fract_z
Si Si1 0.421105 0.837150 0.253700
Si Si2 0.378773 0.447876 0.252971
Si Si3 0.250000 0.250000 0.836205
Si Si4 0.111716 0.930905 0.826721
Si Si5 0.228809 0.058812 0.671708
Si Si6 0.475827 0.679316 0.188237
O O1 0.294348 0.818555 0.294859
O O2 0.546132 0.856661 0.295407
O O3 0.382947 0.910932 0.216615
O O4 0.056144 0.735169 0.212176
O O5 0.500000 0.500000 0.278001
O O6 0.251028 0.446699 0.293287
O O7 0.322296 0.489844 0.197344
O O8 0.451315 0.367392 0.237886
O O9 0.116908 0.278192 0.871806
O O10 0.161463 0.926555 0.889457
O O11 0.000000 0.000000 0.822505
O O12 0.338494 0.131346 0.667286
#
# Coordination Sequence:
#
# PCOD9372167 Si02
#       6
#    16  16   8  16  16  16
#     4  12  26  47  72 113 146 193 253 306 373 451
#     4  10  24  48  72 101 149 195 239 307 377 447
#     4  12  26  44  78 106 150 200 240 316 374 446
#     4  12  27  45  74 108 146 195 247 312 376 440
#     4  11  23  47  72 107 150 196 247 301 379 448
#     4  11  27  46  72 110 146 195 253 309 365 454
#
# _framework density 22.040915999999999
#
# number of rings (size 3 to 8) (size 9 to 14) (size 15 to 20)
#    0.000    0.727    3.636    2.182    7.636    1.455 
#    0.000    0.000    0.000    0.000    0.000    0.000 
#    0.000    0.000    0.000    0.000    0.000    0.000 
#
# Total GULP energy -122944.429236 kJ/mol
# GULP energy per Si atom -5588.383147 kJ/mol
# Density = 2.199075 g / cm^3
# Si number density = 22.040916 Si / 1000 Ang^3
#
#
#
# Elastic Constant Matrix: (Units=GPa)
#
#
# Indices 1 2 3 4 5 6 
#
# 1 103.7913 19.0168 18.7083 0.0000 0.0000 0.0000
# 2 19.0168 67.4504 18.8291 0.0000 0.0000 0.0000
# 3 18.7083 18.8291 56.5963 0.0000 0.0000 0.0000
# 4 0.0000 0.0000 0.0000 40.1157 0.0000 0.0000
# 5 0.0000 0.0000 0.0000 0.0000 49.1068 0.0000
# 6 0.0000 0.0000 0.0000 0.0000 0.0000 28.4617
#
#
#
# Elastic Compliance Matrix: (Units=1/GPa)
#
#
# Indices 1 2 3 4 5 6 
#
# 1 0.010534 -0.002202 -0.002749 0.000000 0.000000 0.000000
# 2 -0.002202 0.016804 -0.004863 0.000000 0.000000 0.000000
# 3 -0.002749 -0.004863 0.020196 0.000000 0.000000 0.000000
# 4 0.000000 0.000000 0.000000 0.024928 0.000000 0.000000
# 5 0.000000 0.000000 0.000000 0.000000 0.020364 0.000000
# 6 0.000000 0.000000 0.000000 0.000000 0.000000 0.035135
#
#
# Mechanical properties :
#
#
# Convention : Reuss Voigt Hill
#
# Bulk Modulus (GPa) = 35.83601 37.88293 36.85947
# Shear Modulus (GPa) = 31.86945 34.95578 33.41262
#
# Velocity S-wave (km/s) = 3.80665 3.98672 3.89773
# Velocity P-wave (km/s) = 5.96783 6.19813 6.08407
#
# Compressibility (1/GPa) = 0.02790489
#
# Stress axis : x y z
#
# Youngs Moduli (GPa) = 94.93250 59.50948 49.51589
#
# Poissons Ratio (x) = 0.13106 0.13613
# Poissons Ratio (y) = 0.20908 0.24077
# Poissons Ratio (z) = 0.26100 0.28937
#
# Static dielectric constant tensor:
#      x y z
#    x 1.748030 0.000000 0.000000 
#    y 0.000000 -5.712980 0.000000 
#    z 0.000000 0.000000 1.788060 
# 
# From -- ./inp_files/16362.got.cif
#   From: 2010.05.17/outbox.cif.g08.bks.cpg/sg43_9_cif.got.tgz:16362.got - 2010.06.03 19:21:55.
