data_PCOD9372577
_publ_section_title
;
Structure prediction by ZEFSAII (Michael W. Deem and Ramdas Pophale) SiO2 
 PCOD9372577
Probable space group: F D D 2
;
_chemical_formula_sum "Si O2"
_cell_formula_units_Z 64
_cell_length_a 11.855307
_cell_length_b 28.839947
_cell_length_c 7.039624
_cell_angle_alpha 90.000000
_cell_angle_beta 90.000000
_cell_angle_gamma 90.000000
_cell_volume 2406.892679
_symmetry_space_group_name_H-M "F D D 2"
_symmetry_group_IT_number 43
_symmetry_cell_setting 'orthorhombic'
loop_
_space_group_symop_operation_xyz
x,y,z
-x,-y,z
1/4-x,1/4+y,1/4+z
1/4+x,1/4-y,1/4+z
x,1/2+y,1/2+z
-x,1/2-y,1/2+z
1/4-x,3/4+y,3/4+z
1/4+x,3/4-y,3/4+z
1/2+x,y,1/2+z
1/2-x,-y,1/2+z
3/4-x,1/4+y,3/4+z
3/4+x,1/4-y,3/4+z
1/2+x,1/2+y,z
1/2-x,1/2-y,z
3/4-x,3/4+y,1/4+z
3/4+x,3/4-y,1/4+z
loop_
_atom_site_type_symbol
_atom_site_label
_atom_site_fract_x
_atom_site_fract_y
_atom_site_fract_z
Si Si1 0.865040 0.202111 0.438470
Si Si2 0.103738 0.588663 0.791641
Si Si3 0.253118 0.972505 0.527358
Si Si4 0.077772 0.940660 0.003740
O O1 0.974688 0.196976 0.577697
O O2 0.761775 0.196209 0.582375
O O3 0.888187 0.251174 0.329164
O O4 0.854538 0.166537 0.266857
O O5 0.208109 0.561385 0.694181
O O6 0.109870 0.641853 0.730627
O O7 0.995684 0.564800 0.695204
O O8 0.342967 0.014828 0.512301
#
# Coordination Sequence:
#
# PCOD9372577 Si02
#       4
#    16  16  16  16
#     4  11  23  46  73 103 146 190 237 307 367 435
#     4  11  24  45  71 105 150 190 243 307 370 445
#     4  11  24  46  74 107 145 190 252 301 371 449
#     4  11  27  45  72 109 144 194 254 305 369 454
#
# _framework density 26.590302000000001
#
# number of rings (size 3 to 8) (size 9 to 14) (size 15 to 20)
#    0.000    1.000    2.500    4.500    0.000   12.000 
#    0.000    0.000    0.000    0.000    0.000    0.000 
#    0.000    0.000    0.000    0.000    0.000    0.000 
#
# Total GULP energy -89729.964642 kJ/mol
# GULP energy per Si atom -5608.122790 kJ/mol
# Density = 2.652978 g / cm^3
# Si number density = 26.590302 Si / 1000 Ang^3
#
#
#
# Elastic Constant Matrix: (Units=GPa)
#
#
# Indices 1 2 3 4 5 6 
#
# 1 94.1219 40.5081 58.4304 0.0000 0.0000 0.0000
# 2 40.5081 154.0587 49.8650 0.0000 0.0000 0.0000
# 3 58.4304 49.8650 221.2155 0.0000 0.0000 0.0000
# 4 0.0000 0.0000 0.0000 44.5298 0.0000 0.0000
# 5 0.0000 0.0000 0.0000 0.0000 55.0797 0.0000
# 6 0.0000 0.0000 0.0000 0.0000 0.0000 33.8021
#
#
#
# Elastic Compliance Matrix: (Units=1/GPa)
#
#
# Indices 1 2 3 4 5 6 
#
# 1 0.013614 -0.002606 -0.003008 0.000000 0.000000 0.000000
# 2 -0.002606 0.007501 -0.001002 0.000000 0.000000 0.000000
# 3 -0.003008 -0.001002 0.005541 0.000000 0.000000 0.000000
# 4 0.000000 0.000000 0.000000 0.022457 0.000000 0.000000
# 5 0.000000 0.000000 0.000000 0.000000 0.018155 0.000000
# 6 0.000000 0.000000 0.000000 0.000000 0.000000 0.029584
#
#
# Mechanical properties :
#
#
# Convention : Reuss Voigt Hill
#
# Bulk Modulus (GPa) = 74.50477 85.22257 79.86367
# Shear Modulus (GPa) = 43.64559 48.05517 45.85038
#
# Velocity S-wave (km/s) = 4.05583 4.25578 4.15701
# Velocity P-wave (km/s) = 7.07201 7.50125 7.28979
#
# Compressibility (1/GPa) = 0.01342196
#
# Stress axis : x y z
#
# Youngs Moduli (GPa) = 73.45586 133.32132 180.47034
#
# Poissons Ratio (x) = 0.34741 0.54293
# Poissons Ratio (y) = 0.19141 0.18092
# Poissons Ratio (z) = 0.22099 0.13365
#
# Static dielectric constant tensor:
#      x y z
#    x 2.162240 0.000000 0.000000 
#    y 0.000000 2.016960 0.000000 
#    z 0.000000 0.000000 2.107810 
# 
# From -- ./inp_files/2367.got.cif
#   From: 2010.05.17/outbox.cif.g08.bks.cpg/sg43_2_cif.got.tgz:2367.got - 2010.06.03 19:21:55.
