data_PCOD9372165
_publ_section_title
;
Structure prediction by ZEFSAII (Michael W. Deem and Ramdas Pophale) SiO2 
 PCOD9372165
Probable space group: F D D 2
;
_chemical_formula_sum "Si O2"
_cell_formula_units_Z 88
_cell_length_a 33.264139
_cell_length_b 11.184012
_cell_length_c 8.985069
_cell_angle_alpha 90.000000
_cell_angle_beta 90.000000
_cell_angle_gamma 90.000000
_cell_volume 3342.684040
_symmetry_space_group_name_H-M "F D D 2"
_symmetry_group_IT_number 43
_symmetry_cell_setting 'orthorhombic'
loop_
_space_group_symop_operation_xyz
x,y,z
-x,-y,z
1/4-x,1/4+y,1/4+z
1/4+x,1/4-y,1/4+z
x,1/2+y,1/2+z
-x,1/2-y,1/2+z
1/4-x,3/4+y,3/4+z
1/4+x,3/4-y,3/4+z
1/2+x,y,1/2+z
1/2-x,-y,1/2+z
3/4-x,1/4+y,3/4+z
3/4+x,1/4-y,3/4+z
1/2+x,1/2+y,z
1/2-x,1/2-y,z
3/4-x,3/4+y,1/4+z
3/4+x,3/4-y,1/4+z
loop_
_atom_site_type_symbol
_atom_site_label
_atom_site_fract_x
_atom_site_fract_y
_atom_site_fract_z
Si Si1 0.476398 0.300683 0.439390
Si Si2 0.500000 0.000000 0.702364
Si Si3 0.420588 0.931145 0.564209
Si Si4 0.123257 0.928567 0.558989
Si Si5 0.046794 0.313623 0.175326
Si Si6 0.884654 0.337883 0.011983
O O1 0.494837 0.390023 0.315593
O O2 0.508707 0.300189 0.568477
O O3 0.468531 0.181165 0.343669
O O4 0.432918 0.339028 0.498757
O O5 0.460723 0.005062 0.600573
O O6 0.407686 0.891132 0.400439
O O7 0.428362 0.808868 0.653747
O O8 0.385224 0.003474 0.640460
O O9 0.078377 0.910748 0.622821
O O10 0.119873 0.824851 0.404079
O O11 0.127543 0.021436 0.414929
#
# Coordination Sequence:
#
# PCOD9372165 Si02
#       6
#    16   8  16  16  16  16
#     4  11  24  44  73 108 147 205 247 330 399 471
#     4  10  24  48  70  96 158 202 248 326 412 456
#     4  11  25  48  72 111 149 206 257 321 397 470
#     4  12  25  45  75 110 146 206 264 321 388 489
#     4  11  24  48  70 112 151 194 264 315 397 478
#     4  12  26  45  80 105 156 202 259 327 401 469
#
# _framework density 26.326149000000001
#
# number of rings (size 3 to 8) (size 9 to 14) (size 15 to 20)
#    0.000    0.727    3.636    4.364    2.545    1.455 
#    6.545    0.909    0.000    0.000    0.000    0.000 
#    0.000    0.000    0.000    0.000    0.000    0.000 
#
# Total GULP energy -122939.014200 kJ/mol
# GULP energy per Si atom -5588.137009 kJ/mol
# Density = 2.626623 g / cm^3
# Si number density = 26.326149 Si / 1000 Ang^3
#
#
#
# Elastic Constant Matrix: (Units=GPa)
#
#
# Indices 1 2 3 4 5 6 
#
# 1 168.3999 52.2003 49.4490 0.0000 0.0000 0.0000
# 2 52.2003 137.2770 58.4913 0.0000 0.0000 0.0000
# 3 49.4490 58.4913 155.6676 0.0000 0.0000 0.0000
# 4 0.0000 0.0000 0.0000 53.5252 0.0000 0.0000
# 5 0.0000 0.0000 0.0000 0.0000 52.3696 0.0000
# 6 0.0000 0.0000 0.0000 0.0000 0.0000 26.6623
#
#
#
# Elastic Compliance Matrix: (Units=1/GPa)
#
#
# Indices 1 2 3 4 5 6 
#
# 1 0.006998 -0.002041 -0.001456 0.000000 0.000000 0.000000
# 2 -0.002041 0.009268 -0.002834 0.000000 0.000000 0.000000
# 3 -0.001456 -0.002834 0.007952 0.000000 0.000000 0.000000
# 4 0.000000 0.000000 0.000000 0.018683 0.000000 0.000000
# 5 0.000000 0.000000 0.000000 0.000000 0.019095 0.000000
# 6 0.000000 0.000000 0.000000 0.000000 0.000000 0.037506
#
#
# Mechanical properties :
#
#
# Convention : Reuss Voigt Hill
#
# Bulk Modulus (GPa) = 86.53794 86.84728 86.69261
# Shear Modulus (GPa) = 43.09734 46.59167 44.84451
#
# Velocity S-wave (km/s) = 4.05044 4.21145 4.13173
# Velocity P-wave (km/s) = 7.40389 7.53054 7.46748
#
# Compressibility (1/GPa) = 0.01155563
#
# Stress axis : x y z
#
# Youngs Moduli (GPa) = 142.88874 107.89663 125.76235
#
# Poissons Ratio (x) = 0.22018 0.18315
# Poissons Ratio (y) = 0.29159 0.35644
# Poissons Ratio (z) = 0.20809 0.30580
#
# Static dielectric constant tensor:
#      x y z
#    x 1.990540 0.000000 0.000000 
#    y 0.000000 3.210680 0.000000 
#    z 0.000000 0.000000 2.613940 
# 
# From -- ./inp_files/8232.got.cif
#   From: 2010.05.17/outbox.cif.g08.bks.cpg/sg43_5_cif.got.tgz:8232.got - 2010.06.03 19:21:55.
