data_PCOD9372722
_publ_section_title
;
Structure prediction by ZEFSAII (Michael W. Deem and Ramdas Pophale) SiO2 
 PCOD9372722
Probable space group: F D D 2
;
_chemical_formula_sum "Si O2"
_cell_formula_units_Z 80
_cell_length_a 31.557736
_cell_length_b 14.529357
_cell_length_c 7.514179
_cell_angle_alpha 90.000000
_cell_angle_beta 90.000000
_cell_angle_gamma 90.000000
_cell_volume 3445.353358
_symmetry_space_group_name_H-M "F D D 2"
_symmetry_group_IT_number 43
_symmetry_cell_setting 'orthorhombic'
loop_
_space_group_symop_operation_xyz
x,y,z
-x,-y,z
1/4-x,1/4+y,1/4+z
1/4+x,1/4-y,1/4+z
x,1/2+y,1/2+z
-x,1/2-y,1/2+z
1/4-x,3/4+y,3/4+z
1/4+x,3/4-y,3/4+z
1/2+x,y,1/2+z
1/2-x,-y,1/2+z
3/4-x,1/4+y,3/4+z
3/4+x,1/4-y,3/4+z
1/2+x,1/2+y,z
1/2-x,1/2-y,z
3/4-x,3/4+y,1/4+z
3/4+x,3/4-y,1/4+z
loop_
_atom_site_type_symbol
_atom_site_label
_atom_site_fract_x
_atom_site_fract_y
_atom_site_fract_z
Si Si1 0.885506 0.736262 0.901040
Si Si2 0.956131 0.534124 0.310271
Si Si3 0.373124 0.795257 0.055978
Si Si4 0.459855 0.946380 0.707836
Si Si5 0.059980 0.756510 0.756478
O O1 0.837656 0.759138 0.962679
O O2 0.916745 0.477116 0.803867
O O3 0.894352 0.647333 0.777918
O O4 0.915376 0.734162 0.069844
O O5 0.954279 0.484572 0.504791
O O6 0.959521 0.645561 0.311428
O O7 0.000000 0.500000 0.225132
O O8 0.283284 0.587142 0.979747
O O9 0.405586 0.765361 0.907609
O O10 0.500000 0.000000 0.782169
O O11 0.144328 0.937932 0.499704
#
# Coordination Sequence:
#
# PCOD9372722 Si02
#       5
#    16  16  16  16  16
#     4  12  23  43  76 105 136 187 244 290 356 432
#     4  11  25  48  70 105 148 186 238 298 363 429
#     4  12  23  43  76 105 136 187 244 290 356 432
#     4  11  25  48  70 105 148 186 238 298 363 429
#     4  12  24  50  75 100 148 192 230 310 357 418
#
# _framework density 23.21968
#
# number of rings (size 3 to 8) (size 9 to 14) (size 15 to 20)
#    0.000    0.400    6.000    3.600    0.000    0.800 
#   18.000    0.000    0.000    0.000    0.000    0.000 
#    0.000    0.000    0.000    0.000    0.000    0.000 
#
# Total GULP energy -111679.142601 kJ/mol
# GULP energy per Si atom -5583.957130 kJ/mol
# Density = 2.316683 g / cm^3
# Si number density = 23.219680 Si / 1000 Ang^3
#
#
#
# Elastic Constant Matrix: (Units=GPa)
#
#
# Indices 1 2 3 4 5 6 
#
# 1 30.9402 38.6253 6.4724 0.0000 0.0000 0.0000
# 2 38.6253 187.4194 -3.9254 0.0000 0.0000 0.0000
# 3 6.4724 -3.9254 103.5115 0.0000 0.0000 0.0000
# 4 0.0000 0.0000 0.0000 35.6320 0.0000 0.0000
# 5 0.0000 0.0000 0.0000 0.0000 -40.4798 0.0000
# 6 0.0000 0.0000 0.0000 0.0000 0.0000 35.0342
#
#
#
# Elastic Compliance Matrix: (Units=1/GPa)
#
#
# Indices 1 2 3 4 5 6 
#
# 1 0.044509 -0.009239 -0.003133 0.000000 0.000000 0.000000
# 2 -0.009239 0.007257 0.000853 0.000000 0.000000 0.000000
# 3 -0.003133 0.000853 0.009889 0.000000 0.000000 0.000000
# 4 0.000000 0.000000 0.000000 0.028065 0.000000 0.000000
# 5 0.000000 0.000000 0.000000 0.000000 -0.024704 0.000000
# 6 0.000000 0.000000 0.000000 0.000000 0.000000 0.028544
#
#
# Mechanical properties :
#
#
# Convention : Reuss Voigt Hill
#
# Bulk Modulus (GPa) = 25.89495 44.91284 35.40389
# Shear Modulus (GPa) = 38.61869 24.75053 31.68461
#
# Velocity S-wave (km/s) = 4.08264 3.26840 3.69800
# Velocity P-wave (km/s) = 5.77930 5.79895 5.78913
#
# Compressibility (1/GPa) = 0.03861758
#
# Stress axis : x y z
#
# Youngs Moduli (GPa) = 22.46724 137.78909 101.12208
#
# Poissons Ratio (x) = 1.27297 0.31686
# Poissons Ratio (y) = 0.20756 -0.08625
# Poissons Ratio (z) = 0.07040 -0.11752
#
# Static dielectric constant tensor:
#      x y z
#    x 1.870010 0.000000 0.000000 
#    y 0.000000 1.983030 0.000000 
#    z 0.000000 0.000000 1.926000 
# 
# From -- ./inp_files/4665.got.cif
#   From: 2010.05.17/outbox.cif.g08.bks.cpg/sg43_3_cif.got.tgz:4665.got - 2010.06.03 19:21:55.
