data_PCOD9372095
_publ_section_title
;
Structure prediction by ZEFSAII (Michael W. Deem and Ramdas Pophale) SiO2 
 PCOD9372095
Probable space group: F D D 2
;
_chemical_formula_sum "Si O2"
_cell_formula_units_Z 112
_cell_length_a 12.411481
_cell_length_b 15.024006
_cell_length_c 27.532154
_cell_angle_alpha 90.000000
_cell_angle_beta 90.000000
_cell_angle_gamma 90.000000
_cell_volume 5133.925300
_symmetry_space_group_name_H-M "F D D 2"
_symmetry_group_IT_number 43
_symmetry_cell_setting 'orthorhombic'
loop_
_space_group_symop_operation_xyz
x,y,z
-x,-y,z
1/4-x,1/4+y,1/4+z
1/4+x,1/4-y,1/4+z
x,1/2+y,1/2+z
-x,1/2-y,1/2+z
1/4-x,3/4+y,3/4+z
1/4+x,3/4-y,3/4+z
1/2+x,y,1/2+z
1/2-x,-y,1/2+z
3/4-x,1/4+y,3/4+z
3/4+x,1/4-y,3/4+z
1/2+x,1/2+y,z
1/2-x,1/2-y,z
3/4-x,3/4+y,1/4+z
3/4+x,3/4-y,1/4+z
loop_
_atom_site_type_symbol
_atom_site_label
_atom_site_fract_x
_atom_site_fract_y
_atom_site_fract_z
Si Si1 0.911712 0.423945 0.191440
Si Si2 0.050761 0.598458 0.770406
Si Si3 0.949217 0.749828 0.197086
Si Si4 0.710835 0.840555 0.270898
Si Si5 0.090394 0.792333 0.332160
Si Si6 0.806533 0.376850 0.291985
Si Si7 0.382295 0.539005 0.847282
O O1 0.862805 0.455234 0.139921
O O2 0.833347 0.408054 0.237379
O O3 0.000000 0.500000 0.205058
O O4 0.967333 0.327657 0.183873
O O5 0.008183 0.673851 0.732906
O O6 0.180601 0.601869 0.763251
O O7 0.000000 0.500000 0.766129
O O8 0.012682 0.646607 0.820216
O O9 0.852723 0.694287 0.223505
O O10 0.905953 0.804655 0.151426
O O11 0.750000 0.750000 0.295519
O O12 0.629713 0.885522 0.307680
O O13 0.101726 0.691751 0.311813
O O14 0.190455 0.835369 0.302429
O O15 0.808508 0.461146 0.326521
O O16 0.500000 0.500000 0.848752
#
# Coordination Sequence:
#
# PCOD9372095 Si02
#       7
#    16  16  16  16  16  16  16
#     4  12  22  42  72 103 138 186 234 298 369 411
#     4  11  24  44  70  94 145 189 229 285 358 433
#     4  11  23  45  69  98 140 181 235 294 346 423
#     4  10  24  45  67  99 143 183 230 293 357 424
#     4  11  23  44  65  99 145 178 230 299 348 435
#     4  11  22  40  67 102 135 174 231 292 356 421
#     4  12  23  39  71 101 131 176 237 285 346 414
#
# _framework density 21.815666
#
# number of rings (size 3 to 8) (size 9 to 14) (size 15 to 20)
#    0.000    0.857    4.286    4.286    2.000    0.571 
#    5.143    1.429    0.000    0.000    0.000    0.000 
#    0.000    0.000    0.000    0.000    0.000    0.000 
#
# Total GULP energy -156285.508619 kJ/mol
# GULP energy per Si atom -5581.625308 kJ/mol
# Density = 2.176601 g / cm^3
# Si number density = 21.815666 Si / 1000 Ang^3
#
#
#
# Elastic Constant Matrix: (Units=GPa)
#
#
# Indices 1 2 3 4 5 6 
#
# 1 39.5187 -1.3808 17.7180 0.0000 0.0000 0.0000
# 2 -1.3808 76.2799 14.8052 0.0000 0.0000 0.0000
# 3 17.7180 14.8052 132.8346 0.0000 0.0000 0.0000
# 4 0.0000 0.0000 0.0000 47.3470 0.0000 0.0000
# 5 0.0000 0.0000 0.0000 0.0000 37.2442 0.0000
# 6 0.0000 0.0000 0.0000 0.0000 0.0000 19.2301
#
#
#
# Elastic Compliance Matrix: (Units=1/GPa)
#
#
# Indices 1 2 3 4 5 6 
#
# 1 0.027024 0.001215 -0.003740 0.000000 0.000000 0.000000
# 2 0.001215 0.013454 -0.001662 0.000000 0.000000 0.000000
# 3 -0.003740 -0.001662 0.008212 0.000000 0.000000 0.000000
# 4 0.000000 0.000000 0.000000 0.021121 0.000000 0.000000
# 5 0.000000 0.000000 0.000000 0.000000 0.026850 0.000000
# 6 0.000000 0.000000 0.000000 0.000000 0.000000 0.052002
#
#
# Mechanical properties :
#
#
# Convention : Reuss Voigt Hill
#
# Bulk Modulus (GPa) = 24.80344 34.54646 29.67495
# Shear Modulus (GPa) = 29.32992 35.26363 32.29678
#
# Velocity S-wave (km/s) = 3.67064 4.02485 3.85182
# Velocity P-wave (km/s) = 5.41840 6.12121 5.78050
#
# Compressibility (1/GPa) = 0.04031699
#
# Stress axis : x y z
#
# Youngs Moduli (GPa) = 37.00457 74.32676 121.76999
#
# Poissons Ratio (x) = -0.09031 0.45541
# Poissons Ratio (y) = -0.04496 0.20233
# Poissons Ratio (z) = 0.13840 0.12350
#
# Static dielectric constant tensor:
#      x y z
#    x 1.893620 0.000000 0.000000 
#    y 0.000000 1.755360 0.000000 
#    z 0.000000 0.000000 1.806100 
# 
# From -- ./inp_files/25620.got.cif
#   From: 2010.05.17/outbox.cif.g08.bks.cpg/sg43_13_cif.got.tgz:25620.got - 2010.06.03 19:21:55.
