data_PCOD9372676
_publ_section_title
;
Structure prediction by ZEFSAII (Michael W. Deem and Ramdas Pophale) SiO2 
 PCOD9372676
Probable space group: F D D 2
;
_chemical_formula_sum "Si O2"
_cell_formula_units_Z 88
_cell_length_a 20.755297
_cell_length_b 16.268840
_cell_length_c 11.777419
_cell_angle_alpha 90.000000
_cell_angle_beta 90.000000
_cell_angle_gamma 90.000000
_cell_volume 3976.817547
_symmetry_space_group_name_H-M "F D D 2"
_symmetry_group_IT_number 43
_symmetry_cell_setting 'orthorhombic'
loop_
_space_group_symop_operation_xyz
x,y,z
-x,-y,z
1/4-x,1/4+y,1/4+z
1/4+x,1/4-y,1/4+z
x,1/2+y,1/2+z
-x,1/2-y,1/2+z
1/4-x,3/4+y,3/4+z
1/4+x,3/4-y,3/4+z
1/2+x,y,1/2+z
1/2-x,-y,1/2+z
3/4-x,1/4+y,3/4+z
3/4+x,1/4-y,3/4+z
1/2+x,1/2+y,z
1/2-x,1/2-y,z
3/4-x,3/4+y,1/4+z
3/4+x,3/4-y,1/4+z
loop_
_atom_site_type_symbol
_atom_site_label
_atom_site_fract_x
_atom_site_fract_y
_atom_site_fract_z
Si Si1 0.883050 0.307731 0.489750
Si Si2 0.500000 0.000000 0.752487
Si Si3 0.607942 0.733048 0.577220
Si Si4 0.675026 0.368538 0.520022
Si Si5 0.007078 0.674236 0.649187
Si Si6 0.557273 0.795246 0.337119
O O1 0.879681 0.330278 0.357003
O O2 0.842252 0.227480 0.522241
O O3 0.955864 0.295647 0.536125
O O4 0.862256 0.390556 0.553155
O O5 0.565287 0.989566 0.824603
O O6 0.509133 0.078829 0.673540
O O7 0.585908 0.650680 0.642199
O O8 0.567964 0.801223 0.647675
O O9 0.580905 0.750476 0.451302
O O10 0.744843 0.394919 0.567712
O O11 0.043285 0.722955 0.748351
#
# Coordination Sequence:
#
# PCOD9372676 Si02
#       6
#    16   8  16  16  16  16
#     4  12  23  49  74 109 153 192 249 302 380 446
#     4  12  28  44  74 106 144 198 248 304 374 438
#     4  11  27  47  73 105 150 193 252 307 373 444
#     4  11  27  45  73 111 150 202 239 311 376 443
#     4  11  26  45  72 108 145 192 249 311 360 447
#     4  11  24  48  76 103 149 195 253 303 366 448
#
# _framework density 22.128247000000002
#
# number of rings (size 3 to 8) (size 9 to 14) (size 15 to 20)
#    0.000    0.727    5.455    0.545    7.636    1.455 
#    3.273    0.000    0.000    0.000    0.000    0.000 
#    0.000    0.000    0.000    0.000    0.000    0.000 
#
# Total GULP energy -122736.604712 kJ/mol
# GULP energy per Si atom -5578.936578 kJ/mol
# Density = 2.207788 g / cm^3
# Si number density = 22.128247 Si / 1000 Ang^3
#
#
#
# Elastic Constant Matrix: (Units=GPa)
#
#
# Indices 1 2 3 4 5 6 
#
# 1 121.2144 37.2429 45.1172 0.0000 0.0000 0.0000
# 2 37.2429 125.7329 31.0451 0.0000 0.0000 0.0000
# 3 45.1172 31.0451 98.0478 0.0000 0.0000 0.0000
# 4 0.0000 0.0000 0.0000 16.0406 0.0000 0.0000
# 5 0.0000 0.0000 0.0000 0.0000 29.3488 0.0000
# 6 0.0000 0.0000 0.0000 0.0000 0.0000 6.2176
#
#
#
# Elastic Compliance Matrix: (Units=1/GPa)
#
#
# Indices 1 2 3 4 5 6 
#
# 1 0.010427 -0.002065 -0.004144 0.000000 0.000000 0.000000
# 2 -0.002065 0.009037 -0.001911 0.000000 0.000000 0.000000
# 3 -0.004144 -0.001911 0.012711 0.000000 0.000000 0.000000
# 4 0.000000 0.000000 0.000000 0.062342 0.000000 0.000000
# 5 0.000000 0.000000 0.000000 0.000000 0.034073 0.000000
# 6 0.000000 0.000000 0.000000 0.000000 0.000000 0.160835
#
#
# Mechanical properties :
#
#
# Convention : Reuss Voigt Hill
#
# Bulk Modulus (GPa) = 62.75808 63.53395 63.14602
# Shear Modulus (GPa) = 16.07838 25.76071 20.91954
#
# Velocity S-wave (km/s) = 2.69848 3.41567 3.07803
# Velocity P-wave (km/s) = 6.17508 6.65806 6.42112
#
# Compressibility (1/GPa) = 0.01593420
#
# Stress axis : x y z
#
# Youngs Moduli (GPa) = 95.90621 110.65639 78.67139
#
# Poissons Ratio (x) = 0.22854 0.32602
# Poissons Ratio (y) = 0.19807 0.15034
# Poissons Ratio (z) = 0.39744 0.21147
#
# Static dielectric constant tensor:
#      x y z
#    x 1.897110 0.000000 0.000000 
#    y 0.000000 1.762520 0.000000 
#    z 0.000000 0.000000 1.843120 
# 
# From -- ./inp_files/6130.got.cif
#   From: 2010.05.17/outbox.cif.g08.bks.cpg/sg43_4_cif.got.tgz:6130.got - 2010.06.03 19:21:55.
