data_PCOD9372403
_publ_section_title
;
Structure prediction by ZEFSAII (Michael W. Deem and Ramdas Pophale) SiO2 
 PCOD9372403
Probable space group: F D D 2
;
_chemical_formula_sum "Si O2"
_cell_formula_units_Z 96
_cell_length_a 28.602030
_cell_length_b 17.068900
_cell_length_c 8.431842
_cell_angle_alpha 90.000000
_cell_angle_beta 90.000000
_cell_angle_gamma 90.000000
_cell_volume 4116.469025
_symmetry_space_group_name_H-M "F D D 2"
_symmetry_group_IT_number 43
_symmetry_cell_setting 'orthorhombic'
loop_
_space_group_symop_operation_xyz
x,y,z
-x,-y,z
1/4-x,1/4+y,1/4+z
1/4+x,1/4-y,1/4+z
x,1/2+y,1/2+z
-x,1/2-y,1/2+z
1/4-x,3/4+y,3/4+z
1/4+x,3/4-y,3/4+z
1/2+x,y,1/2+z
1/2-x,-y,1/2+z
3/4-x,1/4+y,3/4+z
3/4+x,1/4-y,3/4+z
1/2+x,1/2+y,z
1/2-x,1/2-y,z
3/4-x,3/4+y,1/4+z
3/4+x,3/4-y,1/4+z
loop_
_atom_site_type_symbol
_atom_site_label
_atom_site_fract_x
_atom_site_fract_y
_atom_site_fract_z
Si Si1 0.404392 0.448439 0.119160
Si Si2 0.298277 0.778682 0.609383
Si Si3 0.302170 0.779537 0.146901
Si Si4 0.878481 0.796177 0.913098
Si Si5 0.947428 0.710511 0.279515
Si Si6 0.963845 0.699727 0.897890
O O1 0.420320 0.461945 0.299895
O O2 0.354122 0.487862 0.083202
O O3 0.445878 0.494911 0.032860
O O4 0.397994 0.364730 0.029891
O O5 0.250000 0.750000 0.538634
O O6 0.344928 0.744141 0.526239
O O7 0.299009 0.871835 0.596069
O O8 0.250000 0.750000 0.193346
O O9 0.339298 0.809971 0.279605
O O10 0.291167 0.864290 0.070795
O O11 0.922256 0.754555 0.836105
O O12 0.986636 0.764415 0.354482
O O13 0.956276 0.704673 0.089910
#
# Coordination Sequence:
#
# PCOD9372403 Si02
#       6
#    16  16  16  16  16  16
#     4  11  25  47  73 105 144 196 248 309 374 453
#     4  11  21  43  71  97 137 186 235 301 374 435
#     4  12  28  47  76 113 148 196 257 313 383 464
#     4  11  24  48  69 104 149 191 249 313 377 451
#     4  11  27  43  70 104 145 189 246 305 375 450
#     4  12  27  46  70 109 147 196 251 313 381 453
#
# _framework density 23.320958000000001
#
# number of rings (size 3 to 8) (size 9 to 14) (size 15 to 20)
#    0.000    0.667    5.000    2.000    7.000    2.667 
#    0.000    0.000    0.000    0.000    0.000    0.000 
#    0.000    0.000    0.000    0.000    0.000    0.000 
#
# Total GULP energy -133753.366214 kJ/mol
# GULP energy per Si atom -5573.056926 kJ/mol
# Density = 2.326788 g / cm^3
# Si number density = 23.320958 Si / 1000 Ang^3
#
#
#
# Elastic Constant Matrix: (Units=GPa)
#
#
# Indices 1 2 3 4 5 6 
#
# 1 185.2795 58.6080 26.3977 0.0000 0.0000 0.0000
# 2 58.6080 90.1099 19.6063 0.0000 0.0000 0.0000
# 3 26.3977 19.6063 63.2595 0.0000 0.0000 0.0000
# 4 0.0000 0.0000 0.0000 36.2555 0.0000 0.0000
# 5 0.0000 0.0000 0.0000 0.0000 26.4907 0.0000
# 6 0.0000 0.0000 0.0000 0.0000 0.0000 39.5240
#
#
#
# Elastic Compliance Matrix: (Units=1/GPa)
#
#
# Indices 1 2 3 4 5 6 
#
# 1 0.006944 -0.004167 -0.001606 0.000000 0.000000 0.000000
# 2 -0.004167 0.014401 -0.002724 0.000000 0.000000 0.000000
# 3 -0.001606 -0.002724 0.017323 0.000000 0.000000 0.000000
# 4 0.000000 0.000000 0.000000 0.027582 0.000000 0.000000
# 5 0.000000 0.000000 0.000000 0.000000 0.037749 0.000000
# 6 0.000000 0.000000 0.000000 0.000000 0.000000 0.025301
#
#
# Mechanical properties :
#
#
# Convention : Reuss Voigt Hill
#
# Bulk Modulus (GPa) = 46.14243 60.87478 53.50860
# Shear Modulus (GPa) = 32.56927 36.05651 34.31289
#
# Velocity S-wave (km/s) = 3.74112 3.93631 3.83996
# Velocity P-wave (km/s) = 6.20404 6.84245 6.53105
#
# Compressibility (1/GPa) = 0.02167203
#
# Stress axis : x y z
#
# Youngs Moduli (GPa) = 144.00415 69.44142 57.72823
#
# Poissons Ratio (x) = 0.28937 0.09273
# Poissons Ratio (y) = 0.60008 0.15727
# Poissons Ratio (z) = 0.23131 0.18918
#
# Static dielectric constant tensor:
#      x y z
#    x 1.859680 0.000000 0.000000 
#    y 0.000000 1.836490 0.000000 
#    z 0.000000 0.000000 2.012800 
# 
# From -- ./inp_files/4210.got.cif
#   From: 2010.05.17/outbox.cif.g08.bks.cpg/sg43_3_cif.got.tgz:4210.got - 2010.06.03 19:21:55.
