data_PCOD9372251
_publ_section_title
;
Structure prediction by ZEFSAII (Michael W. Deem and Ramdas Pophale) SiO2 
 PCOD9372251
Probable space group: F D D 2
;
_chemical_formula_sum "Si O2"
_cell_formula_units_Z 48
_cell_length_a 18.637770
_cell_length_b 6.712170
_cell_length_c 17.181178
_cell_angle_alpha 90.000000
_cell_angle_beta 90.000000
_cell_angle_gamma 90.000000
_cell_volume 2149.363317
_symmetry_space_group_name_H-M "F D D 2"
_symmetry_group_IT_number 43
_symmetry_cell_setting 'orthorhombic'
loop_
_space_group_symop_operation_xyz
x,y,z
-x,-y,z
1/4-x,1/4+y,1/4+z
1/4+x,1/4-y,1/4+z
x,1/2+y,1/2+z
-x,1/2-y,1/2+z
1/4-x,3/4+y,3/4+z
1/4+x,3/4-y,3/4+z
1/2+x,y,1/2+z
1/2-x,-y,1/2+z
3/4-x,1/4+y,3/4+z
3/4+x,1/4-y,3/4+z
1/2+x,1/2+y,z
1/2-x,1/2-y,z
3/4-x,3/4+y,1/4+z
3/4+x,3/4-y,1/4+z
loop_
_atom_site_type_symbol
_atom_site_label
_atom_site_fract_x
_atom_site_fract_y
_atom_site_fract_z
Si Si1 0.750000 0.250000 0.236001
Si Si2 0.750000 0.250000 0.976168
Si Si3 0.030096 0.783780 0.848399
Si Si4 0.936232 0.359462 0.572685
O O1 0.711648 0.400236 0.175556
O O2 0.799541 0.389416 0.289945
O O3 0.772567 0.420823 0.037409
O O4 0.802305 0.139591 0.915440
O O5 0.107127 0.811341 0.808035
O O6 0.000000 0.000000 0.866122
O O7 0.000000 0.500000 0.540710
#
# Coordination Sequence:
#
# PCOD9372251 Si02
#       4
#     8   8  16  16
#     4  11  26  44  72 101 136 182 228 283 344 414
#     4   9  26  44  68 103 132 178 230 283 346 406
#     4  11  26  46  70 100 140 182 230 286 344 412
#     4  10  26  42  71 103 137 180 229 282 346 408
#
# _framework density 22.332194000000001
#
# number of rings (size 3 to 8) (size 9 to 14) (size 15 to 20)
#    1.000    0.667    0.000    1.000   16.333    2.667 
#    0.000    0.000    0.000    0.000    0.000    0.000 
#    0.000    0.000    0.000    0.000    0.000    0.000 
#
# Total GULP energy -66803.790829 kJ/mol
# GULP energy per Si atom -5566.982569 kJ/mol
# Density = 2.228136 g / cm^3
# Si number density = 22.332194 Si / 1000 Ang^3
#
#
#
# Elastic Constant Matrix: (Units=GPa)
#
#
# Indices 1 2 3 4 5 6 
#
# 1 91.9387 49.5605 32.7124 -0.0001 0.0000 0.0000
# 2 49.5605 172.8069 82.1082 0.0001 0.0000 0.0000
# 3 32.7124 82.1082 147.3138 0.0001 0.0000 0.0000
# 4 -0.0001 0.0001 0.0001 457.5696 -0.0001 0.0000
# 5 0.0000 0.0000 0.0000 -0.0001 6.9959 0.0000
# 6 0.0000 0.0000 0.0000 0.0000 0.0000 21.6207
#
#
#
# Elastic Compliance Matrix: (Units=1/GPa)
#
#
# Indices 1 2 3 4 5 6 
#
# 1 0.012996 -0.003205 -0.001100 0.000000 0.000000 0.000000
# 2 -0.003205 0.008662 -0.004116 0.000000 0.000000 0.000000
# 3 -0.001100 -0.004116 0.009327 0.000000 0.000000 0.000000
# 4 0.000000 0.000000 0.000000 0.002185 0.000000 0.000000
# 5 0.000000 0.000000 0.000000 0.000000 0.142941 0.000000
# 6 0.000000 0.000000 0.000000 0.000000 0.000000 0.046252
#
#
# Mechanical properties :
#
#
# Convention : Reuss Voigt Hill
#
# Bulk Modulus (GPa) = 70.70595 82.31351 76.50973
# Shear Modulus (GPa) = 20.49871 113.74911 67.12391
#
# Velocity S-wave (km/s) = 3.03297 7.14462 5.48838
# Velocity P-wave (km/s) = 6.63287 10.24693 8.63118
#
# Compressibility (1/GPa) = 0.01414308
#
# Stress axis : x y z
#
# Youngs Moduli (GPa) = 76.94953 115.45180 107.22003
#
# Poissons Ratio (x) = 0.36998 0.11790
# Poissons Ratio (y) = 0.24659 0.44133
# Poissons Ratio (z) = 0.08462 0.47521
#
# Static dielectric constant tensor:
#      x y z
#    x 1.826320 0.000000 0.000000 
#    y 0.000000 1.824700 0.000000 
#    z 0.000000 0.000000 1.835790 
# 
# From -- ./inp_files/12019.got.cif
#   From: 2010.05.17/outbox.cif.g08.bks.cpg/sg43_7_cif.got.tgz:12019.got - 2010.06.03 19:21:55.
