data_PCOD9372877
_publ_section_title
;
Structure prediction by ZEFSAII (Michael W. Deem and Ramdas Pophale) SiO2 
 PCOD9372877
Probable space group: F D D 2
;
_chemical_formula_sum "Si O2"
_cell_formula_units_Z 96
_cell_length_a 11.163828
_cell_length_b 20.794405
_cell_length_c 16.108712
_cell_angle_alpha 90.000000
_cell_angle_beta 90.000000
_cell_angle_gamma 90.000000
_cell_volume 3739.559537
_symmetry_space_group_name_H-M "F D D 2"
_symmetry_group_IT_number 43
_symmetry_cell_setting 'orthorhombic'
loop_
_space_group_symop_operation_xyz
x,y,z
-x,-y,z
1/4-x,1/4+y,1/4+z
1/4+x,1/4-y,1/4+z
x,1/2+y,1/2+z
-x,1/2-y,1/2+z
1/4-x,3/4+y,3/4+z
1/4+x,3/4-y,3/4+z
1/2+x,y,1/2+z
1/2-x,-y,1/2+z
3/4-x,1/4+y,3/4+z
3/4+x,1/4-y,3/4+z
1/2+x,1/2+y,z
1/2-x,1/2-y,z
3/4-x,3/4+y,1/4+z
3/4+x,3/4-y,1/4+z
loop_
_atom_site_type_symbol
_atom_site_label
_atom_site_fract_x
_atom_site_fract_y
_atom_site_fract_z
Si Si1 0.285033 0.357885 0.062380
Si Si2 0.863653 0.496115 0.625867
Si Si3 0.965856 0.151465 0.629717
Si Si4 0.029160 0.133248 0.292576
Si Si5 0.781981 0.174061 0.217327
Si Si6 0.232214 0.524593 0.790494
O O1 0.333003 0.426233 0.093171
O O2 0.177562 0.336161 0.121947
O O3 0.394452 0.309124 0.059081
O O4 0.250305 0.370605 0.966806
O O5 0.845799 0.549496 0.555994
O O6 0.773023 0.510026 0.701384
O O7 0.000000 0.500000 0.655334
O O8 0.030029 0.218717 0.608015
O O9 0.982770 0.101650 0.554493
O O10 0.984681 0.109827 0.383565
O O11 0.127036 0.077199 0.278446
O O12 0.922439 0.149664 0.227993
O O13 0.750000 0.250000 0.213693
#
# Coordination Sequence:
#
# PCOD9372877 Si02
#       6
#    16  16  16  16  16  16
#     4  12  27  50  78 113 161 210 267 330 408 483
#     4  12  25  50  76 113 156 206 264 330 404 482
#     4  12  28  47  78 115 158 210 265 331 404 487
#     4  12  28  49  80 114 153 205 259 330 400 476
#     4  12  29  49  78 112 154 205 265 323 400 481
#     4  12  28  48  79 114 157 202 265 332 407 481
#
# _framework density 25.671474
#
# number of rings (size 3 to 8) (size 9 to 14) (size 15 to 20)
#    0.000    0.000    5.000    3.500    7.000    1.333 
#    0.000    0.000    0.000    0.000    0.000    0.000 
#    0.000    0.000    0.000    0.000    0.000    0.000 
#
# Total GULP energy -134460.517415 kJ/mol
# GULP energy per Si atom -5602.521559 kJ/mol
# Density = 2.561304 g / cm^3
# Si number density = 25.671474 Si / 1000 Ang^3
#
#
#
# Elastic Constant Matrix: (Units=GPa)
#
#
# Indices 1 2 3 4 5 6 
#
# 1 91.2309 19.6835 -19.6255 0.0000 0.0000 0.0000
# 2 19.6835 147.7644 -3.7272 0.0000 0.0000 0.0000
# 3 -19.6255 -3.7272 65.4298 0.0000 0.0000 0.0000
# 4 0.0000 0.0000 0.0000 32.0403 0.0000 0.0000
# 5 0.0000 0.0000 0.0000 0.0000 58.4121 0.0000
# 6 0.0000 0.0000 0.0000 0.0000 0.0000 44.0114
#
#
#
# Elastic Compliance Matrix: (Units=1/GPa)
#
#
# Indices 1 2 3 4 5 6 
#
# 1 0.012047 -0.001516 0.003527 0.000000 0.000000 0.000000
# 2 -0.001516 0.006968 -0.000058 0.000000 0.000000 0.000000
# 3 0.003527 -0.000058 0.016338 0.000000 0.000000 0.000000
# 4 0.000000 0.000000 0.000000 0.031211 0.000000 0.000000
# 5 0.000000 0.000000 0.000000 0.000000 0.017120 0.000000
# 6 0.000000 0.000000 0.000000 0.000000 0.000000 0.022721
#
#
# Mechanical properties :
#
#
# Convention : Reuss Voigt Hill
#
# Bulk Modulus (GPa) = 25.47095 33.00962 29.24029
# Shear Modulus (GPa) = 43.25836 47.43238 45.34537
#
# Velocity S-wave (km/s) = 4.10942 4.30312 4.20738
# Velocity P-wave (km/s) = 5.69736 6.12988 5.91757
#
# Compressibility (1/GPa) = 0.03926041
#
# Stress axis : x y z
#
# Youngs Moduli (GPa) = 83.00826 143.51335 61.20615
#
# Poissons Ratio (x) = 0.21754 -0.21588
# Poissons Ratio (y) = 0.12582 0.00353
# Poissons Ratio (z) = -0.29278 0.00829
#
# Static dielectric constant tensor:
#      x y z
#    x 2.132480 0.000000 0.000000 
#    y 0.000000 1.964820 0.000000 
#    z 0.000000 0.000000 2.036520 
# 
# From -- ./inp_files/13308.got.cif
#   From: 2010.05.17/outbox.cif.g08.bks.cpg/sg43_7_cif.got.tgz:13308.got - 2010.06.03 19:21:55.
