data_PCOD9372401
_publ_section_title
;
Structure prediction by ZEFSAII (Michael W. Deem and Ramdas Pophale) SiO2 
 PCOD9372401
Probable space group: F D D 2
;
_chemical_formula_sum "Si O2"
_cell_formula_units_Z 96
_cell_length_a 25.889518
_cell_length_b 15.016816
_cell_length_c 12.993553
_cell_angle_alpha 90.000000
_cell_angle_beta 90.000000
_cell_angle_gamma 90.000000
_cell_volume 5051.609213
_symmetry_space_group_name_H-M "F D D 2"
_symmetry_group_IT_number 43
_symmetry_cell_setting 'orthorhombic'
loop_
_space_group_symop_operation_xyz
x,y,z
-x,-y,z
1/4-x,1/4+y,1/4+z
1/4+x,1/4-y,1/4+z
x,1/2+y,1/2+z
-x,1/2-y,1/2+z
1/4-x,3/4+y,3/4+z
1/4+x,3/4-y,3/4+z
1/2+x,y,1/2+z
1/2-x,-y,1/2+z
3/4-x,1/4+y,3/4+z
3/4+x,1/4-y,3/4+z
1/2+x,1/2+y,z
1/2-x,1/2-y,z
3/4-x,3/4+y,1/4+z
3/4+x,3/4-y,1/4+z
loop_
_atom_site_type_symbol
_atom_site_label
_atom_site_fract_x
_atom_site_fract_y
_atom_site_fract_z
Si Si1 0.577649 0.423067 0.863110
Si Si2 0.669521 0.809445 0.294208
Si Si3 0.500000 0.000000 0.050715
Si Si4 0.412946 0.420310 0.696595
Si Si5 0.452293 0.127391 0.881646
Si Si6 0.030843 0.674033 0.366009
Si Si7 0.750000 0.750000 0.461406
O O1 0.615939 0.341938 0.841635
O O2 0.590533 0.498354 0.778290
O O3 0.519549 0.387326 0.851600
O O4 0.583997 0.470693 0.973858
O O5 0.690213 0.884485 0.215347
O O6 0.709756 0.797600 0.385910
O O7 0.457544 0.949101 0.118370
O O8 0.529686 0.929394 0.979637
O O9 0.358600 0.398720 0.643388
O O10 0.432783 0.338906 0.766765
O O11 0.480662 0.222596 0.879692
O O12 0.469123 0.069210 0.783490
#
# Coordination Sequence:
#
# PCOD9372401 Si02
#       7
#    16  16   8  16  16  16   8
#     4  11  23  39  70  99 125 173 218 274 333 387
#     4  11  23  44  67  94 133 166 219 273 326 398
#     4  11  24  43  66  96 134 169 218 273 322 394
#     4  11  21  43  68  97 129 167 223 272 321 393
#     4  11  26  41  65  94 134 177 214 267 340 389
#     4  11  22  42  68  98 126 170 222 270 330 389
#     4  11  26  49  58  94 146 167 214 285 328 398
#
# _framework density 19.003844999999998
#
# number of rings (size 3 to 8) (size 9 to 14) (size 15 to 20)
#    0.000    1.000    5.000    2.000    4.667    2.667 
#    6.000    0.000    0.000    0.000    0.000    0.000 
#    0.000    0.000    0.000    0.000    0.000    0.000 
#
# Total GULP energy -134093.241704 kJ/mol
# GULP energy per Si atom -5587.218404 kJ/mol
# Density = 1.896059 g / cm^3
# Si number density = 19.003845 Si / 1000 Ang^3
#
#
#
# Elastic Constant Matrix: (Units=GPa)
#
#
# Indices 1 2 3 4 5 6 
#
# 1 116.9734 26.4391 49.9899 0.0000 0.0000 0.0000
# 2 26.4391 85.4443 39.6646 0.0000 0.0000 0.0000
# 3 49.9899 39.6646 124.7184 0.0000 0.0000 0.0000
# 4 0.0000 0.0000 0.0000 -9.2359 0.0000 0.0000
# 5 0.0000 0.0000 0.0000 0.0000 28.0396 0.0000
# 6 0.0000 0.0000 0.0000 0.0000 0.0000 20.5579
#
#
#
# Elastic Compliance Matrix: (Units=1/GPa)
#
#
# Indices 1 2 3 4 5 6 
#
# 1 0.010481 -0.001517 -0.003719 0.000000 0.000000 0.000000
# 2 -0.001517 0.013950 -0.003829 0.000000 0.000000 0.000000
# 3 -0.003719 -0.003829 0.010726 0.000000 0.000000 0.000000
# 4 0.000000 0.000000 0.000000 -0.108273 0.000000 0.000000
# 5 0.000000 0.000000 0.000000 0.000000 0.035664 0.000000
# 6 0.000000 0.000000 0.000000 0.000000 0.000000 0.048643
#
#
# Mechanical properties :
#
#
# Convention : Reuss Voigt Hill
#
# Bulk Modulus (GPa) = 58.72283 62.14702 60.43493
# Shear Modulus (GPa) = 142.87377 21.94183 82.40780
#
# Velocity S-wave (km/s) = 8.68013 3.40163 6.59226
# Velocity P-wave (km/s) = 11.46417 6.94272 9.47704
#
# Compressibility (1/GPa) = 0.01702915
#
# Stress axis : x y z
#
# Youngs Moduli (GPa) = 95.41080 71.68351 93.22980
#
# Poissons Ratio (x) = 0.10874 0.34668
# Poissons Ratio (y) = 0.14473 0.35694
# Poissons Ratio (z) = 0.35479 0.27445
#
# Static dielectric constant tensor:
#      x y z
#    x 1.672500 0.000000 0.000000 
#    y 0.000000 1.661570 0.000000 
#    z 0.000000 0.000000 1.641460 
# 
# From -- ./inp_files/6702.got.cif
#   From: 2010.05.17/outbox.cif.g08.bks.cpg/sg43_4_cif.got.tgz:6702.got - 2010.06.03 19:21:55.
