data_PCOD9372720
_publ_section_title
;
Structure prediction by ZEFSAII (Michael W. Deem and Ramdas Pophale) SiO2 
 PCOD9372720
Probable space group: F D D 2
;
_chemical_formula_sum "Si O2"
_cell_formula_units_Z 72
_cell_length_a 24.359155
_cell_length_b 5.176076
_cell_length_c 20.741618
_cell_angle_alpha 90.000000
_cell_angle_beta 90.000000
_cell_angle_gamma 90.000000
_cell_volume 2615.203537
_symmetry_space_group_name_H-M "F D D 2"
_symmetry_group_IT_number 43
_symmetry_cell_setting 'orthorhombic'
loop_
_space_group_symop_operation_xyz
x,y,z
-x,-y,z
1/4-x,1/4+y,1/4+z
1/4+x,1/4-y,1/4+z
x,1/2+y,1/2+z
-x,1/2-y,1/2+z
1/4-x,3/4+y,3/4+z
1/4+x,3/4-y,3/4+z
1/2+x,y,1/2+z
1/2-x,-y,1/2+z
3/4-x,1/4+y,3/4+z
3/4+x,1/4-y,3/4+z
1/2+x,1/2+y,z
1/2-x,1/2-y,z
3/4-x,3/4+y,1/4+z
3/4+x,3/4-y,1/4+z
loop_
_atom_site_type_symbol
_atom_site_label
_atom_site_fract_x
_atom_site_fract_y
_atom_site_fract_z
Si Si1 0.816004 0.068628 0.642040
Si Si2 0.572510 0.199852 0.814705
Si Si3 0.500000 0.500000 0.496423
Si Si4 0.688874 0.754361 0.936815
Si Si5 0.307494 0.390369 0.340417
O O1 0.811198 0.847834 0.584938
O O2 0.782627 0.953564 0.701876
O O3 0.801464 0.357044 0.620046
O O4 0.881008 0.090262 0.658536
O O5 0.551599 0.335954 0.750158
O O6 0.638102 0.235803 0.812698
O O7 0.547160 0.622098 0.541450
O O8 0.750000 0.750000 0.905833
O O9 0.679255 0.055303 0.916534
O O10 0.250000 0.250000 0.336991
#
# Coordination Sequence:
#
# PCOD9372720 Si02
#       5
#    16  16   8  16  16
#     4  11  29  48  76 113 159 209 261 325 400 482
#     4  11  28  48  75 114 157 203 261 331 402 464
#     4  12  28  50  82 118 158 220 270 326 406 502
#     4  11  25  47  79 110 157 199 266 325 399 465
#     4  11  25  49  83 112 158 214 273 327 399 489
#
# _framework density 27.531317000000001
#
# number of rings (size 3 to 8) (size 9 to 14) (size 15 to 20)
#    0.000    0.889    1.111    2.667   18.667    3.556 
#    0.000    0.000    0.000    0.000    0.000    0.000 
#    0.000    0.000    0.000    0.000    0.000    0.000 
#
# Total GULP energy -100440.774135 kJ/mol
# GULP energy per Si atom -5580.043008 kJ/mol
# Density = 2.746865 g / cm^3
# Si number density = 27.531317 Si / 1000 Ang^3
#
#
#
# Elastic Constant Matrix: (Units=GPa)
#
#
# Indices 1 2 3 4 5 6 
#
# 1 114.2513 24.6109 26.5176 0.0067 -0.0024 -0.0082
# 2 24.6109 137.9918 58.8831 0.0184 -0.0055 -0.0111
# 3 26.5176 58.8831 138.5046 0.0049 -0.0019 -0.0024
# 4 0.0067 0.0184 0.0049 34.5741 -0.0032 -0.0055
# 5 -0.0024 -0.0055 -0.0019 -0.0032 13.4858 0.0016
# 6 -0.0082 -0.0111 -0.0024 -0.0055 0.0016 49.6157
#
#
#
# Elastic Compliance Matrix: (Units=1/GPa)
#
#
# Indices 1 2 3 4 5 6 
#
# 1 0.009294 -0.001097 -0.001313 -0.000001 0.000001 0.000001
# 2 -0.001097 0.008982 -0.003609 -0.000004 0.000003 0.000002
# 3 -0.001313 -0.003609 0.009005 0.000001 0.000000 -0.000001
# 4 -0.000001 -0.000004 0.000001 0.028923 0.000007 0.000003
# 5 0.000001 0.000003 0.000000 0.000007 0.074152 -0.000002
# 6 0.000001 0.000002 -0.000001 0.000003 -0.000002 0.020155
#
#
# Mechanical properties :
#
#
# Convention : Reuss Voigt Hill
#
# Bulk Modulus (GPa) = 65.59962 67.86344 66.73153
# Shear Modulus (GPa) = 29.82748 38.25086 34.03917
#
# Velocity S-wave (km/s) = 3.29508 3.73145 3.52003
# Velocity P-wave (km/s) = 6.19320 6.57785 6.38842
#
# Compressibility (1/GPa) = 0.01524399
#
# Stress axis : x y z
#
# Youngs Moduli (GPa) = 107.59951 111.32920 111.04354
#
# Poissons Ratio (x) = 0.12217 0.14578
# Poissons Ratio (y) = 0.11807 0.40071
# Poissons Ratio (z) = 0.14126 0.40174
#
# Static dielectric constant tensor:
#      x y z
#    x 2.120880 0.000000 0.000000 
#    y 0.000000 2.362540 0.000000 
#    z 0.000000 0.000000 2.185500 
# 
# From -- ./inp_files/18769.got.cif
#   From: 2010.05.17/outbox.cif.g08.bks.cpg/sg43_10_cif.got.tgz:18769.got - 2010.06.03 19:21:55.
