data_PCOD9372973
_publ_section_title
;
Structure prediction by ZEFSAII (Michael W. Deem and Ramdas Pophale) SiO2 
 PCOD9372973
Probable space group: F D D 2
;
_chemical_formula_sum "Si O2"
_cell_formula_units_Z 28
_cell_length_a 24.000000
_cell_length_b 15.000000
_cell_length_c 15.000000
_cell_angle_alpha 90.000000
_cell_angle_beta 90.000000
_cell_angle_gamma 90.000000
_cell_volume 5400.000000
_symmetry_space_group_name_H-M "F D D 2"
_symmetry_group_IT_number 43
_symmetry_cell_setting 'orthorhombic'
loop_
_space_group_symop_operation_xyz
x,y,z
-x,-y,z
1/4-x,1/4+y,1/4+z
1/4+x,1/4-y,1/4+z
x,1/2+y,1/2+z
-x,1/2-y,1/2+z
1/4-x,3/4+y,3/4+z
1/4+x,3/4-y,3/4+z
1/2+x,y,1/2+z
1/2-x,-y,1/2+z
3/4-x,1/4+y,3/4+z
3/4+x,1/4-y,3/4+z
1/2+x,1/2+y,z
1/2-x,1/2-y,z
3/4-x,3/4+y,1/4+z
3/4+x,3/4-y,1/4+z
loop_
_atom_site_type_symbol
_atom_site_label
_atom_site_fract_x
_atom_site_fract_y
_atom_site_fract_z
Si Si1 0.597843 0.846336 0.506780
Si Si2 0.815066 0.729771 0.366300
Si Si3 0.385492 0.262999 0.828725
Si Si4 0.714065 0.107995 0.389662
Si Si5 0.047660 0.924358 0.830527
Si Si6 0.087046 0.171004 0.626862
Si Si7 0.329912 0.048874 0.270505
O O1 0.653157 0.814870 0.451245
O O2 0.556739 0.875671 0.425330
O O3 0.584422 0.759111 0.565461
O O4 0.595582 0.932480 0.573767
O O5 0.750000 0.750000 0.385153
O O6 0.817335 0.651297 0.292814
O O7 0.329689 0.319550 0.853242
O O8 0.377805 0.155727 0.837957
O O9 0.401784 0.296279 0.729250
O O10 0.424921 0.284787 0.914320
O O11 0.709175 0.105740 0.497531
O O12 0.778135 0.129423 0.374219
O O13 0.703757 0.017060 0.335006
O O14 0.106411 0.970008 0.802778
O O15 0.000000 0.000000 0.832142
#
# Coordination Sequence:
#
# PCOD9372973 Si02
#       7
#    16  16  16  16  16  16  16
#     4  11  26  45  69 104 145 194 240 296 362 441
#     4  11  25  46  74 105 147 190 243 306 363 437
#     4  11  24  45  70  99 141 185 236 305 355 428
#     4  11  23  42  70 107 135 186 232 300 365 429
#     4  10  23  40  71 104 138 181 238 302 360 415
#     4  12  25  45  68  98 146 188 242 287 363 441
#     4  10  23  41  74 104 142 180 241 306 359 427
#
# _framework density 5.1851849999999997
#
# number of rings (size 3 to 8) (size 9 to 14) (size 15 to 20)
#    0.000    1.143    1.429    4.286   12.000    2.286 
#    0.000    2.857    0.000    0.000    0.000    0.000 
#    0.000    0.000    0.000    0.000    0.000    0.000 
#
# Total GULP energy -156366.200765 kJ/mol
# GULP energy per Si atom -5584.507170 kJ/mol
# Density = 0.517338 g / cm^3
# Si number density = 5.185185 Si / 1000 Ang^3
#
#
#
# Elastic Constant Matrix: (Units=GPa)
#
#
# Indices 1 2 3 4 5 6 
#
# 1 102.4797 22.1927 30.2790 0.0000 0.0000 0.0000
# 2 22.1927 136.3467 39.5498 0.0000 0.0000 0.0000
# 3 30.2790 39.5498 131.2196 0.0000 0.0000 0.0000
# 4 0.0000 0.0000 0.0000 39.6523 0.0000 0.0000
# 5 0.0000 0.0000 0.0000 0.0000 22.9425 0.0000
# 6 0.0000 0.0000 0.0000 0.0000 0.0000 34.0182
#
#
#
# Elastic Compliance Matrix: (Units=1/GPa)
#
#
# Indices 1 2 3 4 5 6 
#
# 1 0.010625 -0.001116 -0.002115 0.000000 0.000000 0.000000
# 2 -0.001116 0.008154 -0.002200 0.000000 0.000000 0.000000
# 3 -0.002115 -0.002200 0.008772 0.000000 0.000000 0.000000
# 4 0.000000 0.000000 0.000000 0.025219 0.000000 0.000000
# 5 0.000000 0.000000 0.000000 0.000000 0.043587 0.000000
# 6 0.000000 0.000000 0.000000 0.000000 0.000000 0.029396
#
#
# Mechanical properties :
#
#
# Convention : Reuss Voigt Hill
#
# Bulk Modulus (GPa) = 59.92255 61.56545 60.74400
# Shear Modulus (GPa) = 35.16701 37.85754 36.51228
#
# Velocity S-wave (km/s) = 4.12218 4.27696 4.20028
# Velocity P-wave (km/s) = 7.18404 7.35783 7.27145
#
# Compressibility (1/GPa) = 0.01668821
#
# Stress axis : x y z
#
# Youngs Moduli (GPa) = 94.12058 122.63837 113.99818
#
# Poissons Ratio (x) = 0.13683 0.24115
# Poissons Ratio (y) = 0.10501 0.25082
# Poissons Ratio (z) = 0.19910 0.26983
#
# Static dielectric constant tensor:
#      x y z
#    x 1.811080 0.000000 0.000000 
#    y 0.000000 1.733510 0.000000 
#    z 0.000000 0.000000 1.741100 
# 
# From -- ./inp_files/11257.got.cif
#   From: 2010.05.17/outbox.ucp.g08.bks.cvg/sg43_6_cif.got.tgz:11257.got - 2010.06.11 16:31:01.
