data_PCOD9372703
_publ_section_title
;
Structure prediction by ZEFSAII (Michael W. Deem and Ramdas Pophale) SiO2 
 PCOD9372703
Probable space group: F D D 2
;
_chemical_formula_sum "Si O2"
_cell_formula_units_Z 80
_cell_length_a 17.722256
_cell_length_b 8.929228
_cell_length_c 18.158113
_cell_angle_alpha 90.000000
_cell_angle_beta 90.000000
_cell_angle_gamma 90.000000
_cell_volume 2873.449921
_symmetry_space_group_name_H-M "F D D 2"
_symmetry_group_IT_number 43
_symmetry_cell_setting 'orthorhombic'
loop_
_space_group_symop_operation_xyz
x,y,z
-x,-y,z
1/4-x,1/4+y,1/4+z
1/4+x,1/4-y,1/4+z
x,1/2+y,1/2+z
-x,1/2-y,1/2+z
1/4-x,3/4+y,3/4+z
1/4+x,3/4-y,3/4+z
1/2+x,y,1/2+z
1/2-x,-y,1/2+z
3/4-x,1/4+y,3/4+z
3/4+x,1/4-y,3/4+z
1/2+x,1/2+y,z
1/2-x,1/2-y,z
3/4-x,3/4+y,1/4+z
3/4+x,3/4-y,1/4+z
loop_
_atom_site_type_symbol
_atom_site_label
_atom_site_fract_x
_atom_site_fract_y
_atom_site_fract_z
Si Si1 0.705200 0.510926 0.875000
Si Si2 0.455200 0.260925 0.412842
Si Si3 0.250000 0.750000 0.553482
Si Si4 0.610346 0.258415 0.068049
Si Si5 0.639654 0.491585 0.719793
Si Si6 0.250000 0.750000 0.984359
O O1 0.788631 0.575071 0.853481
O O2 0.674642 0.440628 0.798577
O O3 0.644619 0.621582 0.912505
O O4 0.720402 0.380929 0.932909
O O5 0.424642 0.190627 0.489264
O O6 0.538631 0.325071 0.434361
O O7 0.394619 0.371582 0.375337
O O8 0.470402 0.130929 0.354932
O O9 0.185354 0.818312 0.501349
O O10 0.685354 0.181688 0.036492
#
# Coordination Sequence:
#
# PCOD9372703 Si02
#       6
#    16  16   8  16  16   8
#     4  11  25  45  76 110 148 198 252 311 369 455
#     4  11  25  45  76 110 148 198 252 311 369 455
#     4  12  24  41  74 107 148 196 254 310 366 453
#     4  11  25  46  75 109 151 197 254 307 378 444
#     4  11  25  46  75 109 151 197 254 307 378 444
#     4  12  24  41  74 107 148 196 254 310 366 453
#
# _framework density 27.841100000000001
#
# number of rings (size 3 to 8) (size 9 to 14) (size 15 to 20)
#    0.000    0.800    4.000    2.400    5.600    3.200 
#    0.000    0.000    0.000    0.000    0.000    0.000 
#    0.000    0.000    0.000    0.000    0.000    0.000 
#
# Total GULP energy -111849.484405 kJ/mol
# GULP energy per Si atom -5592.474220 kJ/mol
# Density = 2.777773 g / cm^3
# Si number density = 27.841100 Si / 1000 Ang^3
#
#
#
# Elastic Constant Matrix: (Units=GPa)
#
#
# Indices 1 2 3 4 5 6 
#
# 1 228.3050 44.8229 98.9180 0.0000 0.0000 0.0000
# 2 44.8229 72.3270 59.6382 0.0000 0.0000 0.0000
# 3 98.9180 59.6382 231.7542 0.0000 0.0000 0.0000
# 4 0.0000 0.0000 0.0000 47.2124 0.0000 0.0000
# 5 0.0000 0.0000 0.0000 0.0000 72.0424 0.0000
# 6 0.0000 0.0000 0.0000 0.0000 0.0000 22.0450
#
#
#
# Elastic Compliance Matrix: (Units=1/GPa)
#
#
# Indices 1 2 3 4 5 6 
#
# 1 0.005571 -0.001894 -0.001891 0.000000 0.000000 0.000000
# 2 -0.001894 0.018194 -0.003874 0.000000 0.000000 0.000000
# 3 -0.001891 -0.003874 0.006119 0.000000 0.000000 0.000000
# 4 0.000000 0.000000 0.000000 0.021181 0.000000 0.000000
# 5 0.000000 0.000000 0.000000 0.000000 0.013881 0.000000
# 6 0.000000 0.000000 0.000000 0.000000 0.000000 0.045362
#
#
# Mechanical properties :
#
#
# Convention : Reuss Voigt Hill
#
# Bulk Modulus (GPa) = 68.64469 104.34938 86.49703
# Shear Modulus (GPa) = 38.32065 50.19377 44.25721
#
# Velocity S-wave (km/s) = 3.71402 4.25062 3.99135
# Velocity P-wave (km/s) = 6.56516 7.85189 7.23718
#
# Compressibility (1/GPa) = 0.01456777
#
# Stress axis : x y z
#
# Youngs Moduli (GPa) = 179.50120 54.96426 163.43485
#
# Poissons Ratio (x) = 0.10408 0.30898
# Poissons Ratio (y) = 0.33991 0.63308
# Poissons Ratio (z) = 0.33935 0.21291
#
# Static dielectric constant tensor:
#      x y z
#    x 2.313880 0.000000 0.000000 
#    y 0.000000 2.133200 0.000000 
#    z 0.000000 0.000000 2.136540 
# 
# From -- ./inp_files/14538.got.cif
#   From: 2010.05.17/outbox.cif.g08.bks.cpg/sg43_8_cif.got.tgz:14538.got - 2010.06.03 19:21:55.
