data_PCOD9372517
_publ_section_title
;
Structure prediction by ZEFSAII (Michael W. Deem and Ramdas Pophale) SiO2 
 PCOD9372517
Probable space group: F D D 2
;
_chemical_formula_sum "Si O2"
_cell_formula_units_Z 80
_cell_length_a 14.391403
_cell_length_b 10.384418
_cell_length_c 24.593198
_cell_angle_alpha 90.000000
_cell_angle_beta 90.000000
_cell_angle_gamma 90.000000
_cell_volume 3675.363537
_symmetry_space_group_name_H-M "F D D 2"
_symmetry_group_IT_number 43
_symmetry_cell_setting 'orthorhombic'
loop_
_space_group_symop_operation_xyz
x,y,z
-x,-y,z
1/4-x,1/4+y,1/4+z
1/4+x,1/4-y,1/4+z
x,1/2+y,1/2+z
-x,1/2-y,1/2+z
1/4-x,3/4+y,3/4+z
1/4+x,3/4-y,3/4+z
1/2+x,y,1/2+z
1/2-x,-y,1/2+z
3/4-x,1/4+y,3/4+z
3/4+x,1/4-y,3/4+z
1/2+x,1/2+y,z
1/2-x,1/2-y,z
3/4-x,3/4+y,1/4+z
3/4+x,3/4-y,1/4+z
loop_
_atom_site_type_symbol
_atom_site_label
_atom_site_fract_x
_atom_site_fract_y
_atom_site_fract_z
Si Si1 0.825059 0.987523 0.899300
Si Si2 0.500000 0.500000 0.980183
Si Si3 0.823457 0.850293 0.530306
Si Si4 0.000000 0.500000 0.674308
Si Si5 0.551450 0.627636 0.739551
Si Si6 0.222625 0.028168 0.784303
O O1 0.746102 0.909248 0.931748
O O2 0.911088 0.996054 0.940306
O O3 0.787496 0.132010 0.891491
O O4 0.839882 0.945487 0.837885
O O5 0.492350 0.369093 0.015738
O O6 0.750000 0.750000 0.556224
O O7 0.826440 0.802285 0.467062
O O8 0.928220 0.839349 0.549152
O O9 0.785721 0.994711 0.525829
O O10 0.500000 0.500000 0.760075
O O11 0.661057 0.596429 0.737732
#
# Coordination Sequence:
#
# PCOD9372517 Si02
#       6
#    16   8  16   8  16  16
#     4  11  24  42  70 100 133 184 229 276 346 417
#     4  12  23  44  68 102 138 178 228 289 336 412
#     4   9  20  43  69  90 136 182 223 280 336 393
#     4   8  17  42  64  88 128 166 228 275 316 398
#     4  11  23  42  65 102 143 169 228 289 329 407
#     4  12  24  42  71 100 141 186 220 286 352 397
#
# _framework density 21.766555
#
# number of rings (size 3 to 8) (size 9 to 14) (size 15 to 20)
#    0.600    0.800    4.000    1.200    1.400    1.600 
#    0.000    4.000    0.000    0.000    0.000    0.000 
#    0.000    0.000    0.000    0.000    0.000    0.000 
#
# Total GULP energy -111459.624974 kJ/mol
# GULP energy per Si atom -5572.981249 kJ/mol
# Density = 2.171701 g / cm^3
# Si number density = 21.766555 Si / 1000 Ang^3
#
#
#
# Elastic Constant Matrix: (Units=GPa)
#
#
# Indices 1 2 3 4 5 6 
#
# 1 100.9482 33.0569 36.4040 0.0000 0.0000 0.0000
# 2 33.0569 142.3277 18.8486 0.0000 0.0000 0.0000
# 3 36.4040 18.8486 83.1414 0.0000 0.0000 0.0000
# 4 0.0000 0.0000 0.0000 8.0356 0.0000 0.0000
# 5 0.0000 0.0000 0.0000 0.0000 -19.2201 0.0000
# 6 0.0000 0.0000 0.0000 0.0000 0.0000 36.9662
#
#
#
# Elastic Compliance Matrix: (Units=1/GPa)
#
#
# Indices 1 2 3 4 5 6 
#
# 1 0.012414 -0.002230 -0.004930 0.000000 0.000000 0.000000
# 2 -0.002230 0.007644 -0.000756 0.000000 0.000000 0.000000
# 3 -0.004930 -0.000756 0.014358 0.000000 0.000000 0.000000
# 4 0.000000 0.000000 0.000000 0.124447 0.000000 0.000000
# 5 0.000000 0.000000 0.000000 0.000000 -0.052029 0.000000
# 6 0.000000 0.000000 0.000000 0.000000 0.000000 0.027052
#
#
# Mechanical properties :
#
#
# Convention : Reuss Voigt Hill
#
# Bulk Modulus (GPa) = 53.81356 55.89291 54.85323
# Shear Modulus (GPa) = 32.06899 21.03020 26.54960
#
# Velocity S-wave (km/s) = 3.84254 3.11170 3.49627
# Velocity P-wave (km/s) = 6.66810 6.21646 6.44624
#
# Compressibility (1/GPa) = 0.01858268
#
# Stress axis : x y z
#
# Youngs Moduli (GPa) = 80.55202 130.81729 69.64844
#
# Poissons Ratio (x) = 0.29178 0.34337
# Poissons Ratio (y) = 0.17967 0.05268
# Poissons Ratio (z) = 0.39713 0.09895
#
# Static dielectric constant tensor:
#      x y z
#    x 1.843990 0.000000 0.000000 
#    y 0.000000 1.821330 0.000000 
#    z 0.000000 0.000000 1.742370 
# 
# From -- ./inp_files/21631.got.cif
#   From: 2010.05.17/outbox.cif.g08.bks.cpg/sg43_11_cif.got.tgz:21631.got - 2010.06.03 19:21:55.
