data_PCOD9372170
_publ_section_title
;
Structure prediction by ZEFSAII (Michael W. Deem and Ramdas Pophale) SiO2 
 PCOD9372170
Probable space group: F D D 2
;
_chemical_formula_sum "Si O2"
_cell_formula_units_Z 56
_cell_length_a 34.159356
_cell_length_b 5.411661
_cell_length_c 13.071116
_cell_angle_alpha 90.000000
_cell_angle_beta 90.000000
_cell_angle_gamma 90.000000
_cell_volume 2416.311533
_symmetry_space_group_name_H-M "F D D 2"
_symmetry_group_IT_number 43
_symmetry_cell_setting 'orthorhombic'
loop_
_space_group_symop_operation_xyz
x,y,z
-x,-y,z
1/4-x,1/4+y,1/4+z
1/4+x,1/4-y,1/4+z
x,1/2+y,1/2+z
-x,1/2-y,1/2+z
1/4-x,3/4+y,3/4+z
1/4+x,3/4-y,3/4+z
1/2+x,y,1/2+z
1/2-x,-y,1/2+z
3/4-x,1/4+y,3/4+z
3/4+x,1/4-y,3/4+z
1/2+x,1/2+y,z
1/2-x,1/2-y,z
3/4-x,3/4+y,1/4+z
3/4+x,3/4-y,1/4+z
loop_
_atom_site_type_symbol
_atom_site_label
_atom_site_fract_x
_atom_site_fract_y
_atom_site_fract_z
Si Si1 0.000000 0.500000 0.576980
Si Si2 0.430814 0.491417 0.915405
Si Si3 0.842452 0.007386 0.973978
Si Si4 0.696472 0.479981 0.456033
O O1 0.963280 0.498292 0.501409
O O2 0.988291 0.716849 0.655906
O O3 0.422847 0.726763 0.840924
O O4 0.445869 0.302579 0.828450
O O5 0.388247 0.448057 0.963769
O O6 0.822015 0.775927 0.916135
O O7 0.830230 0.277851 0.937555
#
# Coordination Sequence:
#
# PCOD9372170 Si02
#       4
#     8  16  16  16
#     4  12  26  50  76 116 152 202 238 322 384 428
#     4  10  26  46  76 108 148 195 250 310 366 451
#     4  10  24  48  74 101 147 194 252 298 366 440
#     4  10  27  47  71 110 146 192 246 307 367 446
#
# _framework density 23.175822
#
# number of rings (size 3 to 8) (size 9 to 14) (size 15 to 20)
#    1.714    0.000    0.000    1.714   12.000    1.143 
#   10.286    0.000    0.000    0.000    0.000    0.000 
#    0.000    0.000    0.000    0.000    0.000    0.000 
#
# Total GULP energy -77987.426602 kJ/mol
# GULP energy per Si atom -5570.530472 kJ/mol
# Density = 2.312307 g / cm^3
# Si number density = 23.175822 Si / 1000 Ang^3
#
#
#
# Elastic Constant Matrix: (Units=GPa)
#
#
# Indices 1 2 3 4 5 6 
#
# 1 138.1789 33.4896 55.2607 -0.0001 0.0000 0.0001
# 2 33.4896 107.6825 26.9836 -0.0002 0.0000 0.0002
# 3 55.2607 26.9836 127.2831 -0.0001 0.0000 0.0000
# 4 -0.0001 -0.0002 -0.0001 -4.9157 0.0000 0.0000
# 5 0.0000 0.0000 0.0000 0.0000 55.6937 -0.0001
# 6 0.0001 0.0002 0.0000 0.0000 -0.0001 30.7335
#
#
#
# Elastic Compliance Matrix: (Units=1/GPa)
#
#
# Indices 1 2 3 4 5 6 
#
# 1 0.009129 -0.001950 -0.003550 0.000000 0.000000 0.000000
# 2 -0.001950 0.010224 -0.001321 0.000000 0.000000 0.000000
# 3 -0.003550 -0.001321 0.009678 0.000000 0.000000 0.000000
# 4 0.000000 0.000000 0.000000 -0.203432 0.000000 0.000000
# 5 0.000000 0.000000 0.000000 0.000000 0.017955 0.000000
# 6 0.000000 0.000000 0.000000 0.000000 0.000000 0.032538
#
#
# Mechanical properties :
#
#
# Convention : Reuss Voigt Hill
#
# Bulk Modulus (GPa) = 64.97956 67.17911 66.07934
# Shear Modulus (GPa) = -47.55753 33.46302 -7.04725
#
# Velocity S-wave (km/s) = -4.53485 3.80396 -1.74567
# Velocity P-wave (km/s) = 0.82383 6.95292 4.95085
#
# Compressibility (1/GPa) = 0.01538945
#
# Stress axis : x y z
#
# Youngs Moduli (GPa) = 109.53713 97.80987 103.32814
#
# Poissons Ratio (x) = 0.19069 0.36684
# Poissons Ratio (y) = 0.21355 0.13650
# Poissons Ratio (z) = 0.38888 0.12921
#
# Static dielectric constant tensor:
#      x y z
#    x 1.895910 0.000000 0.000000 
#    y 0.000000 1.901930 0.000000 
#    z 0.000000 0.000000 1.919610 
# 
# From -- ./inp_files/8608.got.cif
#   From: 2010.05.17/outbox.cif.g08.bks.cpg/sg43_5_cif.got.tgz:8608.got - 2010.06.03 19:21:55.
