data_PCOD9372256
_publ_section_title
;
Structure prediction by ZEFSAII (Michael W. Deem and Ramdas Pophale) SiO2 
 PCOD9372256
Probable space group: F D D 2
;
_chemical_formula_sum "Si O2"
_cell_formula_units_Z 88
_cell_length_a 31.959987
_cell_length_b 16.329919
_cell_length_c 7.789361
_cell_angle_alpha 90.000000
_cell_angle_beta 90.000000
_cell_angle_gamma 90.000000
_cell_volume 4065.298655
_symmetry_space_group_name_H-M "F D D 2"
_symmetry_group_IT_number 43
_symmetry_cell_setting 'orthorhombic'
loop_
_space_group_symop_operation_xyz
x,y,z
-x,-y,z
1/4-x,1/4+y,1/4+z
1/4+x,1/4-y,1/4+z
x,1/2+y,1/2+z
-x,1/2-y,1/2+z
1/4-x,3/4+y,3/4+z
1/4+x,3/4-y,3/4+z
1/2+x,y,1/2+z
1/2-x,-y,1/2+z
3/4-x,1/4+y,3/4+z
3/4+x,1/4-y,3/4+z
1/2+x,1/2+y,z
1/2-x,1/2-y,z
3/4-x,3/4+y,1/4+z
3/4+x,3/4-y,1/4+z
loop_
_atom_site_type_symbol
_atom_site_label
_atom_site_fract_x
_atom_site_fract_y
_atom_site_fract_z
Si Si1 0.276320 0.073642 0.809420
Si Si2 0.415753 0.065776 0.926863
Si Si3 0.863482 0.837059 0.046546
Si Si4 0.558361 0.750484 0.912357
Si Si5 0.000000 0.500000 0.983345
Si Si6 0.893297 0.270781 0.882059
O O1 0.234322 0.025092 0.758746
O O2 0.264190 0.168644 0.833948
O O3 0.312543 0.065719 0.664347
O O4 0.295031 0.033932 0.979202
O O5 0.415984 0.163833 0.900458
O O6 0.380442 0.024042 0.813483
O O7 0.410104 0.050271 0.131161
O O8 0.460529 0.030456 0.874853
O O9 0.861318 0.806269 0.241040
O O10 0.849318 0.930246 0.061430
O O11 0.911993 0.816927 0.001122
#
# Coordination Sequence:
#
# PCOD9372256 Si02
#       6
#    16  16  16  16   8  16
#     4  11  24  45  71 104 141 192 227 301 353 425
#     4  11  25  48  66 104 139 189 231 302 346 420
#     4  12  25  42  68 107 134 187 233 289 349 426
#     4  11  24  45  68 101 147 178 237 293 355 418
#     4  10  26  44  74  96 146 182 236 284 364 410
#     4  12  25  43  75 101 140 185 240 281 362 419
#
# _framework density 21.646626000000001
#
# number of rings (size 3 to 8) (size 9 to 14) (size 15 to 20)
#    0.000    0.727    3.636    3.273    7.636    1.455 
#    0.000    0.909    0.000    0.000    0.000    0.000 
#    0.000    0.000    0.000    0.000    0.000    0.000 
#
# Total GULP energy -122837.867295 kJ/mol
# GULP energy per Si atom -5583.539422 kJ/mol
# Density = 2.159736 g / cm^3
# Si number density = 21.646626 Si / 1000 Ang^3
#
#
#
# Elastic Constant Matrix: (Units=GPa)
#
#
# Indices 1 2 3 4 5 6 
#
# 1 102.8460 28.2840 23.9882 0.0000 0.0000 0.0000
# 2 28.2840 54.0193 26.9017 0.0000 0.0000 0.0000
# 3 23.9882 26.9017 89.1266 0.0000 0.0000 0.0000
# 4 0.0000 0.0000 0.0000 20.2405 0.0000 0.0000
# 5 0.0000 0.0000 0.0000 0.0000 26.6181 0.0000
# 6 0.0000 0.0000 0.0000 0.0000 0.0000 -54.4300
#
#
#
# Elastic Compliance Matrix: (Units=1/GPa)
#
#
# Indices 1 2 3 4 5 6 
#
# 1 0.011528 -0.005285 -0.001508 0.000000 0.000000 0.000000
# 2 -0.005285 0.024210 -0.005885 0.000000 0.000000 0.000000
# 3 -0.001508 -0.005885 0.013402 0.000000 0.000000 0.000000
# 4 0.000000 0.000000 0.000000 0.049406 0.000000 0.000000
# 5 0.000000 0.000000 0.000000 0.000000 0.037568 0.000000
# 6 0.000000 0.000000 0.000000 0.000000 0.000000 -0.018372
#
#
# Mechanical properties :
#
#
# Convention : Reuss Voigt Hill
#
# Bulk Modulus (GPa) = 42.04374 44.92662 43.48518
# Shear Modulus (GPa) = 33.10676 9.60692 21.35684
#
# Velocity S-wave (km/s) = 3.91502 2.10896 3.14445
# Velocity P-wave (km/s) = 6.31676 5.17010 5.77197
#
# Compressibility (1/GPa) = 0.02378476
#
# Stress axis : x y z
#
# Youngs Moduli (GPa) = 86.74178 41.30521 74.61564
#
# Poissons Ratio (x) = 0.21832 0.11248
# Poissons Ratio (y) = 0.45847 0.43911
# Poissons Ratio (z) = 0.13076 0.24308
#
# Static dielectric constant tensor:
#      x y z
#    x 1.778290 0.000000 0.000000 
#    y 0.000000 1.810040 0.000000 
#    z 0.000000 0.000000 1.838760 
# 
# From -- ./inp_files/4705.got.cif
#   From: 2010.05.17/outbox.cif.g08.bks.cpg/sg43_3_cif.got.tgz:4705.got - 2010.06.03 19:21:55.
