data_PCOD9372740
_publ_section_title
;
Structure prediction by ZEFSAII (Michael W. Deem and Ramdas Pophale) SiO2 
 PCOD9372740
Probable space group: F D D 2
;
_chemical_formula_sum "Si O2"
_cell_formula_units_Z 64
_cell_length_a 27.575280
_cell_length_b 18.800618
_cell_length_c 4.890069
_cell_angle_alpha 90.000000
_cell_angle_beta 90.000000
_cell_angle_gamma 90.000000
_cell_volume 2535.169746
_symmetry_space_group_name_H-M "F D D 2"
_symmetry_group_IT_number 43
_symmetry_cell_setting 'orthorhombic'
loop_
_space_group_symop_operation_xyz
x,y,z
-x,-y,z
1/4-x,1/4+y,1/4+z
1/4+x,1/4-y,1/4+z
x,1/2+y,1/2+z
-x,1/2-y,1/2+z
1/4-x,3/4+y,3/4+z
1/4+x,3/4-y,3/4+z
1/2+x,y,1/2+z
1/2-x,-y,1/2+z
3/4-x,1/4+y,3/4+z
3/4+x,1/4-y,3/4+z
1/2+x,1/2+y,z
1/2-x,1/2-y,z
3/4-x,3/4+y,1/4+z
3/4+x,3/4-y,1/4+z
loop_
_atom_site_type_symbol
_atom_site_label
_atom_site_fract_x
_atom_site_fract_y
_atom_site_fract_z
Si Si1 0.853087 0.609854 0.659630
Si Si2 0.450688 0.590101 0.919429
Si Si3 0.938309 0.433222 0.427234
Si Si4 0.216655 0.511604 0.423620
O O1 0.831759 0.629444 0.951684
O O2 0.910482 0.599707 0.651946
O O3 0.842039 0.674761 0.452176
O O4 0.824204 0.543928 0.522006
O O5 0.438451 0.512241 0.802174
O O6 0.506448 0.584884 0.010267
O O7 0.050919 0.341743 0.224886
O O8 0.263387 0.498234 0.619191
#
# Coordination Sequence:
#
# PCOD9372740 Si02
#       4
#    16  16  16  16
#     4  12  25  47  73 108 141 194 245 292 374 434
#     4  11  26  47  75 104 151 188 243 306 358 445
#     4  11  27  47  71 109 144 193 241 304 368 427
#     4  12  24  46  70 103 145 193 238 303 363 434
#
# _framework density 25.244859000000002
#
# number of rings (size 3 to 8) (size 9 to 14) (size 15 to 20)
#    0.000    0.500    5.000    1.500    0.000   16.000 
#    0.000    0.000    0.000    0.000    0.000    0.000 
#    0.000    0.000    0.000    0.000    0.000    0.000 
#
# Total GULP energy -89659.766675 kJ/mol
# GULP energy per Si atom -5603.735417 kJ/mol
# Density = 2.518740 g / cm^3
# Si number density = 25.244859 Si / 1000 Ang^3
#
#
#
# Elastic Constant Matrix: (Units=GPa)
#
#
# Indices 1 2 3 4 5 6 
#
# 1 169.7262 34.4294 43.4724 0.0000 0.0000 -0.0004
# 2 34.4294 143.1179 9.0765 0.0045 0.0008 -0.0007
# 3 43.4724 9.0765 83.3673 0.0111 0.0011 -0.0001
# 4 0.0000 0.0045 0.0111 27.3724 0.0005 0.0000
# 5 0.0000 0.0008 0.0011 0.0005 21.1595 0.0004
# 6 -0.0004 -0.0007 -0.0001 0.0000 0.0004 33.6690
#
#
#
# Elastic Compliance Matrix: (Units=1/GPa)
#
#
# Indices 1 2 3 4 5 6 
#
# 1 0.007100 -0.001483 -0.003541 0.000002 0.000000 0.000000
# 2 -0.001483 0.007346 -0.000026 -0.000001 0.000000 0.000000
# 3 -0.003541 -0.000026 0.013844 -0.000006 -0.000001 0.000000
# 4 0.000002 -0.000001 -0.000006 0.036533 -0.000001 0.000000
# 5 0.000000 0.000000 -0.000001 -0.000001 0.047260 -0.000001
# 6 0.000000 0.000000 0.000000 0.000000 -0.000001 0.029701
#
#
# Mechanical properties :
#
#
# Convention : Reuss Voigt Hill
#
# Bulk Modulus (GPa) = 54.97798 63.35202 59.16500
# Shear Modulus (GPa) = 31.65612 37.05573 34.35592
#
# Velocity S-wave (km/s) = 3.54498 3.83541 3.69305
# Velocity P-wave (km/s) = 6.21136 6.69054 6.45540
#
# Compressibility (1/GPa) = 0.01818910
#
# Stress axis : x y z
#
# Youngs Moduli (GPa) = 140.85250 136.13293 72.23211
#
# Poissons Ratio (x) = 0.20194 0.25575
# Poissons Ratio (y) = 0.20894 0.00190
# Poissons Ratio (z) = 0.49871 0.00357
#
# Static dielectric constant tensor:
#      x y z
#    x 1.999040 0.000000 0.000000 
#    y 0.000000 2.039730 0.000000 
#    z 0.000000 0.000000 1.865320 
# 
# From -- ./inp_files/674.got.cif
#   From: 2010.05.17/outbox.cif.g08.bks.cpg/sg43_1_cif.got.tgz:674.got - 2010.06.03 19:21:55.
