data_PCOD9372900
_publ_section_title
;
Structure prediction by ZEFSAII (Michael W. Deem and Ramdas Pophale) SiO2 
 PCOD9372900
Probable space group: F D D 2
;
_chemical_formula_sum "Si O2"
_cell_formula_units_Z 88
_cell_length_a 6.862005
_cell_length_b 23.034309
_cell_length_c 19.846972
_cell_angle_alpha 90.000000
_cell_angle_beta 90.000000
_cell_angle_gamma 90.000000
_cell_volume 3137.043029
_symmetry_space_group_name_H-M "F D D 2"
_symmetry_group_IT_number 43
_symmetry_cell_setting 'orthorhombic'
loop_
_space_group_symop_operation_xyz
x,y,z
-x,-y,z
1/4-x,1/4+y,1/4+z
1/4+x,1/4-y,1/4+z
x,1/2+y,1/2+z
-x,1/2-y,1/2+z
1/4-x,3/4+y,3/4+z
1/4+x,3/4-y,3/4+z
1/2+x,y,1/2+z
1/2-x,-y,1/2+z
3/4-x,1/4+y,3/4+z
3/4+x,1/4-y,3/4+z
1/2+x,1/2+y,z
1/2-x,1/2-y,z
3/4-x,3/4+y,1/4+z
3/4+x,3/4-y,1/4+z
loop_
_atom_site_type_symbol
_atom_site_label
_atom_site_fract_x
_atom_site_fract_y
_atom_site_fract_z
Si Si1 0.147949 0.915199 0.289190
Si Si2 0.768838 0.513755 0.201057
Si Si3 0.750000 0.250000 0.831526
Si Si4 0.776703 0.674215 0.126776
Si Si5 0.337602 0.685586 0.176047
Si Si6 0.424967 0.387418 0.013625
O O1 0.140375 0.960936 0.229053
O O2 0.322374 0.953991 0.327252
O O3 0.004977 0.909729 0.354667
O O4 0.173756 0.856599 0.242648
O O5 0.687211 0.515359 0.125858
O O6 0.740552 0.574476 0.241779
O O7 0.000000 0.500000 0.200359
O O8 0.706095 0.192798 0.788603
O O9 0.568429 0.691834 0.156259
O O10 0.903959 0.656847 0.191174
O O11 0.722337 0.624743 0.073370
O O12 0.250000 0.750000 0.187840
#
# Coordination Sequence:
#
# PCOD9372900 Si02
#       6
#    16  16   8  16  16  16
#     4  12  29  52  83 125 169 233 289 367 439 526
#     4  12  28  54  83 124 176 231 294 361 436 524
#     4  12  30  54  88 128 178 228 294 364 440 524
#     4  12  26  53  79 120 174 224 289 362 435 516
#     4  12  30  53  86 126 177 228 298 357 443 528
#     4  12  26  52  85 120 171 229 285 361 439 516
#
# _framework density 28.051895999999999
#
# number of rings (size 3 to 8) (size 9 to 14) (size 15 to 20)
#    0.000    0.000    3.636    4.364    3.818    4.364 
#    3.273    0.000    0.000    0.000    0.000    0.000 
#    0.000    0.000    0.000    0.000    0.000    0.000 
#
# Total GULP energy -122568.835211 kJ/mol
# GULP energy per Si atom -5571.310691 kJ/mol
# Density = 2.798805 g / cm^3
# Si number density = 28.051896 Si / 1000 Ang^3
#
#
#
# Elastic Constant Matrix: (Units=GPa)
#
#
# Indices 1 2 3 4 5 6 
#
# 1 107.4922 26.2739 33.7262 0.0000 0.0000 0.0000
# 2 26.2739 212.7872 86.4548 0.0000 0.0000 0.0000
# 3 33.7262 86.4548 188.7717 0.0000 0.0000 0.0000
# 4 0.0000 0.0000 0.0000 50.4844 0.0000 0.0000
# 5 0.0000 0.0000 0.0000 0.0000 47.0147 0.0000
# 6 0.0000 0.0000 0.0000 0.0000 0.0000 1.9399
#
#
#
# Elastic Compliance Matrix: (Units=1/GPa)
#
#
# Indices 1 2 3 4 5 6 
#
# 1 0.009922 -0.000620 -0.001489 0.000000 0.000000 0.000000
# 2 -0.000620 0.005813 -0.002551 0.000000 0.000000 0.000000
# 3 -0.001489 -0.002551 0.006732 0.000000 0.000000 0.000000
# 4 0.000000 0.000000 0.000000 0.019808 0.000000 0.000000
# 5 0.000000 0.000000 0.000000 0.000000 0.021270 0.000000
# 6 0.000000 0.000000 0.000000 0.000000 0.000000 0.515481
#
#
# Mechanical properties :
#
#
# Convention : Reuss Voigt Hill
#
# Bulk Modulus (GPa) = 76.06935 89.10675 82.58805
# Shear Modulus (GPa) = 8.43557 44.06088 26.24823
#
# Velocity S-wave (km/s) = 1.73599 3.96749 3.06224
# Velocity P-wave (km/s) = 5.58520 7.26787 6.48137
#
# Compressibility (1/GPa) = 0.01314590
#
# Stress axis : x y z
#
# Youngs Moduli (GPa) = 100.78973 172.03665 148.54830
#
# Poissons Ratio (x) = 0.10671 0.22112
# Poissons Ratio (y) = 0.06252 0.37899
# Poissons Ratio (z) = 0.15003 0.43892
#
# Static dielectric constant tensor:
#      x y z
#    x 2.686870 0.000000 0.000000 
#    y 0.000000 2.013850 0.000000 
#    z 0.000000 0.000000 2.097790 
# 
# From -- ./inp_files/16389.got.cif
#   From: 2010.05.17/outbox.cif.g08.bks.cpg/sg43_9_cif.got.tgz:16389.got - 2010.06.03 19:21:55.
