data_PCOD9372268
_publ_section_title
;
Structure prediction by ZEFSAII (Michael W. Deem and Ramdas Pophale) SiO2 
 PCOD9372268
Probable space group: F D D 2
;
_chemical_formula_sum "Si O2"
_cell_formula_units_Z 72
_cell_length_a 17.156955
_cell_length_b 17.610341
_cell_length_c 9.695053
_cell_angle_alpha 90.000000
_cell_angle_beta 90.000000
_cell_angle_gamma 90.000000
_cell_volume 2929.261647
_symmetry_space_group_name_H-M "F D D 2"
_symmetry_group_IT_number 43
_symmetry_cell_setting 'orthorhombic'
loop_
_space_group_symop_operation_xyz
x,y,z
-x,-y,z
1/4-x,1/4+y,1/4+z
1/4+x,1/4-y,1/4+z
x,1/2+y,1/2+z
-x,1/2-y,1/2+z
1/4-x,3/4+y,3/4+z
1/4+x,3/4-y,3/4+z
1/2+x,y,1/2+z
1/2-x,-y,1/2+z
3/4-x,1/4+y,3/4+z
3/4+x,1/4-y,3/4+z
1/2+x,1/2+y,z
1/2-x,1/2-y,z
3/4-x,3/4+y,1/4+z
3/4+x,3/4-y,1/4+z
loop_
_atom_site_type_symbol
_atom_site_label
_atom_site_fract_x
_atom_site_fract_y
_atom_site_fract_z
Si Si1 0.093306 0.420358 0.021940
Si Si2 0.750000 0.250000 0.479147
Si Si3 0.696727 0.504933 0.742988
Si Si4 0.875802 0.507733 0.731396
Si Si5 0.112720 0.921729 0.953043
O O1 0.014243 0.434860 0.108397
O O2 0.161406 0.454954 0.119003
O O3 0.105561 0.330730 0.002031
O O4 0.092666 0.462319 0.876056
O O5 0.698638 0.202488 0.591358
O O6 0.784517 0.528352 0.720085
O O7 0.689886 0.460894 0.888014
O O8 0.913335 0.548323 0.600835
O O9 0.876790 0.417385 0.712450
#
# Coordination Sequence:
#
# PCOD9372268 Si02
#       5
#    16   8  16  16  16
#     4  11  26  46  76 103 146 193 244 291 370 425
#     4  10  26  46  74  96 144 198 234 288 368 432
#     4  11  26  47  74 105 148 193 242 293 369 442
#     4  12  27  46  72 113 144 185 251 308 350 442
#     4  11  26  45  73 103 149 188 245 297 375 416
#
# _framework density 24.579574000000001
#
# number of rings (size 3 to 8) (size 9 to 14) (size 15 to 20)
#    0.000    0.889    0.000    5.333   18.667    0.889 
#    0.000    0.000    0.000    0.000    0.000    0.000 
#    0.000    0.000    0.000    0.000    0.000    0.000 
#
# Total GULP energy -100465.830445 kJ/mol
# GULP energy per Si atom -5581.435025 kJ/mol
# Density = 2.452363 g / cm^3
# Si number density = 24.579574 Si / 1000 Ang^3
#
#
#
# Elastic Constant Matrix: (Units=GPa)
#
#
# Indices 1 2 3 4 5 6 
#
# 1 42.5213 9.7620 30.2900 0.0000 0.0000 0.0000
# 2 9.7620 164.3191 67.3607 0.0000 0.0000 0.0000
# 3 30.2900 67.3607 201.3025 0.0000 0.0000 0.0000
# 4 0.0000 0.0000 0.0000 -57.1461 0.0000 0.0000
# 5 0.0000 0.0000 0.0000 0.0000 96.9736 0.0000
# 6 0.0000 0.0000 0.0000 0.0000 0.0000 19.5545
#
#
#
# Elastic Compliance Matrix: (Units=1/GPa)
#
#
# Indices 1 2 3 4 5 6 
#
# 1 0.026342 0.000069 -0.003987 0.000000 0.000000 0.000000
# 2 0.000069 0.007053 -0.002371 0.000000 0.000000 0.000000
# 3 -0.003987 -0.002371 0.006361 0.000000 0.000000 0.000000
# 4 0.000000 0.000000 0.000000 -0.017499 0.000000 0.000000
# 5 0.000000 0.000000 0.000000 0.000000 0.010312 0.000000
# 6 0.000000 0.000000 0.000000 0.000000 0.000000 0.051139
#
#
# Mechanical properties :
#
#
# Convention : Reuss Voigt Hill
#
# Bulk Modulus (GPa) = 36.79207 69.21870 53.00539
# Shear Modulus (GPa) = 47.46330 31.92506 39.69418
#
# Velocity S-wave (km/s) = 4.39909 3.60786 4.02297
# Velocity P-wave (km/s) = 6.38778 6.75113 6.57196
#
# Compressibility (1/GPa) = 0.02717977
#
# Stress axis : x y z
#
# Youngs Moduli (GPa) = 37.96253 141.77491 157.21166
#
# Poissons Ratio (x) = -0.00985 0.62679
# Poissons Ratio (y) = -0.00264 0.37270
# Poissons Ratio (z) = 0.15135 0.33611
#
# Static dielectric constant tensor:
#      x y z
#    x 2.325280 0.000000 0.000000 
#    y 0.000000 2.505620 0.000000 
#    z 0.000000 0.000000 1.910810 
# 
# From -- ./inp_files/2657.got.cif
#   From: 2010.05.17/outbox.cif.g08.bks.cpg/sg43_2_cif.got.tgz:2657.got - 2010.06.03 19:21:55.
