data_PCOD9372787
_publ_section_title
;
Structure prediction by ZEFSAII (Michael W. Deem and Ramdas Pophale) SiO2 
 PCOD9372787
Probable space group: F D D 2
;
_chemical_formula_sum "Si O2"
_cell_formula_units_Z 96
_cell_length_a 27.142449
_cell_length_b 17.610177
_cell_length_c 10.020194
_cell_angle_alpha 90.000000
_cell_angle_beta 90.000000
_cell_angle_gamma 90.000000
_cell_volume 4789.485706
_symmetry_space_group_name_H-M "F D D 2"
_symmetry_group_IT_number 43
_symmetry_cell_setting 'orthorhombic'
loop_
_space_group_symop_operation_xyz
x,y,z
-x,-y,z
1/4-x,1/4+y,1/4+z
1/4+x,1/4-y,1/4+z
x,1/2+y,1/2+z
-x,1/2-y,1/2+z
1/4-x,3/4+y,3/4+z
1/4+x,3/4-y,3/4+z
1/2+x,y,1/2+z
1/2-x,-y,1/2+z
3/4-x,1/4+y,3/4+z
3/4+x,1/4-y,3/4+z
1/2+x,1/2+y,z
1/2-x,1/2-y,z
3/4-x,3/4+y,1/4+z
3/4+x,3/4-y,1/4+z
loop_
_atom_site_type_symbol
_atom_site_label
_atom_site_fract_x
_atom_site_fract_y
_atom_site_fract_z
Si Si1 0.989432 0.914844 0.964200
Si Si2 0.767249 0.935091 0.461749
Si Si3 0.524729 0.578106 0.427640
Si Si4 0.117102 0.626061 0.363713
Si Si5 0.875528 0.945771 0.577387
Si Si6 0.474881 0.147335 0.189839
O O1 0.009572 0.854102 0.069384
O O2 0.931578 0.900853 0.939356
O O3 0.015302 0.901704 0.821465
O O4 0.000000 0.000000 0.011120
O O5 0.732172 0.892296 0.566952
O O6 0.822744 0.925787 0.515175
O O7 0.753517 0.023462 0.454488
O O8 0.500000 0.500000 0.379306
O O9 0.580656 0.564611 0.472028
O O10 0.495078 0.604013 0.559897
O O11 0.113209 0.604206 0.207834
O O12 0.123037 0.716656 0.373136
O O13 0.167005 0.589181 0.419191
#
# Coordination Sequence:
#
# PCOD9372787 Si02
#       6
#    16  16  16  16  16  16
#     4  12  26  44  66 103 140 172 223 290 346 398
#     4  12  26  43  66 104 143 169 220 297 346 391
#     4  12  23  43  71  98 128 185 233 273 334 417
#     4  12  24  42  74  97 132 183 233 275 337 417
#     4  12  22  43  71  99 130 182 233 275 336 417
#     4  12  23  44  70 100 131 182 233 277 334 412
#
# _framework density 20.043906
#
# number of rings (size 3 to 8) (size 9 to 14) (size 15 to 20)
#    0.000    0.000    6.667    4.000    0.000    2.667 
#    0.000    0.000    0.000    0.000    0.000    0.000 
#    0.000    0.000    0.000    0.000    0.000    0.000 
#
# Total GULP energy -134400.423189 kJ/mol
# GULP energy per Si atom -5600.017633 kJ/mol
# Density = 1.999828 g / cm^3
# Si number density = 20.043906 Si / 1000 Ang^3
#
#
#
# Elastic Constant Matrix: (Units=GPa)
#
#
# Indices 1 2 3 4 5 6 
#
# 1 103.1430 2.9158 -6.8651 0.0000 0.0000 0.0000
# 2 2.9158 65.7771 -5.4788 0.0000 0.0000 0.0000
# 3 -6.8651 -5.4788 51.8166 0.0000 0.0000 0.0000
# 4 0.0000 0.0000 0.0000 20.5268 0.0000 0.0000
# 5 0.0000 0.0000 0.0000 0.0000 23.4711 0.0000
# 6 0.0000 0.0000 0.0000 0.0000 0.0000 24.4401
#
#
#
# Elastic Compliance Matrix: (Units=1/GPa)
#
#
# Indices 1 2 3 4 5 6 
#
# 1 0.009789 -0.000329 0.001262 0.000000 0.000000 0.000000
# 2 -0.000329 0.015349 0.001579 0.000000 0.000000 0.000000
# 3 0.001262 0.001579 0.019633 0.000000 0.000000 0.000000
# 4 0.000000 0.000000 0.000000 0.048717 0.000000 0.000000
# 5 0.000000 0.000000 0.000000 0.000000 0.042606 0.000000
# 6 0.000000 0.000000 0.000000 0.000000 0.000000 0.040916
#
#
# Mechanical properties :
#
#
# Convention : Reuss Voigt Hill
#
# Bulk Modulus (GPa) = 20.08198 22.43119 21.25659
# Shear Modulus (GPa) = 26.51358 29.03192 27.77275
#
# Velocity S-wave (km/s) = 3.64094 3.80994 3.72640
# Velocity P-wave (km/s) = 5.26460 5.52897 5.39840
#
# Compressibility (1/GPa) = 0.04979588
#
# Stress axis : x y z
#
# Youngs Moduli (GPa) = 102.15990 65.15095 50.93458
#
# Poissons Ratio (x) = 0.02142 -0.06428
# Poissons Ratio (y) = 0.03359 -0.08044
# Poissons Ratio (z) = -0.12894 -0.10290
#
# Static dielectric constant tensor:
#      x y z
#    x 1.637150 0.000000 0.000000 
#    y 0.000000 1.678900 0.000000 
#    z 0.000000 0.000000 1.674820 
# 
# From -- ./inp_files/7931.got.cif
#   From: 2010.05.17/outbox.cif.g08.bks.cpg/sg43_4_cif.got.tgz:7931.got - 2010.06.03 19:21:55.
