data_PCOD9372699
_publ_section_title
;
Structure prediction by ZEFSAII (Michael W. Deem and Ramdas Pophale) SiO2 
 PCOD9372699
Probable space group: F D D 2
;
_chemical_formula_sum "Si O2"
_cell_formula_units_Z 88
_cell_length_a 10.878078
_cell_length_b 27.118092
_cell_length_c 12.858459
_cell_angle_alpha 90.000000
_cell_angle_beta 90.000000
_cell_angle_gamma 90.000000
_cell_volume 3793.151795
_symmetry_space_group_name_H-M "F D D 2"
_symmetry_group_IT_number 43
_symmetry_cell_setting 'orthorhombic'
loop_
_space_group_symop_operation_xyz
x,y,z
-x,-y,z
1/4-x,1/4+y,1/4+z
1/4+x,1/4-y,1/4+z
x,1/2+y,1/2+z
-x,1/2-y,1/2+z
1/4-x,3/4+y,3/4+z
1/4+x,3/4-y,3/4+z
1/2+x,y,1/2+z
1/2-x,-y,1/2+z
3/4-x,1/4+y,3/4+z
3/4+x,1/4-y,3/4+z
1/2+x,1/2+y,z
1/2-x,1/2-y,z
3/4-x,3/4+y,1/4+z
3/4+x,3/4-y,1/4+z
loop_
_atom_site_type_symbol
_atom_site_label
_atom_site_fract_x
_atom_site_fract_y
_atom_site_fract_z
Si Si1 0.612129 0.822903 0.527070
Si Si2 0.952247 0.947070 0.505976
Si Si3 0.067127 0.682532 0.774964
Si Si4 0.875524 0.854531 0.899898
Si Si5 0.268717 0.307942 0.090630
Si Si6 0.000000 0.500000 0.635458
O O1 0.652749 0.798105 0.637226
O O2 0.628673 0.880087 0.557147
O O3 0.494157 0.824786 0.446859
O O4 0.711475 0.796928 0.452785
O O5 0.823278 0.933043 0.558259
O O6 0.062561 0.910947 0.540872
O O7 0.000000 0.000000 0.541306
O O8 0.102384 0.684081 0.652054
O O9 0.138091 0.729784 0.817618
O O10 0.914143 0.912030 0.903224
O O11 0.776235 0.838371 0.985018
O O12 0.250000 0.250000 0.077242
#
# Coordination Sequence:
#
# PCOD9372699 Si02
#       6
#    16  16  16  16  16   8
#     4  11  25  48  71 108 150 193 254 320 386 476
#     4  12  25  48  72 110 151 195 259 323 394 465
#     4  11  25  45  74 107 147 200 257 315 385 481
#     4  11  27  47  74 110 154 199 263 324 386 474
#     4  11  25  49  77 109 157 206 259 320 402 476
#     4  12  24  46  78 104 146 208 248 312 414 454
#
# _framework density 23.199703
#
# number of rings (size 3 to 8) (size 9 to 14) (size 15 to 20)
#    0.000    0.727    3.636    2.727   10.182    1.455 
#    3.273    0.000    0.000    0.000    0.000    0.000 
#    0.000    0.000    0.000    0.000    0.000    0.000 
#
# Total GULP energy -122484.657991 kJ/mol
# GULP energy per Si atom -5567.484454 kJ/mol
# Density = 2.314690 g / cm^3
# Si number density = 23.199703 Si / 1000 Ang^3
#
#
#
# Elastic Constant Matrix: (Units=GPa)
#
#
# Indices 1 2 3 4 5 6 
#
# 1 127.3815 35.4996 23.1793 0.0000 0.0000 0.0000
# 2 35.4996 111.2245 1.1188 0.0000 0.0000 0.0000
# 3 23.1793 1.1188 55.7686 0.0000 0.0000 0.0000
# 4 0.0000 0.0000 0.0000 4.4401 0.0000 0.0000
# 5 0.0000 0.0000 0.0000 0.0000 19.7311 0.0000
# 6 0.0000 0.0000 0.0000 0.0000 0.0000 38.6398
#
#
#
# Elastic Compliance Matrix: (Units=1/GPa)
#
#
# Indices 1 2 3 4 5 6 
#
# 1 0.009371 -0.002952 -0.003836 0.000000 0.000000 0.000000
# 2 -0.002952 0.009923 0.001028 0.000000 0.000000 0.000000
# 3 -0.003836 0.001028 0.019505 0.000000 0.000000 0.000000
# 4 0.000000 0.000000 0.000000 0.225218 0.000000 0.000000
# 5 0.000000 0.000000 0.000000 0.000000 0.050681 0.000000
# 6 0.000000 0.000000 0.000000 0.000000 0.000000 0.025880
#
#
# Mechanical properties :
#
#
# Convention : Reuss Voigt Hill
#
# Bulk Modulus (GPa) = 36.65871 45.99667 41.32769
# Shear Modulus (GPa) = 13.84305 28.20068 21.02187
#
# Velocity S-wave (km/s) = 2.44538 3.49027 3.01346
# Velocity P-wave (km/s) = 4.87943 6.00934 5.47362
#
# Compressibility (1/GPa) = 0.02727865
#
# Stress axis : x y z
#
# Youngs Moduli (GPa) = 106.70963 100.77792 51.26922
#
# Poissons Ratio (x) = 0.29754 0.19666
# Poissons Ratio (y) = 0.31505 -0.05271
# Poissons Ratio (z) = 0.40931 -0.10361
#
# Static dielectric constant tensor:
#      x y z
#    x 1.896480 0.000000 0.000000 
#    y 0.000000 1.804330 0.000000 
#    z 0.000000 0.000000 2.032410 
# 
# From -- ./inp_files/9582.got.cif
#   From: 2010.05.17/outbox.cif.g08.bks.cpg/sg43_5_cif.got.tgz:9582.got - 2010.06.03 19:21:55.
