data_PCOD9372615
_publ_section_title
;
Structure prediction by ZEFSAII (Michael W. Deem and Ramdas Pophale) SiO2 
 PCOD9372615
Probable space group: F D D 2
;
_chemical_formula_sum "Si O2"
_cell_formula_units_Z 88
_cell_length_a 26.658034
_cell_length_b 13.354492
_cell_length_c 9.703438
_cell_angle_alpha 90.000000
_cell_angle_beta 90.000000
_cell_angle_gamma 90.000000
_cell_volume 3454.467611
_symmetry_space_group_name_H-M "F D D 2"
_symmetry_group_IT_number 43
_symmetry_cell_setting 'orthorhombic'
loop_
_space_group_symop_operation_xyz
x,y,z
-x,-y,z
1/4-x,1/4+y,1/4+z
1/4+x,1/4-y,1/4+z
x,1/2+y,1/2+z
-x,1/2-y,1/2+z
1/4-x,3/4+y,3/4+z
1/4+x,3/4-y,3/4+z
1/2+x,y,1/2+z
1/2-x,-y,1/2+z
3/4-x,1/4+y,3/4+z
3/4+x,1/4-y,3/4+z
1/2+x,1/2+y,z
1/2-x,1/2-y,z
3/4-x,3/4+y,1/4+z
3/4+x,3/4-y,1/4+z
loop_
_atom_site_type_symbol
_atom_site_label
_atom_site_fract_x
_atom_site_fract_y
_atom_site_fract_z
Si Si1 0.819613 0.908127 0.429190
Si Si2 0.564051 0.126747 0.298458
Si Si3 0.250000 0.750000 0.344194
Si Si4 0.214745 0.377999 0.350718
Si Si5 0.386876 0.216503 0.405987
Si Si6 0.924508 0.160222 0.599166
O O1 0.765481 0.855251 0.430789
O O2 0.822979 0.950057 0.273732
O O3 0.864690 0.828275 0.429994
O O4 0.819932 0.003392 0.529813
O O5 0.542871 0.088941 0.445506
O O6 0.619733 0.082229 0.281509
O O7 0.526715 0.083804 0.186799
O O8 0.297223 0.813023 0.287266
O O9 0.164042 0.347232 0.427791
O O10 0.210365 0.496387 0.329100
O O11 0.410012 0.172018 0.263264
#
# Coordination Sequence:
#
# PCOD9372615 Si02
#       6
#    16  16   8  16  16  16
#     4  12  26  44  70 101 140 181 231 295 358 411
#     4  11  26  41  73 100 139 186 240 290 353 420
#     4  12  24  46  70 100 142 188 240 288 352 424
#     4  11  24  45  68 100 135 183 236 281 351 425
#     4  11  25  45  69  99 139 179 234 290 347 424
#     4  11  24  45  68 102 136 187 231 291 348 428
#
# _framework density 25.474259
#
# number of rings (size 3 to 8) (size 9 to 14) (size 15 to 20)
#    0.000    0.727    3.636    3.818   12.727    0.000 
#    0.000    0.000    0.000    0.000    0.000    0.000 
#    0.000    0.000    0.000    0.000    0.000    0.000 
#
# Total GULP energy -122907.884607 kJ/mol
# GULP energy per Si atom -5586.722028 kJ/mol
# Density = 2.541628 g / cm^3
# Si number density = 25.474259 Si / 1000 Ang^3
#
#
#
# Elastic Constant Matrix: (Units=GPa)
#
#
# Indices 1 2 3 4 5 6 
#
# 1 99.4484 12.0504 15.1774 0.0000 0.0000 0.0000
# 2 12.0504 106.8986 -8.4679 0.0000 0.0000 0.0000
# 3 15.1774 -8.4679 41.4728 0.0000 0.0000 0.0000
# 4 0.0000 0.0000 0.0000 20.8001 0.0000 0.0000
# 5 0.0000 0.0000 0.0000 0.0000 15.3832 0.0000
# 6 0.0000 0.0000 0.0000 0.0000 0.0000 59.4620
#
#
#
# Elastic Compliance Matrix: (Units=1/GPa)
#
#
# Indices 1 2 3 4 5 6 
#
# 1 0.010904 -0.001571 -0.004311 0.000000 0.000000 0.000000
# 2 -0.001571 0.009735 0.002562 0.000000 0.000000 0.000000
# 3 -0.004311 0.002562 0.026213 0.000000 0.000000 0.000000
# 4 0.000000 0.000000 0.000000 0.048077 0.000000 0.000000
# 5 0.000000 0.000000 0.000000 0.000000 0.065006 0.000000
# 6 0.000000 0.000000 0.000000 0.000000 0.000000 0.016817
#
#
# Mechanical properties :
#
#
# Convention : Reuss Voigt Hill
#
# Bulk Modulus (GPa) = 24.86761 31.70442 28.28601
# Shear Modulus (GPa) = 25.40722 34.39972 29.90347
#
# Velocity S-wave (km/s) = 3.16154 3.67873 3.42990
# Velocity P-wave (km/s) = 4.80730 5.52419 5.17817
#
# Compressibility (1/GPa) = 0.04021295
#
# Stress axis : x y z
#
# Youngs Moduli (GPa) = 91.71187 102.72541 38.14891
#
# Poissons Ratio (x) = 0.16134 0.16446
# Poissons Ratio (y) = 0.14405 -0.09775
# Poissons Ratio (z) = 0.39537 -0.26322
#
# Static dielectric constant tensor:
#      x y z
#    x 1.934940 0.000000 0.000000 
#    y 0.000000 2.098580 0.000000 
#    z 0.000000 0.000000 2.001090 
# 
# From -- ./inp_files/5746.got.cif
#   From: 2010.05.17/outbox.cif.g08.bks.cpg/sg43_3_cif.got.tgz:5746.got - 2010.06.03 19:21:55.
