data_PCOD9372359
_publ_section_title
;
Structure prediction by ZEFSAII (Michael W. Deem and Ramdas Pophale) SiO2 
 PCOD9372359
Probable space group: F D D 2
;
_chemical_formula_sum "Si O2"
_cell_formula_units_Z 96
_cell_length_a 8.114424
_cell_length_b 24.137011
_cell_length_c 18.509923
_cell_angle_alpha 90.000000
_cell_angle_beta 90.000000
_cell_angle_gamma 90.000000
_cell_volume 3625.315413
_symmetry_space_group_name_H-M "F D D 2"
_symmetry_group_IT_number 43
_symmetry_cell_setting 'orthorhombic'
loop_
_space_group_symop_operation_xyz
x,y,z
-x,-y,z
1/4-x,1/4+y,1/4+z
1/4+x,1/4-y,1/4+z
x,1/2+y,1/2+z
-x,1/2-y,1/2+z
1/4-x,3/4+y,3/4+z
1/4+x,3/4-y,3/4+z
1/2+x,y,1/2+z
1/2-x,-y,1/2+z
3/4-x,1/4+y,3/4+z
3/4+x,1/4-y,3/4+z
1/2+x,1/2+y,z
1/2-x,1/2-y,z
3/4-x,3/4+y,1/4+z
3/4+x,3/4-y,1/4+z
loop_
_atom_site_type_symbol
_atom_site_label
_atom_site_fract_x
_atom_site_fract_y
_atom_site_fract_z
Si Si1 0.379956 0.458453 0.069320
Si Si2 0.558123 0.232673 0.039730
Si Si3 0.588943 0.374254 0.237883
Si Si4 0.517288 0.933941 0.123622
Si Si5 0.286587 0.599014 0.746223
Si Si6 0.432238 0.239945 0.695162
O O1 0.500000 0.500000 0.112943
O O2 0.205575 0.436785 0.096173
O O3 0.464272 0.401688 0.047967
O O4 0.323412 0.497192 0.001946
O O5 0.750000 0.250000 0.037191
O O6 0.543222 0.178051 0.990831
O O7 0.448946 0.285846 0.022661
O O8 0.533689 0.223558 0.125033
O O9 0.640281 0.342798 0.314698
O O10 0.405861 0.397762 0.223871
O O11 0.590662 0.325275 0.179112
O O12 0.555672 0.895512 0.193283
O O13 0.500000 0.000000 0.139545
O O14 0.250000 0.250000 0.726299
#
# Coordination Sequence:
#
# PCOD9372359 Si02
#       6
#    16  16  16  16  16  16
#     4  12  23  41  68 104 135 189 253 304 381 475
#     4   9  23  42  65 104 138 182 246 304 385 454
#     4  11  21  47  71  99 148 200 252 317 385 474
#     4  12  25  47  69 105 150 189 248 318 387 471
#     4  11  26  43  68 107 142 186 249 318 387 458
#     4  11  20  43  73  97 139 196 247 307 391 474
#
# _framework density 26.480453000000001
#
# number of rings (size 3 to 8) (size 9 to 14) (size 15 to 20)
#    0.000    1.000    5.000    1.000    2.333    3.333 
#    9.000    0.833    0.000    0.000    0.000    0.000 
#    0.000    0.000    0.000    0.000    0.000    0.000 
#
# Total GULP energy -133774.065312 kJ/mol
# GULP energy per Si atom -5573.919388 kJ/mol
# Density = 2.642018 g / cm^3
# Si number density = 26.480453 Si / 1000 Ang^3
#
#
#
# Elastic Constant Matrix: (Units=GPa)
#
#
# Indices 1 2 3 4 5 6 
#
# 1 86.1662 1.5025 24.9582 0.0000 0.0000 0.0000
# 2 1.5025 155.7222 17.7373 0.0000 0.0000 0.0000
# 3 24.9582 17.7373 54.5226 0.0000 0.0000 0.0000
# 4 0.0000 0.0000 0.0000 21.7649 0.0000 0.0000
# 5 0.0000 0.0000 0.0000 0.0000 18.3499 0.0000
# 6 0.0000 0.0000 0.0000 0.0000 0.0000 42.3636
#
#
#
# Elastic Compliance Matrix: (Units=1/GPa)
#
#
# Indices 1 2 3 4 5 6 
#
# 1 0.013432 0.000593 -0.006341 0.000000 0.000000 0.000000
# 2 0.000593 0.006695 -0.002449 0.000000 0.000000 0.000000
# 3 -0.006341 -0.002449 0.022041 0.000000 0.000000 0.000000
# 4 0.000000 0.000000 0.000000 0.045945 0.000000 0.000000
# 5 0.000000 0.000000 0.000000 0.000000 0.054496 0.000000
# 6 0.000000 0.000000 0.000000 0.000000 0.000000 0.023605
#
#
# Mechanical properties :
#
#
# Convention : Reuss Voigt Hill
#
# Bulk Modulus (GPa) = 38.80253 42.75634 40.77943
# Shear Modulus (GPa) = 26.15050 33.30990 29.73020
#
# Velocity S-wave (km/s) = 3.14592 3.55054 3.35434
# Velocity P-wave (km/s) = 5.28023 5.74368 5.51683
#
# Compressibility (1/GPa) = 0.02577152
#
# Stress axis : x y z
#
# Youngs Moduli (GPa) = 74.44939 149.36607 45.37072
#
# Poissons Ratio (x) = -0.08853 0.28771
# Poissons Ratio (y) = -0.04413 0.11113
# Poissons Ratio (z) = 0.47211 0.36585
#
# Static dielectric constant tensor:
#      x y z
#    x 2.580260 0.000000 0.000000 
#    y 0.000000 2.143060 0.000000 
#    z 0.000000 0.000000 2.298250 
# 
# From -- ./inp_files/20294.got.cif
#   From: 2010.05.17/outbox.cif.g08.bks.cpg/sg43_11_cif.got.tgz:20294.got - 2010.06.03 19:21:55.
