data_PCOD9372066
_publ_section_title
;
Structure prediction by ZEFSAII (Michael W. Deem and Ramdas Pophale) SiO2 
 PCOD9372066
Probable space group: F D D 2
;
_chemical_formula_sum "Si O2"
_cell_formula_units_Z 72
_cell_length_a 12.395950
_cell_length_b 14.212413
_cell_length_c 15.260653
_cell_angle_alpha 90.000000
_cell_angle_beta 90.000000
_cell_angle_gamma 90.000000
_cell_volume 2688.566311
_symmetry_space_group_name_H-M "F D D 2"
_symmetry_group_IT_number 43
_symmetry_cell_setting 'orthorhombic'
loop_
_space_group_symop_operation_xyz
x,y,z
-x,-y,z
1/4-x,1/4+y,1/4+z
1/4+x,1/4-y,1/4+z
x,1/2+y,1/2+z
-x,1/2-y,1/2+z
1/4-x,3/4+y,3/4+z
1/4+x,3/4-y,3/4+z
1/2+x,y,1/2+z
1/2-x,-y,1/2+z
3/4-x,1/4+y,3/4+z
3/4+x,1/4-y,3/4+z
1/2+x,1/2+y,z
1/2-x,1/2-y,z
3/4-x,3/4+y,1/4+z
3/4+x,3/4-y,1/4+z
loop_
_atom_site_type_symbol
_atom_site_label
_atom_site_fract_x
_atom_site_fract_y
_atom_site_fract_z
Si Si1 0.561329 0.376731 0.559330
Si Si2 0.357968 0.584889 0.752296
Si Si3 0.633625 0.096323 0.682283
Si Si4 0.435018 0.602973 0.263885
Si Si5 0.250000 0.250000 0.672373
O O1 0.592002 0.404237 0.656784
O O2 0.602965 0.274357 0.531340
O O3 0.431017 0.380353 0.550611
O O4 0.590515 0.453685 0.484533
O O5 0.235939 0.622894 0.740126
O O6 0.413123 0.640601 0.831215
O O7 0.522325 0.152697 0.701312
O O8 0.603790 0.989794 0.708871
O O9 0.510612 0.582449 0.349964
#
# Coordination Sequence:
#
# PCOD9372066 Si02
#       5
#    16  16  16  16   8
#     4  11  27  45  75 107 152 192 246 314 385 440
#     4  11  26  47  71 113 148 194 244 319 376 445
#     4   9  22  45  71 104 145 193 249 297 372 445
#     4   9  23  47  72 102 134 204 249 297 356 464
#     4  10  24  44  68 100 144 188 250 294 366 452
#
# _framework density 26.780072000000001
#
# number of rings (size 3 to 8) (size 9 to 14) (size 15 to 20)
#    0.000    2.222    0.000    0.000   15.556    4.444 
#    8.000    0.000    0.000    0.000    0.000    0.000 
#    0.000    0.000    0.000    0.000    0.000    0.000 
#
# Total GULP energy -100386.860001 kJ/mol
# GULP energy per Si atom -5577.047778 kJ/mol
# Density = 2.671912 g / cm^3
# Si number density = 26.780072 Si / 1000 Ang^3
#
#
#
# Elastic Constant Matrix: (Units=GPa)
#
#
# Indices 1 2 3 4 5 6 
#
# 1 92.3118 23.4399 18.4454 0.0000 0.0000 0.0000
# 2 23.4399 87.4403 72.9313 0.0000 0.0000 0.0000
# 3 18.4454 72.9313 208.2894 0.0000 0.0000 0.0000
# 4 0.0000 0.0000 0.0000 11.6851 0.0000 0.0000
# 5 0.0000 0.0000 0.0000 0.0000 46.3477 0.0000
# 6 0.0000 0.0000 0.0000 0.0000 0.0000 21.0965
#
#
#
# Elastic Compliance Matrix: (Units=1/GPa)
#
#
# Indices 1 2 3 4 5 6 
#
# 1 0.011625 -0.003189 0.000087 0.000000 0.000000 0.000000
# 2 -0.003189 0.017029 -0.005680 0.000000 0.000000 0.000000
# 3 0.000087 -0.005680 0.006782 0.000000 0.000000 0.000000
# 4 0.000000 0.000000 0.000000 0.085579 0.000000 0.000000
# 5 0.000000 0.000000 0.000000 0.000000 0.021576 0.000000
# 6 0.000000 0.000000 0.000000 0.000000 0.000000 0.047401
#
#
# Mechanical properties :
#
#
# Convention : Reuss Voigt Hill
#
# Bulk Modulus (GPa) = 55.95289 68.63054 62.29171
# Shear Modulus (GPa) = 23.41763 34.04083 28.72923
#
# Velocity S-wave (km/s) = 2.96031 3.56915 3.27889
# Velocity P-wave (km/s) = 5.71169 6.53209 6.13562
#
# Compressibility (1/GPa) = 0.01787218
#
# Stress axis : x y z
#
# Youngs Moduli (GPa) = 86.01998 58.72370 147.44537
#
# Poissons Ratio (x) = 0.18727 -0.01285
# Poissons Ratio (y) = 0.27432 0.83751
# Poissons Ratio (z) = -0.00749 0.33356
#
# Static dielectric constant tensor:
#      x y z
#    x 2.399450 0.000000 0.000000 
#    y 0.000000 2.373960 0.000000 
#    z 0.000000 0.000000 2.052730 
# 
# From -- ./inp_files/9961.got.cif
#   From: 2010.05.17/outbox.cif.g08.bks.cpg/sg43_5_cif.got.tgz:9961.got - 2010.06.03 19:21:55.
