data_PCOD9372474
_publ_section_title
;
Structure prediction by ZEFSAII (Michael W. Deem and Ramdas Pophale) SiO2 
 PCOD9372474
Probable space group: F D D 2
;
_chemical_formula_sum "Si O2"
_cell_formula_units_Z 120
_cell_length_a 26.099941
_cell_length_b 26.367444
_cell_length_c 7.970483
_cell_angle_alpha 90.000000
_cell_angle_beta 90.000000
_cell_angle_gamma 90.000000
_cell_volume 5485.196595
_symmetry_space_group_name_H-M "F D D 2"
_symmetry_group_IT_number 43
_symmetry_cell_setting 'orthorhombic'
loop_
_space_group_symop_operation_xyz
x,y,z
-x,-y,z
1/4-x,1/4+y,1/4+z
1/4+x,1/4-y,1/4+z
x,1/2+y,1/2+z
-x,1/2-y,1/2+z
1/4-x,3/4+y,3/4+z
1/4+x,3/4-y,3/4+z
1/2+x,y,1/2+z
1/2-x,-y,1/2+z
3/4-x,1/4+y,3/4+z
3/4+x,1/4-y,3/4+z
1/2+x,1/2+y,z
1/2-x,1/2-y,z
3/4-x,3/4+y,1/4+z
3/4+x,3/4-y,1/4+z
loop_
_atom_site_type_symbol
_atom_site_label
_atom_site_fract_x
_atom_site_fract_y
_atom_site_fract_z
Si Si1 0.003733 0.659593 0.268550
Si Si2 0.684922 0.340306 0.708732
Si Si3 0.089757 0.741868 0.240922
Si Si4 0.546819 0.334364 0.128408
Si Si5 0.063032 0.682783 0.724640
Si Si6 0.096761 0.436134 0.748909
Si Si7 0.750000 0.750000 0.366692
Si Si8 0.917022 0.706432 0.079784
O O1 0.973157 0.651862 0.442980
O O2 0.964073 0.668695 0.119430
O O3 0.043741 0.613633 0.283485
O O4 0.039127 0.709391 0.277503
O O5 0.676407 0.386048 0.844569
O O6 0.724849 0.297511 0.768975
O O7 0.630990 0.314534 0.679481
O O8 0.078059 0.782800 0.097186
O O9 0.100262 0.780102 0.392489
O O10 0.132870 0.703064 0.180986
O O11 0.497861 0.322946 0.247304
O O12 0.575368 0.380332 0.216079
O O13 0.102514 0.685084 0.878817
O O14 0.068334 0.737806 0.643338
O O15 0.049748 0.474570 0.706946
#
# Coordination Sequence:
#
# PCOD9372474 Si02
#       8
#    16  16  16  16  16  16   8  16
#     4  11  22  46  70 105 138 181 251 302 359 444
#     4  11  25  43  73 110 143 190 250 308 380 441
#     4  12  26  42  67 108 144 185 247 303 373 437
#     4  11  24  44  70 104 139 192 245 310 367 434
#     4  11  22  44  74 103 137 189 260 295 367 446
#     4  12  27  44  71 104 149 194 244 310 375 457
#     4  12  24  48  70 106 144 194 238 306 390 444
#     4  12  24  43  75 101 144 194 239 309 364 449
#
# _framework density 21.877064000000001
#
# number of rings (size 3 to 8) (size 9 to 14) (size 15 to 20)
#    0.000    0.533    8.000    1.600    5.600    0.000 
#    0.000    2.000    0.000    0.000    0.000    0.000 
#    0.000    0.000    0.000    0.000    0.000    0.000 
#
# Total GULP energy -167315.949239 kJ/mol
# GULP energy per Si atom -5577.198308 kJ/mol
# Density = 2.182727 g / cm^3
# Si number density = 21.877064 Si / 1000 Ang^3
#
#
#
# Elastic Constant Matrix: (Units=GPa)
#
#
# Indices 1 2 3 4 5 6 
#
# 1 76.2711 45.9933 38.8499 0.0082 -0.0048 -0.0103
# 2 45.9933 125.4940 31.0792 0.0020 0.0020 -0.0078
# 3 38.8499 31.0792 72.1674 -0.0059 0.0071 -0.0068
# 4 0.0082 0.0020 -0.0059 18.8785 0.0038 -0.0027
# 5 -0.0048 0.0020 0.0071 0.0038 13.1863 0.0027
# 6 -0.0103 -0.0078 -0.0068 -0.0027 0.0027 54.8398
#
#
#
# Elastic Compliance Matrix: (Units=1/GPa)
#
#
# Indices 1 2 3 4 5 6 
#
# 1 0.020956 -0.005470 -0.008926 -0.000011 0.000013 0.000002
# 2 -0.005470 0.010348 -0.001512 0.000001 -0.000003 0.000000
# 3 -0.008926 -0.001512 0.019313 0.000010 -0.000013 0.000000
# 4 -0.000011 0.000001 0.000010 0.052970 -0.000015 0.000003
# 5 0.000013 -0.000003 -0.000013 -0.000015 0.075836 -0.000004
# 6 0.000002 0.000000 0.000000 0.000003 -0.000004 0.018235
#
#
# Mechanical properties :
#
#
# Convention : Reuss Voigt Hill
#
# Bulk Modulus (GPa) = 53.18607 56.19749 54.69178
# Shear Modulus (GPa) = 21.20989 27.91492 24.56241
#
# Velocity S-wave (km/s) = 3.11706 3.57598 3.35438
# Velocity P-wave (km/s) = 6.10892 6.54169 6.32901
#
# Compressibility (1/GPa) = 0.01880192
#
# Stress axis : x y z
#
# Youngs Moduli (GPa) = 47.71903 96.64117 51.77967
#
# Poissons Ratio (x) = 0.52861 0.46217
# Poissons Ratio (y) = 0.26102 0.07827
# Poissons Ratio (z) = 0.42592 0.14609
#
# Static dielectric constant tensor:
#      x y z
#    x 1.836790 0.000000 0.000000 
#    y 0.000000 1.805340 0.000000 
#    z 0.000000 0.000000 1.908260 
# 
# From -- ./inp_files/3870.got.cif
#   From: 2010.05.17/outbox.cif.g08.bks.cpg/sg43_2_cif.got.tgz:3870.got - 2010.06.03 19:21:55.
