data_PCOD9372127
_publ_section_title
;
Structure prediction by ZEFSAII (Michael W. Deem and Ramdas Pophale) SiO2 
 PCOD9372127
Probable space group: F D D 2
;
_chemical_formula_sum "Si O2"
_cell_formula_units_Z 112
_cell_length_a 6.020092
_cell_length_b 31.103493
_cell_length_c 24.595144
_cell_angle_alpha 90.000000
_cell_angle_beta 90.000000
_cell_angle_gamma 90.000000
_cell_volume 4605.339613
_symmetry_space_group_name_H-M "F D D 2"
_symmetry_group_IT_number 43
_symmetry_cell_setting 'orthorhombic'
loop_
_space_group_symop_operation_xyz
x,y,z
-x,-y,z
1/4-x,1/4+y,1/4+z
1/4+x,1/4-y,1/4+z
x,1/2+y,1/2+z
-x,1/2-y,1/2+z
1/4-x,3/4+y,3/4+z
1/4+x,3/4-y,3/4+z
1/2+x,y,1/2+z
1/2-x,-y,1/2+z
3/4-x,1/4+y,3/4+z
3/4+x,1/4-y,3/4+z
1/2+x,1/2+y,z
1/2-x,1/2-y,z
3/4-x,3/4+y,1/4+z
3/4+x,3/4-y,1/4+z
loop_
_atom_site_type_symbol
_atom_site_label
_atom_site_fract_x
_atom_site_fract_y
_atom_site_fract_z
Si Si1 0.854732 0.078035 0.542900
Si Si2 0.000000 0.500000 0.966522
Si Si3 0.250000 0.250000 0.073569
Si Si4 0.358260 0.125689 0.206137
Si Si5 0.054307 0.373417 0.856892
Si Si6 0.946375 0.278387 0.472463
Si Si7 0.459593 0.314397 0.144166
Si Si8 0.030936 0.046630 0.125231
O O1 0.921957 0.037437 0.507189
O O2 0.651752 0.097111 0.509720
O O3 0.759067 0.065387 0.601388
O O4 0.043985 0.113023 0.554798
O O5 0.824039 0.474192 0.928497
O O6 0.261579 0.291823 0.110928
O O7 0.047063 0.244623 0.030973
O O8 0.547207 0.132431 0.160354
O O9 0.384577 0.077179 0.226553
O O10 0.135925 0.146155 0.180041
O O11 0.885914 0.413108 0.854227
O O12 0.917016 0.329263 0.866077
O O13 0.750000 0.250000 0.443348
O O14 0.165414 0.287580 0.437856
O O15 0.000000 0.000000 0.098250
#
# Coordination Sequence:
#
# PCOD9372127 Si02
#       8
#    16   8   8  16  16  16  16  16
#     4  12  28  45  78 113 154 202 260 321 391 470
#     4  12  28  49  74 116 158 201 274 320 396 468
#     4  10  28  45  78 106 158 197 258 312 404 454
#     4  12  26  49  76 108 156 202 260 322 387 473
#     4  12  26  48  76 112 153 203 261 321 390 476
#     4  10  24  46  72 108 148 199 250 327 382 465
#     4  12  27  52  77 112 159 214 260 329 391 480
#     4  12  26  45  77 109 154 197 253 320 395 463
#
# _framework density 24.319595
#
# number of rings (size 3 to 8) (size 9 to 14) (size 15 to 20)
#    0.429    0.000    4.286    2.571    9.000    1.143 
#    1.286    0.000    0.000    0.000    0.000    0.000 
#    0.000    0.000    0.000    0.000    0.000    0.000 
#
# Total GULP energy -156374.746654 kJ/mol
# GULP energy per Si atom -5584.812381 kJ/mol
# Density = 2.426424 g / cm^3
# Si number density = 24.319595 Si / 1000 Ang^3
#
#
#
# Elastic Constant Matrix: (Units=GPa)
#
#
# Indices 1 2 3 4 5 6 
#
# 1 51.9583 19.7883 16.6558 0.0000 0.0000 0.0000
# 2 19.7883 96.3318 32.6588 0.0000 0.0000 0.0000
# 3 16.6558 32.6588 71.7405 0.0000 0.0000 0.0000
# 4 0.0000 0.0000 0.0000 34.3276 0.0000 0.0000
# 5 0.0000 0.0000 0.0000 0.0000 23.2807 0.0000
# 6 0.0000 0.0000 0.0000 0.0000 0.0000 47.5923
#
#
#
# Elastic Compliance Matrix: (Units=1/GPa)
#
#
# Indices 1 2 3 4 5 6 
#
# 1 0.021616 -0.003239 -0.003544 0.000000 0.000000 0.000000
# 2 -0.003239 0.012761 -0.005057 0.000000 0.000000 0.000000
# 3 -0.003544 -0.005057 0.017064 0.000000 0.000000 0.000000
# 4 0.000000 0.000000 0.000000 0.029131 0.000000 0.000000
# 5 0.000000 0.000000 0.000000 0.000000 0.042954 0.000000
# 6 0.000000 0.000000 0.000000 0.000000 0.000000 0.021012
#
#
# Mechanical properties :
#
#
# Convention : Reuss Voigt Hill
#
# Bulk Modulus (GPa) = 36.02232 39.80403 37.91318
# Shear Modulus (GPa) = 28.17365 31.10197 29.63781
#
# Velocity S-wave (km/s) = 3.40733 3.58003 3.49475
# Velocity P-wave (km/s) = 5.50673 5.78718 5.64869
#
# Compressibility (1/GPa) = 0.02776056
#
# Stress axis : x y z
#
# Youngs Moduli (GPa) = 46.26255 78.36637 58.60242
#
# Poissons Ratio (x) = 0.25381 0.20769
# Poissons Ratio (y) = 0.14983 0.29636
# Poissons Ratio (z) = 0.16396 0.39631
#
# Static dielectric constant tensor:
#      x y z
#    x 2.158250 0.000000 0.000000 
#    y 0.000000 1.989990 0.000000 
#    z 0.000000 0.000000 1.927510 
# 
# From -- ./inp_files/27461.got.cif
#   From: 2010.05.17/outbox.cif.g08.bks.cpg/sg43_14_cif.got.tgz:27461.got - 2010.06.03 19:21:55.
