data_PCOD9372778
_publ_section_title
;
Structure prediction by ZEFSAII (Michael W. Deem and Ramdas Pophale) SiO2 
 PCOD9372778
Probable space group: F D D 2
;
_chemical_formula_sum "Si O2"
_cell_formula_units_Z 80
_cell_length_a 21.814966
_cell_length_b 4.948543
_cell_length_c 33.907190
_cell_angle_alpha 90.000000
_cell_angle_beta 90.000000
_cell_angle_gamma 90.000000
_cell_volume 3660.359055
_symmetry_space_group_name_H-M "F D D 2"
_symmetry_group_IT_number 43
_symmetry_cell_setting 'orthorhombic'
loop_
_space_group_symop_operation_xyz
x,y,z
-x,-y,z
1/4-x,1/4+y,1/4+z
1/4+x,1/4-y,1/4+z
x,1/2+y,1/2+z
-x,1/2-y,1/2+z
1/4-x,3/4+y,3/4+z
1/4+x,3/4-y,3/4+z
1/2+x,y,1/2+z
1/2-x,-y,1/2+z
3/4-x,1/4+y,3/4+z
3/4+x,1/4-y,3/4+z
1/2+x,1/2+y,z
1/2-x,1/2-y,z
3/4-x,3/4+y,1/4+z
3/4+x,3/4-y,1/4+z
loop_
_atom_site_type_symbol
_atom_site_label
_atom_site_fract_x
_atom_site_fract_y
_atom_site_fract_z
Si Si1 0.250000 0.750000 0.081661
Si Si2 0.890085 0.585601 0.775461
Si Si3 0.500000 0.500000 0.882978
Si Si4 0.881453 0.053610 0.641355
Si Si5 0.570628 0.925133 0.227896
Si Si6 0.677611 0.201555 0.844024
O O1 0.304412 0.872433 0.056197
O O2 0.273771 0.500758 0.107085
O O3 0.914161 0.365687 0.744835
O O4 0.838099 0.438607 0.801862
O O5 0.885139 0.861149 0.750720
O O6 0.439572 0.368143 0.902466
O O7 0.919212 0.087303 0.681293
O O8 0.899264 0.258633 0.605961
O O9 0.899320 0.758908 0.625486
O O10 0.500000 0.000000 0.236355
O O11 0.750000 0.250000 0.847640
#
# Coordination Sequence:
#
# PCOD9372778 Si02
#       6
#     8  16   8  16  16  16
#     4  12  20  40  70  98 126 161 232 293 320 406
#     4  12  23  40  68  96 127 173 222 281 335 406
#     4  12  22  42  70  98 128 169 230 281 336 404
#     4  12  25  43  69  99 135 177 224 284 344 413
#     4  12  24  40  64  98 135 170 219 278 346 408
#     4  12  25  44  69  97 134 178 228 280 342 414
#
# _framework density 21.855778000000001
#
# number of rings (size 3 to 8) (size 9 to 14) (size 15 to 20)
#    0.000    0.000    6.000    5.400    0.000    0.000 
#    1.800    0.000    0.000    0.000    0.000    0.000 
#    0.000    0.000    0.000    0.000    0.000    0.000 
#
# Total GULP energy -111710.827816 kJ/mol
# GULP energy per Si atom -5585.541391 kJ/mol
# Density = 2.180603 g / cm^3
# Si number density = 21.855778 Si / 1000 Ang^3
#
#
#
# Elastic Constant Matrix: (Units=GPa)
#
#
# Indices 1 2 3 4 5 6 
#
# 1 104.8381 14.8487 4.3261 0.0024 0.0001 -0.0002
# 2 14.8487 100.9348 9.7891 0.0138 -0.0009 -0.0017
# 3 4.3261 9.7891 60.4637 -0.0013 0.0001 -0.0006
# 4 0.0024 0.0138 -0.0013 156.7474 0.0030 -0.0042
# 5 0.0001 -0.0009 0.0001 0.0030 -15.7257 -0.0010
# 6 -0.0002 -0.0017 -0.0006 -0.0042 -0.0010 26.2535
#
#
#
# Elastic Compliance Matrix: (Units=1/GPa)
#
#
# Indices 1 2 3 4 5 6 
#
# 1 0.009755 -0.001389 -0.000473 0.000000 0.000000 0.000000
# 2 -0.001389 0.010263 -0.001562 -0.000001 -0.000001 0.000001
# 3 -0.000473 -0.001562 0.016826 0.000000 0.000000 0.000000
# 4 0.000000 -0.000001 0.000000 0.006380 0.000001 0.000001
# 5 0.000000 -0.000001 0.000000 0.000001 -0.063590 -0.000003
# 6 0.000000 0.000001 0.000000 0.000001 -0.000003 0.038090
#
#
# Mechanical properties :
#
#
# Convention : Reuss Voigt Hill
#
# Bulk Modulus (GPa) = 33.33910 36.01826 34.67868
# Shear Modulus (GPa) = 144.63156 49.27321 96.95238
#
# Velocity S-wave (km/s) = 8.14365 4.75328 6.66756
# Velocity P-wave (km/s) = 10.18394 6.82939 8.67045
#
# Compressibility (1/GPa) = 0.02999481
#
# Stress axis : x y z
#
# Youngs Moduli (GPa) = 102.51371 97.43492 59.43318
#
# Poissons Ratio (x) = 0.13535 0.02811
# Poissons Ratio (y) = 0.14241 0.09285
# Poissons Ratio (z) = 0.04849 0.15222
#
# Static dielectric constant tensor:
#      x y z
#    x 1.850830 0.000000 0.000000 
#    y 0.000000 1.755050 0.000000 
#    z 0.000000 0.000000 1.815870 
# 
# From -- ./inp_files/29778.got.cif
#   From: 2010.05.17/outbox.cif.g08.bks.cpg/sg43_15_cif.got.tgz:29778.got - 2010.06.03 19:21:55.
