data_PCOD9372143
_publ_section_title
;
Structure prediction by ZEFSAII (Michael W. Deem and Ramdas Pophale) SiO2 
 PCOD9372143
Probable space group: F D D 2
;
_chemical_formula_sum "Si O2"
_cell_formula_units_Z 56
_cell_length_a 16.244901
_cell_length_b 5.324653
_cell_length_c 25.150336
_cell_angle_alpha 90.000000
_cell_angle_beta 90.000000
_cell_angle_gamma 90.000000
_cell_volume 2175.465354
_symmetry_space_group_name_H-M "F D D 2"
_symmetry_group_IT_number 43
_symmetry_cell_setting 'orthorhombic'
loop_
_space_group_symop_operation_xyz
x,y,z
-x,-y,z
1/4-x,1/4+y,1/4+z
1/4+x,1/4-y,1/4+z
x,1/2+y,1/2+z
-x,1/2-y,1/2+z
1/4-x,3/4+y,3/4+z
1/4+x,3/4-y,3/4+z
1/2+x,y,1/2+z
1/2-x,-y,1/2+z
3/4-x,1/4+y,3/4+z
3/4+x,1/4-y,3/4+z
1/2+x,1/2+y,z
1/2-x,1/2-y,z
3/4-x,3/4+y,1/4+z
3/4+x,3/4-y,1/4+z
loop_
_atom_site_type_symbol
_atom_site_label
_atom_site_fract_x
_atom_site_fract_y
_atom_site_fract_z
Si Si1 0.303390 0.996198 0.728070
Si Si2 0.310771 0.433629 0.405843
Si Si3 0.000000 0.000000 0.751281
Si Si4 0.163039 0.606520 0.071520
O O1 0.250000 0.750000 0.722764
O O2 0.250000 0.250000 0.733804
O O3 0.360677 0.033019 0.677038
O O4 0.363407 0.980587 0.778439
O O5 0.250000 0.250000 0.374753
O O6 0.260288 0.528790 0.457540
O O7 0.352576 0.653722 0.371804
O O8 0.930364 0.908798 0.792792
O O9 0.250000 0.750000 0.081739
#
# Coordination Sequence:
#
# PCOD9372143 Si02
#       4
#    16  16   8  16
#     4  11  26  47  78 116 158 209 273 346 413 487
#     4  11  26  48  78 112 159 220 272 345 416 498
#     4  10  24  46  78 110 162 198 272 338 410 482
#     4  11  26  48  74 116 157 220 269 346 407 501
#
# _framework density 25.741617000000002
#
# number of rings (size 3 to 8) (size 9 to 14) (size 15 to 20)
#    0.000    1.143    0.000    5.143   18.000    2.286 
#    5.143    0.000    0.000    0.000    0.000    0.000 
#    0.000    0.000    0.000    0.000    0.000    0.000 
#
# Total GULP energy -78241.175617 kJ/mol
# GULP energy per Si atom -5588.655401 kJ/mol
# Density = 2.568303 g / cm^3
# Si number density = 25.741617 Si / 1000 Ang^3
#
#
#
# Elastic Constant Matrix: (Units=GPa)
#
#
# Indices 1 2 3 4 5 6 
#
# 1 133.3252 79.1718 55.1706 0.0000 0.0000 0.0000
# 2 79.1718 161.4880 34.4083 0.0000 0.0000 0.0000
# 3 55.1706 34.4083 104.9955 0.0000 0.0000 0.0000
# 4 0.0000 0.0000 0.0000 19.9866 0.0000 0.0000
# 5 0.0000 0.0000 0.0000 0.0000 33.8402 0.0000
# 6 0.0000 0.0000 0.0000 0.0000 0.0000 39.1899
#
#
#
# Elastic Compliance Matrix: (Units=1/GPa)
#
#
# Indices 1 2 3 4 5 6 
#
# 1 0.012580 -0.005116 -0.004934 0.000000 0.000000 0.000000
# 2 -0.005116 0.008738 -0.000175 0.000000 0.000000 0.000000
# 3 -0.004934 -0.000175 0.012174 0.000000 0.000000 0.000000
# 4 0.000000 0.000000 0.000000 0.050033 0.000000 0.000000
# 5 0.000000 0.000000 0.000000 0.000000 0.029551 0.000000
# 6 0.000000 0.000000 0.000000 0.000000 0.000000 0.025517
#
#
# Mechanical properties :
#
#
# Convention : Reuss Voigt Hill
#
# Bulk Modulus (GPa) = 76.67547 81.92332 79.29940
# Shear Modulus (GPa) = 30.60140 34.00721 32.30431
#
# Velocity S-wave (km/s) = 3.45163 3.63864 3.54636
# Velocity P-wave (km/s) = 6.76285 7.03898 6.90230
#
# Compressibility (1/GPa) = 0.01304198
#
# Stress axis : x y z
#
# Youngs Moduli (GPa) = 79.48921 114.44089 82.14190
#
# Poissons Ratio (x) = 0.58553 0.40526
# Poissons Ratio (y) = 0.40670 0.01438
# Poissons Ratio (z) = 0.39218 0.02004
#
# Static dielectric constant tensor:
#      x y z
#    x 2.000150 0.000000 0.000000 
#    y 0.000000 2.324350 0.000000 
#    z 0.000000 0.000000 2.025290 
# 
# From -- ./inp_files/23267.got.cif
#   From: 2010.05.17/outbox.cif.g08.bks.cpg/sg43_12_cif.got.tgz:23267.got - 2010.06.03 19:21:55.
