data_PCOD9372735
_publ_section_title
;
Structure prediction by ZEFSAII (Michael W. Deem and Ramdas Pophale) SiO2 
 PCOD9372735
Probable space group: F D D 2
;
_chemical_formula_sum "Si O2"
_cell_formula_units_Z 80
_cell_length_a 4.830473
_cell_length_b 25.848990
_cell_length_c 25.997990
_cell_angle_alpha 90.000000
_cell_angle_beta 90.000000
_cell_angle_gamma 90.000000
_cell_volume 3246.183081
_symmetry_space_group_name_H-M "F D D 2"
_symmetry_group_IT_number 43
_symmetry_cell_setting 'orthorhombic'
loop_
_space_group_symop_operation_xyz
x,y,z
-x,-y,z
1/4-x,1/4+y,1/4+z
1/4+x,1/4-y,1/4+z
x,1/2+y,1/2+z
-x,1/2-y,1/2+z
1/4-x,3/4+y,3/4+z
1/4+x,3/4-y,3/4+z
1/2+x,y,1/2+z
1/2-x,-y,1/2+z
3/4-x,1/4+y,3/4+z
3/4+x,1/4-y,3/4+z
1/2+x,1/2+y,z
1/2-x,1/2-y,z
3/4-x,3/4+y,1/4+z
3/4+x,3/4-y,1/4+z
loop_
_atom_site_type_symbol
_atom_site_label
_atom_site_fract_x
_atom_site_fract_y
_atom_site_fract_z
Si Si1 0.075535 0.349235 0.195460
Si Si2 0.183386 0.869330 0.335930
Si Si3 0.250000 0.750000 0.656260
Si Si4 0.387933 0.942239 0.551219
Si Si5 0.250000 0.250000 0.582387
Si Si6 0.150805 0.191281 0.016504
O O1 0.895539 0.360742 0.144717
O O2 0.305821 0.305521 0.182142
O O3 0.974878 0.319396 0.247149
O O4 0.160158 0.404704 0.218344
O O5 0.403120 0.821870 0.342011
O O6 0.377723 0.909371 0.301849
O O7 0.903260 0.845530 0.311251
O O8 0.503752 0.738584 0.620239
O O9 0.500000 0.000000 0.551735
O O10 0.374586 0.204088 0.548380
O O11 0.250000 0.250000 0.004139
#
# Coordination Sequence:
#
# PCOD9372735 Si02
#       6
#    16  16   8  16   8  16
#     4  11  26  47  74 112 146 198 256 320 382 465
#     4  11  26  46  74 106 153 197 252 318 387 459
#     4  12  26  46  78 107 144 201 262 316 390 458
#     4  11  26  49  73 107 152 201 251 314 388 467
#     4  12  24  48  78 105 150 205 252 324 380 468
#     4  11  26  46  75 109 154 199 256 317 392 465
#
# _framework density 24.644327000000001
#
# number of rings (size 3 to 8) (size 9 to 14) (size 15 to 20)
#    0.000    0.800    4.000    0.600   11.200    8.000 
#    1.800    0.000    0.000    0.000    0.000    0.000 
#    0.000    0.000    0.000    0.000    0.000    0.000 
#
# Total GULP energy -111365.443061 kJ/mol
# GULP energy per Si atom -5568.272153 kJ/mol
# Density = 2.458823 g / cm^3
# Si number density = 24.644327 Si / 1000 Ang^3
#
#
#
# Elastic Constant Matrix: (Units=GPa)
#
#
# Indices 1 2 3 4 5 6 
#
# 1 132.2703 20.9431 32.3732 0.0000 0.0000 0.0000
# 2 20.9431 190.8778 52.2530 0.0000 0.0000 0.0000
# 3 32.3732 52.2530 124.2283 0.0000 0.0000 0.0000
# 4 0.0000 0.0000 0.0000 42.2723 0.0000 0.0000
# 5 0.0000 0.0000 0.0000 0.0000 19.1436 0.0000
# 6 0.0000 0.0000 0.0000 0.0000 0.0000 29.4624
#
#
#
# Elastic Compliance Matrix: (Units=1/GPa)
#
#
# Indices 1 2 3 4 5 6 
#
# 1 0.008096 -0.000351 -0.001962 0.000000 0.000000 0.000000
# 2 -0.000351 0.005936 -0.002405 0.000000 0.000000 0.000000
# 3 -0.001962 -0.002405 0.009573 0.000000 0.000000 0.000000
# 4 0.000000 0.000000 0.000000 0.023656 0.000000 0.000000
# 5 0.000000 0.000000 0.000000 0.000000 0.052237 0.000000
# 6 0.000000 0.000000 0.000000 0.000000 0.000000 0.033942
#
#
# Mechanical properties :
#
#
# Convention : Reuss Voigt Hill
#
# Bulk Modulus (GPa) = 70.58317 73.16835 71.87576
# Shear Modulus (GPa) = 33.87564 40.96281 37.41922
#
# Velocity S-wave (km/s) = 3.71156 4.08138 3.90085
# Velocity P-wave (km/s) = 6.86079 7.20864 7.03686
#
# Compressibility (1/GPa) = 0.01416768
#
# Stress axis : x y z
#
# Youngs Moduli (GPa) = 123.51624 168.46559 104.46367
#
# Poissons Ratio (x) = 0.05916 0.20497
# Poissons Ratio (y) = 0.04338 0.25126
# Poissons Ratio (z) = 0.24235 0.40520
#
# Static dielectric constant tensor:
#      x y z
#    x 2.003900 0.000000 0.000000 
#    y 0.000000 2.214450 0.000000 
#    z 0.000000 0.000000 2.035370 
# 
# From -- ./inp_files/23579.got.cif
#   From: 2010.05.17/outbox.cif.g08.bks.cpg/sg43_12_cif.got.tgz:23579.got - 2010.06.03 19:21:55.
