data_PCOD9372697
_publ_section_title
;
Structure prediction by ZEFSAII (Michael W. Deem and Ramdas Pophale) SiO2 
 PCOD9372697
Probable space group: F D D 2
;
_chemical_formula_sum "Si O2"
_cell_formula_units_Z 88
_cell_length_a 23.299722
_cell_length_b 6.902654
_cell_length_c 27.979512
_cell_angle_alpha 90.000000
_cell_angle_beta 90.000000
_cell_angle_gamma 90.000000
_cell_volume 4499.942656
_symmetry_space_group_name_H-M "F D D 2"
_symmetry_group_IT_number 43
_symmetry_cell_setting 'orthorhombic'
loop_
_space_group_symop_operation_xyz
x,y,z
-x,-y,z
1/4-x,1/4+y,1/4+z
1/4+x,1/4-y,1/4+z
x,1/2+y,1/2+z
-x,1/2-y,1/2+z
1/4-x,3/4+y,3/4+z
1/4+x,3/4-y,3/4+z
1/2+x,y,1/2+z
1/2-x,-y,1/2+z
3/4-x,1/4+y,3/4+z
3/4+x,1/4-y,3/4+z
1/2+x,1/2+y,z
1/2-x,1/2-y,z
3/4-x,3/4+y,1/4+z
3/4+x,3/4-y,1/4+z
loop_
_atom_site_type_symbol
_atom_site_label
_atom_site_fract_x
_atom_site_fract_y
_atom_site_fract_z
Si Si1 0.706985 0.579944 0.239450
Si Si2 0.000000 0.500000 0.292179
Si Si3 0.543015 0.670056 0.594908
Si Si4 0.000000 0.500000 0.664226
Si Si5 0.000000 0.500000 0.920131
Si Si6 0.425688 0.841823 0.749395
Si Si7 0.324312 0.408177 0.584962
O O1 0.750000 0.750000 0.226201
O O2 0.721273 0.500000 0.292179
O O3 0.717186 0.405445 0.202784
O O4 0.642566 0.662798 0.242093
O O5 0.042502 0.356544 0.263602
O O6 0.042501 0.643456 0.320755
O O7 0.500000 0.500000 0.608157
O O8 0.532814 0.844555 0.631574
O O9 0.607434 0.587202 0.592264
O O10 0.046001 0.592239 0.700111
O O11 0.046001 0.407762 0.884246
O O12 0.435211 1.000000 0.792179
#
# Coordination Sequence:
#
# PCOD9372697 Si02
#       7
#    16   8  16   8   8  16  16
#     4  11  26  44  67  99 139 183 228 279 341 403
#     4  12  22  44  74  94 140 178 230 274 360 386
#     4  11  26  44  67  99 139 183 228 279 341 403
#     4  12  23  46  69 102 136 179 229 280 344 404
#     4  12  23  46  69 102 136 179 229 280 344 404
#     4  11  25  45  70 102 138 175 229 289 336 410
#     4  11  25  45  70 102 138 175 229 289 336 410
#
# _framework density 19.555804999999999
#
# number of rings (size 3 to 8) (size 9 to 14) (size 15 to 20)
#    0.000    0.727    5.455    1.091    5.091    1.455 
#    0.000    0.000    0.000    0.000    0.000    0.000 
#    0.000    0.000    0.000    0.000    0.000    0.000 
#
# Total GULP energy -122950.774335 kJ/mol
# GULP energy per Si atom -5588.671561 kJ/mol
# Density = 1.951130 g / cm^3
# Si number density = 19.555805 Si / 1000 Ang^3
#
#
#
# Elastic Constant Matrix: (Units=GPa)
#
#
# Indices 1 2 3 4 5 6 
#
# 1 149.5813 88.7915 48.0749 0.0002 -0.0012 -0.0003
# 2 88.7915 160.5657 79.2826 0.0011 -0.0020 -0.0012
# 3 48.0749 79.2826 140.4578 0.0000 0.0001 0.0000
# 4 0.0002 0.0011 0.0000 94.2914 -0.0013 -0.0001
# 5 -0.0012 -0.0020 0.0001 -0.0013 38.2492 0.0015
# 6 -0.0003 -0.0012 0.0000 -0.0001 0.0015 3.5437
#
#
#
# Elastic Compliance Matrix: (Units=1/GPa)
#
#
# Indices 1 2 3 4 5 6 
#
# 1 0.009970 -0.005308 -0.000416 0.000000 0.000000 -0.000001
# 2 -0.005308 0.011460 -0.004652 0.000000 0.000000 0.000003
# 3 -0.000416 -0.004652 0.009888 0.000000 0.000000 -0.000002
# 4 0.000000 0.000000 0.000000 0.010605 0.000000 0.000000
# 5 0.000000 0.000000 0.000000 0.000000 0.026144 -0.000011
# 6 -0.000001 0.000003 -0.000002 0.000000 -0.000011 0.282188
#
#
# Mechanical properties :
#
#
# Convention : Reuss Voigt Hill
#
# Bulk Modulus (GPa) = 94.64677 98.10030 96.37354
# Shear Modulus (GPa) = 13.35008 42.84727 28.09867
#
# Velocity S-wave (km/s) = 2.61562 4.68592 3.79469
# Velocity P-wave (km/s) = 7.59114 8.91910 8.28178
#
# Compressibility (1/GPa) = 0.01056560
#
# Stress axis : x y z
#
# Youngs Moduli (GPa) = 100.30361 87.25948 101.13212
#
# Poissons Ratio (x) = 0.46313 0.04212
# Poissons Ratio (y) = 0.53236 0.47048
# Poissons Ratio (z) = 0.04178 0.40594
#
# Static dielectric constant tensor:
#      x y z
#    x 1.672790 0.000000 0.000000 
#    y 0.000000 1.689610 0.000000 
#    z 0.000000 0.000000 1.664180 
# 
# From -- ./inp_files/1027.got.cif
#   From: 2010.05.17/outbox.cif.g08.bks.cpg/sg43_1_cif.got.tgz:1027.got - 2010.06.03 19:21:55.
