data_PCOD9372392
_publ_section_title
;
Structure prediction by ZEFSAII (Michael W. Deem and Ramdas Pophale) SiO2 
 PCOD9372392
Probable space group: F D D 2
;
_chemical_formula_sum "Si O2"
_cell_formula_units_Z 96
_cell_length_a 14.011909
_cell_length_b 19.308582
_cell_length_c 15.692112
_cell_angle_alpha 90.000000
_cell_angle_beta 90.000000
_cell_angle_gamma 90.000000
_cell_volume 4245.502375
_symmetry_space_group_name_H-M "F D D 2"
_symmetry_group_IT_number 43
_symmetry_cell_setting 'orthorhombic'
loop_
_space_group_symop_operation_xyz
x,y,z
-x,-y,z
1/4-x,1/4+y,1/4+z
1/4+x,1/4-y,1/4+z
x,1/2+y,1/2+z
-x,1/2-y,1/2+z
1/4-x,3/4+y,3/4+z
1/4+x,3/4-y,3/4+z
1/2+x,y,1/2+z
1/2-x,-y,1/2+z
3/4-x,1/4+y,3/4+z
3/4+x,1/4-y,3/4+z
1/2+x,1/2+y,z
1/2-x,1/2-y,z
3/4-x,3/4+y,1/4+z
3/4+x,3/4-y,1/4+z
loop_
_atom_site_type_symbol
_atom_site_label
_atom_site_fract_x
_atom_site_fract_y
_atom_site_fract_z
Si Si1 0.476655 0.753759 0.898060
Si Si2 0.743919 0.641078 0.229394
Si Si3 0.675917 0.807472 0.951335
Si Si4 0.791360 0.825879 0.426533
Si Si5 0.194503 0.964803 0.959988
Si Si6 0.070088 0.342396 0.117506
O O1 0.459377 0.685378 0.953350
O O2 0.587294 0.771468 0.905487
O O3 0.405235 0.814502 0.928359
O O4 0.452096 0.744213 0.798833
O O5 0.741320 0.657405 0.329478
O O6 0.663969 0.692170 0.192221
O O7 0.847195 0.648815 0.188276
O O8 0.750000 0.750000 0.985736
O O9 0.736744 0.854328 0.887531
O O10 0.625901 0.848024 0.028914
O O11 0.750000 0.750000 0.450354
O O12 0.753824 0.893994 0.473861
O O13 0.222277 0.015277 0.882973
#
# Coordination Sequence:
#
# PCOD9372392 Si02
#       6
#    16  16  16  16  16  16
#     4  11  24  44  66 103 143 189 240 302 374 451
#     4  11  21  41  71  99 136 174 248 308 362 432
#     4  12  27  47  73 105 152 197 248 305 373 457
#     4  11  23  42  70 101 140 187 244 308 371 444
#     4  11  24  41  70 102 140 188 240 309 371 440
#     4  12  26  43  72 108 142 189 246 310 372 446
#
# _framework density 22.612164
#
# number of rings (size 3 to 8) (size 9 to 14) (size 15 to 20)
#    0.000    0.667    3.333    5.500    4.667    0.000 
#    0.000    0.833    0.000    0.000    0.000    0.000 
#    0.000    0.000    0.000    0.000    0.000    0.000 
#
# Total GULP energy -134229.114941 kJ/mol
# GULP energy per Si atom -5592.879789 kJ/mol
# Density = 2.256070 g / cm^3
# Si number density = 22.612164 Si / 1000 Ang^3
#
#
#
# Elastic Constant Matrix: (Units=GPa)
#
#
# Indices 1 2 3 4 5 6 
#
# 1 129.5381 29.0195 18.1469 0.0000 0.0000 0.0000
# 2 29.0195 80.3682 18.1047 0.0000 0.0000 0.0000
# 3 18.1469 18.1047 53.3253 0.0000 0.0000 0.0000
# 4 0.0000 0.0000 0.0000 20.7814 0.0000 0.0000
# 5 0.0000 0.0000 0.0000 0.0000 25.2436 0.0000
# 6 0.0000 0.0000 0.0000 0.0000 0.0000 45.7224
#
#
#
# Elastic Compliance Matrix: (Units=1/GPa)
#
#
# Indices 1 2 3 4 5 6 
#
# 1 0.008597 -0.002648 -0.002027 0.000000 0.000000 0.000000
# 2 -0.002648 0.014289 -0.003950 0.000000 0.000000 0.000000
# 3 -0.002027 -0.003950 0.020784 0.000000 0.000000 0.000000
# 4 0.000000 0.000000 0.000000 0.048120 0.000000 0.000000
# 5 0.000000 0.000000 0.000000 0.000000 0.039614 0.000000
# 6 0.000000 0.000000 0.000000 0.000000 0.000000 0.021871
#
#
# Mechanical properties :
#
#
# Convention : Reuss Voigt Hill
#
# Bulk Modulus (GPa) = 37.84984 43.75263 40.80124
# Shear Modulus (GPa) = 27.88160 31.54684 29.71422
#
# Velocity S-wave (km/s) = 3.51527 3.73919 3.62896
# Velocity P-wave (km/s) = 5.76639 6.16711 5.97011
#
# Compressibility (1/GPa) = 0.02642019
#
# Stress axis : x y z
#
# Youngs Moduli (GPa) = 116.32275 69.98591 48.11474
#
# Poissons Ratio (x) = 0.18529 0.09751
# Poissons Ratio (y) = 0.30798 0.19006
# Poissons Ratio (z) = 0.23574 0.27646
#
# Static dielectric constant tensor:
#      x y z
#    x 1.828870 0.000000 0.000000 
#    y 0.000000 1.932030 0.000000 
#    z 0.000000 0.000000 1.844590 
# 
# From -- ./inp_files/10097.got.cif
#   From: 2010.05.17/outbox.cif.g08.bks.cpg/sg43_6_cif.got.tgz:10097.got - 2010.06.03 19:21:55.
