data_PCOD9372635
_publ_section_title
;
Structure prediction by ZEFSAII (Michael W. Deem and Ramdas Pophale) SiO2 
 PCOD9372635
Probable space group: F D D 2
;
_chemical_formula_sum "Si O2"
_cell_formula_units_Z 64
_cell_length_a 25.224670
_cell_length_b 7.593539
_cell_length_c 12.677200
_cell_angle_alpha 90.000000
_cell_angle_beta 90.000000
_cell_angle_gamma 90.000000
_cell_volume 2428.248131
_symmetry_space_group_name_H-M "F D D 2"
_symmetry_group_IT_number 43
_symmetry_cell_setting 'orthorhombic'
loop_
_space_group_symop_operation_xyz
x,y,z
-x,-y,z
1/4-x,1/4+y,1/4+z
1/4+x,1/4-y,1/4+z
x,1/2+y,1/2+z
-x,1/2-y,1/2+z
1/4-x,3/4+y,3/4+z
1/4+x,3/4-y,3/4+z
1/2+x,y,1/2+z
1/2-x,-y,1/2+z
3/4-x,1/4+y,3/4+z
3/4+x,1/4-y,3/4+z
1/2+x,1/2+y,z
1/2-x,1/2-y,z
3/4-x,3/4+y,1/4+z
3/4+x,3/4-y,1/4+z
loop_
_atom_site_type_symbol
_atom_site_label
_atom_site_fract_x
_atom_site_fract_y
_atom_site_fract_z
Si Si1 0.421183 0.355435 0.571860
Si Si2 0.444209 0.068522 0.736403
Si Si3 0.446019 0.600107 0.888125
Si Si4 0.167091 0.031644 0.905067
O O1 0.443600 0.254658 0.675112
O O2 0.357214 0.322207 0.562055
O O3 0.443421 0.259584 0.469843
O O4 0.433121 0.562218 0.577886
O O5 0.500000 0.000000 0.782177
O O6 0.433564 0.921693 0.644217
O O7 0.500000 0.500000 0.899344
O O8 0.437933 0.667174 0.769905
O O9 0.396326 0.472712 0.908442
#
# Coordination Sequence:
#
# PCOD9372635 Si02
#       4
#    16  16  16  16
#     4  11  24  46  71 106 153 194 246 310 374 441
#     4  11  25  45  74 108 148 193 252 308 371 458
#     4  11  25  47  76 111 151 194 254 311 372 459
#     4  11  25  45  74 108 147 195 252 307 369 457
#
# _framework density 26.356449999999999
#
# number of rings (size 3 to 8) (size 9 to 14) (size 15 to 20)
#    0.000    1.000    0.000    8.250    7.000    0.000 
#    0.000    5.000    5.500    0.000    0.000    0.000 
#    0.000    0.000    0.000    0.000    0.000    0.000 
#
# Total GULP energy -89741.286539 kJ/mol
# GULP energy per Si atom -5608.830409 kJ/mol
# Density = 2.629646 g / cm^3
# Si number density = 26.356450 Si / 1000 Ang^3
#
#
#
# Elastic Constant Matrix: (Units=GPa)
#
#
# Indices 1 2 3 4 5 6 
#
# 1 125.3028 17.7979 8.6767 0.0000 0.0000 0.0000
# 2 17.7979 156.1692 16.7446 0.0000 0.0000 0.0000
# 3 8.6767 16.7446 81.4470 0.0000 0.0000 0.0000
# 4 0.0000 0.0000 0.0000 47.3727 0.0000 0.0000
# 5 0.0000 0.0000 0.0000 0.0000 21.4707 0.0000
# 6 0.0000 0.0000 0.0000 0.0000 0.0000 29.8492
#
#
#
# Elastic Compliance Matrix: (Units=1/GPa)
#
#
# Indices 1 2 3 4 5 6 
#
# 1 0.008150 -0.000855 -0.000693 0.000000 0.000000 0.000000
# 2 -0.000855 0.006637 -0.001274 0.000000 0.000000 0.000000
# 3 -0.000693 -0.001274 0.012614 0.000000 0.000000 0.000000
# 4 0.000000 0.000000 0.000000 0.021109 0.000000 0.000000
# 5 0.000000 0.000000 0.000000 0.000000 0.046575 0.000000
# 6 0.000000 0.000000 0.000000 0.000000 0.000000 0.033502
#
#
# Mechanical properties :
#
#
# Convention : Reuss Voigt Hill
#
# Bulk Modulus (GPa) = 45.95683 49.92857 47.94270
# Shear Modulus (GPa) = 35.34037 41.05184 38.19610
#
# Velocity S-wave (km/s) = 3.66575 3.95088 3.81098
# Velocity P-wave (km/s) = 5.94907 6.30851 6.13143
#
# Compressibility (1/GPa) = 0.02175955
#
# Stress axis : x y z
#
# Youngs Moduli (GPa) = 122.69927 150.66485 79.28005
#
# Poissons Ratio (x) = 0.12875 0.05490
# Poissons Ratio (y) = 0.10485 0.10096
# Poissons Ratio (z) = 0.08497 0.19187
#
# Static dielectric constant tensor:
#      x y z
#    x 2.100240 0.000000 0.000000 
#    y 0.000000 2.082060 0.000000 
#    z 0.000000 0.000000 1.997470 
# 
# From -- ./inp_files/11122.got.cif
#   From: 2010.05.17/outbox.cif.g08.bks.cpg/sg43_6_cif.got.tgz:11122.got - 2010.06.03 19:21:55.
