data_PCOD9372791
_publ_section_title
;
Structure prediction by ZEFSAII (Michael W. Deem and Ramdas Pophale) SiO2 
 PCOD9372791
Probable space group: F D D 2
;
_chemical_formula_sum "Si O2"
_cell_formula_units_Z 80
_cell_length_a 4.744874
_cell_length_b 21.766780
_cell_length_c 31.764811
_cell_angle_alpha 90.000000
_cell_angle_beta 90.000000
_cell_angle_gamma 90.000000
_cell_volume 3280.689644
_symmetry_space_group_name_H-M "F D D 2"
_symmetry_group_IT_number 43
_symmetry_cell_setting 'orthorhombic'
loop_
_space_group_symop_operation_xyz
x,y,z
-x,-y,z
1/4-x,1/4+y,1/4+z
1/4+x,1/4-y,1/4+z
x,1/2+y,1/2+z
-x,1/2-y,1/2+z
1/4-x,3/4+y,3/4+z
1/4+x,3/4-y,3/4+z
1/2+x,y,1/2+z
1/2-x,-y,1/2+z
3/4-x,1/4+y,3/4+z
3/4+x,1/4-y,3/4+z
1/2+x,1/2+y,z
1/2-x,1/2-y,z
3/4-x,3/4+y,1/4+z
3/4+x,3/4-y,1/4+z
loop_
_atom_site_type_symbol
_atom_site_label
_atom_site_fract_x
_atom_site_fract_y
_atom_site_fract_z
Si Si1 0.268904 0.377442 0.816770
Si Si2 0.159698 0.318826 0.726604
Si Si3 0.500000 0.500000 0.296077
Si Si4 0.514975 0.926572 0.611178
Si Si5 0.881702 0.371436 0.437279
Si Si6 0.250000 0.250000 0.983513
O O1 0.220032 0.358571 0.768558
O O2 0.153955 0.446503 0.821782
O O3 0.591196 0.361009 0.825721
O O4 0.087277 0.339154 0.850667
O O5 0.250000 0.250000 0.738142
O O6 0.357366 0.335010 0.686231
O O7 0.840234 0.336645 0.715808
O O8 0.255014 0.480784 0.263816
O O9 0.350242 0.902907 0.652313
O O10 0.500000 0.000000 0.608547
O O11 0.730976 0.309570 0.454546
#
# Coordination Sequence:
#
# PCOD9372791 Si02
#       6
#    16  16   8  16  16   8
#     4  12  25  48  71 105 142 190 242 297 367 439
#     4  12  25  47  74 102 142 189 245 299 361 442
#     4  12  24  46  74 104 138 183 242 307 354 436
#     4  12  28  46  71 105 146 189 239 300 373 441
#     4  12  26  45  74 105 140 186 242 306 365 434
#     4  12  22  44  78 102 136 173 250 309 350 432
#
# _framework density 24.385114999999999
#
# number of rings (size 3 to 8) (size 9 to 14) (size 15 to 20)
#    0.000    0.000    4.000    6.000    7.000    0.000 
#   10.800    0.000    0.000    0.000    0.000    0.000 
#    0.000    0.000    0.000    0.000    0.000    0.000 
#
# Total GULP energy -111632.504884 kJ/mol
# GULP energy per Si atom -5581.625244 kJ/mol
# Density = 2.432961 g / cm^3
# Si number density = 24.385115 Si / 1000 Ang^3
#
#
#
# Elastic Constant Matrix: (Units=GPa)
#
#
# Indices 1 2 3 4 5 6 
#
# 1 110.8263 7.2037 -1.3102 0.0000 0.0000 0.0000
# 2 7.2037 108.5389 12.7049 0.0000 0.0000 0.0000
# 3 -1.3102 12.7049 54.1105 0.0000 0.0000 0.0000
# 4 0.0000 0.0000 0.0000 23.5956 0.0000 0.0000
# 5 0.0000 0.0000 0.0000 0.0000 39.1835 0.0000
# 6 0.0000 0.0000 0.0000 0.0000 0.0000 40.1625
#
#
#
# Elastic Compliance Matrix: (Units=1/GPa)
#
#
# Indices 1 2 3 4 5 6 
#
# 1 0.009069 -0.000645 0.000371 0.000000 0.000000 0.000000
# 2 -0.000645 0.009520 -0.002251 0.000000 0.000000 0.000000
# 3 0.000371 -0.002251 0.019018 0.000000 0.000000 0.000000
# 4 0.000000 0.000000 0.000000 0.042381 0.000000 0.000000
# 5 0.000000 0.000000 0.000000 0.000000 0.025521 0.000000
# 6 0.000000 0.000000 0.000000 0.000000 0.000000 0.024899
#
#
# Mechanical properties :
#
#
# Convention : Reuss Voigt Hill
#
# Bulk Modulus (GPa) = 30.71522 34.51917 32.61719
# Shear Modulus (GPa) = 34.17396 37.58014 35.87705
#
# Velocity S-wave (km/s) = 3.74762 3.92996 3.83987
# Velocity P-wave (km/s) = 5.59906 5.89740 5.75016
#
# Compressibility (1/GPa) = 0.03255715
#
# Stress axis : x y z
#
# Youngs Moduli (GPa) = 110.26010 105.04658 52.58130
#
# Poissons Ratio (x) = 0.06779 -0.01951
# Poissons Ratio (y) = 0.07116 0.11835
# Poissons Ratio (z) = -0.04092 0.23644
#
# Static dielectric constant tensor:
#      x y z
#    x 1.865180 0.000000 0.000000 
#    y 0.000000 1.920020 0.000000 
#    z 0.000000 0.000000 2.026990 
# 
# From -- ./inp_files/27209.got.cif
#   From: 2010.05.17/outbox.cif.g08.bks.cpg/sg43_14_cif.got.tgz:27209.got - 2010.06.03 19:21:55.
