data_PCOD9372782
_publ_section_title
;
Structure prediction by ZEFSAII (Michael W. Deem and Ramdas Pophale) SiO2 
 PCOD9372782
Probable space group: F D D 2
;
_chemical_formula_sum "Si O2"
_cell_formula_units_Z 56
_cell_length_a 26.839921
_cell_length_b 13.540567
_cell_length_c 5.508167
_cell_angle_alpha 90.000000
_cell_angle_beta 90.000000
_cell_angle_gamma 90.000000
_cell_volume 2001.820732
_symmetry_space_group_name_H-M "F D D 2"
_symmetry_group_IT_number 43
_symmetry_cell_setting 'orthorhombic'
loop_
_space_group_symop_operation_xyz
x,y,z
-x,-y,z
1/4-x,1/4+y,1/4+z
1/4+x,1/4-y,1/4+z
x,1/2+y,1/2+z
-x,1/2-y,1/2+z
1/4-x,3/4+y,3/4+z
1/4+x,3/4-y,3/4+z
1/2+x,y,1/2+z
1/2-x,-y,1/2+z
3/4-x,1/4+y,3/4+z
3/4+x,1/4-y,3/4+z
1/2+x,1/2+y,z
1/2-x,1/2-y,z
3/4-x,3/4+y,1/4+z
3/4+x,3/4-y,1/4+z
loop_
_atom_site_type_symbol
_atom_site_label
_atom_site_fract_x
_atom_site_fract_y
_atom_site_fract_z
Si Si1 0.250000 0.750000 0.802191
Si Si2 0.687805 0.874265 0.669560
Si Si3 0.428764 0.066888 0.186989
Si Si4 0.834840 0.962052 0.515094
O O1 0.292190 0.821500 0.685944
O O2 0.282620 0.666599 0.942203
O O3 0.628398 0.854689 0.642353
O O4 0.701174 0.789712 0.862576
O O5 0.693625 0.977141 0.807805
O O6 0.439906 0.148906 0.981365
O O7 0.369652 0.044679 0.157615
#
# Coordination Sequence:
#
# PCOD9372782 Si02
#       4
#     8  16  16  16
#     4  12  22  32  68 110 162 192 248 326 410 400
#     4   9  19  39  65 101 147 207 241 324 370 466
#     4   9  19  39  65 101 147 207 241 324 370 466
#     4   8  18  41  68  96 149 204 270 279 398 459
#
# _framework density 27.974533000000001
#
# number of rings (size 3 to 8) (size 9 to 14) (size 15 to 20)
#    1.714    1.143    0.000    0.857    0.000    2.286 
#    0.000    0.000   12.571    0.000    0.000    0.000 
#    0.000   32.000    0.000    0.000    0.000    0.000 
#
# Total GULP energy -78068.662413 kJ/mol
# GULP energy per Si atom -5576.333030 kJ/mol
# Density = 2.791086 g / cm^3
# Si number density = 27.974533 Si / 1000 Ang^3
#
#
#
# Elastic Constant Matrix: (Units=GPa)
#
#
# Indices 1 2 3 4 5 6 
#
# 1 127.7731 58.7879 62.0322 0.0000 0.0000 0.0000
# 2 58.7879 218.0952 96.9119 0.0001 -0.0001 0.0000
# 3 62.0322 96.9119 111.2667 0.0006 -0.0002 0.0000
# 4 0.0000 0.0001 0.0006 47.1188 -0.0002 0.0000
# 5 0.0000 -0.0001 -0.0002 -0.0002 29.1953 0.0000
# 6 0.0000 0.0000 0.0000 0.0000 0.0000 35.9309
#
#
#
# Elastic Compliance Matrix: (Units=1/GPa)
#
#
# Indices 1 2 3 4 5 6 
#
# 1 0.010750 -0.000383 -0.005660 0.000000 0.000000 0.000000
# 2 -0.000383 0.007494 -0.006314 0.000000 0.000000 0.000000
# 3 -0.005660 -0.006314 0.017642 0.000000 0.000000 0.000000
# 4 0.000000 0.000000 0.000000 0.021223 0.000000 0.000000
# 5 0.000000 0.000000 0.000000 0.000000 0.034252 0.000000
# 6 0.000000 0.000000 0.000000 0.000000 0.000000 0.027831
#
#
# Mechanical properties :
#
#
# Convention : Reuss Voigt Hill
#
# Bulk Modulus (GPa) = 89.49862 99.17764 94.33813
# Shear Modulus (GPa) = 33.86846 38.40919 36.13883
#
# Velocity S-wave (km/s) = 3.48327 3.70943 3.59813
# Velocity P-wave (km/s) = 6.94550 7.34005 7.14549
#
# Compressibility (1/GPa) = 0.01117336
#
# Stress axis : x y z
#
# Youngs Moduli (GPa) = 93.02021 133.44324 56.68249
#
# Poissons Ratio (x) = 0.05106 0.32083
# Poissons Ratio (y) = 0.03560 0.35788
# Poissons Ratio (z) = 0.52651 0.84252
#
# Static dielectric constant tensor:
#      x y z
#    x 2.285630 0.000000 0.000000 
#    y 0.000000 2.256310 0.000000 
#    z 0.000000 0.000000 2.567820 
# 
# From -- ./inp_files/1290.got.cif
#   From: 2010.05.17/outbox.cif.g08.bks.cpg/sg43_1_cif.got.tgz:1290.got - 2010.06.03 19:21:55.
