data_PCOD9372862
_publ_section_title
;
Structure prediction by ZEFSAII (Michael W. Deem and Ramdas Pophale) SiO2 
 PCOD9372862
Probable space group: F D D 2
;
_chemical_formula_sum "Si O2"
_cell_formula_units_Z 56
_cell_length_a 24.289344
_cell_length_b 5.120965
_cell_length_c 16.414099
_cell_angle_alpha 90.000000
_cell_angle_beta 90.000000
_cell_angle_gamma 90.000000
_cell_volume 2041.665743
_symmetry_space_group_name_H-M "F D D 2"
_symmetry_group_IT_number 43
_symmetry_cell_setting 'orthorhombic'
loop_
_space_group_symop_operation_xyz
x,y,z
-x,-y,z
1/4-x,1/4+y,1/4+z
1/4+x,1/4-y,1/4+z
x,1/2+y,1/2+z
-x,1/2-y,1/2+z
1/4-x,3/4+y,3/4+z
1/4+x,3/4-y,3/4+z
1/2+x,y,1/2+z
1/2-x,-y,1/2+z
3/4-x,1/4+y,3/4+z
3/4+x,1/4-y,3/4+z
1/2+x,1/2+y,z
1/2-x,1/2-y,z
3/4-x,3/4+y,1/4+z
3/4+x,3/4-y,1/4+z
loop_
_atom_site_type_symbol
_atom_site_label
_atom_site_fract_x
_atom_site_fract_y
_atom_site_fract_z
Si Si1 0.343859 0.913666 0.798220
Si Si2 0.250000 0.250000 0.018160
Si Si3 0.500000 0.500000 0.155711
Si Si4 0.666989 0.903805 0.137986
Si Si5 0.500000 0.000000 0.973445
O O1 0.305394 0.721064 0.851705
O O2 0.357706 0.761968 0.713489
O O3 0.385388 0.094150 0.850699
O O4 0.299030 0.130632 0.773778
O O5 0.242260 0.501376 0.962325
O O6 0.191775 0.222110 0.066987
O O7 0.723657 0.025819 0.170316
#
# Coordination Sequence:
#
# PCOD9372862 Si02
#       5
#    16   8   8  16   8
#     4  12  29  55  90 129 180 241 303 382 471 556
#     4  12  28  56  89 129 180 232 302 386 458 556
#     4  12  28  56  89 129 180 232 302 386 458 556
#     4  12  29  55  90 129 180 241 303 382 471 556
#     4  12  24  56  88 120 188 222 302 378 450 540
#
# _framework density 27.428585000000002
#
# number of rings (size 3 to 8) (size 9 to 14) (size 15 to 20)
#    0.000    0.000    5.714    1.714    4.000    9.143 
#    0.000    5.714    0.000    0.000    0.000    0.000 
#    0.000    0.000    0.000    0.000    0.000    0.000 
#
# Total GULP energy -78479.724908 kJ/mol
# GULP energy per Si atom -5605.694636 kJ/mol
# Density = 2.736616 g / cm^3
# Si number density = 27.428585 Si / 1000 Ang^3
#
#
#
# Elastic Constant Matrix: (Units=GPa)
#
#
# Indices 1 2 3 4 5 6 
#
# 1 101.2374 40.1372 83.6763 0.0003 0.0022 -0.0009
# 2 40.1372 148.3061 80.4212 0.0015 -0.0040 -0.0014
# 3 83.6763 80.4212 180.2406 0.0001 -0.0009 -0.0001
# 4 0.0003 0.0015 0.0001 82.9960 -0.0022 -0.0005
# 5 0.0022 -0.0040 -0.0009 -0.0022 -125.2432 -0.0009
# 6 -0.0009 -0.0014 -0.0001 -0.0005 -0.0009 61.1683
#
#
#
# Elastic Compliance Matrix: (Units=1/GPa)
#
#
# Indices 1 2 3 4 5 6 
#
# 1 0.016046 -0.000400 -0.007271 0.000000 0.000000 0.000000
# 2 -0.000400 0.008905 -0.003788 0.000000 0.000000 0.000000
# 3 -0.007271 -0.003788 0.010614 0.000000 0.000000 0.000000
# 4 0.000000 0.000000 0.000000 0.012049 0.000000 0.000000
# 5 0.000000 0.000000 0.000000 0.000000 -0.007984 0.000000
# 6 0.000000 0.000000 0.000000 0.000000 0.000000 0.016348
#
#
# Mechanical properties :
#
#
# Convention : Reuss Voigt Hill
#
# Bulk Modulus (GPa) = 79.06567 93.13929 86.10248
# Shear Modulus (GPa) = 60.16137 18.82084 39.49111
#
# Velocity S-wave (km/s) = 4.68844 2.62234 3.79856
# Velocity P-wave (km/s) = 7.62871 6.57264 7.12028
#
# Compressibility (1/GPa) = 0.01264771
#
# Stress axis : x y z
#
# Youngs Moduli (GPa) = 62.32104 112.29738 94.21865
#
# Poissons Ratio (x) = 0.04491 0.68505
# Poissons Ratio (y) = 0.02492 0.35686
# Poissons Ratio (z) = 0.45313 0.42534
#
# Static dielectric constant tensor:
#      x y z
#    x 2.158400 0.000010 0.000000 
#    y 0.000010 2.228070 0.000000 
#    z 0.000000 0.000000 2.302270 
# 
# From -- ./inp_files/8638.got.cif
#   From: 2010.05.17/outbox.cif.g08.bks.cpg/sg43_5_cif.got.tgz:8638.got - 2010.06.03 19:21:55.
