data_PCOD9372102
_publ_section_title
;
Structure prediction by ZEFSAII (Michael W. Deem and Ramdas Pophale) SiO2 
 PCOD9372102
Probable space group: F D D 2
;
_chemical_formula_sum "Si O2"
_cell_formula_units_Z 120
_cell_length_a 23.925390
_cell_length_b 8.779995
_cell_length_c 26.335176
_cell_angle_alpha 90.000000
_cell_angle_beta 90.000000
_cell_angle_gamma 90.000000
_cell_volume 5532.093600
_symmetry_space_group_name_H-M "F D D 2"
_symmetry_group_IT_number 43
_symmetry_cell_setting 'orthorhombic'
loop_
_space_group_symop_operation_xyz
x,y,z
-x,-y,z
1/4-x,1/4+y,1/4+z
1/4+x,1/4-y,1/4+z
x,1/2+y,1/2+z
-x,1/2-y,1/2+z
1/4-x,3/4+y,3/4+z
1/4+x,3/4-y,3/4+z
1/2+x,y,1/2+z
1/2-x,-y,1/2+z
3/4-x,1/4+y,3/4+z
3/4+x,1/4-y,3/4+z
1/2+x,1/2+y,z
1/2-x,1/2-y,z
3/4-x,3/4+y,1/4+z
3/4+x,3/4-y,1/4+z
loop_
_atom_site_type_symbol
_atom_site_label
_atom_site_fract_x
_atom_site_fract_y
_atom_site_fract_z
Si Si1 0.057748 0.559805 0.334580
Si Si2 0.684766 0.787722 0.698924
Si Si3 0.811654 0.323931 0.088120
Si Si4 0.250000 0.250000 0.422602
Si Si5 0.605167 0.569799 0.937490
Si Si6 0.111611 0.027800 0.236664
Si Si7 0.335685 0.955913 0.271498
Si Si8 0.219129 0.086661 0.876032
O O1 0.057974 0.743579 0.335951
O O2 0.066041 0.507572 0.392745
O O3 0.108413 0.498242 0.300954
O O4 0.000000 0.500000 0.313328
O O5 0.750000 0.750000 0.704772
O O6 0.668268 0.728972 0.643536
O O7 0.665522 0.957605 0.708730
O O8 0.652717 0.703457 0.744175
O O9 0.750000 0.250000 0.080626
O O10 0.852581 0.264063 0.044789
O O11 0.194424 0.229711 0.456535
O O12 0.241342 0.417551 0.394762
O O13 0.630132 0.454747 0.978195
O O14 0.659761 0.616987 0.904467
O O15 0.573497 0.690923 0.972581
O O16 0.290389 0.936582 0.315572
O O17 0.250000 0.250000 0.883525
#
# Coordination Sequence:
#
# PCOD9372102 Si02
#       8
#    16  16  16   8  16  16  16  16
#     4  11  25  42  69  97 136 181 227 286 344 427
#     4  11  25  44  68  99 137 185 235 285 353 431
#     4  11  24  42  69 100 132 178 235 281 351 431
#     4  10  24  46  70 108 136 180 244 298 366 424
#     4  10  25  43  66 101 140 178 232 289 360 421
#     4  11  24  44  71 100 140 179 233 302 357 424
#     4  11  23  45  65 101 136 178 236 280 355 428
#     4  10  24  45  71  99 140 185 232 293 356 430
#
# _framework density 21.691606
#
# number of rings (size 3 to 8) (size 9 to 14) (size 15 to 20)
#    0.000    1.333    3.333    0.400    7.467    2.667 
#    8.400    0.000    0.000    0.800    0.000    0.000 
#    0.000    0.000    0.000    0.000    0.000    0.000 
#
# Total GULP energy -167290.302356 kJ/mol
# GULP energy per Si atom -5576.343412 kJ/mol
# Density = 2.164223 g / cm^3
# Si number density = 21.691606 Si / 1000 Ang^3
#
#
#
# Elastic Constant Matrix: (Units=GPa)
#
#
# Indices 1 2 3 4 5 6 
#
# 1 64.3182 11.6176 15.5668 0.0000 0.0000 0.0000
# 2 11.6176 55.8726 37.0887 -0.0002 0.0000 -0.0001
# 3 15.5668 37.0887 124.6020 0.0000 0.0000 0.0000
# 4 0.0000 -0.0002 0.0000 75.1971 0.0000 0.0001
# 5 0.0000 0.0000 0.0000 0.0000 9.1966 0.0000
# 6 0.0000 -0.0001 0.0000 0.0001 0.0000 32.5247
#
#
#
# Elastic Compliance Matrix: (Units=1/GPa)
#
#
# Indices 1 2 3 4 5 6 
#
# 1 0.016317 -0.002542 -0.001282 0.000000 0.000000 0.000000
# 2 -0.002542 0.022701 -0.006440 0.000000 0.000000 0.000000
# 3 -0.001282 -0.006440 0.010102 0.000000 0.000000 0.000000
# 4 0.000000 0.000000 0.000000 0.013298 0.000000 0.000000
# 5 0.000000 0.000000 0.000000 0.000000 0.108736 0.000000
# 6 0.000000 0.000000 0.000000 0.000000 0.000000 0.030746
#
#
# Mechanical properties :
#
#
# Convention : Reuss Voigt Hill
#
# Bulk Modulus (GPa) = 34.97250 41.48212 38.22731
# Shear Modulus (GPa) = 21.55551 35.41833 28.48692
#
# Velocity S-wave (km/s) = 3.15576 4.04519 3.62784
# Velocity P-wave (km/s) = 5.42550 6.40181 5.93377
#
# Compressibility (1/GPa) = 0.02859389
#
# Stress axis : x y z
#
# Youngs Moduli (GPa) = 61.28546 44.05080 98.98540
#
# Poissons Ratio (x) = 0.11197 0.12689
# Poissons Ratio (y) = 0.15578 0.63742
# Poissons Ratio (z) = 0.07856 0.28367
#
# Static dielectric constant tensor:
#      x y z
#    x 1.806690 0.000000 0.000000 
#    y 0.000000 1.651470 0.000000 
#    z 0.000000 0.000000 1.764730 
# 
# From -- ./inp_files/22844.got.cif
#   From: 2010.05.17/outbox.cif.g08.bks.cpg/sg43_12_cif.got.tgz:22844.got - 2010.06.03 19:21:55.
