data_PCOD9372371
_publ_section_title
;
Structure prediction by ZEFSAII (Michael W. Deem and Ramdas Pophale) SiO2 
 PCOD9372371
Probable space group: F D D 2
;
_chemical_formula_sum "Si O2"
_cell_formula_units_Z 88
_cell_length_a 11.507774
_cell_length_b 25.494439
_cell_length_c 14.243364
_cell_angle_alpha 90.000000
_cell_angle_beta 90.000000
_cell_angle_gamma 90.000000
_cell_volume 4178.778554
_symmetry_space_group_name_H-M "F D D 2"
_symmetry_group_IT_number 43
_symmetry_cell_setting 'orthorhombic'
loop_
_space_group_symop_operation_xyz
x,y,z
-x,-y,z
1/4-x,1/4+y,1/4+z
1/4+x,1/4-y,1/4+z
x,1/2+y,1/2+z
-x,1/2-y,1/2+z
1/4-x,3/4+y,3/4+z
1/4+x,3/4-y,3/4+z
1/2+x,y,1/2+z
1/2-x,-y,1/2+z
3/4-x,1/4+y,3/4+z
3/4+x,1/4-y,3/4+z
1/2+x,1/2+y,z
1/2-x,1/2-y,z
3/4-x,3/4+y,1/4+z
3/4+x,3/4-y,1/4+z
loop_
_atom_site_type_symbol
_atom_site_label
_atom_site_fract_x
_atom_site_fract_y
_atom_site_fract_z
Si Si1 0.500000 0.000000 0.663710
Si Si2 0.115243 0.899760 0.149897
Si Si3 0.615886 0.748828 0.713151
Si Si4 0.863340 0.895686 0.587271
Si Si5 0.170099 0.197486 0.894887
Si Si6 0.289797 0.954261 0.788356
O O1 0.562750 0.952914 0.608453
O O2 0.394939 0.973809 0.722611
O O3 0.087128 0.898665 0.260710
O O4 0.254128 0.896949 0.154159
O O5 0.069784 0.850585 0.090214
O O6 0.750000 0.750000 0.678091
O O7 0.603539 0.801929 0.773522
O O8 0.609845 0.703898 0.791918
O O9 0.533338 0.753510 0.623774
O O10 0.987428 0.900147 0.636965
O O11 0.250000 0.250000 0.907350
O O12 0.074386 0.197138 0.975406
#
# Coordination Sequence:
#
# PCOD9372371 Si02
#       6
#     8  16  16  16  16  16
#     4  12  22  38  72  96 126 184 224 284 342 380
#     4  11  22  40  66  93 129 173 234 276 328 416
#     4   8  16  34  61  88 118 167 213 257 319 402
#     4   9  19  38  59  88 125 170 221 276 318 405
#     4   9  19  38  64  91 131 172 214 273 337 400
#     4  11  21  38  68  99 132 169 230 284 332 408
#
# _framework density 21.058783999999999
#
# number of rings (size 3 to 8) (size 9 to 14) (size 15 to 20)
#    0.000    2.545    2.727    2.182    0.000    0.000 
#    3.273    0.000   26.000    0.000    0.000    0.000 
#    0.000    0.000    0.000    0.000    0.000    0.000 
#
# Total GULP energy -122572.923586 kJ/mol
# GULP energy per Si atom -5571.496527 kJ/mol
# Density = 2.101085 g / cm^3
# Si number density = 21.058784 Si / 1000 Ang^3
#
#
#
# Elastic Constant Matrix: (Units=GPa)
#
#
# Indices 1 2 3 4 5 6 
#
# 1 110.6483 25.3064 62.9903 0.0000 0.0000 0.0000
# 2 25.3064 75.2526 14.9538 0.0000 0.0000 0.0000
# 3 62.9903 14.9538 79.3977 0.0000 0.0000 0.0000
# 4 0.0000 0.0000 0.0000 16.1364 0.0000 0.0000
# 5 0.0000 0.0000 0.0000 0.0000 40.9345 0.0000
# 6 0.0000 0.0000 0.0000 0.0000 0.0000 31.1985
#
#
#
# Elastic Compliance Matrix: (Units=1/GPa)
#
#
# Indices 1 2 3 4 5 6 
#
# 1 0.017188 -0.003190 -0.013035 0.000000 0.000000 0.000000
# 2 -0.003190 0.014397 -0.000181 0.000000 0.000000 0.000000
# 3 -0.013035 -0.000181 0.022971 0.000000 0.000000 0.000000
# 4 0.000000 0.000000 0.000000 0.061972 0.000000 0.000000
# 5 0.000000 0.000000 0.000000 0.000000 0.024429 0.000000
# 6 0.000000 0.000000 0.000000 0.000000 0.000000 0.032053
#
#
# Mechanical properties :
#
#
# Convention : Reuss Voigt Hill
#
# Bulk Modulus (GPa) = 45.99067 52.42219 49.20643
# Shear Modulus (GPa) = 23.46652 28.45710 25.96181
#
# Velocity S-wave (km/s) = 3.34179 3.68001 3.51497
# Velocity P-wave (km/s) = 6.06437 6.55774 6.31588
#
# Compressibility (1/GPa) = 0.02174354
#
# Stress axis : x y z
#
# Youngs Moduli (GPa) = 58.18015 69.45787 43.53402
#
# Poissons Ratio (x) = 0.22155 0.56748
# Poissons Ratio (y) = 0.18558 0.00788
# Poissons Ratio (z) = 0.75840 0.01257
#
# Static dielectric constant tensor:
#      x y z
#    x 1.763340 0.000000 0.000000 
#    y 0.000000 1.859210 0.000000 
#    z 0.000000 0.000000 1.791780 
# 
# From -- ./inp_files/5732.got.cif
#   From: 2010.05.17/outbox.cif.g08.bks.cpg/sg43_3_cif.got.tgz:5732.got - 2010.06.03 19:21:55.
