data_PCOD9372354
_publ_section_title
;
Structure prediction by ZEFSAII (Michael W. Deem and Ramdas Pophale) SiO2 
 PCOD9372354
Probable space group: F D D 2
;
_chemical_formula_sum "Si O2"
_cell_formula_units_Z 112
_cell_length_a 14.996488
_cell_length_b 11.959404
_cell_length_c 27.259688
_cell_angle_alpha 90.000000
_cell_angle_beta 90.000000
_cell_angle_gamma 90.000000
_cell_volume 4888.999380
_symmetry_space_group_name_H-M "F D D 2"
_symmetry_group_IT_number 43
_symmetry_cell_setting 'orthorhombic'
loop_
_space_group_symop_operation_xyz
x,y,z
-x,-y,z
1/4-x,1/4+y,1/4+z
1/4+x,1/4-y,1/4+z
x,1/2+y,1/2+z
-x,1/2-y,1/2+z
1/4-x,3/4+y,3/4+z
1/4+x,3/4-y,3/4+z
1/2+x,y,1/2+z
1/2-x,-y,1/2+z
3/4-x,1/4+y,3/4+z
3/4+x,1/4-y,3/4+z
1/2+x,1/2+y,z
1/2-x,1/2-y,z
3/4-x,3/4+y,1/4+z
3/4+x,3/4-y,1/4+z
loop_
_atom_site_type_symbol
_atom_site_label
_atom_site_fract_x
_atom_site_fract_y
_atom_site_fract_z
Si Si1 0.397604 0.537692 0.114880
Si Si2 0.221554 0.022361 0.430088
Si Si3 0.048034 0.146478 0.975242
Si Si4 0.111076 0.692885 0.759989
Si Si5 0.444328 0.606141 0.599247
Si Si6 0.433680 0.600391 0.484108
Si Si7 0.493038 0.881988 0.370243
O O1 0.500000 0.500000 0.103094
O O2 0.410276 0.632527 0.155401
O O3 0.347205 0.584204 0.066678
O O4 0.334453 0.433018 0.128147
O O5 0.289531 0.079892 0.468272
O O6 0.272004 0.956178 0.385337
O O7 0.162085 0.942411 0.464883
O O8 0.050989 0.089138 0.922517
O O9 0.057821 0.275559 0.963068
O O10 0.952144 0.120140 0.997273
O O11 0.119281 0.077926 0.007415
O O12 0.500000 0.500000 0.616018
O O13 0.458148 0.626279 0.541307
O O14 0.340253 0.568884 0.597292
O O15 0.500000 0.500000 0.469370
O O16 0.500000 0.000000 0.342608
#
# Coordination Sequence:
#
# PCOD9372354 Si02
#       7
#    16  16  16  16  16  16  16
#     4  12  25  42  71 109 150 192 255 309 377 453
#     4  12  25  46  73 111 147 199 250 305 380 444
#     4  11  20  42  66  93 142 177 237 299 369 424
#     4  11  23  42  71 109 140 191 244 313 369 435
#     4  11  24  44  68 102 145 194 246 299 371 447
#     4  11  26  44  68 103 149 196 243 307 375 443
#     4  12  23  41  67 100 134 183 239 303 362 436
#
# _framework density 22.908573000000001
#
# number of rings (size 3 to 8) (size 9 to 14) (size 15 to 20)
#    0.000    0.571    4.286    5.143    2.000    0.000 
#    0.000    0.000    0.000    6.857    0.000    0.000 
#    0.000    0.000    0.000    0.000    0.000    0.000 
#
# Total GULP energy -156095.837749 kJ/mol
# GULP energy per Si atom -5574.851348 kJ/mol
# Density = 2.285643 g / cm^3
# Si number density = 22.908573 Si / 1000 Ang^3
#
#
#
# Elastic Constant Matrix: (Units=GPa)
#
#
# Indices 1 2 3 4 5 6 
#
# 1 115.2893 52.6355 12.2473 0.0000 0.0000 0.0000
# 2 52.6355 95.7767 7.2032 0.0000 0.0000 0.0000
# 3 12.2473 7.2032 70.8161 0.0000 0.0000 0.0000
# 4 0.0000 0.0000 0.0000 21.2939 0.0000 0.0000
# 5 0.0000 0.0000 0.0000 0.0000 18.0518 0.0000
# 6 0.0000 0.0000 0.0000 0.0000 0.0000 33.3802
#
#
#
# Elastic Compliance Matrix: (Units=1/GPa)
#
#
# Indices 1 2 3 4 5 6 
#
# 1 0.011712 -0.006332 -0.001381 0.000000 0.000000 0.000000
# 2 -0.006332 0.013945 -0.000323 0.000000 0.000000 0.000000
# 3 -0.001381 -0.000323 0.014393 0.000000 0.000000 0.000000
# 4 0.000000 0.000000 0.000000 0.046962 0.000000 0.000000
# 5 0.000000 0.000000 0.000000 0.000000 0.055396 0.000000
# 6 0.000000 0.000000 0.000000 0.000000 0.000000 0.029958
#
#
# Mechanical properties :
#
#
# Convention : Reuss Voigt Hill
#
# Bulk Modulus (GPa) = 41.70895 47.33935 44.52415
# Shear Modulus (GPa) = 25.45411 28.53157 26.99284
#
# Velocity S-wave (km/s) = 3.33696 3.53293 3.43634
# Velocity P-wave (km/s) = 5.75268 6.11158 5.93484
#
# Compressibility (1/GPa) = 0.02397567
#
# Stress axis : x y z
#
# Youngs Moduli (GPa) = 85.38507 71.70858 69.47879
#
# Poissons Ratio (x) = 0.45409 0.09598
# Poissons Ratio (y) = 0.54069 0.02246
# Poissons Ratio (z) = 0.11795 0.02318
#
# Static dielectric constant tensor:
#      x y z
#    x 2.029240 0.000000 0.000000 
#    y 0.000000 1.910130 0.000000 
#    z 0.000000 0.000000 1.915460 
# 
# From -- ./inp_files/29094.got.cif
#   From: 2010.05.17/outbox.cif.g08.bks.cpg/sg43_15_cif.got.tgz:29094.got - 2010.06.03 19:21:55.
