data_PCOD9372100
_publ_section_title
;
Structure prediction by ZEFSAII (Michael W. Deem and Ramdas Pophale) SiO2 
 PCOD9372100
Probable space group: F D D 2
;
_chemical_formula_sum "Si O2"
_cell_formula_units_Z 88
_cell_length_a 6.000950
_cell_length_b 28.324776
_cell_length_c 23.431092
_cell_angle_alpha 90.000000
_cell_angle_beta 90.000000
_cell_angle_gamma 90.000000
_cell_volume 3982.713090
_symmetry_space_group_name_H-M "F D D 2"
_symmetry_group_IT_number 43
_symmetry_cell_setting 'orthorhombic'
loop_
_space_group_symop_operation_xyz
x,y,z
-x,-y,z
1/4-x,1/4+y,1/4+z
1/4+x,1/4-y,1/4+z
x,1/2+y,1/2+z
-x,1/2-y,1/2+z
1/4-x,3/4+y,3/4+z
1/4+x,3/4-y,3/4+z
1/2+x,y,1/2+z
1/2-x,-y,1/2+z
3/4-x,1/4+y,3/4+z
3/4+x,1/4-y,3/4+z
1/2+x,1/2+y,z
1/2-x,1/2-y,z
3/4-x,3/4+y,1/4+z
3/4+x,3/4-y,1/4+z
loop_
_atom_site_type_symbol
_atom_site_label
_atom_site_fract_x
_atom_site_fract_y
_atom_site_fract_z
Si Si1 0.149368 0.370841 0.683060
Si Si2 0.115377 0.049907 0.118620
Si Si3 0.811524 0.039347 0.393912
Si Si4 0.242695 0.675638 0.740046
Si Si5 0.059421 0.925630 0.710144
Si Si6 0.250000 0.250000 0.048269
O O1 0.312370 0.339357 0.644174
O O2 0.991869 0.402344 0.644081
O O3 0.017171 0.333586 0.723614
O O4 0.672637 0.377545 0.730561
O O5 0.069176 0.055254 0.051244
O O6 0.359521 0.054876 0.148315
O O7 0.000000 0.000000 0.135839
O O8 0.628260 0.044064 0.443726
O O9 0.674172 0.027172 0.337751
O O10 0.000000 0.000000 0.403322
O O11 0.698738 0.589334 0.712738
O O12 0.122624 0.964278 0.756368
#
# Coordination Sequence:
#
# PCOD9372100 Si02
#       6
#    16  16  16  16  16   8
#     4  10  24  45  70 102 139 190 242 295 374 435
#     4  11  25  44  72 101 146 183 240 304 370 442
#     4  11  26  43  70 103 143 190 248 296 364 435
#     4  10  25  45  70 101 144 187 245 297 364 444
#     4  10  25  45  67 105 143 186 238 300 370 433
#     4  12  26  42  74 104 148 184 250 302 362 454
#
# _framework density 22.095489000000001
#
# number of rings (size 3 to 8) (size 9 to 14) (size 15 to 20)
#    0.000    1.455    0.000    2.182   16.545    3.636 
#    1.636    0.000    0.000    0.000    0.000    0.000 
#    0.000    0.000    0.000    0.000    0.000    0.000 
#
# Total GULP energy -122680.579817 kJ/mol
# GULP energy per Si atom -5576.389992 kJ/mol
# Density = 2.204520 g / cm^3
# Si number density = 22.095489 Si / 1000 Ang^3
#
#
#
# Elastic Constant Matrix: (Units=GPa)
#
#
# Indices 1 2 3 4 5 6 
#
# 1 78.3384 9.4202 46.2776 0.0000 0.0000 0.0000
# 2 9.4202 90.0416 40.2991 0.0000 0.0000 0.0000
# 3 46.2776 40.2991 134.9301 0.0000 0.0000 0.0000
# 4 0.0000 0.0000 0.0000 44.3932 0.0000 0.0000
# 5 0.0000 0.0000 0.0000 0.0000 15.9113 0.0000
# 6 0.0000 0.0000 0.0000 0.0000 0.0000 44.1904
#
#
#
# Elastic Compliance Matrix: (Units=1/GPa)
#
#
# Indices 1 2 3 4 5 6 
#
# 1 0.016073 0.000907 -0.005783 0.000000 0.000000 0.000000
# 2 0.000907 0.012871 -0.004155 0.000000 0.000000 0.000000
# 3 -0.005783 -0.004155 0.010636 0.000000 0.000000 0.000000
# 4 0.000000 0.000000 0.000000 0.022526 0.000000 0.000000
# 5 0.000000 0.000000 0.000000 0.000000 0.062849 0.000000
# 6 0.000000 0.000000 0.000000 0.000000 0.000000 0.022629
#
#
# Mechanical properties :
#
#
# Convention : Reuss Voigt Hill
#
# Bulk Modulus (GPa) = 46.47716 55.03377 50.75546
# Shear Modulus (GPa) = 28.93217 34.71985 31.82601
#
# Velocity S-wave (km/s) = 3.62251 3.96833 3.79936
# Velocity P-wave (km/s) = 6.21105 6.77925 6.50136
#
# Compressibility (1/GPa) = 0.02151595
#
# Stress axis : x y z
#
# Youngs Moduli (GPa) = 62.21802 77.69545 94.02236
#
# Poissons Ratio (x) = -0.07046 0.54376
# Poissons Ratio (y) = -0.05642 0.39067
# Poissons Ratio (z) = 0.35983 0.32283
#
# Static dielectric constant tensor:
#      x y z
#    x 1.999720 0.000000 0.000000 
#    y 0.000000 1.709660 0.000000 
#    z 0.000000 0.000000 1.797430 
# 
# From -- ./inp_files/19559.got.cif
#   From: 2010.05.17/outbox.cif.g08.bks.cpg/sg43_10_cif.got.tgz:19559.got - 2010.06.03 19:21:55.
