data_PCOD9372020
_publ_section_title
;
Structure prediction by ZEFSAII (Michael W. Deem and Ramdas Pophale) SiO2 
 PCOD9372020
Probable space group: F D D 2
;
_chemical_formula_sum "Si O2"
_cell_formula_units_Z 112
_cell_length_a 5.581123
_cell_length_b 29.646693
_cell_length_c 31.907083
_cell_angle_alpha 90.000000
_cell_angle_beta 90.000000
_cell_angle_gamma 90.000000
_cell_volume 5279.404668
_symmetry_space_group_name_H-M "F D D 2"
_symmetry_group_IT_number 43
_symmetry_cell_setting 'orthorhombic'
loop_
_space_group_symop_operation_xyz
x,y,z
-x,-y,z
1/4-x,1/4+y,1/4+z
1/4+x,1/4-y,1/4+z
x,1/2+y,1/2+z
-x,1/2-y,1/2+z
1/4-x,3/4+y,3/4+z
1/4+x,3/4-y,3/4+z
1/2+x,y,1/2+z
1/2-x,-y,1/2+z
3/4-x,1/4+y,3/4+z
3/4+x,1/4-y,3/4+z
1/2+x,1/2+y,z
1/2-x,1/2-y,z
3/4-x,3/4+y,1/4+z
3/4+x,3/4-y,1/4+z
loop_
_atom_site_type_symbol
_atom_site_label
_atom_site_fract_x
_atom_site_fract_y
_atom_site_fract_z
Si Si1 0.506496 0.724249 0.717120
Si Si2 0.750000 0.844130 0.563428
Si Si3 0.644682 0.955420 0.253407
Si Si4 0.256496 0.974249 0.659735
Si Si5 0.389348 0.634311 0.860081
Si Si6 0.860652 0.615689 0.016774
Si Si7 0.894682 0.705420 0.123448
O O1 0.750000 0.750000 0.730304
O O2 0.524380 0.676466 0.740388
O O3 0.522121 0.715967 0.667232
O O4 0.250000 0.750000 0.724708
O O5 0.563490 0.811503 0.540565
O O6 0.638949 0.876174 0.599338
O O7 0.861051 0.876174 0.527517
O O8 0.936510 0.811503 0.586290
O O9 0.772121 0.965967 0.209623
O O10 0.472855 0.912494 0.246182
O O11 0.500000 0.000000 0.264693
O O12 0.274380 0.926466 0.636467
O O13 0.500000 0.000000 0.646551
O O14 0.000000 0.000000 0.652148
O O15 0.500000 0.638310 0.813428
O O16 0.472855 0.587506 0.880673
O O17 0.750000 0.750000 0.112163
#
# Coordination Sequence:
#
# PCOD9372020 Si02
#       7
#    16  16  16  16  16  16  16
#     4  11  27  46  71 101 138 183 233 284 344 413
#     4  10  24  41  72  98 142 180 236 284 359 410
#     4  10  24  44  65 102 136 180 229 286 353 415
#     4  11  27  46  71 101 138 183 233 284 344 413
#     4  10  24  44  69  99 134 179 230 288 346 411
#     4  10  24  44  69  99 134 179 230 288 346 411
#     4  10  24  44  65 102 136 180 229 286 353 415
#
# _framework density 21.214511999999999
#
# number of rings (size 3 to 8) (size 9 to 14) (size 15 to 20)
#    0.000    1.714    0.000    0.857   16.000    8.571 
#    0.000    0.000    0.000    0.000    0.000    0.000 
#    0.000    0.000    0.000    0.000    0.000    0.000 
#
# Total GULP energy -156330.068547 kJ/mol
# GULP energy per Si atom -5583.216734 kJ/mol
# Density = 2.116623 g / cm^3
# Si number density = 21.214512 Si / 1000 Ang^3
#
#
#
# Elastic Constant Matrix: (Units=GPa)
#
#
# Indices 1 2 3 4 5 6 
#
# 1 104.3035 71.8096 27.9803 0.0000 0.0000 0.0000
# 2 71.8096 174.4636 55.9203 0.0000 0.0000 0.0000
# 3 27.9803 55.9203 63.9356 0.0000 0.0000 0.0000
# 4 0.0000 0.0000 0.0000 38.4257 0.0000 0.0000
# 5 0.0000 0.0000 0.0000 0.0000 4.0164 0.0000
# 6 0.0000 0.0000 0.0000 0.0000 0.0000 21.0787
#
#
#
# Elastic Compliance Matrix: (Units=1/GPa)
#
#
# Indices 1 2 3 4 5 6 
#
# 1 0.013475 -0.005080 -0.001454 0.000000 0.000000 0.000000
# 2 -0.005080 0.009880 -0.006418 0.000000 0.000000 0.000000
# 3 -0.001454 -0.006418 0.021890 0.000000 0.000000 0.000000
# 4 0.000000 0.000000 0.000000 0.026024 0.000000 0.000000
# 5 0.000000 0.000000 0.000000 0.000000 0.248980 0.000000
# 6 0.000000 0.000000 0.000000 0.000000 0.000000 0.047441
#
#
# Mechanical properties :
#
#
# Convention : Reuss Voigt Hill
#
# Bulk Modulus (GPa) = 51.70293 72.68035 62.19164
# Shear Modulus (GPa) = 12.49867 25.17033 18.83450
#
# Velocity S-wave (km/s) = 2.42989 3.44825 2.98285
# Velocity P-wave (km/s) = 5.68303 7.08435 6.42203
#
# Compressibility (1/GPa) = 0.01934126
#
# Stress axis : x y z
#
# Youngs Moduli (GPa) = 74.21108 101.21269 45.68199
#
# Poissons Ratio (x) = 0.51421 0.06640
# Poissons Ratio (y) = 0.37703 0.29320
# Poissons Ratio (z) = 0.10787 0.64960
#
# Static dielectric constant tensor:
#      x y z
#    x 1.925390 0.000000 0.000000 
#    y 0.000000 1.739660 0.000000 
#    z 0.000000 0.000000 1.743170 
# 
# From -- ./inp_files/27432.got.cif
#   From: 2010.05.17/outbox.cif.g08.bks.cpg/sg43_14_cif.got.tgz:27432.got - 2010.06.03 19:21:55.
