data_PCOD9372532
_publ_section_title
;
Structure prediction by ZEFSAII (Michael W. Deem and Ramdas Pophale) SiO2 
 PCOD9372532
Probable space group: F D D 2
;
_chemical_formula_sum "Si O2"
_cell_formula_units_Z 112
_cell_length_a 14.172972
_cell_length_b 16.724900
_cell_length_c 23.170015
_cell_angle_alpha 90.000000
_cell_angle_beta 90.000000
_cell_angle_gamma 90.000000
_cell_volume 5492.256024
_symmetry_space_group_name_H-M "F D D 2"
_symmetry_group_IT_number 43
_symmetry_cell_setting 'orthorhombic'
loop_
_space_group_symop_operation_xyz
x,y,z
-x,-y,z
1/4-x,1/4+y,1/4+z
1/4+x,1/4-y,1/4+z
x,1/2+y,1/2+z
-x,1/2-y,1/2+z
1/4-x,3/4+y,3/4+z
1/4+x,3/4-y,3/4+z
1/2+x,y,1/2+z
1/2-x,-y,1/2+z
3/4-x,1/4+y,3/4+z
3/4+x,1/4-y,3/4+z
1/2+x,1/2+y,z
1/2-x,1/2-y,z
3/4-x,3/4+y,1/4+z
3/4+x,3/4-y,1/4+z
loop_
_atom_site_type_symbol
_atom_site_label
_atom_site_fract_x
_atom_site_fract_y
_atom_site_fract_z
Si Si1 0.896790 0.036033 0.305310
Si Si2 0.864926 0.156556 0.202490
Si Si3 0.347554 0.336855 0.681851
Si Si4 0.765625 0.572242 0.269894
Si Si5 0.753513 0.847198 0.152515
Si Si6 0.916248 0.938927 0.784906
Si Si7 0.216505 0.339826 0.381005
O O1 0.890055 0.106373 0.258868
O O2 0.865833 0.071532 0.367219
O O3 0.838644 0.962592 0.278209
O O4 0.000000 0.000000 0.315424
O O5 0.761077 0.131644 0.179141
O O6 0.852484 0.250226 0.211817
O O7 0.950961 0.143484 0.158682
O O8 0.402800 0.391693 0.726037
O O9 0.787757 0.602653 0.205943
O O10 0.826508 0.496778 0.292089
O O11 0.780197 0.646038 0.312653
O O12 0.750000 0.750000 0.162142
O O13 0.695506 0.859172 0.092733
O O14 0.861855 0.879634 0.148144
O O15 0.000000 0.000000 0.776645
O O16 0.250000 0.250000 0.396322
#
# Coordination Sequence:
#
# PCOD9372532 Si02
#       7
#    16  16  16  16  16  16  16
#     4  12  23  45  72 102 140 186 237 309 367 428
#     4  11  23  43  70 101 139 180 235 298 364 429
#     4  11  24  45  67 101 143 183 238 294 365 437
#     4  12  23  44  72  99 142 190 242 301 368 440
#     4  11  25  47  70 106 148 190 243 305 372 441
#     4  11  25  47  68  98 148 194 239 296 360 456
#     4  12  24  44  71 107 140 185 248 307 365 432
#
# _framework density 20.392347999999998
#
# number of rings (size 3 to 8) (size 9 to 14) (size 15 to 20)
#    0.000    0.571    7.143    2.571    0.000    3.429 
#    7.714    0.000    0.000    0.000    0.000    0.000 
#    0.000    0.000    0.000    0.000    0.000    0.000 
#
# Total GULP energy -156194.817953 kJ/mol
# GULP energy per Si atom -5578.386355 kJ/mol
# Density = 2.034593 g / cm^3
# Si number density = 20.392348 Si / 1000 Ang^3
#
#
#
# Elastic Constant Matrix: (Units=GPa)
#
#
# Indices 1 2 3 4 5 6 
#
# 1 72.7523 23.7091 37.8131 0.0000 0.0000 0.0000
# 2 23.7091 55.6330 39.3634 0.0000 0.0000 0.0000
# 3 37.8131 39.3634 131.9200 0.0000 0.0000 0.0000
# 4 0.0000 0.0000 0.0000 52.9685 0.0000 0.0000
# 5 0.0000 0.0000 0.0000 0.0000 23.5310 0.0000
# 6 0.0000 0.0000 0.0000 0.0000 0.0000 29.4092
#
#
#
# Elastic Compliance Matrix: (Units=1/GPa)
#
#
# Indices 1 2 3 4 5 6 
#
# 1 0.017125 -0.004849 -0.003462 0.000000 0.000000 0.000000
# 2 -0.004849 0.024158 -0.005819 0.000000 0.000000 0.000000
# 3 -0.003462 -0.005819 0.010309 0.000000 0.000000 0.000000
# 4 0.000000 0.000000 0.000000 0.018879 0.000000 0.000000
# 5 0.000000 0.000000 0.000000 0.000000 0.042497 0.000000
# 6 0.000000 0.000000 0.000000 0.000000 0.000000 0.034003
#
#
# Mechanical properties :
#
#
# Convention : Reuss Voigt Hill
#
# Bulk Modulus (GPa) = 42.85672 51.34182 47.09927
# Shear Modulus (GPa) = 27.32130 31.80972 29.56551
#
# Velocity S-wave (km/s) = 3.66427 3.95382 3.81180
# Velocity P-wave (km/s) = 6.24213 6.78788 6.52072
#
# Compressibility (1/GPa) = 0.02333356
#
# Stress axis : x y z
#
# Youngs Moduli (GPa) = 58.39536 41.39349 97.00373
#
# Poissons Ratio (x) = 0.20070 0.33581
# Poissons Ratio (y) = 0.28314 0.56444
# Poissons Ratio (z) = 0.20215 0.24086
#
# Static dielectric constant tensor:
#      x y z
#    x 1.740350 0.000000 0.000000 
#    y 0.000000 1.718640 0.000000 
#    z 0.000000 0.000000 1.743480 
# 
# From -- ./inp_files/21728.got.cif
#   From: 2010.05.17/outbox.cif.g08.bks.cpg/sg43_11_cif.got.tgz:21728.got - 2010.06.03 19:21:55.
