data_PCOD9372002
_publ_section_title
;
Structure prediction by ZEFSAII (Michael W. Deem and Ramdas Pophale) SiO2 
 PCOD9372002
Probable space group: F D D 2
;
_chemical_formula_sum "Si O2"
_cell_formula_units_Z 104
_cell_length_a 16.220797
_cell_length_b 17.061805
_cell_length_c 17.972015
_cell_angle_alpha 90.000000
_cell_angle_beta 90.000000
_cell_angle_gamma 90.000000
_cell_volume 4973.864338
_symmetry_space_group_name_H-M "F D D 2"
_symmetry_group_IT_number 43
_symmetry_cell_setting 'orthorhombic'
loop_
_space_group_symop_operation_xyz
x,y,z
-x,-y,z
1/4-x,1/4+y,1/4+z
1/4+x,1/4-y,1/4+z
x,1/2+y,1/2+z
-x,1/2-y,1/2+z
1/4-x,3/4+y,3/4+z
1/4+x,3/4-y,3/4+z
1/2+x,y,1/2+z
1/2-x,-y,1/2+z
3/4-x,1/4+y,3/4+z
3/4+x,1/4-y,3/4+z
1/2+x,1/2+y,z
1/2-x,1/2-y,z
3/4-x,3/4+y,1/4+z
3/4+x,3/4-y,1/4+z
loop_
_atom_site_type_symbol
_atom_site_label
_atom_site_fract_x
_atom_site_fract_y
_atom_site_fract_z
Si Si1 0.839657 0.073591 0.573610
Si Si2 0.485848 0.184658 0.459482
Si Si3 0.444540 0.930482 0.692652
Si Si4 0.000000 0.500000 0.078847
Si Si5 0.420993 0.950486 0.522170
Si Si6 0.017246 0.331851 0.038440
Si Si7 0.496758 0.754624 0.692748
O O1 0.762865 0.087912 0.626479
O O2 0.914350 0.027354 0.616747
O O3 0.884969 0.152244 0.546981
O O4 0.813548 0.023841 0.502471
O O5 0.392870 0.163809 0.481639
O O6 0.552563 0.139268 0.509139
O O7 0.495110 0.277114 0.470500
O O8 0.416861 0.961438 0.610836
O O9 0.492174 0.848488 0.686378
O O10 0.500000 0.000000 0.726151
O O11 0.018364 0.580155 0.034401
O O12 0.340467 0.974510 0.476979
O O13 0.500000 0.000000 0.494577
O O14 0.989624 0.287667 0.113719
#
# Coordination Sequence:
#
# PCOD9372002 Si02
#       7
#    16  16  16   8  16  16  16
#     4  10  24  39  67  92 127 168 215 266 316 386
#     4  12  22  42  66  95 128 174 209 270 330 374
#     4  11  26  40  63  97 133 168 214 263 323 397
#     4   8  22  44  58  94 128 166 210 274 302 392
#     4  11  21  39  61  93 128 163 214 262 319 382
#     4  10  24  39  67  92 127 168 215 266 316 386
#     4  12  22  42  66  95 128 174 209 270 330 374
#
# _framework density 20.909295
#
# number of rings (size 3 to 8) (size 9 to 14) (size 15 to 20)
#    0.923    0.308    6.154    0.000    4.308    0.000 
#    0.000    1.538    3.385    0.000    0.000    0.000 
#    0.000    0.000    0.000    0.000    0.000    0.000 
#
# Total GULP energy -144822.739436 kJ/mol
# GULP energy per Si atom -5570.105363 kJ/mol
# Density = 2.086170 g / cm^3
# Si number density = 20.909295 Si / 1000 Ang^3
#
#
#
# Elastic Constant Matrix: (Units=GPa)
#
#
# Indices 1 2 3 4 5 6 
#
# 1 70.1191 2.9972 -1.7589 0.0000 0.0000 0.0000
# 2 2.9972 105.0763 -9.0131 0.0000 0.0000 0.0000
# 3 -1.7589 -9.0131 31.1564 0.0000 0.0000 0.0000
# 4 0.0000 0.0000 0.0000 25.4352 0.0000 0.0000
# 5 0.0000 0.0000 0.0000 0.0000 15.3167 0.0000
# 6 0.0000 0.0000 0.0000 0.0000 0.0000 32.9630
#
#
#
# Elastic Compliance Matrix: (Units=1/GPa)
#
#
# Indices 1 2 3 4 5 6 
#
# 1 0.014294 -0.000347 0.000707 0.000000 0.000000 0.000000
# 2 -0.000347 0.009767 0.002806 0.000000 0.000000 0.000000
# 3 0.000707 0.002806 0.032948 0.000000 0.000000 0.000000
# 4 0.000000 0.000000 0.000000 0.039316 0.000000 0.000000
# 5 0.000000 0.000000 0.000000 0.000000 0.065288 0.000000
# 6 0.000000 0.000000 0.000000 0.000000 0.000000 0.030337
#
#
# Mechanical properties :
#
#
# Convention : Reuss Voigt Hill
#
# Bulk Modulus (GPa) = 15.78779 21.20026 18.49402
# Shear Modulus (GPa) = 24.18580 29.01807 26.60193
#
# Velocity S-wave (km/s) = 3.40472 3.72937 3.57074
# Velocity P-wave (km/s) = 4.79825 5.35774 5.08570
#
# Compressibility (1/GPa) = 0.06334007
#
# Stress axis : x y z
#
# Youngs Moduli (GPa) = 69.95933 102.38057 30.35105
#
# Poissons Ratio (x) = 0.03554 -0.02144
# Poissons Ratio (y) = 0.02428 -0.08516
# Poissons Ratio (z) = -0.04943 -0.28728
#
# Static dielectric constant tensor:
#      x y z
#    x 1.806600 0.000000 0.000000 
#    y 0.000000 1.760520 0.000000 
#    z 0.000000 0.000000 1.746600 
# 
# From -- ./inp_files/14245.got.cif
#   From: 2010.05.17/outbox.cif.g08.bks.cpg/sg43_8_cif.got.tgz:14245.got - 2010.06.03 19:21:55.
