data_PCOD9372734
_publ_section_title
;
Structure prediction by ZEFSAII (Michael W. Deem and Ramdas Pophale) SiO2 
 PCOD9372734
Probable space group: F D D 2
;
_chemical_formula_sum "Si O2"
_cell_formula_units_Z 88
_cell_length_a 26.747354
_cell_length_b 12.597242
_cell_length_c 10.771371
_cell_angle_alpha 90.000000
_cell_angle_beta 90.000000
_cell_angle_gamma 90.000000
_cell_volume 3629.336887
_symmetry_space_group_name_H-M "F D D 2"
_symmetry_group_IT_number 43
_symmetry_cell_setting 'orthorhombic'
loop_
_space_group_symop_operation_xyz
x,y,z
-x,-y,z
1/4-x,1/4+y,1/4+z
1/4+x,1/4-y,1/4+z
x,1/2+y,1/2+z
-x,1/2-y,1/2+z
1/4-x,3/4+y,3/4+z
1/4+x,3/4-y,3/4+z
1/2+x,y,1/2+z
1/2-x,-y,1/2+z
3/4-x,1/4+y,3/4+z
3/4+x,1/4-y,3/4+z
1/2+x,1/2+y,z
1/2-x,1/2-y,z
3/4-x,3/4+y,1/4+z
3/4+x,3/4-y,1/4+z
loop_
_atom_site_type_symbol
_atom_site_label
_atom_site_fract_x
_atom_site_fract_y
_atom_site_fract_z
Si Si1 0.072322 0.171373 0.924270
Si Si2 0.420749 0.922747 0.885067
Si Si3 0.815435 0.816725 0.867274
Si Si4 0.459347 0.794303 0.675442
Si Si5 0.000000 0.500000 0.334383
Si Si6 0.686048 0.115632 0.990907
O O1 0.126711 0.145914 0.865735
O O2 0.022206 0.101957 0.903789
O O3 0.063202 0.286786 0.860781
O O4 0.079068 0.163789 0.072448
O O5 0.440869 0.817418 0.816080
O O6 0.431635 0.015327 0.787499
O O7 0.362245 0.911543 0.910756
O O8 0.441815 0.975759 0.012770
O O9 0.783635 0.924505 0.875753
O O10 0.798178 0.767988 0.996900
O O11 0.513079 0.847828 0.669727
#
# Coordination Sequence:
#
# PCOD9372734 Si02
#       6
#    16  16  16  16   8  16
#     4  11  26  46  72 106 151 190 259 318 378 470
#     4  11  28  47  72 111 152 193 255 319 381 469
#     4  11  26  48  74 106 149 200 252 315 390 462
#     4  12  26  47  75 107 149 198 253 315 382 461
#     4  12  26  46  74 104 144 206 246 316 402 452
#     4  11  26  49  71 111 147 199 253 313 392 464
#
# _framework density 24.246852000000001
#
# number of rings (size 3 to 8) (size 9 to 14) (size 15 to 20)
#    0.000    0.727    3.636    1.636   15.273    2.909 
#    0.000    0.000    0.000    0.000    0.000    0.000 
#    0.000    0.000    0.000    0.000    0.000    0.000 
#
# Total GULP energy -122700.907157 kJ/mol
# GULP energy per Si atom -5577.313962 kJ/mol
# Density = 2.419167 g / cm^3
# Si number density = 24.246852 Si / 1000 Ang^3
#
#
#
# Elastic Constant Matrix: (Units=GPa)
#
#
# Indices 1 2 3 4 5 6 
#
# 1 113.8397 13.8177 34.7618 0.0000 0.0000 0.0000
# 2 13.8177 53.6595 26.1984 0.0000 0.0000 0.0000
# 3 34.7618 26.1984 96.7981 0.0000 0.0000 0.0000
# 4 0.0000 0.0000 0.0000 -7.6264 0.0000 0.0000
# 5 0.0000 0.0000 0.0000 0.0000 36.1111 0.0000
# 6 0.0000 0.0000 0.0000 0.0000 0.0000 8.8569
#
#
#
# Elastic Compliance Matrix: (Units=1/GPa)
#
#
# Indices 1 2 3 4 5 6 
#
# 1 0.009907 -0.000938 -0.003304 0.000000 0.000000 0.000000
# 2 -0.000938 0.021562 -0.005499 0.000000 0.000000 0.000000
# 3 -0.003304 -0.005499 0.013006 0.000000 0.000000 0.000000
# 4 0.000000 0.000000 0.000000 -0.131124 0.000000 0.000000
# 5 0.000000 0.000000 0.000000 0.000000 0.027692 0.000000
# 6 0.000000 0.000000 0.000000 0.000000 0.000000 0.112907
#
#
# Mechanical properties :
#
#
# Convention : Reuss Voigt Hill
#
# Bulk Modulus (GPa) = 40.01107 45.98369 42.99738
# Shear Modulus (GPa) = 61.15243 20.10295 40.62769
#
# Velocity S-wave (km/s) = 5.02748 2.88253 4.09783
# Velocity P-wave (km/s) = 7.08788 5.48494 6.33730
#
# Compressibility (1/GPa) = 0.02499308
#
# Stress axis : x y z
#
# Youngs Moduli (GPa) = 100.93859 46.37712 76.89019
#
# Poissons Ratio (x) = 0.04350 0.25404
# Poissons Ratio (y) = 0.09469 0.42282
# Poissons Ratio (z) = 0.33349 0.25503
#
# Static dielectric constant tensor:
#      x y z
#    x 1.875260 0.000000 0.000000 
#    y 0.000000 2.072730 0.000000 
#    z 0.000000 0.000000 2.008320 
# 
# From -- ./inp_files/8227.got.cif
#   From: 2010.05.17/outbox.cif.g08.bks.cpg/sg43_5_cif.got.tgz:8227.got - 2010.06.03 19:21:55.
