data_PCOD9372332
_publ_section_title
;
Structure prediction by ZEFSAII (Michael W. Deem and Ramdas Pophale) SiO2 
 PCOD9372332
Probable space group: F D D 2
;
_chemical_formula_sum "Si O2"
_cell_formula_units_Z 104
_cell_length_a 9.756719
_cell_length_b 18.967551
_cell_length_c 27.442347
_cell_angle_alpha 90.000000
_cell_angle_beta 90.000000
_cell_angle_gamma 90.000000
_cell_volume 5078.509968
_symmetry_space_group_name_H-M "F D D 2"
_symmetry_group_IT_number 43
_symmetry_cell_setting 'orthorhombic'
loop_
_space_group_symop_operation_xyz
x,y,z
-x,-y,z
1/4-x,1/4+y,1/4+z
1/4+x,1/4-y,1/4+z
x,1/2+y,1/2+z
-x,1/2-y,1/2+z
1/4-x,3/4+y,3/4+z
1/4+x,3/4-y,3/4+z
1/2+x,y,1/2+z
1/2-x,-y,1/2+z
3/4-x,1/4+y,3/4+z
3/4+x,1/4-y,3/4+z
1/2+x,1/2+y,z
1/2-x,1/2-y,z
3/4-x,3/4+y,1/4+z
3/4+x,3/4-y,1/4+z
loop_
_atom_site_type_symbol
_atom_site_label
_atom_site_fract_x
_atom_site_fract_y
_atom_site_fract_z
Si Si1 0.511842 0.149258 0.770280
Si Si2 0.292193 0.961529 0.732081
Si Si3 0.000000 0.000000 0.050961
Si Si4 0.587854 0.591866 0.137448
Si Si5 0.814349 0.113688 0.195027
Si Si6 0.654775 0.479804 0.830183
Si Si7 0.657053 0.179598 0.110621
O O1 0.567095 0.072997 0.751773
O O2 0.640589 0.202207 0.771754
O O3 0.392846 0.166674 0.731747
O O4 0.453858 0.131481 0.823288
O O5 0.297901 0.929215 0.677352
O O6 0.198056 0.945170 0.778535
O O7 0.271414 0.044726 0.724978
O O8 0.090026 0.047959 0.087724
O O9 0.433890 0.583675 0.159157
O O10 0.590457 0.672976 0.123110
O O11 0.694574 0.149323 0.163815
O O12 0.500000 0.500000 0.824473
O O13 0.757027 0.542808 0.845803
O O14 0.750000 0.250000 0.104758
#
# Coordination Sequence:
#
# PCOD9372332 Si02
#       7
#    16  16   8  16  16  16  16
#     4  11  20  34  66 101 131 177 228 285 348 420
#     4  11  20  40  69  95 136 175 232 285 352 426
#     4  12  18  36  66 102 136 168 232 298 340 408
#     4  11  20  38  66 102 125 174 238 283 332 423
#     4  11  20  35  67 102 122 174 242 278 343 428
#     4  12  26  45  65  98 146 187 232 296 364 417
#     4  12  19  41  67  93 132 179 232 290 339 416
#
# _framework density 20.478446999999999
#
# number of rings (size 3 to 8) (size 9 to 14) (size 15 to 20)
#    0.000    0.615    9.231    1.385    0.000    0.000 
#    8.308    1.538    0.000    0.000    0.000    0.000 
#    0.000    0.000    0.000    0.000    0.000    0.000 
#
# Total GULP energy -144820.692403 kJ/mol
# GULP energy per Si atom -5570.026631 kJ/mol
# Density = 2.043184 g / cm^3
# Si number density = 20.478447 Si / 1000 Ang^3
#
#
#
# Elastic Constant Matrix: (Units=GPa)
#
#
# Indices 1 2 3 4 5 6 
#
# 1 88.9912 26.9752 40.6411 0.0000 0.0000 0.0000
# 2 26.9752 58.8452 37.3803 0.0000 0.0000 0.0000
# 3 40.6411 37.3803 110.3835 0.0000 0.0000 0.0000
# 4 0.0000 0.0000 0.0000 47.9444 0.0000 0.0000
# 5 0.0000 0.0000 0.0000 0.0000 189.0346 0.0000
# 6 0.0000 0.0000 0.0000 0.0000 0.0000 -9.0818
#
#
#
# Elastic Compliance Matrix: (Units=1/GPa)
#
#
# Indices 1 2 3 4 5 6 
#
# 1 0.014235 -0.004072 -0.003862 0.000000 0.000000 0.000000
# 2 -0.004072 0.022816 -0.006227 0.000000 0.000000 0.000000
# 3 -0.003862 -0.006227 0.012590 0.000000 0.000000 0.000000
# 4 0.000000 0.000000 0.000000 0.020857 0.000000 0.000000
# 5 0.000000 0.000000 0.000000 0.000000 0.005290 0.000000
# 6 0.000000 0.000000 0.000000 0.000000 0.000000 -0.110111
#
#
# Mechanical properties :
#
#
# Convention : Reuss Voigt Hill
#
# Bulk Modulus (GPa) = 46.90772 52.02366 49.46569
# Shear Modulus (GPa) = 4514.18141 55.79432 2284.98787
#
# Velocity S-wave (km/s) = 47.00152 5.22537 33.43985
# Velocity P-wave (km/s) = 54.48375 7.86545 38.92521
#
# Compressibility (1/GPa) = 0.02131845
#
# Stress axis : x y z
#
# Youngs Moduli (GPa) = 70.24826 43.82855 79.42783
#
# Poissons Ratio (x) = 0.17848 0.30676
# Poissons Ratio (y) = 0.28607 0.49461
# Poissons Ratio (z) = 0.27131 0.27293
#
# Static dielectric constant tensor:
#      x y z
#    x 0.355880 0.000000 0.000000 
#    y 0.000000 1.101380 0.000000 
#    z 0.000000 0.000000 1.843420 
# 
# From -- ./inp_files/24328.got.cif
#   From: 2010.05.17/outbox.cif.g08.bks.cpg/sg43_13_cif.got.tgz:24328.got - 2010.06.03 19:21:55.
