data_PCOD9372812
_publ_section_title
;
Structure prediction by ZEFSAII (Michael W. Deem and Ramdas Pophale) SiO2 
 PCOD9372812
Probable space group: F D D 2
;
_chemical_formula_sum "Si O2"
_cell_formula_units_Z 64
_cell_length_a 13.402978
_cell_length_b 8.307690
_cell_length_c 26.875560
_cell_angle_alpha 90.000000
_cell_angle_beta 90.000000
_cell_angle_gamma 90.000000
_cell_volume 2992.534112
_symmetry_space_group_name_H-M "F D D 2"
_symmetry_group_IT_number 43
_symmetry_cell_setting 'orthorhombic'
loop_
_space_group_symop_operation_xyz
x,y,z
-x,-y,z
1/4-x,1/4+y,1/4+z
1/4+x,1/4-y,1/4+z
x,1/2+y,1/2+z
-x,1/2-y,1/2+z
1/4-x,3/4+y,3/4+z
1/4+x,3/4-y,3/4+z
1/2+x,y,1/2+z
1/2-x,-y,1/2+z
3/4-x,1/4+y,3/4+z
3/4+x,1/4-y,3/4+z
1/2+x,1/2+y,z
1/2-x,1/2-y,z
3/4-x,3/4+y,1/4+z
3/4+x,3/4-y,1/4+z
loop_
_atom_site_type_symbol
_atom_site_label
_atom_site_fract_x
_atom_site_fract_y
_atom_site_fract_z
Si Si1 0.429320 0.643378 0.742310
Si Si2 0.642293 0.319836 0.065346
Si Si3 0.762998 0.559048 0.735537
Si Si4 0.935547 0.637278 0.668639
O O1 0.500000 0.500000 0.761290
O O2 0.395884 0.756895 0.787932
O O3 0.330422 0.552528 0.721545
O O4 0.496814 0.741112 0.701495
O O5 0.750000 0.250000 0.051053
O O6 0.629712 0.293511 0.124095
O O7 0.548477 0.229948 0.040935
O O8 0.750000 0.750000 0.730350
O O9 0.862056 0.533026 0.703381
O O10 0.000000 0.500000 0.642079
#
# Coordination Sequence:
#
# PCOD9372812 Si02
#       4
#    16  16  16  16
#     4  12  24  46  73 105 143 193 241 300 366 437
#     4  12  25  48  73 104 146 190 239 305 370 437
#     4  12  23  46  72 101 147 185 237 310 355 436
#     4  12  25  46  71 106 144 192 244 301 370 432
#
# _framework density 21.386555999999999
#
# number of rings (size 3 to 8) (size 9 to 14) (size 15 to 20)
#    0.000    0.000    7.500    3.000    0.000    1.000 
#    9.000    0.000    0.000    0.000    0.000    0.000 
#    0.000    0.000    0.000    0.000    0.000    0.000 
#
# Total GULP energy -89193.242107 kJ/mol
# GULP energy per Si atom -5574.577632 kJ/mol
# Density = 2.133788 g / cm^3
# Si number density = 21.386556 Si / 1000 Ang^3
#
#
#
# Elastic Constant Matrix: (Units=GPa)
#
#
# Indices 1 2 3 4 5 6 
#
# 1 126.3080 45.0548 26.5605 0.0000 0.0000 0.0000
# 2 45.0548 94.4693 23.6473 0.0000 0.0000 0.0000
# 3 26.5605 23.6473 101.8871 0.0000 0.0000 0.0000
# 4 0.0000 0.0000 0.0000 11.9005 0.0000 0.0000
# 5 0.0000 0.0000 0.0000 0.0000 37.7267 0.0000
# 6 0.0000 0.0000 0.0000 0.0000 0.0000 53.9831
#
#
#
# Elastic Compliance Matrix: (Units=1/GPa)
#
#
# Indices 1 2 3 4 5 6 
#
# 1 0.009767 -0.004269 -0.001555 0.000000 0.000000 0.000000
# 2 -0.004269 0.013104 -0.001929 0.000000 0.000000 0.000000
# 3 -0.001555 -0.001929 0.010668 0.000000 0.000000 0.000000
# 4 0.000000 0.000000 0.000000 0.084030 0.000000 0.000000
# 5 0.000000 0.000000 0.000000 0.000000 0.026506 0.000000
# 6 0.000000 0.000000 0.000000 0.000000 0.000000 0.018524
#
#
# Mechanical properties :
#
#
# Convention : Reuss Voigt Hill
#
# Bulk Modulus (GPa) = 55.45233 57.02108 56.23670
# Shear Modulus (GPa) = 27.15675 35.88216 31.51946
#
# Velocity S-wave (km/s) = 3.56730 4.10053 3.84317
# Velocity P-wave (km/s) = 6.55381 7.00993 6.78570
#
# Compressibility (1/GPa) = 0.01803351
#
# Stress axis : x y z
#
# Youngs Moduli (GPa) = 102.38656 76.31216 93.73961
#
# Poissons Ratio (x) = 0.32576 0.14580
# Poissons Ratio (y) = 0.43706 0.18078
# Poissons Ratio (z) = 0.15925 0.14717
#
# Static dielectric constant tensor:
#      x y z
#    x 1.843000 0.000000 0.000000 
#    y 0.000000 1.850770 0.000000 
#    z 0.000000 0.000000 1.717070 
# 
# From -- ./inp_files/19922.got.cif
#   From: 2010.05.17/outbox.cif.g08.bks.cpg/sg43_10_cif.got.tgz:19922.got - 2010.06.03 19:21:55.
