data_PCOD9372832
_publ_section_title
;
Structure prediction by ZEFSAII (Michael W. Deem and Ramdas Pophale) SiO2 
 PCOD9372832
Probable space group: F D D 2
;
_chemical_formula_sum "Si O2"
_cell_formula_units_Z 120
_cell_length_a 23.701731
_cell_length_b 26.406958
_cell_length_c 8.182203
_cell_angle_alpha 90.000000
_cell_angle_beta 90.000000
_cell_angle_gamma 90.000000
_cell_volume 5121.164068
_symmetry_space_group_name_H-M "F D D 2"
_symmetry_group_IT_number 43
_symmetry_cell_setting 'orthorhombic'
loop_
_space_group_symop_operation_xyz
x,y,z
-x,-y,z
1/4-x,1/4+y,1/4+z
1/4+x,1/4-y,1/4+z
x,1/2+y,1/2+z
-x,1/2-y,1/2+z
1/4-x,3/4+y,3/4+z
1/4+x,3/4-y,3/4+z
1/2+x,y,1/2+z
1/2-x,-y,1/2+z
3/4-x,1/4+y,3/4+z
3/4+x,1/4-y,3/4+z
1/2+x,1/2+y,z
1/2-x,1/2-y,z
3/4-x,3/4+y,1/4+z
3/4+x,3/4-y,1/4+z
loop_
_atom_site_type_symbol
_atom_site_label
_atom_site_fract_x
_atom_site_fract_y
_atom_site_fract_z
Si Si1 0.972042 0.105143 0.567270
Si Si2 0.457405 0.918805 0.374142
Si Si3 0.396893 0.546088 0.342602
Si Si4 0.909652 0.710660 0.093361
Si Si5 0.918149 0.872736 0.368199
Si Si6 0.500000 0.000000 0.634466
Si Si7 0.083724 0.794529 0.984286
Si Si8 0.294883 0.567634 0.799182
O O1 0.925280 0.066030 0.506325
O O2 0.948457 0.162199 0.556121
O O3 0.992929 0.091777 0.747407
O O4 0.027251 0.102813 0.452384
O O5 0.404322 0.947466 0.295921
O O6 0.435602 0.864553 0.438103
O O7 0.479980 0.953528 0.520784
O O8 0.370529 0.594072 0.249402
O O9 0.447541 0.520258 0.239476
O O10 0.347780 0.504653 0.342515
O O11 0.911671 0.716961 0.291143
O O12 0.930284 0.762534 0.013960
O O13 0.879858 0.913826 0.279263
O O14 0.939195 0.833088 0.232956
O O15 0.022049 0.814443 0.025978
#
# Coordination Sequence:
#
# PCOD9372832 Si02
#       8
#    16  16  16  16  16   8  16  16
#     4  12  28  46  73 113 157 193 257 334 395 470
#     4  12  26  48  74 115 153 204 259 330 397 468
#     4  12  25  48  72 108 150 202 253 319 392 471
#     4  12  26  47  75 114 152 202 260 320 397 475
#     4  12  24  47  75 109 144 203 251 313 388 468
#     4  12  24  46  78 106 144 206 268 302 396 476
#     4  12  24  47  79 108 148 200 258 312 394 471
#     4  12  25  47  79 109 154 204 260 322 389 480
#
# _framework density 23.432172999999999
#
# number of rings (size 3 to 8) (size 9 to 14) (size 15 to 20)
#    0.000    0.000    5.333    4.800    0.000    2.667 
#    0.000    1.333    0.000    0.000    0.000    0.000 
#    0.000    0.000    0.000    0.000    0.000    0.000 
#
# Total GULP energy -168291.858361 kJ/mol
# GULP energy per Si atom -5609.728612 kJ/mol
# Density = 2.337884 g / cm^3
# Si number density = 23.432173 Si / 1000 Ang^3
#
#
#
# Elastic Constant Matrix: (Units=GPa)
#
#
# Indices 1 2 3 4 5 6 
#
# 1 66.9669 33.6624 16.4483 0.0088 -0.0076 -0.0044
# 2 33.6624 130.3411 24.2778 0.0036 -0.0033 -0.0022
# 3 16.4483 24.2778 57.7599 0.0126 -0.0138 -0.0066
# 4 0.0088 0.0036 0.0126 20.5516 -0.0070 -0.0057
# 5 -0.0076 -0.0033 -0.0138 -0.0070 31.1895 0.0040
# 6 -0.0044 -0.0022 -0.0066 -0.0057 0.0040 45.3139
#
#
#
# Elastic Compliance Matrix: (Units=1/GPa)
#
#
# Indices 1 2 3 4 5 6 
#
# 1 0.017753 -0.003953 -0.003394 -0.000005 0.000002 0.000001
# 2 -0.003953 0.009204 -0.002743 0.000002 -0.000001 0.000000
# 3 -0.003394 -0.002743 0.019433 -0.000010 0.000007 0.000002
# 4 -0.000005 0.000002 -0.000010 0.048658 0.000011 0.000006
# 5 0.000002 -0.000001 0.000007 0.000011 0.032062 -0.000003
# 6 0.000001 0.000000 0.000002 0.000006 -0.000003 0.022068
#
#
# Mechanical properties :
#
#
# Convention : Reuss Voigt Hill
#
# Bulk Modulus (GPa) = 38.15350 44.87167 41.51258
# Shear Modulus (GPa) = 28.07490 31.45629 29.76560
#
# Velocity S-wave (km/s) = 3.46516 3.66791 3.56798
# Velocity P-wave (km/s) = 5.68574 6.09338 5.89309
#
# Compressibility (1/GPa) = 0.02620992
#
# Stress axis : x y z
#
# Youngs Moduli (GPa) = 56.32721 108.64869 51.46004
#
# Poissons Ratio (x) = 0.42947 0.17466
# Poissons Ratio (y) = 0.22265 0.14115
# Poissons Ratio (z) = 0.19118 0.29802
#
# Static dielectric constant tensor:
#      x y z
#    x 1.830820 0.000000 0.000000 
#    y 0.000000 1.862050 0.000000 
#    z 0.000000 0.000000 1.869110 
# 
# From -- ./inp_files/3891.got.cif
#   From: 2010.05.17/outbox.cif.g08.bks.cpg/sg43_2_cif.got.tgz:3891.got - 2010.06.03 19:21:55.
