data_PCOD9372690
_publ_section_title
;
Structure prediction by ZEFSAII (Michael W. Deem and Ramdas Pophale) SiO2 
 PCOD9372690
Probable space group: F D D 2
;
_chemical_formula_sum "Si O2"
_cell_formula_units_Z 112
_cell_length_a 8.620493
_cell_length_b 20.454971
_cell_length_c 23.640308
_cell_angle_alpha 90.000000
_cell_angle_beta 90.000000
_cell_angle_gamma 90.000000
_cell_volume 4168.541238
_symmetry_space_group_name_H-M "F D D 2"
_symmetry_group_IT_number 43
_symmetry_cell_setting 'orthorhombic'
loop_
_space_group_symop_operation_xyz
x,y,z
-x,-y,z
1/4-x,1/4+y,1/4+z
1/4+x,1/4-y,1/4+z
x,1/2+y,1/2+z
-x,1/2-y,1/2+z
1/4-x,3/4+y,3/4+z
1/4+x,3/4-y,3/4+z
1/2+x,y,1/2+z
1/2-x,-y,1/2+z
3/4-x,1/4+y,3/4+z
3/4+x,1/4-y,3/4+z
1/2+x,1/2+y,z
1/2-x,1/2-y,z
3/4-x,3/4+y,1/4+z
3/4+x,3/4-y,1/4+z
loop_
_atom_site_type_symbol
_atom_site_label
_atom_site_fract_x
_atom_site_fract_y
_atom_site_fract_z
Si Si1 0.717201 0.145841 0.953420
Si Si2 0.500000 0.500000 0.675131
Si Si3 0.025875 0.674872 0.286600
Si Si4 0.542163 0.177414 0.512057
Si Si5 0.464198 0.761117 0.170691
Si Si6 0.750000 0.250000 0.608219
Si Si7 0.979021 0.802176 0.357473
Si Si8 0.174389 0.407772 0.813047
O O1 0.626097 0.079530 0.731974
O O2 0.667463 0.178932 0.894267
O O3 0.712560 0.067075 0.936656
O O4 0.589125 0.176951 0.997151
O O5 0.605468 0.455515 0.712637
O O6 0.388360 0.450721 0.642917
O O7 0.091246 0.702281 0.227173
O O8 0.986636 0.733594 0.327506
O O9 0.155524 0.626578 0.313307
O O10 0.860687 0.642680 0.276126
O O11 0.616462 0.217922 0.567097
O O12 0.638114 0.784240 0.154034
O O13 0.384770 0.792343 0.114107
O O14 0.029823 0.857424 0.313722
#
# Coordination Sequence:
#
# PCOD9372690 Si02
#       8
#    16   8  16  16  16   8  16  16
#     4  12  30  53  80 135 179 228 299 382 456 546
#     4  11  24  54  84 120 162 234 281 348 444 524
#     4  12  25  53  86 123 168 232 297 364 443 548
#     4  11  27  52  83 120 172 217 298 366 443 544
#     4  12  27  49  87 120 172 232 298 361 448 540
#     4  11  26  52  82 124 164 242 283 362 460 544
#     4  12  27  50  85 124 174 226 286 371 452 536
#     4  12  25  53  82 124 175 233 296 366 442 547
#
# _framework density 26.867913000000001
#
# number of rings (size 3 to 8) (size 9 to 14) (size 15 to 20)
#    0.000    0.286    4.286    3.429    4.000    3.429 
#    2.571    0.000    3.143    0.000    0.000    0.000 
#    0.000    0.000    0.000    0.000    0.000    0.000 
#
# Total GULP energy -156240.059635 kJ/mol
# GULP energy per Si atom -5580.002130 kJ/mol
# Density = 2.680676 g / cm^3
# Si number density = 26.867913 Si / 1000 Ang^3
#
#
#
# Elastic Constant Matrix: (Units=GPa)
#
#
# Indices 1 2 3 4 5 6 
#
# 1 133.3715 49.5888 47.6663 0.0000 0.0000 0.0000
# 2 49.5888 117.5820 57.9883 0.0000 0.0000 0.0000
# 3 47.6663 57.9883 130.9747 0.0000 0.0000 0.0000
# 4 0.0000 0.0000 0.0000 -20.8207 0.0000 0.0000
# 5 0.0000 0.0000 0.0000 0.0000 19.9803 0.0000
# 6 0.0000 0.0000 0.0000 0.0000 0.0000 30.6637
#
#
#
# Elastic Compliance Matrix: (Units=1/GPa)
#
#
# Indices 1 2 3 4 5 6 
#
# 1 0.009329 -0.002891 -0.002115 0.000000 0.000000 0.000000
# 2 -0.002891 0.011777 -0.004162 0.000000 0.000000 0.000000
# 3 -0.002115 -0.004162 0.010247 0.000000 0.000000 0.000000
# 4 0.000000 0.000000 0.000000 -0.048029 0.000000 0.000000
# 5 0.000000 0.000000 0.000000 0.000000 0.050049 0.000000
# 6 0.000000 0.000000 0.000000 0.000000 0.000000 0.032612
#
#
# Mechanical properties :
#
#
# Convention : Reuss Voigt Hill
#
# Bulk Modulus (GPa) = 76.82455 76.93501 76.87978
# Shear Modulus (GPa) = 56.39551 21.07698 38.73624
#
# Velocity S-wave (km/s) = 4.58645 2.80387 3.80113
# Velocity P-wave (km/s) = 7.53013 6.25931 6.92394
#
# Compressibility (1/GPa) = 0.01301667
#
# Stress axis : x y z
#
# Youngs Moduli (GPa) = 107.19584 84.91478 97.58602
#
# Poissons Ratio (x) = 0.24551 0.20639
# Poissons Ratio (y) = 0.30993 0.40613
# Poissons Ratio (z) = 0.22672 0.35340
#
# Static dielectric constant tensor:
#      x y z
#    x 2.208280 0.000000 0.000000 
#    y 0.000000 2.179890 0.000000 
#    z 0.000000 0.000000 2.205900 
# 
# From -- ./inp_files/17246.got.cif
#   From: 2010.05.17/outbox.cif.g08.bks.cpg/sg43_9_cif.got.tgz:17246.got - 2010.06.03 19:21:55.
