data_PCOD9372603
_publ_section_title
;
Structure prediction by ZEFSAII (Michael W. Deem and Ramdas Pophale) SiO2 
 PCOD9372603
Probable space group: F D D 2
;
_chemical_formula_sum "Si O2"
_cell_formula_units_Z 72
_cell_length_a 25.482760
_cell_length_b 19.101906
_cell_length_c 6.956819
_cell_angle_alpha 90.000000
_cell_angle_beta 90.000000
_cell_angle_gamma 90.000000
_cell_volume 3386.365818
_symmetry_space_group_name_H-M "F D D 2"
_symmetry_group_IT_number 43
_symmetry_cell_setting 'orthorhombic'
loop_
_space_group_symop_operation_xyz
x,y,z
-x,-y,z
1/4-x,1/4+y,1/4+z
1/4+x,1/4-y,1/4+z
x,1/2+y,1/2+z
-x,1/2-y,1/2+z
1/4-x,3/4+y,3/4+z
1/4+x,3/4-y,3/4+z
1/2+x,y,1/2+z
1/2-x,-y,1/2+z
3/4-x,1/4+y,3/4+z
3/4+x,1/4-y,3/4+z
1/2+x,1/2+y,z
1/2-x,1/2-y,z
3/4-x,3/4+y,1/4+z
3/4+x,3/4-y,1/4+z
loop_
_atom_site_type_symbol
_atom_site_label
_atom_site_fract_x
_atom_site_fract_y
_atom_site_fract_z
Si Si1 0.669758 0.856539 0.388430
Si Si2 0.256344 0.898391 0.161804
Si Si3 0.107872 0.298594 0.701387
Si Si4 0.325272 0.602317 0.450945
Si Si5 0.250000 0.750000 0.019683
O O1 0.706418 0.907475 0.517771
O O2 0.615998 0.841312 0.502564
O O3 0.703114 0.783902 0.396710
O O4 0.667821 0.883035 0.174286
O O5 0.233396 0.913147 0.372154
O O6 0.305334 0.938207 0.073553
O O7 0.268835 0.815692 0.144514
O O8 0.154194 0.330363 0.832779
O O9 0.108840 0.216826 0.656399
#
# Coordination Sequence:
#
# PCOD9372603 Si02
#       5
#    16  16  16  16   8
#     4   9  22  43  65  95 128 184 222 270 357 407
#     4   9  22  40  64  93 137 168 223 284 332 418
#     4  11  24  43  65  97 140 167 232 300 326 436
#     4  11  25  41  68 100 128 187 231 273 368 409
#     4   8  18  42  62  90 138 170 212 272 334 416
#
# _framework density 21.26173
#
# number of rings (size 3 to 8) (size 9 to 14) (size 15 to 20)
#    1.333    0.889    0.000    1.333    3.111    8.000 
#    0.000    0.000    0.000    0.000    0.000    0.000 
#    0.000    0.000    0.000    0.000    0.000    0.000 
#
# Total GULP energy -100212.042608 kJ/mol
# GULP energy per Si atom -5567.335700 kJ/mol
# Density = 2.121334 g / cm^3
# Si number density = 21.261730 Si / 1000 Ang^3
#
#
#
# Elastic Constant Matrix: (Units=GPa)
#
#
# Indices 1 2 3 4 5 6 
#
# 1 83.6330 13.7579 29.8168 0.0001 0.0000 0.0000
# 2 13.7579 45.5984 -4.7781 0.0003 -0.0001 0.0000
# 3 29.8168 -4.7781 120.7638 0.0004 -0.0002 0.0000
# 4 0.0001 0.0003 0.0004 16.7885 -0.0001 0.0000
# 5 0.0000 -0.0001 -0.0002 -0.0001 41.2285 0.0000
# 6 0.0000 0.0000 0.0000 0.0000 0.0000 29.9219
#
#
#
# Elastic Compliance Matrix: (Units=1/GPa)
#
#
# Indices 1 2 3 4 5 6 
#
# 1 0.014014 -0.004610 -0.003642 0.000000 0.000000 0.000000
# 2 -0.004610 0.023538 0.002070 0.000000 0.000000 0.000000
# 3 -0.003642 0.002070 0.009262 0.000000 0.000000 0.000000
# 4 0.000000 0.000000 0.000000 0.059565 0.000000 0.000000
# 5 0.000000 0.000000 0.000000 0.000000 0.024255 0.000000
# 6 0.000000 0.000000 0.000000 0.000000 0.000000 0.033420
#
#
# Mechanical properties :
#
#
# Convention : Reuss Voigt Hill
#
# Bulk Modulus (GPa) = 29.02898 36.39874 32.71386
# Shear Modulus (GPa) = 26.60949 31.66769 29.13859
#
# Velocity S-wave (km/s) = 3.54152 3.86349 3.70600
# Velocity P-wave (km/s) = 5.51416 6.08758 5.80795
#
# Compressibility (1/GPa) = 0.03444834
#
# Stress axis : x y z
#
# Youngs Moduli (GPa) = 71.35738 42.48380 107.96991
#
# Poissons Ratio (x) = 0.19585 0.39328
# Poissons Ratio (y) = 0.32896 -0.22345
# Poissons Ratio (z) = 0.25992 -0.08792
#
# Static dielectric constant tensor:
#      x y z
#    x 1.833220 0.000000 0.000000 
#    y 0.000000 1.777340 0.000000 
#    z 0.000000 0.000000 1.766000 
# 
# From -- ./inp_files/4111.got.cif
#   From: 2010.05.17/outbox.cif.g08.bks.cpg/sg43_3_cif.got.tgz:4111.got - 2010.06.03 19:21:55.
