data_PCOD9372554
_publ_section_title
;
Structure prediction by ZEFSAII (Michael W. Deem and Ramdas Pophale) SiO2 
 PCOD9372554
Probable space group: F D D 2
;
_chemical_formula_sum "Si O2"
_cell_formula_units_Z 112
_cell_length_a 10.358361
_cell_length_b 28.785823
_cell_length_c 17.406297
_cell_angle_alpha 90.000000
_cell_angle_beta 90.000000
_cell_angle_gamma 90.000000
_cell_volume 5190.104267
_symmetry_space_group_name_H-M "F D D 2"
_symmetry_group_IT_number 43
_symmetry_cell_setting 'orthorhombic'
loop_
_space_group_symop_operation_xyz
x,y,z
-x,-y,z
1/4-x,1/4+y,1/4+z
1/4+x,1/4-y,1/4+z
x,1/2+y,1/2+z
-x,1/2-y,1/2+z
1/4-x,3/4+y,3/4+z
1/4+x,3/4-y,3/4+z
1/2+x,y,1/2+z
1/2-x,-y,1/2+z
3/4-x,1/4+y,3/4+z
3/4+x,1/4-y,3/4+z
1/2+x,1/2+y,z
1/2-x,1/2-y,z
3/4-x,3/4+y,1/4+z
3/4+x,3/4-y,1/4+z
loop_
_atom_site_type_symbol
_atom_site_label
_atom_site_fract_x
_atom_site_fract_y
_atom_site_fract_z
Si Si1 0.947928 0.948246 0.424020
Si Si2 0.460933 0.663858 0.029375
Si Si3 0.834671 0.628737 0.951875
Si Si4 0.175853 0.823175 0.734559
Si Si5 0.630455 0.286876 0.340668
Si Si6 0.753356 0.801593 0.067834
Si Si7 0.387273 0.729301 0.889849
O O1 0.880216 0.928678 0.348623
O O2 0.859846 0.954421 0.499876
O O3 0.058638 0.911250 0.446546
O O4 0.000000 0.000000 0.407218
O O5 0.466166 0.609016 0.014566
O O6 0.603892 0.679244 0.054514
O O7 0.426488 0.689721 0.950312
O O8 0.835874 0.664525 0.881047
O O9 0.698471 0.603115 0.959985
O O10 0.843459 0.662993 0.025507
O O11 0.222284 0.799376 0.657286
O O12 0.135263 0.791142 0.804933
O O13 0.750000 0.250000 0.345953
O O14 0.504387 0.265521 0.381251
O O15 0.750000 0.750000 0.033569
O O16 0.250000 0.750000 0.915499
#
# Coordination Sequence:
#
# PCOD9372554 Si02
#       7
#    16  16  16  16  16  16  16
#     4  11  26  44  70 102 141 188 242 299 357 441
#     4  11  25  45  67  99 145 186 238 295 364 438
#     4  11  23  44  72 106 140 188 241 303 367 434
#     4  11  24  44  71 104 139 188 243 299 363 438
#     4  11  24  47  73 104 145 191 245 301 367 442
#     4  11  24  42  73 105 139 186 244 298 354 441
#     4  12  27  46  71 105 150 190 236 308 379 431
#
# _framework density 21.579529000000001
#
# number of rings (size 3 to 8) (size 9 to 14) (size 15 to 20)
#    0.000    0.857    0.000    8.143    8.000    1.143 
#    5.143    0.000    0.000    0.000    0.000    0.000 
#    0.000    0.000    0.000    0.000    0.000    0.000 
#
# Total GULP energy -156677.646883 kJ/mol
# GULP energy per Si atom -5595.630246 kJ/mol
# Density = 2.153041 g / cm^3
# Si number density = 21.579529 Si / 1000 Ang^3
#
#
#
# Elastic Constant Matrix: (Units=GPa)
#
#
# Indices 1 2 3 4 5 6 
#
# 1 76.1081 33.0712 19.1395 0.0000 0.0000 0.0000
# 2 33.0712 113.8634 15.4879 0.0000 0.0000 0.0000
# 3 19.1395 15.4879 107.3747 0.0000 0.0000 0.0000
# 4 0.0000 0.0000 0.0000 22.5319 0.0000 0.0000
# 5 0.0000 0.0000 0.0000 0.0000 14.7790 0.0000
# 6 0.0000 0.0000 0.0000 0.0000 0.0000 29.7093
#
#
#
# Elastic Compliance Matrix: (Units=1/GPa)
#
#
# Indices 1 2 3 4 5 6 
#
# 1 0.015512 -0.004212 -0.002157 0.000000 0.000000 0.000000
# 2 -0.004212 0.010102 -0.000706 0.000000 0.000000 0.000000
# 3 -0.002157 -0.000706 0.009800 0.000000 0.000000 0.000000
# 4 0.000000 0.000000 0.000000 0.044382 0.000000 0.000000
# 5 0.000000 0.000000 0.000000 0.000000 0.067664 0.000000
# 6 0.000000 0.000000 0.000000 0.000000 0.000000 0.033660
#
#
# Mechanical properties :
#
#
# Convention : Reuss Voigt Hill
#
# Bulk Modulus (GPa) = 47.03224 48.08259 47.55742
# Shear Modulus (GPa) = 24.70880 28.71387 26.71134
#
# Velocity S-wave (km/s) = 3.38747 3.65171 3.52207
# Velocity P-wave (km/s) = 6.09443 6.33324 6.21498
#
# Compressibility (1/GPa) = 0.02126201
#
# Stress axis : x y z
#
# Youngs Moduli (GPa) = 64.46634 98.99162 102.04468
#
# Poissons Ratio (x) = 0.41695 0.22016
# Poissons Ratio (y) = 0.27153 0.07208
# Poissons Ratio (z) = 0.13908 0.06992
#
# Static dielectric constant tensor:
#      x y z
#    x 1.766250 0.000000 0.000000 
#    y 0.000000 1.791660 0.000000 
#    z 0.000000 0.000000 1.768990 
# 
# From -- ./inp_files/9766.got.cif
#   From: 2010.05.17/outbox.cif.g08.bks.cpg/sg43_5_cif.got.tgz:9766.got - 2010.06.03 19:21:55.
