data_PCOD9372168
_publ_section_title
;
Structure prediction by ZEFSAII (Michael W. Deem and Ramdas Pophale) SiO2 
 PCOD9372168
Probable space group: F D D 2
;
_chemical_formula_sum "Si O2"
_cell_formula_units_Z 64
_cell_length_a 31.239215
_cell_length_b 4.869484
_cell_length_c 15.920827
_cell_angle_alpha 90.000000
_cell_angle_beta 90.000000
_cell_angle_gamma 90.000000
_cell_volume 2421.858016
_symmetry_space_group_name_H-M "F D D 2"
_symmetry_group_IT_number 43
_symmetry_cell_setting 'orthorhombic'
loop_
_space_group_symop_operation_xyz
x,y,z
-x,-y,z
1/4-x,1/4+y,1/4+z
1/4+x,1/4-y,1/4+z
x,1/2+y,1/2+z
-x,1/2-y,1/2+z
1/4-x,3/4+y,3/4+z
1/4+x,3/4-y,3/4+z
1/2+x,y,1/2+z
1/2-x,-y,1/2+z
3/4-x,1/4+y,3/4+z
3/4+x,1/4-y,3/4+z
1/2+x,1/2+y,z
1/2-x,1/2-y,z
3/4-x,3/4+y,1/4+z
3/4+x,3/4-y,1/4+z
loop_
_atom_site_type_symbol
_atom_site_label
_atom_site_fract_x
_atom_site_fract_y
_atom_site_fract_z
Si Si1 0.539297 0.782034 0.369310
Si Si2 0.296596 0.878447 0.799831
Si Si3 0.119002 0.967508 0.772801
Si Si4 0.924505 0.531576 0.724259
O O1 0.542318 0.687849 0.466016
O O2 0.584335 0.931659 0.347868
O O3 0.543897 0.534215 0.301928
O O4 0.500000 0.000000 0.359336
O O5 0.250000 0.750000 0.804590
O O6 0.334548 0.658932 0.783367
O O7 0.305772 0.948433 0.897086
O O8 0.094077 0.770755 0.705649
O O9 0.115727 0.286421 0.753132
#
# Coordination Sequence:
#
# PCOD9372168 Si02
#       4
#    16  16  16  16
#     4   9  23  46  76 112 150 199 254 320 394 469
#     4  11  24  47  77 115 153 205 268 326 395 476
#     4  10  24  48  72 105 154 198 252 319 393 468
#     4  10  25  46  76 102 154 195 253 317 397 456
#
# _framework density 26.425991
#
# number of rings (size 3 to 8) (size 9 to 14) (size 15 to 20)
#    1.500    0.500    0.000    1.500    3.500    4.000 
#    4.500    3.750    0.000    0.000    0.000    0.000 
#    0.000    0.000    0.000    0.000    0.000    0.000 
#
# Total GULP energy -89100.857937 kJ/mol
# GULP energy per Si atom -5568.803621 kJ/mol
# Density = 2.636584 g / cm^3
# Si number density = 26.425991 Si / 1000 Ang^3
#
#
#
# Elastic Constant Matrix: (Units=GPa)
#
#
# Indices 1 2 3 4 5 6 
#
# 1 183.4542 37.0342 34.7568 0.0020 -0.0010 -0.0011
# 2 37.0342 117.4330 36.1281 0.0058 -0.0008 -0.0015
# 3 34.7568 36.1281 172.3630 -0.0014 -0.0007 -0.0008
# 4 0.0020 0.0058 -0.0014 225.4829 0.0059 0.0052
# 5 -0.0010 -0.0008 -0.0007 0.0059 12.6406 0.0000
# 6 -0.0011 -0.0015 -0.0008 0.0052 0.0000 43.6411
#
#
#
# Elastic Compliance Matrix: (Units=1/GPa)
#
#
# Indices 1 2 3 4 5 6 
#
# 1 0.005939 -0.001608 -0.000860 0.000000 0.000000 0.000000
# 2 -0.001608 0.009538 -0.001675 0.000000 0.000000 0.000000
# 3 -0.000860 -0.001675 0.006326 0.000000 0.000000 0.000000
# 4 0.000000 0.000000 0.000000 0.004435 -0.000002 -0.000001
# 5 0.000000 0.000000 0.000000 -0.000002 0.079110 0.000000
# 6 0.000000 0.000000 0.000000 -0.000001 0.000000 0.022914
#
#
# Mechanical properties :
#
#
# Convention : Reuss Voigt Hill
#
# Bulk Modulus (GPa) = 73.98715 76.56538 75.27627
# Shear Modulus (GPa) = 35.44739 80.70833 58.07786
#
# Velocity S-wave (km/s) = 3.66646 5.53241 4.69311
# Velocity P-wave (km/s) = 6.78105 8.35742 7.61016
#
# Compressibility (1/GPa) = 0.01351586
#
# Stress axis : x y z
#
# Youngs Moduli (GPa) = 168.38977 104.84465 158.07054
#
# Poissons Ratio (x) = 0.16860 0.13601
# Poissons Ratio (y) = 0.27079 0.26476
# Poissons Ratio (z) = 0.14489 0.17561
#
# Static dielectric constant tensor:
#      x y z
#    x 2.013800 0.000000 0.000000 
#    y 0.000000 2.036830 0.000000 
#    z 0.000000 0.000000 2.206510 
# 
# From -- ./inp_files/15160.got.cif
#   From: 2010.05.17/outbox.cif.g08.bks.cpg/sg43_8_cif.got.tgz:15160.got - 2010.06.03 19:21:55.
