data_PCOD9372444
_publ_section_title
;
Structure prediction by ZEFSAII (Michael W. Deem and Ramdas Pophale) SiO2 
 PCOD9372444
Probable space group: F D D 2
;
_chemical_formula_sum "Si O2"
_cell_formula_units_Z 96
_cell_length_a 13.027194
_cell_length_b 13.750539
_cell_length_c 24.068854
_cell_angle_alpha 90.000000
_cell_angle_beta 90.000000
_cell_angle_gamma 90.000000
_cell_volume 4311.476421
_symmetry_space_group_name_H-M "F D D 2"
_symmetry_group_IT_number 43
_symmetry_cell_setting 'orthorhombic'
loop_
_space_group_symop_operation_xyz
x,y,z
-x,-y,z
1/4-x,1/4+y,1/4+z
1/4+x,1/4-y,1/4+z
x,1/2+y,1/2+z
-x,1/2-y,1/2+z
1/4-x,3/4+y,3/4+z
1/4+x,3/4-y,3/4+z
1/2+x,y,1/2+z
1/2-x,-y,1/2+z
3/4-x,1/4+y,3/4+z
3/4+x,1/4-y,3/4+z
1/2+x,1/2+y,z
1/2-x,1/2-y,z
3/4-x,3/4+y,1/4+z
3/4+x,3/4-y,1/4+z
loop_
_atom_site_type_symbol
_atom_site_label
_atom_site_fract_x
_atom_site_fract_y
_atom_site_fract_z
Si Si1 0.478660 0.671710 0.668100
Si Si2 0.800947 0.122424 0.600870
Si Si3 0.116106 0.589968 0.067853
Si Si4 0.250000 0.750000 0.502785
Si Si5 0.090200 0.565547 0.942367
Si Si6 0.111008 0.022515 0.153482
Si Si7 0.750000 0.750000 0.513585
O O1 0.363651 0.683275 0.646441
O O2 0.543375 0.632206 0.615391
O O3 0.464405 0.585939 0.712732
O O4 0.549061 0.761154 0.689075
O O5 0.816128 0.187390 0.546050
O O6 0.847728 0.015946 0.587856
O O7 0.685815 0.095662 0.621703
O O8 0.065082 0.583408 0.007010
O O9 0.205424 0.665524 0.051559
O O10 0.089014 0.666549 0.910165
O O11 0.000000 0.500000 0.919653
O O12 0.000000 0.000000 0.125993
O O13 0.081279 0.045075 0.218381
#
# Coordination Sequence:
#
# PCOD9372444 Si02
#       7
#    16  16  16   8  16  16   8
#     4  12  26  44  69 107 138 188 236 301 365 428
#     4  12  25  44  71  98 151 186 235 298 367 441
#     4  11  22  41  71 104 134 179 236 290 358 426
#     4  12  28  42  66 104 152 182 240 298 378 436
#     4  11  23  42  74 103 136 183 240 298 350 428
#     4   9  23  46  68 100 142 180 239 290 355 434
#     4   8  22  42  70 106 136 174 240 300 350 432
#
# _framework density 22.266154
#
# number of rings (size 3 to 8) (size 9 to 14) (size 15 to 20)
#    0.500    0.667    3.333    2.000    5.833    1.333 
#    0.000    1.667    0.000    0.000    0.000    0.000 
#    0.000    0.000    0.000    0.000    0.000    0.000 
#
# Total GULP energy -133776.178075 kJ/mol
# GULP energy per Si atom -5574.007420 kJ/mol
# Density = 2.221548 g / cm^3
# Si number density = 22.266154 Si / 1000 Ang^3
#
#
#
# Elastic Constant Matrix: (Units=GPa)
#
#
# Indices 1 2 3 4 5 6 
#
# 1 77.2606 24.2416 17.6760 0.0000 0.0000 0.0000
# 2 24.2416 109.6619 15.1861 0.0000 0.0000 0.0000
# 3 17.6760 15.1861 102.3971 0.0000 0.0000 0.0000
# 4 0.0000 0.0000 0.0000 13.8789 0.0000 0.0000
# 5 0.0000 0.0000 0.0000 0.0000 33.6773 0.0000
# 6 0.0000 0.0000 0.0000 0.0000 0.0000 36.6639
#
#
#
# Elastic Compliance Matrix: (Units=1/GPa)
#
#
# Indices 1 2 3 4 5 6 
#
# 1 0.014315 -0.002881 -0.002044 0.000000 0.000000 0.000000
# 2 -0.002881 0.009890 -0.000969 0.000000 0.000000 0.000000
# 3 -0.002044 -0.000969 0.010262 0.000000 0.000000 0.000000
# 4 0.000000 0.000000 0.000000 0.072052 0.000000 0.000000
# 5 0.000000 0.000000 0.000000 0.000000 0.029694 0.000000
# 6 0.000000 0.000000 0.000000 0.000000 0.000000 0.027275
#
#
# Mechanical properties :
#
#
# Convention : Reuss Voigt Hill
#
# Bulk Modulus (GPa) = 44.09472 44.83633 44.46552
# Shear Modulus (GPa) = 27.34693 32.32510 29.83601
#
# Velocity S-wave (km/s) = 3.50835 3.81433 3.66453
# Velocity P-wave (km/s) = 6.02145 6.29119 6.15779
#
# Compressibility (1/GPa) = 0.02267845
#
# Stress axis : x y z
#
# Youngs Moduli (GPa) = 69.85751 101.11086 97.44254
#
# Poissons Ratio (x) = 0.29134 0.19915
# Poissons Ratio (y) = 0.20129 0.09446
# Poissons Ratio (z) = 0.14277 0.09801
#
# Static dielectric constant tensor:
#      x y z
#    x 1.910510 0.000000 0.000000 
#    y 0.000000 2.526710 0.000000 
#    z 0.000000 0.000000 1.857590 
# 
# From -- ./inp_files/17592.got.cif
#   From: 2010.05.17/outbox.cif.g08.bks.cpg/sg43_9_cif.got.tgz:17592.got - 2010.06.03 19:21:55.
