data_PCOD9372825
_publ_section_title
;
Structure prediction by ZEFSAII (Michael W. Deem and Ramdas Pophale) SiO2 
 PCOD9372825
Probable space group: F D D 2
;
_chemical_formula_sum "Si O2"
_cell_formula_units_Z 64
_cell_length_a 29.504443
_cell_length_b 4.888165
_cell_length_c 18.939681
_cell_angle_alpha 90.000000
_cell_angle_beta 90.000000
_cell_angle_gamma 90.000000
_cell_volume 2731.529765
_symmetry_space_group_name_H-M "F D D 2"
_symmetry_group_IT_number 43
_symmetry_cell_setting 'orthorhombic'
loop_
_space_group_symop_operation_xyz
x,y,z
-x,-y,z
1/4-x,1/4+y,1/4+z
1/4+x,1/4-y,1/4+z
x,1/2+y,1/2+z
-x,1/2-y,1/2+z
1/4-x,3/4+y,3/4+z
1/4+x,3/4-y,3/4+z
1/2+x,y,1/2+z
1/2-x,-y,1/2+z
3/4-x,1/4+y,3/4+z
3/4+x,1/4-y,3/4+z
1/2+x,1/2+y,z
1/2-x,1/2-y,z
3/4-x,3/4+y,1/4+z
3/4+x,3/4-y,1/4+z
loop_
_atom_site_type_symbol
_atom_site_label
_atom_site_fract_x
_atom_site_fract_y
_atom_site_fract_z
Si Si1 0.667883 0.249994 0.563670
Si Si2 0.896043 0.750007 0.563670
Si Si3 0.469296 0.239530 0.447599
Si Si4 0.780705 0.010469 0.429741
O O1 0.635646 0.000513 0.541305
O O2 0.635643 0.499464 0.586035
O O3 0.698193 0.141834 0.627579
O O4 0.698192 0.358165 0.499761
O O5 0.928715 0.825652 0.499008
O O6 0.928714 0.674352 0.628331
O O7 0.500000 0.500000 0.431014
O O8 0.500000 0.000000 0.482179
O O9 0.750000 0.250000 0.395162
O O10 0.750000 0.750000 0.446326
#
# Coordination Sequence:
#
# PCOD9372825 Si02
#       4
#    16  16  16  16
#     4  12  25  43  68 100 137 180 225 280 340 405
#     4  12  24  45  69 100 137 180 227 280 339 405
#     4  12  25  44  69 101 137 180 227 281 339 404
#     4  12  25  44  69 101 137 180 227 281 339 404
#
# _framework density 23.430091999999998
#
# number of rings (size 3 to 8) (size 9 to 14) (size 15 to 20)
#    0.000    0.000    0.000   11.250    0.000    2.000 
#    0.000    0.000    0.000    0.000    0.000    0.000 
#    0.000    0.000    0.000    0.000    0.000    0.000 
#
# Total GULP energy -89826.670278 kJ/mol
# GULP energy per Si atom -5614.166892 kJ/mol
# Density = 2.337676 g / cm^3
# Si number density = 23.430092 Si / 1000 Ang^3
#
#
#
# Elastic Constant Matrix: (Units=GPa)
#
#
# Indices 1 2 3 4 5 6 
#
# 1 150.7022 90.9389 55.5432 0.0003 0.0006 0.0015
# 2 90.9389 171.7390 38.8634 -0.0003 0.0057 0.0069
# 3 55.5432 38.8634 107.0947 -0.0025 0.0024 0.0018
# 4 0.0003 -0.0003 -0.0025 28.0339 0.0022 0.0006
# 5 0.0006 0.0057 0.0024 0.0022 11.9135 -0.0010
# 6 0.0015 0.0069 0.0018 0.0006 -0.0010 71.5121
#
#
#
# Elastic Compliance Matrix: (Units=1/GPa)
#
#
# Indices 1 2 3 4 5 6 
#
# 1 0.011097 -0.004983 -0.003947 -0.000001 0.000003 0.000000
# 2 -0.004983 0.008581 -0.000530 0.000000 -0.000004 -0.000001
# 3 -0.003947 -0.000530 0.011577 0.000001 -0.000002 0.000000
# 4 -0.000001 0.000000 0.000001 0.035671 -0.000007 0.000000
# 5 0.000003 -0.000004 -0.000002 -0.000007 0.083939 0.000001
# 6 0.000000 -0.000001 0.000000 0.000000 0.000001 0.013984
#
#
# Mechanical properties :
#
#
# Convention : Reuss Voigt Hill
#
# Bulk Modulus (GPa) = 81.06534 88.91408 84.98971
# Shear Modulus (GPa) = 26.61268 38.57126 32.59197
#
# Velocity S-wave (km/s) = 3.37387 4.06177 3.73370
# Velocity P-wave (km/s) = 7.06054 7.74780 7.41214
#
# Compressibility (1/GPa) = 0.01233573
#
# Stress axis : x y z
#
# Youngs Moduli (GPa) = 90.11192 116.53326 86.37891
#
# Poissons Ratio (x) = 0.58069 0.34095
# Poissons Ratio (y) = 0.44903 0.04575
# Poissons Ratio (z) = 0.35569 0.06172
#
# Static dielectric constant tensor:
#      x y z
#    x 1.883160 0.000000 0.000000 
#    y 0.000000 1.911460 0.000000 
#    z 0.000000 0.000000 1.859760 
# 
# From -- ./inp_files/22531.got.cif
#   From: 2010.05.17/outbox.cif.g08.bks.cpg/sg43_12_cif.got.tgz:22531.got - 2010.06.03 19:21:55.
