data_PCOD9372641
_publ_section_title
;
Structure prediction by ZEFSAII (Michael W. Deem and Ramdas Pophale) SiO2 
 PCOD9372641
Probable space group: F D D 2
;
_chemical_formula_sum "Si O2"
_cell_formula_units_Z 88
_cell_length_a 18.084788
_cell_length_b 11.447224
_cell_length_c 18.124700
_cell_angle_alpha 90.000000
_cell_angle_beta 90.000000
_cell_angle_gamma 90.000000
_cell_volume 3752.186617
_symmetry_space_group_name_H-M "F D D 2"
_symmetry_group_IT_number 43
_symmetry_cell_setting 'orthorhombic'
loop_
_space_group_symop_operation_xyz
x,y,z
-x,-y,z
1/4-x,1/4+y,1/4+z
1/4+x,1/4-y,1/4+z
x,1/2+y,1/2+z
-x,1/2-y,1/2+z
1/4-x,3/4+y,3/4+z
1/4+x,3/4-y,3/4+z
1/2+x,y,1/2+z
1/2-x,-y,1/2+z
3/4-x,1/4+y,3/4+z
3/4+x,1/4-y,3/4+z
1/2+x,1/2+y,z
1/2-x,1/2-y,z
3/4-x,3/4+y,1/4+z
3/4+x,3/4-y,1/4+z
loop_
_atom_site_type_symbol
_atom_site_label
_atom_site_fract_x
_atom_site_fract_y
_atom_site_fract_z
Si Si1 0.708528 0.012683 0.304510
Si Si2 0.250000 0.750000 0.497550
Si Si3 0.273719 0.883775 0.936557
Si Si4 0.871202 0.052526 0.658516
Si Si5 0.557532 0.599844 0.442879
Si Si6 0.019315 0.262010 0.321512
O O1 0.655184 0.090275 0.359655
O O2 0.763442 0.102643 0.263602
O O3 0.754833 0.928340 0.355870
O O4 0.672471 0.936142 0.237363
O O5 0.314485 0.719087 0.439890
O O6 0.225218 0.646662 0.550619
O O7 0.250000 0.750000 0.943195
O O8 0.356854 0.927607 0.956574
O O9 0.221096 0.947476 0.995204
O O10 0.812209 0.993990 0.605461
O O11 0.500000 0.500000 0.413462
O O12 0.568116 0.705373 0.384337
#
# Coordination Sequence:
#
# PCOD9372641 Si02
#       6
#    16   8  16  16  16  16
#     4  11  26  48  77 107 148 199 261 317 393 473
#     4  12  24  44  78 102 150 190 266 320 386 472
#     4  12  29  46  72 112 158 201 245 327 403 475
#     4  11  24  46  73 110 140 193 261 321 382 466
#     4  11  28  49  77 110 149 204 259 323 391 483
#     4  11  26  46  73 106 147 199 253 323 389 473
#
# _framework density 23.452992999999999
#
# number of rings (size 3 to 8) (size 9 to 14) (size 15 to 20)
#    0.000    0.727    3.636    1.636   14.000    0.000 
#    6.545    0.000    0.000    0.000    0.000    0.000 
#    0.000    0.000    0.000    0.000    0.000    0.000 
#
# Total GULP energy -122660.038161 kJ/mol
# GULP energy per Si atom -5575.456280 kJ/mol
# Density = 2.339961 g / cm^3
# Si number density = 23.452993 Si / 1000 Ang^3
#
#
#
# Elastic Constant Matrix: (Units=GPa)
#
#
# Indices 1 2 3 4 5 6 
#
# 1 51.8681 -15.2724 22.0477 0.0000 0.0000 0.0000
# 2 -15.2724 111.9290 40.7562 0.0000 0.0000 0.0000
# 3 22.0477 40.7562 158.0229 0.0000 0.0000 0.0000
# 4 0.0000 0.0000 0.0000 17.5780 0.0000 0.0000
# 5 0.0000 0.0000 0.0000 0.0000 33.2432 0.0000
# 6 0.0000 0.0000 0.0000 0.0000 0.0000 21.7256
#
#
#
# Elastic Compliance Matrix: (Units=1/GPa)
#
#
# Indices 1 2 3 4 5 6 
#
# 1 0.022492 0.004648 -0.004337 0.000000 0.000000 0.000000
# 2 0.004648 0.010821 -0.003439 0.000000 0.000000 0.000000
# 3 -0.004337 -0.003439 0.007820 0.000000 0.000000 0.000000
# 4 0.000000 0.000000 0.000000 0.056889 0.000000 0.000000
# 5 0.000000 0.000000 0.000000 0.000000 0.030081 0.000000
# 6 0.000000 0.000000 0.000000 0.000000 0.000000 0.046029
#
#
# Mechanical properties :
#
#
# Convention : Reuss Voigt Hill
#
# Bulk Modulus (GPa) = 28.67245 46.32034 37.49639
# Shear Modulus (GPa) = 26.03975 32.79526 29.41751
#
# Velocity S-wave (km/s) = 3.33572 3.74350 3.54548
# Velocity P-wave (km/s) = 5.20462 6.20308 5.72566
#
# Compressibility (1/GPa) = 0.03487668
#
# Stress axis : x y z
#
# Youngs Moduli (GPa) = 44.46061 92.41454 127.87153
#
# Poissons Ratio (x) = -0.42955 0.55457
# Poissons Ratio (y) = -0.20666 0.43979
# Poissons Ratio (z) = 0.19282 0.31785
#
# Static dielectric constant tensor:
#      x y z
#    x 2.110270 0.000000 0.000000 
#    y 0.000000 1.984170 0.000000 
#    z 0.000000 0.000000 1.855560 
# 
# From -- ./inp_files/13260.got.cif
#   From: 2010.05.17/outbox.cif.g08.bks.cpg/sg43_7_cif.got.tgz:13260.got - 2010.06.03 19:21:55.
