data_PCOD9372874
_publ_section_title
;
Structure prediction by ZEFSAII (Michael W. Deem and Ramdas Pophale) SiO2 
 PCOD9372874
Probable space group: F D D 2
;
_chemical_formula_sum "Si O2"
_cell_formula_units_Z 88
_cell_length_a 24.853606
_cell_length_b 11.541230
_cell_length_c 13.563010
_cell_angle_alpha 90.000000
_cell_angle_beta 90.000000
_cell_angle_gamma 90.000000
_cell_volume 3890.429836
_symmetry_space_group_name_H-M "F D D 2"
_symmetry_group_IT_number 43
_symmetry_cell_setting 'orthorhombic'
loop_
_space_group_symop_operation_xyz
x,y,z
-x,-y,z
1/4-x,1/4+y,1/4+z
1/4+x,1/4-y,1/4+z
x,1/2+y,1/2+z
-x,1/2-y,1/2+z
1/4-x,3/4+y,3/4+z
1/4+x,3/4-y,3/4+z
1/2+x,y,1/2+z
1/2-x,-y,1/2+z
3/4-x,1/4+y,3/4+z
3/4+x,1/4-y,3/4+z
1/2+x,1/2+y,z
1/2-x,1/2-y,z
3/4-x,3/4+y,1/4+z
3/4+x,3/4-y,1/4+z
loop_
_atom_site_type_symbol
_atom_site_label
_atom_site_fract_x
_atom_site_fract_y
_atom_site_fract_z
Si Si1 0.376021 0.443101 0.640660
Si Si2 0.500000 0.000000 0.617132
Si Si3 0.454989 0.814301 0.765219
Si Si4 0.905887 0.445866 0.462495
Si Si5 0.531357 0.602284 0.768650
Si Si6 0.810490 0.239210 0.192350
O O1 0.361858 0.559403 0.702946
O O2 0.421187 0.367094 0.695391
O O3 0.400782 0.469616 0.534814
O O4 0.324963 0.359943 0.638909
O O5 0.490361 0.890877 0.689557
O O6 0.446523 0.989526 0.548234
O O7 0.399433 0.767942 0.716491
O O8 0.491383 0.704762 0.794099
O O9 0.438445 0.889317 0.860194
O O10 0.940943 0.455163 0.363521
O O11 0.500000 0.500000 0.715376
O O12 0.750000 0.250000 0.229784
#
# Coordination Sequence:
#
# PCOD9372874 Si02
#       6
#    16   8  16  16  16  16
#     4  12  27  50  80 112 152 209 263 330 384 473
#     4  12  30  50  78 118 162 204 260 338 388 476
#     4  12  30  49  75 119 157 204 262 323 398 466
#     4  12  27  48  80 112 151 206 265 319 393 464
#     4  12  25  49  75 112 152 201 264 320 391 465
#     4  12  29  50  79 115 158 206 264 327 400 466
#
# _framework density 22.619607999999999
#
# number of rings (size 3 to 8) (size 9 to 14) (size 15 to 20)
#    0.000    0.000    5.455    2.727    5.091    1.455 
#    0.000    0.000    0.000    0.000    0.000    0.000 
#    0.000    0.000    0.000    0.000    0.000    0.000 
#
# Total GULP energy -122935.229449 kJ/mol
# GULP energy per Si atom -5587.964975 kJ/mol
# Density = 2.256812 g / cm^3
# Si number density = 22.619608 Si / 1000 Ang^3
#
#
#
# Elastic Constant Matrix: (Units=GPa)
#
#
# Indices 1 2 3 4 5 6 
#
# 1 147.7292 86.3507 67.8041 0.0000 0.0000 0.0000
# 2 86.3507 143.5836 55.0040 0.0000 0.0000 0.0000
# 3 67.8041 55.0040 131.5513 0.0000 0.0000 0.0000
# 4 0.0000 0.0000 0.0000 20.8285 0.0000 0.0000
# 5 0.0000 0.0000 0.0000 0.0000 10.9469 0.0000
# 6 0.0000 0.0000 0.0000 0.0000 0.0000 57.9804
#
#
#
# Elastic Compliance Matrix: (Units=1/GPa)
#
#
# Indices 1 2 3 4 5 6 
#
# 1 0.011781 -0.005666 -0.003703 0.000000 0.000000 0.000000
# 2 -0.005666 0.011018 -0.001686 0.000000 0.000000 0.000000
# 3 -0.003703 -0.001686 0.010215 0.000000 0.000000 0.000000
# 4 0.000000 0.000000 0.000000 0.048011 0.000000 0.000000
# 5 0.000000 0.000000 0.000000 0.000000 0.091350 0.000000
# 6 0.000000 0.000000 0.000000 0.000000 0.000000 0.017247
#
#
# Mechanical properties :
#
#
# Convention : Reuss Voigt Hill
#
# Bulk Modulus (GPa) = 91.71709 93.46464 92.59086
# Shear Modulus (GPa) = 23.21604 32.19818 27.70711
#
# Velocity S-wave (km/s) = 3.20717 3.77697 3.50368
# Velocity P-wave (km/s) = 7.37226 7.77371 7.57565
#
# Compressibility (1/GPa) = 0.01090309
#
# Stress axis : x y z
#
# Youngs Moduli (GPa) = 84.88387 90.75727 97.89330
#
# Poissons Ratio (x) = 0.51427 0.36248
# Poissons Ratio (y) = 0.48099 0.16509
# Poissons Ratio (z) = 0.31431 0.15305
#
# Static dielectric constant tensor:
#      x y z
#    x 1.914180 0.000000 0.000000 
#    y 0.000000 1.917910 0.000000 
#    z 0.000000 0.000000 1.850930 
# 
# From -- ./inp_files/11201.got.cif
#   From: 2010.05.17/outbox.cif.g08.bks.cpg/sg43_6_cif.got.tgz:11201.got - 2010.06.03 19:21:55.
