data_PCOD9372596
_publ_section_title
;
Structure prediction by ZEFSAII (Michael W. Deem and Ramdas Pophale) SiO2 
 PCOD9372596
Probable space group: F D D 2
;
_chemical_formula_sum "Si O2"
_cell_formula_units_Z 88
_cell_length_a 12.611055
_cell_length_b 24.747671
_cell_length_c 12.984804
_cell_angle_alpha 90.000000
_cell_angle_beta 90.000000
_cell_angle_gamma 90.000000
_cell_volume 4052.482537
_symmetry_space_group_name_H-M "F D D 2"
_symmetry_group_IT_number 43
_symmetry_cell_setting 'orthorhombic'
loop_
_space_group_symop_operation_xyz
x,y,z
-x,-y,z
1/4-x,1/4+y,1/4+z
1/4+x,1/4-y,1/4+z
x,1/2+y,1/2+z
-x,1/2-y,1/2+z
1/4-x,3/4+y,3/4+z
1/4+x,3/4-y,3/4+z
1/2+x,y,1/2+z
1/2-x,-y,1/2+z
3/4-x,1/4+y,3/4+z
3/4+x,1/4-y,3/4+z
1/2+x,1/2+y,z
1/2-x,1/2-y,z
3/4-x,3/4+y,1/4+z
3/4+x,3/4-y,1/4+z
loop_
_atom_site_type_symbol
_atom_site_label
_atom_site_fract_x
_atom_site_fract_y
_atom_site_fract_z
Si Si1 0.925636 0.317707 0.415810
Si Si2 0.878639 0.685689 0.173521
Si Si3 0.374850 0.246701 0.381404
Si Si4 0.250000 0.250000 0.023906
Si Si5 0.578669 0.662764 0.531266
Si Si6 0.037504 0.438701 0.968697
O O1 0.897328 0.375695 0.464747
O O2 0.848394 0.271377 0.458847
O O3 0.887220 0.321546 0.296205
O O4 0.046707 0.298908 0.429398
O O5 0.883919 0.731234 0.261197
O O6 0.785042 0.701201 0.096192
O O7 0.982183 0.683596 0.102557
O O8 0.250000 0.250000 0.406013
O O9 0.417983 0.302862 0.426719
O O10 0.554461 0.600639 0.508783
O O11 0.679511 0.672387 0.603633
O O12 0.000000 0.500000 0.972104
#
# Coordination Sequence:
#
# PCOD9372596 Si02
#       6
#    16  16  16   8  16  16
#     4  11  24  41  76 105 138 183 246 290 365 432
#     4  11  24  43  71 105 140 183 240 300 352 432
#     4  12  25  48  67 105 149 186 238 304 369 438
#     4  12  22  44  72 102 134 186 232 294 346 418
#     4  11  26  45  73 104 145 190 248 296 367 435
#     4  11  25  45  74 109 144 189 246 307 365 439
#
# _framework density 21.715084000000001
#
# number of rings (size 3 to 8) (size 9 to 14) (size 15 to 20)
#    0.000    0.727    5.455    1.636   10.182    0.000 
#    6.545    0.000    0.000    0.000    0.000    0.000 
#    0.000    0.000    0.000    0.000    0.000    0.000 
#
# Total GULP energy -122829.822918 kJ/mol
# GULP energy per Si atom -5583.173769 kJ/mol
# Density = 2.166566 g / cm^3
# Si number density = 21.715084 Si / 1000 Ang^3
#
#
#
# Elastic Constant Matrix: (Units=GPa)
#
#
# Indices 1 2 3 4 5 6 
#
# 1 90.7413 36.2977 28.0798 0.0000 0.0000 0.0000
# 2 36.2977 138.1591 60.8044 0.0000 0.0000 0.0000
# 3 28.0798 60.8044 85.3781 0.0000 0.0000 0.0000
# 4 0.0000 0.0000 0.0000 28.4577 0.0000 0.0000
# 5 0.0000 0.0000 0.0000 0.0000 22.6885 0.0000
# 6 0.0000 0.0000 0.0000 0.0000 0.0000 33.6562
#
#
#
# Elastic Compliance Matrix: (Units=1/GPa)
#
#
# Indices 1 2 3 4 5 6 
#
# 1 0.012706 -0.002183 -0.002624 0.000000 0.000000 0.000000
# 2 -0.002183 0.010918 -0.007057 0.000000 0.000000 0.000000
# 3 -0.002624 -0.007057 0.017601 0.000000 0.000000 0.000000
# 4 0.000000 0.000000 0.000000 0.035140 0.000000 0.000000
# 5 0.000000 0.000000 0.000000 0.000000 0.044075 0.000000
# 6 0.000000 0.000000 0.000000 0.000000 0.000000 0.029712
#
#
# Mechanical properties :
#
#
# Convention : Reuss Voigt Hill
#
# Bulk Modulus (GPa) = 57.15567 62.73803 59.94685
# Shear Modulus (GPa) = 27.82221 29.56692 28.69457
#
# Velocity S-wave (km/s) = 3.58332 3.69397 3.63907
# Velocity P-wave (km/s) = 6.59531 6.86644 6.73224
#
# Compressibility (1/GPa) = 0.01749608
#
# Stress axis : x y z
#
# Youngs Moduli (GPa) = 78.70520 91.59580 56.81334
#
# Poissons Ratio (x) = 0.19998 0.14907
# Poissons Ratio (y) = 0.17184 0.40094
# Poissons Ratio (z) = 0.20651 0.64641
#
# Static dielectric constant tensor:
#      x y z
#    x 1.806730 0.000000 0.000000 
#    y 0.000000 1.749980 0.000000 
#    z 0.000000 0.000000 1.805460 
# 
# From -- ./inp_files/9579.got.cif
#   From: 2010.05.17/outbox.cif.g08.bks.cpg/sg43_5_cif.got.tgz:9579.got - 2010.06.03 19:21:55.
