data_PCOD9372356
_publ_section_title
;
Structure prediction by ZEFSAII (Michael W. Deem and Ramdas Pophale) SiO2 
 PCOD9372356
Probable space group: F D D 2
;
_chemical_formula_sum "Si O2"
_cell_formula_units_Z 72
_cell_length_a 7.537614
_cell_length_b 22.795916
_cell_length_c 19.944671
_cell_angle_alpha 90.000000
_cell_angle_beta 90.000000
_cell_angle_gamma 90.000000
_cell_volume 3427.029306
_symmetry_space_group_name_H-M "F D D 2"
_symmetry_group_IT_number 43
_symmetry_cell_setting 'orthorhombic'
loop_
_space_group_symop_operation_xyz
x,y,z
-x,-y,z
1/4-x,1/4+y,1/4+z
1/4+x,1/4-y,1/4+z
x,1/2+y,1/2+z
-x,1/2-y,1/2+z
1/4-x,3/4+y,3/4+z
1/4+x,3/4-y,3/4+z
1/2+x,y,1/2+z
1/2-x,-y,1/2+z
3/4-x,1/4+y,3/4+z
3/4+x,1/4-y,3/4+z
1/2+x,1/2+y,z
1/2-x,1/2-y,z
3/4-x,3/4+y,1/4+z
3/4+x,3/4-y,1/4+z
loop_
_atom_site_type_symbol
_atom_site_label
_atom_site_fract_x
_atom_site_fract_y
_atom_site_fract_z
Si Si1 0.213227 0.613027 0.171350
Si Si2 0.287109 0.998489 0.100568
Si Si3 0.362435 0.125917 0.076104
Si Si4 0.500000 0.500000 0.866953
Si Si5 0.816773 0.964745 0.454065
O O1 0.270067 0.545414 0.159243
O O2 0.158328 0.627817 0.247554
O O3 0.383488 0.655050 0.165710
O O4 0.045279 0.625511 0.121299
O O5 0.500000 0.000000 0.106285
O O6 0.248348 0.067943 0.096580
O O7 0.247114 0.965076 0.030601
O O8 0.262343 0.187781 0.080611
O O9 0.672711 0.498743 0.912405
O O10 0.000000 0.000000 0.455719
#
# Coordination Sequence:
#
# PCOD9372356 Si02
#       5
#    16  16  16   8  16
#     4  11  20  42  70  93 134 186 222 278 352 410
#     4   9  19  39  68  92 131 181 218 277 345 405
#     4  11  22  39  65 102 137 178 229 284 346 411
#     4  12  26  38  70 100 128 178 230 284 340 428
#     4  11  20  45  65  90 135 177 218 276 351 403
#
# _framework density 21.009450999999999
#
# number of rings (size 3 to 8) (size 9 to 14) (size 15 to 20)
#    0.000    1.333    8.889    0.000    4.667    0.000 
#    8.000    0.000    4.889    0.000    0.000    0.000 
#    0.000    0.000    0.000    0.000    0.000    0.000 
#
# Total GULP energy -100207.313560 kJ/mol
# GULP energy per Si atom -5567.072976 kJ/mol
# Density = 2.096163 g / cm^3
# Si number density = 21.009451 Si / 1000 Ang^3
#
#
#
# Elastic Constant Matrix: (Units=GPa)
#
#
# Indices 1 2 3 4 5 6 
#
# 1 30.0388 13.6994 18.0675 0.0000 0.0000 0.0000
# 2 13.6994 190.1487 32.9138 0.0000 0.0000 0.0000
# 3 18.0675 32.9138 77.1709 0.0000 0.0000 0.0000
# 4 0.0000 0.0000 0.0000 26.5539 0.0000 0.0000
# 5 0.0000 0.0000 0.0000 0.0000 -4.1322 0.0000
# 6 0.0000 0.0000 0.0000 0.0000 0.0000 29.0182
#
#
#
# Elastic Compliance Matrix: (Units=1/GPa)
#
#
# Indices 1 2 3 4 5 6 
#
# 1 0.039055 -0.001329 -0.008577 0.000000 0.000000 0.000000
# 2 -0.001329 0.005723 -0.002130 0.000000 0.000000 0.000000
# 3 -0.008577 -0.002130 0.015875 0.000000 0.000000 0.000000
# 4 0.000000 0.000000 0.000000 0.037659 0.000000 0.000000
# 5 0.000000 0.000000 0.000000 0.000000 -0.242001 0.000000
# 6 0.000000 0.000000 0.000000 0.000000 0.000000 0.034461
#
#
# Mechanical properties :
#
#
# Convention : Reuss Voigt Hill
#
# Bulk Modulus (GPa) = 27.33614 47.41329 37.37472
# Shear Modulus (GPa) = -68.52867 25.79983 -21.36442
#
# Velocity S-wave (km/s) = -5.71741 3.50810 -3.19234
# Velocity P-wave (km/s) = 5.52680 6.24705 2.05914
#
# Compressibility (1/GPa) = 0.03658161
#
# Stress axis : x y z
#
# Youngs Moduli (GPa) = 25.60480 174.71892 62.99331
#
# Poissons Ratio (x) = 0.23223 0.54028
# Poissons Ratio (y) = 0.03403 0.13417
# Poissons Ratio (z) = 0.21961 0.37214
#
# Static dielectric constant tensor:
#      x y z
#    x 1.786870 0.000000 0.000000 
#    y 0.000000 2.044510 0.000000 
#    z 0.000000 0.000000 1.799580 
# 
# From -- ./inp_files/12651.got.cif
#   From: 2010.05.17/outbox.cif.g08.bks.cpg/sg43_7_cif.got.tgz:12651.got - 2010.06.03 19:21:55.
