data_PCOD9372870
_publ_section_title
;
Structure prediction by ZEFSAII (Michael W. Deem and Ramdas Pophale) SiO2 
 PCOD9372870
Probable space group: F D D 2
;
_chemical_formula_sum "Si O2"
_cell_formula_units_Z 72
_cell_length_a 13.437909
_cell_length_b 33.499027
_cell_length_c 6.820818
_cell_angle_alpha 90.000000
_cell_angle_beta 90.000000
_cell_angle_gamma 90.000000
_cell_volume 3070.438125
_symmetry_space_group_name_H-M "F D D 2"
_symmetry_group_IT_number 43
_symmetry_cell_setting 'orthorhombic'
loop_
_space_group_symop_operation_xyz
x,y,z
-x,-y,z
1/4-x,1/4+y,1/4+z
1/4+x,1/4-y,1/4+z
x,1/2+y,1/2+z
-x,1/2-y,1/2+z
1/4-x,3/4+y,3/4+z
1/4+x,3/4-y,3/4+z
1/2+x,y,1/2+z
1/2-x,-y,1/2+z
3/4-x,1/4+y,3/4+z
3/4+x,1/4-y,3/4+z
1/2+x,1/2+y,z
1/2-x,1/2-y,z
3/4-x,3/4+y,1/4+z
3/4+x,3/4-y,1/4+z
loop_
_atom_site_type_symbol
_atom_site_label
_atom_site_fract_x
_atom_site_fract_y
_atom_site_fract_z
Si Si1 0.699504 0.471552 0.695060
Si Si2 0.000000 0.000000 0.861780
Si Si3 0.953397 0.659016 0.676313
Si Si4 0.738000 0.822123 0.415606
Si Si5 0.463028 0.306055 0.527535
O O1 0.588618 0.487287 0.718218
O O2 0.715772 0.442298 0.874615
O O3 0.715662 0.587443 0.662811
O O4 0.731034 0.445931 0.508851
O O5 0.971182 0.962539 0.003803
O O6 0.991374 0.617213 0.591489
O O7 0.850567 0.673266 0.576444
O O8 0.984079 0.760744 0.461283
O O9 0.845756 0.813426 0.508670
#
# Coordination Sequence:
#
# PCOD9372870 Si02
#       5
#    16   8  16  16  16
#     4  12  26  48  76 107 155 197 261 324 389 474
#     4  12  26  48  82 116 146 214 258 326 406 464
#     4  12  25  51  72 109 158 199 254 331 380 475
#     4  12  25  50  78 108 155 200 261 321 396 465
#     4  12  25  48  73 111 148 201 255 317 390 464
#
# _framework density 23.449424
#
# number of rings (size 3 to 8) (size 9 to 14) (size 15 to 20)
#    0.000    0.000    6.667    2.667    3.111    0.000 
#   12.000    0.000    0.000    0.000    0.000    0.000 
#    0.000    0.000    0.000    0.000    0.000    0.000 
#
# Total GULP energy -100547.214561 kJ/mol
# GULP energy per Si atom -5585.956364 kJ/mol
# Density = 2.339605 g / cm^3
# Si number density = 23.449424 Si / 1000 Ang^3
#
#
#
# Elastic Constant Matrix: (Units=GPa)
#
#
# Indices 1 2 3 4 5 6 
#
# 1 134.1486 27.0348 8.6680 0.0000 0.0000 0.0000
# 2 27.0348 128.7491 19.1760 0.0000 0.0000 0.0000
# 3 8.6680 19.1760 83.0303 0.0000 0.0001 0.0000
# 4 0.0000 0.0000 0.0000 37.1742 0.0000 0.0000
# 5 0.0000 0.0000 0.0001 0.0000 37.0064 0.0000
# 6 0.0000 0.0000 0.0000 0.0000 0.0000 39.7334
#
#
#
# Elastic Compliance Matrix: (Units=1/GPa)
#
#
# Indices 1 2 3 4 5 6 
#
# 1 0.007800 -0.001571 -0.000452 0.000000 0.000000 0.000000
# 2 -0.001571 0.008360 -0.001767 0.000000 0.000000 0.000000
# 3 -0.000452 -0.001767 0.012499 0.000000 0.000000 0.000000
# 4 0.000000 0.000000 0.000000 0.026900 0.000000 0.000000
# 5 0.000000 0.000000 0.000000 0.000000 0.027022 0.000000
# 6 0.000000 0.000000 0.000000 0.000000 0.000000 0.025168
#
#
# Mechanical properties :
#
#
# Convention : Reuss Voigt Hill
#
# Bulk Modulus (GPa) = 47.43573 50.63174 49.03373
# Shear Modulus (GPa) = 40.86485 42.18609 41.52547
#
# Velocity S-wave (km/s) = 4.17907 4.24609 4.21272
# Velocity P-wave (km/s) = 6.59993 6.75854 6.67970
#
# Compressibility (1/GPa) = 0.02108116
#
# Stress axis : x y z
#
# Youngs Moduli (GPa) = 128.20310 119.61739 80.00651
#
# Poissons Ratio (x) = 0.18787 0.03613
# Poissons Ratio (y) = 0.20136 0.14135
# Poissons Ratio (z) = 0.05789 0.21134
#
# Static dielectric constant tensor:
#      x y z
#    x 1.879020 0.000000 0.000000 
#    y 0.000000 1.883630 0.000000 
#    z 0.000000 0.000000 1.933510 
# 
# From -- ./inp_files/2382.got.cif
#   From: 2010.05.17/outbox.cif.g08.bks.cpg/sg43_2_cif.got.tgz:2382.got - 2010.06.03 19:21:55.
