data_PCOD9372372
_publ_section_title
;
Structure prediction by ZEFSAII (Michael W. Deem and Ramdas Pophale) SiO2 
 PCOD9372372
Probable space group: F D D 2
;
_chemical_formula_sum "Si O2"
_cell_formula_units_Z 120
_cell_length_a 11.788365
_cell_length_b 19.096920
_cell_length_c 24.151137
_cell_angle_alpha 90.000000
_cell_angle_beta 90.000000
_cell_angle_gamma 90.000000
_cell_volume 5436.939303
_symmetry_space_group_name_H-M "F D D 2"
_symmetry_group_IT_number 43
_symmetry_cell_setting 'orthorhombic'
loop_
_space_group_symop_operation_xyz
x,y,z
-x,-y,z
1/4-x,1/4+y,1/4+z
1/4+x,1/4-y,1/4+z
x,1/2+y,1/2+z
-x,1/2-y,1/2+z
1/4-x,3/4+y,3/4+z
1/4+x,3/4-y,3/4+z
1/2+x,y,1/2+z
1/2-x,-y,1/2+z
3/4-x,1/4+y,3/4+z
3/4+x,1/4-y,3/4+z
1/2+x,1/2+y,z
1/2-x,1/2-y,z
3/4-x,3/4+y,1/4+z
3/4+x,3/4-y,1/4+z
loop_
_atom_site_type_symbol
_atom_site_label
_atom_site_fract_x
_atom_site_fract_y
_atom_site_fract_z
Si Si1 0.996730 0.737713 0.167770
Si Si2 0.949122 0.704802 0.910538
Si Si3 0.360028 0.414590 0.175224
Si Si4 0.287836 0.676216 0.597266
Si Si5 0.365667 0.858560 0.247633
Si Si6 0.000000 0.000000 0.574321
Si Si7 0.594334 0.441144 0.009373
Si Si8 0.093872 0.879088 0.129392
O O1 0.901106 0.693515 0.133729
O O2 0.946297 0.778458 0.221997
O O3 0.082135 0.684489 0.197001
O O4 0.055859 0.797590 0.130252
O O5 0.906421 0.685333 0.971929
O O6 0.852577 0.725930 0.865836
O O7 0.039279 0.767347 0.911606
O O8 0.028009 0.636678 0.900132
O O9 0.310052 0.352909 0.136537
O O10 0.324630 0.385967 0.234739
O O11 0.494444 0.415942 0.165734
O O12 0.250000 0.750000 0.574054
O O13 0.298604 0.621286 0.548265
O O14 0.271837 0.814468 0.281650
O O15 0.500000 0.500000 0.000566
O O16 0.601133 0.424125 0.073421
#
# Coordination Sequence:
#
# PCOD9372372 Si02
#       8
#    16  16  16  16  16   8  16  16
#     4  11  24  46  68 105 140 180 238 296 342 431
#     4  12  27  46  69 104 140 186 244 281 357 433
#     4  11  23  44  68 107 143 173 232 302 341 432
#     4  12  23  44  70 109 140 179 238 296 348 422
#     4  12  28  43  77  93 143 192 229 286 361 413
#     4  12  26  52  68 104 144 190 236 300 342 434
#     4  11  21  38  71 100 137 184 226 289 365 401
#     4  11  25  44  72 101 139 185 235 293 356 414
#
# _framework density 22.071242999999999
#
# number of rings (size 3 to 8) (size 9 to 14) (size 15 to 20)
#    0.000    0.533    5.333    3.600    4.667    1.067 
#    0.000    0.000    2.933    0.000    0.000    0.000 
#    0.000    0.000    0.000    0.000    0.000    0.000 
#
# Total GULP energy -167184.683952 kJ/mol
# GULP energy per Si atom -5572.822798 kJ/mol
# Density = 2.202101 g / cm^3
# Si number density = 22.071243 Si / 1000 Ang^3
#
#
#
# Elastic Constant Matrix: (Units=GPa)
#
#
# Indices 1 2 3 4 5 6 
#
# 1 107.8043 32.5305 39.8144 0.0000 0.0000 0.0000
# 2 32.5305 75.7136 19.5112 0.0000 0.0000 0.0000
# 3 39.8144 19.5112 79.0446 0.0000 0.0000 0.0000
# 4 0.0000 0.0000 0.0000 40.7739 0.0000 0.0000
# 5 0.0000 0.0000 0.0000 0.0000 34.5448 0.0000
# 6 0.0000 0.0000 0.0000 0.0000 0.0000 35.7632
#
#
#
# Elastic Compliance Matrix: (Units=1/GPa)
#
#
# Indices 1 2 3 4 5 6 
#
# 1 0.012425 -0.003979 -0.005277 0.000000 0.000000 0.000000
# 2 -0.003979 0.015379 -0.001792 0.000000 0.000000 0.000000
# 3 -0.005277 -0.001792 0.015751 0.000000 0.000000 0.000000
# 4 0.000000 0.000000 0.000000 0.024526 0.000000 0.000000
# 5 0.000000 0.000000 0.000000 0.000000 0.028948 0.000000
# 6 0.000000 0.000000 0.000000 0.000000 0.000000 0.027962
#
#
# Mechanical properties :
#
#
# Convention : Reuss Voigt Hill
#
# Bulk Modulus (GPa) = 46.59640 49.58609 48.09125
# Shear Modulus (GPa) = 32.41721 33.59680 33.00700
#
# Velocity S-wave (km/s) = 3.83659 3.90577 3.87133
# Velocity P-wave (km/s) = 6.38620 6.54639 6.46679
#
# Compressibility (1/GPa) = 0.02146088
#
# Stress axis : x y z
#
# Youngs Moduli (GPa) = 80.48001 65.02378 63.48739
#
# Poissons Ratio (x) = 0.25872 0.33499
# Poissons Ratio (y) = 0.32022 0.11377
# Poissons Ratio (z) = 0.42465 0.11652
#
# Static dielectric constant tensor:
#      x y z
#    x 1.239120 0.000000 0.000000 
#    y 0.000000 1.900050 0.000000 
#    z 0.000000 0.000000 1.913140 
# 
# From -- ./inp_files/21252.got.cif
#   From: 2010.05.17/outbox.cif.g08.bks.cpg/sg43_11_cif.got.tgz:21252.got - 2010.06.03 19:21:55.
