data_PCOD9372844
_publ_section_title
;
Structure prediction by ZEFSAII (Michael W. Deem and Ramdas Pophale) SiO2 
 PCOD9372844
Probable space group: F D D 2
;
_chemical_formula_sum "Si O2"
_cell_formula_units_Z 64
_cell_length_a 10.196364
_cell_length_b 28.686871
_cell_length_c 9.460583
_cell_angle_alpha 90.000000
_cell_angle_beta 90.000000
_cell_angle_gamma 90.000000
_cell_volume 2767.237355
_symmetry_space_group_name_H-M "F D D 2"
_symmetry_group_IT_number 43
_symmetry_cell_setting 'orthorhombic'
loop_
_space_group_symop_operation_xyz
x,y,z
-x,-y,z
1/4-x,1/4+y,1/4+z
1/4+x,1/4-y,1/4+z
x,1/2+y,1/2+z
-x,1/2-y,1/2+z
1/4-x,3/4+y,3/4+z
1/4+x,3/4-y,3/4+z
1/2+x,y,1/2+z
1/2-x,-y,1/2+z
3/4-x,1/4+y,3/4+z
3/4+x,1/4-y,3/4+z
1/2+x,1/2+y,z
1/2-x,1/2-y,z
3/4-x,3/4+y,1/4+z
3/4+x,3/4-y,1/4+z
loop_
_atom_site_type_symbol
_atom_site_label
_atom_site_fract_x
_atom_site_fract_y
_atom_site_fract_z
Si Si1 0.027500 0.923889 0.068820
Si Si2 0.352945 0.013265 0.357369
Si Si3 0.488530 0.334312 0.875670
Si Si4 0.846683 0.796343 0.620596
O O1 0.055459 0.922075 0.236555
O O2 0.873835 0.936182 0.064603
O O3 0.125962 0.962833 0.009925
O O4 0.029712 0.882374 0.953208
O O5 0.308730 0.053336 0.252917
O O6 0.500000 0.000000 0.313685
O O7 0.238862 0.975929 0.343232
O O8 0.374748 0.329493 0.756912
O O9 0.750000 0.750000 0.638172
#
# Coordination Sequence:
#
# PCOD9372844 Si02
#       4
#    16  16  16  16
#     4  12  26  49  73 111 162 194 258 333 378 465
#     4  12  24  48  79 107 152 199 255 319 384 458
#     4  12  26  48  73 114 153 203 255 319 398 460
#     4  12  26  48  81 111 151 208 262 319 394 460
#
# _framework density 23.127758
#
# number of rings (size 3 to 8) (size 9 to 14) (size 15 to 20)
#    0.000    0.000    7.500    3.000    0.000    2.000 
#    0.000    0.000    0.000    0.000    0.000    0.000 
#    0.000    0.000    0.000    0.000    0.000    0.000 
#
# Total GULP energy -89181.237699 kJ/mol
# GULP energy per Si atom -5573.827356 kJ/mol
# Density = 2.307512 g / cm^3
# Si number density = 23.127758 Si / 1000 Ang^3
#
#
#
# Elastic Constant Matrix: (Units=GPa)
#
#
# Indices 1 2 3 4 5 6 
#
# 1 127.0295 20.5571 24.2043 0.0000 0.0000 0.0000
# 2 20.5571 99.3496 45.4591 0.0000 0.0000 0.0000
# 3 24.2043 45.4591 133.1936 0.0000 0.0000 0.0000
# 4 0.0000 0.0000 0.0000 -49.1764 0.0000 0.0000
# 5 0.0000 0.0000 0.0000 0.0000 78.0421 0.0000
# 6 0.0000 0.0000 0.0000 0.0000 0.0000 34.9254
#
#
#
# Elastic Compliance Matrix: (Units=1/GPa)
#
#
# Indices 1 2 3 4 5 6 
#
# 1 0.008276 -0.001214 -0.001090 0.000000 0.000000 0.000000
# 2 -0.001214 0.012106 -0.003911 0.000000 0.000000 0.000000
# 3 -0.001090 -0.003911 0.009041 0.000000 0.000000 0.000000
# 4 0.000000 0.000000 0.000000 -0.020335 0.000000 0.000000
# 5 0.000000 0.000000 0.000000 0.000000 0.012814 0.000000
# 6 0.000000 0.000000 0.000000 0.000000 0.000000 0.028632
#
#
# Mechanical properties :
#
#
# Convention : Reuss Voigt Hill
#
# Bulk Modulus (GPa) = 58.84556 60.00154 59.42355
# Shear Modulus (GPa) = 72.85568 30.71503 51.78535
#
# Velocity S-wave (km/s) = 5.61870 3.64821 4.73705
# Velocity P-wave (km/s) = 8.22143 6.61406 7.46116
#
# Compressibility (1/GPa) = 0.01699363
#
# Stress axis : x y z
#
# Youngs Moduli (GPa) = 120.82754 82.60142 110.60939
#
# Poissons Ratio (x) = 0.10027 0.12053
# Poissons Ratio (y) = 0.14667 0.43263
# Poissons Ratio (z) = 0.13166 0.32308
#
# Static dielectric constant tensor:
#      x y z
#    x 1.677330 0.000000 0.000000 
#    y 0.000000 1.991960 0.000000 
#    z 0.000000 0.000000 1.930780 
# 
# From -- ./inp_files/1962.got.cif
#   From: 2010.05.17/outbox.cif.g08.bks.cpg/sg43_1_cif.got.tgz:1962.got - 2010.06.03 19:21:55.
