data_PCOD9372680
_publ_section_title
;
Structure prediction by ZEFSAII (Michael W. Deem and Ramdas Pophale) SiO2 
 PCOD9372680
Probable space group: F D D 2
;
_chemical_formula_sum "Si O2"
_cell_formula_units_Z 120
_cell_length_a 8.354071
_cell_length_b 23.415261
_cell_length_c 27.519906
_cell_angle_alpha 90.000000
_cell_angle_beta 90.000000
_cell_angle_gamma 90.000000
_cell_volume 5383.244572
_symmetry_space_group_name_H-M "F D D 2"
_symmetry_group_IT_number 43
_symmetry_cell_setting 'orthorhombic'
loop_
_space_group_symop_operation_xyz
x,y,z
-x,-y,z
1/4-x,1/4+y,1/4+z
1/4+x,1/4-y,1/4+z
x,1/2+y,1/2+z
-x,1/2-y,1/2+z
1/4-x,3/4+y,3/4+z
1/4+x,3/4-y,3/4+z
1/2+x,y,1/2+z
1/2-x,-y,1/2+z
3/4-x,1/4+y,3/4+z
3/4+x,1/4-y,3/4+z
1/2+x,1/2+y,z
1/2-x,1/2-y,z
3/4-x,3/4+y,1/4+z
3/4+x,3/4-y,1/4+z
loop_
_atom_site_type_symbol
_atom_site_label
_atom_site_fract_x
_atom_site_fract_y
_atom_site_fract_z
Si Si1 0.141047 0.644929 0.590410
Si Si2 0.168309 0.534117 0.203518
Si Si3 0.969374 0.350106 0.244674
Si Si4 0.229896 0.183800 0.188141
Si Si5 0.135348 0.038706 0.281446
Si Si6 0.250000 0.250000 0.750721
Si Si7 0.103811 0.445836 0.616234
Si Si8 0.497245 0.336011 0.267817
O O1 0.234660 0.605753 0.551642
O O2 0.250611 0.671104 0.631704
O O3 0.041618 0.693073 0.561729
O O4 0.010174 0.608681 0.620292
O O5 0.132758 0.594085 0.230717
O O6 0.293966 0.495226 0.234571
O O7 0.244184 0.551159 0.151510
O O8 0.000000 0.500000 0.199173
O O9 0.889739 0.289908 0.228157
O O10 0.140235 0.352737 0.217598
O O11 0.250000 0.250000 0.197256
O O12 0.058692 0.172670 0.212821
O O13 0.035698 0.097182 0.273946
O O14 0.000000 0.000000 0.306411
O O15 0.337806 0.196901 0.776783
O O16 0.140386 0.444783 0.558740
O O17 0.000000 0.500000 0.629100
#
# Coordination Sequence:
#
# PCOD9372680 Si02
#       8
#    16  16  16  16  16   8  16  16
#     4  11  27  47  76 106 145 198 255 298 383 446
#     4  12  26  43  77 113 153 192 252 307 382 442
#     4  12  26  50  74 109 156 193 251 315 372 454
#     4  12  25  48  76  99 146 204 244 296 382 457
#     4  11  24  49  76 102 149 194 241 310 375 445
#     4  12  26  42  74 104 146 190 246 304 368 422
#     4  11  25  43  74 104 142 193 248 303 370 442
#     4  11  24  49  69 106 146 193 245 310 370 437
#
# _framework density 22.291388000000001
#
# number of rings (size 3 to 8) (size 9 to 14) (size 15 to 20)
#    0.000    0.533    5.333    2.400   10.267    1.067 
#    6.000    0.000    0.000    0.000    0.000    0.000 
#    0.000    0.000    0.000    0.000    0.000    0.000 
#
# Total GULP energy -167280.049147 kJ/mol
# GULP energy per Si atom -5576.001638 kJ/mol
# Density = 2.224065 g / cm^3
# Si number density = 22.291388 Si / 1000 Ang^3
#
#
#
# Elastic Constant Matrix: (Units=GPa)
#
#
# Indices 1 2 3 4 5 6 
#
# 1 71.3781 34.4205 17.3162 0.0000 0.0000 0.0000
# 2 34.4205 95.7254 46.0097 0.0000 0.0000 0.0000
# 3 17.3162 46.0097 96.5867 0.0000 0.0000 0.0000
# 4 0.0000 0.0000 0.0000 44.4173 0.0000 0.0000
# 5 0.0000 0.0000 0.0000 0.0000 84.9745 0.0000
# 6 0.0000 0.0000 0.0000 0.0000 0.0000 36.2985
#
#
#
# Elastic Compliance Matrix: (Units=1/GPa)
#
#
# Indices 1 2 3 4 5 6 
#
# 1 0.016951 -0.006011 -0.000176 0.000000 0.000000 0.000000
# 2 -0.006011 0.015680 -0.006392 0.000000 0.000000 0.000000
# 3 -0.000176 -0.006392 0.013430 0.000000 0.000000 0.000000
# 4 0.000000 0.000000 0.000000 0.022514 0.000000 0.000000
# 5 0.000000 0.000000 0.000000 0.000000 0.011768 0.000000
# 6 0.000000 0.000000 0.000000 0.000000 0.000000 0.027549
#
#
# Mechanical properties :
#
#
# Convention : Reuss Voigt Hill
#
# Bulk Modulus (GPa) = 47.83683 51.02031 49.42857
# Shear Modulus (GPa) = 35.71014 44.20098 39.95556
#
# Velocity S-wave (km/s) = 4.00680 4.45778 4.23829
# Velocity P-wave (km/s) = 6.55075 7.03088 6.79506
#
# Compressibility (1/GPa) = 0.02090440
#
# Stress axis : x y z
#
# Youngs Moduli (GPa) = 58.99338 63.77579 74.46238
#
# Poissons Ratio (x) = 0.38334 0.01309
# Poissons Ratio (y) = 0.35459 0.47594
# Poissons Ratio (z) = 0.01037 0.40763
#
# Static dielectric constant tensor:
#      x y z
#    x 1.968900 0.000000 0.000000 
#    y 0.000000 1.849510 0.000000 
#    z 0.000000 0.000000 1.825850 
# 
# From -- ./inp_files/24467.got.cif
#   From: 2010.05.17/outbox.cif.g08.bks.cpg/sg43_13_cif.got.tgz:24467.got - 2010.06.03 19:21:55.
