data_PCOD9372883
_publ_section_title
;
Structure prediction by ZEFSAII (Michael W. Deem and Ramdas Pophale) SiO2 
 PCOD9372883
Probable space group: F D D 2
;
_chemical_formula_sum "Si O2"
_cell_formula_units_Z 56
_cell_length_a 7.421019
_cell_length_b 18.702688
_cell_length_c 14.338021
_cell_angle_alpha 90.000000
_cell_angle_beta 90.000000
_cell_angle_gamma 90.000000
_cell_volume 1990.016992
_symmetry_space_group_name_H-M "F D D 2"
_symmetry_group_IT_number 43
_symmetry_cell_setting 'orthorhombic'
loop_
_space_group_symop_operation_xyz
x,y,z
-x,-y,z
1/4-x,1/4+y,1/4+z
1/4+x,1/4-y,1/4+z
x,1/2+y,1/2+z
-x,1/2-y,1/2+z
1/4-x,3/4+y,3/4+z
1/4+x,3/4-y,3/4+z
1/2+x,y,1/2+z
1/2-x,-y,1/2+z
3/4-x,1/4+y,3/4+z
3/4+x,1/4-y,3/4+z
1/2+x,1/2+y,z
1/2-x,1/2-y,z
3/4-x,3/4+y,1/4+z
3/4+x,3/4-y,1/4+z
loop_
_atom_site_type_symbol
_atom_site_label
_atom_site_fract_x
_atom_site_fract_y
_atom_site_fract_z
Si Si1 0.909168 0.305984 0.401090
Si Si2 0.754234 0.320269 0.784215
Si Si3 0.105274 0.111310 0.502208
Si Si4 0.750000 0.750000 0.589390
O O1 0.750000 0.250000 0.425912
O O2 0.929729 0.360579 0.484997
O O3 0.819141 0.340774 0.309585
O O4 0.117920 0.301654 0.367236
O O5 0.750000 0.250000 0.719352
O O6 0.965316 0.331149 0.802546
O O7 0.128450 0.197343 0.523187
O O8 0.093627 0.058394 0.410578
#
# Coordination Sequence:
#
# PCOD9372883 Si02
#       4
#    16  16  16   8
#     4  12  26  47  78 112 161 205 278 337 414 500
#     4  12  26  48  77 113 159 214 269 340 421 494
#     4  12  25  53  79 123 165 228 276 358 421 535
#     4  12  28  52  90 116 176 216 294 348 440 500
#
# _framework density 28.140464000000001
#
# number of rings (size 3 to 8) (size 9 to 14) (size 15 to 20)
#    0.000    0.000    4.286    5.143    0.000    5.714 
#    5.143    0.000    0.000    0.000    0.000    0.000 
#    0.000    0.000    0.000    0.000    0.000    0.000 
#
# Total GULP energy -77989.856652 kJ/mol
# GULP energy per Si atom -5570.704047 kJ/mol
# Density = 2.807642 g / cm^3
# Si number density = 28.140464 Si / 1000 Ang^3
#
#
#
# Elastic Constant Matrix: (Units=GPa)
#
#
# Indices 1 2 3 4 5 6 
#
# 1 239.5800 38.6190 67.3623 0.0000 0.0000 0.0000
# 2 38.6190 149.5753 73.8984 0.0000 0.0000 0.0000
# 3 67.3623 73.8984 113.0892 0.0000 0.0000 0.0000
# 4 0.0000 0.0000 0.0000 101.7954 0.0000 0.0000
# 5 0.0000 0.0000 0.0000 0.0000 36.1992 0.0000
# 6 0.0000 0.0000 0.0000 0.0000 0.0000 -150.0020
#
#
#
# Elastic Compliance Matrix: (Units=1/GPa)
#
#
# Indices 1 2 3 4 5 6 
#
# 1 0.005021 0.000268 -0.003166 0.000000 0.000000 0.000000
# 2 0.000268 0.009887 -0.006620 0.000000 0.000000 0.000000
# 3 -0.003166 -0.006620 0.015054 0.000000 0.000000 0.000000
# 4 0.000000 0.000000 0.000000 0.009824 0.000000 0.000000
# 5 0.000000 0.000000 0.000000 0.000000 0.027625 0.000000
# 6 0.000000 0.000000 0.000000 0.000000 0.000000 -0.006667
#
#
# Mechanical properties :
#
#
# Convention : Reuss Voigt Hill
#
# Bulk Modulus (GPa) = 91.52579 95.77822 93.65201
# Shear Modulus (GPa) = 59.93556 19.08950 39.51253
#
# Velocity S-wave (km/s) = 4.62006 2.60737 3.75122
# Velocity P-wave (km/s) = 7.81378 6.57070 7.21905
#
# Compressibility (1/GPa) = 0.01092588
#
# Stress axis : x y z
#
# Youngs Moduli (GPa) = 199.16750 101.14001 66.42647
#
# Poissons Ratio (x) = -0.02707 0.21028
# Poissons Ratio (y) = -0.05330 0.43976
# Poissons Ratio (z) = 0.63049 0.66958
#
# Static dielectric constant tensor:
#      x y z
#    x 2.019600 0.000000 0.000000 
#    y 0.000000 2.482190 0.000000 
#    z 0.000000 0.000000 2.228920 
# 
# From -- ./inp_files/12388.got.cif
#   From: 2010.05.17/outbox.cif.g08.bks.cpg/sg43_7_cif.got.tgz:12388.got - 2010.06.03 19:21:55.
