data_PCOD9372059
_publ_section_title
;
Structure prediction by ZEFSAII (Michael W. Deem and Ramdas Pophale) SiO2 
 PCOD9372059
Probable space group: F D D 2
;
_chemical_formula_sum "Si O2"
_cell_formula_units_Z 88
_cell_length_a 10.766608
_cell_length_b 24.641539
_cell_length_c 16.594616
_cell_angle_alpha 90.000000
_cell_angle_beta 90.000000
_cell_angle_gamma 90.000000
_cell_volume 4402.647723
_symmetry_space_group_name_H-M "F D D 2"
_symmetry_group_IT_number 43
_symmetry_cell_setting 'orthorhombic'
loop_
_space_group_symop_operation_xyz
x,y,z
-x,-y,z
1/4-x,1/4+y,1/4+z
1/4+x,1/4-y,1/4+z
x,1/2+y,1/2+z
-x,1/2-y,1/2+z
1/4-x,3/4+y,3/4+z
1/4+x,3/4-y,3/4+z
1/2+x,y,1/2+z
1/2-x,-y,1/2+z
3/4-x,1/4+y,3/4+z
3/4+x,1/4-y,3/4+z
1/2+x,1/2+y,z
1/2-x,1/2-y,z
3/4-x,3/4+y,1/4+z
3/4+x,3/4-y,1/4+z
loop_
_atom_site_type_symbol
_atom_site_label
_atom_site_fract_x
_atom_site_fract_y
_atom_site_fract_z
Si Si1 0.405261 0.956311 0.686520
Si Si2 0.000000 0.000000 0.342320
Si Si3 0.292526 0.013663 0.959012
Si Si4 0.871892 0.778388 0.882111
Si Si5 0.354171 0.588445 0.884303
Si Si6 0.631557 0.366347 0.706900
O O1 0.427896 0.960373 0.781912
O O2 0.262479 0.971651 0.668655
O O3 0.447709 0.897482 0.658346
O O4 0.500000 0.000000 0.649274
O O5 0.099167 0.970595 0.397391
O O6 0.206106 0.065614 0.972774
O O7 0.219712 0.962838 0.919449
O O8 0.355900 0.001991 0.044759
O O9 0.750000 0.750000 0.919991
O O10 0.841437 0.842674 0.885632
O O11 0.364389 0.595688 0.787302
O O12 0.488124 0.591169 0.928034
#
# Coordination Sequence:
#
# PCOD9372059 Si02
#       6
#    16   8  16  16  16  16
#     4   9  22  46  67 101 136 180 240 287 347 430
#     4  10  24  44  64 100 142 174 240 282 358 428
#     4  12  23  43  69 100 146 180 229 301 356 420
#     4  11  24  45  68 102 138 179 239 288 354 424
#     4  11  24  41  73 101 138 186 240 289 357 433
#     4  11  24  45  66 106 140 184 239 290 353 439
#
# _framework density 19.987971999999999
#
# number of rings (size 3 to 8) (size 9 to 14) (size 15 to 20)
#    0.545    0.727    4.545    2.727    2.545    4.364 
#    3.273    0.000    0.000    0.000    0.000    0.000 
#    0.000    0.000    0.000    0.000    0.000    0.000 
#
# Total GULP energy -122468.192236 kJ/mol
# GULP energy per Si atom -5566.736011 kJ/mol
# Density = 1.994248 g / cm^3
# Si number density = 19.987972 Si / 1000 Ang^3
#
#
#
# Elastic Constant Matrix: (Units=GPa)
#
#
# Indices 1 2 3 4 5 6 
#
# 1 100.1605 52.0553 22.0561 0.0000 0.0000 0.0000
# 2 52.0553 99.4279 16.9040 0.0000 0.0000 0.0000
# 3 22.0561 16.9040 93.6178 0.0000 0.0000 0.0000
# 4 0.0000 0.0000 0.0000 32.6799 0.0000 0.0000
# 5 0.0000 0.0000 0.0000 0.0000 23.7888 0.0000
# 6 0.0000 0.0000 0.0000 0.0000 0.0000 22.3439
#
#
#
# Elastic Compliance Matrix: (Units=1/GPa)
#
#
# Indices 1 2 3 4 5 6 
#
# 1 0.014087 -0.007027 -0.002050 0.000000 0.000000 0.000000
# 2 -0.007027 0.013881 -0.000851 0.000000 0.000000 0.000000
# 3 -0.002050 -0.000851 0.011318 0.000000 0.000000 0.000000
# 4 0.000000 0.000000 0.000000 0.030600 0.000000 0.000000
# 5 0.000000 0.000000 0.000000 0.000000 0.042037 0.000000
# 6 0.000000 0.000000 0.000000 0.000000 0.000000 0.044755
#
#
# Mechanical properties :
#
#
# Convention : Reuss Voigt Hill
#
# Bulk Modulus (GPa) = 51.46411 52.80410 52.13411
# Shear Modulus (GPa) = 27.32074 29.24192 28.28133
#
# Velocity S-wave (km/s) = 3.70112 3.82904 3.76562
# Velocity P-wave (km/s) = 6.63836 6.78410 6.71162
#
# Compressibility (1/GPa) = 0.01943102
#
# Stress axis : x y z
#
# Youngs Moduli (GPa) = 70.98525 72.04035 88.35179
#
# Poissons Ratio (x) = 0.50622 0.18114
# Poissons Ratio (y) = 0.49881 0.07518
# Poissons Ratio (z) = 0.14553 0.06130
#
# Static dielectric constant tensor:
#      x y z
#    x 1.765310 0.000000 0.000000 
#    y 0.000000 1.708610 0.000000 
#    z 0.000000 0.000000 1.788670 
# 
# From -- ./inp_files/9590.got.cif
#   From: 2010.05.17/outbox.cif.g08.bks.cpg/sg43_5_cif.got.tgz:9590.got - 2010.06.03 19:21:55.
