data_PCOD9372140
_publ_section_title
;
Structure prediction by ZEFSAII (Michael W. Deem and Ramdas Pophale) SiO2 
 PCOD9372140
Probable space group: F D D 2
;
_chemical_formula_sum "Si O2"
_cell_formula_units_Z 72
_cell_length_a 14.389269
_cell_length_b 20.149217
_cell_length_c 9.512804
_cell_angle_alpha 90.000000
_cell_angle_beta 90.000000
_cell_angle_gamma 90.000000
_cell_volume 2758.071080
_symmetry_space_group_name_H-M "F D D 2"
_symmetry_group_IT_number 43
_symmetry_cell_setting 'orthorhombic'
loop_
_space_group_symop_operation_xyz
x,y,z
-x,-y,z
1/4-x,1/4+y,1/4+z
1/4+x,1/4-y,1/4+z
x,1/2+y,1/2+z
-x,1/2-y,1/2+z
1/4-x,3/4+y,3/4+z
1/4+x,3/4-y,3/4+z
1/2+x,y,1/2+z
1/2-x,-y,1/2+z
3/4-x,1/4+y,3/4+z
3/4+x,1/4-y,3/4+z
1/2+x,1/2+y,z
1/2-x,1/2-y,z
3/4-x,3/4+y,1/4+z
3/4+x,3/4-y,1/4+z
loop_
_atom_site_type_symbol
_atom_site_label
_atom_site_fract_x
_atom_site_fract_y
_atom_site_fract_z
Si Si1 0.177048 0.427637 0.347770
Si Si2 0.654473 0.996255 0.855898
Si Si3 0.718300 0.112001 0.421489
Si Si4 0.750000 0.250000 0.549490
Si Si5 0.000568 0.898595 0.362609
O O1 0.266218 0.462154 0.276868
O O2 0.129655 0.371338 0.251097
O O3 0.095095 0.480587 0.376191
O O4 0.211597 0.398442 0.493453
O O5 0.581596 0.050955 0.908237
O O6 0.716997 0.950522 0.959235
O O7 0.584342 0.941571 0.793597
O O8 0.764072 0.183276 0.459725
O O9 0.714129 0.112645 0.252414
#
# Coordination Sequence:
#
# PCOD9372140 Si02
#       5
#    16  16  16   8  16
#     4  10  25  47  72 121 159 218 281 344 417 512
#     4  11  25  45  78 113 161 220 276 348 412 506
#     4  10  24  46  76 110 159 218 278 336 427 492
#     4   8  22  48  72 116 156 222 276 342 426 502
#     4  11  25  46  74 121 158 214 285 344 420 509
#
# _framework density 26.1052
#
# number of rings (size 3 to 8) (size 9 to 14) (size 15 to 20)
#    1.333    0.444    0.000    2.667    3.111    7.111 
#    0.000    2.222    0.000    0.000    0.000    0.000 
#    0.000    0.000    0.000    0.000    0.000    0.000 
#
# Total GULP energy -100516.932673 kJ/mol
# GULP energy per Si atom -5584.274037 kJ/mol
# Density = 2.604578 g / cm^3
# Si number density = 26.105200 Si / 1000 Ang^3
#
#
#
# Elastic Constant Matrix: (Units=GPa)
#
#
# Indices 1 2 3 4 5 6 
#
# 1 210.0640 52.8828 58.7086 0.0000 0.0000 0.0000
# 2 52.8828 114.2570 49.7787 0.0000 0.0000 0.0000
# 3 58.7086 49.7787 135.9049 0.0000 0.0000 0.0000
# 4 0.0000 0.0000 0.0000 14.5852 0.0000 0.0000
# 5 0.0000 0.0000 0.0000 0.0000 19.2292 0.0000
# 6 0.0000 0.0000 0.0000 0.0000 0.0000 75.3139
#
#
#
# Elastic Compliance Matrix: (Units=1/GPa)
#
#
# Indices 1 2 3 4 5 6 
#
# 1 0.005732 -0.001873 -0.001790 0.000000 0.000000 0.000000
# 2 -0.001873 0.011026 -0.003229 0.000000 0.000000 0.000000
# 3 -0.001790 -0.003229 0.009314 0.000000 0.000000 0.000000
# 4 0.000000 0.000000 0.000000 0.068563 0.000000 0.000000
# 5 0.000000 0.000000 0.000000 0.000000 0.052004 0.000000
# 6 0.000000 0.000000 0.000000 0.000000 0.000000 0.013278
#
#
# Mechanical properties :
#
#
# Convention : Reuss Voigt Hill
#
# Bulk Modulus (GPa) = 81.38572 86.99622 84.19097
# Shear Modulus (GPa) = 28.12167 41.74938 34.93553
#
# Velocity S-wave (km/s) = 3.28570 4.00343 3.66219
# Velocity P-wave (km/s) = 6.75560 7.40051 7.08540
#
# Compressibility (1/GPa) = 0.01228717
#
# Stress axis : x y z
#
# Youngs Moduli (GPa) = 174.44864 90.69323 107.36227
#
# Poissons Ratio (x) = 0.16989 0.19219
# Poissons Ratio (y) = 0.32678 0.34672
# Poissons Ratio (z) = 0.31229 0.29289
#
# Static dielectric constant tensor:
#      x y z
#    x 2.106630 0.000000 0.000000 
#    y 0.000000 2.103230 0.000000 
#    z 0.000000 0.000000 2.032670 
# 
# From -- ./inp_files/6018.got.cif
#   From: 2010.05.17/outbox.cif.g08.bks.cpg/sg43_4_cif.got.tgz:6018.got - 2010.06.03 19:21:55.
