data_PCOD9372620
_publ_section_title
;
Structure prediction by ZEFSAII (Michael W. Deem and Ramdas Pophale) SiO2 
 PCOD9372620
Probable space group: F D D 2
;
_chemical_formula_sum "Si O2"
_cell_formula_units_Z 112
_cell_length_a 16.370427
_cell_length_b 13.133419
_cell_length_c 23.329530
_cell_angle_alpha 90.000000
_cell_angle_beta 90.000000
_cell_angle_gamma 90.000000
_cell_volume 5015.841415
_symmetry_space_group_name_H-M "F D D 2"
_symmetry_group_IT_number 43
_symmetry_cell_setting 'orthorhombic'
loop_
_space_group_symop_operation_xyz
x,y,z
-x,-y,z
1/4-x,1/4+y,1/4+z
1/4+x,1/4-y,1/4+z
x,1/2+y,1/2+z
-x,1/2-y,1/2+z
1/4-x,3/4+y,3/4+z
1/4+x,3/4-y,3/4+z
1/2+x,y,1/2+z
1/2-x,-y,1/2+z
3/4-x,1/4+y,3/4+z
3/4+x,1/4-y,3/4+z
1/2+x,1/2+y,z
1/2-x,1/2-y,z
3/4-x,3/4+y,1/4+z
3/4+x,3/4-y,1/4+z
loop_
_atom_site_type_symbol
_atom_site_label
_atom_site_fract_x
_atom_site_fract_y
_atom_site_fract_z
Si Si1 0.103063 0.763732 0.979730
Si Si2 0.097151 0.524656 0.606680
Si Si3 0.346882 0.726223 0.258637
Si Si4 0.830817 0.195802 0.090681
Si Si5 0.390653 0.558091 0.638168
Si Si6 0.566057 0.655940 0.662255
Si Si7 0.548872 0.104664 0.490868
O O1 0.121947 0.813368 0.917972
O O2 0.016017 0.805812 0.000816
O O3 0.105043 0.642209 0.989812
O O4 0.171022 0.805704 0.022581
O O5 0.147657 0.418989 0.605525
O O6 0.105992 0.589938 0.547906
O O7 0.000000 0.500000 0.611848
O O8 0.250000 0.750000 0.249861
O O9 0.367009 0.769217 0.322551
O O10 0.413070 0.781660 0.218651
O O11 0.750000 0.250000 0.114257
O O12 0.901568 0.271353 0.112059
O O13 0.477319 0.614647 0.645790
O O14 0.385091 0.449150 0.669703
O O15 0.333713 0.627885 0.677361
O O16 0.500000 0.000000 0.490047
#
# Coordination Sequence:
#
# PCOD9372620 Si02
#       7
#    16  16  16  16  16  16  16
#     4  12  24  44  78 106 141 201 258 320 384 460
#     4  11  25  48  70 108 154 199 250 324 390 451
#     4  12  23  45  75 108 146 189 256 327 381 449
#     4  12  24  43  73 109 142 183 259 324 375 454
#     4  11  25  46  69 102 150 196 242 307 394 471
#     4  11  24  45  70 106 146 188 247 316 387 455
#     4  11  26  50  68 102 157 203 249 303 397 486
#
# _framework density 22.329253999999999
#
# number of rings (size 3 to 8) (size 9 to 14) (size 15 to 20)
#    0.000    0.571    7.143    1.714    2.000    3.429 
#    7.714    0.000    0.000    0.000    0.000    0.000 
#    0.000    0.000    0.000    0.000    0.000    0.000 
#
# Total GULP energy -156022.611692 kJ/mol
# GULP energy per Si atom -5572.236132 kJ/mol
# Density = 2.227843 g / cm^3
# Si number density = 22.329254 Si / 1000 Ang^3
#
#
#
# Elastic Constant Matrix: (Units=GPa)
#
#
# Indices 1 2 3 4 5 6 
#
# 1 38.9157 15.4171 43.7030 0.0000 0.0000 0.0000
# 2 15.4171 83.3147 61.4882 0.0000 0.0000 0.0000
# 3 43.7030 61.4882 151.3263 0.0000 0.0000 0.0000
# 4 0.0000 0.0000 0.0000 32.1505 0.0000 0.0000
# 5 0.0000 0.0000 0.0000 0.0000 26.4009 0.0000
# 6 0.0000 0.0000 0.0000 0.0000 0.0000 30.4457
#
#
#
# Elastic Compliance Matrix: (Units=1/GPa)
#
#
# Indices 1 2 3 4 5 6 
#
# 1 0.038167 0.001532 -0.011645 0.000000 0.000000 0.000000
# 2 0.001532 0.017205 -0.007433 0.000000 0.000000 0.000000
# 3 -0.011645 -0.007433 0.012992 0.000000 0.000000 0.000000
# 4 0.000000 0.000000 0.000000 0.031104 0.000000 0.000000
# 5 0.000000 0.000000 0.000000 0.000000 0.037878 0.000000
# 6 0.000000 0.000000 0.000000 0.000000 0.000000 0.032845
#
#
# Mechanical properties :
#
#
# Convention : Reuss Voigt Hill
#
# Bulk Modulus (GPa) = 30.05639 57.19701 43.62670
# Shear Modulus (GPa) = 23.10806 27.99598 25.55202
#
# Velocity S-wave (km/s) = 3.22044 3.54472 3.38646
# Velocity P-wave (km/s) = 5.22667 6.51339 5.90518
#
# Compressibility (1/GPa) = 0.03327079
#
# Stress axis : x y z
#
# Youngs Moduli (GPa) = 26.20035 58.12193 76.97228
#
# Poissons Ratio (x) = -0.08902 0.89635
# Poissons Ratio (y) = -0.04013 0.57216
# Poissons Ratio (z) = 0.30510 0.43204
#
# Static dielectric constant tensor:
#      x y z
#    x 1.910330 0.000000 0.000000 
#    y 0.000000 1.781410 0.000000 
#    z 0.000000 0.000000 1.923420 
# 
# From -- ./inp_files/22414.got.cif
#   From: 2010.05.17/outbox.cif.g08.bks.cpg/sg43_12_cif.got.tgz:22414.got - 2010.06.03 19:21:55.
