data_PCOD9372507
_publ_section_title
;
Structure prediction by ZEFSAII (Michael W. Deem and Ramdas Pophale) SiO2 
 PCOD9372507
Probable space group: F D D 2
;
_chemical_formula_sum "Si O2"
_cell_formula_units_Z 112
_cell_length_a 5.125096
_cell_length_b 31.698888
_cell_length_c 29.122008
_cell_angle_alpha 90.000000
_cell_angle_beta 90.000000
_cell_angle_gamma 90.000000
_cell_volume 4731.156879
_symmetry_space_group_name_H-M "F D D 2"
_symmetry_group_IT_number 43
_symmetry_cell_setting 'orthorhombic'
loop_
_space_group_symop_operation_xyz
x,y,z
-x,-y,z
1/4-x,1/4+y,1/4+z
1/4+x,1/4-y,1/4+z
x,1/2+y,1/2+z
-x,1/2-y,1/2+z
1/4-x,3/4+y,3/4+z
1/4+x,3/4-y,3/4+z
1/2+x,y,1/2+z
1/2-x,-y,1/2+z
3/4-x,1/4+y,3/4+z
3/4+x,1/4-y,3/4+z
1/2+x,1/2+y,z
1/2-x,1/2-y,z
3/4-x,3/4+y,1/4+z
3/4+x,3/4-y,1/4+z
loop_
_atom_site_type_symbol
_atom_site_label
_atom_site_fract_x
_atom_site_fract_y
_atom_site_fract_z
Si Si1 0.129871 0.206119 0.234070
Si Si2 0.069902 0.840902 0.521644
Si Si3 0.573906 0.793513 0.546950
Si Si4 0.561956 0.156578 0.354903
Si Si5 0.182520 0.459883 0.587741
Si Si6 0.799831 0.200689 0.148035
Si Si7 0.946244 0.138773 0.691417
O O1 0.250000 0.250000 0.217033
O O2 0.014862 0.216003 0.283427
O O3 0.336076 0.168773 0.231692
O O4 0.936040 0.190524 0.195570
O O5 0.283167 0.802688 0.528135
O O6 0.108587 0.873938 0.564013
O O7 0.115959 0.859501 0.471112
O O8 0.772536 0.826087 0.524176
O O9 0.750000 0.750000 0.544601
O O10 0.552283 0.805446 0.600786
O O11 0.277250 0.172902 0.341734
O O12 0.530548 0.139990 0.407132
O O13 0.789995 0.193165 0.356841
O O14 0.000000 0.500000 0.603411
O O15 0.750000 0.250000 0.149772
O O16 0.551667 0.171313 0.152679
#
# Coordination Sequence:
#
# PCOD9372507 Si02
#       7
#    16  16  16  16  16  16  16
#     4  11  23  39  66 101 136 174 219 283 350 422
#     4  12  25  46  68 105 138 178 228 286 341 411
#     4  11  26  47  71  95 140 187 230 276 347 409
#     4  12  25  46  68 105 138 178 228 286 341 411
#     4  11  26  47  71  95 140 187 230 276 347 409
#     4  11  23  39  66 101 136 174 219 283 350 422
#     4  12  26  40  69 100 136 174 226 284 349 396
#
# _framework density 23.672858000000002
#
# number of rings (size 3 to 8) (size 9 to 14) (size 15 to 20)
#    0.000    0.571    4.286    3.429    4.000    0.000 
#    0.000    4.286    0.000    0.000    0.000    0.000 
#    0.000    0.000    0.000    0.000    0.000    0.000 
#
# Total GULP energy -156172.339451 kJ/mol
# GULP energy per Si atom -5577.583552 kJ/mol
# Density = 2.361898 g / cm^3
# Si number density = 23.672858 Si / 1000 Ang^3
#
#
#
# Elastic Constant Matrix: (Units=GPa)
#
#
# Indices 1 2 3 4 5 6 
#
# 1 88.8730 8.4156 5.1921 0.0000 0.0000 0.0000
# 2 8.4156 52.2870 20.1045 0.0000 0.0000 0.0000
# 3 5.1921 20.1045 68.7899 0.0000 0.0000 0.0000
# 4 0.0000 0.0000 0.0000 73.5122 0.0000 0.0000
# 5 0.0000 0.0000 0.0000 0.0000 42.2241 0.0000
# 6 0.0000 0.0000 0.0000 0.0000 0.0000 34.5498
#
#
#
# Elastic Compliance Matrix: (Units=1/GPa)
#
#
# Indices 1 2 3 4 5 6 
#
# 1 0.011434 -0.001700 -0.000366 0.000000 0.000000 0.000000
# 2 -0.001700 0.021799 -0.006243 0.000000 0.000000 0.000000
# 3 -0.000366 -0.006243 0.016389 0.000000 0.000000 0.000000
# 4 0.000000 0.000000 0.000000 0.013603 0.000000 0.000000
# 5 0.000000 0.000000 0.000000 0.000000 0.023683 0.000000
# 6 0.000000 0.000000 0.000000 0.000000 0.000000 0.028944
#
#
# Mechanical properties :
#
#
# Convention : Reuss Voigt Hill
#
# Bulk Modulus (GPa) = 30.29801 30.81938 30.55870
# Shear Modulus (GPa) = 34.85008 41.80639 38.32824
#
# Velocity S-wave (km/s) = 3.84103 4.20695 4.02814
# Velocity P-wave (km/s) = 5.70068 6.05351 5.87974
#
# Compressibility (1/GPa) = 0.03300547
#
# Stress axis : x y z
#
# Youngs Moduli (GPa) = 87.45584 45.87343 61.01595
#
# Poissons Ratio (x) = 0.07796 0.02235
# Poissons Ratio (y) = 0.14863 0.38091
# Poissons Ratio (z) = 0.03204 0.28638
#
# Static dielectric constant tensor:
#      x y z
#    x 1.728110 0.000000 0.000000 
#    y 0.000000 1.869680 0.000000 
#    z 0.000000 0.000000 1.941310 
# 
# From -- ./inp_files/27415.got.cif
#   From: 2010.05.17/outbox.cif.g08.bks.cpg/sg43_14_cif.got.tgz:27415.got - 2010.06.03 19:21:55.
