data_PCOD9372253
_publ_section_title
;
Structure prediction by ZEFSAII (Michael W. Deem and Ramdas Pophale) SiO2 
 PCOD9372253
Probable space group: F D D 2
;
_chemical_formula_sum "Si O2"
_cell_formula_units_Z 56
_cell_length_a 27.378087
_cell_length_b 15.449494
_cell_length_c 6.483787
_cell_angle_alpha 90.000000
_cell_angle_beta 90.000000
_cell_angle_gamma 90.000000
_cell_volume 2742.496605
_symmetry_space_group_name_H-M "F D D 2"
_symmetry_group_IT_number 43
_symmetry_cell_setting 'orthorhombic'
loop_
_space_group_symop_operation_xyz
x,y,z
-x,-y,z
1/4-x,1/4+y,1/4+z
1/4+x,1/4-y,1/4+z
x,1/2+y,1/2+z
-x,1/2-y,1/2+z
1/4-x,3/4+y,3/4+z
1/4+x,3/4-y,3/4+z
1/2+x,y,1/2+z
1/2-x,-y,1/2+z
3/4-x,1/4+y,3/4+z
3/4+x,1/4-y,3/4+z
1/2+x,1/2+y,z
1/2-x,1/2-y,z
3/4-x,3/4+y,1/4+z
3/4+x,3/4-y,1/4+z
loop_
_atom_site_type_symbol
_atom_site_label
_atom_site_fract_x
_atom_site_fract_y
_atom_site_fract_z
Si Si1 0.523660 0.858603 0.786470
Si Si2 0.000000 0.000000 0.614554
Si Si3 0.433161 0.750272 0.627741
Si Si4 0.577241 0.421673 0.898168
O O1 0.480623 0.807583 0.673272
O O2 0.553774 0.915662 0.624277
O O3 0.559552 0.792171 0.902975
O O4 0.500138 0.917386 0.965398
O O5 0.953124 0.009746 0.761379
O O6 0.430362 0.671511 0.790631
O O7 0.383755 0.804200 0.646493
#
# Coordination Sequence:
#
# PCOD9372253 Si02
#       4
#    16   8  16  16
#     4  11  24  47  67 100 140 177 226 290 332 415
#     4  10  26  44  68 100 132 182 226 278 342 400
#     4  11  26  43  70  99 136 180 228 277 353 398
#     4  11  26  43  70 101 135 183 226 286 336 418
#
# _framework density 20.419350999999999
#
# number of rings (size 3 to 8) (size 9 to 14) (size 15 to 20)
#    0.000    1.143    2.857    0.857   12.000    2.286 
#    0.000    0.000    0.000    0.000    0.000    0.000 
#    0.000    0.000    0.000    0.000    0.000    0.000 
#
# Total GULP energy -78306.483192 kJ/mol
# GULP energy per Si atom -5593.320228 kJ/mol
# Density = 2.037288 g / cm^3
# Si number density = 20.419351 Si / 1000 Ang^3
#
#
#
# Elastic Constant Matrix: (Units=GPa)
#
#
# Indices 1 2 3 4 5 6 
#
# 1 121.8726 36.7365 48.8041 0.0000 0.0000 0.0000
# 2 36.7365 51.3890 28.4270 0.0000 0.0000 0.0000
# 3 48.8041 28.4270 121.6369 0.0000 0.0000 0.0000
# 4 0.0000 0.0000 0.0000 30.4235 0.0000 0.0000
# 5 0.0000 0.0000 0.0000 0.0000 23.2501 0.0000
# 6 0.0000 0.0000 0.0000 0.0000 0.0000 37.5822
#
#
#
# Elastic Compliance Matrix: (Units=1/GPa)
#
#
# Indices 1 2 3 4 5 6 
#
# 1 0.011370 -0.006437 -0.003058 0.000000 0.000000 0.000000
# 2 -0.006437 0.025992 -0.003492 0.000000 0.000000 0.000000
# 3 -0.003058 -0.003492 0.010264 0.000000 0.000000 0.000000
# 4 0.000000 0.000000 0.000000 0.032869 0.000000 0.000000
# 5 0.000000 0.000000 0.000000 0.000000 0.043011 0.000000
# 6 0.000000 0.000000 0.000000 0.000000 0.000000 0.026608
#
#
# Mechanical properties :
#
#
# Convention : Reuss Voigt Hill
#
# Bulk Modulus (GPa) = 46.18100 58.09263 52.13681
# Shear Modulus (GPa) = 27.27691 30.31322 28.79506
#
# Velocity S-wave (km/s) = 3.65887 3.85714 3.75932
# Velocity P-wave (km/s) = 6.36516 6.95329 6.66571
#
# Compressibility (1/GPa) = 0.02165393
#
# Stress axis : x y z
#
# Youngs Moduli (GPa) = 87.95107 38.47278 97.42688
#
# Poissons Ratio (x) = 0.24763 0.29790
# Poissons Ratio (y) = 0.56611 0.34021
# Poissons Ratio (z) = 0.26893 0.13435
#
# Static dielectric constant tensor:
#      x y z
#    x 1.668770 0.000000 0.000000 
#    y 0.000000 1.731640 0.000000 
#    z 0.000000 0.000000 1.729700 
# 
# From -- ./inp_files/311.got.cif
#   From: 2010.05.17/outbox.cif.g08.bks.cpg/sg43_1_cif.got.tgz:311.got - 2010.06.03 19:21:55.
