data_PCOD9372556
_publ_section_title
;
Structure prediction by ZEFSAII (Michael W. Deem and Ramdas Pophale) SiO2 
 PCOD9372556
Probable space group: F D D 2
;
_chemical_formula_sum "Si O2"
_cell_formula_units_Z 80
_cell_length_a 22.941043
_cell_length_b 5.815969
_cell_length_c 25.839423
_cell_angle_alpha 90.000000
_cell_angle_beta 90.000000
_cell_angle_gamma 90.000000
_cell_volume 3447.609379
_symmetry_space_group_name_H-M "F D D 2"
_symmetry_group_IT_number 43
_symmetry_cell_setting 'orthorhombic'
loop_
_space_group_symop_operation_xyz
x,y,z
-x,-y,z
1/4-x,1/4+y,1/4+z
1/4+x,1/4-y,1/4+z
x,1/2+y,1/2+z
-x,1/2-y,1/2+z
1/4-x,3/4+y,3/4+z
1/4+x,3/4-y,3/4+z
1/2+x,y,1/2+z
1/2-x,-y,1/2+z
3/4-x,1/4+y,3/4+z
3/4+x,1/4-y,3/4+z
1/2+x,1/2+y,z
1/2-x,1/2-y,z
3/4-x,3/4+y,1/4+z
3/4+x,3/4-y,1/4+z
loop_
_atom_site_type_symbol
_atom_site_label
_atom_site_fract_x
_atom_site_fract_y
_atom_site_fract_z
Si Si1 0.250000 0.750000 0.071890
Si Si2 0.872363 0.625753 0.782219
Si Si3 0.500000 0.500000 0.877802
Si Si4 0.862476 0.357139 0.680934
Si Si5 0.562157 0.031417 0.225796
Si Si6 0.693895 0.089703 0.873425
O O1 0.312320 0.773163 0.042372
O O2 0.254866 0.503971 0.101524
O O3 0.847463 0.513511 0.730071
O O4 0.889439 0.884235 0.766273
O O5 0.827476 0.583348 0.828623
O O6 0.442691 0.469587 0.912365
O O7 0.888070 0.500323 0.633436
O O8 0.914186 0.193564 0.698983
O O9 0.550236 0.210079 0.178687
O O10 0.500000 0.000000 0.252256
O O11 0.750000 0.250000 0.862313
#
# Coordination Sequence:
#
# PCOD9372556 Si02
#       6
#     8  16   8  16  16  16
#     4  12  26  48  76 105 148 197 258 308 366 460
#     4  11  26  42  71 110 139 190 249 309 371 449
#     4  12  28  48  74 103 152 201 242 312 382 446
#     4  11  25  46  69 101 147 191 240 307 373 444
#     4  11  23  44  73 102 143 191 246 308 371 450
#     4  11  23  46  69 102 143 188 242 304 374 447
#
# _framework density 23.204485999999999
#
# number of rings (size 3 to 8) (size 9 to 14) (size 15 to 20)
#    0.000    0.800    4.000    2.400   11.200    1.600 
#    0.000    0.000    0.000    0.000    0.000    0.000 
#    0.000    0.000    0.000    0.000    0.000    0.000 
#
# Total GULP energy -111729.512473 kJ/mol
# GULP energy per Si atom -5586.475624 kJ/mol
# Density = 2.315167 g / cm^3
# Si number density = 23.204486 Si / 1000 Ang^3
#
#
#
# Elastic Constant Matrix: (Units=GPa)
#
#
# Indices 1 2 3 4 5 6 
#
# 1 65.8437 -0.0719 29.2509 0.0027 -0.0002 -0.0006
# 2 -0.0719 70.6735 23.7060 0.0082 -0.0003 -0.0024
# 3 29.2509 23.7060 84.6799 0.0011 -0.0001 -0.0002
# 4 0.0027 0.0082 0.0011 -26.4390 -0.0004 -0.0028
# 5 -0.0002 -0.0003 -0.0001 -0.0004 38.6526 0.0001
# 6 -0.0006 -0.0024 -0.0002 -0.0028 0.0001 36.2508
#
#
#
# Elastic Compliance Matrix: (Units=1/GPa)
#
#
# Indices 1 2 3 4 5 6 
#
# 1 0.018290 0.002359 -0.006978 0.000002 0.000000 0.000000
# 2 0.002359 0.015920 -0.005272 0.000005 0.000000 0.000001
# 3 -0.006978 -0.005272 0.015696 -0.000002 0.000000 0.000000
# 4 0.000002 0.000005 -0.000002 -0.037823 0.000000 -0.000003
# 5 0.000000 0.000000 0.000000 0.000000 0.025871 0.000000
# 6 0.000000 0.000001 0.000000 -0.000003 0.000000 0.027586
#
#
# Mechanical properties :
#
#
# Convention : Reuss Voigt Hill
#
# Bulk Modulus (GPa) = 33.19586 36.32968 34.76277
# Shear Modulus (GPa) = 52.43088 20.91369 36.67229
#
# Velocity S-wave (km/s) = 4.75859 3.00539 3.97973
# Velocity P-wave (km/s) = 6.67301 5.26625 6.01093
#
# Compressibility (1/GPa) = 0.03012424
#
# Stress axis : x y z
#
# Youngs Moduli (GPa) = 54.67401 62.81283 63.71212
#
# Poissons Ratio (x) = -0.14820 0.44461
# Poissons Ratio (y) = -0.12900 0.33588
# Poissons Ratio (z) = 0.38154 0.33114
#
# Static dielectric constant tensor:
#      x y z
#    x 1.853050 0.000000 0.000000 
#    y 0.000000 1.985560 0.000000 
#    z 0.000000 0.000000 1.869150 
# 
# From -- ./inp_files/23574.got.cif
#   From: 2010.05.17/outbox.cif.g08.bks.cpg/sg43_12_cif.got.tgz:23574.got - 2010.06.03 19:21:55.
