data_PCOD9372379
_publ_section_title
;
Structure prediction by ZEFSAII (Michael W. Deem and Ramdas Pophale) SiO2 
 PCOD9372379
Probable space group: F D D 2
;
_chemical_formula_sum "Si O2"
_cell_formula_units_Z 96
_cell_length_a 8.823501
_cell_length_b 30.068761
_cell_length_c 18.403332
_cell_angle_alpha 90.000000
_cell_angle_beta 90.000000
_cell_angle_gamma 90.000000
_cell_volume 4882.620085
_symmetry_space_group_name_H-M "F D D 2"
_symmetry_group_IT_number 43
_symmetry_cell_setting 'orthorhombic'
loop_
_space_group_symop_operation_xyz
x,y,z
-x,-y,z
1/4-x,1/4+y,1/4+z
1/4+x,1/4-y,1/4+z
x,1/2+y,1/2+z
-x,1/2-y,1/2+z
1/4-x,3/4+y,3/4+z
1/4+x,3/4-y,3/4+z
1/2+x,y,1/2+z
1/2-x,-y,1/2+z
3/4-x,1/4+y,3/4+z
3/4+x,1/4-y,3/4+z
1/2+x,1/2+y,z
1/2-x,1/2-y,z
3/4-x,3/4+y,1/4+z
3/4+x,3/4-y,1/4+z
loop_
_atom_site_type_symbol
_atom_site_label
_atom_site_fract_x
_atom_site_fract_y
_atom_site_fract_z
Si Si1 0.106388 0.964358 0.176350
Si Si2 0.375793 0.117084 0.082595
Si Si3 0.126997 0.469626 0.158694
Si Si4 0.819910 0.704135 0.578606
Si Si5 0.931645 0.547613 0.318944
Si Si6 0.696875 0.120935 0.162961
O O1 0.186925 0.919910 0.148202
O O2 0.008808 0.950993 0.248044
O O3 0.249198 0.996462 0.190467
O O4 0.000000 0.000000 0.133360
O O5 0.307389 0.069647 0.108707
O O6 0.269455 0.159543 0.100782
O O7 0.535377 0.116370 0.124042
O O8 0.417232 0.121503 0.998123
O O9 0.050508 0.449784 0.231307
O O10 0.000000 0.500000 0.119783
O O11 0.750000 0.750000 0.607488
O O12 0.768072 0.664179 0.627823
O O13 0.001481 0.702942 0.579960
O O14 0.000000 0.500000 0.342585
#
# Coordination Sequence:
#
# PCOD9372379 Si02
#       6
#    16  16  16  16  16  16
#     4  11  22  41  69  96 131 184 232 284 356 427
#     4  12  24  41  68 101 135 179 228 291 355 419
#     4  11  21  40  67  95 130 179 227 278 339 425
#     4  11  23  41  68  96 131 179 229 280 348 419
#     4  11  22  41  68  96 126 175 233 278 335 423
#     4  12  24  43  66  98 137 177 234 290 353 424
#
# _framework density 19.661574999999999
#
# number of rings (size 3 to 8) (size 9 to 14) (size 15 to 20)
#    0.000    0.667    8.333    2.000    2.333    0.667 
#    0.000    0.000    0.000    0.000    0.000    0.000 
#    0.000    0.000    0.000    0.000    0.000    0.000 
#
# Total GULP energy -133704.249418 kJ/mol
# GULP energy per Si atom -5571.010392 kJ/mol
# Density = 1.961682 g / cm^3
# Si number density = 19.661575 Si / 1000 Ang^3
#
#
#
# Elastic Constant Matrix: (Units=GPa)
#
#
# Indices 1 2 3 4 5 6 
#
# 1 147.7482 71.9837 30.6488 0.0000 0.0000 0.0000
# 2 71.9837 181.5419 31.5480 0.0000 0.0000 0.0000
# 3 30.6488 31.5480 46.4878 0.0000 0.0000 0.0000
# 4 0.0000 0.0000 0.0000 30.3562 0.0000 0.0000
# 5 0.0000 0.0000 0.0000 0.0000 25.4108 0.0000
# 6 0.0000 0.0000 0.0000 0.0000 0.0000 56.9131
#
#
#
# Elastic Compliance Matrix: (Units=1/GPa)
#
#
# Indices 1 2 3 4 5 6 
#
# 1 0.008994 -0.002875 -0.003979 0.000000 0.000000 0.000000
# 2 -0.002875 0.007164 -0.002966 0.000000 0.000000 0.000000
# 3 -0.003979 -0.002966 0.026147 0.000000 0.000000 0.000000
# 4 0.000000 0.000000 0.000000 0.032942 0.000000 0.000000
# 5 0.000000 0.000000 0.000000 0.000000 0.039353 0.000000
# 6 0.000000 0.000000 0.000000 0.000000 0.000000 0.017571
#
#
# Mechanical properties :
#
#
# Convention : Reuss Voigt Hill
#
# Bulk Modulus (GPa) = 44.12006 71.57098 57.84552
# Shear Modulus (GPa) = 31.37426 38.64252 35.00839
#
# Velocity S-wave (km/s) = 3.99897 4.43807 4.22423
# Velocity P-wave (km/s) = 6.61898 7.92101 7.29909
#
# Compressibility (1/GPa) = 0.02266543
#
# Stress axis : x y z
#
# Youngs Moduli (GPa) = 111.18136 139.59129 38.24511
#
# Poissons Ratio (x) = 0.40132 0.15217
# Poissons Ratio (y) = 0.31964 0.11344
# Poissons Ratio (z) = 0.44237 0.41405
#
# Static dielectric constant tensor:
#      x y z
#    x 1.799180 0.000000 0.000000 
#    y 0.000000 1.768250 0.000000 
#    z 0.000000 0.000000 1.680200 
# 
# From -- ./inp_files/16480.got.cif
#   From: 2010.05.17/outbox.cif.g08.bks.cpg/sg43_9_cif.got.tgz:16480.got - 2010.06.03 19:21:55.
