data_PCOD9372303
_publ_section_title
;
Structure prediction by ZEFSAII (Michael W. Deem and Ramdas Pophale) SiO2 
 PCOD9372303
Probable space group: F D D 2
;
_chemical_formula_sum "Si O2"
_cell_formula_units_Z 56
_cell_length_a 22.311363
_cell_length_b 14.250703
_cell_length_c 5.800648
_cell_angle_alpha 90.000000
_cell_angle_beta 90.000000
_cell_angle_gamma 90.000000
_cell_volume 1844.331158
_symmetry_space_group_name_H-M "F D D 2"
_symmetry_group_IT_number 43
_symmetry_cell_setting 'orthorhombic'
loop_
_space_group_symop_operation_xyz
x,y,z
-x,-y,z
1/4-x,1/4+y,1/4+z
1/4+x,1/4-y,1/4+z
x,1/2+y,1/2+z
-x,1/2-y,1/2+z
1/4-x,3/4+y,3/4+z
1/4+x,3/4-y,3/4+z
1/2+x,y,1/2+z
1/2-x,-y,1/2+z
3/4-x,1/4+y,3/4+z
3/4+x,1/4-y,3/4+z
1/2+x,1/2+y,z
1/2-x,1/2-y,z
3/4-x,3/4+y,1/4+z
3/4+x,3/4-y,1/4+z
loop_
_atom_site_type_symbol
_atom_site_label
_atom_site_fract_x
_atom_site_fract_y
_atom_site_fract_z
Si Si1 0.750000 0.250000 0.803180
Si Si2 0.568961 0.816560 0.431801
Si Si3 0.016696 0.124932 0.455795
Si Si4 0.386007 0.163383 0.943752
O O1 0.708189 0.171596 0.682802
O O2 0.714714 0.321544 0.974312
O O3 0.518075 0.736699 0.421241
O O4 0.599219 0.801704 0.682552
O O5 0.606754 0.793761 0.200260
O O6 0.065664 0.108048 0.655051
O O7 0.946394 0.098359 0.472383
#
# Coordination Sequence:
#
# PCOD9372303 Si02
#       4
#     8  16  16  16
#     4  10  26  56  94 128 176 250 302 366 474 540
#     4  11  27  54  85 127 179 232 301 377 444 547
#     4  11  27  56  83 135 173 236 301 384 441 550
#     4  11  27  51  87 119 178 230 293 368 462 523
#
# _framework density 30.363309000000001
#
# number of rings (size 3 to 8) (size 9 to 14) (size 15 to 20)
#    0.000    1.143    0.000    3.429    8.000   11.429 
#    0.000    0.000    0.000    0.000    0.000    0.000 
#    0.000    0.000    0.000    0.000    0.000    0.000 
#
# Total GULP energy -77961.135100 kJ/mol
# GULP energy per Si atom -5568.652507 kJ/mol
# Density = 3.029420 g / cm^3
# Si number density = 30.363309 Si / 1000 Ang^3
#
#
#
# Elastic Constant Matrix: (Units=GPa)
#
#
# Indices 1 2 3 4 5 6 
#
# 1 199.3579 48.8633 84.0146 0.0000 0.0000 0.0000
# 2 48.8633 228.3420 38.6732 0.0001 0.0000 0.0000
# 3 84.0146 38.6732 279.4281 0.0006 0.0002 0.0000
# 4 0.0000 0.0001 0.0006 21.3571 0.0001 0.0000
# 5 0.0000 0.0000 0.0002 0.0001 80.8259 -0.0001
# 6 0.0000 0.0000 0.0000 0.0000 -0.0001 20.2438
#
#
#
# Elastic Compliance Matrix: (Units=1/GPa)
#
#
# Indices 1 2 3 4 5 6 
#
# 1 0.005957 -0.000995 -0.001653 0.000000 0.000000 0.000000
# 2 -0.000995 0.004651 -0.000345 0.000000 0.000000 0.000000
# 3 -0.001653 -0.000345 0.004124 0.000000 0.000000 0.000000
# 4 0.000000 0.000000 0.000000 0.046823 0.000000 0.000000
# 5 0.000000 0.000000 0.000000 0.000000 0.012372 0.000000
# 6 0.000000 0.000000 0.000000 0.000000 0.000000 0.049398
#
#
# Mechanical properties :
#
#
# Convention : Reuss Voigt Hill
#
# Bulk Modulus (GPa) = 114.34226 116.69224 115.51725
# Shear Modulus (GPa) = 37.81463 60.19050 49.00257
#
# Velocity S-wave (km/s) = 3.53286 4.45718 4.02166
# Velocity P-wave (km/s) = 7.37436 8.06251 7.72610
#
# Compressibility (1/GPa) = 0.00874567
#
# Stress axis : x y z
#
# Youngs Moduli (GPa) = 167.87986 215.02572 242.51116
#
# Poissons Ratio (x) = 0.21388 0.40094
# Poissons Ratio (y) = 0.16698 0.08357
# Poissons Ratio (z) = 0.27756 0.07410
#
# Static dielectric constant tensor:
#      x y z
#    x 2.436970 0.000000 0.000000 
#    y 0.000000 2.320970 0.000000 
#    z 0.000000 0.000000 2.449940 
# 
# From -- ./inp_files/1099.got.cif
#   From: 2010.05.17/outbox.cif.g08.bks.cpg/sg43_1_cif.got.tgz:1099.got - 2010.06.03 19:21:55.
