data_PCOD9372273
_publ_section_title
;
Structure prediction by ZEFSAII (Michael W. Deem and Ramdas Pophale) SiO2 
 PCOD9372273
Probable space group: F D D 2
;
_chemical_formula_sum "Si O2"
_cell_formula_units_Z 112
_cell_length_a 29.109706
_cell_length_b 15.281723
_cell_length_c 11.284674
_cell_angle_alpha 90.000000
_cell_angle_beta 90.000000
_cell_angle_gamma 90.000000
_cell_volume 5019.947323
_symmetry_space_group_name_H-M "F D D 2"
_symmetry_group_IT_number 43
_symmetry_cell_setting 'orthorhombic'
loop_
_space_group_symop_operation_xyz
x,y,z
-x,-y,z
1/4-x,1/4+y,1/4+z
1/4+x,1/4-y,1/4+z
x,1/2+y,1/2+z
-x,1/2-y,1/2+z
1/4-x,3/4+y,3/4+z
1/4+x,3/4-y,3/4+z
1/2+x,y,1/2+z
1/2-x,-y,1/2+z
3/4-x,1/4+y,3/4+z
3/4+x,1/4-y,3/4+z
1/2+x,1/2+y,z
1/2-x,1/2-y,z
3/4-x,3/4+y,1/4+z
3/4+x,3/4-y,1/4+z
loop_
_atom_site_type_symbol
_atom_site_label
_atom_site_fract_x
_atom_site_fract_y
_atom_site_fract_z
Si Si1 0.840438 0.673235 0.734950
Si Si2 0.937203 0.336979 0.481378
Si Si3 0.000000 0.500000 0.052109
Si Si4 0.159460 0.498796 0.583420
Si Si5 0.268515 0.445160 0.883253
Si Si6 0.750000 0.750000 0.191580
Si Si7 0.419376 0.810122 0.208531
Si Si8 0.845737 0.320999 0.643640
O O1 0.794256 0.728041 0.726387
O O2 0.834295 0.590914 0.650383
O O3 0.844576 0.637827 0.869666
O O4 0.882378 0.734636 0.706868
O O5 0.962896 0.247002 0.518817
O O6 0.973752 0.417462 0.507509
O O7 0.926689 0.343152 0.342203
O O8 0.887108 0.325291 0.546521
O O9 0.986559 0.590353 0.118726
O O10 0.198673 0.526827 0.490945
O O11 0.156483 0.576939 0.676538
O O12 0.114680 0.486319 0.501454
O O13 0.217604 0.475830 0.912580
O O14 0.793678 0.789752 0.119696
#
# Coordination Sequence:
#
# PCOD9372273 Si02
#       8
#    16  16   8  16  16   8  16  16
#     4  11  27  44  73 106 148 203 244 314 394 462
#     4  11  27  47  76 117 152 202 263 332 382 486
#     4  10  26  47  69 110 142 198 251 309 388 470
#     4  11  24  47  71 106 152 192 255 316 377 463
#     4  10  26  47  75 103 148 196 255 314 386 455
#     4  12  26  45  83 110 154 214 259 327 412 456
#     4  11  27  44  73 106 150 194 253 314 383 470
#     4  11  25  45  75 112 150 200 260 324 384 471
#
# _framework density 22.31099
#
# number of rings (size 3 to 8) (size 9 to 14) (size 15 to 20)
#    0.000    1.143    1.429    1.714   16.000    4.000 
#    0.000    2.857    0.000    0.000    0.000    0.000 
#    0.000    0.000    0.000    0.000    0.000    0.000 
#
# Total GULP energy -156312.165764 kJ/mol
# GULP energy per Si atom -5582.577349 kJ/mol
# Density = 2.226021 g / cm^3
# Si number density = 22.310990 Si / 1000 Ang^3
#
#
#
# Elastic Constant Matrix: (Units=GPa)
#
#
# Indices 1 2 3 4 5 6 
#
# 1 198.9361 85.0536 35.5076 0.0000 0.0000 0.0000
# 2 85.0536 141.9464 26.7949 0.0000 0.0000 0.0000
# 3 35.5076 26.7949 59.9181 0.0000 0.0000 0.0000
# 4 0.0000 0.0000 0.0000 32.9165 0.0000 0.0000
# 5 0.0000 0.0000 0.0000 0.0000 11.8283 0.0000
# 6 0.0000 0.0000 0.0000 0.0000 0.0000 20.0593
#
#
#
# Elastic Compliance Matrix: (Units=1/GPa)
#
#
# Indices 1 2 3 4 5 6 
#
# 1 0.007088 -0.003773 -0.002513 0.000000 0.000000 0.000000
# 2 -0.003773 0.009703 -0.002103 0.000000 0.000000 0.000000
# 3 -0.002513 -0.002103 0.019119 0.000000 0.000000 0.000000
# 4 0.000000 0.000000 0.000000 0.030380 0.000000 0.000000
# 5 0.000000 0.000000 0.000000 0.000000 0.084543 0.000000
# 6 0.000000 0.000000 0.000000 0.000000 0.000000 0.049852
#
#
# Mechanical properties :
#
#
# Convention : Reuss Voigt Hill
#
# Bulk Modulus (GPa) = 52.26950 77.27919 64.77434
# Shear Modulus (GPa) = 22.33720 29.85711 26.09716
#
# Velocity S-wave (km/s) = 3.16757 3.66214 3.42380
# Velocity P-wave (km/s) = 6.07096 7.25219 6.68770
#
# Compressibility (1/GPa) = 0.01913162
#
# Stress axis : x y z
#
# Youngs Moduli (GPa) = 141.07504 103.06507 52.30291
#
# Poissons Ratio (x) = 0.38885 0.13146
# Poissons Ratio (y) = 0.53226 0.11000
# Poissons Ratio (z) = 0.35458 0.21676
#
# Static dielectric constant tensor:
#      x y z
#    x 1.823750 0.000000 0.000000 
#    y 0.000000 1.863180 0.000000 
#    z 0.000000 0.000000 1.849820 
# 
# From -- ./inp_files/8323.got.cif
#   From: 2010.05.17/outbox.cif.g08.bks.cpg/sg43_5_cif.got.tgz:8323.got - 2010.06.03 19:21:55.
