data_PCOD9372612
_publ_section_title
;
Structure prediction by ZEFSAII (Michael W. Deem and Ramdas Pophale) SiO2 
 PCOD9372612
Probable space group: F D D 2
;
_chemical_formula_sum "Si O2"
_cell_formula_units_Z 96
_cell_length_a 13.446158
_cell_length_b 20.387298
_cell_length_c 14.854590
_cell_angle_alpha 90.000000
_cell_angle_beta 90.000000
_cell_angle_gamma 90.000000
_cell_volume 4072.101088
_symmetry_space_group_name_H-M "F D D 2"
_symmetry_group_IT_number 43
_symmetry_cell_setting 'orthorhombic'
loop_
_space_group_symop_operation_xyz
x,y,z
-x,-y,z
1/4-x,1/4+y,1/4+z
1/4+x,1/4-y,1/4+z
x,1/2+y,1/2+z
-x,1/2-y,1/2+z
1/4-x,3/4+y,3/4+z
1/4+x,3/4-y,3/4+z
1/2+x,y,1/2+z
1/2-x,-y,1/2+z
3/4-x,1/4+y,3/4+z
3/4+x,1/4-y,3/4+z
1/2+x,1/2+y,z
1/2-x,1/2-y,z
3/4-x,3/4+y,1/4+z
3/4+x,3/4-y,1/4+z
loop_
_atom_site_type_symbol
_atom_site_label
_atom_site_fract_x
_atom_site_fract_y
_atom_site_fract_z
Si Si1 0.256416 0.326860 0.890640
Si Si2 0.203009 0.013793 0.415155
Si Si3 0.284793 0.091591 0.062044
Si Si4 0.135367 0.158992 0.533927
Si Si5 0.582087 0.444414 0.910631
Si Si6 0.349381 0.604750 0.098455
O O1 0.250000 0.250000 0.897979
O O2 0.370996 0.346370 0.877465
O O3 0.196580 0.353116 0.805141
O O4 0.206727 0.360445 0.976383
O O5 0.215546 0.980357 0.514689
O O6 0.137059 0.964389 0.357721
O O7 0.314881 0.023030 0.379850
O O8 0.154675 0.083798 0.395504
O O9 0.192268 0.125017 0.112826
O O10 0.244470 0.129992 0.557798
O O11 0.105380 0.190457 0.437400
O O12 0.500000 0.500000 0.894838
O O13 0.592848 0.427158 0.015820
#
# Coordination Sequence:
#
# PCOD9372612 Si02
#       6
#    16  16  16  16  16  16
#     4  11  24  44  75 105 143 196 251 307 376 446
#     4  11  26  47  74 106 146 202 256 314 379 465
#     4  11  26  47  73 108 150 197 252 316 377 463
#     4  11  24  45  73 106 150 196 258 312 378 452
#     4  12  28  48  75 113 159 195 255 314 399 463
#     4  12  26  47  72 114 151 203 250 320 386 459
#
# _framework density 23.575054000000002
#
# number of rings (size 3 to 8) (size 9 to 14) (size 15 to 20)
#    0.000    0.667    1.667    6.000    4.667    4.000 
#    0.000    0.000    0.000    0.000    0.000    0.000 
#    0.000    0.000    0.000    0.000    0.000    0.000 
#
# Total GULP energy -134065.673037 kJ/mol
# GULP energy per Si atom -5586.069710 kJ/mol
# Density = 2.352140 g / cm^3
# Si number density = 23.575054 Si / 1000 Ang^3
#
#
#
# Elastic Constant Matrix: (Units=GPa)
#
#
# Indices 1 2 3 4 5 6 
#
# 1 85.2087 -1.9104 -7.2135 0.0000 0.0000 0.0000
# 2 -1.9104 49.6972 -25.0532 0.0000 0.0000 0.0000
# 3 -7.2135 -25.0532 88.6063 0.0000 0.0000 0.0000
# 4 0.0000 0.0000 0.0000 17.2742 0.0000 0.0000
# 5 0.0000 0.0000 0.0000 0.0000 31.0375 0.0000
# 6 0.0000 0.0000 0.0000 0.0000 0.0000 29.2776
#
#
#
# Elastic Compliance Matrix: (Units=1/GPa)
#
#
# Indices 1 2 3 4 5 6 
#
# 1 0.011869 0.001100 0.001277 0.000000 0.000000 0.000000
# 2 0.001100 0.023569 0.006754 0.000000 0.000000 0.000000
# 3 0.001277 0.006754 0.013299 0.000000 0.000000 0.000000
# 4 0.000000 0.000000 0.000000 0.057890 0.000000 0.000000
# 5 0.000000 0.000000 0.000000 0.000000 0.032219 0.000000
# 6 0.000000 0.000000 0.000000 0.000000 0.000000 0.034156
#
#
# Mechanical properties :
#
#
# Convention : Reuss Voigt Hill
#
# Bulk Modulus (GPa) = 14.92561 17.23976 16.08268
# Shear Modulus (GPa) = 28.23702 32.69715 30.46709
#
# Velocity S-wave (km/s) = 3.46461 3.72820 3.59882
# Velocity P-wave (km/s) = 4.72753 5.08540 4.90972
#
# Compressibility (1/GPa) = 0.06699895
#
# Stress axis : x y z
#
# Youngs Moduli (GPa) = 84.25525 42.42907 75.19125
#
# Poissons Ratio (x) = -0.04668 -0.09604
# Poissons Ratio (y) = -0.09269 -0.50781
# Poissons Ratio (z) = -0.10762 -0.28655
#
# Static dielectric constant tensor:
#      x y z
#    x 1.864530 0.000000 0.000000 
#    y 0.000000 1.994300 0.000000 
#    z 0.000000 0.000000 1.978210 
# 
# From -- ./inp_files/10077.got.cif
#   From: 2010.05.17/outbox.cif.g08.bks.cpg/sg43_6_cif.got.tgz:10077.got - 2010.06.03 19:21:55.
