data_PCOD9372350
_publ_section_title
;
Structure prediction by ZEFSAII (Michael W. Deem and Ramdas Pophale) SiO2 
 PCOD9372350
Probable space group: F D D 2
;
_chemical_formula_sum "Si O2"
_cell_formula_units_Z 112
_cell_length_a 30.009464
_cell_length_b 11.421137
_cell_length_c 13.735683
_cell_angle_alpha 90.000000
_cell_angle_beta 90.000000
_cell_angle_gamma 90.000000
_cell_volume 4707.798205
_symmetry_space_group_name_H-M "F D D 2"
_symmetry_group_IT_number 43
_symmetry_cell_setting 'orthorhombic'
loop_
_space_group_symop_operation_xyz
x,y,z
-x,-y,z
1/4-x,1/4+y,1/4+z
1/4+x,1/4-y,1/4+z
x,1/2+y,1/2+z
-x,1/2-y,1/2+z
1/4-x,3/4+y,3/4+z
1/4+x,3/4-y,3/4+z
1/2+x,y,1/2+z
1/2-x,-y,1/2+z
3/4-x,1/4+y,3/4+z
3/4+x,1/4-y,3/4+z
1/2+x,1/2+y,z
1/2-x,1/2-y,z
3/4-x,3/4+y,1/4+z
3/4+x,3/4-y,1/4+z
loop_
_atom_site_type_symbol
_atom_site_label
_atom_site_fract_x
_atom_site_fract_y
_atom_site_fract_z
Si Si1 0.429124 0.643393 0.383300
Si Si2 0.867193 0.199512 0.758673
Si Si3 0.797595 0.279983 0.533698
Si Si4 0.636191 0.394633 0.548721
Si Si5 0.016683 0.782718 0.939641
Si Si6 0.320936 0.128143 0.571363
Si Si7 0.972563 0.380876 0.622198
O O1 0.408620 0.628496 0.491231
O O2 0.394341 0.721553 0.323095
O O3 0.473407 0.720887 0.391282
O O4 0.433824 0.515638 0.337690
O O5 0.912415 0.122597 0.762985
O O6 0.856133 0.183525 0.645936
O O7 0.880559 0.329781 0.791019
O O8 0.825396 0.153376 0.820021
O O9 0.750000 0.250000 0.486192
O O10 0.822311 0.161365 0.494810
O O11 0.779357 0.345561 0.634980
O O12 0.056033 0.692285 0.916852
O O13 0.002240 0.802690 0.050452
O O14 0.289345 0.091243 0.480721
O O15 0.000000 0.500000 0.630380
#
# Coordination Sequence:
#
# PCOD9372350 Si02
#       7
#    16  16  16  16  16  16  16
#     4  12  25  45  70 101 153 188 239 315 384 445
#     4  11  23  44  72 104 143 188 257 302 371 463
#     4  11  20  39  71 103 134 190 247 310 365 455
#     4  12  23  45  72 103 143 196 248 308 381 456
#     4  11  22  44  74 101 145 188 252 312 367 454
#     4  11  28  46  72 112 151 192 249 318 384 455
#     4  12  24  46  77 104 142 200 254 307 382 459
#
# _framework density 23.790313000000001
#
# number of rings (size 3 to 8) (size 9 to 14) (size 15 to 20)
#    0.000    0.571    4.286    4.286    2.000    1.143 
#    0.000    4.286    0.000    0.000    0.000    0.000 
#    0.000    0.000    0.000    0.000    0.000    0.000 
#
# Total GULP energy -156130.353886 kJ/mol
# GULP energy per Si atom -5576.084067 kJ/mol
# Density = 2.373617 g / cm^3
# Si number density = 23.790313 Si / 1000 Ang^3
#
#
#
# Elastic Constant Matrix: (Units=GPa)
#
#
# Indices 1 2 3 4 5 6 
#
# 1 39.7369 0.9632 3.1192 0.0000 0.0000 0.0000
# 2 0.9632 122.8559 25.8224 0.0000 0.0000 0.0000
# 3 3.1192 25.8224 50.4609 0.0000 0.0000 0.0000
# 4 0.0000 0.0000 0.0000 27.6514 0.0000 0.0000
# 5 0.0000 0.0000 0.0000 0.0000 12.8192 0.0000
# 6 0.0000 0.0000 0.0000 0.0000 0.0000 70.6979
#
#
#
# Elastic Compliance Matrix: (Units=1/GPa)
#
#
# Indices 1 2 3 4 5 6 
#
# 1 0.025291 0.000146 -0.001638 0.000000 0.000000 0.000000
# 2 0.000146 0.009121 -0.004677 0.000000 0.000000 0.000000
# 3 -0.001638 -0.004677 0.022312 0.000000 0.000000 0.000000
# 4 0.000000 0.000000 0.000000 0.036165 0.000000 0.000000
# 5 0.000000 0.000000 0.000000 0.000000 0.078008 0.000000
# 6 0.000000 0.000000 0.000000 0.000000 0.000000 0.014145
#
#
# Mechanical properties :
#
#
# Convention : Reuss Voigt Hill
#
# Bulk Modulus (GPa) = 22.52947 30.31813 26.42380
# Shear Modulus (GPa) = 23.56553 34.44362 29.00457
#
# Velocity S-wave (km/s) = 3.15072 3.80912 3.49546
# Velocity P-wave (km/s) = 4.76724 5.66723 5.23661
#
# Compressibility (1/GPa) = 0.04438632
#
# Stress axis : x y z
#
# Youngs Moduli (GPa) = 39.54040 109.63172 44.81928
#
# Poissons Ratio (x) = -0.01601 0.07342
# Poissons Ratio (y) = -0.00577 0.20961
# Poissons Ratio (z) = 0.06477 0.51272
#
# Static dielectric constant tensor:
#      x y z
#    x 1.980150 0.000000 0.000000 
#    y 0.000000 2.026380 0.000000 
#    z 0.000000 0.000000 1.957150 
# 
# From -- ./inp_files/11669.got.cif
#   From: 2010.05.17/outbox.cif.g08.bks.cpg/sg43_6_cif.got.tgz:11669.got - 2010.06.03 19:21:55.
