data_PCOD9372729
_publ_section_title
;
Structure prediction by ZEFSAII (Michael W. Deem and Ramdas Pophale) SiO2 
 PCOD9372729
Probable space group: F D D 2
;
_chemical_formula_sum "Si O2"
_cell_formula_units_Z 72
_cell_length_a 17.365986
_cell_length_b 16.681416
_cell_length_c 8.883569
_cell_angle_alpha 90.000000
_cell_angle_beta 90.000000
_cell_angle_gamma 90.000000
_cell_volume 2573.474323
_symmetry_space_group_name_H-M "F D D 2"
_symmetry_group_IT_number 43
_symmetry_cell_setting 'orthorhombic'
loop_
_space_group_symop_operation_xyz
x,y,z
-x,-y,z
1/4-x,1/4+y,1/4+z
1/4+x,1/4-y,1/4+z
x,1/2+y,1/2+z
-x,1/2-y,1/2+z
1/4-x,3/4+y,3/4+z
1/4+x,3/4-y,3/4+z
1/2+x,y,1/2+z
1/2-x,-y,1/2+z
3/4-x,1/4+y,3/4+z
3/4+x,1/4-y,3/4+z
1/2+x,1/2+y,z
1/2-x,1/2-y,z
3/4-x,3/4+y,1/4+z
3/4+x,3/4-y,1/4+z
loop_
_atom_site_type_symbol
_atom_site_label
_atom_site_fract_x
_atom_site_fract_y
_atom_site_fract_z
Si Si1 0.504215 0.626544 0.246760
Si Si2 0.000000 0.000000 0.508354
Si Si3 0.928615 0.079055 0.947479
Si Si4 0.130048 0.300155 0.991896
Si Si5 0.236270 0.942542 0.458950
O O1 0.507867 0.573787 0.395163
O O2 0.590551 0.641327 0.192773
O O3 0.469091 0.716530 0.259014
O O4 0.456184 0.583517 0.117671
O O5 0.925764 0.005272 0.618800
O O6 0.076537 0.012115 0.888555
O O7 0.972048 0.143838 0.843084
O O8 0.044479 0.301521 0.066368
O O9 0.161528 0.386543 0.936215
#
# Coordination Sequence:
#
# PCOD9372729 Si02
#       5
#    16   8  16  16  16
#     4  11  30  47  82 120 168 220 292 352 455 520
#     4  12  28  50  74 122 176 224 274 376 430 538
#     4  11  25  52  82 117 166 223 285 361 428 534
#     4  11  26  51  83 118 169 223 287 355 449 512
#     4  11  25  49  85 121 156 232 286 364 421 545
#
# _framework density 27.977741000000002
#
# number of rings (size 3 to 8) (size 9 to 14) (size 15 to 20)
#    0.000    0.889    2.222    1.333   12.444    3.556 
#    4.000    4.444    0.000    0.000    0.000    0.000 
#    0.000    0.000    0.000    0.000    0.000    0.000 
#
# Total GULP energy -100784.173443 kJ/mol
# GULP energy per Si atom -5599.120747 kJ/mol
# Density = 2.791406 g / cm^3
# Si number density = 27.977741 Si / 1000 Ang^3
#
#
#
# Elastic Constant Matrix: (Units=GPa)
#
#
# Indices 1 2 3 4 5 6 
#
# 1 81.0070 -5.4887 9.5800 0.0000 0.0000 0.0000
# 2 -5.4887 175.9005 58.6512 0.0000 0.0000 0.0000
# 3 9.5800 58.6512 166.1838 0.0000 0.0000 0.0000
# 4 0.0000 0.0000 0.0000 62.6084 0.0000 0.0000
# 5 0.0000 0.0000 0.0000 0.0000 35.2417 0.0000
# 6 0.0000 0.0000 0.0000 0.0000 0.0000 46.0657
#
#
#
# Elastic Compliance Matrix: (Units=1/GPa)
#
#
# Indices 1 2 3 4 5 6 
#
# 1 0.012508 0.000715 -0.000973 0.000000 0.000000 0.000000
# 2 0.000715 0.006484 -0.002330 0.000000 0.000000 0.000000
# 3 -0.000973 -0.002330 0.006896 0.000000 0.000000 0.000000
# 4 0.000000 0.000000 0.000000 0.015972 0.000000 0.000000
# 5 0.000000 0.000000 0.000000 0.000000 0.028375 0.000000
# 6 0.000000 0.000000 0.000000 0.000000 0.000000 0.021708
#
#
# Mechanical properties :
#
#
# Convention : Reuss Voigt Hill
#
# Bulk Modulus (GPa) = 48.28183 60.95293 54.61738
# Shear Modulus (GPa) = 48.06579 52.80643 50.43611
#
# Velocity S-wave (km/s) = 4.14937 4.34919 4.25045
# Velocity P-wave (km/s) = 6.34438 6.85960 6.60701
#
# Compressibility (1/GPa) = 0.02071173
#
# Stress axis : x y z
#
# Youngs Moduli (GPa) = 79.94783 154.22290 145.01698
#
# Poissons Ratio (x) = -0.11025 0.14115
# Poissons Ratio (y) = -0.05715 0.33784
# Poissons Ratio (z) = 0.07782 0.35929
#
# Static dielectric constant tensor:
#      x y z
#    x 2.286220 0.000000 0.000000 
#    y 0.000000 2.187330 0.000000 
#    z 0.000000 0.000000 2.180190 
# 
# From -- ./inp_files/2387.got.cif
#   From: 2010.05.17/outbox.cif.g08.bks.cpg/sg43_2_cif.got.tgz:2387.got - 2010.06.03 19:21:55.
