data_PCOD9372079
_publ_section_title
;
Structure prediction by ZEFSAII (Michael W. Deem and Ramdas Pophale) SiO2 
 PCOD9372079
Probable space group: F D D 2
;
_chemical_formula_sum "Si O2"
_cell_formula_units_Z 104
_cell_length_a 20.398053
_cell_length_b 24.878572
_cell_length_c 8.785816
_cell_angle_alpha 90.000000
_cell_angle_beta 90.000000
_cell_angle_gamma 90.000000
_cell_volume 4458.576969
_symmetry_space_group_name_H-M "F D D 2"
_symmetry_group_IT_number 43
_symmetry_cell_setting 'orthorhombic'
loop_
_space_group_symop_operation_xyz
x,y,z
-x,-y,z
1/4-x,1/4+y,1/4+z
1/4+x,1/4-y,1/4+z
x,1/2+y,1/2+z
-x,1/2-y,1/2+z
1/4-x,3/4+y,3/4+z
1/4+x,3/4-y,3/4+z
1/2+x,y,1/2+z
1/2-x,-y,1/2+z
3/4-x,1/4+y,3/4+z
3/4+x,1/4-y,3/4+z
1/2+x,1/2+y,z
1/2-x,1/2-y,z
3/4-x,3/4+y,1/4+z
3/4+x,3/4-y,1/4+z
loop_
_atom_site_type_symbol
_atom_site_label
_atom_site_fract_x
_atom_site_fract_y
_atom_site_fract_z
Si Si1 0.655320 0.823851 0.651680
Si Si2 0.573599 0.452524 0.039012
Si Si3 0.364683 0.819383 0.474456
Si Si4 0.186335 0.942210 0.233137
Si Si5 0.930089 0.923480 0.044367
Si Si6 0.250000 0.250000 0.837768
Si Si7 0.206054 0.007009 0.530347
O O1 0.687496 0.878675 0.712491
O O2 0.656397 0.823923 0.469377
O O3 0.698970 0.778113 0.726923
O O4 0.583706 0.808669 0.716766
O O5 0.609613 0.453224 0.200840
O O6 0.508831 0.416029 0.046207
O O7 0.569790 0.514764 0.989316
O O8 0.617988 0.429132 0.906284
O O9 0.389793 0.880627 0.442167
O O10 0.292505 0.795645 0.429426
O O11 0.414621 0.776295 0.404957
O O12 0.211347 0.965431 0.391220
O O13 0.227417 0.973170 0.105057
#
# Coordination Sequence:
#
# PCOD9372079 Si02
#       7
#    16  16  16  16  16   8  16
#     4  11  25  45  72 102 144 195 246 298 381 451
#     4  11  24  43  71 106 141 190 248 306 370 452
#     4  11  25  46  72 107 149 190 252 314 391 446
#     4  12  26  44  72 102 145 191 244 305 375 446
#     4  11  24  43  77 103 145 192 249 309 379 452
#     4  10  24  44  70 108 150 194 246 320 366 464
#     4  11  28  48  70 109 149 191 251 314 379 453
#
# _framework density 23.325828000000001
#
# number of rings (size 3 to 8) (size 9 to 14) (size 15 to 20)
#    0.000    0.923    3.077    2.769    4.308    7.385 
#    0.000    0.000    0.000    0.000    0.000    0.000 
#    0.000    0.000    0.000    0.000    0.000    0.000 
#
# Total GULP energy -145085.934573 kJ/mol
# GULP energy per Si atom -5580.228253 kJ/mol
# Density = 2.327274 g / cm^3
# Si number density = 23.325828 Si / 1000 Ang^3
#
#
#
# Elastic Constant Matrix: (Units=GPa)
#
#
# Indices 1 2 3 4 5 6 
#
# 1 63.6131 9.3260 7.5616 0.0000 0.0000 0.0027
# 2 9.3260 103.2248 9.4034 0.0000 0.0000 0.0030
# 3 7.5616 9.4034 60.3790 0.0003 -0.0001 0.0120
# 4 0.0000 0.0000 0.0003 15.1774 -0.0001 0.0097
# 5 0.0000 0.0000 -0.0001 -0.0001 30.9833 -0.0066
# 6 0.0027 0.0030 0.0120 0.0097 -0.0066 1553.7252
#
#
#
# Elastic Compliance Matrix: (Units=1/GPa)
#
#
# Indices 1 2 3 4 5 6 
#
# 1 0.016125 -0.001291 -0.001818 0.000000 0.000000 0.000000
# 2 -0.001291 0.009930 -0.001385 0.000000 0.000000 0.000000
# 3 -0.001818 -0.001385 0.017005 0.000000 0.000000 0.000000
# 4 0.000000 0.000000 0.000000 0.065887 0.000000 0.000000
# 5 0.000000 0.000000 0.000000 0.000000 0.032275 0.000000
# 6 0.000000 0.000000 0.000000 0.000000 0.000000 0.000644
#
#
# Mechanical properties :
#
#
# Convention : Reuss Voigt Hill
#
# Bulk Modulus (GPa) = 29.34929 31.08879 30.21904
# Shear Modulus (GPa) = 30.82345 333.37225 182.09785
#
# Velocity S-wave (km/s) = 3.63909 11.96788 8.84514
# Velocity P-wave (km/s) = 5.50154 14.29442 10.83045
#
# Compressibility (1/GPa) = 0.03407238
#
# Stress axis : x y z
#
# Youngs Moduli (GPa) = 62.01363 100.70083 58.80464
#
# Poissons Ratio (x) = 0.13003 0.10693
# Poissons Ratio (y) = 0.08007 0.08144
# Poissons Ratio (z) = 0.11277 0.13946
#
# Static dielectric constant tensor:
#      x y z
#    x 1.980820 0.000000 0.000000 
#    y 0.000000 1.952320 0.000000 
#    z 0.000000 0.000000 1.852100 
# 
# From -- ./inp_files/3352.got.cif
#   From: 2010.05.17/outbox.cif.g08.bks.cpg/sg43_2_cif.got.tgz:3352.got - 2010.06.03 19:21:55.
