data_PCOD9372070
_publ_section_title
;
Structure prediction by ZEFSAII (Michael W. Deem and Ramdas Pophale) SiO2 
 PCOD9372070
Probable space group: F D D 2
;
_chemical_formula_sum "Si O2"
_cell_formula_units_Z 80
_cell_length_a 23.753889
_cell_length_b 16.388744
_cell_length_c 8.445405
_cell_angle_alpha 90.000000
_cell_angle_beta 90.000000
_cell_angle_gamma 90.000000
_cell_volume 3287.765812
_symmetry_space_group_name_H-M "F D D 2"
_symmetry_group_IT_number 43
_symmetry_cell_setting 'orthorhombic'
loop_
_space_group_symop_operation_xyz
x,y,z
-x,-y,z
1/4-x,1/4+y,1/4+z
1/4+x,1/4-y,1/4+z
x,1/2+y,1/2+z
-x,1/2-y,1/2+z
1/4-x,3/4+y,3/4+z
1/4+x,3/4-y,3/4+z
1/2+x,y,1/2+z
1/2-x,-y,1/2+z
3/4-x,1/4+y,3/4+z
3/4+x,1/4-y,3/4+z
1/2+x,1/2+y,z
1/2-x,1/2-y,z
3/4-x,3/4+y,1/4+z
3/4+x,3/4-y,1/4+z
loop_
_atom_site_type_symbol
_atom_site_label
_atom_site_fract_x
_atom_site_fract_y
_atom_site_fract_z
Si Si1 0.944944 0.729498 0.435560
Si Si2 0.658646 0.213564 0.149904
Si Si3 0.696595 0.885151 0.259222
Si Si4 0.361134 0.951073 0.343041
Si Si5 0.226599 0.848984 0.096341
O O1 0.896938 0.756708 0.560132
O O2 0.920044 0.707101 0.263749
O O3 0.981985 0.811061 0.413749
O O4 0.989050 0.661510 0.487795
O O5 0.651854 0.133288 0.254044
O O6 0.712735 0.185252 0.046113
O O7 0.689845 0.294347 0.218824
O O8 0.675797 0.814288 0.143328
O O9 0.689436 0.856399 0.439265
O O10 0.657946 0.967875 0.249753
#
# Coordination Sequence:
#
# PCOD9372070 Si02
#       5
#    16  16  16  16  16
#     4  11  25  45  70 106 145 189 243 309 365 447
#     4  11  24  44  73 100 142 192 242 305 369 450
#     4  11  25  48  69 104 143 190 239 308 366 446
#     4  11  26  45  71 106 140 193 248 297 379 440
#     4  10  24  44  69 101 140 189 240 296 378 429
#
# _framework density 24.332630999999999
#
# number of rings (size 3 to 8) (size 9 to 14) (size 15 to 20)
#    0.000    1.200    4.000    0.000   11.200    0.000 
#    3.600    0.000    0.000    0.000    0.000    0.000 
#    0.000    0.000    0.000    0.000    0.000    0.000 
#
# Total GULP energy -111543.095320 kJ/mol
# GULP energy per Si atom -5577.154766 kJ/mol
# Density = 2.427725 g / cm^3
# Si number density = 24.332631 Si / 1000 Ang^3
#
#
#
# Elastic Constant Matrix: (Units=GPa)
#
#
# Indices 1 2 3 4 5 6 
#
# 1 128.4434 42.5323 17.4416 0.0000 0.0000 0.0000
# 2 42.5323 67.1424 19.7457 0.0000 0.0000 0.0000
# 3 17.4416 19.7457 36.4979 0.0001 0.0000 0.0000
# 4 0.0000 0.0000 0.0001 40.0195 0.0000 0.0000
# 5 0.0000 0.0000 0.0000 0.0000 19.4742 0.0000
# 6 0.0000 0.0000 0.0000 0.0000 0.0000 47.1804
#
#
#
# Elastic Compliance Matrix: (Units=1/GPa)
#
#
# Indices 1 2 3 4 5 6 
#
# 1 0.009930 -0.005821 -0.001596 0.000000 0.000000 0.000000
# 2 -0.005821 0.021124 -0.008647 0.000000 0.000000 0.000000
# 3 -0.001596 -0.008647 0.032839 0.000000 0.000000 0.000000
# 4 0.000000 0.000000 0.000000 0.024988 0.000000 0.000000
# 5 0.000000 0.000000 0.000000 0.000000 0.051350 0.000000
# 6 0.000000 0.000000 0.000000 0.000000 0.000000 0.021195
#
#
# Mechanical properties :
#
#
# Convention : Reuss Voigt Hill
#
# Bulk Modulus (GPa) = 31.48006 43.50253 37.49130
# Shear Modulus (GPa) = 24.49280 31.49242 27.99261
#
# Velocity S-wave (km/s) = 3.17611 3.60147 3.39546
# Velocity P-wave (km/s) = 5.13962 5.93390 5.55098
#
# Compressibility (1/GPa) = 0.03176614
#
# Stress axis : x y z
#
# Youngs Moduli (GPa) = 100.70763 47.34000 30.45115
#
# Poissons Ratio (x) = 0.27555 0.04860
# Poissons Ratio (y) = 0.58619 0.26330
# Poissons Ratio (z) = 0.16075 0.40933
#
# Static dielectric constant tensor:
#      x y z
#    x 1.977340 0.000000 0.000000 
#    y 0.000000 2.066320 0.000000 
#    z 0.000000 0.000000 1.940110 
# 
# From -- ./inp_files/2798.got.cif
#   From: 2010.05.17/outbox.cif.g08.bks.cpg/sg43_2_cif.got.tgz:2798.got - 2010.06.03 19:21:55.
