data_PCOD9372569
_publ_section_title
;
Structure prediction by ZEFSAII (Michael W. Deem and Ramdas Pophale) SiO2 
 PCOD9372569
Probable space group: F D D 2
;
_chemical_formula_sum "Si O2"
_cell_formula_units_Z 120
_cell_length_a 7.911411
_cell_length_b 27.853837
_cell_length_c 24.791087
_cell_angle_alpha 90.000000
_cell_angle_beta 90.000000
_cell_angle_gamma 90.000000
_cell_volume 5463.042084
_symmetry_space_group_name_H-M "F D D 2"
_symmetry_group_IT_number 43
_symmetry_cell_setting 'orthorhombic'
loop_
_space_group_symop_operation_xyz
x,y,z
-x,-y,z
1/4-x,1/4+y,1/4+z
1/4+x,1/4-y,1/4+z
x,1/2+y,1/2+z
-x,1/2-y,1/2+z
1/4-x,3/4+y,3/4+z
1/4+x,3/4-y,3/4+z
1/2+x,y,1/2+z
1/2-x,-y,1/2+z
3/4-x,1/4+y,3/4+z
3/4+x,1/4-y,3/4+z
1/2+x,1/2+y,z
1/2-x,1/2-y,z
3/4-x,3/4+y,1/4+z
3/4+x,3/4-y,1/4+z
loop_
_atom_site_type_symbol
_atom_site_label
_atom_site_fract_x
_atom_site_fract_y
_atom_site_fract_z
Si Si1 0.507499 0.733678 0.656600
Si Si2 0.959199 0.874108 0.279659
Si Si3 0.000000 0.500000 0.326736
Si Si4 0.980557 0.156868 0.471284
Si Si5 0.326856 0.671686 0.139197
Si Si6 0.648807 0.431934 0.737961
Si Si7 0.543989 0.749595 0.398335
Si Si8 0.800482 0.010249 0.025578
O O1 0.352638 0.717180 0.619296
O O2 0.522457 0.790802 0.645412
O O3 0.664969 0.705441 0.633429
O O4 0.511219 0.732283 0.721886
O O5 0.800969 0.894977 0.246697
O O6 0.981046 0.817404 0.271264
O O7 0.125966 0.906394 0.267416
O O8 0.905605 0.884932 0.340759
O O9 0.874671 0.528449 0.285902
O O10 0.997460 0.200695 0.429477
O O11 0.036715 0.109241 0.440968
O O12 0.784698 0.156991 0.487355
O O13 0.700739 0.459881 0.683614
O O14 0.750000 0.750000 0.400237
O O15 0.489329 0.753457 0.335731
O O16 0.000000 0.000000 0.025297
#
# Coordination Sequence:
#
# PCOD9372569 Si02
#       8
#    16  16   8  16  16  16  16  16
#     4  11  24  44  69  97 143 183 235 294 357 428
#     4  12  25  46  74 102 145 182 237 303 352 428
#     4  12  22  42  70 104 132 178 234 294 360 420
#     4  12  24  45  67 106 139 181 235 293 362 420
#     4  11  25  44  67 101 136 187 233 289 361 423
#     4  12  26  42  74 107 140 182 240 303 358 426
#     4  11  23  45  72 101 142 191 234 297 369 419
#     4  11  25  46  71 102 144 197 236 290 364 439
#
# _framework density 21.965785
#
# number of rings (size 3 to 8) (size 9 to 14) (size 15 to 20)
#    0.000    0.533    7.333    0.800    1.867    0.000 
#    7.200    2.667    0.000    0.000    0.000    0.000 
#    0.000    0.000    0.000    0.000    0.000    0.000 
#
# Total GULP energy -167368.747272 kJ/mol
# GULP energy per Si atom -5578.958242 kJ/mol
# Density = 2.191579 g / cm^3
# Si number density = 21.965785 Si / 1000 Ang^3
#
#
#
# Elastic Constant Matrix: (Units=GPa)
#
#
# Indices 1 2 3 4 5 6 
#
# 1 89.7295 2.1802 32.6296 0.0000 0.0000 0.0000
# 2 2.1802 42.2873 31.1897 0.0000 0.0000 0.0000
# 3 32.6296 31.1897 137.7051 0.0000 0.0000 0.0000
# 4 0.0000 0.0000 0.0000 22.2917 0.0000 0.0000
# 5 0.0000 0.0000 0.0000 0.0000 19.6591 0.0000
# 6 0.0000 0.0000 0.0000 0.0000 0.0000 22.6159
#
#
#
# Elastic Compliance Matrix: (Units=1/GPa)
#
#
# Indices 1 2 3 4 5 6 
#
# 1 0.012311 0.001821 -0.003330 0.000000 0.000000 0.000000
# 2 0.001821 0.028660 -0.006923 0.000000 0.000000 0.000000
# 3 -0.003330 -0.006923 0.009619 0.000000 0.000000 0.000000
# 4 0.000000 0.000000 0.000000 0.044860 0.000000 0.000000
# 5 0.000000 0.000000 0.000000 0.000000 0.050867 0.000000
# 6 0.000000 0.000000 0.000000 0.000000 0.000000 0.044217
#
#
# Mechanical properties :
#
#
# Convention : Reuss Voigt Hill
#
# Bulk Modulus (GPa) = 29.64966 44.63565 37.14266
# Shear Modulus (GPa) = 22.86878 26.49484 24.68181
#
# Velocity S-wave (km/s) = 3.23012 3.47679 3.35572
# Velocity P-wave (km/s) = 5.23823 6.04004 5.65336
#
# Compressibility (1/GPa) = 0.03372720
#
# Stress axis : x y z
#
# Youngs Moduli (GPa) = 81.22705 34.89182 103.96223
#
# Poissons Ratio (x) = -0.06354 0.34616
# Poissons Ratio (y) = -0.14792 0.71972
# Poissons Ratio (z) = 0.27046 0.24155
#
# Static dielectric constant tensor:
#      x y z
#    x 2.305290 0.000000 0.000000 
#    y 0.000000 1.824410 0.000000 
#    z 0.000000 0.000000 1.846200 
# 
# From -- ./inp_files/20524.got.cif
#   From: 2010.05.17/outbox.cif.g08.bks.cpg/sg43_11_cif.got.tgz:20524.got - 2010.06.03 19:21:55.
