data_PCOD9372936
_publ_section_title
;
Structure prediction by ZEFSAII (Michael W. Deem and Ramdas Pophale) SiO2 
 PCOD9372936
Probable space group: F D D 2
;
_chemical_formula_sum "Si O2"
_cell_formula_units_Z 64
_cell_length_a 36.337689
_cell_length_b 13.128838
_cell_length_c 4.777698
_cell_angle_alpha 90.000000
_cell_angle_beta 90.000000
_cell_angle_gamma 90.000000
_cell_volume 2279.304183
_symmetry_space_group_name_H-M "F D D 2"
_symmetry_group_IT_number 43
_symmetry_cell_setting 'orthorhombic'
loop_
_space_group_symop_operation_xyz
x,y,z
-x,-y,z
1/4-x,1/4+y,1/4+z
1/4+x,1/4-y,1/4+z
x,1/2+y,1/2+z
-x,1/2-y,1/2+z
1/4-x,3/4+y,3/4+z
1/4+x,3/4-y,3/4+z
1/2+x,y,1/2+z
1/2-x,-y,1/2+z
3/4-x,1/4+y,3/4+z
3/4+x,1/4-y,3/4+z
1/2+x,1/2+y,z
1/2-x,1/2-y,z
3/4-x,3/4+y,1/4+z
3/4+x,3/4-y,1/4+z
loop_
_atom_site_type_symbol
_atom_site_label
_atom_site_fract_x
_atom_site_fract_y
_atom_site_fract_z
Si Si1 0.072298 0.367439 0.194090
Si Si2 0.195544 0.808592 0.127555
Si Si3 0.157375 0.404014 0.161583
Si Si4 0.509932 0.817315 0.588617
O O1 0.113475 0.411283 0.173656
O O2 0.050194 0.351851 0.483793
O O3 0.076629 0.256923 0.050152
O O4 0.048796 0.450778 0.025042
O O5 0.257668 0.028372 0.047070
O O6 0.167613 0.810823 0.867290
O O7 0.232073 0.853892 0.983607
O O8 0.174769 0.378115 0.861185
#
# Coordination Sequence:
#
# PCOD9372936 Si02
#       4
#    16  16  16  16
#     4  12  30  59  98 131 185 247 312 385 462 556
#     4  12  30  57  90 137 177 245 300 380 469 552
#     4  12  29  55  95 132 180 239 320 379 457 552
#     4  12  29  59  92 133 197 243 305 388 473 557
#
# _framework density 28.078745999999999
#
# number of rings (size 3 to 8) (size 9 to 14) (size 15 to 20)
#    0.000    0.000    5.000    1.500    3.500    6.000 
#    9.000    2.500    0.000    0.000    0.000    0.000 
#    0.000    0.000    0.000    0.000    0.000    0.000 
#
# Total GULP energy -89775.573646 kJ/mol
# GULP energy per Si atom -5610.973353 kJ/mol
# Density = 2.801484 g / cm^3
# Si number density = 28.078746 Si / 1000 Ang^3
#
#
#
# Elastic Constant Matrix: (Units=GPa)
#
#
# Indices 1 2 3 4 5 6 
#
# 1 181.8546 52.3933 76.9820 0.0004 0.0003 0.0001
# 2 52.3933 162.7084 64.5736 0.0007 0.0001 0.0003
# 3 76.9820 64.5736 225.5252 0.0012 0.0015 0.0004
# 4 0.0004 0.0007 0.0012 66.7766 0.0003 0.0006
# 5 0.0003 0.0001 0.0015 0.0003 53.7537 0.0002
# 6 0.0001 0.0003 0.0004 0.0006 0.0002 53.1261
#
#
#
# Elastic Compliance Matrix: (Units=1/GPa)
#
#
# Indices 1 2 3 4 5 6 
#
# 1 0.006703 -0.001411 -0.001884 0.000000 0.000000 0.000000
# 2 -0.001411 0.007231 -0.001589 0.000000 0.000000 0.000000
# 3 -0.001884 -0.001589 0.005532 0.000000 0.000000 0.000000
# 4 0.000000 0.000000 0.000000 0.014975 0.000000 0.000000
# 5 0.000000 0.000000 0.000000 0.000000 0.018603 0.000000
# 6 0.000000 0.000000 0.000000 0.000000 0.000000 0.018823
#
#
# Mechanical properties :
#
#
# Convention : Reuss Voigt Hill
#
# Bulk Modulus (GPa) = 103.10721 106.44287 104.77504
# Shear Modulus (GPa) = 58.91529 59.80724 59.36126
#
# Velocity S-wave (km/s) = 4.58560 4.62018 4.60292
# Velocity P-wave (km/s) = 8.05217 8.15184 8.10215
#
# Compressibility (1/GPa) = 0.00969864
#
# Stress axis : x y z
#
# Youngs Moduli (GPa) = 149.18963 138.29813 180.76169
#
# Poissons Ratio (x) = 0.19509 0.34057
# Poissons Ratio (y) = 0.21045 0.28720
# Poissons Ratio (z) = 0.28109 0.21973
#
# Static dielectric constant tensor:
#      x y z
#    x 2.210120 0.000000 0.000000 
#    y 0.000000 2.274610 0.000000 
#    z 0.000000 0.000000 2.121890 
# 
# From -- ./inp_files/643.got.cif
#   From: 2010.05.17/outbox.cif.g08.bks.cpg/sg43_1_cif.got.tgz:643.got - 2010.06.03 19:21:55.
