data_PCOD9372609
_publ_section_title
;
Structure prediction by ZEFSAII (Michael W. Deem and Ramdas Pophale) SiO2 
 PCOD9372609
Probable space group: F D D 2
;
_chemical_formula_sum "Si O2"
_cell_formula_units_Z 96
_cell_length_a 13.009851
_cell_length_b 18.583111
_cell_length_c 15.162528
_cell_angle_alpha 90.000000
_cell_angle_beta 90.000000
_cell_angle_gamma 90.000000
_cell_volume 3665.745917
_symmetry_space_group_name_H-M "F D D 2"
_symmetry_group_IT_number 43
_symmetry_cell_setting 'orthorhombic'
loop_
_space_group_symop_operation_xyz
x,y,z
-x,-y,z
1/4-x,1/4+y,1/4+z
1/4+x,1/4-y,1/4+z
x,1/2+y,1/2+z
-x,1/2-y,1/2+z
1/4-x,3/4+y,3/4+z
1/4+x,3/4-y,3/4+z
1/2+x,y,1/2+z
1/2-x,-y,1/2+z
3/4-x,1/4+y,3/4+z
3/4+x,1/4-y,3/4+z
1/2+x,1/2+y,z
1/2-x,1/2-y,z
3/4-x,3/4+y,1/4+z
3/4+x,3/4-y,1/4+z
loop_
_atom_site_type_symbol
_atom_site_label
_atom_site_fract_x
_atom_site_fract_y
_atom_site_fract_z
Si Si1 0.038984 0.727866 0.975620
Si Si2 0.750000 0.250000 0.075392
Si Si3 0.042429 0.614573 0.463119
Si Si4 0.000000 0.500000 0.137028
Si Si5 0.345631 0.524259 0.020579
Si Si6 0.885273 0.723837 0.720535
Si Si7 0.336022 0.135969 0.005299
O O1 0.066153 0.723786 0.872642
O O2 0.983044 0.804606 0.994664
O O3 0.151939 0.721775 0.020815
O O4 0.949511 0.672256 0.001753
O O5 0.809005 0.197598 0.145085
O O6 0.128769 0.559365 0.499358
O O7 0.057537 0.619553 0.357812
O O8 0.940879 0.570875 0.490606
O O9 0.913338 0.474453 0.067947
O O10 0.998127 0.433798 0.204105
O O11 0.247859 0.557208 0.969509
O O12 0.903499 0.809245 0.708801
#
# Coordination Sequence:
#
# PCOD9372609 Si02
#       7
#    16   8  16   8  16  16  16
#     4  12  27  49  74 109 149 192 245 299 373 436
#     4  11  28  46  69 108 142 194 235 302 376 419
#     4  11  26  45  78 108 148 190 247 303 363 435
#     4  11  24  44  69 104 138 190 245 290 356 427
#     4  11  24  48  72 109 145 192 245 303 356 436
#     4  11  26  46  70 104 147 191 248 295 360 436
#     4  12  25  45  74 106 143 195 241 299 358 435
#
# _framework density 26.188395
#
# number of rings (size 3 to 8) (size 9 to 14) (size 15 to 20)
#    0.000    0.667    3.333    3.000    9.333    4.000 
#    3.000    0.000    0.000    0.000    0.000    0.000 
#    0.000    0.000    0.000    0.000    0.000    0.000 
#
# Total GULP energy -134341.245042 kJ/mol
# GULP energy per Si atom -5597.551877 kJ/mol
# Density = 2.612879 g / cm^3
# Si number density = 26.188395 Si / 1000 Ang^3
#
#
#
# Elastic Constant Matrix: (Units=GPa)
#
#
# Indices 1 2 3 4 5 6 
#
# 1 175.7346 -0.7514 43.4401 0.0000 0.0000 0.0000
# 2 -0.7514 109.7267 -1.9176 0.0000 0.0000 0.0000
# 3 43.4401 -1.9176 122.0867 0.0000 0.0000 0.0000
# 4 0.0000 0.0000 0.0000 18.4765 0.0000 0.0000
# 5 0.0000 0.0000 0.0000 0.0000 18.3846 0.0000
# 6 0.0000 0.0000 0.0000 0.0000 0.0000 37.8429
#
#
#
# Elastic Compliance Matrix: (Units=1/GPa)
#
#
# Indices 1 2 3 4 5 6 
#
# 1 0.006239 0.000004 -0.002220 0.000000 0.000000 0.000000
# 2 0.000004 0.009116 0.000142 0.000000 0.000000 0.000000
# 3 -0.002220 0.000142 0.008983 0.000000 0.000000 0.000000
# 4 0.000000 0.000000 0.000000 0.054123 0.000000 0.000000
# 5 0.000000 0.000000 0.000000 0.000000 0.054393 0.000000
# 6 0.000000 0.000000 0.000000 0.000000 0.000000 0.026425
#
#
# Mechanical properties :
#
#
# Convention : Reuss Voigt Hill
#
# Bulk Modulus (GPa) = 49.52989 54.34335 51.93662
# Shear Modulus (GPa) = 29.38445 39.39257 34.38851
#
# Velocity S-wave (km/s) = 3.35332 3.88261 3.62763
# Velocity P-wave (km/s) = 5.82641 6.39496 6.11729
#
# Compressibility (1/GPa) = 0.02018983
#
# Stress axis : x y z
#
# Youngs Moduli (GPa) = 160.27792 109.69650 111.32132
#
# Poissons Ratio (x) = -0.00043 0.24712
# Poissons Ratio (y) = -0.00063 -0.01578
# Poissons Ratio (z) = 0.35580 -0.01555
#
# Static dielectric constant tensor:
#      x y z
#    x 2.125590 0.000000 0.000000 
#    y 0.000000 2.094230 0.000000 
#    z 0.000000 0.000000 2.014780 
# 
# From -- ./inp_files/10114.got.cif
#   From: 2010.05.17/outbox.cif.g08.bks.cpg/sg43_6_cif.got.tgz:10114.got - 2010.06.03 19:21:55.
