data_PCOD9372694
_publ_section_title
;
Structure prediction by ZEFSAII (Michael W. Deem and Ramdas Pophale) SiO2 
 PCOD9372694
Probable space group: F D D 2
;
_chemical_formula_sum "Si O2"
_cell_formula_units_Z 64
_cell_length_a 16.096411
_cell_length_b 11.170634
_cell_length_c 15.239830
_cell_angle_alpha 90.000000
_cell_angle_beta 90.000000
_cell_angle_gamma 90.000000
_cell_volume 2740.229881
_symmetry_space_group_name_H-M "F D D 2"
_symmetry_group_IT_number 43
_symmetry_cell_setting 'orthorhombic'
loop_
_space_group_symop_operation_xyz
x,y,z
-x,-y,z
1/4-x,1/4+y,1/4+z
1/4+x,1/4-y,1/4+z
x,1/2+y,1/2+z
-x,1/2-y,1/2+z
1/4-x,3/4+y,3/4+z
1/4+x,3/4-y,3/4+z
1/2+x,y,1/2+z
1/2-x,-y,1/2+z
3/4-x,1/4+y,3/4+z
3/4+x,1/4-y,3/4+z
1/2+x,1/2+y,z
1/2-x,1/2-y,z
3/4-x,3/4+y,1/4+z
3/4+x,3/4-y,1/4+z
loop_
_atom_site_type_symbol
_atom_site_label
_atom_site_fract_x
_atom_site_fract_y
_atom_site_fract_z
Si Si1 0.630820 0.682542 0.888180
Si Si2 0.664340 0.687367 0.374738
Si Si3 0.031577 0.875404 0.935295
Si Si4 0.948075 0.823298 0.694815
O O1 0.556269 0.683814 0.958689
O O2 0.586223 0.658966 0.794192
O O3 0.703352 0.593926 0.923222
O O4 0.662901 0.818071 0.886672
O O5 0.750000 0.750000 0.404476
O O6 0.588228 0.776900 0.389882
O O7 0.671315 0.663948 0.271869
O O8 0.664401 0.556344 0.417631
O O9 0.000000 0.000000 0.891805
#
# Coordination Sequence:
#
# PCOD9372694 Si02
#       4
#    16  16  16  16
#     4  11  26  44  79 110 160 205 266 321 401 473
#     4  11  25  44  73 106 153 196 267 317 400 467
#     4  11  26  44  72 106 149 203 255 322 390 473
#     4  11  25  48  75 115 155 207 258 331 395 470
#
# _framework density 23.355705
#
# number of rings (size 3 to 8) (size 9 to 14) (size 15 to 20)
#    0.000    1.000    0.000    4.500   14.000    3.000 
#    0.000    0.000    0.000    0.000    0.000    0.000 
#    0.000    0.000    0.000    0.000    0.000    0.000 
#
# Total GULP energy -89291.232034 kJ/mol
# GULP energy per Si atom -5580.702002 kJ/mol
# Density = 2.330255 g / cm^3
# Si number density = 23.355705 Si / 1000 Ang^3
#
#
#
# Elastic Constant Matrix: (Units=GPa)
#
#
# Indices 1 2 3 4 5 6 
#
# 1 180.9314 80.8805 64.1334 0.0000 0.0000 0.0000
# 2 80.8805 178.4947 71.5223 0.0000 0.0000 0.0000
# 3 64.1334 71.5223 122.6145 0.0000 0.0000 0.0000
# 4 0.0000 0.0000 0.0000 39.9912 0.0000 0.0000
# 5 0.0000 0.0000 0.0000 0.0000 27.3933 0.0000
# 6 0.0000 0.0000 0.0000 0.0000 0.0000 52.4740
#
#
#
# Elastic Compliance Matrix: (Units=1/GPa)
#
#
# Indices 1 2 3 4 5 6 
#
# 1 0.007487 -0.002379 -0.002528 0.000000 0.000000 0.000000
# 2 -0.002379 0.008068 -0.003461 0.000000 0.000000 0.000000
# 3 -0.002528 -0.003461 0.011497 0.000000 0.000000 0.000000
# 4 0.000000 0.000000 0.000000 0.025006 0.000000 0.000000
# 5 0.000000 0.000000 0.000000 0.000000 0.036505 0.000000
# 6 0.000000 0.000000 0.000000 0.000000 0.000000 0.019057
#
#
# Mechanical properties :
#
#
# Convention : Reuss Voigt Hill
#
# Bulk Modulus (GPa) = 96.95837 101.67922 99.31879
# Shear Modulus (GPa) = 39.12538 41.67199 40.39868
#
# Velocity S-wave (km/s) = 4.09736 4.22860 4.16349
# Velocity P-wave (km/s) = 7.99927 8.21407 8.10738
#
# Compressibility (1/GPa) = 0.01031370
#
# Stress axis : x y z
#
# Youngs Moduli (GPa) = 133.57031 123.95355 86.98013
#
# Poissons Ratio (x) = 0.29494 0.21988
# Poissons Ratio (y) = 0.31783 0.30106
# Poissons Ratio (z) = 0.33766 0.42904
#
# Static dielectric constant tensor:
#      x y z
#    x 1.983400 0.000000 0.000000 
#    y 0.000000 2.016360 0.000000 
#    z 0.000000 0.000000 1.952910 
# 
# From -- ./inp_files/14128.got.cif
#   From: 2010.05.17/outbox.cif.g08.bks.cpg/sg43_8_cif.got.tgz:14128.got - 2010.06.03 19:21:55.
