data_PCOD9372678
_publ_section_title
;
Structure prediction by ZEFSAII (Michael W. Deem and Ramdas Pophale) SiO2 
 PCOD9372678
Probable space group: F D D 2
;
_chemical_formula_sum "Si O2"
_cell_formula_units_Z 88
_cell_length_a 9.529003
_cell_length_b 20.379626
_cell_length_c 18.760837
_cell_angle_alpha 90.000000
_cell_angle_beta 90.000000
_cell_angle_gamma 90.000000
_cell_volume 3643.307968
_symmetry_space_group_name_H-M "F D D 2"
_symmetry_group_IT_number 43
_symmetry_cell_setting 'orthorhombic'
loop_
_space_group_symop_operation_xyz
x,y,z
-x,-y,z
1/4-x,1/4+y,1/4+z
1/4+x,1/4-y,1/4+z
x,1/2+y,1/2+z
-x,1/2-y,1/2+z
1/4-x,3/4+y,3/4+z
1/4+x,3/4-y,3/4+z
1/2+x,y,1/2+z
1/2-x,-y,1/2+z
3/4-x,1/4+y,3/4+z
3/4+x,1/4-y,3/4+z
1/2+x,1/2+y,z
1/2-x,1/2-y,z
3/4-x,3/4+y,1/4+z
3/4+x,3/4-y,1/4+z
loop_
_atom_site_type_symbol
_atom_site_label
_atom_site_fract_x
_atom_site_fract_y
_atom_site_fract_z
Si Si1 0.004668 0.814039 0.287200
Si Si2 0.000468 0.184466 0.937877
Si Si3 0.722874 0.858656 0.325477
Si Si4 0.000000 0.000000 0.625407
Si Si5 0.667395 0.498248 0.893401
Si Si6 0.624308 0.455902 0.290795
O O1 0.136459 0.786152 0.328053
O O2 0.053971 0.887968 0.264517
O O3 0.869625 0.822607 0.338122
O O4 0.962804 0.763969 0.224507
O O5 0.160439 0.201053 0.922593
O O6 0.909209 0.171924 0.866719
O O7 0.012181 0.121134 0.990045
O O8 0.933929 0.247068 0.978675
O O9 0.720685 0.931865 0.355588
O O10 0.500000 0.500000 0.885025
O O11 0.752456 0.553411 0.849284
O O12 0.500000 0.500000 0.324912
#
# Coordination Sequence:
#
# PCOD9372678 Si02
#       6
#    16  16  16   8  16  16
#     4  12  28  49  74 114 154 205 258 322 395 475
#     4  11  27  49  75 113 148 204 254 321 396 463
#     4  11  24  48  80 104 149 202 254 316 399 470
#     4  12  34  42  72 114 152 202 258 326 368 484
#     4  11  26  47  75 115 147 202 255 322 396 476
#     4  11  24  48  80 107 153 200 257 321 395 477
#
# _framework density 24.153873999999998
#
# number of rings (size 3 to 8) (size 9 to 14) (size 15 to 20)
#    0.000    0.727    5.455    0.000   16.545    0.000 
#    0.000    0.000    0.000    0.000    0.000    0.000 
#    0.000    0.000    0.000    0.000    0.000    0.000 
#
# Total GULP energy -123033.927634 kJ/mol
# GULP energy per Si atom -5592.451256 kJ/mol
# Density = 2.409890 g / cm^3
# Si number density = 24.153874 Si / 1000 Ang^3
#
#
#
# Elastic Constant Matrix: (Units=GPa)
#
#
# Indices 1 2 3 4 5 6 
#
# 1 199.9507 25.3325 68.8762 0.0000 0.0000 0.0000
# 2 25.3325 64.9530 33.7880 0.0000 0.0000 0.0000
# 3 68.8762 33.7880 100.7536 0.0000 0.0000 0.0000
# 4 0.0000 0.0000 0.0000 30.8332 0.0000 0.0000
# 5 0.0000 0.0000 0.0000 0.0000 51.4907 0.0000
# 6 0.0000 0.0000 0.0000 0.0000 0.0000 44.5413
#
#
#
# Elastic Compliance Matrix: (Units=1/GPa)
#
#
# Indices 1 2 3 4 5 6 
#
# 1 0.006546 -0.000273 -0.004383 0.000000 0.000000 0.000000
# 2 -0.000273 0.018660 -0.006071 0.000000 0.000000 0.000000
# 3 -0.004383 -0.006071 0.014958 0.000000 0.000000 0.000000
# 4 0.000000 0.000000 0.000000 0.032433 0.000000 0.000000
# 5 0.000000 0.000000 0.000000 0.000000 0.019421 0.000000
# 6 0.000000 0.000000 0.000000 0.000000 0.000000 0.022451
#
#
# Mechanical properties :
#
#
# Convention : Reuss Voigt Hill
#
# Bulk Modulus (GPa) = 53.45006 69.07232 61.26119
# Shear Modulus (GPa) = 35.17180 41.21708 38.19444
#
# Velocity S-wave (km/s) = 3.82010 4.13539 3.98087
# Velocity P-wave (km/s) = 6.45249 7.17362 6.82259
#
# Compressibility (1/GPa) = 0.01870905
#
# Stress axis : x y z
#
# Youngs Moduli (GPa) = 152.77298 53.58937 66.85540
#
# Poissons Ratio (x) = 0.01462 0.29304
# Poissons Ratio (y) = 0.04167 0.40590
# Poissons Ratio (z) = 0.66964 0.32536
#
# Static dielectric constant tensor:
#      x y z
#    x 1.909510 0.000000 0.000000 
#    y 0.000000 2.157510 0.000000 
#    z 0.000000 0.000000 2.024830 
# 
# From -- ./inp_files/16395.got.cif
#   From: 2010.05.17/outbox.cif.g08.bks.cpg/sg43_9_cif.got.tgz:16395.got - 2010.06.03 19:21:55.
