data_PCOD9372907
_publ_section_title
;
Structure prediction by ZEFSAII (Michael W. Deem and Ramdas Pophale) SiO2 
 PCOD9372907
Probable space group: F D D 2
;
_chemical_formula_sum "Si O2"
_cell_formula_units_Z 88
_cell_length_a 20.623106
_cell_length_b 17.536999
_cell_length_c 10.581969
_cell_angle_alpha 90.000000
_cell_angle_beta 90.000000
_cell_angle_gamma 90.000000
_cell_volume 3827.153102
_symmetry_space_group_name_H-M "F D D 2"
_symmetry_group_IT_number 43
_symmetry_cell_setting 'orthorhombic'
loop_
_space_group_symop_operation_xyz
x,y,z
-x,-y,z
1/4-x,1/4+y,1/4+z
1/4+x,1/4-y,1/4+z
x,1/2+y,1/2+z
-x,1/2-y,1/2+z
1/4-x,3/4+y,3/4+z
1/4+x,3/4-y,3/4+z
1/2+x,y,1/2+z
1/2-x,-y,1/2+z
3/4-x,1/4+y,3/4+z
3/4+x,1/4-y,3/4+z
1/2+x,1/2+y,z
1/2-x,1/2-y,z
3/4-x,3/4+y,1/4+z
3/4+x,3/4-y,1/4+z
loop_
_atom_site_type_symbol
_atom_site_label
_atom_site_fract_x
_atom_site_fract_y
_atom_site_fract_z
Si Si1 0.388924 0.760642 0.946490
Si Si2 0.074340 0.411196 0.931714
Si Si3 0.048005 0.620896 0.774509
Si Si4 0.616598 0.992364 0.189246
Si Si5 0.757250 0.091207 0.770108
Si Si6 0.500000 0.000000 0.385213
O O1 0.399522 0.822243 0.836099
O O2 0.456585 0.716722 0.959065
O O3 0.370491 0.803861 0.074356
O O4 0.333616 0.695774 0.945727
O O5 0.096568 0.323309 0.937403
O O6 0.999851 0.410775 0.882559
O O7 0.086215 0.459277 0.059332
O O8 0.003237 0.662754 0.671731
O O9 0.670489 0.932106 0.232094
O O10 0.561616 0.001738 0.293667
O O11 0.744433 0.175000 0.719063
#
# Coordination Sequence:
#
# PCOD9372907 Si02
#       6
#    16  16  16  16  16   8
#     4  12  28  47  79 115 157 208 272 331 405 482
#     4  12  27  50  77 120 156 214 262 337 405 491
#     4  12  28  49  80 113 165 210 271 334 404 485
#     4  12  27  50  82 112 163 209 269 336 421 482
#     4  12  28  51  78 115 161 207 272 341 413 489
#     4  12  30  50  78 118 154 214 274 338 418 492
#
# _framework density 22.993593000000001
#
# number of rings (size 3 to 8) (size 9 to 14) (size 15 to 20)
#    0.000    0.000    3.636    4.909   12.727    1.455 
#    0.000    0.000    0.000    0.000    0.000    0.000 
#    0.000    0.000    0.000    0.000    0.000    0.000 
#
# Total GULP energy -123260.583393 kJ/mol
# GULP energy per Si atom -5602.753791 kJ/mol
# Density = 2.294126 g / cm^3
# Si number density = 22.993593 Si / 1000 Ang^3
#
#
#
# Elastic Constant Matrix: (Units=GPa)
#
#
# Indices 1 2 3 4 5 6 
#
# 1 124.5814 31.6739 26.9036 0.0000 0.0000 0.0000
# 2 31.6739 128.4293 42.2015 0.0000 0.0000 0.0000
# 3 26.9036 42.2015 108.3696 0.0000 0.0000 0.0000
# 4 0.0000 0.0000 0.0000 26.3637 0.0000 0.0000
# 5 0.0000 0.0000 0.0000 0.0000 35.2619 0.0000
# 6 0.0000 0.0000 0.0000 0.0000 0.0000 39.9538
#
#
#
# Elastic Compliance Matrix: (Units=1/GPa)
#
#
# Indices 1 2 3 4 5 6 
#
# 1 0.008780 -0.001662 -0.001533 0.000000 0.000000 0.000000
# 2 -0.001662 0.009243 -0.003187 0.000000 0.000000 0.000000
# 3 -0.001533 -0.003187 0.010849 0.000000 0.000000 0.000000
# 4 0.000000 0.000000 0.000000 0.037931 0.000000 0.000000
# 5 0.000000 0.000000 0.000000 0.000000 0.028359 0.000000
# 6 0.000000 0.000000 0.000000 0.000000 0.000000 0.025029
#
#
# Mechanical properties :
#
#
# Convention : Reuss Voigt Hill
#
# Bulk Modulus (GPa) = 62.07296 62.54870 62.31083
# Shear Modulus (GPa) = 36.14669 37.68930 36.91799
#
# Velocity S-wave (km/s) = 3.96919 4.05300 4.01131
# Velocity P-wave (km/s) = 6.93255 7.01171 6.97225
#
# Compressibility (1/GPa) = 0.01611007
#
# Stress axis : x y z
#
# Youngs Moduli (GPa) = 113.89042 108.18417 92.17203
#
# Poissons Ratio (x) = 0.17978 0.14127
# Poissons Ratio (y) = 0.18927 0.29376
# Poissons Ratio (z) = 0.17455 0.34479
#
# Static dielectric constant tensor:
#      x y z
#    x 1.871520 0.000000 0.000000 
#    y 0.000000 2.011720 0.000000 
#    z 0.000000 0.000000 1.872560 
# 
# From -- ./inp_files/7037.got.cif
#   From: 2010.05.17/outbox.cif.g08.bks.cpg/sg43_4_cif.got.tgz:7037.got - 2010.06.03 19:21:55.
