data_PCOD9372115
_publ_section_title
;
Structure prediction by ZEFSAII (Michael W. Deem and Ramdas Pophale) SiO2 
 PCOD9372115
Probable space group: F D D 2
;
_chemical_formula_sum "Si O2"
_cell_formula_units_Z 88
_cell_length_a 25.336773
_cell_length_b 20.599930
_cell_length_c 8.330484
_cell_angle_alpha 90.000000
_cell_angle_beta 90.000000
_cell_angle_gamma 90.000000
_cell_volume 4347.977416
_symmetry_space_group_name_H-M "F D D 2"
_symmetry_group_IT_number 43
_symmetry_cell_setting 'orthorhombic'
loop_
_space_group_symop_operation_xyz
x,y,z
-x,-y,z
1/4-x,1/4+y,1/4+z
1/4+x,1/4-y,1/4+z
x,1/2+y,1/2+z
-x,1/2-y,1/2+z
1/4-x,3/4+y,3/4+z
1/4+x,3/4-y,3/4+z
1/2+x,y,1/2+z
1/2-x,-y,1/2+z
3/4-x,1/4+y,3/4+z
3/4+x,1/4-y,3/4+z
1/2+x,1/2+y,z
1/2-x,1/2-y,z
3/4-x,3/4+y,1/4+z
3/4+x,3/4-y,1/4+z
loop_
_atom_site_type_symbol
_atom_site_label
_atom_site_fract_x
_atom_site_fract_y
_atom_site_fract_z
Si Si1 0.215343 0.462109 0.871460
Si Si2 0.000000 0.500000 0.286998
Si Si3 0.071564 0.263808 0.955783
Si Si4 0.599256 0.448162 0.946366
Si Si5 0.332014 0.175372 0.810496
Si Si6 0.127296 0.046310 0.236468
O O1 0.276161 0.461370 0.823150
O O2 0.187102 0.398074 0.805098
O O3 0.184891 0.520404 0.784635
O O4 0.204529 0.474294 0.059103
O O5 0.961706 0.545116 0.393122
O O6 0.960041 0.460092 0.175205
O O7 0.109025 0.320093 0.884376
O O8 0.112380 0.220073 0.052741
O O9 0.615744 0.373752 0.972361
O O10 0.608547 0.501210 0.088684
O O11 0.337960 0.210606 0.638992
#
# Coordination Sequence:
#
# PCOD9372115 Si02
#       6
#    16   8  16  16  16  16
#     4  11  23  43  69 103 133 190 233 293 360 429
#     4  10  26  44  68  98 138 190 228 292 356 424
#     4  10  25  41  68  99 139 182 239 290 355 427
#     4  11  25  44  70 103 139 185 238 300 353 431
#     4  10  24  46  67 101 142 182 236 294 359 424
#     4  11  24  45  70 102 142 180 238 297 359 427
#
# _framework density 20.239296
#
# number of rings (size 3 to 8) (size 9 to 14) (size 15 to 20)
#    0.000    1.455    1.818    1.091   10.182    3.636 
#    3.273    0.000    0.000    0.000    0.000    0.000 
#    0.000    0.000    0.000    0.000    0.000    0.000 
#
# Total GULP energy -122763.826933 kJ/mol
# GULP energy per Si atom -5580.173951 kJ/mol
# Density = 2.019323 g / cm^3
# Si number density = 20.239296 Si / 1000 Ang^3
#
#
#
# Elastic Constant Matrix: (Units=GPa)
#
#
# Indices 1 2 3 4 5 6 
#
# 1 127.7741 28.2654 52.1171 0.0000 -0.0001 0.0000
# 2 28.2654 92.5124 22.6969 -0.0001 0.0002 0.0000
# 3 52.1171 22.6969 103.8039 0.0000 0.0006 -0.0001
# 4 0.0000 -0.0001 0.0000 16.8839 0.0003 -0.0001
# 5 -0.0001 0.0002 0.0006 0.0003 20.1160 0.0000
# 6 0.0000 0.0000 -0.0001 -0.0001 0.0000 14.6887
#
#
#
# Elastic Compliance Matrix: (Units=1/GPa)
#
#
# Indices 1 2 3 4 5 6 
#
# 1 0.010167 -0.001959 -0.004676 0.000000 0.000000 0.000000
# 2 -0.001959 0.011800 -0.001596 0.000000 0.000000 0.000000
# 3 -0.004676 -0.001596 0.012330 0.000000 0.000000 0.000000
# 4 0.000000 0.000000 0.000000 0.059228 -0.000001 0.000000
# 5 0.000000 0.000000 0.000000 -0.000001 0.049712 0.000000
# 6 0.000000 0.000000 0.000000 0.000000 0.000000 0.068079
#
#
# Mechanical properties :
#
#
# Convention : Reuss Voigt Hill
#
# Bulk Modulus (GPa) = 56.07391 58.91658 57.49524
# Shear Modulus (GPa) = 21.39276 25.07181 23.23228
#
# Velocity S-wave (km/s) = 3.25467 3.52343 3.39171
# Velocity P-wave (km/s) = 6.47220 6.76210 6.61874
#
# Compressibility (1/GPa) = 0.01783361
#
# Stress axis : x y z
#
# Youngs Moduli (GPa) = 98.35681 84.74880 81.10023
#
# Poissons Ratio (x) = 0.16603 0.37925
# Poissons Ratio (y) = 0.19269 0.12947
# Poissons Ratio (z) = 0.45994 0.13529
#
# Static dielectric constant tensor:
#      x y z
#    x 1.687570 0.000000 0.000000 
#    y 0.000000 1.742400 0.000000 
#    z 0.000000 0.000000 1.773720 
# 
# From -- ./inp_files/3203.got.cif
#   From: 2010.05.17/outbox.cif.g08.bks.cpg/sg43_2_cif.got.tgz:3203.got - 2010.06.03 19:21:55.
