data_PCOD9372086
_publ_section_title
;
Structure prediction by ZEFSAII (Michael W. Deem and Ramdas Pophale) SiO2 
 PCOD9372086
Probable space group: F D D 2
;
_chemical_formula_sum "Si O2"
_cell_formula_units_Z 120
_cell_length_a 24.927075
_cell_length_b 18.551515
_cell_length_c 11.834769
_cell_angle_alpha 90.000000
_cell_angle_beta 90.000000
_cell_angle_gamma 90.000000
_cell_volume 5472.811471
_symmetry_space_group_name_H-M "F D D 2"
_symmetry_group_IT_number 43
_symmetry_cell_setting 'orthorhombic'
loop_
_space_group_symop_operation_xyz
x,y,z
-x,-y,z
1/4-x,1/4+y,1/4+z
1/4+x,1/4-y,1/4+z
x,1/2+y,1/2+z
-x,1/2-y,1/2+z
1/4-x,3/4+y,3/4+z
1/4+x,3/4-y,3/4+z
1/2+x,y,1/2+z
1/2-x,-y,1/2+z
3/4-x,1/4+y,3/4+z
3/4+x,1/4-y,3/4+z
1/2+x,1/2+y,z
1/2-x,1/2-y,z
3/4-x,3/4+y,1/4+z
3/4+x,3/4-y,1/4+z
loop_
_atom_site_type_symbol
_atom_site_label
_atom_site_fract_x
_atom_site_fract_y
_atom_site_fract_z
Si Si1 0.708182 0.960501 0.868380
Si Si2 0.500000 0.500000 0.613362
Si Si3 0.644015 0.893468 0.056289
Si Si4 0.527790 0.373047 0.477215
Si Si5 0.645512 0.369883 0.942286
Si Si6 0.480997 0.136701 0.715472
Si Si7 0.853373 0.273152 0.513760
Si Si8 0.378555 0.047898 0.674824
O O1 0.765422 0.942211 0.812750
O O2 0.663074 0.940099 0.776800
O O3 0.706700 0.043365 0.904483
O O4 0.694135 0.914705 0.979163
O O5 0.488849 0.434357 0.528151
O O6 0.452063 0.522156 0.695171
O O7 0.642048 0.806855 0.066540
O O8 0.643035 0.944986 0.165899
O O9 0.587542 0.905083 0.989628
O O10 0.516317 0.350936 0.350268
O O11 0.709370 0.374001 0.919981
O O12 0.610052 0.420841 0.863452
O O13 0.628112 0.288480 0.915170
O O14 0.638125 0.403317 0.067783
O O15 0.439289 0.071737 0.701703
#
# Coordination Sequence:
#
# PCOD9372086 Si02
#       8
#    16   8  16  16  16  16  16  16
#     4  12  24  43  71 110 145 186 246 314 375 442
#     4  10  24  44  74 102 140 192 248 312 366 452
#     4  11  23  42  72  99 144 181 243 300 371 434
#     4  11  23  41  71 105 139 187 245 299 371 440
#     4  12  27  49  73 103 155 199 251 311 383 461
#     4  12  26  44  75 109 147 198 253 312 380 458
#     4  11  24  47  67 105 142 196 240 306 371 450
#     4  12  26  48  72 107 149 197 252 314 377 457
#
# _framework density 21.926572
#
# number of rings (size 3 to 8) (size 9 to 14) (size 15 to 20)
#    0.000    0.533    5.333    2.800    1.867    1.067 
#    4.800    0.000    0.000    0.000    0.000    0.000 
#    0.000    0.000    0.000    0.000    0.000    0.000 
#
# Total GULP energy -167509.753291 kJ/mol
# GULP energy per Si atom -5583.658443 kJ/mol
# Density = 2.187667 g / cm^3
# Si number density = 21.926572 Si / 1000 Ang^3
#
#
#
# Elastic Constant Matrix: (Units=GPa)
#
#
# Indices 1 2 3 4 5 6 
#
# 1 65.9510 19.9614 16.8419 0.0000 0.0000 0.0000
# 2 19.9614 98.6804 -6.1129 0.0000 0.0000 0.0000
# 3 16.8419 -6.1129 54.3657 0.0000 0.0000 0.0000
# 4 0.0000 0.0000 0.0000 31.0203 0.0000 0.0000
# 5 0.0000 0.0000 0.0000 0.0000 31.2762 0.0000
# 6 0.0000 0.0000 0.0000 0.0000 0.0000 22.2960
#
#
#
# Elastic Compliance Matrix: (Units=1/GPa)
#
#
# Indices 1 2 3 4 5 6 
#
# 1 0.017902 -0.003993 -0.005995 0.000000 0.000000 0.000000
# 2 -0.003993 0.011095 0.002484 0.000000 0.000000 0.000000
# 3 -0.005995 0.002484 0.020530 0.000000 0.000000 0.000000
# 4 0.000000 0.000000 0.000000 0.032237 0.000000 0.000000
# 5 0.000000 0.000000 0.000000 0.000000 0.031973 0.000000
# 6 0.000000 0.000000 0.000000 0.000000 0.000000 0.044851
#
#
# Mechanical properties :
#
#
# Convention : Reuss Voigt Hill
#
# Bulk Modulus (GPa) = 28.96723 31.15309 30.06016
# Shear Modulus (GPa) = 27.01207 29.47228 28.24218
#
# Velocity S-wave (km/s) = 3.51370 3.67022 3.59281
# Velocity P-wave (km/s) = 5.44987 5.67446 5.56330
#
# Compressibility (1/GPa) = 0.03452176
#
# Stress axis : x y z
#
# Youngs Moduli (GPa) = 55.85926 90.12838 48.70815
#
# Poissons Ratio (x) = 0.35985 0.29200
# Poissons Ratio (y) = 0.22303 -0.12101
# Poissons Ratio (z) = 0.33487 -0.22392
#
# Static dielectric constant tensor:
#      x y z
#    x 1.832690 0.000000 0.000000 
#    y 0.000000 1.869000 0.000000 
#    z 0.000000 0.000000 1.792370 
# 
# From -- ./inp_files/6821.got.cif
#   From: 2010.05.17/outbox.cif.g08.bks.cpg/sg43_4_cif.got.tgz:6821.got - 2010.06.03 19:21:55.
