data_PCOD9372001
_publ_section_title
;
Structure prediction by ZEFSAII (Michael W. Deem and Ramdas Pophale) SiO2 
 PCOD9372001
Probable space group: F D D 2
;
_chemical_formula_sum "Si O2"
_cell_formula_units_Z 120
_cell_length_a 16.792331
_cell_length_b 11.709490
_cell_length_c 24.920914
_cell_angle_alpha 90.000000
_cell_angle_beta 90.000000
_cell_angle_gamma 90.000000
_cell_volume 4900.190147
_symmetry_space_group_name_H-M "F D D 2"
_symmetry_group_IT_number 43
_symmetry_cell_setting 'orthorhombic'
loop_
_space_group_symop_operation_xyz
x,y,z
-x,-y,z
1/4-x,1/4+y,1/4+z
1/4+x,1/4-y,1/4+z
x,1/2+y,1/2+z
-x,1/2-y,1/2+z
1/4-x,3/4+y,3/4+z
1/4+x,3/4-y,3/4+z
1/2+x,y,1/2+z
1/2-x,-y,1/2+z
3/4-x,1/4+y,3/4+z
3/4+x,1/4-y,3/4+z
1/2+x,1/2+y,z
1/2-x,1/2-y,z
3/4-x,3/4+y,1/4+z
3/4+x,3/4-y,1/4+z
loop_
_atom_site_type_symbol
_atom_site_label
_atom_site_fract_x
_atom_site_fract_y
_atom_site_fract_z
Si Si1 0.250000 0.250000 0.681581
Si Si2 0.268441 0.003188 0.721500
Si Si3 0.854170 0.585081 0.857633
Si Si4 0.331050 0.678857 0.689934
Si Si5 0.575849 0.791778 0.297633
Si Si6 0.692681 0.479587 0.830471
Si Si7 0.917044 0.957075 0.258945
Si Si8 0.647091 0.413705 0.586651
O O1 0.273609 0.137426 0.714213
O O2 0.326691 0.287951 0.646379
O O3 0.247485 0.941559 0.777416
O O4 0.203664 0.949354 0.681678
O O5 0.355231 0.948529 0.710563
O O6 0.768408 0.525873 0.866430
O O7 0.885312 0.554832 0.798147
O O8 0.852632 0.722644 0.854407
O O9 0.250000 0.750000 0.697518
O O10 0.396498 0.682979 0.735937
O O11 0.366923 0.693616 0.630095
O O12 0.577520 0.654871 0.295982
O O13 0.486528 0.824893 0.315693
O O14 0.638045 0.864098 0.332858
O O15 0.653274 0.588321 0.795225
O O16 0.000000 0.000000 0.237574
#
# Coordination Sequence:
#
# PCOD9372001 Si02
#       8
#     8  16  16  16  16  16  16  16
#     4  12  22  44  64 100 130 186 230 284 366 424
#     4  10  24  39  66  92 135 174 225 292 355 425
#     4  11  23  41  69  95 135 180 234 292 354 436
#     4  11  22  43  68  99 138 182 237 299 362 432
#     4  11  23  43  72  99 136 182 234 288 368 437
#     4  10  25  43  64 100 129 184 227 290 355 427
#     4  11  21  42  69 101 128 177 235 288 359 431
#     4  12  23  46  68  99 142 187 238 297 361 436
#
# _framework density 24.488847
#
# number of rings (size 3 to 8) (size 9 to 14) (size 15 to 20)
#    0.000    1.067    4.667    1.600    3.733    0.000 
#    4.800    1.333    0.000    0.000    0.000    0.000 
#    0.000    0.000    0.000    0.000    0.000    0.000 
#
# Total GULP energy -167038.267209 kJ/mol
# GULP energy per Si atom -5567.942240 kJ/mol
# Density = 2.443311 g / cm^3
# Si number density = 24.488847 Si / 1000 Ang^3
#
#
#
# Elastic Constant Matrix: (Units=GPa)
#
#
# Indices 1 2 3 4 5 6 
#
# 1 172.9538 39.4539 19.0765 0.0000 0.0000 0.0000
# 2 39.4539 121.4353 13.3942 0.0000 0.0000 0.0000
# 3 19.0765 13.3942 58.7448 0.0000 0.0000 0.0000
# 4 0.0000 0.0000 0.0000 26.0165 0.0000 0.0000
# 5 0.0000 0.0000 0.0000 0.0000 32.4318 0.0000
# 6 0.0000 0.0000 0.0000 0.0000 0.0000 34.9687
#
#
#
# Elastic Compliance Matrix: (Units=1/GPa)
#
#
# Indices 1 2 3 4 5 6 
#
# 1 0.006396 -0.001897 -0.001645 0.000000 0.000000 0.000000
# 2 -0.001897 0.009010 -0.001438 0.000000 0.000000 0.000000
# 3 -0.001645 -0.001438 0.017885 0.000000 0.000000 0.000000
# 4 0.000000 0.000000 0.000000 0.038437 0.000000 0.000000
# 5 0.000000 0.000000 0.000000 0.000000 0.030834 0.000000
# 6 0.000000 0.000000 0.000000 0.000000 0.000000 0.028597
#
#
# Mechanical properties :
#
#
# Convention : Reuss Voigt Hill
#
# Bulk Modulus (GPa) = 42.86081 55.22034 49.04057
# Shear Modulus (GPa) = 33.58078 37.43068 35.50573
#
# Velocity S-wave (km/s) = 3.70708 3.91382 3.81185
# Velocity P-wave (km/s) = 5.98861 6.55912 6.28035
#
# Compressibility (1/GPa) = 0.02333134
#
# Stress axis : x y z
#
# Youngs Moduli (GPa) = 156.34926 110.99151 55.91346
#
# Poissons Ratio (x) = 0.21051 0.09195
# Poissons Ratio (y) = 0.29654 0.08042
# Poissons Ratio (z) = 0.25712 0.15965
#
# Static dielectric constant tensor:
#      x y z
#    x 2.719190 0.000000 0.000000 
#    y 0.000000 2.105510 0.000000 
#    z 0.000000 0.000000 2.151260 
# 
# From -- ./inp_files/26060.got.cif
#   From: 2010.05.17/outbox.cif.g08.bks.cpg/sg43_14_cif.got.tgz:26060.got - 2010.06.03 19:21:55.
