data_PCOD9372154
_publ_section_title
;
Structure prediction by ZEFSAII (Michael W. Deem and Ramdas Pophale) SiO2 
 PCOD9372154
Probable space group: F D D 2
;
_chemical_formula_sum "Si O2"
_cell_formula_units_Z 64
_cell_length_a 14.846672
_cell_length_b 11.789000
_cell_length_c 13.450286
_cell_angle_alpha 90.000000
_cell_angle_beta 90.000000
_cell_angle_gamma 90.000000
_cell_volume 2354.168806
_symmetry_space_group_name_H-M "F D D 2"
_symmetry_group_IT_number 43
_symmetry_cell_setting 'orthorhombic'
loop_
_space_group_symop_operation_xyz
x,y,z
-x,-y,z
1/4-x,1/4+y,1/4+z
1/4+x,1/4-y,1/4+z
x,1/2+y,1/2+z
-x,1/2-y,1/2+z
1/4-x,3/4+y,3/4+z
1/4+x,3/4-y,3/4+z
1/2+x,y,1/2+z
1/2-x,-y,1/2+z
3/4-x,1/4+y,3/4+z
3/4+x,1/4-y,3/4+z
1/2+x,1/2+y,z
1/2-x,1/2-y,z
3/4-x,3/4+y,1/4+z
3/4+x,3/4-y,1/4+z
loop_
_atom_site_type_symbol
_atom_site_label
_atom_site_fract_x
_atom_site_fract_y
_atom_site_fract_z
Si Si1 0.000000 0.000000 0.691100
Si Si2 0.750000 0.750000 0.257961
Si Si3 0.336346 0.382639 0.602377
Si Si4 0.305398 0.489561 0.989046
Si Si5 0.003005 0.246915 0.524814
O O1 0.984517 0.113986 0.751851
O O2 0.087349 0.023450 0.624960
O O3 0.852269 0.753076 0.299064
O O4 0.751919 0.618344 0.220560
O O5 0.268074 0.418019 0.517445
O O6 0.275840 0.395604 0.701387
O O7 0.397980 0.277262 0.570636
O O8 0.064728 0.251115 0.119234
#
# Coordination Sequence:
#
# PCOD9372154 Si02
#       5
#     8   8  16  16  16
#     4  10  24  47  80 113 148 220 270 333 408 495
#     4  12  28  49  80 119 158 214 278 343 406 481
#     4  11  27  50  79 119 163 214 273 340 419 489
#     4  11  28  48  82 110 167 208 279 336 415 489
#     4  11  29  49  82 119 164 220 272 341 413 496
#
# _framework density 27.185815999999999
#
# number of rings (size 3 to 8) (size 9 to 14) (size 15 to 20)
#    0.000    1.000    2.500    0.000   21.000    3.000 
#    4.500    0.000    0.000    0.000    0.000    0.000 
#    0.000    0.000    0.000    0.000    0.000    0.000 
#
# Total GULP energy -89310.662532 kJ/mol
# GULP energy per Si atom -5581.916408 kJ/mol
# Density = 2.712394 g / cm^3
# Si number density = 27.185816 Si / 1000 Ang^3
#
#
#
# Elastic Constant Matrix: (Units=GPa)
#
#
# Indices 1 2 3 4 5 6 
#
# 1 169.2943 48.4085 4.9601 0.0000 0.0000 0.0000
# 2 48.4085 141.1094 28.9950 0.0000 0.0000 0.0000
# 3 4.9601 28.9950 119.8435 0.0000 0.0000 0.0000
# 4 0.0000 0.0000 0.0000 1.2579 0.0000 0.0000
# 5 0.0000 0.0000 0.0000 0.0000 27.2314 0.0000
# 6 0.0000 0.0000 0.0000 0.0000 0.0000 64.2232
#
#
#
# Elastic Compliance Matrix: (Units=1/GPa)
#
#
# Indices 1 2 3 4 5 6 
#
# 1 0.006559 -0.002309 0.000287 0.000000 0.000000 0.000000
# 2 -0.002309 0.008270 -0.001905 0.000000 0.000000 0.000000
# 3 0.000287 -0.001905 0.008793 0.000000 0.000000 0.000000
# 4 0.000000 0.000000 0.000000 0.794982 0.000000 0.000000
# 5 0.000000 0.000000 0.000000 0.000000 0.036722 0.000000
# 6 0.000000 0.000000 0.000000 0.000000 0.000000 0.015571
#
#
# Mechanical properties :
#
#
# Convention : Reuss Voigt Hill
#
# Bulk Modulus (GPa) = 63.41968 66.10827 64.76398
# Shear Modulus (GPa) = 5.65606 41.73473 23.69539
#
# Velocity S-wave (km/s) = 1.44397 3.92237 2.95550
# Velocity P-wave (km/s) = 5.11458 6.69950 5.95996
#
# Compressibility (1/GPa) = 0.01576798
#
# Stress axis : x y z
#
# Youngs Moduli (GPa) = 152.46908 120.91404 113.72278
#
# Poissons Ratio (x) = 0.27919 -0.03266
# Poissons Ratio (y) = 0.35205 0.21668
# Poissons Ratio (z) = -0.04379 0.23039
#
# Static dielectric constant tensor:
#      x y z
#    x 2.086680 0.000000 0.000000 
#    y 0.000000 2.100770 0.000000 
#    z 0.000000 0.000000 2.206010 
# 
# From -- ./inp_files/20836.got.cif
#   From: 2010.05.17/outbox.cif.g08.bks.cpg/sg43_11_cif.got.tgz:20836.got - 2010.06.03 19:21:55.
