data_PCOD9372575
_publ_section_title
;
Structure prediction by ZEFSAII (Michael W. Deem and Ramdas Pophale) SiO2 
 PCOD9372575
Probable space group: F D D 2
;
_chemical_formula_sum "Si O2"
_cell_formula_units_Z 56
_cell_length_a 12.024087
_cell_length_b 7.454731
_cell_length_c 26.290997
_cell_angle_alpha 90.000000
_cell_angle_beta 90.000000
_cell_angle_gamma 90.000000
_cell_volume 2356.628591
_symmetry_space_group_name_H-M "F D D 2"
_symmetry_group_IT_number 43
_symmetry_cell_setting 'orthorhombic'
loop_
_space_group_symop_operation_xyz
x,y,z
-x,-y,z
1/4-x,1/4+y,1/4+z
1/4+x,1/4-y,1/4+z
x,1/2+y,1/2+z
-x,1/2-y,1/2+z
1/4-x,3/4+y,3/4+z
1/4+x,3/4-y,3/4+z
1/2+x,y,1/2+z
1/2-x,-y,1/2+z
3/4-x,1/4+y,3/4+z
3/4+x,1/4-y,3/4+z
1/2+x,1/2+y,z
1/2-x,1/2-y,z
3/4-x,3/4+y,1/4+z
3/4+x,3/4-y,1/4+z
loop_
_atom_site_type_symbol
_atom_site_label
_atom_site_fract_x
_atom_site_fract_y
_atom_site_fract_z
Si Si1 0.664664 0.101008 0.778100
Si Si2 0.750000 0.750000 0.990797
Si Si3 0.063568 0.255924 0.814957
Si Si4 0.278001 0.463194 0.680849
O O1 0.750000 0.250000 0.797878
O O2 0.542146 0.186971 0.779965
O O3 0.651387 0.917229 0.810205
O O4 0.694010 0.054120 0.720239
O O5 0.849814 0.771453 0.949312
O O6 0.839229 0.670570 0.033804
O O7 0.021658 0.235150 0.871802
O O8 0.250000 0.250000 0.683547
#
# Coordination Sequence:
#
# PCOD9372575 Si02
#       4
#    16   8  16  16
#     4  11  23  46  71 101 145 189 243 304 361 443
#     4  12  26  44  72 106 144 190 246 304 370 448
#     4  11  26  47  68 108 147 190 245 306 374 443
#     4  12  25  46  70 105 144 191 245 304 374 448
#
# _framework density 23.76276
#
# number of rings (size 3 to 8) (size 9 to 14) (size 15 to 20)
#    0.000    0.571    8.571    0.000    2.000    2.286 
#   10.286    0.000    0.000    0.000    0.000    0.000 
#    0.000    0.000    0.000    0.000    0.000    0.000 
#
# Total GULP energy -77953.326843 kJ/mol
# GULP energy per Si atom -5568.094774 kJ/mol
# Density = 2.370867 g / cm^3
# Si number density = 23.762760 Si / 1000 Ang^3
#
#
#
# Elastic Constant Matrix: (Units=GPa)
#
#
# Indices 1 2 3 4 5 6 
#
# 1 112.6486 20.2795 54.8786 0.0000 0.0000 0.0000
# 2 20.2795 88.4389 9.9196 0.0000 0.0000 0.0000
# 3 54.8786 9.9196 175.6046 0.0000 0.0000 0.0000
# 4 0.0000 0.0000 0.0000 35.1981 0.0000 0.0000
# 5 0.0000 0.0000 0.0000 0.0000 55.7445 0.0000
# 6 0.0000 0.0000 0.0000 0.0000 0.0000 96.2938
#
#
#
# Elastic Compliance Matrix: (Units=1/GPa)
#
#
# Indices 1 2 3 4 5 6 
#
# 1 0.010853 -0.002122 -0.003272 0.000000 0.000000 0.000000
# 2 -0.002122 0.011794 -0.000003 0.000000 0.000000 0.000000
# 3 -0.003272 -0.000003 0.006717 0.000000 0.000000 0.000000
# 4 0.000000 0.000000 0.000000 0.028411 0.000000 0.000000
# 5 0.000000 0.000000 0.000000 0.000000 0.017939 0.000000
# 6 0.000000 0.000000 0.000000 0.000000 0.000000 0.010385
#
#
# Mechanical properties :
#
#
# Convention : Reuss Voigt Hill
#
# Bulk Modulus (GPa) = 53.84736 60.76084 57.30410
# Shear Modulus (GPa) = 48.50473 56.88823 52.69648
#
# Velocity S-wave (km/s) = 4.52287 4.89817 4.71426
# Velocity P-wave (km/s) = 7.06999 7.59043 7.33483
#
# Compressibility (1/GPa) = 0.01857101
#
# Stress axis : x y z
#
# Youngs Moduli (GPa) = 92.13989 84.78811 148.86958
#
# Poissons Ratio (x) = 0.17989 0.48708
# Poissons Ratio (y) = 0.19549 0.00047
# Poissons Ratio (z) = 0.30147 0.00027
#
# Static dielectric constant tensor:
#      x y z
#    x 1.944140 0.000000 0.000000 
#    y 0.000000 1.674700 0.000000 
#    z 0.000000 0.000000 1.801120 
# 
# From -- ./inp_files/19861.got.cif
#   From: 2010.05.17/outbox.cif.g08.bks.cpg/sg43_10_cif.got.tgz:19861.got - 2010.06.03 19:21:55.
