data_PCOD9372677
_publ_section_title
;
Structure prediction by ZEFSAII (Michael W. Deem and Ramdas Pophale) SiO2 
 PCOD9372677
Probable space group: F D D 2
;
_chemical_formula_sum "Si O2"
_cell_formula_units_Z 120
_cell_length_a 26.032873
_cell_length_b 15.561761
_cell_length_c 11.716154
_cell_angle_alpha 90.000000
_cell_angle_beta 90.000000
_cell_angle_gamma 90.000000
_cell_volume 4746.417235
_symmetry_space_group_name_H-M "F D D 2"
_symmetry_group_IT_number 43
_symmetry_cell_setting 'orthorhombic'
loop_
_space_group_symop_operation_xyz
x,y,z
-x,-y,z
1/4-x,1/4+y,1/4+z
1/4+x,1/4-y,1/4+z
x,1/2+y,1/2+z
-x,1/2-y,1/2+z
1/4-x,3/4+y,3/4+z
1/4+x,3/4-y,3/4+z
1/2+x,y,1/2+z
1/2-x,-y,1/2+z
3/4-x,1/4+y,3/4+z
3/4+x,1/4-y,3/4+z
1/2+x,1/2+y,z
1/2-x,1/2-y,z
3/4-x,3/4+y,1/4+z
3/4+x,3/4-y,1/4+z
loop_
_atom_site_type_symbol
_atom_site_label
_atom_site_fract_x
_atom_site_fract_y
_atom_site_fract_z
Si Si1 0.566002 0.914715 0.365400
Si Si2 0.360211 0.159047 0.037309
Si Si3 0.750000 0.750000 0.557149
Si Si4 0.146144 0.682320 0.074382
Si Si5 0.432120 0.169150 0.602054
Si Si6 0.559559 0.221487 0.451028
Si Si7 0.264977 0.486897 0.007712
Si Si8 0.820132 0.627112 0.404828
O O1 0.554801 0.895519 0.498430
O O2 0.529312 0.861944 0.279648
O O3 0.621938 0.868745 0.360307
O O4 0.573048 0.013495 0.327733
O O5 0.361408 0.126397 0.906898
O O6 0.415228 0.207152 0.032640
O O7 0.349296 0.074738 0.113051
O O8 0.796591 0.796076 0.624492
O O9 0.784450 0.692732 0.471810
O O10 0.113304 0.768242 0.059361
O O11 0.159146 0.635032 0.957084
O O12 0.475220 0.231931 0.659824
O O13 0.514053 0.258740 0.375846
O O14 0.543939 0.145781 0.534777
O O15 0.315048 0.544817 0.989490
#
# Coordination Sequence:
#
# PCOD9372677 Si02
#       8
#    16  16   8  16  16  16  16  16
#     4  11  29  44  79 113 155 212 269 335 416 487
#     4  11  24  48  78 109 159 208 259 340 414 487
#     4  12  24  46  82 112 158 212 278 328 422 486
#     4  12  25  50  77 117 158 213 263 340 409 502
#     4  12  26  49  81 117 164 208 281 337 416 492
#     4  11  25  45  78 109 160 206 265 330 410 495
#     4  12  25  50  74 116 158 213 269 348 408 494
#     4  11  26  44  74 113 154 210 268 333 400 497
#
# _framework density 25.282226999999999
#
# number of rings (size 3 to 8) (size 9 to 14) (size 15 to 20)
#    0.000    0.533    5.333    0.800   11.200    0.533 
#    0.000    0.000    0.000    0.000    0.000    0.000 
#    0.000    0.000    0.000    0.000    0.000    0.000 
#
# Total GULP energy -167303.742050 kJ/mol
# GULP energy per Si atom -5576.791402 kJ/mol
# Density = 2.522468 g / cm^3
# Si number density = 25.282227 Si / 1000 Ang^3
#
#
#
# Elastic Constant Matrix: (Units=GPa)
#
#
# Indices 1 2 3 4 5 6 
#
# 1 72.6844 14.4381 28.4981 0.0000 0.0000 0.0000
# 2 14.4381 104.6252 38.1197 0.0000 0.0000 0.0000
# 3 28.4981 38.1197 120.1427 0.0000 0.0000 0.0000
# 4 0.0000 0.0000 0.0000 34.2729 0.0000 0.0000
# 5 0.0000 0.0000 0.0000 0.0000 28.4780 0.0000
# 6 0.0000 0.0000 0.0000 0.0000 0.0000 44.0547
#
#
#
# Elastic Compliance Matrix: (Units=1/GPa)
#
#
# Indices 1 2 3 4 5 6 
#
# 1 0.015242 -0.000889 -0.003333 0.000000 0.000000 0.000000
# 2 -0.000889 0.010859 -0.003235 0.000000 0.000000 0.000000
# 3 -0.003333 -0.003235 0.010140 0.000000 0.000000 0.000000
# 4 0.000000 0.000000 0.000000 0.029178 0.000000 0.000000
# 5 0.000000 0.000000 0.000000 0.000000 0.035115 0.000000
# 6 0.000000 0.000000 0.000000 0.000000 0.000000 0.022699
#
#
# Mechanical properties :
#
#
# Convention : Reuss Voigt Hill
#
# Bulk Modulus (GPa) = 46.88769 51.06268 48.97518
# Shear Modulus (GPa) = 34.42216 35.78756 35.10486
#
# Velocity S-wave (km/s) = 3.69388 3.76642 3.73033
# Velocity P-wave (km/s) = 6.06456 6.25744 6.16176
#
# Compressibility (1/GPa) = 0.02132756
#
# Stress axis : x y z
#
# Youngs Moduli (GPa) = 65.60987 92.08863 98.61539
#
# Poissons Ratio (x) = 0.08185 0.32872
# Poissons Ratio (y) = 0.05832 0.31898
# Poissons Ratio (z) = 0.21870 0.29787
#
# Static dielectric constant tensor:
#      x y z
#    x 2.135580 0.000000 0.000000 
#    y 0.000000 2.142640 0.000000 
#    z 0.000000 0.000000 2.018900 
# 
# From -- ./inp_files/8375.got.cif
#   From: 2010.05.17/outbox.cif.g08.bks.cpg/sg43_5_cif.got.tgz:8375.got - 2010.06.03 19:21:55.
