data_PCOD9372452
_publ_section_title
;
Structure prediction by ZEFSAII (Michael W. Deem and Ramdas Pophale) SiO2 
 PCOD9372452
Probable space group: F D D 2
;
_chemical_formula_sum "Si O2"
_cell_formula_units_Z 112
_cell_length_a 29.041799
_cell_length_b 14.803959
_cell_length_c 11.926687
_cell_angle_alpha 90.000000
_cell_angle_beta 90.000000
_cell_angle_gamma 90.000000
_cell_volume 5127.683498
_symmetry_space_group_name_H-M "F D D 2"
_symmetry_group_IT_number 43
_symmetry_cell_setting 'orthorhombic'
loop_
_space_group_symop_operation_xyz
x,y,z
-x,-y,z
1/4-x,1/4+y,1/4+z
1/4+x,1/4-y,1/4+z
x,1/2+y,1/2+z
-x,1/2-y,1/2+z
1/4-x,3/4+y,3/4+z
1/4+x,3/4-y,3/4+z
1/2+x,y,1/2+z
1/2-x,-y,1/2+z
3/4-x,1/4+y,3/4+z
3/4+x,1/4-y,3/4+z
1/2+x,1/2+y,z
1/2-x,1/2-y,z
3/4-x,3/4+y,1/4+z
3/4+x,3/4-y,1/4+z
loop_
_atom_site_type_symbol
_atom_site_label
_atom_site_fract_x
_atom_site_fract_y
_atom_site_fract_z
Si Si1 0.360968 0.367968 0.711740
Si Si2 0.394966 0.685753 0.693057
Si Si3 0.223685 0.841423 0.068882
Si Si4 0.927721 0.921011 0.526572
Si Si5 0.065772 0.134181 0.096667
Si Si6 0.034944 0.238672 0.887590
Si Si7 0.497239 0.100765 0.210163
O O1 0.380500 0.405658 0.828330
O O2 0.337661 0.275537 0.756476
O O3 0.395314 0.361789 0.607318
O O4 0.329552 0.450639 0.666632
O O5 0.357754 0.668037 0.788299
O O6 0.411129 0.786419 0.669740
O O7 0.443803 0.632042 0.705478
O O8 0.250000 0.750000 0.105605
O O9 0.179839 0.857514 0.148152
O O10 0.252076 0.930128 0.098850
O O11 0.212278 0.830142 0.939149
O O12 0.977155 0.908217 0.589144
O O13 0.032667 0.180115 0.002614
O O14 0.026321 0.169223 0.786483
O O15 0.500000 0.000000 0.258850
#
# Coordination Sequence:
#
# PCOD9372452 Si02
#       7
#    16  16  16  16  16  16  16
#     4  11  22  42  70 106 140 182 235 295 351 432
#     4  11  23  45  70 100 141 182 235 298 352 420
#     4  12  26  49  70 101 145 189 237 300 361 433
#     4  12  23  41  70 105 142 180 236 292 358 432
#     4  11  26  46  70 101 143 182 236 293 359 427
#     4  11  25  47  70 100 138 188 241 290 356 434
#     4  12  24  41  74 105 134 184 245 293 353 425
#
# _framework density 21.842223000000001
#
# number of rings (size 3 to 8) (size 9 to 14) (size 15 to 20)
#    0.000    0.571    4.286    5.571    2.000    1.714 
#    0.000    0.000    0.000    0.000    0.000    0.000 
#    0.000    0.000    0.000    0.000    0.000    0.000 
#
# Total GULP energy -155964.623524 kJ/mol
# GULP energy per Si atom -5570.165126 kJ/mol
# Density = 2.179251 g / cm^3
# Si number density = 21.842223 Si / 1000 Ang^3
#
#
#
# Elastic Constant Matrix: (Units=GPa)
#
#
# Indices 1 2 3 4 5 6 
#
# 1 62.3523 11.7632 57.8786 0.0000 0.0000 0.0000
# 2 11.7632 98.8587 46.3183 0.0000 0.0000 0.0000
# 3 57.8786 46.3183 153.0242 0.0000 0.0000 0.0000
# 4 0.0000 0.0000 0.0000 3.5180 0.0000 0.0000
# 5 0.0000 0.0000 0.0000 0.0000 23.9966 0.0000
# 6 0.0000 0.0000 0.0000 0.0000 0.0000 11.1348
#
#
#
# Elastic Compliance Matrix: (Units=1/GPa)
#
#
# Indices 1 2 3 4 5 6 
#
# 1 0.024956 0.001693 -0.009952 0.000000 0.000000 0.000000
# 2 0.001693 0.011902 -0.004243 0.000000 0.000000 0.000000
# 3 -0.009952 -0.004243 0.011583 0.000000 0.000000 0.000000
# 4 0.000000 0.000000 0.000000 0.284250 0.000000 0.000000
# 5 0.000000 0.000000 0.000000 0.000000 0.041673 0.000000
# 6 0.000000 0.000000 0.000000 0.000000 0.000000 0.089809
#
#
# Mechanical properties :
#
#
# Convention : Reuss Voigt Hill
#
# Bulk Modulus (GPa) = 42.66515 60.68392 51.67454
# Shear Modulus (GPa) = 10.06060 20.94822 15.50441
#
# Velocity S-wave (km/s) = 2.14850 3.10025 2.66717
# Velocity P-wave (km/s) = 5.07252 6.37640 5.76147
#
# Compressibility (1/GPa) = 0.02343833
#
# Stress axis : x y z
#
# Youngs Moduli (GPa) = 40.07022 84.01995 86.33153
#
# Poissons Ratio (x) = -0.14226 0.85915
# Poissons Ratio (y) = -0.06784 0.36630
# Poissons Ratio (z) = 0.39877 0.35649
#
# Static dielectric constant tensor:
#      x y z
#    x 1.982810 0.000000 0.000000 
#    y 0.000000 1.883280 0.000000 
#    z 0.000000 0.000000 1.810450 
# 
# From -- ./inp_files/8299.got.cif
#   From: 2010.05.17/outbox.cif.g08.bks.cpg/sg43_5_cif.got.tgz:8299.got - 2010.06.03 19:21:55.
