data_PCOD9372743
_publ_section_title
;
Structure prediction by ZEFSAII (Michael W. Deem and Ramdas Pophale) SiO2 
 PCOD9372743
Probable space group: F D D 2
;
_chemical_formula_sum "Si O2"
_cell_formula_units_Z 48
_cell_length_a 15.941167
_cell_length_b 14.267267
_cell_length_c 7.563257
_cell_angle_alpha 90.000000
_cell_angle_beta 90.000000
_cell_angle_gamma 90.000000
_cell_volume 1720.163619
_symmetry_space_group_name_H-M "F D D 2"
_symmetry_group_IT_number 43
_symmetry_cell_setting 'orthorhombic'
loop_
_space_group_symop_operation_xyz
x,y,z
-x,-y,z
1/4-x,1/4+y,1/4+z
1/4+x,1/4-y,1/4+z
x,1/2+y,1/2+z
-x,1/2-y,1/2+z
1/4-x,3/4+y,3/4+z
1/4+x,3/4-y,3/4+z
1/2+x,y,1/2+z
1/2-x,-y,1/2+z
3/4-x,1/4+y,3/4+z
3/4+x,1/4-y,3/4+z
1/2+x,1/2+y,z
1/2-x,1/2-y,z
3/4-x,3/4+y,1/4+z
3/4+x,3/4-y,1/4+z
loop_
_atom_site_type_symbol
_atom_site_label
_atom_site_fract_x
_atom_site_fract_y
_atom_site_fract_z
Si Si1 0.023521 0.719458 0.116740
Si Si2 0.329768 0.181062 0.149205
Si Si3 0.473859 0.395047 0.273216
O O1 0.057962 0.657309 0.277317
O O2 0.922537 0.713143 0.099736
O O3 0.040631 0.827099 0.168926
O O4 0.051911 0.669374 0.937193
O O5 0.250000 0.250000 0.124064
O O6 0.336706 0.163745 0.358714
O O7 0.500000 0.500000 0.334670
#
# Coordination Sequence:
#
# PCOD9372743 Si02
#       3
#    16  16  16
#     4  12  25  50  78 115 159 210 268 339 397 487
#     4  11  26  47  78 115 159 208 273 331 404 476
#     4  11  26  49  77 113 152 209 264 327 408 477
#
# _framework density 27.904320999999999
#
# number of rings (size 3 to 8) (size 9 to 14) (size 15 to 20)
#    0.000    0.667    3.333    3.000    0.000    8.000 
#   12.000    0.000    0.000    0.000    0.000    0.000 
#    0.000    0.000    0.000    0.000    0.000    0.000 
#
# Total GULP energy -67206.360185 kJ/mol
# GULP energy per Si atom -5600.530015 kJ/mol
# Density = 2.784081 g / cm^3
# Si number density = 27.904321 Si / 1000 Ang^3
#
#
#
# Elastic Constant Matrix: (Units=GPa)
#
#
# Indices 1 2 3 4 5 6 
#
# 1 180.3137 64.6771 32.4415 0.0000 0.0000 0.0000
# 2 64.6771 248.4450 80.0200 0.0000 0.0000 0.0000
# 3 32.4415 80.0200 208.9559 0.0000 0.0000 0.0000
# 4 0.0000 0.0000 0.0000 55.1825 0.0000 0.0000
# 5 0.0000 0.0000 0.0000 0.0000 37.9865 0.0000
# 6 0.0000 0.0000 0.0000 0.0000 0.0000 47.3855
#
#
#
# Elastic Compliance Matrix: (Units=1/GPa)
#
#
# Indices 1 2 3 4 5 6 
#
# 1 0.006145 -0.001474 -0.000389 0.000000 0.000000 0.000000
# 2 -0.001474 0.004945 -0.001665 0.000000 0.000000 0.000000
# 3 -0.000389 -0.001665 0.005484 0.000000 0.000000 0.000000
# 4 0.000000 0.000000 0.000000 0.018122 0.000000 0.000000
# 5 0.000000 0.000000 0.000000 0.000000 0.026325 0.000000
# 6 0.000000 0.000000 0.000000 0.000000 0.000000 0.021104
#
#
# Mechanical properties :
#
#
# Convention : Reuss Voigt Hill
#
# Bulk Modulus (GPa) = 105.08061 110.22131 107.65096
# Shear Modulus (GPa) = 54.14009 58.81595 56.47802
#
# Velocity S-wave (km/s) = 4.40955 4.59603 4.50376
# Velocity P-wave (km/s) = 7.97902 8.23105 8.10601
#
# Compressibility (1/GPa) = 0.00951650
#
# Stress axis : x y z
#
# Youngs Moduli (GPa) = 162.74054 202.22335 182.35828
#
# Poissons Ratio (x) = 0.29812 0.07102
# Poissons Ratio (y) = 0.23991 0.30359
# Poissons Ratio (z) = 0.06338 0.33667
#
# Static dielectric constant tensor:
#      x y z
#    x 2.149020 0.000000 0.000000 
#    y 0.000000 2.220990 0.000000 
#    z 0.000000 0.000000 2.111140 
# 
# From -- ./inp_files/1822.got.cif
#   From: 2010.05.17/outbox.cif.g08.bks.cpg/sg43_1_cif.got.tgz:1822.got - 2010.06.03 19:21:55.
