data_PCOD9372302
_publ_section_title
;
Structure prediction by ZEFSAII (Michael W. Deem and Ramdas Pophale) SiO2 
 PCOD9372302
Probable space group: F D D 2
;
_chemical_formula_sum "Si O2"
_cell_formula_units_Z 56
_cell_length_a 18.273165
_cell_length_b 6.939802
_cell_length_c 14.453911
_cell_angle_alpha 90.000000
_cell_angle_beta 90.000000
_cell_angle_gamma 90.000000
_cell_volume 1832.931487
_symmetry_space_group_name_H-M "F D D 2"
_symmetry_group_IT_number 43
_symmetry_cell_setting 'orthorhombic'
loop_
_space_group_symop_operation_xyz
x,y,z
-x,-y,z
1/4-x,1/4+y,1/4+z
1/4+x,1/4-y,1/4+z
x,1/2+y,1/2+z
-x,1/2-y,1/2+z
1/4-x,3/4+y,3/4+z
1/4+x,3/4-y,3/4+z
1/2+x,y,1/2+z
1/2-x,-y,1/2+z
3/4-x,1/4+y,3/4+z
3/4+x,1/4-y,3/4+z
1/2+x,1/2+y,z
1/2-x,1/2-y,z
3/4-x,3/4+y,1/4+z
3/4+x,3/4-y,1/4+z
loop_
_atom_site_type_symbol
_atom_site_label
_atom_site_fract_x
_atom_site_fract_y
_atom_site_fract_z
Si Si1 0.134509 0.178224 0.506220
Si Si2 0.210211 0.533762 0.599870
Si Si3 0.500000 0.000000 0.625218
Si Si4 0.157163 0.004288 0.740736
O O1 0.175438 0.325644 0.574214
O O2 0.083779 0.320815 0.445534
O O3 0.201147 0.115398 0.440155
O O4 0.091280 0.980659 0.519289
O O5 0.293987 0.526080 0.643836
O O6 0.175112 0.668894 0.517405
O O7 0.546929 0.141682 0.565974
#
# Coordination Sequence:
#
# PCOD9372302 Si02
#       4
#    16  16   8  16
#     4  11  26  47  82 120 179 237 303 391 466 577
#     4  11  26  50  83 130 172 240 309 378 485 568
#     4  10  26  54  80 132 176 242 320 380 490 576
#     4  11  26  53  86 119 184 231 304 397 465 574
#
# _framework density 30.552153000000001
#
# number of rings (size 3 to 8) (size 9 to 14) (size 15 to 20)
#    0.000    1.143    0.000    4.286    4.000    9.143 
#    0.000    5.714    0.000    0.000    0.000    0.000 
#    0.000    0.000    0.000    0.000    0.000    0.000 
#
# Total GULP energy -78038.617316 kJ/mol
# GULP energy per Si atom -5574.186951 kJ/mol
# Density = 3.048262 g / cm^3
# Si number density = 30.552153 Si / 1000 Ang^3
#
#
#
# Elastic Constant Matrix: (Units=GPa)
#
#
# Indices 1 2 3 4 5 6 
#
# 1 193.6206 75.4215 78.6982 0.0000 0.0000 0.0000
# 2 75.4215 232.9725 89.4816 0.0000 0.0000 0.0000
# 3 78.6982 89.4816 133.6144 0.0000 0.0000 0.0000
# 4 0.0000 0.0000 0.0000 28.7515 0.0000 0.0000
# 5 0.0000 0.0000 0.0000 0.0000 89.3734 0.0000
# 6 0.0000 0.0000 0.0000 0.0000 0.0000 56.5514
#
#
#
# Elastic Compliance Matrix: (Units=1/GPa)
#
#
# Indices 1 2 3 4 5 6 
#
# 1 0.006931 -0.000910 -0.003473 0.000000 0.000000 0.000000
# 2 -0.000910 0.005898 -0.003414 0.000000 0.000000 0.000000
# 3 -0.003473 -0.003414 0.011816 0.000000 0.000000 0.000000
# 4 0.000000 0.000000 0.000000 0.034781 0.000000 0.000000
# 5 0.000000 0.000000 0.000000 0.000000 0.011189 0.000000
# 6 0.000000 0.000000 0.000000 0.000000 0.000000 0.017683
#
#
# Mechanical properties :
#
#
# Convention : Reuss Voigt Hill
#
# Bulk Modulus (GPa) = 110.47960 116.37891 113.42925
# Shear Modulus (GPa) = 46.76885 56.04233 51.40559
#
# Velocity S-wave (km/s) = 3.91677 4.28754 4.10634
# Velocity P-wave (km/s) = 7.52956 7.91740 7.72592
#
# Compressibility (1/GPa) = 0.00905144
#
# Stress axis : x y z
#
# Youngs Moduli (GPa) = 144.28542 169.54230 84.62987
#
# Poissons Ratio (x) = 0.15426 0.29390
# Poissons Ratio (y) = 0.13128 0.28894
# Poissons Ratio (z) = 0.50108 0.57884
#
# Static dielectric constant tensor:
#      x y z
#    x 2.601260 0.000000 0.000000 
#    y 0.000000 2.364120 0.000000 
#    z 0.000000 0.000000 2.673610 
# 
# From -- ./inp_files/12095.got.cif
#   From: 2010.05.17/outbox.cif.g08.bks.cpg/sg43_7_cif.got.tgz:12095.got - 2010.06.03 19:21:55.
