data_PCOD9372593
_publ_section_title
;
Structure prediction by ZEFSAII (Michael W. Deem and Ramdas Pophale) SiO2 
 PCOD9372593
Probable space group: F D D 2
;
_chemical_formula_sum "Si O2"
_cell_formula_units_Z 88
_cell_length_a 7.558441
_cell_length_b 15.227978
_cell_length_c 31.643791
_cell_angle_alpha 90.000000
_cell_angle_beta 90.000000
_cell_angle_gamma 90.000000
_cell_volume 3642.193169
_symmetry_space_group_name_H-M "F D D 2"
_symmetry_group_IT_number 43
_symmetry_cell_setting 'orthorhombic'
loop_
_space_group_symop_operation_xyz
x,y,z
-x,-y,z
1/4-x,1/4+y,1/4+z
1/4+x,1/4-y,1/4+z
x,1/2+y,1/2+z
-x,1/2-y,1/2+z
1/4-x,3/4+y,3/4+z
1/4+x,3/4-y,3/4+z
1/2+x,y,1/2+z
1/2-x,-y,1/2+z
3/4-x,1/4+y,3/4+z
3/4+x,1/4-y,3/4+z
1/2+x,1/2+y,z
1/2-x,1/2-y,z
3/4-x,3/4+y,1/4+z
3/4+x,3/4-y,1/4+z
loop_
_atom_site_type_symbol
_atom_site_label
_atom_site_fract_x
_atom_site_fract_y
_atom_site_fract_z
Si Si1 0.699656 0.640686 0.179610
Si Si2 0.682775 0.393877 0.070728
Si Si3 0.250000 0.750000 0.756121
Si Si4 0.750000 0.750000 0.513835
Si Si5 0.500000 0.000000 0.640599
Si Si6 0.536449 0.604547 0.638341
Si Si7 0.179882 0.341469 0.710087
O O1 0.783502 0.669086 0.224299
O O2 0.648052 0.540350 0.170485
O O3 0.648779 0.844471 0.145173
O O4 0.503216 0.680705 0.184805
O O5 0.629073 0.308020 0.045098
O O6 0.559560 0.423188 0.109435
O O7 0.869670 0.380229 0.093430
O O8 0.659297 0.472624 0.036952
O O9 0.636722 0.672799 0.489924
O O10 0.500000 0.500000 0.640480
O O11 0.671047 0.631221 0.676006
O O12 0.250000 0.250000 0.729888
#
# Coordination Sequence:
#
# PCOD9372593 Si02
#       7
#    16  16   8   8   8  16  16
#     4  12  23  49  80 114 156 221 278 345 415 527
#     4  11  26  45  74 119 159 216 264 357 432 496
#     4  11  26  43  78 110 164 208 272 350 432 491
#     4  12  27  51  78 110 172 212 270 354 442 505
#     4  11  23  50  80 106 168 210 278 354 420 508
#     4  12  25  45  83 116 155 214 285 337 429 524
#     4  12  27  51  84 117 159 224 283 350 428 529
#
# _framework density 24.161266999999999
#
# number of rings (size 3 to 8) (size 9 to 14) (size 15 to 20)
#    0.000    0.364    5.455    2.727    1.273    2.182 
#    0.000    0.000    4.000    0.000    0.000    0.000 
#    0.000    0.000    0.000    0.000    0.000    0.000 
#
# Total GULP energy -122491.961712 kJ/mol
# GULP energy per Si atom -5567.816441 kJ/mol
# Density = 2.410628 g / cm^3
# Si number density = 24.161267 Si / 1000 Ang^3
#
#
#
# Elastic Constant Matrix: (Units=GPa)
#
#
# Indices 1 2 3 4 5 6 
#
# 1 129.2598 52.5130 47.0019 0.0000 0.0000 0.0000
# 2 52.5130 159.6859 86.6867 0.0000 0.0000 0.0000
# 3 47.0019 86.6867 139.9383 0.0000 0.0000 0.0000
# 4 0.0000 0.0000 0.0000 45.0722 0.0000 0.0000
# 5 0.0000 0.0000 0.0000 0.0000 34.2069 0.0000
# 6 0.0000 0.0000 0.0000 0.0000 0.0000 51.3827
#
#
#
# Elastic Compliance Matrix: (Units=1/GPa)
#
#
# Indices 1 2 3 4 5 6 
#
# 1 0.009233 -0.002038 -0.001839 0.000000 0.000000 0.000000
# 2 -0.002038 0.009885 -0.005439 0.000000 0.000000 0.000000
# 3 -0.001839 -0.005439 0.011133 0.000000 0.000000 0.000000
# 4 0.000000 0.000000 0.000000 0.022187 0.000000 0.000000
# 5 0.000000 0.000000 0.000000 0.000000 0.029234 0.000000
# 6 0.000000 0.000000 0.000000 0.000000 0.000000 0.019462
#
#
# Mechanical properties :
#
#
# Convention : Reuss Voigt Hill
#
# Bulk Modulus (GPa) = 86.06205 89.03191 87.54698
# Shear Modulus (GPa) = 40.44082 42.31117 41.37599
#
# Velocity S-wave (km/s) = 4.09563 4.18927 4.14272
# Velocity P-wave (km/s) = 7.61989 7.76718 7.69389
#
# Compressibility (1/GPa) = 0.01161952
#
# Stress axis : x y z
#
# Youngs Moduli (GPa) = 108.30799 101.16238 89.82545
#
# Poissons Ratio (x) = 0.20619 0.16515
# Poissons Ratio (y) = 0.22075 0.48855
# Poissons Ratio (z) = 0.19913 0.55021
#
# Static dielectric constant tensor:
#      x y z
#    x 1.974640 0.000000 0.000000 
#    y 0.000000 2.030870 0.000000 
#    z 0.000000 0.000000 1.967860 
# 
# From -- ./inp_files/28476.got.cif
#   From: 2010.05.17/outbox.cif.g08.bks.cpg/sg43_15_cif.got.tgz:28476.got - 2010.06.03 19:21:55.
