data_PCOD9372988
_publ_section_title
;
Structure prediction by ZEFSAII (Michael W. Deem and Ramdas Pophale) SiO2 
 PCOD9372988
Probable space group: F D D 2
;
_chemical_formula_sum "Si O2"
_cell_formula_units_Z 24
_cell_length_a 15.000000
_cell_length_b 15.000000
_cell_length_c 21.000000
_cell_angle_alpha 90.000000
_cell_angle_beta 90.000000
_cell_angle_gamma 90.000000
_cell_volume 4725.000000
_symmetry_space_group_name_H-M "F D D 2"
_symmetry_group_IT_number 43
_symmetry_cell_setting 'orthorhombic'
loop_
_space_group_symop_operation_xyz
x,y,z
-x,-y,z
1/4-x,1/4+y,1/4+z
1/4+x,1/4-y,1/4+z
x,1/2+y,1/2+z
-x,1/2-y,1/2+z
1/4-x,3/4+y,3/4+z
1/4+x,3/4-y,3/4+z
1/2+x,y,1/2+z
1/2-x,-y,1/2+z
3/4-x,1/4+y,3/4+z
3/4+x,1/4-y,3/4+z
1/2+x,1/2+y,z
1/2-x,1/2-y,z
3/4-x,3/4+y,1/4+z
3/4+x,3/4-y,1/4+z
loop_
_atom_site_type_symbol
_atom_site_label
_atom_site_fract_x
_atom_site_fract_y
_atom_site_fract_z
Si Si1 0.292106 0.055027 0.713500
Si Si2 0.500000 0.000000 0.719383
Si Si3 0.556285 0.200340 0.729246
Si Si4 0.750000 0.250000 0.586845
Si Si5 0.000000 0.500000 0.028114
Si Si6 0.750000 0.750000 0.278113
Si Si7 0.299659 0.056285 0.326982
Si Si8 0.305027 0.042105 0.092728
O O1 0.397543 0.033824 0.696684
O O2 0.274037 0.160098 0.734964
O O3 0.261679 0.998655 0.776820
O O4 0.232228 0.017772 0.653114
O O5 0.532188 0.097035 0.746388
O O6 0.661986 0.221188 0.738393
O O7 0.536679 0.213320 0.653114
O O8 0.501346 0.261678 0.779408
O O9 0.847035 0.282189 0.559841
O O10 0.716176 0.352457 0.609544
O O11 0.910098 0.524036 0.071264
O O12 0.721188 0.838014 0.317834
#
# Coordination Sequence:
#
# PCOD9372988 Si02
#       8
#    16   8  16   8   8   8  16  16
#     4  12  29  50  80 116 161 207 264 329 398 476
#     4  12  25  49  77 118 154 205 268 318 393 473
#     4  12  27  45  75 113 155 203 257 319 385 462
#     4  12  25  49  77 118 154 205 268 318 393 473
#     4  12  28  58  74 116 158 212 272 322 416 482
#     4  12  26  44  78 112 152 198 260 326 382 456
#     4  12  27  45  75 113 155 203 257 319 385 462
#     4  12  29  50  80 116 161 207 264 329 398 476
#
# _framework density 5.0793650000000001
#
# number of rings (size 3 to 8) (size 9 to 14) (size 15 to 20)
#    0.000    0.000    6.667    2.000    4.667    2.667 
#    0.000    0.000    0.000    0.000    0.000    0.000 
#    0.000    0.000    0.000    0.000    0.000    0.000 
#
# Total GULP energy -133681.709125 kJ/mol
# GULP energy per Si atom -5570.071214 kJ/mol
# Density = 0.506780 g / cm^3
# Si number density = 5.079365 Si / 1000 Ang^3
#
#
#
# Elastic Constant Matrix: (Units=GPa)
#
#
# Indices 1 2 3 4 5 6 
#
# 1 182.4997 38.7659 39.4301 0.0000 0.0000 0.0000
# 2 38.7659 182.5018 39.4312 0.0000 0.0000 0.0000
# 3 39.4301 39.4312 139.8157 0.0000 0.0000 0.0000
# 4 0.0000 0.0000 0.0000 36.1521 0.0000 0.0000
# 5 0.0000 0.0000 0.0000 0.0000 36.1517 0.0000
# 6 0.0000 0.0000 0.0000 0.0000 0.0000 59.7989
#
#
#
# Elastic Compliance Matrix: (Units=1/GPa)
#
#
# Indices 1 2 3 4 5 6 
#
# 1 0.005991 -0.000966 -0.001417 0.000000 0.000000 0.000000
# 2 -0.000966 0.005991 -0.001417 0.000000 0.000000 0.000000
# 3 -0.001417 -0.001417 0.007952 0.000000 0.000000 0.000000
# 4 0.000000 0.000000 0.000000 0.027661 0.000000 0.000000
# 5 0.000000 0.000000 0.000000 0.000000 0.027661 0.000000
# 6 0.000000 0.000000 0.000000 0.000000 0.000000 0.016723
#
#
# Mechanical properties :
#
#
# Convention : Reuss Voigt Hill
#
# Bulk Modulus (GPa) = 81.08682 82.23020 81.65851
# Shear Modulus (GPa) = 48.22080 52.23320 50.22700
#
# Velocity S-wave (km/s) = 4.87701 5.07586 4.97743
# Velocity P-wave (km/s) = 8.46819 8.65523 8.56222
#
# Compressibility (1/GPa) = 0.01233246
#
# Stress axis : x y z
#
# Youngs Moduli (GPa) = 166.92023 166.92173 125.76228
#
# Poissons Ratio (x) = 0.16131 0.17820
# Poissons Ratio (y) = 0.16131 0.17821
# Poissons Ratio (z) = 0.23652 0.23653
#
# Static dielectric constant tensor:
#      x y z
#    x 1.751700 0.000000 0.000000 
#    y 0.000000 1.751700 0.000000 
#    z 0.000000 0.000000 1.761860 
# 
# From -- ./inp_files/17604.got.cif
#   From: 2010.05.17/outbox.ucp.g08.bks.cvg/sg43_9_cif.got.tgz:17604.got - 2010.06.11 16:31:01.
