data_PCOD9372158
_publ_section_title
;
Structure prediction by ZEFSAII (Michael W. Deem and Ramdas Pophale) SiO2 
 PCOD9372158
Probable space group: F D D 2
;
_chemical_formula_sum "Si O2"
_cell_formula_units_Z 72
_cell_length_a 4.884147
_cell_length_b 20.317720
_cell_length_c 30.618791
_cell_angle_alpha 90.000000
_cell_angle_beta 90.000000
_cell_angle_gamma 90.000000
_cell_volume 3038.447494
_symmetry_space_group_name_H-M "F D D 2"
_symmetry_group_IT_number 43
_symmetry_cell_setting 'orthorhombic'
loop_
_space_group_symop_operation_xyz
x,y,z
-x,-y,z
1/4-x,1/4+y,1/4+z
1/4+x,1/4-y,1/4+z
x,1/2+y,1/2+z
-x,1/2-y,1/2+z
1/4-x,3/4+y,3/4+z
1/4+x,3/4-y,3/4+z
1/2+x,y,1/2+z
1/2-x,-y,1/2+z
3/4-x,1/4+y,3/4+z
3/4+x,1/4-y,3/4+z
1/2+x,1/2+y,z
1/2-x,1/2-y,z
3/4-x,3/4+y,1/4+z
3/4+x,3/4-y,1/4+z
loop_
_atom_site_type_symbol
_atom_site_label
_atom_site_fract_x
_atom_site_fract_y
_atom_site_fract_z
Si Si1 0.310699 0.676790 0.838780
Si Si2 0.702207 0.906668 0.816771
Si Si3 0.258701 0.676179 0.475428
Si Si4 0.005779 0.127430 0.182269
Si Si5 0.250000 0.750000 0.634339
O O1 0.250000 0.750000 0.823220
O O2 0.617377 0.657704 0.826757
O O3 0.287407 0.670931 0.890964
O O4 0.107637 0.619390 0.820457
O O5 0.828552 0.931642 0.771152
O O6 0.790071 0.959897 0.853168
O O7 0.250000 0.750000 0.457078
O O8 0.445125 0.627616 0.447041
O O9 0.955500 0.646919 0.470971
O O10 0.093907 0.197806 0.164307
#
# Coordination Sequence:
#
# PCOD9372158 Si02
#       5
#    16  16  16  16   8
#     4  11  23  43  67 100 132 182 235 291 346 430
#     4  11  24  43  71  95 141 189 236 284 357 423
#     4  12  24  45  67 103 137 185 234 302 350 421
#     4  11  25  42  71 100 138 180 233 294 359 412
#     4  10  24  48  68 106 140 194 236 290 352 454
#
# _framework density 23.696311999999999
#
# number of rings (size 3 to 8) (size 9 to 14) (size 15 to 20)
#    0.000    0.889    1.111    6.667    0.000    8.000 
#   12.000    0.000    0.000    0.000    0.000    0.000 
#    0.000    0.000    0.000    0.000    0.000    0.000 
#
# Total GULP energy -100724.276584 kJ/mol
# GULP energy per Si atom -5595.793144 kJ/mol
# Density = 2.364238 g / cm^3
# Si number density = 23.696312 Si / 1000 Ang^3
#
#
#
# Elastic Constant Matrix: (Units=GPa)
#
#
# Indices 1 2 3 4 5 6 
#
# 1 87.4063 4.4067 20.8683 0.0000 0.0000 0.0000
# 2 4.4067 130.4748 20.0705 0.0000 0.0000 0.0000
# 3 20.8683 20.0705 76.5408 0.0000 0.0000 0.0000
# 4 0.0000 0.0000 0.0000 -6.9783 0.0000 0.0000
# 5 0.0000 0.0000 0.0000 0.0000 31.6252 0.0000
# 6 0.0000 0.0000 0.0000 0.0000 0.0000 26.4315
#
#
#
# Elastic Compliance Matrix: (Units=1/GPa)
#
#
# Indices 1 2 3 4 5 6 
#
# 1 0.012239 0.000104 -0.003364 0.000000 0.000000 0.000000
# 2 0.000104 0.007987 -0.002123 0.000000 0.000000 0.000000
# 3 -0.003364 -0.002123 0.014539 0.000000 0.000000 0.000000
# 4 0.000000 0.000000 0.000000 -0.143301 0.000000 0.000000
# 5 0.000000 0.000000 0.000000 0.000000 0.031620 0.000000
# 6 0.000000 0.000000 0.000000 0.000000 0.000000 0.037834
#
#
# Mechanical properties :
#
#
# Convention : Reuss Voigt Hill
#
# Bulk Modulus (GPa) = 41.66795 42.79032 42.22914
# Shear Modulus (GPa) = -246.10458 26.82078 -109.64190
#
# Velocity S-wave (km/s) = -10.20212 3.36795 -6.80956
# Velocity P-wave (km/s) = 11.00706 5.76378 6.63077
#
# Compressibility (1/GPa) = 0.02399926
#
# Stress axis : x y z
#
# Youngs Moduli (GPa) = 81.70764 125.19809 68.78155
#
# Poissons Ratio (x) = -0.01304 0.23139
# Poissons Ratio (y) = -0.00851 0.14601
# Poissons Ratio (z) = 0.27487 0.26577
#
# Static dielectric constant tensor:
#      x y z
#    x 1.831420 0.000000 0.000000 
#    y 0.000000 1.871200 0.000000 
#    z 0.000000 0.000000 1.937110 
# 
# From -- ./inp_files/23428.got.cif
#   From: 2010.05.17/outbox.cif.g08.bks.cpg/sg43_12_cif.got.tgz:23428.got - 2010.06.03 19:21:55.
