data_PCOD9372483
_publ_section_title
;
Structure prediction by ZEFSAII (Michael W. Deem and Ramdas Pophale) SiO2 
 PCOD9372483
Probable space group: F D D 2
;
_chemical_formula_sum "Si O2"
_cell_formula_units_Z 72
_cell_length_a 19.915403
_cell_length_b 5.172672
_cell_length_c 30.821155
_cell_angle_alpha 90.000000
_cell_angle_beta 90.000000
_cell_angle_gamma 90.000000
_cell_volume 3175.067402
_symmetry_space_group_name_H-M "F D D 2"
_symmetry_group_IT_number 43
_symmetry_cell_setting 'orthorhombic'
loop_
_space_group_symop_operation_xyz
x,y,z
-x,-y,z
1/4-x,1/4+y,1/4+z
1/4+x,1/4-y,1/4+z
x,1/2+y,1/2+z
-x,1/2-y,1/2+z
1/4-x,3/4+y,3/4+z
1/4+x,3/4-y,3/4+z
1/2+x,y,1/2+z
1/2-x,-y,1/2+z
3/4-x,1/4+y,3/4+z
3/4+x,1/4-y,3/4+z
1/2+x,1/2+y,z
1/2-x,1/2-y,z
3/4-x,3/4+y,1/4+z
3/4+x,3/4-y,1/4+z
loop_
_atom_site_type_symbol
_atom_site_label
_atom_site_fract_x
_atom_site_fract_y
_atom_site_fract_z
Si Si1 0.500000 0.500000 0.540120
Si Si2 0.088723 0.753473 0.969074
Si Si3 0.040671 0.752546 0.872707
Si Si4 0.564004 0.679199 0.114494
Si Si5 0.923136 0.511265 0.203305
O O1 0.543097 0.683594 0.509409
O O2 0.546781 0.332738 0.571355
O O3 0.044670 0.768305 0.925262
O O4 0.139417 0.516173 0.959459
O O5 0.129003 0.017758 0.976048
O O6 0.118277 0.764995 0.859030
O O7 0.000000 0.500000 0.860009
O O8 0.000000 0.000000 0.856538
O O9 0.500000 0.500000 0.125976
O O10 0.576074 0.884550 0.153410
O O11 0.000000 0.500000 0.218030
#
# Coordination Sequence:
#
# PCOD9372483 Si02
#       5
#     8  16  16  16  16
#     4  12  28  44  72 112 148 194 244 324 370 438
#     4  11  25  41  73 105 145 186 244 296 367 436
#     4  11  23  43  74 106 139 189 248 296 351 442
#     4  11  26  43  77 106 150 190 250 301 376 442
#     4  11  22  45  73 106 136 195 243 295 353 458
#
# _framework density 22.676684999999999
#
# number of rings (size 3 to 8) (size 9 to 14) (size 15 to 20)
#    0.000    0.889    2.222    6.000    6.222    0.000 
#    0.000    1.111    4.889    0.000    0.000    0.000 
#    0.000    0.000    0.000    0.000    0.000    0.000 
#
# Total GULP energy -100904.080513 kJ/mol
# GULP energy per Si atom -5605.782251 kJ/mol
# Density = 2.262507 g / cm^3
# Si number density = 22.676685 Si / 1000 Ang^3
#
#
#
# Elastic Constant Matrix: (Units=GPa)
#
#
# Indices 1 2 3 4 5 6 
#
# 1 149.2812 53.6062 25.1861 0.0006 0.0011 -0.0003
# 2 53.6062 109.1251 -6.0758 -0.0120 -0.0063 0.0009
# 3 25.1861 -6.0758 80.1954 -0.0007 -0.0013 0.0001
# 4 0.0006 -0.0120 -0.0007 2.7789 -0.0012 0.0031
# 5 0.0011 -0.0063 -0.0013 -0.0012 18.1419 0.0014
# 6 -0.0003 0.0009 0.0001 0.0031 0.0014 61.2592
#
#
#
# Elastic Compliance Matrix: (Units=1/GPa)
#
#
# Indices 1 2 3 4 5 6 
#
# 1 0.008849 -0.004521 -0.003122 -0.000022 -0.000002 0.000000
# 2 -0.004521 0.011512 0.002292 0.000051 0.000004 0.000000
# 3 -0.003122 0.002292 0.013624 0.000014 0.000002 0.000000
# 4 -0.000022 0.000051 0.000014 0.359853 0.000025 -0.000018
# 5 -0.000002 0.000004 0.000002 0.000025 0.055121 -0.000001
# 6 0.000000 0.000000 0.000000 -0.000018 -0.000001 0.016324
#
#
# Mechanical properties :
#
#
# Convention : Reuss Voigt Hill
#
# Bulk Modulus (GPa) = 42.94804 53.78163 48.36484
# Shear Modulus (GPa) = 10.33603 34.16167 22.24885
#
# Velocity S-wave (km/s) = 2.13726 3.88553 3.13570
# Velocity P-wave (km/s) = 5.00709 6.62556 5.87235
#
# Compressibility (1/GPa) = 0.02328395
#
# Stress axis : x y z
#
# Youngs Moduli (GPa) = 113.01017 86.86503 73.40239
#
# Poissons Ratio (x) = 0.39269 0.22913
# Poissons Ratio (y) = 0.51088 -0.16823
# Poissons Ratio (z) = 0.35276 -0.19909
#
# Static dielectric constant tensor:
#      x y z
#    x 1.832330 0.000000 0.000000 
#    y 0.000000 1.840230 0.000000 
#    z 0.000000 0.000000 1.823060 
# 
# From -- ./inp_files/26213.got.cif
#   From: 2010.05.17/outbox.cif.g08.bks.cpg/sg43_14_cif.got.tgz:26213.got - 2010.06.03 19:21:55.
