data_PCOD9372893
_publ_section_title
;
Structure prediction by ZEFSAII (Michael W. Deem and Ramdas Pophale) SiO2 
 PCOD9372893
Probable space group: F D D 2
;
_chemical_formula_sum "Si O2"
_cell_formula_units_Z 64
_cell_length_a 4.835368
_cell_length_b 26.418285
_cell_length_c 21.474911
_cell_angle_alpha 90.000000
_cell_angle_beta 90.000000
_cell_angle_gamma 90.000000
_cell_volume 2743.250871
_symmetry_space_group_name_H-M "F D D 2"
_symmetry_group_IT_number 43
_symmetry_cell_setting 'orthorhombic'
loop_
_space_group_symop_operation_xyz
x,y,z
-x,-y,z
1/4-x,1/4+y,1/4+z
1/4+x,1/4-y,1/4+z
x,1/2+y,1/2+z
-x,1/2-y,1/2+z
1/4-x,3/4+y,3/4+z
1/4+x,3/4-y,3/4+z
1/2+x,y,1/2+z
1/2-x,-y,1/2+z
3/4-x,1/4+y,3/4+z
3/4+x,1/4-y,3/4+z
1/2+x,1/2+y,z
1/2-x,1/2-y,z
3/4-x,3/4+y,1/4+z
3/4+x,3/4-y,1/4+z
loop_
_atom_site_type_symbol
_atom_site_label
_atom_site_fract_x
_atom_site_fract_y
_atom_site_fract_z
Si Si1 0.505351 0.714803 0.058920
Si Si2 0.750000 0.750000 0.346631
Si Si3 0.770894 0.911965 0.185274
Si Si4 0.982580 0.093695 0.421620
Si Si5 0.000000 0.500000 0.008998
O O1 0.750000 0.750000 0.084624
O O2 0.383676 0.677972 0.110774
O O3 0.250000 0.750000 0.038819
O O4 0.605993 0.686190 0.997536
O O5 0.626610 0.794688 0.388906
O O6 0.501144 0.732289 0.302429
O O7 0.537262 0.876203 0.156135
O O8 0.038026 0.879114 0.203593
O O9 0.907915 0.046473 0.465491
#
# Coordination Sequence:
#
# PCOD9372893 Si02
#       5
#    16   8  16  16   8
#     4  12  26  50  77 105 149 199 252 310 368 442
#     4  12  28  49  76 107 158 196 244 310 382 444
#     4  12  28  48  77 112 146 201 249 308 375 447
#     4  12  28  48  76 109 152 197 252 307 374 445
#     4  12  28  49  72 111 154 200 242 312 372 450
#
# _framework density 23.329982999999999
#
# number of rings (size 3 to 8) (size 9 to 14) (size 15 to 20)
#    0.000    0.000    2.500    6.000   14.000    0.000 
#    0.000    0.000    0.000    0.000    0.000    0.000 
#    0.000    0.000    0.000    0.000    0.000    0.000 
#
# Total GULP energy -89729.182165 kJ/mol
# GULP energy per Si atom -5608.073885 kJ/mol
# Density = 2.327688 g / cm^3
# Si number density = 23.329983 Si / 1000 Ang^3
#
#
#
# Elastic Constant Matrix: (Units=GPa)
#
#
# Indices 1 2 3 4 5 6 
#
# 1 144.2326 60.1651 36.4936 0.0000 0.0000 0.0000
# 2 60.1651 135.7984 53.7415 0.0000 0.0000 0.0000
# 3 36.4936 53.7415 114.4914 0.0000 0.0000 0.0000
# 4 0.0000 0.0000 0.0000 13.9661 0.0000 0.0000
# 5 0.0000 0.0000 0.0000 0.0000 32.3367 0.0000
# 6 0.0000 0.0000 0.0000 0.0000 0.0000 65.0653
#
#
#
# Elastic Compliance Matrix: (Units=1/GPa)
#
#
# Indices 1 2 3 4 5 6 
#
# 1 0.008632 -0.003360 -0.001174 0.000000 0.000000 0.000000
# 2 -0.003360 0.010351 -0.003788 0.000000 0.000000 0.000000
# 3 -0.001174 -0.003788 0.010887 0.000000 0.000000 0.000000
# 4 0.000000 0.000000 0.000000 0.071602 0.000000 0.000000
# 5 0.000000 0.000000 0.000000 0.000000 0.030925 0.000000
# 6 0.000000 0.000000 0.000000 0.000000 0.000000 0.015369
#
#
# Mechanical properties :
#
#
# Convention : Reuss Voigt Hill
#
# Bulk Modulus (GPa) = 75.60905 77.25811 76.43358
# Shear Modulus (GPa) = 29.61769 38.54844 34.08306
#
# Velocity S-wave (km/s) = 3.56689 4.06928 3.82634
# Velocity P-wave (km/s) = 7.03153 7.43411 7.23562
#
# Compressibility (1/GPa) = 0.01322593
#
# Stress axis : x y z
#
# Youngs Moduli (GPa) = 115.85094 96.60551 91.85522
#
# Poissons Ratio (x) = 0.32455 0.10788
# Poissons Ratio (y) = 0.38920 0.34795
# Poissons Ratio (z) = 0.13606 0.36595
#
# Static dielectric constant tensor:
#      x y z
#    x 1.852920 0.000000 0.000000 
#    y 0.000000 1.868440 0.000000 
#    z 0.000000 0.000000 1.855520 
# 
# From -- ./inp_files/15588.got.cif
#   From: 2010.05.17/outbox.cif.g08.bks.cpg/sg43_8_cif.got.tgz:15588.got - 2010.06.03 19:21:55.
