data_PCOD9372310
_publ_section_title
;
Structure prediction by ZEFSAII (Michael W. Deem and Ramdas Pophale) SiO2 
 PCOD9372310
Probable space group: F D D 2
;
_chemical_formula_sum "Si O2"
_cell_formula_units_Z 88
_cell_length_a 12.991088
_cell_length_b 12.223636
_cell_length_c 24.625294
_cell_angle_alpha 90.000000
_cell_angle_beta 90.000000
_cell_angle_gamma 90.000000
_cell_volume 3910.455587
_symmetry_space_group_name_H-M "F D D 2"
_symmetry_group_IT_number 43
_symmetry_cell_setting 'orthorhombic'
loop_
_space_group_symop_operation_xyz
x,y,z
-x,-y,z
1/4-x,1/4+y,1/4+z
1/4+x,1/4-y,1/4+z
x,1/2+y,1/2+z
-x,1/2-y,1/2+z
1/4-x,3/4+y,3/4+z
1/4+x,3/4-y,3/4+z
1/2+x,y,1/2+z
1/2-x,-y,1/2+z
3/4-x,1/4+y,3/4+z
3/4+x,1/4-y,3/4+z
1/2+x,1/2+y,z
1/2-x,1/2-y,z
3/4-x,3/4+y,1/4+z
3/4+x,3/4-y,1/4+z
loop_
_atom_site_type_symbol
_atom_site_label
_atom_site_fract_x
_atom_site_fract_y
_atom_site_fract_z
Si Si1 0.177765 0.860914 0.324730
Si Si2 0.477635 0.231703 0.350619
Si Si3 0.208611 0.032433 0.418518
Si Si4 0.750000 0.250000 0.862250
Si Si5 0.042945 0.115499 0.750987
Si Si6 0.976661 0.830564 0.459991
O O1 0.250000 0.750000 0.321071
O O2 0.174997 0.928833 0.268872
O O3 0.062613 0.823174 0.337571
O O4 0.213915 0.940710 0.372174
O O5 0.360386 0.258348 0.333114
O O6 0.520453 0.131272 0.314738
O O7 0.479834 0.232262 0.416571
O O8 0.263137 0.141563 0.398369
O O9 0.093203 0.077806 0.430351
O O10 0.251734 0.972683 0.471666
O O11 0.159408 0.113490 0.729140
O O12 0.000000 0.000000 0.732597
#
# Coordination Sequence:
#
# PCOD9372310 Si02
#       6
#    16  16  16   8  16  16
#     4  12  23  42  82 113 146 200 263 323 378 453
#     4  11  25  46  72 107 159 197 250 324 381 457
#     4  11  24  48  75 109 154 201 260 314 376 470
#     4  10  28  48  64 106 164 204 248 310 388 462
#     4  12  25  44  80 115 149 197 255 327 386 457
#     4  11  24  48  73 115 149 194 270 306 379 467
#
# _framework density 22.503772000000001
#
# number of rings (size 3 to 8) (size 9 to 14) (size 15 to 20)
#    0.000    0.727    5.455    1.091    5.091    0.000 
#   13.091    0.000    2.000    0.000    0.000    0.000 
#    0.000    0.000    0.000    0.000    0.000    0.000 
#
# Total GULP energy -122628.417051 kJ/mol
# GULP energy per Si atom -5574.018957 kJ/mol
# Density = 2.245255 g / cm^3
# Si number density = 22.503772 Si / 1000 Ang^3
#
#
#
# Elastic Constant Matrix: (Units=GPa)
#
#
# Indices 1 2 3 4 5 6 
#
# 1 118.0675 24.0308 44.9388 0.0000 0.0000 0.0000
# 2 24.0308 114.4321 41.7855 0.0000 0.0000 0.0000
# 3 44.9388 41.7855 124.1649 0.0000 0.0000 0.0000
# 4 0.0000 0.0000 0.0000 36.6733 0.0000 0.0000
# 5 0.0000 0.0000 0.0000 0.0000 15.9464 0.0000
# 6 0.0000 0.0000 0.0000 0.0000 0.0000 22.6847
#
#
#
# Elastic Compliance Matrix: (Units=1/GPa)
#
#
# Indices 1 2 3 4 5 6 
#
# 1 0.009900 -0.000879 -0.003287 0.000000 0.000000 0.000000
# 2 -0.000879 0.010041 -0.003061 0.000000 0.000000 0.000000
# 3 -0.003287 -0.003061 0.010274 0.000000 0.000000 0.000000
# 4 0.000000 0.000000 0.000000 0.027268 0.000000 0.000000
# 5 0.000000 0.000000 0.000000 0.000000 0.062710 0.000000
# 6 0.000000 0.000000 0.000000 0.000000 0.000000 0.044082
#
#
# Mechanical properties :
#
#
# Convention : Reuss Voigt Hill
#
# Bulk Modulus (GPa) = 63.44982 64.24161 63.84571
# Shear Modulus (GPa) = 27.17644 31.45483 29.31564
#
# Velocity S-wave (km/s) = 3.47888 3.74272 3.61321
# Velocity P-wave (km/s) = 6.66282 6.87650 6.77050
#
# Compressibility (1/GPa) = 0.01576049
#
# Stress axis : x y z
#
# Youngs Moduli (GPa) = 101.01237 99.59054 97.33521
#
# Poissons Ratio (x) = 0.08750 0.31997
# Poissons Ratio (y) = 0.08875 0.29796
# Poissons Ratio (z) = 0.33206 0.30486
#
# Static dielectric constant tensor:
#      x y z
#    x 1.902910 0.000000 0.000000 
#    y 0.000000 1.848870 0.000000 
#    z 0.000000 0.000000 1.895970 
# 
# From -- ./inp_files/21652.got.cif
#   From: 2010.05.17/outbox.cif.g08.bks.cpg/sg43_11_cif.got.tgz:21652.got - 2010.06.03 19:21:55.
