data_PCOD9372591
_publ_section_title
;
Structure prediction by ZEFSAII (Michael W. Deem and Ramdas Pophale) SiO2 
 PCOD9372591
Probable space group: F D D 2
;
_chemical_formula_sum "Si O2"
_cell_formula_units_Z 64
_cell_length_a 7.348859
_cell_length_b 12.255979
_cell_length_c 26.983356
_cell_angle_alpha 90.000000
_cell_angle_beta 90.000000
_cell_angle_gamma 90.000000
_cell_volume 2430.322380
_symmetry_space_group_name_H-M "F D D 2"
_symmetry_group_IT_number 43
_symmetry_cell_setting 'orthorhombic'
loop_
_space_group_symop_operation_xyz
x,y,z
-x,-y,z
1/4-x,1/4+y,1/4+z
1/4+x,1/4-y,1/4+z
x,1/2+y,1/2+z
-x,1/2-y,1/2+z
1/4-x,3/4+y,3/4+z
1/4+x,3/4-y,3/4+z
1/2+x,y,1/2+z
1/2-x,-y,1/2+z
3/4-x,1/4+y,3/4+z
3/4+x,1/4-y,3/4+z
1/2+x,1/2+y,z
1/2-x,1/2-y,z
3/4-x,3/4+y,1/4+z
3/4+x,3/4-y,1/4+z
loop_
_atom_site_type_symbol
_atom_site_label
_atom_site_fract_x
_atom_site_fract_y
_atom_site_fract_z
Si Si1 0.976934 0.758315 0.850890
Si Si2 0.043518 0.388527 0.763606
Si Si3 0.324956 0.070728 0.412990
Si Si4 0.861159 0.396123 0.193101
O O1 0.750000 0.750000 0.851725
O O2 0.017735 0.709808 0.797784
O O3 0.100795 0.862853 0.864419
O O4 0.751434 0.882229 0.744312
O O5 0.226888 0.430026 0.647599
O O6 0.000000 0.500000 0.792162
O O7 0.934332 0.392883 0.712637
O O8 0.186067 0.969001 0.422576
O O9 0.500000 0.000000 0.422629
O O10 0.000000 0.500000 0.199286
#
# Coordination Sequence:
#
# PCOD9372591 Si02
#       4
#    16  16  16  16
#     4  11  24  48  75 119 156 216 278 331 418 493
#     4  12  26  49  79 118 157 218 279 344 422 502
#     4  12  23  49  77 108 165 209 263 346 413 490
#     4  11  23  49  81 111 165 215 264 356 414 491
#
# _framework density 26.333953999999999
#
# number of rings (size 3 to 8) (size 9 to 14) (size 15 to 20)
#    0.000    0.500    7.500    2.250    0.000    2.000 
#   18.000    0.000    0.000    0.000    0.000    0.000 
#    0.000    0.000    0.000    0.000    0.000    0.000 
#
# Total GULP energy -89075.679704 kJ/mol
# GULP energy per Si atom -5567.229981 kJ/mol
# Density = 2.627402 g / cm^3
# Si number density = 26.333954 Si / 1000 Ang^3
#
#
#
# Elastic Constant Matrix: (Units=GPa)
#
#
# Indices 1 2 3 4 5 6 
#
# 1 105.9463 72.5386 63.4608 0.0000 0.0000 0.0000
# 2 72.5386 172.5561 44.0225 0.0000 0.0000 0.0000
# 3 63.4608 44.0225 119.8775 0.0000 0.0000 0.0000
# 4 0.0000 0.0000 0.0000 61.3774 0.0000 0.0000
# 5 0.0000 0.0000 0.0000 0.0000 29.3004 0.0000
# 6 0.0000 0.0000 0.0000 0.0000 0.0000 -85.1037
#
#
#
# Elastic Compliance Matrix: (Units=1/GPa)
#
#
# Indices 1 2 3 4 5 6 
#
# 1 0.017590 -0.005537 -0.007278 0.000000 0.000000 0.000000
# 2 -0.005537 0.008138 -0.000057 0.000000 0.000000 0.000000
# 3 -0.007278 -0.000057 0.012216 0.000000 0.000000 0.000000
# 4 0.000000 0.000000 0.000000 0.016293 0.000000 0.000000
# 5 0.000000 0.000000 0.000000 0.000000 0.034129 0.000000
# 6 0.000000 0.000000 0.000000 0.000000 0.000000 -0.011750
#
#
# Mechanical properties :
#
#
# Convention : Reuss Voigt Hill
#
# Bulk Modulus (GPa) = 81.98161 84.26927 83.12544
# Shear Modulus (GPa) = 46.98138 15.67201 31.32669
#
# Velocity S-wave (km/s) = 4.22840 2.44217 3.45279
# Velocity P-wave (km/s) = 7.41878 6.32629 6.89421
#
# Compressibility (1/GPa) = 0.01219786
#
# Stress axis : x y z
#
# Youngs Moduli (GPa) = 56.85187 122.88689 81.86247
#
# Poissons Ratio (x) = 0.68048 0.59580
# Poissons Ratio (y) = 0.31482 0.00466
# Poissons Ratio (z) = 0.41377 0.00699
#
# Static dielectric constant tensor:
#      x y z
#    x 2.829980 0.000000 0.000000 
#    y 0.000000 2.248970 0.000000 
#    z 0.000000 0.000000 1.979020 
# 
# From -- ./inp_files/19938.got.cif
#   From: 2010.05.17/outbox.cif.g08.bks.cpg/sg43_10_cif.got.tgz:19938.got - 2010.06.03 19:21:55.
