data_PCOD9372671
_publ_section_title
;
Structure prediction by ZEFSAII (Michael W. Deem and Ramdas Pophale) SiO2 
 PCOD9372671
Probable space group: F D D 2
;
_chemical_formula_sum "Si O2"
_cell_formula_units_Z 88
_cell_length_a 10.944528
_cell_length_b 18.165885
_cell_length_c 18.926042
_cell_angle_alpha 90.000000
_cell_angle_beta 90.000000
_cell_angle_gamma 90.000000
_cell_volume 3762.819593
_symmetry_space_group_name_H-M "F D D 2"
_symmetry_group_IT_number 43
_symmetry_cell_setting 'orthorhombic'
loop_
_space_group_symop_operation_xyz
x,y,z
-x,-y,z
1/4-x,1/4+y,1/4+z
1/4+x,1/4-y,1/4+z
x,1/2+y,1/2+z
-x,1/2-y,1/2+z
1/4-x,3/4+y,3/4+z
1/4+x,3/4-y,3/4+z
1/2+x,y,1/2+z
1/2-x,-y,1/2+z
3/4-x,1/4+y,3/4+z
3/4+x,1/4-y,3/4+z
1/2+x,1/2+y,z
1/2-x,1/2-y,z
3/4-x,3/4+y,1/4+z
3/4+x,3/4-y,1/4+z
loop_
_atom_site_type_symbol
_atom_site_label
_atom_site_fract_x
_atom_site_fract_y
_atom_site_fract_z
Si Si1 0.248399 0.402571 0.000000
Si Si2 0.250000 0.250000 0.080045
Si Si3 0.965024 0.589883 0.459771
Si Si4 0.111908 0.944008 0.357315
Si Si5 0.396048 0.752403 0.967952
Si Si6 0.019497 0.198893 0.325469
O O1 0.392294 0.408309 0.980443
O O2 0.177655 0.419190 0.927768
O O3 0.218730 0.321210 0.031537
O O4 0.219149 0.471264 0.052358
O O5 0.327709 0.292684 0.141608
O O6 0.934061 0.672783 0.442822
O O7 0.887506 0.564868 0.527087
O O8 0.192567 0.984157 0.297275
O O9 0.068653 0.870468 0.315882
O O10 0.000000 0.000000 0.373393
O O11 0.250000 0.750000 0.971335
O O12 0.443149 0.805572 0.907455
#
# Coordination Sequence:
#
# PCOD9372671 Si02
#       6
#    16   8  16  16  16  16
#     4  12  29  47  72 115 162 205 256 331 403 473
#     4  12  28  46  70 116 160 200 260 328 404 470
#     4  12  25  46  78 111 149 203 263 328 390 474
#     4  11  28  49  76 113 158 211 265 331 397 482
#     4  11  24  47  77 111 148 203 266 324 386 471
#     4  12  25  48  78 112 147 208 264 329 396 476
#
# _framework density 23.386717999999998
#
# number of rings (size 3 to 8) (size 9 to 14) (size 15 to 20)
#    0.000    0.364    7.273    1.091    7.636    0.000 
#    0.000    0.000    0.000    0.000    0.000    0.000 
#    0.000    0.000    0.000    0.000    0.000    0.000 
#
# Total GULP energy -122837.912130 kJ/mol
# GULP energy per Si atom -5583.541460 kJ/mol
# Density = 2.333349 g / cm^3
# Si number density = 23.386718 Si / 1000 Ang^3
#
#
#
# Elastic Constant Matrix: (Units=GPa)
#
#
# Indices 1 2 3 4 5 6 
#
# 1 45.2719 21.2013 17.7034 0.0000 0.0000 0.0000
# 2 21.2013 143.7119 38.4828 0.0000 0.0000 0.0000
# 3 17.7034 38.4828 158.3677 0.0000 0.0000 0.0000
# 4 0.0000 0.0000 0.0000 34.0855 0.0000 0.0000
# 5 0.0000 0.0000 0.0000 0.0000 35.0833 0.0000
# 6 0.0000 0.0000 0.0000 0.0000 0.0000 24.6978
#
#
#
# Elastic Compliance Matrix: (Units=1/GPa)
#
#
# Indices 1 2 3 4 5 6 
#
# 1 0.024291 -0.003055 -0.001973 0.000000 0.000000 0.000000
# 2 -0.003055 0.007827 -0.001560 0.000000 0.000000 0.000000
# 3 -0.001973 -0.001560 0.006914 0.000000 0.000000 0.000000
# 4 0.000000 0.000000 0.000000 0.029338 0.000000 0.000000
# 5 0.000000 0.000000 0.000000 0.000000 0.028504 0.000000
# 6 0.000000 0.000000 0.000000 0.000000 0.000000 0.040489
#
#
# Mechanical properties :
#
#
# Convention : Reuss Voigt Hill
#
# Bulk Modulus (GPa) = 38.67740 55.79184 47.23462
# Shear Modulus (GPa) = 31.41519 36.77093 34.09306
#
# Velocity S-wave (km/s) = 3.66907 3.96953 3.82225
# Velocity P-wave (km/s) = 5.87567 6.70205 6.30242
#
# Compressibility (1/GPa) = 0.02585489
#
# Stress axis : x y z
#
# Youngs Moduli (GPa) = 41.16733 127.76403 144.63109
#
# Poissons Ratio (x) = 0.39035 0.28536
# Poissons Ratio (y) = 0.12578 0.22568
# Poissons Ratio (z) = 0.08122 0.19936
#
# Static dielectric constant tensor:
#      x y z
#    x 1.918100 0.000000 0.000000 
#    y 0.000000 1.976310 0.000000 
#    z 0.000000 0.000000 1.902200 
# 
# From -- ./inp_files/17066.got.cif
#   From: 2010.05.17/outbox.cif.g08.bks.cpg/sg43_9_cif.got.tgz:17066.got - 2010.06.03 19:21:55.
