data_PCOD9372810
_publ_section_title
;
Structure prediction by ZEFSAII (Michael W. Deem and Ramdas Pophale) SiO2 
 PCOD9372810
Probable space group: F D D 2
;
_chemical_formula_sum "Si O2"
_cell_formula_units_Z 80
_cell_length_a 19.524690
_cell_length_b 28.521306
_cell_length_c 6.373480
_cell_angle_alpha 90.000000
_cell_angle_beta 90.000000
_cell_angle_gamma 90.000000
_cell_volume 3549.197628
_symmetry_space_group_name_H-M "F D D 2"
_symmetry_group_IT_number 43
_symmetry_cell_setting 'orthorhombic'
loop_
_space_group_symop_operation_xyz
x,y,z
-x,-y,z
1/4-x,1/4+y,1/4+z
1/4+x,1/4-y,1/4+z
x,1/2+y,1/2+z
-x,1/2-y,1/2+z
1/4-x,3/4+y,3/4+z
1/4+x,3/4-y,3/4+z
1/2+x,y,1/2+z
1/2-x,-y,1/2+z
3/4-x,1/4+y,3/4+z
3/4+x,1/4-y,3/4+z
1/2+x,1/2+y,z
1/2-x,1/2-y,z
3/4-x,3/4+y,1/4+z
3/4+x,3/4-y,1/4+z
loop_
_atom_site_type_symbol
_atom_site_label
_atom_site_fract_x
_atom_site_fract_y
_atom_site_fract_z
Si Si1 0.148370 0.309860 0.737700
Si Si2 0.623838 0.646237 0.190738
Si Si3 0.033422 0.799748 0.559161
Si Si4 0.972369 0.383599 0.312002
Si Si5 0.346352 0.504753 0.164803
O O1 0.152405 0.353738 0.583076
O O2 0.148342 0.263157 0.594310
O O3 0.200107 0.320942 0.927041
O O4 0.074498 0.311505 0.850624
O O5 0.705867 0.643104 0.174727
O O6 0.609140 0.696070 0.299851
O O7 0.585721 0.637196 0.967761
O O8 0.990929 0.842779 0.648419
O O9 0.978952 0.758927 0.517576
O O10 0.087828 0.783819 0.734110
#
# Coordination Sequence:
#
# PCOD9372810 Si02
#       5
#    16  16  16  16  16
#     4  12  25  46  75 109 145 194 252 311 374 455
#     4  12  27  46  76 107 152 199 247 319 384 456
#     4  12  23  45  78 107 141 191 254 303 365 465
#     4  12  25  48  75 109 152 195 253 313 388 457
#     4  12  24  43  76 111 144 193 254 304 376 456
#
# _framework density 22.540306000000001
#
# number of rings (size 3 to 8) (size 9 to 14) (size 15 to 20)
#    0.000    0.000    8.000    2.400    0.000    0.000 
#    0.000    6.000    0.000    0.000    0.000    0.000 
#    0.000    0.000    0.000    0.000    0.000    0.000 
#
# Total GULP energy -111784.487707 kJ/mol
# GULP energy per Si atom -5589.224385 kJ/mol
# Density = 2.248900 g / cm^3
# Si number density = 22.540306 Si / 1000 Ang^3
#
#
#
# Elastic Constant Matrix: (Units=GPa)
#
#
# Indices 1 2 3 4 5 6 
#
# 1 48.8646 10.9026 11.3229 -0.0001 0.0081 0.0041
# 2 10.9026 49.0361 29.1859 0.0028 -0.0077 -0.0012
# 3 11.3229 29.1859 84.3722 0.0023 -0.0058 0.0020
# 4 -0.0001 0.0028 0.0023 50.1834 -0.0021 -0.0013
# 5 0.0081 -0.0077 -0.0058 -0.0021 41.7024 -0.0027
# 6 0.0041 -0.0012 0.0020 -0.0013 -0.0027 39.6083
#
#
#
# Elastic Compliance Matrix: (Units=1/GPa)
#
#
# Indices 1 2 3 4 5 6 
#
# 1 0.021696 -0.003892 -0.001565 0.000000 -0.000005 -0.000002
# 2 -0.003892 0.026379 -0.008603 -0.000001 0.000004 0.000002
# 3 -0.001565 -0.008603 0.015038 0.000000 0.000001 -0.000001
# 4 0.000000 -0.000001 0.000000 0.019927 0.000001 0.000001
# 5 -0.000005 0.000004 0.000001 0.000001 0.023979 0.000002
# 6 -0.000002 0.000002 -0.000001 0.000001 0.000002 0.025247
#
#
# Mechanical properties :
#
#
# Convention : Reuss Voigt Hill
#
# Bulk Modulus (GPa) = 28.57742 31.67730 30.12736
# Shear Modulus (GPa) = 29.06127 35.02294 32.04211
#
# Velocity S-wave (km/s) = 3.59458 3.94609 3.77443
# Velocity P-wave (km/s) = 5.47119 5.90308 5.69123
#
# Compressibility (1/GPa) = 0.03499267
#
# Stress axis : x y z
#
# Youngs Moduli (GPa) = 46.09179 37.90939 66.49790
#
# Poissons Ratio (x) = 0.14755 0.10408
# Poissons Ratio (y) = 0.17940 0.57205
# Poissons Ratio (z) = 0.07214 0.32612
#
# Static dielectric constant tensor:
#      x y z
#    x 1.827420 0.000000 0.000000 
#    y 0.000000 1.838110 0.000000 
#    z 0.000000 0.000000 1.885860 
# 
# From -- ./inp_files/959.got.cif
#   From: 2010.05.17/outbox.cif.g08.bks.cpg/sg43_1_cif.got.tgz:959.got - 2010.06.03 19:21:55.
