data_PCOD9372433
_publ_section_title
;
Structure prediction by ZEFSAII (Michael W. Deem and Ramdas Pophale) SiO2 
 PCOD9372433
Probable space group: F D D 2
;
_chemical_formula_sum "Si O2"
_cell_formula_units_Z 96
_cell_length_a 10.912952
_cell_length_b 16.424755
_cell_length_c 26.804211
_cell_angle_alpha 90.000000
_cell_angle_beta 90.000000
_cell_angle_gamma 90.000000
_cell_volume 4804.455477
_symmetry_space_group_name_H-M "F D D 2"
_symmetry_group_IT_number 43
_symmetry_cell_setting 'orthorhombic'
loop_
_space_group_symop_operation_xyz
x,y,z
-x,-y,z
1/4-x,1/4+y,1/4+z
1/4+x,1/4-y,1/4+z
x,1/2+y,1/2+z
-x,1/2-y,1/2+z
1/4-x,3/4+y,3/4+z
1/4+x,3/4-y,3/4+z
1/2+x,y,1/2+z
1/2-x,-y,1/2+z
3/4-x,1/4+y,3/4+z
3/4+x,1/4-y,3/4+z
1/2+x,1/2+y,z
1/2-x,1/2-y,z
3/4-x,3/4+y,1/4+z
3/4+x,3/4-y,1/4+z
loop_
_atom_site_type_symbol
_atom_site_label
_atom_site_fract_x
_atom_site_fract_y
_atom_site_fract_z
Si Si1 0.804276 0.159257 0.706880
Si Si2 0.750000 0.250000 0.104719
Si Si3 0.500000 0.000000 0.123465
Si Si4 0.842630 0.106554 0.431370
Si Si5 0.091683 0.873561 0.540733
Si Si6 0.225550 0.555746 0.802320
Si Si7 0.197922 0.158535 0.106933
O O1 0.750000 0.250000 0.714869
O O2 0.763748 0.106145 0.753930
O O3 0.741552 0.119107 0.657883
O O4 0.949262 0.163487 0.693302
O O5 0.842514 0.300495 0.140082
O O6 0.665017 0.304427 0.068672
O O7 0.589039 0.050879 0.160139
O O8 0.456971 0.068744 0.084465
O O9 0.913714 0.098999 0.483728
O O10 0.234504 0.868809 0.556594
O O11 0.025369 0.786470 0.545132
O O12 0.304828 0.591286 0.848138
O O13 0.250000 0.250000 0.112388
#
# Coordination Sequence:
#
# PCOD9372433 Si02
#       7
#    16   8   8  16  16  16  16
#     4  11  22  41  71  98 130 184 240 279 349 436
#     4  12  25  46  64 100 150 178 219 314 370 400
#     4  12  23  42  68 104 130 182 247 288 358 436
#     4  12  24  43  71 100 139 186 236 295 358 439
#     4  11  22  40  70  98 132 181 238 290 343 434
#     4  11  23  45  64  96 142 179 224 298 358 410
#     4   9  18  38  66  91 125 169 221 278 333 407
#
# _framework density 19.981453999999999
#
# number of rings (size 3 to 8) (size 9 to 14) (size 15 to 20)
#    0.000    1.000    5.000    3.500    1.167    1.333 
#    6.000    0.000    0.000    0.000    0.000    0.000 
#    0.000    0.000    0.000    0.000    0.000    0.000 
#
# Total GULP energy -133776.868856 kJ/mol
# GULP energy per Si atom -5574.036202 kJ/mol
# Density = 1.993598 g / cm^3
# Si number density = 19.981454 Si / 1000 Ang^3
#
#
#
# Elastic Constant Matrix: (Units=GPa)
#
#
# Indices 1 2 3 4 5 6 
#
# 1 107.6179 23.0767 51.5145 0.0000 0.0000 0.0000
# 2 23.0767 85.0835 35.6309 0.0000 0.0000 0.0000
# 3 51.5145 35.6309 131.9066 0.0000 0.0000 0.0000
# 4 0.0000 0.0000 0.0000 33.7106 0.0000 0.0000
# 5 0.0000 0.0000 0.0000 0.0000 21.5264 0.0000
# 6 0.0000 0.0000 0.0000 0.0000 0.0000 21.7571
#
#
#
# Elastic Compliance Matrix: (Units=1/GPa)
#
#
# Indices 1 2 3 4 5 6 
#
# 1 0.011576 -0.001405 -0.004141 0.000000 0.000000 0.000000
# 2 -0.001405 0.013423 -0.003077 0.000000 0.000000 0.000000
# 3 -0.004141 -0.003077 0.010030 0.000000 0.000000 0.000000
# 4 0.000000 0.000000 0.000000 0.029664 0.000000 0.000000
# 5 0.000000 0.000000 0.000000 0.000000 0.046454 0.000000
# 6 0.000000 0.000000 0.000000 0.000000 0.000000 0.045962
#
#
# Mechanical properties :
#
#
# Convention : Reuss Voigt Hill
#
# Bulk Modulus (GPa) = 56.23919 60.56135 58.40027
# Shear Modulus (GPa) = 27.73416 29.69122 28.71269
#
# Velocity S-wave (km/s) = 3.72962 3.85897 3.79485
# Velocity P-wave (km/s) = 6.83766 7.08732 6.96361
#
# Compressibility (1/GPa) = 0.01778120
#
# Stress axis : x y z
#
# Youngs Moduli (GPa) = 86.38717 74.49953 99.70536
#
# Poissons Ratio (x) = 0.10470 0.41289
# Poissons Ratio (y) = 0.12141 0.30679
# Poissons Ratio (z) = 0.35774 0.22923
#
# Static dielectric constant tensor:
#      x y z
#    x 1.746030 0.000000 0.000000 
#    y 0.000000 1.736350 0.000000 
#    z 0.000000 0.000000 1.733570 
# 
# From -- ./inp_files/21098.got.cif
#   From: 2010.05.17/outbox.cif.g08.bks.cpg/sg43_11_cif.got.tgz:21098.got - 2010.06.03 19:21:55.
