data_PCOD9372133
_publ_section_title
;
Structure prediction by ZEFSAII (Michael W. Deem and Ramdas Pophale) SiO2 
 PCOD9372133
Probable space group: F D D 2
;
_chemical_formula_sum "Si O2"
_cell_formula_units_Z 96
_cell_length_a 27.358544
_cell_length_b 19.178911
_cell_length_c 7.722891
_cell_angle_alpha 90.000000
_cell_angle_beta 90.000000
_cell_angle_gamma 90.000000
_cell_volume 4052.255589
_symmetry_space_group_name_H-M "F D D 2"
_symmetry_group_IT_number 43
_symmetry_cell_setting 'orthorhombic'
loop_
_space_group_symop_operation_xyz
x,y,z
-x,-y,z
1/4-x,1/4+y,1/4+z
1/4+x,1/4-y,1/4+z
x,1/2+y,1/2+z
-x,1/2-y,1/2+z
1/4-x,3/4+y,3/4+z
1/4+x,3/4-y,3/4+z
1/2+x,y,1/2+z
1/2-x,-y,1/2+z
3/4-x,1/4+y,3/4+z
3/4+x,1/4-y,3/4+z
1/2+x,1/2+y,z
1/2-x,1/2-y,z
3/4-x,3/4+y,1/4+z
3/4+x,3/4-y,1/4+z
loop_
_atom_site_type_symbol
_atom_site_label
_atom_site_fract_x
_atom_site_fract_y
_atom_site_fract_z
Si Si1 0.750000 0.250000 0.247651
Si Si2 0.347960 0.409573 0.214985
Si Si3 0.081539 0.974072 0.741494
Si Si4 0.819190 0.973645 0.573764
Si Si5 0.250000 0.750000 0.716292
Si Si6 0.960723 0.900773 0.215605
Si Si7 0.777249 0.983583 0.942434
O O1 0.708178 0.206308 0.346889
O O2 0.777689 0.189451 0.144154
O O3 0.334274 0.422168 0.416385
O O4 0.405122 0.425651 0.181490
O O5 0.311888 0.453738 0.092341
O O6 0.343070 0.332824 0.135639
O O7 0.130282 0.996728 0.647935
O O8 0.045658 0.024346 0.849686
O O9 0.779924 0.026423 0.487107
O O10 0.791907 0.954066 0.754085
O O11 0.247756 0.684283 0.842414
O O12 0.964834 0.817776 0.197954
#
# Coordination Sequence:
#
# PCOD9372133 Si02
#       7
#     8  16  16  16   8  16  16
#     4  10  24  46  74 114 146 208 256 320 392 462
#     4  12  26  48  77 113 151 197 260 320 391 466
#     4  11  24  47  75 110 148 197 257 318 389 467
#     4  12  25  49  72 111 153 201 255 313 393 460
#     4  10  24  46  76 104 152 194 254 326 380 462
#     4  11  24  48  75 108 154 202 257 322 387 469
#     4  12  27  48  74 115 153 203 258 319 388 466
#
# _framework density 23.69051
#
# number of rings (size 3 to 8) (size 9 to 14) (size 15 to 20)
#    0.000    0.667    5.000    2.000    2.333    0.000 
#    6.000    0.000    0.000    0.000    0.000    0.000 
#    0.000    0.000    0.000    0.000    0.000    0.000 
#
# Total GULP energy -133795.721687 kJ/mol
# GULP energy per Si atom -5574.821737 kJ/mol
# Density = 2.363659 g / cm^3
# Si number density = 23.690510 Si / 1000 Ang^3
#
#
#
# Elastic Constant Matrix: (Units=GPa)
#
#
# Indices 1 2 3 4 5 6 
#
# 1 193.4195 4.9689 71.0001 0.0001 0.0000 0.0000
# 2 4.9689 62.1334 36.7045 -0.0001 0.0000 0.0000
# 3 71.0001 36.7045 166.3434 -0.0005 -0.0001 0.0000
# 4 0.0001 -0.0001 -0.0005 24.3095 0.0000 0.0000
# 5 0.0000 0.0000 -0.0001 0.0000 54.5238 0.0000
# 6 0.0000 0.0000 0.0000 0.0000 0.0000 17.4045
#
#
#
# Elastic Compliance Matrix: (Units=1/GPa)
#
#
# Indices 1 2 3 4 5 6 
#
# 1 0.006211 0.001230 -0.002923 0.000000 0.000000 0.000000
# 2 0.001230 0.018750 -0.004662 0.000000 0.000000 0.000000
# 3 -0.002923 -0.004662 0.008288 0.000000 0.000000 0.000000
# 4 0.000000 0.000000 0.000000 0.041136 0.000000 0.000000
# 5 0.000000 0.000000 0.000000 0.000000 0.018341 0.000000
# 6 0.000000 0.000000 0.000000 0.000000 0.000000 0.057456
#
#
# Mechanical properties :
#
#
# Convention : Reuss Voigt Hill
#
# Bulk Modulus (GPa) = 48.68710 71.91591 60.30151
# Shear Modulus (GPa) = 29.45698 39.86239 34.65969
#
# Velocity S-wave (km/s) = 3.53003 4.10644 3.82909
# Velocity P-wave (km/s) = 6.10006 7.27366 6.71256
#
# Compressibility (1/GPa) = 0.02053932
#
# Stress axis : x y z
#
# Youngs Moduli (GPa) = 160.99673 53.33273 120.65921
#
# Poissons Ratio (x) = -0.06558 0.35263
# Poissons Ratio (y) = -0.19798 0.56254
# Poissons Ratio (z) = 0.47051 0.24865
#
# Static dielectric constant tensor:
#      x y z
#    x 2.136180 0.000000 0.000000 
#    y 0.000000 1.985630 0.000000 
#    z 0.000000 0.000000 2.003630 
# 
# From -- ./inp_files/4216.got.cif
#   From: 2010.05.17/outbox.cif.g08.bks.cpg/sg43_3_cif.got.tgz:4216.got - 2010.06.03 19:21:55.
