data_PCOD9372860
_publ_section_title
;
Structure prediction by ZEFSAII (Michael W. Deem and Ramdas Pophale) SiO2 
 PCOD9372860
Probable space group: F D D 2
;
_chemical_formula_sum "Si O2"
_cell_formula_units_Z 56
_cell_length_a 14.568622
_cell_length_b 28.131596
_cell_length_c 4.778054
_cell_angle_alpha 90.000000
_cell_angle_beta 90.000000
_cell_angle_gamma 90.000000
_cell_volume 1958.230907
_symmetry_space_group_name_H-M "F D D 2"
_symmetry_group_IT_number 43
_symmetry_cell_setting 'orthorhombic'
loop_
_space_group_symop_operation_xyz
x,y,z
-x,-y,z
1/4-x,1/4+y,1/4+z
1/4+x,1/4-y,1/4+z
x,1/2+y,1/2+z
-x,1/2-y,1/2+z
1/4-x,3/4+y,3/4+z
1/4+x,3/4-y,3/4+z
1/2+x,y,1/2+z
1/2-x,-y,1/2+z
3/4-x,1/4+y,3/4+z
3/4+x,1/4-y,3/4+z
1/2+x,1/2+y,z
1/2-x,1/2-y,z
3/4-x,3/4+y,1/4+z
3/4+x,3/4-y,1/4+z
loop_
_atom_site_type_symbol
_atom_site_label
_atom_site_fract_x
_atom_site_fract_y
_atom_site_fract_z
Si Si1 0.359146 0.667749 0.506590
Si Si2 0.685084 0.164135 0.873778
Si Si3 0.750000 0.750000 0.770906
Si Si4 0.019008 0.220020 0.338561
O O1 0.277144 0.649780 0.707038
O O2 0.380949 0.629528 0.264546
O O3 0.321347 0.721082 0.456232
O O4 0.465078 0.683099 0.542799
O O5 0.606488 0.192884 0.710661
O O6 0.714665 0.205121 0.091813
O O7 0.037060 0.261464 0.567562
#
# Coordination Sequence:
#
# PCOD9372860 Si02
#       4
#    16  16   8  16
#     4  12  29  49  84 126 177 238 310 384 474 565
#     4  12  29  49  84 126 177 238 310 384 474 565
#     4  12  24  52  80 114 178 228 298 382 458 554
#     4  12  27  52  84 119 174 239 308 377 474 558
#
# _framework density 28.597242000000001
#
# number of rings (size 3 to 8) (size 9 to 14) (size 15 to 20)
#    0.000    0.000    2.857    6.000    4.000    4.571 
#    0.000    0.000    0.000    0.000    0.000    0.000 
#    0.000    0.000    0.000    0.000    0.000    0.000 
#
# Total GULP energy -78046.180862 kJ/mol
# GULP energy per Si atom -5574.727204 kJ/mol
# Density = 2.853215 g / cm^3
# Si number density = 28.597242 Si / 1000 Ang^3
#
#
#
# Elastic Constant Matrix: (Units=GPa)
#
#
# Indices 1 2 3 4 5 6 
#
# 1 135.0056 59.4706 48.1361 -0.0101 -0.0139 0.0005
# 2 59.4706 193.5769 73.1004 -0.0006 -0.0009 0.0000
# 3 48.1361 73.1004 114.7270 -0.0389 -0.0229 0.0024
# 4 -0.0101 -0.0006 -0.0389 13.8150 0.0057 -0.0022
# 5 -0.0139 -0.0009 -0.0229 0.0057 50.5624 -0.0012
# 6 0.0005 0.0000 0.0024 -0.0022 -0.0012 67.9265
#
#
#
# Elastic Compliance Matrix: (Units=1/GPa)
#
#
# Indices 1 2 3 4 5 6 
#
# 1 0.009160 -0.001795 -0.002700 -0.000001 0.000001 0.000000
# 2 -0.001795 0.007154 -0.003806 -0.000012 -0.000002 0.000000
# 3 -0.002700 -0.003806 0.012274 0.000032 0.000005 0.000000
# 4 -0.000001 -0.000012 0.000032 0.072385 -0.000008 0.000002
# 5 0.000001 -0.000002 0.000005 -0.000008 0.019778 0.000000
# 6 0.000000 0.000000 0.000000 0.000002 0.000000 0.014722
#
#
# Mechanical properties :
#
#
# Convention : Reuss Voigt Hill
#
# Bulk Modulus (GPa) = 83.41410 89.41374 86.41392
# Shear Modulus (GPa) = 32.03708 43.96762 38.00235
#
# Velocity S-wave (km/s) = 3.35070 3.92532 3.64934
# Velocity P-wave (km/s) = 6.64842 7.20268 6.93109
#
# Compressibility (1/GPa) = 0.01198838
#
# Stress axis : x y z
#
# Youngs Moduli (GPa) = 109.16675 139.77520 81.47356
#
# Poissons Ratio (x) = 0.25085 0.21997
# Poissons Ratio (y) = 0.19592 0.31005
# Poissons Ratio (z) = 0.29474 0.53192
#
# Static dielectric constant tensor:
#      x y z
#    x 2.478310 0.000060 0.000000 
#    y 0.000060 3.388800 0.000070 
#    z 0.000000 0.000070 2.415800 
# 
# From -- ./inp_files/466.got.cif
#   From: 2010.05.17/outbox.cif.g08.bks.cpg/sg43_1_cif.got.tgz:466.got - 2010.06.03 19:21:55.
