data_PCOD9372394
_publ_section_title
;
Structure prediction by ZEFSAII (Michael W. Deem and Ramdas Pophale) SiO2 
 PCOD9372394
Probable space group: F D D 2
;
_chemical_formula_sum "Si O2"
_cell_formula_units_Z 96
_cell_length_a 16.892808
_cell_length_b 27.271800
_cell_length_c 9.837613
_cell_angle_alpha 90.000000
_cell_angle_beta 90.000000
_cell_angle_gamma 90.000000
_cell_volume 4532.161563
_symmetry_space_group_name_H-M "F D D 2"
_symmetry_group_IT_number 43
_symmetry_cell_setting 'orthorhombic'
loop_
_space_group_symop_operation_xyz
x,y,z
-x,-y,z
1/4-x,1/4+y,1/4+z
1/4+x,1/4-y,1/4+z
x,1/2+y,1/2+z
-x,1/2-y,1/2+z
1/4-x,3/4+y,3/4+z
1/4+x,3/4-y,3/4+z
1/2+x,y,1/2+z
1/2-x,-y,1/2+z
3/4-x,1/4+y,3/4+z
3/4+x,1/4-y,3/4+z
1/2+x,1/2+y,z
1/2-x,1/2-y,z
3/4-x,3/4+y,1/4+z
3/4+x,3/4-y,1/4+z
loop_
_atom_site_type_symbol
_atom_site_label
_atom_site_fract_x
_atom_site_fract_y
_atom_site_fract_z
Si Si1 0.927711 0.733219 0.608520
Si Si2 0.929948 0.783445 0.318430
Si Si3 0.170972 0.880793 0.696110
Si Si4 0.663591 0.724793 0.844708
Si Si5 0.335688 0.724639 0.605535
Si Si6 0.356598 0.886396 0.742263
O O1 0.947481 0.761860 0.468190
O O2 0.879381 0.770141 0.702605
O O3 0.874741 0.685436 0.575080
O O4 0.997227 0.714271 0.710487
O O5 0.876684 0.743237 0.241363
O O6 0.850168 0.633699 0.349026
O O7 0.882018 0.835423 0.315988
O O8 0.105971 0.920129 0.647063
O O9 0.168156 0.833186 0.602728
O O10 0.263531 0.894726 0.705324
O O11 0.750000 0.750000 0.830594
O O12 0.624968 0.755935 0.968013
O O13 0.250000 0.750000 0.607743
#
# Coordination Sequence:
#
# PCOD9372394 Si02
#       6
#    16  16  16  16  16  16
#     4  12  27  46  69 104 149 199 249 332 385 464
#     4  12  24  45  72 106 148 193 253 317 387 468
#     4  12  23  44  77 107 147 202 252 316 399 466
#     4  11  26  49  67 106 153 191 265 322 383 479
#     4  11  21  41  74 104 139 191 245 310 376 456
#     4  12  23  42  73 109 146 194 261 309 388 474
#
# _framework density 21.181944999999999
#
# number of rings (size 3 to 8) (size 9 to 14) (size 15 to 20)
#    0.000    0.333    6.667    3.000    0.000    3.333 
#    6.000    0.000    0.000    0.000    0.000    0.000 
#    0.000    0.000    0.000    0.000    0.000    0.000 
#
# Total GULP energy -133797.996902 kJ/mol
# GULP energy per Si atom -5574.916538 kJ/mol
# Density = 2.113373 g / cm^3
# Si number density = 21.181945 Si / 1000 Ang^3
#
#
#
# Elastic Constant Matrix: (Units=GPa)
#
#
# Indices 1 2 3 4 5 6 
#
# 1 60.1449 -7.3623 18.4487 0.0000 0.0000 0.0000
# 2 -7.3623 110.5535 32.2679 0.0000 0.0000 0.0000
# 3 18.4487 32.2679 136.7416 0.0000 0.0000 0.0000
# 4 0.0000 0.0000 0.0000 326.7569 0.0000 0.0000
# 5 0.0000 0.0000 0.0000 0.0000 38.6845 0.0000
# 6 0.0000 0.0000 0.0000 0.0000 0.0000 26.3945
#
#
#
# Elastic Compliance Matrix: (Units=1/GPa)
#
#
# Indices 1 2 3 4 5 6 
#
# 1 0.017755 0.002021 -0.002872 0.000000 0.000000 0.000000
# 2 0.002021 0.009944 -0.002619 0.000000 0.000000 0.000000
# 3 -0.002872 -0.002619 0.008319 0.000000 0.000000 0.000000
# 4 0.000000 0.000000 0.000000 0.003060 0.000000 0.000000
# 5 0.000000 0.000000 0.000000 0.000000 0.025850 0.000000
# 6 0.000000 0.000000 0.000000 0.000000 0.000000 0.037887
#
#
# Mechanical properties :
#
#
# Convention : Reuss Voigt Hill
#
# Bulk Modulus (GPa) = 34.39220 43.79430 39.09325
# Shear Modulus (GPa) = 41.85886 95.97290 68.91588
#
# Velocity S-wave (km/s) = 4.45022 6.73849 5.71015
# Velocity P-wave (km/s) = 6.53282 9.01460 7.87213
#
# Compressibility (1/GPa) = 0.02907636
#
# Stress axis : x y z
#
# Youngs Moduli (GPa) = 56.32244 100.55835 120.21145
#
# Poissons Ratio (x) = -0.20320 0.34528
# Poissons Ratio (y) = -0.11381 0.31487
# Poissons Ratio (z) = 0.16177 0.26339
#
# Static dielectric constant tensor:
#      x y z
#    x 1.838850 0.000000 0.000000 
#    y 0.000000 1.732050 0.000000 
#    z 0.000000 0.000000 1.755830 
# 
# From -- ./inp_files/6759.got.cif
#   From: 2010.05.17/outbox.cif.g08.bks.cpg/sg43_4_cif.got.tgz:6759.got - 2010.06.03 19:21:55.
