data_PCOD9372763
_publ_section_title
;
Structure prediction by ZEFSAII (Michael W. Deem and Ramdas Pophale) SiO2 
 PCOD9372763
Probable space group: F D D 2
;
_chemical_formula_sum "Si O2"
_cell_formula_units_Z 56
_cell_length_a 8.843391
_cell_length_b 13.110996
_cell_length_c 17.105967
_cell_angle_alpha 90.000000
_cell_angle_beta 90.000000
_cell_angle_gamma 90.000000
_cell_volume 1983.362703
_symmetry_space_group_name_H-M "F D D 2"
_symmetry_group_IT_number 43
_symmetry_cell_setting 'orthorhombic'
loop_
_space_group_symop_operation_xyz
x,y,z
-x,-y,z
1/4-x,1/4+y,1/4+z
1/4+x,1/4-y,1/4+z
x,1/2+y,1/2+z
-x,1/2-y,1/2+z
1/4-x,3/4+y,3/4+z
1/4+x,3/4-y,3/4+z
1/2+x,y,1/2+z
1/2-x,-y,1/2+z
3/4-x,1/4+y,3/4+z
3/4+x,1/4-y,3/4+z
1/2+x,1/2+y,z
1/2-x,1/2-y,z
3/4-x,3/4+y,1/4+z
3/4+x,3/4-y,1/4+z
loop_
_atom_site_type_symbol
_atom_site_label
_atom_site_fract_x
_atom_site_fract_y
_atom_site_fract_z
Si Si1 0.250000 0.750000 0.746110
Si Si2 0.547730 0.682108 0.610309
Si Si3 0.322398 0.621094 0.188445
Si Si4 0.548264 0.851457 0.370528
O O1 0.348447 0.820588 0.688826
O O2 0.357375 0.669834 0.791746
O O3 0.641127 0.638249 0.682924
O O4 0.604495 0.800006 0.625120
O O5 0.613397 0.632462 0.529890
O O6 0.374104 0.641569 0.608339
O O7 0.329620 0.506977 0.158867
#
# Coordination Sequence:
#
# PCOD9372763 Si02
#       4
#     8  16  16  16
#     4  12  32  54  92 130 192 240 326 382 494 542
#     4  11  27  52  87 133 182 236 317 382 479 555
#     4  11  27  50  89 129 183 240 306 385 471 574
#     4  12  29  53  87 129 181 250 304 400 455 581
#
# _framework density 28.234877000000001
#
# number of rings (size 3 to 8) (size 9 to 14) (size 15 to 20)
#    0.000    0.571    0.000    4.286   20.000    2.286 
#    0.000    0.000    0.000    0.000    0.000    0.000 
#    0.000    0.000    0.000    0.000    0.000    0.000 
#
# Total GULP energy -78006.410938 kJ/mol
# GULP energy per Si atom -5571.886496 kJ/mol
# Density = 2.817061 g / cm^3
# Si number density = 28.234877 Si / 1000 Ang^3
#
#
#
# Elastic Constant Matrix: (Units=GPa)
#
#
# Indices 1 2 3 4 5 6 
#
# 1 210.7378 51.3671 89.7308 0.0000 0.0000 0.0000
# 2 51.3671 169.0378 59.1183 0.0000 0.0000 0.0000
# 3 89.7308 59.1183 174.8444 0.0000 0.0000 0.0000
# 4 0.0000 0.0000 0.0000 53.5280 0.0000 0.0000
# 5 0.0000 0.0000 0.0000 0.0000 67.7231 0.0000
# 6 0.0000 0.0000 0.0000 0.0000 0.0000 20.9798
#
#
#
# Elastic Compliance Matrix: (Units=1/GPa)
#
#
# Indices 1 2 3 4 5 6 
#
# 1 0.006183 -0.000872 -0.002878 0.000000 0.000000 0.000000
# 2 -0.000872 0.006832 -0.001862 0.000000 0.000000 0.000000
# 3 -0.002878 -0.001862 0.007826 0.000000 0.000000 0.000000
# 4 0.000000 0.000000 0.000000 0.018682 0.000000 0.000000
# 5 0.000000 0.000000 0.000000 0.000000 0.014766 0.000000
# 6 0.000000 0.000000 0.000000 0.000000 0.000000 0.047665
#
#
# Mechanical properties :
#
#
# Convention : Reuss Voigt Hill
#
# Bulk Modulus (GPa) = 103.99704 106.11693 105.05698
# Shear Modulus (GPa) = 42.96036 52.07313 47.51674
#
# Velocity S-wave (km/s) = 3.90492 4.29917 4.10678
# Velocity P-wave (km/s) = 7.56597 7.89361 7.73153
#
# Compressibility (1/GPa) = 0.00961566
#
# Stress axis : x y z
#
# Youngs Moduli (GPa) = 161.72120 146.36405 127.77409
#
# Poissons Ratio (x) = 0.12768 0.36779
# Poissons Ratio (y) = 0.14108 0.23797
# Poissons Ratio (z) = 0.46550 0.27259
#
# Static dielectric constant tensor:
#      x y z
#    x 2.861940 0.000000 0.000000 
#    y 0.000000 2.400090 0.000000 
#    z 0.000000 0.000000 2.316100 
# 
# From -- ./inp_files/19888.got.cif
#   From: 2010.05.17/outbox.cif.g08.bks.cpg/sg43_10_cif.got.tgz:19888.got - 2010.06.03 19:21:55.
