data_PCOD9372712
_publ_section_title
;
Structure prediction by ZEFSAII (Michael W. Deem and Ramdas Pophale) SiO2 
 PCOD9372712
Probable space group: F D D 2
;
_chemical_formula_sum "Si O2"
_cell_formula_units_Z 104
_cell_length_a 12.547696
_cell_length_b 20.530366
_cell_length_c 18.343157
_cell_angle_alpha 90.000000
_cell_angle_beta 90.000000
_cell_angle_gamma 90.000000
_cell_volume 4725.358504
_symmetry_space_group_name_H-M "F D D 2"
_symmetry_group_IT_number 43
_symmetry_cell_setting 'orthorhombic'
loop_
_space_group_symop_operation_xyz
x,y,z
-x,-y,z
1/4-x,1/4+y,1/4+z
1/4+x,1/4-y,1/4+z
x,1/2+y,1/2+z
-x,1/2-y,1/2+z
1/4-x,3/4+y,3/4+z
1/4+x,3/4-y,3/4+z
1/2+x,y,1/2+z
1/2-x,-y,1/2+z
3/4-x,1/4+y,3/4+z
3/4+x,1/4-y,3/4+z
1/2+x,1/2+y,z
1/2-x,1/2-y,z
3/4-x,3/4+y,1/4+z
3/4+x,3/4-y,1/4+z
loop_
_atom_site_type_symbol
_atom_site_label
_atom_site_fract_x
_atom_site_fract_y
_atom_site_fract_z
Si Si1 0.857234 0.211728 0.417760
Si Si2 0.316881 0.123918 0.496350
Si Si3 0.736786 0.015315 0.556961
Si Si4 0.250000 0.750000 0.086762
Si Si5 0.562964 0.184834 0.166867
Si Si6 0.704641 0.862264 0.324119
Si Si7 0.882852 0.494658 0.332675
O O1 0.750000 0.250000 0.397518
O O2 0.845200 0.137383 0.392331
O O3 0.863572 0.209508 0.504974
O O4 0.957191 0.250314 0.383809
O O5 0.274169 0.186493 0.539213
O O6 0.285667 0.136446 0.412286
O O7 0.439982 0.114157 0.523680
O O8 0.267409 0.055081 0.519191
O O9 0.806989 0.060091 0.503940
O O10 0.623178 0.051132 0.560338
O O11 0.351334 0.765184 0.136069
O O12 0.449835 0.208249 0.134634
O O13 0.648816 0.931783 0.311711
O O14 0.000000 0.500000 0.366768
#
# Coordination Sequence:
#
# PCOD9372712 Si02
#       7
#    16  16  16   8  16  16  16
#     4  11  27  46  71 109 142 194 241 300 371 443
#     4  12  26  48  73 111 145 198 249 309 376 449
#     4  12  26  45  76 108 142 194 245 306 368 453
#     4  12  26  50  72 106 154 190 246 306 370 452
#     4  12  27  48  75 106 148 194 244 304 372 448
#     4  12  27  47  75 108 149 191 256 311 381 447
#     4  11  25  47  71 103 148 190 241 308 374 435
#
# _framework density 22.008911999999999
#
# number of rings (size 3 to 8) (size 9 to 14) (size 15 to 20)
#    0.000    0.308    4.615    3.231    9.692    0.000 
#    0.000    0.000    0.000    0.000    0.000    0.000 
#    0.000    0.000    0.000    0.000    0.000    0.000 
#
# Total GULP energy -145353.177035 kJ/mol
# GULP energy per Si atom -5590.506809 kJ/mol
# Density = 2.195882 g / cm^3
# Si number density = 22.008912 Si / 1000 Ang^3
#
#
#
# Elastic Constant Matrix: (Units=GPa)
#
#
# Indices 1 2 3 4 5 6 
#
# 1 76.6945 7.2953 12.6850 0.0000 0.0000 0.0000
# 2 7.2953 95.4347 7.2096 0.0000 0.0000 0.0000
# 3 12.6850 7.2096 59.8072 0.0000 0.0000 0.0000
# 4 0.0000 0.0000 0.0000 35.2403 0.0000 0.0000
# 5 0.0000 0.0000 0.0000 0.0000 61.8886 0.0000
# 6 0.0000 0.0000 0.0000 0.0000 0.0000 26.5624
#
#
#
# Elastic Compliance Matrix: (Units=1/GPa)
#
#
# Indices 1 2 3 4 5 6 
#
# 1 0.013577 -0.000828 -0.002780 0.000000 0.000000 0.000000
# 2 -0.000828 0.010625 -0.001105 0.000000 0.000000 0.000000
# 3 -0.002780 -0.001105 0.017443 0.000000 0.000000 0.000000
# 4 0.000000 0.000000 0.000000 0.028377 0.000000 0.000000
# 5 0.000000 0.000000 0.000000 0.000000 0.016158 0.000000
# 6 0.000000 0.000000 0.000000 0.000000 0.000000 0.037647
#
#
# Mechanical properties :
#
#
# Convention : Reuss Voigt Hill
#
# Bulk Modulus (GPa) = 31.03701 31.81291 31.42496
# Shear Modulus (GPa) = 34.72378 38.38802 36.55590
#
# Velocity S-wave (km/s) = 3.97635 4.18090 4.07991
# Velocity P-wave (km/s) = 5.93418 6.14756 6.04181
#
# Compressibility (1/GPa) = 0.03221960
#
# Stress axis : x y z
#
# Youngs Moduli (GPa) = 73.65247 94.11628 57.32877
#
# Poissons Ratio (x) = 0.07792 0.15937
# Poissons Ratio (y) = 0.06097 0.06336
# Poissons Ratio (z) = 0.20475 0.10402
#
# Static dielectric constant tensor:
#      x y z
#    x 1.810660 0.000000 0.000000 
#    y 0.000000 1.710110 0.000000 
#    z 0.000000 0.000000 1.835520 
# 
# From -- ./inp_files/13890.got.cif
#   From: 2010.05.17/outbox.cif.g08.bks.cpg/sg43_7_cif.got.tgz:13890.got - 2010.06.03 19:21:55.
