data_PCOD9372552
_publ_section_title
;
Structure prediction by ZEFSAII (Michael W. Deem and Ramdas Pophale) SiO2 
 PCOD9372552
Probable space group: F D D 2
;
_chemical_formula_sum "Si O2"
_cell_formula_units_Z 120
_cell_length_a 25.707177
_cell_length_b 24.881316
_cell_length_c 8.910736
_cell_angle_alpha 90.000000
_cell_angle_beta 90.000000
_cell_angle_gamma 90.000000
_cell_volume 5699.559761
_symmetry_space_group_name_H-M "F D D 2"
_symmetry_group_IT_number 43
_symmetry_cell_setting 'orthorhombic'
loop_
_space_group_symop_operation_xyz
x,y,z
-x,-y,z
1/4-x,1/4+y,1/4+z
1/4+x,1/4-y,1/4+z
x,1/2+y,1/2+z
-x,1/2-y,1/2+z
1/4-x,3/4+y,3/4+z
1/4+x,3/4-y,3/4+z
1/2+x,y,1/2+z
1/2-x,-y,1/2+z
3/4-x,1/4+y,3/4+z
3/4+x,1/4-y,3/4+z
1/2+x,1/2+y,z
1/2-x,1/2-y,z
3/4-x,3/4+y,1/4+z
3/4+x,3/4-y,1/4+z
loop_
_atom_site_type_symbol
_atom_site_label
_atom_site_fract_x
_atom_site_fract_y
_atom_site_fract_z
Si Si1 0.035054 0.102217 0.881540
Si Si2 0.816977 0.447975 0.023849
Si Si3 0.581809 0.589014 0.204536
Si Si4 0.750000 0.250000 0.453319
Si Si5 0.387003 0.856756 0.142616
Si Si6 0.448763 0.688567 0.929511
Si Si7 0.588122 0.495885 0.457706
Si Si8 0.291151 0.560546 0.144349
O O1 0.087500 0.117788 0.790636
O O2 0.005275 0.052986 0.802975
O O3 0.996490 0.153150 0.874450
O O4 0.049711 0.084698 0.050490
O O5 0.861606 0.403815 0.044782
O O6 0.771365 0.440516 0.141696
O O7 0.792734 0.445414 0.858682
O O8 0.853087 0.500094 0.024374
O O9 0.643087 0.590363 0.164673
O O10 0.577518 0.538155 0.321677
O O11 0.562376 0.644201 0.280899
O O12 0.701346 0.252499 0.341680
O O13 0.339263 0.815187 0.154073
O O14 0.433040 0.828724 0.049297
O O15 0.444012 0.748542 0.861952
#
# Coordination Sequence:
#
# PCOD9372552 Si02
#       8
#    16  16  16   8  16  16  16  16
#     4  12  28  46  69 114 148 180 240 309 365 421
#     4  11  23  44  71 104 138 187 242 283 352 435
#     4  11  25  47  72 106 142 190 242 291 362 432
#     4  12  28  48  74 106 148 190 236 308 368 422
#     4  12  25  45  72 103 144 187 242 295 361 432
#     4  11  25  45  72 107 143 190 239 295 361 435
#     4  11  25  49  70 104 141 198 242 282 360 448
#     4  12  23  46  75 100 140 195 238 295 354 446
#
# _framework density 21.054257
#
# number of rings (size 3 to 8) (size 9 to 14) (size 15 to 20)
#    0.000    0.533    8.000    0.800    5.600    2.667 
#    0.000    0.000    0.000    0.000    0.000    0.000 
#    0.000    0.000    0.000    0.000    0.000    0.000 
#
# Total GULP energy -167454.430882 kJ/mol
# GULP energy per Si atom -5581.814363 kJ/mol
# Density = 2.100634 g / cm^3
# Si number density = 21.054257 Si / 1000 Ang^3
#
#
#
# Elastic Constant Matrix: (Units=GPa)
#
#
# Indices 1 2 3 4 5 6 
#
# 1 79.5141 18.0211 34.1126 0.0004 0.0003 -0.0002
# 2 18.0211 97.2458 51.5791 -0.0001 0.0005 -0.0001
# 3 34.1126 51.5791 80.6765 0.0008 0.0012 -0.0002
# 4 0.0004 -0.0001 0.0008 29.5250 0.0007 0.0005
# 5 0.0003 0.0005 0.0012 0.0007 27.3281 -0.0006
# 6 -0.0002 -0.0001 -0.0002 0.0005 -0.0006 35.7012
#
#
#
# Elastic Compliance Matrix: (Units=1/GPa)
#
#
# Indices 1 2 3 4 5 6 
#
# 1 0.015416 0.000909 -0.007099 0.000000 0.000000 0.000000
# 2 0.000909 0.015613 -0.010366 0.000000 0.000000 0.000000
# 3 -0.007099 -0.010366 0.022024 -0.000001 -0.000001 0.000000
# 4 0.000000 0.000000 -0.000001 0.033870 -0.000001 0.000000
# 5 0.000000 0.000000 -0.000001 -0.000001 0.036592 0.000001
# 6 0.000000 0.000000 0.000000 0.000000 0.000001 0.028010
#
#
# Mechanical properties :
#
#
# Convention : Reuss Voigt Hill
#
# Bulk Modulus (GPa) = 50.15061 51.65132 50.90097
# Shear Modulus (GPa) = 26.13885 28.75909 27.44897
#
# Velocity S-wave (km/s) = 3.52731 3.69989 3.61463
# Velocity P-wave (km/s) = 6.36087 6.54507 6.45363
#
# Compressibility (1/GPa) = 0.01993993
#
# Stress axis : x y z
#
# Youngs Moduli (GPa) = 64.86698 64.04914 45.40417
#
# Poissons Ratio (x) = -0.05820 0.32234
# Poissons Ratio (y) = -0.05894 0.47066
# Poissons Ratio (z) = 0.46051 0.66394
#
# Static dielectric constant tensor:
#      x y z
#    x 1.771260 0.000000 0.000000 
#    y 0.000000 1.866980 0.000000 
#    z 0.000000 0.000000 1.759110 
# 
# From -- ./inp_files/3873.got.cif
#   From: 2010.05.17/outbox.cif.g08.bks.cpg/sg43_2_cif.got.tgz:3873.got - 2010.06.03 19:21:55.
