data_PCOD9372999
_publ_section_title
;
Structure prediction by ZEFSAII (Michael W. Deem and Ramdas Pophale) SiO2 
 PCOD9372999
Probable space group: I M M 2
;
_chemical_formula_sum "Si O2"
_cell_formula_units_Z 52
_cell_length_a 8.823185
_cell_length_b 12.173960
_cell_length_c 26.209049
_cell_angle_alpha 90.000000
_cell_angle_beta 90.000000
_cell_angle_gamma 90.000000
_cell_volume 2815.195234
_symmetry_space_group_name_H-M "I M M 2"
_symmetry_group_IT_number 44
_symmetry_cell_setting 'orthorhombic'
loop_
_space_group_symop_operation_xyz
x,y,z
-x,-y,z
-x,y,z
x,-y,z
1/2+x,1/2+y,1/2+z
1/2-x,1/2-y,1/2+z
1/2-x,1/2+y,1/2+z
1/2+x,1/2-y,1/2+z
loop_
_atom_site_type_symbol
_atom_site_label
_atom_site_fract_x
_atom_site_fract_y
_atom_site_fract_z
Si Si1 0.814778 0.872724 0.630380
Si Si2 0.169546 0.000000 0.925653
Si Si3 0.820192 0.714986 0.718021
Si Si4 0.671800 0.748386 0.029821
Si Si5 0.178827 0.500000 0.648580
Si Si6 0.682710 0.626502 0.820119
Si Si7 0.756928 0.500000 0.540052
Si Si8 0.183932 0.266190 0.417913
O O1 0.764742 0.815056 0.682758
O O2 0.759670 0.806539 0.580269
O O3 0.000000 0.864405 0.630908
O O4 0.774003 0.000000 0.627321
O O5 0.255987 0.110536 0.909993
O O6 0.000000 0.000000 0.905057
O O7 0.162159 0.000000 0.987804
O O8 0.800273 0.606994 0.682889
O O9 0.739468 0.693629 0.771307
O O10 0.000000 0.727634 0.727451
O O11 0.500000 0.705472 0.027306
O O12 0.665121 0.880405 0.036049
O O13 0.740635 0.728016 0.973966
O O14 0.288184 0.500000 0.599555
O O15 0.000000 0.500000 0.631155
O O16 0.500000 0.624596 0.819572
O O17 0.736475 0.500000 0.817200
O O18 0.730069 0.685868 0.872426
O O19 0.000000 0.270215 0.419884
#
# Coordination Sequence:
#
# PCOD9372999 Si02
#       8
#     8   4   8   8   4   8   4   8
#     4   9  17  28  45  74 108 133 163 214 267 310
#     4  10  21  36  53  80 113 140 174 221 267 317
#     4  10  19  32  52  77 104 137 177 220 262 310
#     4   9  15  25  46  73  98 127 166 210 255 303
#     4  10  16  26  50  79 102 131 179 222 258 308
#     4  10  21  37  55  78 108 138 174 221 271 323
#     4  10  16  26  47  73 102 133 166 207 262 305
#     4   9  19  35  56  78 104 142 181 217 263 319
#
# _framework density 18.471188000000001
#
# number of rings (size 3 to 8) (size 9 to 14) (size 15 to 20)
#    0.000    2.462    2.308    0.923    0.000    3.692 
#    1.385    3.846    0.000    0.000    0.000    0.000 
#    0.000    0.000    0.000    0.000    0.000    0.000 
#
# Total GULP energy -144750.924098 kJ/mol
# GULP energy per Si atom -5567.343235 kJ/mol
# Density = 1.842915 g / cm^3
# Si number density = 18.471188 Si / 1000 Ang^3
#
#
#
# Elastic Constant Matrix: (Units=GPa)
#
#
# Indices 1 2 3 4 5 6 
#
# 1 7.6300 14.6484 15.2500 0.0000 0.0000 0.0000
# 2 14.6484 110.6211 77.3167 0.0000 0.0000 0.0000
# 3 15.2500 77.3167 164.1027 0.0000 0.0000 0.0000
# 4 0.0000 0.0000 0.0000 23.8867 0.0000 0.0000
# 5 0.0000 0.0000 0.0000 0.0000 13.6540 0.0000
# 6 0.0000 0.0000 0.0000 0.0000 0.0000 7.7753
#
#
#
# Elastic Compliance Matrix: (Units=1/GPa)
#
#
# Indices 1 2 3 4 5 6 
#
# 1 0.183082 -0.018417 -0.008337 0.000000 0.000000 0.000000
# 2 -0.018417 0.015331 -0.005512 0.000000 0.000000 0.000000
# 3 -0.008337 -0.005512 0.009465 0.000000 0.000000 0.000000
# 4 0.000000 0.000000 0.000000 0.041864 0.000000 0.000000
# 5 0.000000 0.000000 0.000000 0.000000 0.073238 0.000000
# 6 0.000000 0.000000 0.000000 0.000000 0.000000 0.128612
#
#
# Mechanical properties :
#
#
# Convention : Reuss Voigt Hill
#
# Bulk Modulus (GPa) = 6.97604 55.19821 31.08712
# Shear Modulus (GPa) = 8.86672 20.73913 14.80292
#
# Velocity S-wave (km/s) = 2.19334 3.35443 2.83398
# Velocity P-wave (km/s) = 3.19362 6.70457 5.25121
#
# Compressibility (1/GPa) = 0.14334789
#
# Stress axis : x y z
#
# Youngs Moduli (GPa) = 5.46203 65.22779 105.64938
#
# Poissons Ratio (x) = 1.20129 0.88077
# Poissons Ratio (y) = 0.10059 0.58230
# Poissons Ratio (z) = 0.04554 0.35951
#
# Static dielectric constant tensor:
#      x y z
#    x 1.657990 0.000000 0.000000 
#    y 0.000000 1.623330 0.000000 
#    z 0.000000 0.000000 1.652940 
# 
# From -- ./inp_files/26109.got.cif
#   From: 2010.05.17/outbox.cif.g08.bks.cpg/sg44_14_cif.got.tgz:26109.got - 2010.06.03 19:37:08.
