data_PCOD9372187
_publ_section_title
;
Structure prediction by ZEFSAII (Michael W. Deem and Ramdas Pophale) SiO2 
 PCOD9372187
Probable space group: F D D 2
;
_chemical_formula_sum "Si O2"
_cell_formula_units_Z 72
_cell_length_a 13.242772
_cell_length_b 16.873203
_cell_length_c 12.751186
_cell_angle_alpha 90.000000
_cell_angle_beta 90.000000
_cell_angle_gamma 90.000000
_cell_volume 2849.226757
_symmetry_space_group_name_H-M "F D D 2"
_symmetry_group_IT_number 43
_symmetry_cell_setting 'orthorhombic'
loop_
_space_group_symop_operation_xyz
x,y,z
-x,-y,z
1/4-x,1/4+y,1/4+z
1/4+x,1/4-y,1/4+z
x,1/2+y,1/2+z
-x,1/2-y,1/2+z
1/4-x,3/4+y,3/4+z
1/4+x,3/4-y,3/4+z
1/2+x,y,1/2+z
1/2-x,-y,1/2+z
3/4-x,1/4+y,3/4+z
3/4+x,1/4-y,3/4+z
1/2+x,1/2+y,z
1/2-x,1/2-y,z
3/4-x,3/4+y,1/4+z
3/4+x,3/4-y,1/4+z
loop_
_atom_site_type_symbol
_atom_site_label
_atom_site_fract_x
_atom_site_fract_y
_atom_site_fract_z
Si Si1 0.572665 0.223157 0.012480
Si Si2 0.250000 0.250000 0.813782
Si Si3 0.330650 0.879687 0.147154
Si Si4 0.600056 0.296221 0.681124
Si Si5 0.554887 0.875728 0.400633
O O1 0.668993 0.171146 0.040394
O O2 0.501159 0.204799 0.112837
O O3 0.515006 0.185640 0.914540
O O4 0.576030 0.315387 0.994510
O O5 0.311346 0.311128 0.737143
O O6 0.327439 0.195691 0.883522
O O7 0.640322 0.207504 0.674062
O O8 0.687997 0.351616 0.634572
O O9 0.588308 0.331773 0.795738
#
# Coordination Sequence:
#
# PCOD9372187 Si02
#       5
#    16   8  16  16  16
#     4  11  24  45  72 108 141 195 246 310 364 458
#     4  10  24  50  74 110 142 202 242 316 362 458
#     4  10  25  43  74 106 144 188 251 300 374 436
#     4  11  24  46  73 105 148 194 248 305 374 444
#     4  11  25  45  74 106 147 197 247 309 373 451
#
# _framework density 25.270015000000001
#
# number of rings (size 3 to 8) (size 9 to 14) (size 15 to 20)
#    0.000    1.333    2.222    1.333    9.333    5.333 
#    0.000    2.222    0.000    0.000    0.000    0.000 
#    0.000    0.000    0.000    0.000    0.000    0.000 
#
# Total GULP energy -100622.077117 kJ/mol
# GULP energy per Si atom -5590.115395 kJ/mol
# Density = 2.521250 g / cm^3
# Si number density = 25.270015 Si / 1000 Ang^3
#
#
#
# Elastic Constant Matrix: (Units=GPa)
#
#
# Indices 1 2 3 4 5 6 
#
# 1 71.9891 49.0634 51.1546 0.0000 0.0000 0.0000
# 2 49.0634 191.4969 68.6877 0.0000 0.0000 0.0000
# 3 51.1546 68.6877 94.8039 0.0000 0.0000 0.0000
# 4 0.0000 0.0000 0.0000 54.7149 0.0000 0.0000
# 5 0.0000 0.0000 0.0000 0.0000 48.0973 0.0000
# 6 0.0000 0.0000 0.0000 0.0000 0.0000 33.9873
#
#
#
# Elastic Compliance Matrix: (Units=1/GPa)
#
#
# Indices 1 2 3 4 5 6 
#
# 1 0.023057 -0.001952 -0.011027 0.000000 0.000000 0.000000
# 2 -0.001952 0.007221 -0.004178 0.000000 0.000000 0.000000
# 3 -0.011027 -0.004178 0.019525 0.000000 0.000000 0.000000
# 4 0.000000 0.000000 0.000000 0.018277 0.000000 0.000000
# 5 0.000000 0.000000 0.000000 0.000000 0.020791 0.000000
# 6 0.000000 0.000000 0.000000 0.000000 0.000000 0.029423
#
#
# Mechanical properties :
#
#
# Convention : Reuss Voigt Hill
#
# Bulk Modulus (GPa) = 64.56388 77.34460 70.95424
# Shear Modulus (GPa) = 31.69150 39.98550 35.83850
#
# Velocity S-wave (km/s) = 3.54519 3.98217 3.77001
# Velocity P-wave (km/s) = 6.50868 7.19842 6.86222
#
# Compressibility (1/GPa) = 0.01548854
#
# Stress axis : x y z
#
# Youngs Moduli (GPa) = 43.37083 138.48635 51.21592
#
# Poissons Ratio (x) = 0.27037 0.56474
# Poissons Ratio (y) = 0.08467 0.21400
# Poissons Ratio (z) = 0.47824 0.57864
#
# Static dielectric constant tensor:
#      x y z
#    x 2.148630 0.000000 0.000000 
#    y 0.000000 2.053720 0.000000 
#    z 0.000000 0.000000 2.041090 
# 
# From -- ./inp_files/6533.got.cif
#   From: 2010.05.17/outbox.cif.g08.bks.cpg/sg43_4_cif.got.tgz:6533.got - 2010.06.03 19:21:55.
