data_PCOD9372206
_publ_section_title
;
Structure prediction by ZEFSAII (Michael W. Deem and Ramdas Pophale) SiO2 
 PCOD9372206
Probable space group: F D D 2
;
_chemical_formula_sum "Si O2"
_cell_formula_units_Z 56
_cell_length_a 13.731503
_cell_length_b 11.209182
_cell_length_c 17.709701
_cell_angle_alpha 90.000000
_cell_angle_beta 90.000000
_cell_angle_gamma 90.000000
_cell_volume 2725.857985
_symmetry_space_group_name_H-M "F D D 2"
_symmetry_group_IT_number 43
_symmetry_cell_setting 'orthorhombic'
loop_
_space_group_symop_operation_xyz
x,y,z
-x,-y,z
1/4-x,1/4+y,1/4+z
1/4+x,1/4-y,1/4+z
x,1/2+y,1/2+z
-x,1/2-y,1/2+z
1/4-x,3/4+y,3/4+z
1/4+x,3/4-y,3/4+z
1/2+x,y,1/2+z
1/2-x,-y,1/2+z
3/4-x,1/4+y,3/4+z
3/4+x,1/4-y,3/4+z
1/2+x,1/2+y,z
1/2-x,1/2-y,z
3/4-x,3/4+y,1/4+z
3/4+x,3/4-y,1/4+z
loop_
_atom_site_type_symbol
_atom_site_label
_atom_site_fract_x
_atom_site_fract_y
_atom_site_fract_z
Si Si1 0.411000 0.923265 0.851010
Si Si2 0.500000 0.000000 0.998348
Si Si3 0.889340 0.952181 0.005741
Si Si4 0.945988 0.718972 0.088848
O O1 0.409071 0.793788 0.814489
O O2 0.500000 0.000000 0.817169
O O3 0.308690 0.988951 0.839345
O O4 0.434341 0.923221 0.940344
O O5 0.560226 0.908760 0.048764
O O6 0.890448 0.820525 0.041310
O O7 0.840568 0.959737 0.924235
O O8 0.000000 0.000000 0.997944
#
# Coordination Sequence:
#
# PCOD9372206 Si02
#       4
#    16   8  16  16
#     4   9  24  42  71  97 139 178 228 278 348 409
#     4  10  26  42  68 100 136 180 232 276 348 398
#     4  10  25  44  70 102 138 180 226 287 345 406
#     4  11  25  44  69 101 137 181 231 284 343 406
#
# _framework density 20.543990999999998
#
# number of rings (size 3 to 8) (size 9 to 14) (size 15 to 20)
#    0.857    1.143    0.000    0.000   16.000    3.429 
#    0.000    0.000    0.000    0.000    0.000    0.000 
#    0.000    0.000    0.000    0.000    0.000    0.000 
#
# Total GULP energy -78196.169374 kJ/mol
# GULP energy per Si atom -5585.440670 kJ/mol
# Density = 2.049723 g / cm^3
# Si number density = 20.543991 Si / 1000 Ang^3
#
#
#
# Elastic Constant Matrix: (Units=GPa)
#
#
# Indices 1 2 3 4 5 6 
#
# 1 56.6093 42.7062 35.7087 0.0000 0.0000 0.0000
# 2 42.7062 167.5693 103.8539 0.0000 0.0000 0.0000
# 3 35.7087 103.8539 163.4339 0.0000 0.0000 0.0000
# 4 0.0000 0.0000 0.0000 126.1656 0.0000 0.0000
# 5 0.0000 0.0000 0.0000 0.0000 12.9472 0.0000
# 6 0.0000 0.0000 0.0000 0.0000 0.0000 21.6354
#
#
#
# Elastic Compliance Matrix: (Units=1/GPa)
#
#
# Indices 1 2 3 4 5 6 
#
# 1 0.022290 -0.004392 -0.002079 0.000000 0.000000 0.000000
# 2 -0.004392 0.010710 -0.005846 0.000000 0.000000 0.000000
# 3 -0.002079 -0.005846 0.010288 0.000000 0.000000 0.000000
# 4 0.000000 0.000000 0.000000 0.007926 0.000000 0.000000
# 5 0.000000 0.000000 0.000000 0.000000 0.077237 0.000000
# 6 0.000000 0.000000 0.000000 0.000000 0.000000 0.046220
#
#
# Mechanical properties :
#
#
# Convention : Reuss Voigt Hill
#
# Bulk Modulus (GPa) = 53.61033 83.57225 68.59129
# Shear Modulus (GPa) = 24.32803 45.83922 35.08363
#
# Velocity S-wave (km/s) = 3.44494 4.72876 4.13695
# Velocity P-wave (km/s) = 6.47885 8.40136 7.50195
#
# Compressibility (1/GPa) = 0.01865312
#
# Stress axis : x y z
#
# Youngs Moduli (GPa) = 44.86339 93.36759 97.20119
#
# Poissons Ratio (x) = 0.41008 0.20209
# Poissons Ratio (y) = 0.19705 0.56826
# Poissons Ratio (z) = 0.09328 0.54585
#
# Static dielectric constant tensor:
#      x y z
#    x 1.750310 0.000000 0.000000 
#    y 0.000000 1.703200 0.000000 
#    z 0.000000 0.000000 1.695330 
# 
# From -- ./inp_files/9321.got.cif
#   From: 2010.05.17/outbox.cif.g08.bks.cpg/sg43_5_cif.got.tgz:9321.got - 2010.06.03 19:21:55.
