data_PCOD9372650
_publ_section_title
;
Structure prediction by ZEFSAII (Michael W. Deem and Ramdas Pophale) SiO2 
 PCOD9372650
Probable space group: F D D 2
;
_chemical_formula_sum "Si O2"
_cell_formula_units_Z 104
_cell_length_a 8.645735
_cell_length_b 28.514141
_cell_length_c 16.344529
_cell_angle_alpha 90.000000
_cell_angle_beta 90.000000
_cell_angle_gamma 90.000000
_cell_volume 4029.346565
_symmetry_space_group_name_H-M "F D D 2"
_symmetry_group_IT_number 43
_symmetry_cell_setting 'orthorhombic'
loop_
_space_group_symop_operation_xyz
x,y,z
-x,-y,z
1/4-x,1/4+y,1/4+z
1/4+x,1/4-y,1/4+z
x,1/2+y,1/2+z
-x,1/2-y,1/2+z
1/4-x,3/4+y,3/4+z
1/4+x,3/4-y,3/4+z
1/2+x,y,1/2+z
1/2-x,-y,1/2+z
3/4-x,1/4+y,3/4+z
3/4+x,1/4-y,3/4+z
1/2+x,1/2+y,z
1/2-x,1/2-y,z
3/4-x,3/4+y,1/4+z
3/4+x,3/4-y,1/4+z
loop_
_atom_site_type_symbol
_atom_site_label
_atom_site_fract_x
_atom_site_fract_y
_atom_site_fract_z
Si Si1 0.625243 0.842729 0.916070
Si Si2 0.500000 0.500000 0.621223
Si Si3 0.830119 0.977254 0.131924
Si Si4 0.392786 0.339306 0.534505
Si Si5 0.893648 0.145883 0.777044
Si Si6 0.150192 0.525700 0.393898
Si Si7 0.944742 0.198479 0.059395
O O1 0.726511 0.796794 0.922207
O O2 0.635414 0.859380 0.823149
O O3 0.703300 0.879231 0.978713
O O4 0.446989 0.837977 0.941527
O O5 0.675148 0.495356 0.583967
O O6 0.792262 0.981028 0.228253
O O7 0.831743 0.921689 0.112891
O O8 0.000000 0.000000 0.117273
O O9 0.528423 0.313296 0.582969
O O10 0.233757 0.315745 0.558022
O O11 0.847680 0.192047 0.721397
O O12 0.791429 0.099693 0.795030
O O13 0.265808 0.480708 0.388188
O O14 0.000000 0.500000 0.360808
#
# Coordination Sequence:
#
# PCOD9372650 Si02
#       7
#    16   8  16  16  16  16  16
#     4  11  24  47  69 109 148 196 261 322 393 490
#     4  12  24  44  74 102 146 212 240 324 398 466
#     4  12  27  49  74 112 152 191 266 317 393 473
#     4  11  26  43  74 109 149 199 262 326 404 479
#     4  11  27  48  73 111 151 199 257 325 391 481
#     4  11  25  47  75 106 150 201 259 313 403 475
#     4  12  26  46  78 105 150 203 245 329 393 474
#
# _framework density 25.810635000000001
#
# number of rings (size 3 to 8) (size 9 to 14) (size 15 to 20)
#    0.000    0.615    1.538    5.538   10.769    0.000 
#    8.308    0.000    0.000    0.000    0.000    0.000 
#    0.000    0.000    0.000    0.000    0.000    0.000 
#
# Total GULP energy -145104.752795 kJ/mol
# GULP energy per Si atom -5580.952031 kJ/mol
# Density = 2.575189 g / cm^3
# Si number density = 25.810635 Si / 1000 Ang^3
#
#
#
# Elastic Constant Matrix: (Units=GPa)
#
#
# Indices 1 2 3 4 5 6 
#
# 1 133.8904 41.4523 -0.8995 0.0000 0.0000 0.0000
# 2 41.4523 140.4237 39.0512 0.0000 0.0000 0.0000
# 3 -0.8995 39.0512 59.2887 0.0000 0.0000 0.0000
# 4 0.0000 0.0000 0.0000 49.1663 0.0000 0.0000
# 5 0.0000 0.0000 0.0000 0.0000 14.1151 0.0000
# 6 0.0000 0.0000 0.0000 0.0000 0.0000 44.3344
#
#
#
# Elastic Compliance Matrix: (Units=1/GPa)
#
#
# Indices 1 2 3 4 5 6 
#
# 1 0.008441 -0.003094 0.002166 0.000000 0.000000 0.000000
# 2 -0.003094 0.009852 -0.006536 0.000000 0.000000 0.000000
# 3 0.002166 -0.006536 0.021205 0.000000 0.000000 0.000000
# 4 0.000000 0.000000 0.000000 0.020339 0.000000 0.000000
# 5 0.000000 0.000000 0.000000 0.000000 0.070846 0.000000
# 6 0.000000 0.000000 0.000000 0.000000 0.000000 0.022556
#
#
# Mechanical properties :
#
#
# Convention : Reuss Voigt Hill
#
# Bulk Modulus (GPa) = 40.70081 54.75677 47.72879
# Shear Modulus (GPa) = 28.35132 38.45640 33.40386
#
# Velocity S-wave (km/s) = 3.31786 3.86417 3.60139
# Velocity P-wave (km/s) = 5.52095 6.41638 5.98543
#
# Compressibility (1/GPa) = 0.02456954
#
# Stress axis : x y z
#
# Youngs Moduli (GPa) = 118.46503 101.49779 47.15925
#
# Poissons Ratio (x) = 0.31406 -0.10215
# Poissons Ratio (y) = 0.36656 0.30825
# Poissons Ratio (z) = -0.25661 0.66343
#
# Static dielectric constant tensor:
#      x y z
#    x 2.082150 0.000000 0.000000 
#    y 0.000000 2.067540 0.000000 
#    z 0.000000 0.000000 2.120820 
# 
# From -- ./inp_files/16578.got.cif
#   From: 2010.05.17/outbox.cif.g08.bks.cpg/sg43_9_cif.got.tgz:16578.got - 2010.06.03 19:21:55.
