data_PCOD9372823
_publ_section_title
;
Structure prediction by ZEFSAII (Michael W. Deem and Ramdas Pophale) SiO2 
 PCOD9372823
Probable space group: F D D 2
;
_chemical_formula_sum "Si O2"
_cell_formula_units_Z 56
_cell_length_a 7.316684
_cell_length_b 26.577988
_cell_length_c 10.512531
_cell_angle_alpha 90.000000
_cell_angle_beta 90.000000
_cell_angle_gamma 90.000000
_cell_volume 2044.295578
_symmetry_space_group_name_H-M "F D D 2"
_symmetry_group_IT_number 43
_symmetry_cell_setting 'orthorhombic'
loop_
_space_group_symop_operation_xyz
x,y,z
-x,-y,z
1/4-x,1/4+y,1/4+z
1/4+x,1/4-y,1/4+z
x,1/2+y,1/2+z
-x,1/2-y,1/2+z
1/4-x,3/4+y,3/4+z
1/4+x,3/4-y,3/4+z
1/2+x,y,1/2+z
1/2-x,-y,1/2+z
3/4-x,1/4+y,3/4+z
3/4+x,1/4-y,3/4+z
1/2+x,1/2+y,z
1/2-x,1/2-y,z
3/4-x,3/4+y,1/4+z
3/4+x,3/4-y,1/4+z
loop_
_atom_site_type_symbol
_atom_site_label
_atom_site_fract_x
_atom_site_fract_y
_atom_site_fract_z
Si Si1 0.675740 0.333019 0.383950
Si Si2 0.088670 0.804750 0.627049
Si Si3 0.000000 0.500000 0.927662
Si Si4 0.271521 0.352241 0.329448
O O1 0.760134 0.387985 0.386322
O O2 0.733935 0.305945 0.513824
O O3 0.720225 0.298991 0.264601
O O4 0.458210 0.337451 0.396715
O O5 0.934580 0.763399 0.606357
O O6 0.177680 0.804003 0.765651
O O7 0.380113 0.378907 0.196733
#
# Coordination Sequence:
#
# PCOD9372823 Si02
#       4
#    16  16   8  16
#     4  12  25  49  77 110 158 202 264 335 406 493
#     4  12  25  49  77 110 158 202 264 335 406 493
#     4  12  28  46  76 116 152 212 260 324 418 500
#     4  12  24  43  82 115 154 215 266 332 420 491
#
# _framework density 27.393301999999998
#
# number of rings (size 3 to 8) (size 9 to 14) (size 15 to 20)
#    0.000    0.000    8.571    0.000    0.000    5.714 
#    5.143    0.000    0.000    0.000    0.000    0.000 
#    0.000    0.000    0.000    0.000    0.000    0.000 
#
# Total GULP energy -77951.776059 kJ/mol
# GULP energy per Si atom -5567.984004 kJ/mol
# Density = 2.733095 g / cm^3
# Si number density = 27.393302 Si / 1000 Ang^3
#
#
#
# Elastic Constant Matrix: (Units=GPa)
#
#
# Indices 1 2 3 4 5 6 
#
# 1 131.9416 42.4040 20.6060 0.0000 0.0000 0.0000
# 2 42.4040 133.8993 27.9854 0.0000 0.0000 0.0000
# 3 20.6060 27.9854 137.5494 0.0000 0.0000 0.0000
# 4 0.0000 0.0000 0.0000 21.8771 0.0000 0.0000
# 5 0.0000 0.0000 0.0000 0.0000 39.4107 0.0000
# 6 0.0000 0.0000 0.0000 0.0000 0.0000 56.5137
#
#
#
# Elastic Compliance Matrix: (Units=1/GPa)
#
#
# Indices 1 2 3 4 5 6 
#
# 1 0.008513 -0.002537 -0.000759 0.000000 0.000000 0.000000
# 2 -0.002537 0.008556 -0.001361 0.000000 0.000000 0.000000
# 3 -0.000759 -0.001361 0.007661 0.000000 0.000000 0.000000
# 4 0.000000 0.000000 0.000000 0.045710 0.000000 0.000000
# 5 0.000000 0.000000 0.000000 0.000000 0.025374 0.000000
# 6 0.000000 0.000000 0.000000 0.000000 0.000000 0.017695
#
#
# Mechanical properties :
#
#
# Convention : Reuss Voigt Hill
#
# Bulk Modulus (GPa) = 64.86870 65.04233 64.95552
# Shear Modulus (GPa) = 39.07429 44.38664 41.73046
#
# Velocity S-wave (km/s) = 3.78089 4.02972 3.90729
# Velocity P-wave (km/s) = 6.54157 6.74144 6.64225
#
# Compressibility (1/GPa) = 0.01541576
#
# Stress axis : x y z
#
# Youngs Moduli (GPa) = 117.46570 116.87395 130.53674
#
# Poissons Ratio (x) = 0.29655 0.09909
# Poissons Ratio (y) = 0.29805 0.17762
# Poissons Ratio (z) = 0.08917 0.15903
#
# Static dielectric constant tensor:
#      x y z
#    x 2.282020 0.000000 0.000000 
#    y 0.000000 2.120190 0.000000 
#    z 0.000000 0.000000 2.364740 
# 
# From -- ./inp_files/1852.got.cif
#   From: 2010.05.17/outbox.cif.g08.bks.cpg/sg43_1_cif.got.tgz:1852.got - 2010.06.03 19:21:55.
