data_PCOD9372385
_publ_section_title
;
Structure prediction by ZEFSAII (Michael W. Deem and Ramdas Pophale) SiO2 
 PCOD9372385
Probable space group: F D D 2
;
_chemical_formula_sum "Si O2"
_cell_formula_units_Z 80
_cell_length_a 24.651112
_cell_length_b 11.257649
_cell_length_c 13.167989
_cell_angle_alpha 90.000000
_cell_angle_beta 90.000000
_cell_angle_gamma 90.000000
_cell_volume 3654.295589
_symmetry_space_group_name_H-M "F D D 2"
_symmetry_group_IT_number 43
_symmetry_cell_setting 'orthorhombic'
loop_
_space_group_symop_operation_xyz
x,y,z
-x,-y,z
1/4-x,1/4+y,1/4+z
1/4+x,1/4-y,1/4+z
x,1/2+y,1/2+z
-x,1/2-y,1/2+z
1/4-x,3/4+y,3/4+z
1/4+x,3/4-y,3/4+z
1/2+x,y,1/2+z
1/2-x,-y,1/2+z
3/4-x,1/4+y,3/4+z
3/4+x,1/4-y,3/4+z
1/2+x,1/2+y,z
1/2-x,1/2-y,z
3/4-x,3/4+y,1/4+z
3/4+x,3/4-y,1/4+z
loop_
_atom_site_type_symbol
_atom_site_label
_atom_site_fract_x
_atom_site_fract_y
_atom_site_fract_z
Si Si1 0.576814 0.459273 0.684990
Si Si2 0.620209 0.930989 0.973875
Si Si3 0.591472 0.804774 0.523290
Si Si4 0.659605 0.318206 0.822671
Si Si5 0.520569 0.299772 0.541172
O O1 0.609553 0.493129 0.581599
O O2 0.582389 0.583167 0.743485
O O3 0.610748 0.365609 0.751190
O O4 0.525920 0.387118 0.639235
O O5 0.634398 0.014748 0.881405
O O6 0.562535 0.861348 0.963478
O O7 0.635377 0.800107 0.434609
O O8 0.539698 0.720749 0.503415
O O9 0.571966 0.941115 0.531492
O O10 0.703590 0.423000 0.820306
#
# Coordination Sequence:
#
# PCOD9372385 Si02
#       5
#    16  16  16  16  16
#     4   9  18  42  59  82 128 158 204 254 302 385
#     4   9  20  38  60  89 124 158 206 262 304 375
#     4  12  22  40  66  92 130 163 210 271 322 370
#     4  11  21  41  63  92 126 167 212 267 306 388
#     4   9  22  41  62  88 128 166 209 249 329 384
#
# _framework density 21.892045
#
# number of rings (size 3 to 8) (size 9 to 14) (size 15 to 20)
#    1.200    0.800    2.000    1.800    0.000    0.800 
#   10.800    0.000    0.000    0.000    0.000    0.000 
#    0.000    0.000    0.000    0.000    0.000    0.000 
#
# Total GULP energy -111458.630930 kJ/mol
# GULP energy per Si atom -5572.931547 kJ/mol
# Density = 2.184222 g / cm^3
# Si number density = 21.892045 Si / 1000 Ang^3
#
#
#
# Elastic Constant Matrix: (Units=GPa)
#
#
# Indices 1 2 3 4 5 6 
#
# 1 53.1911 3.7285 -0.4400 0.0000 0.0000 0.0000
# 2 3.7285 95.2382 -9.5742 0.0000 0.0000 0.0000
# 3 -0.4400 -9.5742 41.3787 0.0000 0.0000 0.0000
# 4 0.0000 0.0000 0.0000 40.0099 0.0000 0.0000
# 5 0.0000 0.0000 0.0000 0.0000 18.3572 0.0000
# 6 0.0000 0.0000 0.0000 0.0000 0.0000 30.3955
#
#
#
# Elastic Compliance Matrix: (Units=1/GPa)
#
#
# Indices 1 2 3 4 5 6 
#
# 1 0.018852 -0.000735 0.000030 0.000000 0.000000 0.000000
# 2 -0.000735 0.010779 0.002486 0.000000 0.000000 0.000000
# 3 0.000030 0.002486 0.024743 0.000000 0.000000 0.000000
# 4 0.000000 0.000000 0.000000 0.024994 0.000000 0.000000
# 5 0.000000 0.000000 0.000000 0.000000 0.054475 0.000000
# 6 0.000000 0.000000 0.000000 0.000000 0.000000 0.032900
#
#
# Mechanical properties :
#
#
# Convention : Reuss Voigt Hill
#
# Bulk Modulus (GPa) = 17.26031 19.69295 18.47663
# Shear Modulus (GPa) = 27.39874 30.82543 29.11208
#
# Velocity S-wave (km/s) = 3.54155 3.75649 3.65060
# Velocity P-wave (km/s) = 4.96234 5.27541 5.12127
#
# Compressibility (1/GPa) = 0.05793638
#
# Stress axis : x y z
#
# Youngs Moduli (GPa) = 53.04504 92.77560 40.41613
#
# Poissons Ratio (x) = 0.06819 -0.00123
# Poissons Ratio (y) = 0.03899 -0.10048
# Poissons Ratio (z) = -0.00161 -0.23065
#
# Static dielectric constant tensor:
#      x y z
#    x 1.808210 0.000000 0.000000 
#    y 0.000000 1.833300 0.000000 
#    z 0.000000 0.000000 1.758530 
# 
# From -- ./inp_files/9629.got.cif
#   From: 2010.05.17/outbox.cif.g08.bks.cpg/sg43_5_cif.got.tgz:9629.got - 2010.06.03 19:21:55.
