data_PCOD9372773
_publ_section_title
;
Structure prediction by ZEFSAII (Michael W. Deem and Ramdas Pophale) SiO2 
 PCOD9372773
Probable space group: F D D 2
;
_chemical_formula_sum "Si O2"
_cell_formula_units_Z 120
_cell_length_a 26.912968
_cell_length_b 18.936458
_cell_length_c 8.573396
_cell_angle_alpha 90.000000
_cell_angle_beta 90.000000
_cell_angle_gamma 90.000000
_cell_volume 4369.313715
_symmetry_space_group_name_H-M "F D D 2"
_symmetry_group_IT_number 43
_symmetry_cell_setting 'orthorhombic'
loop_
_space_group_symop_operation_xyz
x,y,z
-x,-y,z
1/4-x,1/4+y,1/4+z
1/4+x,1/4-y,1/4+z
x,1/2+y,1/2+z
-x,1/2-y,1/2+z
1/4-x,3/4+y,3/4+z
1/4+x,3/4-y,3/4+z
1/2+x,y,1/2+z
1/2-x,-y,1/2+z
3/4-x,1/4+y,3/4+z
3/4+x,1/4-y,3/4+z
1/2+x,1/2+y,z
1/2-x,1/2-y,z
3/4-x,3/4+y,1/4+z
3/4+x,3/4-y,1/4+z
loop_
_atom_site_type_symbol
_atom_site_label
_atom_site_fract_x
_atom_site_fract_y
_atom_site_fract_z
Si Si1 0.478400 0.613821 0.639720
Si Si2 0.626600 0.929211 0.563022
Si Si3 0.587740 0.118808 0.120458
Si Si4 0.524655 0.847711 0.590443
Si Si5 0.818824 0.186826 0.874399
Si Si6 0.723028 0.012135 0.164868
Si Si7 0.250000 0.750000 0.126221
Si Si8 0.386207 0.042090 0.121058
O O1 0.534173 0.617750 0.704306
O O2 0.468228 0.689336 0.567573
O O3 0.487069 0.564333 0.487742
O O4 0.431601 0.575948 0.721479
O O5 0.660789 0.917984 0.717192
O O6 0.577758 0.883053 0.596889
O O7 0.654130 0.884424 0.430266
O O8 0.606572 0.009279 0.538495
O O9 0.629225 0.151354 0.232471
O O10 0.598054 0.037677 0.079713
O O11 0.483453 0.908075 0.559420
O O12 0.517286 0.792036 0.451881
O O13 0.518727 0.807016 0.756818
O O14 0.797499 0.230952 0.021394
O O15 0.670794 0.971510 0.163733
#
# Coordination Sequence:
#
# PCOD9372773 Si02
#       8
#    16  16  16  16  16  16   8  16
#     4  12  22  39  67 104 147 185 239 310 375 433
#     4  12  23  41  76 108 146 196 251 315 379 456
#     4  12  22  37  69 108 142 183 244 304 373 438
#     4  12  26  49  71 111 151 193 253 318 382 454
#     4  12  25  42  70 107 146 195 255 312 380 453
#     4  12  26  45  73 105 148 195 250 311 374 458
#     4  12  18  38  66 100 142 178 242 316 358 418
#     4  12  23  42  64 104 144 187 242 307 370 449
#
# _framework density 27.464265000000001
#
# number of rings (size 3 to 8) (size 9 to 14) (size 15 to 20)
#    0.000    0.000    8.000    2.400    3.733    0.000 
#    2.400    1.333    0.000    3.200    0.000    0.000 
#    0.000    0.000    0.000    0.000    0.000    0.000 
#
# Total GULP energy -168056.034475 kJ/mol
# GULP energy per Si atom -5601.867816 kJ/mol
# Density = 2.740176 g / cm^3
# Si number density = 27.464265 Si / 1000 Ang^3
#
#
#
# Elastic Constant Matrix: (Units=GPa)
#
#
# Indices 1 2 3 4 5 6 
#
# 1 154.1984 57.5156 17.1021 0.0000 0.0000 0.0000
# 2 57.5156 109.2536 29.2740 -0.0001 0.0000 0.0000
# 3 17.1021 29.2740 61.0413 -0.0003 0.0000 0.0000
# 4 0.0000 -0.0001 -0.0003 28.1998 0.0000 0.0000
# 5 0.0000 0.0000 0.0000 0.0000 34.2830 0.0000
# 6 0.0000 0.0000 0.0000 0.0000 0.0000 72.1872
#
#
#
# Elastic Compliance Matrix: (Units=1/GPa)
#
#
# Indices 1 2 3 4 5 6 
#
# 1 0.008073 -0.004181 -0.000257 0.000000 0.000000 0.000000
# 2 -0.004181 0.012668 -0.004904 0.000000 0.000000 0.000000
# 3 -0.000257 -0.004904 0.018806 0.000000 0.000000 0.000000
# 4 0.000000 0.000000 0.000000 0.035461 0.000000 0.000000
# 5 0.000000 0.000000 0.000000 0.000000 0.029169 0.000000
# 6 0.000000 0.000000 0.000000 0.000000 0.000000 0.013853
#
#
# Mechanical properties :
#
#
# Convention : Reuss Voigt Hill
#
# Bulk Modulus (GPa) = 47.92989 59.14185 53.53587
# Shear Modulus (GPa) = 34.80225 41.64077 38.22151
#
# Velocity S-wave (km/s) = 3.56361 3.89804 3.73457
# Velocity P-wave (km/s) = 5.86703 6.46842 6.17505
#
# Compressibility (1/GPa) = 0.02086381
#
# Stress axis : x y z
#
# Youngs Moduli (GPa) = 123.86608 78.93770 53.17434
#
# Poissons Ratio (x) = 0.33006 0.01365
# Poissons Ratio (y) = 0.51792 0.26076
# Poissons Ratio (z) = 0.03179 0.38710
#
# Static dielectric constant tensor:
#      x y z
#    x 2.145790 0.000000 0.000000 
#    y 0.000000 2.109680 0.000000 
#    z 0.000000 0.000000 2.190870 
# 
# From -- ./inp_files/7977.got.cif
#   From: 2010.05.17/outbox.cif.g08.bks.cpg/sg43_4_cif.got.tgz:7977.got - 2010.06.03 19:21:55.
