data_PCOD9372067
_publ_section_title
;
Structure prediction by ZEFSAII (Michael W. Deem and Ramdas Pophale) SiO2 
 PCOD9372067
Probable space group: F D D 2
;
_chemical_formula_sum "Si O2"
_cell_formula_units_Z 120
_cell_length_a 25.653820
_cell_length_b 9.367282
_cell_length_c 23.377509
_cell_angle_alpha 90.000000
_cell_angle_beta 90.000000
_cell_angle_gamma 90.000000
_cell_volume 5617.768917
_symmetry_space_group_name_H-M "F D D 2"
_symmetry_group_IT_number 43
_symmetry_cell_setting 'orthorhombic'
loop_
_space_group_symop_operation_xyz
x,y,z
-x,-y,z
1/4-x,1/4+y,1/4+z
1/4+x,1/4-y,1/4+z
x,1/2+y,1/2+z
-x,1/2-y,1/2+z
1/4-x,3/4+y,3/4+z
1/4+x,3/4-y,3/4+z
1/2+x,y,1/2+z
1/2-x,-y,1/2+z
3/4-x,1/4+y,3/4+z
3/4+x,1/4-y,3/4+z
1/2+x,1/2+y,z
1/2-x,1/2-y,z
3/4-x,3/4+y,1/4+z
3/4+x,3/4-y,1/4+z
loop_
_atom_site_type_symbol
_atom_site_label
_atom_site_fract_x
_atom_site_fract_y
_atom_site_fract_z
Si Si1 0.673388 0.805524 0.871440
Si Si2 0.068634 0.758728 0.320671
Si Si3 0.059463 0.946755 0.805845
Si Si4 0.750000 0.750000 0.773826
Si Si5 0.684745 0.518853 0.940330
Si Si6 0.998501 0.345087 0.918114
Si Si7 0.361885 0.468197 0.160015
Si Si8 0.296748 0.928612 0.942676
O O1 0.615585 0.839624 0.851158
O O2 0.709139 0.821584 0.815873
O O3 0.678400 0.642736 0.893200
O O4 0.690560 0.910794 0.921527
O O5 0.087579 0.600269 0.303165
O O6 0.051802 0.831956 0.261531
O O7 0.026809 0.747589 0.372201
O O8 0.056478 0.854928 0.748517
O O9 0.090674 0.849034 0.850775
O O10 0.000000 0.000000 0.817150
O O11 0.725921 0.634063 0.729398
O O12 0.634251 0.418689 0.943603
O O13 0.735256 0.419491 0.928582
O O14 0.940264 0.294785 0.932490
O O15 0.000000 0.500000 0.887907
O O16 0.410081 0.579307 0.162157
#
# Coordination Sequence:
#
# PCOD9372067 Si02
#       8
#    16  16  16   8  16  16  16  16
#     4  12  23  43  74 105 144 199 239 299 366 450
#     4  12  24  42  79 100 144 195 256 297 356 459
#     4  12  23  47  73 101 144 195 245 300 363 451
#     4  10  24  44  68 100 156 184 246 286 372 446
#     4  12  24  44  72 103 147 195 239 301 372 439
#     4  10  24  45  71 106 144 191 240 301 369 437
#     4  12  26  44  71 111 144 177 246 313 365 422
#     4  12  25  45  72 109 145 191 247 307 374 431
#
# _framework density 21.360793000000001
#
# number of rings (size 3 to 8) (size 9 to 14) (size 15 to 20)
#    0.400    0.000    6.667    2.000    1.867    4.267 
#    0.000    0.000    0.000    0.000    0.000    0.000 
#    0.000    0.000    0.000    0.000    0.000    0.000 
#
# Total GULP energy -167228.758158 kJ/mol
# GULP energy per Si atom -5574.291939 kJ/mol
# Density = 2.131217 g / cm^3
# Si number density = 21.360793 Si / 1000 Ang^3
#
#
#
# Elastic Constant Matrix: (Units=GPa)
#
#
# Indices 1 2 3 4 5 6 
#
# 1 108.4902 15.7641 47.9903 0.0000 0.0000 0.0000
# 2 15.7641 64.0456 35.5191 0.0000 0.0000 0.0000
# 3 47.9903 35.5191 108.4045 0.0000 0.0000 0.0000
# 4 0.0000 0.0000 0.0000 7.5679 0.0000 0.0000
# 5 0.0000 0.0000 0.0000 0.0000 24.2887 0.0000
# 6 0.0000 0.0000 0.0000 0.0000 0.0000 42.1541
#
#
#
# Elastic Compliance Matrix: (Units=1/GPa)
#
#
# Indices 1 2 3 4 5 6 
#
# 1 0.011462 -0.000009 -0.005071 0.000000 0.000000 0.000000
# 2 -0.000009 0.019081 -0.006248 0.000000 0.000000 0.000000
# 3 -0.005071 -0.006248 0.013517 0.000000 0.000000 0.000000
# 4 0.000000 0.000000 0.000000 0.132136 0.000000 0.000000
# 5 0.000000 0.000000 0.000000 0.000000 0.041171 0.000000
# 6 0.000000 0.000000 0.000000 0.000000 0.000000 0.023722
#
#
# Mechanical properties :
#
#
# Convention : Reuss Voigt Hill
#
# Bulk Modulus (GPa) = 46.72073 53.27634 49.99853
# Shear Modulus (GPa) = 18.45825 26.91327 22.68576
#
# Velocity S-wave (km/s) = 2.94278 3.55341 3.26241
# Velocity P-wave (km/s) = 5.78500 6.46769 6.13585
#
# Compressibility (1/GPa) = 0.02140377
#
# Stress axis : x y z
#
# Youngs Moduli (GPa) = 87.24500 52.40760 73.98095
#
# Poissons Ratio (x) = 0.00046 0.37518
# Poissons Ratio (y) = 0.00076 0.46224
# Poissons Ratio (z) = 0.44245 0.32745
#
# Static dielectric constant tensor:
#      x y z
#    x 2.188150 0.000000 0.000000 
#    y 0.000000 1.857950 0.000000 
#    z 0.000000 0.000000 1.734640 
# 
# From -- ./inp_files/22841.got.cif
#   From: 2010.05.17/outbox.cif.g08.bks.cpg/sg43_12_cif.got.tgz:22841.got - 2010.06.03 19:21:55.
