data_PCOD9372822
_publ_section_title
;
Structure prediction by ZEFSAII (Michael W. Deem and Ramdas Pophale) SiO2 
 PCOD9372822
Probable space group: F D D 2
;
_chemical_formula_sum "Si O2"
_cell_formula_units_Z 80
_cell_length_a 9.152541
_cell_length_b 24.924425
_cell_length_c 13.686702
_cell_angle_alpha 90.000000
_cell_angle_beta 90.000000
_cell_angle_gamma 90.000000
_cell_volume 3122.235393
_symmetry_space_group_name_H-M "F D D 2"
_symmetry_group_IT_number 43
_symmetry_cell_setting 'orthorhombic'
loop_
_space_group_symop_operation_xyz
x,y,z
-x,-y,z
1/4-x,1/4+y,1/4+z
1/4+x,1/4-y,1/4+z
x,1/2+y,1/2+z
-x,1/2-y,1/2+z
1/4-x,3/4+y,3/4+z
1/4+x,3/4-y,3/4+z
1/2+x,y,1/2+z
1/2-x,-y,1/2+z
3/4-x,1/4+y,3/4+z
3/4+x,1/4-y,3/4+z
1/2+x,1/2+y,z
1/2-x,1/2-y,z
3/4-x,3/4+y,1/4+z
3/4+x,3/4-y,1/4+z
loop_
_atom_site_type_symbol
_atom_site_label
_atom_site_fract_x
_atom_site_fract_y
_atom_site_fract_z
Si Si1 0.589096 0.300692 0.955990
Si Si2 0.076782 0.093142 0.538600
Si Si3 0.750000 0.750000 0.136814
Si Si4 0.674640 0.050853 0.216668
Si Si5 0.570150 0.411664 0.038580
Si Si6 0.000000 0.000000 0.389771
O O1 0.515240 0.355443 0.993338
O O2 0.716579 0.318645 0.878684
O O3 0.745710 0.404537 0.050446
O O4 0.639521 0.273337 0.057891
O O5 0.045766 0.074598 0.648921
O O6 0.003594 0.050488 0.464738
O O7 0.028116 0.151158 0.503194
O O8 0.638814 0.778481 0.066054
O O9 0.683675 0.706094 0.206395
O O10 0.747308 0.999173 0.162459
#
# Coordination Sequence:
#
# PCOD9372822 Si02
#       6
#    16  16   8  16  16   8
#     4  12  25  46  73 106 148 193 246 306 370 446
#     4  12  26  45  72 106 145 194 247 305 376 446
#     4  12  28  48  74 110 148 198 254 308 372 448
#     4  12  27  48  72 107 151 195 248 311 375 445
#     4  12  26  45  75 109 143 194 250 303 373 449
#     4  12  24  42  70 104 146 196 244 300 368 444
#
# _framework density 25.622667
#
# number of rings (size 3 to 8) (size 9 to 14) (size 15 to 20)
#    0.000    0.000    0.000   12.000    0.000    4.800 
#    0.000    0.000    0.000    0.000    0.000    0.000 
#    0.000    0.000    0.000    0.000    0.000    0.000 
#
# Total GULP energy -111733.157659 kJ/mol
# GULP energy per Si atom -5586.657883 kJ/mol
# Density = 2.556435 g / cm^3
# Si number density = 25.622667 Si / 1000 Ang^3
#
#
#
# Elastic Constant Matrix: (Units=GPa)
#
#
# Indices 1 2 3 4 5 6 
#
# 1 85.5556 73.2649 64.3833 0.0000 0.0000 0.0000
# 2 73.2649 200.5215 72.3949 0.0000 0.0000 0.0000
# 3 64.3833 72.3949 174.5336 0.0000 0.0000 0.0000
# 4 0.0000 0.0000 0.0000 32.8687 0.0000 0.0000
# 5 0.0000 0.0000 0.0000 0.0000 -18.8402 0.0000
# 6 0.0000 0.0000 0.0000 0.0000 0.0000 252.0507
#
#
#
# Elastic Compliance Matrix: (Units=1/GPa)
#
#
# Indices 1 2 3 4 5 6 
#
# 1 0.020370 -0.005563 -0.005207 0.000000 0.000000 0.000000
# 2 -0.005563 0.007385 -0.001011 0.000000 0.000000 0.000000
# 3 -0.005207 -0.001011 0.008070 0.000000 0.000000 0.000000
# 4 0.000000 0.000000 0.000000 0.030424 0.000000 0.000000
# 5 0.000000 0.000000 0.000000 0.000000 -0.053078 0.000000
# 6 0.000000 0.000000 0.000000 0.000000 0.000000 0.003967
#
#
# Mechanical properties :
#
#
# Convention : Reuss Voigt Hill
#
# Bulk Modulus (GPa) = 81.54600 97.85520 89.70060
# Shear Modulus (GPa) = 111.63867 69.92036 90.77951
#
# Velocity S-wave (km/s) = 6.60794 5.22950 5.95872
# Velocity P-wave (km/s) = 9.49287 8.64508 9.07888
#
# Compressibility (1/GPa) = 0.01226302
#
# Stress axis : x y z
#
# Youngs Moduli (GPa) = 49.09070 135.41863 123.92076
#
# Poissons Ratio (x) = 0.75332 0.64525
# Poissons Ratio (y) = 0.27309 0.12528
# Poissons Ratio (z) = 0.25561 0.13690
#
# Static dielectric constant tensor:
#      x y z
#    x 2.247490 0.000000 0.000000 
#    y 0.000000 2.113320 0.000000 
#    z 0.000000 0.000000 2.110140 
# 
# From -- ./inp_files/6591.got.cif
#   From: 2010.05.17/outbox.cif.g08.bks.cpg/sg43_4_cif.got.tgz:6591.got - 2010.06.03 19:21:55.
