data_PCOD9372276
_publ_section_title
;
Structure prediction by ZEFSAII (Michael W. Deem and Ramdas Pophale) SiO2 
 PCOD9372276
Probable space group: F D D 2
;
_chemical_formula_sum "Si O2"
_cell_formula_units_Z 72
_cell_length_a 16.819000
_cell_length_b 17.556216
_cell_length_c 9.407580
_cell_angle_alpha 90.000000
_cell_angle_beta 90.000000
_cell_angle_gamma 90.000000
_cell_volume 2777.851378
_symmetry_space_group_name_H-M "F D D 2"
_symmetry_group_IT_number 43
_symmetry_cell_setting 'orthorhombic'
loop_
_space_group_symop_operation_xyz
x,y,z
-x,-y,z
1/4-x,1/4+y,1/4+z
1/4+x,1/4-y,1/4+z
x,1/2+y,1/2+z
-x,1/2-y,1/2+z
1/4-x,3/4+y,3/4+z
1/4+x,3/4-y,3/4+z
1/2+x,y,1/2+z
1/2-x,-y,1/2+z
3/4-x,1/4+y,3/4+z
3/4+x,1/4-y,3/4+z
1/2+x,1/2+y,z
1/2-x,1/2-y,z
3/4-x,3/4+y,1/4+z
3/4+x,3/4-y,1/4+z
loop_
_atom_site_type_symbol
_atom_site_label
_atom_site_fract_x
_atom_site_fract_y
_atom_site_fract_z
Si Si1 0.444698 0.271813 0.271280
Si Si2 0.357419 0.182308 0.477787
Si Si3 0.876314 0.255963 0.250284
Si Si4 0.500000 0.000000 0.213565
Si Si5 0.423783 0.909132 0.410192
O O1 0.338229 0.246665 0.594744
O O2 0.400732 0.351035 0.302997
O O3 0.536839 0.280661 0.238948
O O4 0.437220 0.217150 0.408808
O O5 0.310295 0.163514 0.329638
O O6 0.496233 0.068422 0.326411
O O7 0.816534 0.217390 0.359899
O O8 0.887699 0.336538 0.330753
O O9 0.644541 0.024302 0.401767
#
# Coordination Sequence:
#
# PCOD9372276 Si02
#       5
#    16  16  16   8  16
#     4  10  26  50  81 113 157 213 276 339 418 492
#     4  10  27  48  79 115 161 214 274 339 421 495
#     4  12  27  47  80 118 163 217 277 343 408 505
#     4  12  28  44  76 120 164 212 280 334 420 482
#     4  10  26  47  80 113 161 214 267 345 413 489
#
# _framework density 25.919312999999999
#
# number of rings (size 3 to 8) (size 9 to 14) (size 15 to 20)
#    1.333    0.000    0.000    2.667   12.444    2.667 
#    0.000    0.000    0.000    0.000    0.000    0.000 
#    0.000    0.000    0.000    0.000    0.000    0.000 
#
# Total GULP energy -100202.156822 kJ/mol
# GULP energy per Si atom -5566.786490 kJ/mol
# Density = 2.586032 g / cm^3
# Si number density = 25.919313 Si / 1000 Ang^3
#
#
#
# Elastic Constant Matrix: (Units=GPa)
#
#
# Indices 1 2 3 4 5 6 
#
# 1 109.9454 22.2035 37.1588 0.0000 0.0000 0.0000
# 2 22.2035 67.8269 69.8393 0.0000 0.0000 0.0000
# 3 37.1588 69.8393 203.1775 0.0000 0.0000 0.0000
# 4 0.0000 0.0000 0.0000 39.2910 0.0000 0.0000
# 5 0.0000 0.0000 0.0000 0.0000 27.6597 0.0000
# 6 0.0000 0.0000 0.0000 0.0000 0.0000 18.0932
#
#
#
# Elastic Compliance Matrix: (Units=1/GPa)
#
#
# Indices 1 2 3 4 5 6 
#
# 1 0.009889 -0.002128 -0.001077 0.000000 0.000000 0.000000
# 2 -0.002128 0.023278 -0.007612 0.000000 0.000000 0.000000
# 3 -0.001077 -0.007612 0.007735 0.000000 0.000000 0.000000
# 4 0.000000 0.000000 0.000000 0.025451 0.000000 0.000000
# 5 0.000000 0.000000 0.000000 0.000000 0.036154 0.000000
# 6 0.000000 0.000000 0.000000 0.000000 0.000000 0.055269
#
#
# Mechanical properties :
#
#
# Convention : Reuss Voigt Hill
#
# Bulk Modulus (GPa) = 51.90057 71.03921 61.46989
# Shear Modulus (GPa) = 26.90560 33.79201 30.34880
#
# Velocity S-wave (km/s) = 3.22538 3.61465 3.42555
# Velocity P-wave (km/s) = 5.82564 6.69987 6.27799
#
# Compressibility (1/GPa) = 0.01926761
#
# Stress axis : x y z
#
# Youngs Moduli (GPa) = 101.11992 42.95845 129.27550
#
# Poissons Ratio (x) = 0.09143 0.13924
# Poissons Ratio (y) = 0.21521 0.98409
# Poissons Ratio (z) = 0.10891 0.32701
#
# Static dielectric constant tensor:
#      x y z
#    x 2.127790 0.000000 0.000000 
#    y 0.000000 2.144420 0.000000 
#    z 0.000000 0.000000 2.077630 
# 
# From -- ./inp_files/6575.got.cif
#   From: 2010.05.17/outbox.cif.g08.bks.cpg/sg43_4_cif.got.tgz:6575.got - 2010.06.03 19:21:55.
