data_PCOD9372157
_publ_section_title
;
Structure prediction by ZEFSAII (Michael W. Deem and Ramdas Pophale) SiO2 
 PCOD9372157
Probable space group: F D D 2
;
_chemical_formula_sum "Si O2"
_cell_formula_units_Z 120
_cell_length_a 17.400054
_cell_length_b 11.288221
_cell_length_c 26.242529
_cell_angle_alpha 90.000000
_cell_angle_beta 90.000000
_cell_angle_gamma 90.000000
_cell_volume 5154.443521
_symmetry_space_group_name_H-M "F D D 2"
_symmetry_group_IT_number 43
_symmetry_cell_setting 'orthorhombic'
loop_
_space_group_symop_operation_xyz
x,y,z
-x,-y,z
1/4-x,1/4+y,1/4+z
1/4+x,1/4-y,1/4+z
x,1/2+y,1/2+z
-x,1/2-y,1/2+z
1/4-x,3/4+y,3/4+z
1/4+x,3/4-y,3/4+z
1/2+x,y,1/2+z
1/2-x,-y,1/2+z
3/4-x,1/4+y,3/4+z
3/4+x,1/4-y,3/4+z
1/2+x,1/2+y,z
1/2-x,1/2-y,z
3/4-x,3/4+y,1/4+z
3/4+x,3/4-y,1/4+z
loop_
_atom_site_type_symbol
_atom_site_label
_atom_site_fract_x
_atom_site_fract_y
_atom_site_fract_z
Si Si1 0.250000 0.750000 0.887691
Si Si2 0.086599 0.268569 0.399307
Si Si3 0.260676 0.610230 0.737480
Si Si4 0.967464 0.238290 0.084475
Si Si5 0.573550 0.935686 0.109980
Si Si6 0.763463 0.615098 0.065391
Si Si7 0.582769 0.494771 0.403625
Si Si8 0.148121 0.797503 0.469621
O O1 0.173905 0.807398 0.912377
O O2 0.282632 0.854000 0.853395
O O3 0.090844 0.132125 0.417138
O O4 0.021282 0.334623 0.431502
O O5 0.057196 0.290605 0.340654
O O6 0.250000 0.750000 0.747154
O O7 0.211419 0.526074 0.774696
O O8 0.346000 0.554796 0.745865
O O9 0.896329 0.295648 0.113274
O O10 0.044587 0.301046 0.103894
O O11 0.657554 0.941782 0.086174
O O12 0.500000 0.000000 0.083723
O O13 0.577077 0.982045 0.167658
O O14 0.750000 0.750000 0.084149
O O15 0.787089 0.640514 0.005461
O O16 0.500000 0.500000 0.378612
O O17 0.592853 0.405031 0.450524
#
# Coordination Sequence:
#
# PCOD9372157 Si02
#       8
#     8  16  16  16  16  16  16  16
#     4  10  24  48  68 104 146 202 252 310 396 464
#     4  11  25  47  74 106 155 207 251 323 396 468
#     4  12  25  45  74 111 150 199 262 323 396 475
#     4  11  24  44  72  99 147 199 250 326 386 467
#     4  12  24  44  71 111 152 201 256 324 398 457
#     4  12  26  45  78 118 153 205 272 323 394 479
#     4  11  23  48  68 102 154 202 255 313 389 474
#     4  12  26  45  75 118 149 203 266 328 389 478
#
# _framework density 23.280884
#
# number of rings (size 3 to 8) (size 9 to 14) (size 15 to 20)
#    0.000    0.533    6.000    1.600    1.867    1.600 
#    1.200    4.000    0.000    0.000    0.000    0.000 
#    0.000    0.000    0.000    0.000    0.000    0.000 
#
# Total GULP energy -167058.297375 kJ/mol
# GULP energy per Si atom -5568.609913 kJ/mol
# Density = 2.322790 g / cm^3
# Si number density = 23.280884 Si / 1000 Ang^3
#
#
#
# Elastic Constant Matrix: (Units=GPa)
#
#
# Indices 1 2 3 4 5 6 
#
# 1 101.1971 7.6308 10.4336 0.0000 0.0000 0.0000
# 2 7.6308 111.7395 26.2428 0.0000 0.0000 0.0000
# 3 10.4336 26.2428 91.7773 0.0000 0.0000 0.0000
# 4 0.0000 0.0000 0.0000 328.3998 0.0000 0.0000
# 5 0.0000 0.0000 0.0000 0.0000 14.9711 0.0000
# 6 0.0000 0.0000 0.0000 0.0000 0.0000 43.2620
#
#
#
# Elastic Compliance Matrix: (Units=1/GPa)
#
#
# Indices 1 2 3 4 5 6 
#
# 1 0.010020 -0.000447 -0.001011 0.000000 0.000000 0.000000
# 2 -0.000447 0.009614 -0.002698 0.000000 0.000000 0.000000
# 3 -0.001011 -0.002698 0.011782 0.000000 0.000000 0.000000
# 4 0.000000 0.000000 0.000000 0.003045 0.000000 0.000000
# 5 0.000000 0.000000 0.000000 0.000000 0.066795 0.000000
# 6 0.000000 0.000000 0.000000 0.000000 0.000000 0.023115
#
#
# Mechanical properties :
#
#
# Convention : Reuss Voigt Hill
#
# Bulk Modulus (GPa) = 43.28393 43.70315 43.49354
# Shear Modulus (GPa) = 35.61647 94.68703 65.15175
#
# Velocity S-wave (km/s) = 3.91558 6.38435 5.29583
# Velocity P-wave (km/s) = 6.25098 8.55333 7.49113
#
# Compressibility (1/GPa) = 0.02310326
#
# Stress axis : x y z
#
# Youngs Moduli (GPa) = 99.80378 104.01961 84.87223
#
# Poissons Ratio (x) = 0.04647 0.08583
# Poissons Ratio (y) = 0.04459 0.22900
# Poissons Ratio (z) = 0.10094 0.28066
#
# Static dielectric constant tensor:
#      x y z
#    x 2.045630 0.000000 0.000000 
#    y 0.000000 0.491190 0.000000 
#    z 0.000000 0.000000 1.911580 
# 
# From -- ./inp_files/29524.got.cif
#   From: 2010.05.17/outbox.cif.g08.bks.cpg/sg43_15_cif.got.tgz:29524.got - 2010.06.03 19:21:55.
