data_PCOD9372657
_publ_section_title
;
Structure prediction by ZEFSAII (Michael W. Deem and Ramdas Pophale) SiO2 
 PCOD9372657
Probable space group: F D D 2
;
_chemical_formula_sum "Si O2"
_cell_formula_units_Z 96
_cell_length_a 18.750156
_cell_length_b 24.227217
_cell_length_c 8.837150
_cell_angle_alpha 90.000000
_cell_angle_beta 90.000000
_cell_angle_gamma 90.000000
_cell_volume 4014.399975
_symmetry_space_group_name_H-M "F D D 2"
_symmetry_group_IT_number 43
_symmetry_cell_setting 'orthorhombic'
loop_
_space_group_symop_operation_xyz
x,y,z
-x,-y,z
1/4-x,1/4+y,1/4+z
1/4+x,1/4-y,1/4+z
x,1/2+y,1/2+z
-x,1/2-y,1/2+z
1/4-x,3/4+y,3/4+z
1/4+x,3/4-y,3/4+z
1/2+x,y,1/2+z
1/2-x,-y,1/2+z
3/4-x,1/4+y,3/4+z
3/4+x,1/4-y,3/4+z
1/2+x,1/2+y,z
1/2-x,1/2-y,z
3/4-x,3/4+y,1/4+z
3/4+x,3/4-y,1/4+z
loop_
_atom_site_type_symbol
_atom_site_label
_atom_site_fract_x
_atom_site_fract_y
_atom_site_fract_z
Si Si1 0.326962 0.221078 0.234080
Si Si2 0.649626 0.375522 0.217003
Si Si3 0.250075 0.119220 0.291973
Si Si4 0.711573 0.962257 0.522676
Si Si5 0.186910 0.932666 0.530364
Si Si6 0.332186 0.235776 0.894711
O O1 0.250000 0.250000 0.225935
O O2 0.308651 0.166150 0.325364
O O3 0.386664 0.258802 0.308343
O O4 0.353048 0.212642 0.061172
O O5 0.576829 0.380102 0.116537
O O6 0.712780 0.406314 0.122699
O O7 0.656417 0.409120 0.374115
O O8 0.655012 0.311509 0.268094
O O9 0.278806 0.062078 0.356793
O O10 0.259617 0.110886 0.111513
O O11 0.768669 0.010435 0.527829
O O12 0.118620 0.954929 0.619799
O O13 0.250000 0.250000 0.894963
#
# Coordination Sequence:
#
# PCOD9372657 Si02
#       6
#    16  16  16  16  16  16
#     4  11  24  47  72 108 149 203 259 317 397 476
#     4  12  28  48  75 115 153 206 270 329 404 488
#     4  12  26  48  76 108 153 207 263 320 404 483
#     4  12  27  45  77 109 154 199 264 333 397 475
#     4  12  27  49  75 112 155 203 262 332 401 474
#     4  11  26  46  75 109 154 204 260 324 401 481
#
# _framework density 23.913910999999999
#
# number of rings (size 3 to 8) (size 9 to 14) (size 15 to 20)
#    0.000    0.333    6.667    1.000    4.667    1.333 
#    0.000    0.000    0.000    0.000    0.000    0.000 
#    0.000    0.000    0.000    0.000    0.000    0.000 
#
# Total GULP energy -133905.021496 kJ/mol
# GULP energy per Si atom -5579.375896 kJ/mol
# Density = 2.385948 g / cm^3
# Si number density = 23.913911 Si / 1000 Ang^3
#
#
#
# Elastic Constant Matrix: (Units=GPa)
#
#
# Indices 1 2 3 4 5 6 
#
# 1 93.0051 18.4753 23.8139 0.0000 0.0000 0.0000
# 2 18.4753 71.5474 18.7534 0.0000 0.0000 0.0000
# 3 23.8139 18.7534 81.3534 0.0000 0.0001 0.0000
# 4 0.0000 0.0000 0.0000 49.3384 0.0000 0.0000
# 5 0.0000 0.0000 0.0001 0.0000 22.7286 0.0000
# 6 0.0000 0.0000 0.0000 0.0000 0.0000 45.5081
#
#
#
# Elastic Compliance Matrix: (Units=1/GPa)
#
#
# Indices 1 2 3 4 5 6 
#
# 1 0.011972 -0.002313 -0.002971 0.000000 0.000000 0.000000
# 2 -0.002313 0.015322 -0.002855 0.000000 0.000000 0.000000
# 3 -0.002971 -0.002855 0.013820 0.000000 0.000000 0.000000
# 4 0.000000 0.000000 0.000000 0.020268 0.000000 0.000000
# 5 0.000000 0.000000 0.000000 0.000000 0.043997 0.000000
# 6 0.000000 0.000000 0.000000 0.000000 0.000000 0.021974
#
#
# Mechanical properties :
#
#
# Convention : Reuss Voigt Hill
#
# Bulk Modulus (GPa) = 40.26384 40.88790 40.57587
# Shear Modulus (GPa) = 32.91389 35.83925 34.37657
#
# Velocity S-wave (km/s) = 3.71394 3.87548 3.79557
# Velocity P-wave (km/s) = 5.93841 6.09597 6.01770
#
# Compressibility (1/GPa) = 0.02483618
#
# Stress axis : x y z
#
# Youngs Moduli (GPa) = 83.52575 65.26438 72.35888
#
# Poissons Ratio (x) = 0.15094 0.21501
# Poissons Ratio (y) = 0.19317 0.20659
# Poissons Ratio (z) = 0.24819 0.18634
#
# Static dielectric constant tensor:
#      x y z
#    x 2.253610 0.000000 0.000000 
#    y 0.000000 1.973000 0.000000 
#    z 0.000000 0.000000 2.011020 
# 
# From -- ./inp_files/3293.got.cif
#   From: 2010.05.17/outbox.cif.g08.bks.cpg/sg43_2_cif.got.tgz:3293.got - 2010.06.03 19:21:55.
