data_PCOD9372156
_publ_section_title
;
Structure prediction by ZEFSAII (Michael W. Deem and Ramdas Pophale) SiO2 
 PCOD9372156
Probable space group: F D D 2
;
_chemical_formula_sum "Si O2"
_cell_formula_units_Z 96
_cell_length_a 20.486806
_cell_length_b 16.100148
_cell_length_c 11.808978
_cell_angle_alpha 90.000000
_cell_angle_beta 90.000000
_cell_angle_gamma 90.000000
_cell_volume 3895.080491
_symmetry_space_group_name_H-M "F D D 2"
_symmetry_group_IT_number 43
_symmetry_cell_setting 'orthorhombic'
loop_
_space_group_symop_operation_xyz
x,y,z
-x,-y,z
1/4-x,1/4+y,1/4+z
1/4+x,1/4-y,1/4+z
x,1/2+y,1/2+z
-x,1/2-y,1/2+z
1/4-x,3/4+y,3/4+z
1/4+x,3/4-y,3/4+z
1/2+x,y,1/2+z
1/2-x,-y,1/2+z
3/4-x,1/4+y,3/4+z
3/4+x,1/4-y,3/4+z
1/2+x,1/2+y,z
1/2-x,1/2-y,z
3/4-x,3/4+y,1/4+z
3/4+x,3/4-y,1/4+z
loop_
_atom_site_type_symbol
_atom_site_label
_atom_site_fract_x
_atom_site_fract_y
_atom_site_fract_z
Si Si1 0.250000 0.750000 0.954201
Si Si2 0.750000 0.250000 0.476535
Si Si3 0.642584 0.501909 0.628728
Si Si4 0.849605 0.531043 0.513857
Si Si5 0.068493 0.126044 0.059589
Si Si6 0.027010 0.677802 0.212880
Si Si7 0.873354 0.074862 0.271394
O O1 0.242440 0.830707 0.871463
O O2 0.316150 0.759469 0.026394
O O3 0.682497 0.250838 0.410082
O O4 0.749471 0.343542 0.521257
O O5 0.683703 0.457104 0.729086
O O6 0.654707 0.441819 0.524630
O O7 0.654777 0.592473 0.576950
O O8 0.895860 0.450806 0.498980
O O9 0.863522 0.595281 0.414402
O O10 0.776562 0.496854 0.490540
O O11 0.857355 0.570228 0.637442
O O12 0.053034 0.682481 0.084451
#
# Coordination Sequence:
#
# PCOD9372156 Si02
#       7
#     8   8  16  16  16  16  16
#     4  10  24  52  74 112 150 206 252 340 392 476
#     4  10  24  48  64 110 146 194 256 320 378 462
#     4  11  25  45  73 110 150 202 254 324 398 473
#     4  11  26  48  75 113 151 204 261 332 392 478
#     4  11  26  47  78 109 153 200 265 321 405 466
#     4  11  25  45  75 106 150 205 258 322 397 473
#     4  10  26  47  74 112 156 200 262 324 411 462
#
# _framework density 24.646474999999999
#
# number of rings (size 3 to 8) (size 9 to 14) (size 15 to 20)
#    0.000    1.333    1.667    1.000   11.667    4.000 
#    9.000    0.000    0.000    0.000    0.000    0.000 
#    0.000    0.000    0.000    0.000    0.000    0.000 
#
# Total GULP energy -133700.211070 kJ/mol
# GULP energy per Si atom -5570.842128 kJ/mol
# Density = 2.459038 g / cm^3
# Si number density = 24.646475 Si / 1000 Ang^3
#
#
#
# Elastic Constant Matrix: (Units=GPa)
#
#
# Indices 1 2 3 4 5 6 
#
# 1 68.3100 42.8796 -1.7116 0.0000 0.0000 0.0000
# 2 42.8796 122.1666 41.3088 0.0000 0.0000 0.0000
# 3 -1.7116 41.3088 73.2829 0.0000 0.0000 0.0000
# 4 0.0000 0.0000 0.0000 36.3450 0.0000 0.0000
# 5 0.0000 0.0000 0.0000 0.0000 5.4346 0.0000
# 6 0.0000 0.0000 0.0000 0.0000 0.0000 32.4438
#
#
#
# Elastic Compliance Matrix: (Units=1/GPa)
#
#
# Indices 1 2 3 4 5 6 
#
# 1 0.020480 -0.009081 0.005597 0.000000 0.000000 0.000000
# 2 -0.009081 0.014140 -0.008182 0.000000 0.000000 0.000000
# 3 0.005597 -0.008182 0.018389 0.000000 0.000000 0.000000
# 4 0.000000 0.000000 0.000000 0.027514 0.000000 0.000000
# 5 0.000000 0.000000 0.000000 0.000000 0.184007 0.000000
# 6 0.000000 0.000000 0.000000 0.000000 0.000000 0.030823
#
#
# Mechanical properties :
#
#
# Convention : Reuss Voigt Hill
#
# Bulk Modulus (GPa) = 33.69759 47.63479 40.66619
# Shear Modulus (GPa) = 15.21719 26.93017 21.07368
#
# Velocity S-wave (km/s) = 2.48749 3.30912 2.92728
# Velocity P-wave (km/s) = 4.68531 5.82834 5.28780
#
# Compressibility (1/GPa) = 0.02967571
#
# Stress axis : x y z
#
# Youngs Moduli (GPa) = 48.82920 70.72346 54.38085
#
# Poissons Ratio (x) = 0.64222 -0.30437
# Poissons Ratio (y) = 0.44340 0.44497
# Poissons Ratio (z) = -0.27330 0.57869
#
# Static dielectric constant tensor:
#      x y z
#    x 1.934120 0.000000 0.000000 
#    y 0.000000 2.249430 0.000000 
#    z 0.000000 0.000000 2.024900 
# 
# From -- ./inp_files/7541.got.cif
#   From: 2010.05.17/outbox.cif.g08.bks.cpg/sg43_4_cif.got.tgz:7541.got - 2010.06.03 19:21:55.
