data_PCOD9372219
_publ_section_title
;
Structure prediction by ZEFSAII (Michael W. Deem and Ramdas Pophale) SiO2 
 PCOD9372219
Probable space group: F D D 2
;
_chemical_formula_sum "Si O2"
_cell_formula_units_Z 96
_cell_length_a 8.852137
_cell_length_b 20.906411
_cell_length_c 22.943094
_cell_angle_alpha 90.000000
_cell_angle_beta 90.000000
_cell_angle_gamma 90.000000
_cell_volume 4245.996141
_symmetry_space_group_name_H-M "F D D 2"
_symmetry_group_IT_number 43
_symmetry_cell_setting 'orthorhombic'
loop_
_space_group_symop_operation_xyz
x,y,z
-x,-y,z
1/4-x,1/4+y,1/4+z
1/4+x,1/4-y,1/4+z
x,1/2+y,1/2+z
-x,1/2-y,1/2+z
1/4-x,3/4+y,3/4+z
1/4+x,3/4-y,3/4+z
1/2+x,y,1/2+z
1/2-x,-y,1/2+z
3/4-x,1/4+y,3/4+z
3/4+x,1/4-y,3/4+z
1/2+x,1/2+y,z
1/2-x,1/2-y,z
3/4-x,3/4+y,1/4+z
3/4+x,3/4-y,1/4+z
loop_
_atom_site_type_symbol
_atom_site_label
_atom_site_fract_x
_atom_site_fract_y
_atom_site_fract_z
Si Si1 0.656147 0.408349 0.250000
Si Si2 0.380566 0.442381 0.650867
Si Si3 0.743085 0.551435 0.436178
Si Si4 0.884048 0.622179 0.085462
Si Si5 0.318497 0.493608 0.057652
Si Si6 0.000000 0.500000 0.359980
Si Si7 0.750000 0.750000 0.594756
O O1 0.773269 0.441630 0.206404
O O2 0.532134 0.371849 0.211912
O O3 0.758628 0.354436 0.281287
O O4 0.583095 0.451636 0.300151
O O5 0.500000 0.500000 0.651722
O O6 0.498906 0.384193 0.639750
O O7 0.263512 0.453508 0.597959
O O8 0.760384 0.504765 0.491829
O O9 0.613812 0.535139 0.389196
O O10 0.895497 0.542887 0.400673
O O11 0.744430 0.573718 0.083090
O O12 0.839009 0.695641 0.075732
O O13 0.500000 0.500000 0.059529
#
# Coordination Sequence:
#
# PCOD9372219 Si02
#       7
#    16  16  16  16  16   8   8
#     4  12  26  44  79 104 150 200 250 325 383 454
#     4  10  25  46  72 106 144 192 250 311 380 453
#     4  12  26  47  74 107 152 195 257 313 383 452
#     4  11  25  48  70 105 148 196 252 302 390 455
#     4  11  25  46  77 109 143 200 257 313 378 457
#     4  12  28  46  69 111 146 196 242 320 374 454
#     4  12  28  48  77 117 148 202 266 308 398 464
#
# _framework density 22.609535999999999
#
# number of rings (size 3 to 8) (size 9 to 14) (size 15 to 20)
#    0.000    0.667    4.167    2.000    8.167    1.333 
#    0.000    0.000    0.000    0.000    0.000    0.000 
#    0.000    0.000    0.000    0.000    0.000    0.000 
#
# Total GULP energy -133979.862837 kJ/mol
# GULP energy per Si atom -5582.494285 kJ/mol
# Density = 2.255808 g / cm^3
# Si number density = 22.609536 Si / 1000 Ang^3
#
#
#
# Elastic Constant Matrix: (Units=GPa)
#
#
# Indices 1 2 3 4 5 6 
#
# 1 153.9451 51.1667 69.3155 0.0000 0.0000 0.0000
# 2 51.1667 80.3263 29.5829 0.0000 0.0000 0.0000
# 3 69.3155 29.5829 139.0130 0.0000 0.0000 0.0000
# 4 0.0000 0.0000 0.0000 35.9991 0.0000 0.0000
# 5 0.0000 0.0000 0.0000 0.0000 10.4986 0.0000
# 6 0.0000 0.0000 0.0000 0.0000 0.0000 33.6098
#
#
#
# Elastic Compliance Matrix: (Units=1/GPa)
#
#
# Indices 1 2 3 4 5 6 
#
# 1 0.009855 -0.004848 -0.003882 0.000000 0.000000 0.000000
# 2 -0.004848 0.015893 -0.000965 0.000000 0.000000 0.000000
# 3 -0.003882 -0.000965 0.009335 0.000000 0.000000 0.000000
# 4 0.000000 0.000000 0.000000 0.027778 0.000000 0.000000
# 5 0.000000 0.000000 0.000000 0.000000 0.095251 0.000000
# 6 0.000000 0.000000 0.000000 0.000000 0.000000 0.029753
#
#
# Mechanical properties :
#
#
# Convention : Reuss Voigt Hill
#
# Bulk Modulus (GPa) = 63.72483 74.82381 69.27432
# Shear Modulus (GPa) = 23.53095 30.90279 27.21687
#
# Velocity S-wave (km/s) = 3.22957 3.70104 3.47331
# Velocity P-wave (km/s) = 6.49253 7.17143 6.84041
#
# Compressibility (1/GPa) = 0.01569247
#
# Stress axis : x y z
#
# Youngs Moduli (GPa) = 101.46955 62.92274 107.12651
#
# Poissons Ratio (x) = 0.30504 0.41591
# Poissons Ratio (y) = 0.49190 0.10336
# Poissons Ratio (z) = 0.39395 0.06071
#
# Static dielectric constant tensor:
#      x y z
#    x 1.877600 0.000000 0.000000 
#    y 0.000000 1.874740 0.000000 
#    z 0.000000 0.000000 1.857160 
# 
# From -- ./inp_files/20304.got.cif
#   From: 2010.05.17/outbox.cif.g08.bks.cpg/sg43_11_cif.got.tgz:20304.got - 2010.06.03 19:21:55.
