data_PCOD9372289
_publ_section_title
;
Structure prediction by ZEFSAII (Michael W. Deem and Ramdas Pophale) SiO2 
 PCOD9372289
Probable space group: F D D 2
;
_chemical_formula_sum "Si O2"
_cell_formula_units_Z 40
_cell_length_a 4.891931
_cell_length_b 13.929332
_cell_length_c 19.330872
_cell_angle_alpha 90.000000
_cell_angle_beta 90.000000
_cell_angle_gamma 90.000000
_cell_volume 1317.231348
_symmetry_space_group_name_H-M "F D D 2"
_symmetry_group_IT_number 43
_symmetry_cell_setting 'orthorhombic'
loop_
_space_group_symop_operation_xyz
x,y,z
-x,-y,z
1/4-x,1/4+y,1/4+z
1/4+x,1/4-y,1/4+z
x,1/2+y,1/2+z
-x,1/2-y,1/2+z
1/4-x,3/4+y,3/4+z
1/4+x,3/4-y,3/4+z
1/2+x,y,1/2+z
1/2-x,-y,1/2+z
3/4-x,1/4+y,3/4+z
3/4+x,1/4-y,3/4+z
1/2+x,1/2+y,z
1/2-x,1/2-y,z
3/4-x,3/4+y,1/4+z
3/4+x,3/4-y,1/4+z
loop_
_atom_site_type_symbol
_atom_site_label
_atom_site_fract_x
_atom_site_fract_y
_atom_site_fract_z
Si Si1 0.000000 0.000000 0.302171
Si Si2 0.156061 0.095639 0.103457
Si Si3 0.893849 0.394193 0.217477
O O1 0.204047 0.062043 0.352518
O O2 0.090850 0.913962 0.248509
O O3 0.434709 0.115300 0.146577
O O4 0.240373 0.073706 0.024782
O O5 0.000000 0.000000 0.126800
O O6 0.000000 0.500000 0.239975
#
# Coordination Sequence:
#
# PCOD9372289 Si02
#       3
#     8  16  16
#     4  10  26  54  86 126 182 230 300 386 430 558
#     4  11  27  51  89 122 174 236 297 370 459 528
#     4  10  26  49  79 126 169 225 303 360 437 554
#
# _framework density 30.366723
#
# number of rings (size 3 to 8) (size 9 to 14) (size 15 to 20)
#    0.000    1.600    0.000    0.000   16.800    4.800 
#    7.200    0.000    0.000    0.000    0.000    0.000 
#    0.000    0.000    0.000    0.000    0.000    0.000 
#
# Total GULP energy -55678.069011 kJ/mol
# GULP energy per Si atom -5567.806901 kJ/mol
# Density = 3.029761 g / cm^3
# Si number density = 30.366723 Si / 1000 Ang^3
#
#
#
# Elastic Constant Matrix: (Units=GPa)
#
#
# Indices 1 2 3 4 5 6 
#
# 1 182.0759 61.8400 56.3921 0.0000 0.0000 0.0000
# 2 61.8400 178.3502 36.7759 0.0000 0.0000 0.0000
# 3 56.3921 36.7759 186.3455 0.0000 0.0000 0.0000
# 4 0.0000 0.0000 0.0000 31.5704 0.0000 0.0000
# 5 0.0000 0.0000 0.0000 0.0000 49.0028 0.0000
# 6 0.0000 0.0000 0.0000 0.0000 0.0000 74.5077
#
#
#
# Elastic Compliance Matrix: (Units=1/GPa)
#
#
# Indices 1 2 3 4 5 6 
#
# 1 0.006668 -0.001976 -0.001628 0.000000 0.000000 0.000000
# 2 -0.001976 0.006431 -0.000671 0.000000 0.000000 0.000000
# 3 -0.001628 -0.000671 0.005991 0.000000 0.000000 0.000000
# 4 0.000000 0.000000 0.000000 0.031675 0.000000 0.000000
# 5 0.000000 0.000000 0.000000 0.000000 0.020407 0.000000
# 6 0.000000 0.000000 0.000000 0.000000 0.000000 0.013421
#
#
# Mechanical properties :
#
#
# Convention : Reuss Voigt Hill
#
# Bulk Modulus (GPa) = 94.88122 95.19865 95.03994
# Shear Modulus (GPa) = 51.72967 57.13375 54.43171
#
# Velocity S-wave (km/s) = 4.13182 4.34228 4.23836
# Velocity P-wave (km/s) = 7.35361 7.52053 7.43754
#
# Compressibility (1/GPa) = 0.01053949
#
# Stress axis : x y z
#
# Youngs Moduli (GPa) = 149.98006 155.50796 166.90611
#
# Poissons Ratio (x) = 0.30732 0.27168
# Poissons Ratio (y) = 0.29639 0.11200
# Poissons Ratio (z) = 0.24413 0.10435
#
# Static dielectric constant tensor:
#      x y z
#    x 3.819810 0.000000 0.000000 
#    y 0.000000 2.564590 0.000000 
#    z 0.000000 0.000000 2.553640 
# 
# From -- ./inp_files/11921.got.cif
#   From: 2010.05.17/outbox.cif.g08.bks.cpg/sg43_6_cif.got.tgz:11921.got - 2010.06.03 19:21:55.
