data_PCOD9372135
_publ_section_title
;
Structure prediction by ZEFSAII (Michael W. Deem and Ramdas Pophale) SiO2 
 PCOD9372135
Probable space group: F D D 2
;
_chemical_formula_sum "Si O2"
_cell_formula_units_Z 80
_cell_length_a 27.880788
_cell_length_b 10.584650
_cell_length_c 9.416316
_cell_angle_alpha 90.000000
_cell_angle_beta 90.000000
_cell_angle_gamma 90.000000
_cell_volume 2778.833786
_symmetry_space_group_name_H-M "F D D 2"
_symmetry_group_IT_number 43
_symmetry_cell_setting 'orthorhombic'
loop_
_space_group_symop_operation_xyz
x,y,z
-x,-y,z
1/4-x,1/4+y,1/4+z
1/4+x,1/4-y,1/4+z
x,1/2+y,1/2+z
-x,1/2-y,1/2+z
1/4-x,3/4+y,3/4+z
1/4+x,3/4-y,3/4+z
1/2+x,y,1/2+z
1/2-x,-y,1/2+z
3/4-x,1/4+y,3/4+z
3/4+x,1/4-y,3/4+z
1/2+x,1/2+y,z
1/2-x,1/2-y,z
3/4-x,3/4+y,1/4+z
3/4+x,3/4-y,1/4+z
loop_
_atom_site_type_symbol
_atom_site_label
_atom_site_fract_x
_atom_site_fract_y
_atom_site_fract_z
Si Si1 0.000000 0.000000 0.976550
Si Si2 0.572180 0.399679 0.800429
Si Si3 0.229519 0.412426 0.477442
Si Si4 0.888909 0.480507 0.063492
Si Si5 0.369518 0.234476 0.532740
Si Si6 0.750000 0.250000 0.226664
O O1 0.044604 0.014771 0.871856
O O2 0.003431 0.882702 0.083248
O O3 0.533855 0.307566 0.726015
O O4 0.615630 0.427303 0.696206
O O5 0.590612 0.322362 0.933322
O O6 0.180925 0.329047 0.490980
O O7 0.258055 0.368684 0.617849
O O8 0.876247 0.588216 0.918124
O O9 0.869412 0.382077 0.938488
O O10 0.948558 0.473825 0.051330
#
# Coordination Sequence:
#
# PCOD9372135 Si02
#       6
#     8  16  16  16  16   8
#     4  11  27  44  70 110 141 191 246 304 359 437
#     4  12  26  45  72 106 145 190 252 305 366 454
#     4  10  24  46  74  98 150 195 242 301 373 438
#     4  11  25  41  74 103 141 194 245 304 373 440
#     4  11  23  48  69 103 145 191 243 309 364 445
#     4   9  19  46  64 102 143 189 236 302 373 429
#
# _framework density 28.789054
#
# number of rings (size 3 to 8) (size 9 to 14) (size 15 to 20)
#    0.000    1.200    4.000    1.800    5.600    1.600 
#    0.000    0.000    0.000    0.000    0.000    0.000 
#    0.000    0.000    0.000    0.000    0.000    0.000 
#
# Total GULP energy -111647.212891 kJ/mol
# GULP energy per Si atom -5582.360645 kJ/mol
# Density = 2.872353 g / cm^3
# Si number density = 28.789054 Si / 1000 Ang^3
#
#
#
# Elastic Constant Matrix: (Units=GPa)
#
#
# Indices 1 2 3 4 5 6 
#
# 1 124.6782 38.3175 36.6372 0.0000 0.0000 0.0000
# 2 38.3175 116.6815 55.4790 0.0000 0.0000 0.0000
# 3 36.6372 55.4790 211.7695 0.0000 0.0000 0.0000
# 4 0.0000 0.0000 0.0000 29.9428 0.0000 0.0000
# 5 0.0000 0.0000 0.0000 0.0000 50.9113 0.0000
# 6 0.0000 0.0000 0.0000 0.0000 0.0000 50.8684
#
#
#
# Elastic Compliance Matrix: (Units=1/GPa)
#
#
# Indices 1 2 3 4 5 6 
#
# 1 0.009069 -0.002550 -0.000901 0.000000 0.000000 0.000000
# 2 -0.002550 0.010507 -0.002311 0.000000 0.000000 0.000000
# 3 -0.000901 -0.002311 0.005484 0.000000 0.000000 0.000000
# 4 0.000000 0.000000 0.000000 0.033397 0.000000 0.000000
# 5 0.000000 0.000000 0.000000 0.000000 0.019642 0.000000
# 6 0.000000 0.000000 0.000000 0.000000 0.000000 0.019659
#
#
# Mechanical properties :
#
#
# Convention : Reuss Voigt Hill
#
# Bulk Modulus (GPa) = 73.88334 79.33296 76.60815
# Shear Modulus (GPa) = 43.93948 47.85753 45.89850
#
# Velocity S-wave (km/s) = 3.91097 4.08162 3.99721
# Velocity P-wave (km/s) = 6.79070 7.05898 6.92614
#
# Compressibility (1/GPa) = 0.01353485
#
# Stress axis : x y z
#
# Youngs Moduli (GPa) = 110.26519 95.17747 182.36435
#
# Poissons Ratio (x) = 0.24269 0.16431
# Poissons Ratio (y) = 0.28116 0.42152
# Poissons Ratio (z) = 0.09935 0.21999
#
# Static dielectric constant tensor:
#      x y z
#    x 2.111380 0.000000 0.000000 
#    y 0.000000 2.834890 0.000000 
#    z 0.000000 0.000000 2.819640 
# 
# From -- ./inp_files/8205.got.cif
#   From: 2010.05.17/outbox.cif.g08.bks.cpg/sg43_5_cif.got.tgz:8205.got - 2010.06.03 19:21:55.
