data_PCOD9372111
_publ_section_title
;
Structure prediction by ZEFSAII (Michael W. Deem and Ramdas Pophale) SiO2 
 PCOD9372111
Probable space group: F D D 2
;
_chemical_formula_sum "Si O2"
_cell_formula_units_Z 56
_cell_length_a 32.452901
_cell_length_b 5.011055
_cell_length_c 14.345779
_cell_angle_alpha 90.000000
_cell_angle_beta 90.000000
_cell_angle_gamma 90.000000
_cell_volume 2332.957518
_symmetry_space_group_name_H-M "F D D 2"
_symmetry_group_IT_number 43
_symmetry_cell_setting 'orthorhombic'
loop_
_space_group_symop_operation_xyz
x,y,z
-x,-y,z
1/4-x,1/4+y,1/4+z
1/4+x,1/4-y,1/4+z
x,1/2+y,1/2+z
-x,1/2-y,1/2+z
1/4-x,3/4+y,3/4+z
1/4+x,3/4-y,3/4+z
1/2+x,y,1/2+z
1/2-x,-y,1/2+z
3/4-x,1/4+y,3/4+z
3/4+x,1/4-y,3/4+z
1/2+x,1/2+y,z
1/2-x,1/2-y,z
3/4-x,3/4+y,1/4+z
3/4+x,3/4-y,1/4+z
loop_
_atom_site_type_symbol
_atom_site_label
_atom_site_fract_x
_atom_site_fract_y
_atom_site_fract_z
Si Si1 0.916095 0.936542 0.910730
Si Si2 0.101287 0.071281 0.527260
Si Si3 0.774650 0.003792 0.385287
Si Si4 0.750000 0.250000 0.570426
O O1 0.890768 0.811182 0.825136
O O2 0.959926 0.060150 0.881139
O O3 0.920506 0.681202 0.978017
O O4 0.891167 0.181124 0.957690
O O5 0.071286 0.202846 0.604841
O O6 0.750000 0.750000 0.351801
O O7 0.750000 0.250000 0.343087
O O8 0.766742 0.030931 0.496383
#
# Coordination Sequence:
#
# PCOD9372111 Si02
#       4
#    16  16  16   8
#     4  12  28  48  77 110 152 201 253 314 373 461
#     4  12  27  49  75 108 155 197 257 307 389 438
#     4  10  24  45  75 103 150 190 244 308 371 443
#     4  10  28  44  80 108 154 188 260 298 384 440
#
# _framework density 24.003869000000002
#
# number of rings (size 3 to 8) (size 9 to 14) (size 15 to 20)
#    0.857    0.000    0.000    5.143   10.000    2.286 
#    0.000    0.000    0.000    0.000    0.000    0.000 
#    0.000    0.000    0.000    0.000    0.000    0.000 
#
# Total GULP energy -78207.092559 kJ/mol
# GULP energy per Si atom -5586.220897 kJ/mol
# Density = 2.394924 g / cm^3
# Si number density = 24.003869 Si / 1000 Ang^3
#
#
#
# Elastic Constant Matrix: (Units=GPa)
#
#
# Indices 1 2 3 4 5 6 
#
# 1 132.7578 35.7583 56.8381 0.0008 -0.0002 -0.0007
# 2 35.7583 160.6636 46.6856 -0.0002 -0.0001 -0.0004
# 3 56.8381 46.6856 97.2905 0.0001 -0.0001 -0.0001
# 4 0.0008 -0.0002 0.0001 45.4250 -0.0003 -0.0006
# 5 -0.0002 -0.0001 -0.0001 -0.0003 38.3211 0.0002
# 6 -0.0007 -0.0004 -0.0001 -0.0006 0.0002 33.1161
#
#
#
# Elastic Compliance Matrix: (Units=1/GPa)
#
#
# Indices 1 2 3 4 5 6 
#
# 1 0.010098 -0.000620 -0.005602 0.000000 0.000000 0.000000
# 2 -0.000620 0.007271 -0.003127 0.000000 0.000000 0.000000
# 3 -0.005602 -0.003127 0.015052 0.000000 0.000000 0.000000
# 4 0.000000 0.000000 0.000000 0.022014 0.000000 0.000000
# 5 0.000000 0.000000 0.000000 0.000000 0.026095 0.000000
# 6 0.000000 0.000000 0.000000 0.000000 0.000000 0.030197
#
#
# Mechanical properties :
#
#
# Convention : Reuss Voigt Hill
#
# Bulk Modulus (GPa) = 72.86893 74.36400 73.61647
# Shear Modulus (GPa) = 37.31406 40.13444 38.72425
#
# Velocity S-wave (km/s) = 3.94699 4.09344 4.02089
# Velocity P-wave (km/s) = 7.15505 7.30678 7.23131
#
# Compressibility (1/GPa) = 0.01372327
#
# Stress axis : x y z
#
# Youngs Moduli (GPa) = 99.03180 137.53806 66.43791
#
# Poissons Ratio (x) = 0.08522 0.37218
# Poissons Ratio (y) = 0.06136 0.20775
# Poissons Ratio (z) = 0.55476 0.43007
#
# Static dielectric constant tensor:
#      x y z
#    x 1.888650 0.000000 0.000000 
#    y 0.000000 1.830900 0.000000 
#    z 0.000000 0.000000 2.011130 
# 
# From -- ./inp_files/11577.got.cif
#   From: 2010.05.17/outbox.cif.g08.bks.cpg/sg43_6_cif.got.tgz:11577.got - 2010.06.03 19:21:55.
