data_PCOD9372172
_publ_section_title
;
Structure prediction by ZEFSAII (Michael W. Deem and Ramdas Pophale) SiO2 
 PCOD9372172
Probable space group: F D D 2
;
_chemical_formula_sum "Si O2"
_cell_formula_units_Z 80
_cell_length_a 17.133137
_cell_length_b 15.488233
_cell_length_c 10.959595
_cell_angle_alpha 90.000000
_cell_angle_beta 90.000000
_cell_angle_gamma 90.000000
_cell_volume 2908.260244
_symmetry_space_group_name_H-M "F D D 2"
_symmetry_group_IT_number 43
_symmetry_cell_setting 'orthorhombic'
loop_
_space_group_symop_operation_xyz
x,y,z
-x,-y,z
1/4-x,1/4+y,1/4+z
1/4+x,1/4-y,1/4+z
x,1/2+y,1/2+z
-x,1/2-y,1/2+z
1/4-x,3/4+y,3/4+z
1/4+x,3/4-y,3/4+z
1/2+x,y,1/2+z
1/2-x,-y,1/2+z
3/4-x,1/4+y,3/4+z
3/4+x,1/4-y,3/4+z
1/2+x,1/2+y,z
1/2-x,1/2-y,z
3/4-x,3/4+y,1/4+z
3/4+x,3/4-y,1/4+z
loop_
_atom_site_type_symbol
_atom_site_label
_atom_site_fract_x
_atom_site_fract_y
_atom_site_fract_z
Si Si1 0.539916 0.712015 0.763450
Si Si2 0.881917 0.948806 0.095195
Si Si3 0.376563 0.893792 0.862575
Si Si4 0.642423 0.271167 0.452849
Si Si5 0.250000 0.250000 0.167028
Si Si6 0.250000 0.750000 0.238111
O O1 0.446997 0.698586 0.765813
O O2 0.567404 0.787840 0.672805
O O3 0.579868 0.621169 0.717288
O O4 0.557322 0.748667 0.902490
O O5 0.891208 0.046421 0.147969
O O6 0.877391 0.895501 0.217816
O O7 0.956199 0.933775 0.007145
O O8 0.461380 0.925819 0.908916
O O9 0.680093 0.229691 0.572149
O O10 0.684061 0.226674 0.335678
#
# Coordination Sequence:
#
# PCOD9372172 Si02
#       6
#    16  16  16  16   8   8
#     4  11  26  46  78 110 151 197 268 310 398 458
#     4  12  28  44  76 105 157 198 260 318 396 462
#     4  11  25  44  69 110 142 201 245 326 373 472
#     4  10  24  48  75 111 147 205 248 332 371 481
#     4  11  27  48  72 104 155 201 254 318 396 447
#     4   9  21  42  76 100 151 185 254 298 400 439
#
# _framework density 27.507856
#
# number of rings (size 3 to 8) (size 9 to 14) (size 15 to 20)
#    0.000    1.200    0.000    4.200   14.000    6.400 
#    0.000    0.000    0.000    0.000    0.000    0.000 
#    0.000    0.000    0.000    0.000    0.000    0.000 
#
# Total GULP energy -111806.529443 kJ/mol
# GULP energy per Si atom -5590.326472 kJ/mol
# Density = 2.744525 g / cm^3
# Si number density = 27.507856 Si / 1000 Ang^3
#
#
#
# Elastic Constant Matrix: (Units=GPa)
#
#
# Indices 1 2 3 4 5 6 
#
# 1 96.3678 37.0793 40.2856 0.0000 0.0000 0.0000
# 2 37.0793 147.5397 42.4898 0.0000 0.0000 0.0000
# 3 40.2856 42.4898 160.9091 0.0000 0.0000 0.0000
# 4 0.0000 0.0000 0.0000 14.8884 0.0000 0.0000
# 5 0.0000 0.0000 0.0000 0.0000 63.7222 0.0000
# 6 0.0000 0.0000 0.0000 0.0000 0.0000 23.5331
#
#
#
# Elastic Compliance Matrix: (Units=1/GPa)
#
#
# Indices 1 2 3 4 5 6 
#
# 1 0.012322 -0.002390 -0.002454 0.000000 0.000000 0.000000
# 2 -0.002390 0.007799 -0.001461 0.000000 0.000000 0.000000
# 3 -0.002454 -0.001461 0.007215 0.000000 0.000000 0.000000
# 4 0.000000 0.000000 0.000000 0.067166 0.000000 0.000000
# 5 0.000000 0.000000 0.000000 0.000000 0.015693 0.000000
# 6 0.000000 0.000000 0.000000 0.000000 0.000000 0.042493
#
#
# Mechanical properties :
#
#
# Convention : Reuss Voigt Hill
#
# Bulk Modulus (GPa) = 67.90582 71.61400 69.75991
# Shear Modulus (GPa) = 29.37574 39.42620 34.40097
#
# Velocity S-wave (km/s) = 3.27142 3.78996 3.54020
# Velocity P-wave (km/s) = 6.24573 6.72624 6.49043
#
# Compressibility (1/GPa) = 0.01472628
#
# Stress axis : x y z
#
# Youngs Moduli (GPa) = 81.15305 128.21671 138.60258
#
# Poissons Ratio (x) = 0.30645 0.34012
# Poissons Ratio (y) = 0.19397 0.20251
# Poissons Ratio (z) = 0.19914 0.18734
#
# Static dielectric constant tensor:
#      x y z
#    x 2.563650 0.000000 0.000000 
#    y 0.000000 2.134810 0.000000 
#    z 0.000000 0.000000 2.100670 
# 
# From -- ./inp_files/7024.got.cif
#   From: 2010.05.17/outbox.cif.g08.bks.cpg/sg43_4_cif.got.tgz:7024.got - 2010.06.03 19:21:55.
