data_PCOD9372182
_publ_section_title
;
Structure prediction by ZEFSAII (Michael W. Deem and Ramdas Pophale) SiO2 
 PCOD9372182
Probable space group: F D D 2
;
_chemical_formula_sum "Si O2"
_cell_formula_units_Z 48
_cell_length_a 6.961989
_cell_length_b 13.909068
_cell_length_c 20.144140
_cell_angle_alpha 90.000000
_cell_angle_beta 90.000000
_cell_angle_gamma 90.000000
_cell_volume 1950.653333
_symmetry_space_group_name_H-M "F D D 2"
_symmetry_group_IT_number 43
_symmetry_cell_setting 'orthorhombic'
loop_
_space_group_symop_operation_xyz
x,y,z
-x,-y,z
1/4-x,1/4+y,1/4+z
1/4+x,1/4-y,1/4+z
x,1/2+y,1/2+z
-x,1/2-y,1/2+z
1/4-x,3/4+y,3/4+z
1/4+x,3/4-y,3/4+z
1/2+x,y,1/2+z
1/2-x,-y,1/2+z
3/4-x,1/4+y,3/4+z
3/4+x,1/4-y,3/4+z
1/2+x,1/2+y,z
1/2-x,1/2-y,z
3/4-x,3/4+y,1/4+z
3/4+x,3/4-y,1/4+z
loop_
_atom_site_type_symbol
_atom_site_label
_atom_site_fract_x
_atom_site_fract_y
_atom_site_fract_z
Si Si1 0.935066 0.602722 0.664870
Si Si2 0.250000 0.750000 0.787369
Si Si3 0.750000 0.750000 0.121432
Si Si4 0.142601 0.158183 0.774892
O O1 0.111259 0.677496 0.661672
O O2 0.000000 0.500000 0.694372
O O3 0.895790 0.575354 0.588270
O O4 0.759005 0.637619 0.708003
O O5 0.424109 0.688131 0.758780
O O6 0.621572 0.818476 0.074300
O O7 0.250000 0.250000 0.806545
#
# Coordination Sequence:
#
# PCOD9372182 Si02
#       4
#    16   8   8  16
#     4   9  22  46  75 112 148 199 254 302 382 450
#     4   8  22  49  64 110 150 182 257 304 364 448
#     4  10  24  49  76 108 158 192 249 316 362 452
#     4  11  24  44  79 106 150 200 248 310 379 443
#
# _framework density 24.607140000000001
#
# number of rings (size 3 to 8) (size 9 to 14) (size 15 to 20)
#    1.000    1.333    0.000    0.000    0.000   12.000 
#    3.000    0.000    0.000    4.000    0.000    0.000 
#    0.000    0.000    0.000    0.000    0.000    0.000 
#
# Total GULP energy -67036.902706 kJ/mol
# GULP energy per Si atom -5586.408559 kJ/mol
# Density = 2.455113 g / cm^3
# Si number density = 24.607140 Si / 1000 Ang^3
#
#
#
# Elastic Constant Matrix: (Units=GPa)
#
#
# Indices 1 2 3 4 5 6 
#
# 1 218.4306 88.2723 85.2239 0.0000 0.0000 0.0000
# 2 88.2723 184.2928 55.8688 0.0000 0.0000 0.0000
# 3 85.2239 55.8688 70.4854 0.0000 0.0000 0.0000
# 4 0.0000 0.0000 0.0000 26.9133 0.0000 0.0000
# 5 0.0000 0.0000 0.0000 0.0000 63.2761 0.0000
# 6 0.0000 0.0000 0.0000 0.0000 0.0000 60.8942
#
#
#
# Elastic Compliance Matrix: (Units=1/GPa)
#
#
# Indices 1 2 3 4 5 6 
#
# 1 0.008903 -0.001318 -0.009720 0.000000 0.000000 0.000000
# 2 -0.001318 0.007337 -0.004223 0.000000 0.000000 0.000000
# 3 -0.009720 -0.004223 0.029287 0.000000 0.000000 0.000000
# 4 0.000000 0.000000 0.000000 0.037156 0.000000 0.000000
# 5 0.000000 0.000000 0.000000 0.000000 0.015804 0.000000
# 6 0.000000 0.000000 0.000000 0.000000 0.000000 0.016422
#
#
# Mechanical properties :
#
#
# Convention : Reuss Voigt Hill
#
# Bulk Modulus (GPa) = 66.63823 103.54876 85.09350
# Shear Modulus (GPa) = 33.23733 46.47298 39.85515
#
# Velocity S-wave (km/s) = 3.67920 4.35051 4.02886
# Velocity P-wave (km/s) = 6.72223 8.21024 7.50321
#
# Compressibility (1/GPa) = 0.01500640
#
# Stress axis : x y z
#
# Youngs Moduli (GPa) = 112.31968 136.28836 34.14458
#
# Poissons Ratio (x) = 0.17958 0.33190
# Poissons Ratio (y) = 0.14800 0.14418
# Poissons Ratio (z) = 1.09179 0.57550
#
# Static dielectric constant tensor:
#      x y z
#    x 1.954450 0.000000 0.000000 
#    y 0.000000 1.976460 0.000000 
#    z 0.000000 0.000000 2.173340 
# 
# From -- ./inp_files/12333.got.cif
#   From: 2010.05.17/outbox.cif.g08.bks.cpg/sg43_7_cif.got.tgz:12333.got - 2010.06.03 19:21:55.
