data_PCOD9372500
_publ_section_title
;
Structure prediction by ZEFSAII (Michael W. Deem and Ramdas Pophale) SiO2 
 PCOD9372500
Probable space group: F D D 2
;
_chemical_formula_sum "Si O2"
_cell_formula_units_Z 88
_cell_length_a 30.838665
_cell_length_b 22.761555
_cell_length_c 5.049224
_cell_angle_alpha 90.000000
_cell_angle_beta 90.000000
_cell_angle_gamma 90.000000
_cell_volume 3544.231944
_symmetry_space_group_name_H-M "F D D 2"
_symmetry_group_IT_number 43
_symmetry_cell_setting 'orthorhombic'
loop_
_space_group_symop_operation_xyz
x,y,z
-x,-y,z
1/4-x,1/4+y,1/4+z
1/4+x,1/4-y,1/4+z
x,1/2+y,1/2+z
-x,1/2-y,1/2+z
1/4-x,3/4+y,3/4+z
1/4+x,3/4-y,3/4+z
1/2+x,y,1/2+z
1/2-x,-y,1/2+z
3/4-x,1/4+y,3/4+z
3/4+x,1/4-y,3/4+z
1/2+x,1/2+y,z
1/2-x,1/2-y,z
3/4-x,3/4+y,1/4+z
3/4+x,3/4-y,1/4+z
loop_
_atom_site_type_symbol
_atom_site_label
_atom_site_fract_x
_atom_site_fract_y
_atom_site_fract_z
Si Si1 0.052909 0.781066 0.453690
Si Si2 0.789291 0.360932 0.804381
Si Si3 0.750000 0.250000 0.115138
Si Si4 0.470861 0.321189 0.681116
Si Si5 0.325336 0.675297 0.313820
Si Si6 0.133108 0.586411 0.576827
O O1 0.051481 0.840308 0.277654
O O2 0.064009 0.719906 0.319937
O O3 0.082818 0.790841 0.704769
O O4 0.003200 0.776348 0.542196
O O5 0.751419 0.388519 0.619411
O O6 0.834976 0.358188 0.641094
O O7 0.771282 0.301718 0.936847
O O8 0.711536 0.275774 0.296667
O O9 0.448456 0.365106 0.479378
O O10 0.346651 0.661365 0.597608
O O11 0.361276 0.686251 0.093862
#
# Coordination Sequence:
#
# PCOD9372500 Si02
#       6
#    16  16   8  16  16  16
#     4  11  22  47  76 113 143 197 253 335 373 459
#     4  11  24  51  73 115 149 209 252 329 383 475
#     4  12  28  50  84 110 168 210 272 310 402 480
#     4  11  24  42  83 106 148 190 272 312 385 444
#     4  12  27  49  73 116 150 212 250 320 385 475
#     4  11  27  49  73 113 160 193 263 313 405 450
#
# _framework density 24.829076000000001
#
# number of rings (size 3 to 8) (size 9 to 14) (size 15 to 20)
#    0.000    0.727    5.455    1.091    0.000    5.818 
#    0.000    0.000    0.000    0.000    0.000    0.000 
#    0.000    0.000    0.000    0.000    0.000    0.000 
#
# Total GULP energy -123020.722505 kJ/mol
# GULP energy per Si atom -5591.851023 kJ/mol
# Density = 2.477256 g / cm^3
# Si number density = 24.829076 Si / 1000 Ang^3
#
#
#
# Elastic Constant Matrix: (Units=GPa)
#
#
# Indices 1 2 3 4 5 6 
#
# 1 136.6481 48.9342 43.1647 0.0044 0.0178 -0.0032
# 2 48.9342 120.5082 39.6779 0.1154 -0.0153 -0.0254
# 3 43.1647 39.6779 106.3672 0.2420 0.0273 -0.0382
# 4 0.0044 0.1154 0.2420 43.7492 -0.0107 -0.0330
# 5 0.0178 -0.0153 0.0273 -0.0107 35.4794 0.0117
# 6 -0.0032 -0.0254 -0.0382 -0.0330 0.0117 24.7765
#
#
#
# Elastic Compliance Matrix: (Units=1/GPa)
#
#
# Indices 1 2 3 4 5 6 
#
# 1 0.009180 -0.002851 -0.002662 0.000021 -0.000004 -0.000006
# 2 -0.002851 0.010346 -0.002702 -0.000012 0.000008 0.000006
# 3 -0.002662 -0.002702 0.011490 -0.000056 -0.000009 0.000015
# 4 0.000021 -0.000012 -0.000056 0.022858 0.000007 0.000030
# 5 -0.000004 0.000008 -0.000009 0.000007 0.028185 -0.000013
# 6 -0.000006 0.000006 0.000015 0.000030 -0.000013 0.040361
#
#
# Mechanical properties :
#
#
# Convention : Reuss Voigt Hill
#
# Bulk Modulus (GPa) = 68.56364 69.67521 69.11943
# Shear Modulus (GPa) = 34.79195 36.25082 35.52139
#
# Velocity S-wave (km/s) = 3.74740 3.82516 3.78648
# Velocity P-wave (km/s) = 6.81162 6.90159 6.85676
#
# Compressibility (1/GPa) = 0.01458499
#
# Stress axis : x y z
#
# Youngs Moduli (GPa) = 108.93356 96.65858 87.03486
#
# Poissons Ratio (x) = 0.27560 0.23166
# Poissons Ratio (y) = 0.31060 0.23518
# Poissons Ratio (z) = 0.28995 0.26118
#
# Static dielectric constant tensor:
#      x y z
#    x 2.058270 -0.000050 -0.000010 
#    y -0.000050 1.900130 -0.000060 
#    z -0.000010 -0.000060 2.077290 
# 
# From -- ./inp_files/1414.got.cif
#   From: 2010.05.17/outbox.cif.g08.bks.cpg/sg43_1_cif.got.tgz:1414.got - 2010.06.03 19:21:55.
