data_PCOD9372534
_publ_section_title
;
Structure prediction by ZEFSAII (Michael W. Deem and Ramdas Pophale) SiO2 
 PCOD9372534
Probable space group: F D D 2
;
_chemical_formula_sum "Si O2"
_cell_formula_units_Z 120
_cell_length_a 23.809005
_cell_length_b 20.839905
_cell_length_c 9.788523
_cell_angle_alpha 90.000000
_cell_angle_beta 90.000000
_cell_angle_gamma 90.000000
_cell_volume 4856.843915
_symmetry_space_group_name_H-M "F D D 2"
_symmetry_group_IT_number 43
_symmetry_cell_setting 'orthorhombic'
loop_
_space_group_symop_operation_xyz
x,y,z
-x,-y,z
1/4-x,1/4+y,1/4+z
1/4+x,1/4-y,1/4+z
x,1/2+y,1/2+z
-x,1/2-y,1/2+z
1/4-x,3/4+y,3/4+z
1/4+x,3/4-y,3/4+z
1/2+x,y,1/2+z
1/2-x,-y,1/2+z
3/4-x,1/4+y,3/4+z
3/4+x,1/4-y,3/4+z
1/2+x,1/2+y,z
1/2-x,1/2-y,z
3/4-x,3/4+y,1/4+z
3/4+x,3/4-y,1/4+z
loop_
_atom_site_type_symbol
_atom_site_label
_atom_site_fract_x
_atom_site_fract_y
_atom_site_fract_z
Si Si1 0.834324 0.915448 0.640390
Si Si2 0.667575 0.756716 0.173766
Si Si3 0.538386 0.791517 0.144473
Si Si4 0.159361 0.794427 0.978050
Si Si5 0.403246 0.532650 0.505953
Si Si6 0.752800 0.102486 0.929841
Si Si7 0.500000 0.500000 0.701137
Si Si8 0.547548 0.864835 0.403673
O O1 0.782317 0.935591 0.739485
O O2 0.865286 0.855323 0.716023
O O3 0.805480 0.885454 0.506489
O O4 0.865398 0.980740 0.590566
O O5 0.605999 0.784154 0.151851
O O6 0.679783 0.763380 0.334785
O O7 0.669768 0.681503 0.136757
O O8 0.709991 0.785753 0.061524
O O9 0.512800 0.723161 0.177059
O O10 0.522208 0.839303 0.263745
O O11 0.196954 0.857937 0.996293
O O12 0.094483 0.813886 0.954935
O O13 0.165140 0.751630 0.111674
O O14 0.459068 0.537745 0.598711
O O15 0.747336 0.121888 0.772562
#
# Coordination Sequence:
#
# PCOD9372534 Si02
#       8
#    16  16  16  16  16  16   8  16
#     4  12  27  49  76 108 158 200 258 318 396 466
#     4  11  23  44  71 103 141 194 249 305 373 450
#     4  11  25  45  71 105 148 190 245 312 375 453
#     4  11  25  44  75 103 149 193 252 314 377 463
#     4  12  27  50  75 112 154 208 257 324 391 478
#     4  12  24  47  74 110 146 197 248 308 389 457
#     4  12  24  46  72 110 148 198 256 304 398 464
#     4  11  23  43  70 104 141 192 247 305 374 450
#
# _framework density 24.707402999999999
#
# number of rings (size 3 to 8) (size 9 to 14) (size 15 to 20)
#    0.000    0.533    4.000    4.000    0.000    1.600 
#    9.600    0.000    0.000    0.000    0.000    0.000 
#    0.000    0.000    0.000    0.000    0.000    0.000 
#
# Total GULP energy -167775.904998 kJ/mol
# GULP energy per Si atom -5592.530167 kJ/mol
# Density = 2.465117 g / cm^3
# Si number density = 24.707403 Si / 1000 Ang^3
#
#
#
# Elastic Constant Matrix: (Units=GPa)
#
#
# Indices 1 2 3 4 5 6 
#
# 1 52.5500 11.0402 15.4803 0.0000 0.0000 0.0000
# 2 11.0402 151.8267 61.4946 0.0000 0.0000 0.0000
# 3 15.4803 61.4946 161.1069 0.0001 -0.0001 0.0000
# 4 0.0000 0.0000 0.0001 52.1431 0.0000 0.0000
# 5 0.0000 0.0000 -0.0001 0.0000 31.5046 0.0000
# 6 0.0000 0.0000 0.0000 0.0000 0.0000 31.0033
#
#
#
# Elastic Compliance Matrix: (Units=1/GPa)
#
#
# Indices 1 2 3 4 5 6 
#
# 1 0.019663 -0.000786 -0.001589 0.000000 0.000000 0.000000
# 2 -0.000786 0.007822 -0.002910 0.000000 0.000000 0.000000
# 3 -0.001589 -0.002910 0.007471 0.000000 0.000000 0.000000
# 4 0.000000 0.000000 0.000000 0.019178 0.000000 0.000000
# 5 0.000000 0.000000 0.000000 0.000000 0.031741 0.000000
# 6 0.000000 0.000000 0.000000 0.000000 0.000000 0.032255
#
#
# Mechanical properties :
#
#
# Convention : Reuss Voigt Hill
#
# Bulk Modulus (GPa) = 41.00961 60.16819 50.58890
# Shear Modulus (GPa) = 36.54186 41.42809 38.98497
#
# Velocity S-wave (km/s) = 3.84993 4.09925 3.97655
# Velocity P-wave (km/s) = 6.03297 6.84181 6.45008
#
# Compressibility (1/GPa) = 0.02438453
#
# Stress axis : x y z
#
# Youngs Moduli (GPa) = 50.85735 127.83860 133.85771
#
# Poissons Ratio (x) = 0.10049 0.21274
# Poissons Ratio (y) = 0.03998 0.38956
# Poissons Ratio (z) = 0.08083 0.37204
#
# Static dielectric constant tensor:
#      x y z
#    x 1.978000 0.000000 0.000000 
#    y 0.000000 1.951710 0.000000 
#    z 0.000000 0.000000 1.977430 
# 
# From -- ./inp_files/4340.got.cif
#   From: 2010.05.17/outbox.cif.g08.bks.cpg/sg43_3_cif.got.tgz:4340.got - 2010.06.03 19:21:55.
