data_PCOD9372946
_publ_section_title
;
Structure prediction by ZEFSAII (Michael W. Deem and Ramdas Pophale) SiO2 
 PCOD9372946
Probable space group: F D D 2
;
_chemical_formula_sum "Si O2"
_cell_formula_units_Z 48
_cell_length_a 18.176240
_cell_length_b 17.742322
_cell_length_c 4.576601
_cell_angle_alpha 90.000000
_cell_angle_beta 90.000000
_cell_angle_gamma 90.000000
_cell_volume 1475.902120
_symmetry_space_group_name_H-M "F D D 2"
_symmetry_group_IT_number 43
_symmetry_cell_setting 'orthorhombic'
loop_
_space_group_symop_operation_xyz
x,y,z
-x,-y,z
1/4-x,1/4+y,1/4+z
1/4+x,1/4-y,1/4+z
x,1/2+y,1/2+z
-x,1/2-y,1/2+z
1/4-x,3/4+y,3/4+z
1/4+x,3/4-y,3/4+z
1/2+x,y,1/2+z
1/2-x,-y,1/2+z
3/4-x,1/4+y,3/4+z
3/4+x,1/4-y,3/4+z
1/2+x,1/2+y,z
1/2-x,1/2-y,z
3/4-x,3/4+y,1/4+z
3/4+x,3/4-y,1/4+z
loop_
_atom_site_type_symbol
_atom_site_label
_atom_site_fract_x
_atom_site_fract_y
_atom_site_fract_z
Si Si1 0.637880 0.525693 0.213690
Si Si2 0.764226 0.608205 0.495528
Si Si3 0.665720 0.174211 0.510489
O O1 0.698489 0.597335 0.270550
O O2 0.622876 0.490344 0.540543
O O3 0.703811 0.470610 0.094347
O O4 0.573711 0.480498 0.031121
O O5 0.729945 0.648271 0.778637
O O6 0.840908 0.636570 0.335798
#
# Coordination Sequence:
#
# PCOD9372946 Si02
#       3
#    16  16  16
#     4   8  13  23  38  61  75 100 136 164 190 233
#     4   6  15  20  38  60  74 101 130 170 182 239
#     4   8  13  23  38  61  75 100 136 164 190 233
#
# _framework density 32.522480000000002
#
# number of rings (size 3 to 8) (size 9 to 14) (size 15 to 20)
#    4.000    0.000    0.000    1.000    0.000    0.000 
#    0.000    0.000    0.000    4.000    0.000    0.000 
#    0.000    0.000    0.000    0.000    0.000    0.000 
#
# Total GULP energy -66827.461469 kJ/mol
# GULP energy per Si atom -5568.955122 kJ/mol
# Density = 3.244846 g / cm^3
# Si number density = 32.522480 Si / 1000 Ang^3
#
#
#
# Elastic Constant Matrix: (Units=GPa)
#
#
# Indices 1 2 3 4 5 6 
#
# 1 362.3005 119.2465 121.4656 0.0128 -0.0119 -0.0084
# 2 119.2465 325.2982 77.6510 0.0358 -0.0195 -0.0152
# 3 121.4656 77.6510 288.5865 0.0808 -0.0629 -0.0343
# 4 0.0128 0.0358 0.0808 72.9349 -0.0273 -0.0276
# 5 -0.0119 -0.0195 -0.0629 -0.0273 66.9817 0.0180
# 6 -0.0084 -0.0152 -0.0343 -0.0276 0.0180 76.6699
#
#
#
# Elastic Compliance Matrix: (Units=1/GPa)
#
#
# Indices 1 2 3 4 5 6 
#
# 1 0.003490 -0.000992 -0.001202 0.000001 -0.000001 0.000000
# 2 -0.000992 0.003567 -0.000542 -0.000001 0.000000 0.000000
# 3 -0.001202 -0.000542 0.004117 -0.000004 0.000003 0.000002
# 4 0.000001 -0.000001 -0.000004 0.013711 0.000006 0.000005
# 5 -0.000001 0.000000 0.000003 0.000006 0.014929 -0.000003
# 6 0.000000 0.000000 0.000002 0.000005 -0.000003 0.013043
#
#
# Mechanical properties :
#
#
# Convention : Reuss Voigt Hill
#
# Bulk Modulus (GPa) = 175.40131 179.21236 177.30683
# Shear Modulus (GPa) = 83.01491 87.17212 85.09351
#
# Velocity S-wave (km/s) = 5.05775 5.18284 5.12068
# Velocity P-wave (km/s) = 9.38920 9.54147 9.46564
#
# Compressibility (1/GPa) = 0.00570121
#
# Stress axis : x y z
#
# Youngs Moduli (GPa) = 286.55988 280.32404 242.90229
#
# Poissons Ratio (x) = 0.27818 0.29192
# Poissons Ratio (y) = 0.28437 0.13170
# Poissons Ratio (z) = 0.34438 0.15199
#
# Static dielectric constant tensor:
#      x y z
#    x 2.715540 0.000070 0.000040 
#    y 0.000070 2.821310 -0.000030 
#    z 0.000040 -0.000030 2.444530 
# 
# From -- ./inp_files/427.got.cif
#   From: 2010.05.17/outbox.cif.g08.bks.cpg/sg43_1_cif.got.tgz:427.got - 2010.06.03 19:21:55.
