data_PCOD9372406
_publ_section_title
;
Structure prediction by ZEFSAII (Michael W. Deem and Ramdas Pophale) SiO2 
 PCOD9372406
Probable space group: F D D 2
;
_chemical_formula_sum "Si O2"
_cell_formula_units_Z 88
_cell_length_a 7.328993
_cell_length_b 18.508880
_cell_length_c 23.954556
_cell_angle_alpha 90.000000
_cell_angle_beta 90.000000
_cell_angle_gamma 90.000000
_cell_volume 3249.470302
_symmetry_space_group_name_H-M "F D D 2"
_symmetry_group_IT_number 43
_symmetry_cell_setting 'orthorhombic'
loop_
_space_group_symop_operation_xyz
x,y,z
-x,-y,z
1/4-x,1/4+y,1/4+z
1/4+x,1/4-y,1/4+z
x,1/2+y,1/2+z
-x,1/2-y,1/2+z
1/4-x,3/4+y,3/4+z
1/4+x,3/4-y,3/4+z
1/2+x,y,1/2+z
1/2-x,-y,1/2+z
3/4-x,1/4+y,3/4+z
3/4+x,1/4-y,3/4+z
1/2+x,1/2+y,z
1/2-x,1/2-y,z
3/4-x,3/4+y,1/4+z
3/4+x,3/4-y,1/4+z
loop_
_atom_site_type_symbol
_atom_site_label
_atom_site_fract_x
_atom_site_fract_y
_atom_site_fract_z
Si Si1 0.250000 0.750000 0.363261
Si Si2 0.222604 0.487736 0.388936
Si Si3 0.530467 0.745652 0.008936
Si Si4 0.330077 0.451564 0.051671
Si Si5 0.602579 0.123481 0.199405
Si Si6 0.555742 0.584112 0.170621
O O1 0.422322 0.745601 0.323335
O O2 0.236636 0.818178 0.404307
O O3 0.270558 0.489772 0.323087
O O4 0.338055 0.552964 0.414935
O O5 0.273883 0.415046 0.422860
O O6 0.000000 0.500000 0.394776
O O7 0.750000 0.750000 0.007578
O O8 0.749066 0.599771 0.004746
O O9 0.014682 0.678716 0.975417
O O10 0.500000 0.500000 0.033491
O O11 0.365092 0.404097 0.106905
O O12 0.186306 0.067780 0.223421
O O13 0.500000 0.500000 0.158862
#
# Coordination Sequence:
#
# PCOD9372406 Si02
#       6
#     8  16  16  16  16  16
#     4  12  24  50  78 114 168 216 268 348 418 486
#     4  11  24  42  75 109 142 200 258 307 389 485
#     4  11  21  43  75 103 147 200 253 308 393 479
#     4  11  25  46  78 114 157 212 276 335 410 493
#     4  12  23  44  75 112 153 210 262 328 401 487
#     4  11  25  46  70 109 151 193 256 329 392 468
#
# _framework density 27.081334999999999
#
# number of rings (size 3 to 8) (size 9 to 14) (size 15 to 20)
#    0.000    0.727    2.727    6.000    0.000    2.909 
#    6.545    3.636    0.000    0.000    0.000    0.000 
#    0.000    0.000    0.000    0.000    0.000    0.000 
#
# Total GULP energy -122804.913872 kJ/mol
# GULP energy per Si atom -5582.041540 kJ/mol
# Density = 2.701970 g / cm^3
# Si number density = 27.081335 Si / 1000 Ang^3
#
#
#
# Elastic Constant Matrix: (Units=GPa)
#
#
# Indices 1 2 3 4 5 6 
#
# 1 55.6920 69.0878 3.6872 0.0000 0.0000 0.0000
# 2 69.0878 271.0057 128.3514 0.0000 0.0000 0.0000
# 3 3.6872 128.3514 160.3447 0.0000 0.0000 0.0000
# 4 0.0000 0.0000 0.0000 11.7724 0.0000 0.0000
# 5 0.0000 0.0000 0.0000 0.0000 297.4898 0.0000
# 6 0.0000 0.0000 0.0000 0.0000 0.0000 51.0034
#
#
#
# Elastic Compliance Matrix: (Units=1/GPa)
#
#
# Indices 1 2 3 4 5 6 
#
# 1 0.033770 -0.013273 0.009848 0.000000 0.000000 0.000000
# 2 -0.013273 0.011160 -0.008628 0.000000 0.000000 0.000000
# 3 0.009848 -0.008628 0.012917 0.000000 0.000000 0.000000
# 4 0.000000 0.000000 0.000000 0.084945 0.000000 0.000000
# 5 0.000000 0.000000 0.000000 0.000000 0.003361 0.000000
# 6 0.000000 0.000000 0.000000 0.000000 0.000000 0.019607
#
#
# Mechanical properties :
#
#
# Convention : Reuss Voigt Hill
#
# Bulk Modulus (GPa) = 29.63811 98.81057 64.22434
# Shear Modulus (GPa) = 24.86176 91.11416 57.98796
#
# Velocity S-wave (km/s) = 3.03321 5.80669 4.63239
# Velocity P-wave (km/s) = 4.82027 9.02899 7.23732
#
# Compressibility (1/GPa) = 0.03374035
#
# Stress axis : x y z
#
# Youngs Moduli (GPa) = 29.61235 89.60516 77.41949
#
# Poissons Ratio (x) = 1.18935 -0.76245
# Poissons Ratio (y) = 0.39305 0.66798
# Poissons Ratio (z) = -0.29163 0.77312
#
# Static dielectric constant tensor:
#      x y z
#    x 2.432900 0.000000 0.000000 
#    y 0.000000 2.336650 0.000000 
#    z 0.000000 0.000000 2.102010 
# 
# From -- ./inp_files/27857.got.cif
#   From: 2010.05.17/outbox.cif.g08.bks.cpg/sg43_14_cif.got.tgz:27857.got - 2010.06.03 19:21:55.
