data_PCOD9372186
_publ_section_title
;
Structure prediction by ZEFSAII (Michael W. Deem and Ramdas Pophale) SiO2 
 PCOD9372186
Probable space group: F D D 2
;
_chemical_formula_sum "Si O2"
_cell_formula_units_Z 88
_cell_length_a 31.232675
_cell_length_b 11.042234
_cell_length_c 10.479698
_cell_angle_alpha 90.000000
_cell_angle_beta 90.000000
_cell_angle_gamma 90.000000
_cell_volume 3614.222587
_symmetry_space_group_name_H-M "F D D 2"
_symmetry_group_IT_number 43
_symmetry_cell_setting 'orthorhombic'
loop_
_space_group_symop_operation_xyz
x,y,z
-x,-y,z
1/4-x,1/4+y,1/4+z
1/4+x,1/4-y,1/4+z
x,1/2+y,1/2+z
-x,1/2-y,1/2+z
1/4-x,3/4+y,3/4+z
1/4+x,3/4-y,3/4+z
1/2+x,y,1/2+z
1/2-x,-y,1/2+z
3/4-x,1/4+y,3/4+z
3/4+x,1/4-y,3/4+z
1/2+x,1/2+y,z
1/2-x,1/2-y,z
3/4-x,3/4+y,1/4+z
3/4+x,3/4-y,1/4+z
loop_
_atom_site_type_symbol
_atom_site_label
_atom_site_fract_x
_atom_site_fract_y
_atom_site_fract_z
Si Si1 0.500000 0.500000 0.947950
Si Si2 0.835715 0.660099 0.207127
Si Si3 0.579226 0.109260 0.991797
Si Si4 0.233355 0.030011 0.391648
Si Si5 0.673841 0.456270 0.955732
Si Si6 0.077689 0.861444 0.362492
O O1 0.454002 0.473580 0.885390
O O2 0.490558 0.619082 0.032662
O O3 0.881252 0.717340 0.179456
O O4 0.828657 0.659830 0.360539
O O5 0.832855 0.519914 0.174135
O O6 0.576391 0.167652 0.851966
O O7 0.570635 0.967932 0.964003
O O8 0.546477 0.175242 0.085937
O O9 0.626765 0.132570 0.044492
O O10 0.280237 0.984025 0.430257
O O11 0.210381 0.095838 0.510563
#
# Coordination Sequence:
#
# PCOD9372186 Si02
#       6
#     8  16  16  16  16  16
#     4  10  24  50  72 106 148 196 266 304 390 478
#     4  11  26  46  75 110 155 200 260 326 397 469
#     4  12  25  48  81 111 156 209 266 320 394 477
#     4  11  26  48  79 117 151 212 265 322 399 478
#     4  11  26  47  76 110 151 205 255 323 397 470
#     4  12  25  48  77 118 158 203 265 332 391 474
#
# _framework density 24.348253
#
# number of rings (size 3 to 8) (size 9 to 14) (size 15 to 20)
#    0.000    0.727    1.818    5.455    7.636    0.000 
#    3.273    0.000    0.000    0.000    0.000    0.000 
#    0.000    0.000    0.000    0.000    0.000    0.000 
#
# Total GULP energy -123271.765855 kJ/mol
# GULP energy per Si atom -5603.262084 kJ/mol
# Density = 2.429283 g / cm^3
# Si number density = 24.348253 Si / 1000 Ang^3
#
#
#
# Elastic Constant Matrix: (Units=GPa)
#
#
# Indices 1 2 3 4 5 6 
#
# 1 227.3579 59.5342 28.2028 0.0000 0.0000 0.0000
# 2 59.5342 110.1202 7.4628 0.0000 0.0000 0.0000
# 3 28.2028 7.4628 43.6712 0.0000 0.0000 0.0000
# 4 0.0000 0.0000 0.0000 30.9809 0.0000 0.0000
# 5 0.0000 0.0000 0.0000 0.0000 32.4350 0.0000
# 6 0.0000 0.0000 0.0000 0.0000 0.0000 39.3960
#
#
#
# Elastic Compliance Matrix: (Units=1/GPa)
#
#
# Indices 1 2 3 4 5 6 
#
# 1 0.005505 -0.002767 -0.003082 0.000000 0.000000 0.000000
# 2 -0.002767 0.010579 -0.000021 0.000000 0.000000 0.000000
# 3 -0.003082 -0.000021 0.024893 0.000000 0.000000 0.000000
# 4 0.000000 0.000000 0.000000 0.032278 0.000000 0.000000
# 5 0.000000 0.000000 0.000000 0.000000 0.030831 0.000000
# 6 0.000000 0.000000 0.000000 0.000000 0.000000 0.025383
#
#
# Mechanical properties :
#
#
# Convention : Reuss Voigt Hill
#
# Bulk Modulus (GPa) = 34.20485 63.50545 48.85515
# Shear Modulus (GPa) = 33.12254 39.62570 36.37412
#
# Velocity S-wave (km/s) = 3.69232 4.03855 3.86931
# Velocity P-wave (km/s) = 5.67946 6.91992 6.33015
#
# Compressibility (1/GPa) = 0.02923562
#
# Stress axis : x y z
#
# Youngs Moduli (GPa) = 181.64034 94.53092 40.17268
#
# Poissons Ratio (x) = 0.26161 0.12383
# Poissons Ratio (y) = 0.50268 0.00082
# Poissons Ratio (z) = 0.55990 0.00194
#
# Static dielectric constant tensor:
#      x y z
#    x 1.929680 0.000000 0.000000 
#    y 0.000000 1.925480 0.000000 
#    z 0.000000 0.000000 2.019530 
# 
# From -- ./inp_files/5743.got.cif
#   From: 2010.05.17/outbox.cif.g08.bks.cpg/sg43_3_cif.got.tgz:5743.got - 2010.06.03 19:21:55.
