data_PCOD9372355
_publ_section_title
;
Structure prediction by ZEFSAII (Michael W. Deem and Ramdas Pophale) SiO2 
 PCOD9372355
Probable space group: F D D 2
;
_chemical_formula_sum "Si O2"
_cell_formula_units_Z 64
_cell_length_a 18.332604
_cell_length_b 17.742576
_cell_length_c 7.510673
_cell_angle_alpha 90.000000
_cell_angle_beta 90.000000
_cell_angle_gamma 90.000000
_cell_volume 2442.978729
_symmetry_space_group_name_H-M "F D D 2"
_symmetry_group_IT_number 43
_symmetry_cell_setting 'orthorhombic'
loop_
_space_group_symop_operation_xyz
x,y,z
-x,-y,z
1/4-x,1/4+y,1/4+z
1/4+x,1/4-y,1/4+z
x,1/2+y,1/2+z
-x,1/2-y,1/2+z
1/4-x,3/4+y,3/4+z
1/4+x,3/4-y,3/4+z
1/2+x,y,1/2+z
1/2-x,-y,1/2+z
3/4-x,1/4+y,3/4+z
3/4+x,1/4-y,3/4+z
1/2+x,1/2+y,z
1/2-x,1/2-y,z
3/4-x,3/4+y,1/4+z
3/4+x,3/4-y,1/4+z
loop_
_atom_site_type_symbol
_atom_site_label
_atom_site_fract_x
_atom_site_fract_y
_atom_site_fract_z
Si Si1 0.787026 0.843375 0.723810
Si Si2 0.420989 0.873953 0.665186
Si Si3 0.986016 0.161475 0.854585
Si Si4 0.639267 0.512363 0.668450
O O1 0.725909 0.856095 0.574350
O O2 0.826213 0.766131 0.786576
O O3 0.855226 0.898626 0.677255
O O4 0.763995 0.877475 0.911418
O O5 0.345737 0.919146 0.677323
O O6 0.468731 0.891069 0.489578
O O7 0.391629 0.788695 0.602633
O O8 0.031236 0.238182 0.844735
#
# Coordination Sequence:
#
# PCOD9372355 Si02
#       4
#    16  16  16  16
#     4  11  20  42  67  95 138 176 230 286 347 414
#     4   9  21  37  64  96 131 178 226 280 349 416
#     4   9  21  38  63 101 128 182 227 284 349 422
#     4   9  22  39  68  96 130 181 226 279 348 415
#
# _framework density 26.197528999999999
#
# number of rings (size 3 to 8) (size 9 to 14) (size 15 to 20)
#    1.500    1.000    0.000    1.500    3.500    0.000 
#    0.000    5.000    5.500    6.000    0.000    0.000 
#    0.000    0.000    0.000    0.000    0.000    0.000 
#
# Total GULP energy -89273.681117 kJ/mol
# GULP energy per Si atom -5579.605070 kJ/mol
# Density = 2.613790 g / cm^3
# Si number density = 26.197529 Si / 1000 Ang^3
#
#
#
# Elastic Constant Matrix: (Units=GPa)
#
#
# Indices 1 2 3 4 5 6 
#
# 1 210.9969 7.5516 59.8456 0.0000 0.0000 0.0000
# 2 7.5516 60.6985 15.8405 0.0001 0.0000 0.0000
# 3 59.8456 15.8405 109.6819 0.0002 -0.0003 0.0000
# 4 0.0000 0.0001 0.0002 20.6838 -0.0001 0.0000
# 5 0.0000 0.0000 -0.0003 -0.0001 57.3109 0.0000
# 6 0.0000 0.0000 0.0000 0.0000 0.0000 30.6556
#
#
#
# Elastic Compliance Matrix: (Units=1/GPa)
#
#
# Indices 1 2 3 4 5 6 
#
# 1 0.005608 0.000105 -0.003075 0.000000 0.000000 0.000000
# 2 0.000105 0.017122 -0.002530 0.000000 0.000000 0.000000
# 3 -0.003075 -0.002530 0.011160 0.000000 0.000000 0.000000
# 4 0.000000 0.000000 0.000000 0.048347 0.000000 0.000000
# 5 0.000000 0.000000 0.000000 0.000000 0.017449 0.000000
# 6 0.000000 0.000000 0.000000 0.000000 0.000000 0.032620
#
#
# Mechanical properties :
#
#
# Convention : Reuss Voigt Hill
#
# Bulk Modulus (GPa) = 43.68700 60.87250 52.27975
# Shear Modulus (GPa) = 33.12648 41.60605 37.36626
#
# Velocity S-wave (km/s) = 3.55982 3.98950 3.78077
# Velocity P-wave (km/s) = 5.79730 6.67143 6.24966
#
# Compressibility (1/GPa) = 0.02289011
#
# Stress axis : x y z
#
# Youngs Moduli (GPa) = 178.32302 58.40408 89.60235
#
# Poissons Ratio (x) = -0.00612 0.27552
# Poissons Ratio (y) = -0.01869 0.22669
# Poissons Ratio (z) = 0.54833 0.14776
#
# Static dielectric constant tensor:
#      x y z
#    x 2.087780 0.000000 0.000000 
#    y 0.000000 2.268900 0.000000 
#    z 0.000000 0.000000 2.061740 
# 
# From -- ./inp_files/3090.got.cif
#   From: 2010.05.17/outbox.cif.g08.bks.cpg/sg43_2_cif.got.tgz:3090.got - 2010.06.03 19:21:55.
