data_PCOD9372519
_publ_section_title
;
Structure prediction by ZEFSAII (Michael W. Deem and Ramdas Pophale) SiO2 
 PCOD9372519
Probable space group: F D D 2
;
_chemical_formula_sum "Si O2"
_cell_formula_units_Z 88
_cell_length_a 23.402899
_cell_length_b 27.022099
_cell_length_c 6.892578
_cell_angle_alpha 90.000000
_cell_angle_beta 90.000000
_cell_angle_gamma 90.000000
_cell_volume 4358.834991
_symmetry_space_group_name_H-M "F D D 2"
_symmetry_group_IT_number 43
_symmetry_cell_setting 'orthorhombic'
loop_
_space_group_symop_operation_xyz
x,y,z
-x,-y,z
1/4-x,1/4+y,1/4+z
1/4+x,1/4-y,1/4+z
x,1/2+y,1/2+z
-x,1/2-y,1/2+z
1/4-x,3/4+y,3/4+z
1/4+x,3/4-y,3/4+z
1/2+x,y,1/2+z
1/2-x,-y,1/2+z
3/4-x,1/4+y,3/4+z
3/4+x,1/4-y,3/4+z
1/2+x,1/2+y,z
1/2-x,1/2-y,z
3/4-x,3/4+y,1/4+z
3/4+x,3/4-y,1/4+z
loop_
_atom_site_type_symbol
_atom_site_label
_atom_site_fract_x
_atom_site_fract_y
_atom_site_fract_z
Si Si1 0.605952 0.333002 0.524800
Si Si2 0.515341 0.078080 0.338943
Si Si3 0.314774 0.001668 0.008297
Si Si4 0.750000 0.750000 0.412017
Si Si5 0.710536 0.067350 0.643323
Si Si6 0.068306 0.439747 0.981791
O O1 0.673415 0.335741 0.487593
O O2 0.578235 0.284533 0.435453
O O3 0.592058 0.330518 0.752873
O O4 0.574943 0.381491 0.441701
O O5 0.491352 0.129699 0.424787
O O6 0.470333 0.057596 0.177917
O O7 0.525519 0.040105 0.513884
O O8 0.257578 0.033200 0.036154
O O9 0.368425 0.038515 0.004468
O O10 0.309531 0.964877 0.825355
O O11 0.708880 0.720126 0.555976
#
# Coordination Sequence:
#
# PCOD9372519 Si02
#       6
#    16  16  16   8  16  16
#     4  11  23  42  67  94 134 172 220 279 332 395
#     4  11  24  45  65  97 136 173 220 277 338 395
#     4  12  22  43  65  98 130 175 222 272 332 400
#     4  12  22  42  66  96 126 176 222 260 340 398
#     4  11  24  41  66  98 132 174 226 272 333 402
#     4  11  25  42  66  96 132 172 217 281 331 392
#
# _framework density 20.188880000000001
#
# number of rings (size 3 to 8) (size 9 to 14) (size 15 to 20)
#    0.000    0.727    3.636    4.909    0.000    0.000 
#    0.000    1.818    0.000    0.000    0.000    0.000 
#    0.000    0.000    0.000    0.000    0.000    0.000 
#
# Total GULP energy -122871.275082 kJ/mol
# GULP energy per Si atom -5585.057958 kJ/mol
# Density = 2.014293 g / cm^3
# Si number density = 20.188880 Si / 1000 Ang^3
#
#
#
# Elastic Constant Matrix: (Units=GPa)
#
#
# Indices 1 2 3 4 5 6 
#
# 1 90.3933 -0.9628 8.3559 0.0098 0.0039 -0.0066
# 2 -0.9628 89.0182 1.3735 0.0069 0.0013 -0.0098
# 3 8.3559 1.3735 40.7627 -0.0003 0.0103 0.0039
# 4 0.0098 0.0069 -0.0003 28.5703 -0.0016 -0.0028
# 5 0.0039 0.0013 0.0103 -0.0016 21.4758 -0.0022
# 6 -0.0066 -0.0098 0.0039 -0.0028 -0.0022 24.7460
#
#
#
# Elastic Compliance Matrix: (Units=1/GPa)
#
#
# Indices 1 2 3 4 5 6 
#
# 1 0.011279 0.000158 -0.002317 -0.000004 -0.000001 0.000003
# 2 0.000158 0.011242 -0.000411 -0.000003 -0.000001 0.000005
# 3 -0.002317 -0.000411 0.025021 0.000001 -0.000012 -0.000005
# 4 -0.000004 -0.000003 0.000001 0.035001 0.000003 0.000004
# 5 -0.000001 -0.000001 -0.000012 0.000003 0.046564 0.000004
# 6 0.000003 0.000005 -0.000005 0.000004 0.000004 0.040411
#
#
# Mechanical properties :
#
#
# Convention : Reuss Voigt Hill
#
# Bulk Modulus (GPa) = 23.58486 26.41193 24.99840
# Shear Modulus (GPa) = 26.48416 29.05228 27.76822
#
# Velocity S-wave (km/s) = 3.62583 3.79756 3.71269
# Velocity P-wave (km/s) = 5.40707 5.68678 5.54869
#
# Compressibility (1/GPa) = 0.04240008
#
# Stress axis : x y z
#
# Youngs Moduli (GPa) = 88.66304 88.95442 39.96629
#
# Poissons Ratio (x) = -0.01403 0.09261
# Poissons Ratio (y) = -0.01399 0.01643
# Poissons Ratio (z) = 0.20546 0.03657
#
# Static dielectric constant tensor:
#      x y z
#    x 1.694600 0.000000 0.000010 
#    y 0.000000 1.701660 -0.000010 
#    z 0.000010 -0.000010 1.720590 
# 
# From -- ./inp_files/1007.got.cif
#   From: 2010.05.17/outbox.cif.g08.bks.cpg/sg43_1_cif.got.tgz:1007.got - 2010.06.03 19:21:55.
