data_PCOD9372449
_publ_section_title
;
Structure prediction by ZEFSAII (Michael W. Deem and Ramdas Pophale) SiO2 
 PCOD9372449
Probable space group: F D D 2
;
_chemical_formula_sum "Si O2"
_cell_formula_units_Z 88
_cell_length_a 31.843546
_cell_length_b 19.157167
_cell_length_c 6.588864
_cell_angle_alpha 90.000000
_cell_angle_beta 90.000000
_cell_angle_gamma 90.000000
_cell_volume 4019.418731
_symmetry_space_group_name_H-M "F D D 2"
_symmetry_group_IT_number 43
_symmetry_cell_setting 'orthorhombic'
loop_
_space_group_symop_operation_xyz
x,y,z
-x,-y,z
1/4-x,1/4+y,1/4+z
1/4+x,1/4-y,1/4+z
x,1/2+y,1/2+z
-x,1/2-y,1/2+z
1/4-x,3/4+y,3/4+z
1/4+x,3/4-y,3/4+z
1/2+x,y,1/2+z
1/2-x,-y,1/2+z
3/4-x,1/4+y,3/4+z
3/4+x,1/4-y,3/4+z
1/2+x,1/2+y,z
1/2-x,1/2-y,z
3/4-x,3/4+y,1/4+z
3/4+x,3/4-y,1/4+z
loop_
_atom_site_type_symbol
_atom_site_label
_atom_site_fract_x
_atom_site_fract_y
_atom_site_fract_z
Si Si1 0.282559 0.945713 0.899380
Si Si2 0.400250 0.102102 0.409683
Si Si3 0.292016 0.856686 0.292048
Si Si4 0.781710 0.593172 0.061310
Si Si5 0.000000 0.000000 0.263825
Si Si6 0.171417 0.804643 0.786011
O O1 0.316148 0.898258 0.782511
O O2 0.239141 0.935702 0.772882
O O3 0.285444 0.917868 0.129180
O O4 0.292462 0.027303 0.920237
O O5 0.416029 0.104135 0.174897
O O6 0.357381 0.145874 0.425062
O O7 0.401952 0.021498 0.485046
O O8 0.254997 0.863984 0.453715
O O9 0.282455 0.789900 0.157006
O O10 0.819830 0.645758 0.093885
O O11 0.031696 0.043350 0.124189
#
# Coordination Sequence:
#
# PCOD9372449 Si02
#       6
#    16  16  16  16   8  16
#     4  11  22  42  69 106 137 182 232 294 359 437
#     4  11  28  46  66 100 149 183 240 306 370 426
#     4  11  22  43  71  99 139 183 240 290 359 437
#     4  11  23  41  73 104 139 182 243 292 359 439
#     4  12  22  46  78 100 138 200 248 290 362 444
#     4  12  26  48  70 105 147 190 246 307 365 447
#
# _framework density 21.893713999999999
#
# number of rings (size 3 to 8) (size 9 to 14) (size 15 to 20)
#    0.000    0.727    5.455    2.182    2.545    2.909 
#    3.273    0.000    0.000    0.000    0.000    0.000 
#    0.000    0.000    0.000    0.000    0.000    0.000 
#
# Total GULP energy -122698.796186 kJ/mol
# GULP energy per Si atom -5577.218008 kJ/mol
# Density = 2.184388 g / cm^3
# Si number density = 21.893714 Si / 1000 Ang^3
#
#
#
# Elastic Constant Matrix: (Units=GPa)
#
#
# Indices 1 2 3 4 5 6 
#
# 1 77.4961 41.5667 16.5595 0.0000 0.0000 0.0000
# 2 41.5667 158.3270 25.5590 0.0000 0.0000 0.0000
# 3 16.5595 25.5590 68.8254 -0.0003 0.0002 0.0000
# 4 0.0000 0.0000 -0.0003 37.1782 0.0001 0.0000
# 5 0.0000 0.0000 0.0002 0.0001 16.1640 0.0000
# 6 0.0000 0.0000 0.0000 0.0000 0.0000 32.6957
#
#
#
# Elastic Compliance Matrix: (Units=1/GPa)
#
#
# Indices 1 2 3 4 5 6 
#
# 1 0.015365 -0.003656 -0.002339 0.000000 0.000000 0.000000
# 2 -0.003656 0.007589 -0.001939 0.000000 0.000000 0.000000
# 3 -0.002339 -0.001939 0.015812 0.000000 0.000000 0.000000
# 4 0.000000 0.000000 0.000000 0.026898 0.000000 0.000000
# 5 0.000000 0.000000 0.000000 0.000000 0.061866 0.000000
# 6 0.000000 0.000000 0.000000 0.000000 0.000000 0.030585
#
#
# Mechanical properties :
#
#
# Convention : Reuss Voigt Hill
#
# Bulk Modulus (GPa) = 43.67133 52.44655 48.05894
# Shear Modulus (GPa) = 27.53081 31.93846 29.73463
#
# Velocity S-wave (km/s) = 3.54994 3.82356 3.68929
# Velocity P-wave (km/s) = 6.06572 6.59545 6.33612
#
# Compressibility (1/GPa) = 0.02289832
#
# Stress axis : x y z
#
# Youngs Moduli (GPa) = 65.08388 131.77181 63.24240
#
# Poissons Ratio (x) = 0.48179 0.14792
# Poissons Ratio (y) = 0.23796 0.12260
# Poissons Ratio (z) = 0.15223 0.25544
#
# Static dielectric constant tensor:
#      x y z
#    x 1.819090 0.000000 0.000000 
#    y 0.000000 1.885630 0.000000 
#    z 0.000000 0.000000 1.864170 
# 
# From -- ./inp_files/1398.got.cif
#   From: 2010.05.17/outbox.cif.g08.bks.cpg/sg43_1_cif.got.tgz:1398.got - 2010.06.03 19:21:55.
