data_PCOD9372096
_publ_section_title
;
Structure prediction by ZEFSAII (Michael W. Deem and Ramdas Pophale) SiO2 
 PCOD9372096
Probable space group: F D D 2
;
_chemical_formula_sum "Si O2"
_cell_formula_units_Z 112
_cell_length_a 23.569691
_cell_length_b 18.657852
_cell_length_c 10.428019
_cell_angle_alpha 90.000000
_cell_angle_beta 90.000000
_cell_angle_gamma 90.000000
_cell_volume 4585.823616
_symmetry_space_group_name_H-M "F D D 2"
_symmetry_group_IT_number 43
_symmetry_cell_setting 'orthorhombic'
loop_
_space_group_symop_operation_xyz
x,y,z
-x,-y,z
1/4-x,1/4+y,1/4+z
1/4+x,1/4-y,1/4+z
x,1/2+y,1/2+z
-x,1/2-y,1/2+z
1/4-x,3/4+y,3/4+z
1/4+x,3/4-y,3/4+z
1/2+x,y,1/2+z
1/2-x,-y,1/2+z
3/4-x,1/4+y,3/4+z
3/4+x,1/4-y,3/4+z
1/2+x,1/2+y,z
1/2-x,1/2-y,z
3/4-x,3/4+y,1/4+z
3/4+x,3/4-y,1/4+z
loop_
_atom_site_type_symbol
_atom_site_label
_atom_site_fract_x
_atom_site_fract_y
_atom_site_fract_z
Si Si1 0.835574 0.902727 0.471980
Si Si2 0.436015 0.505051 0.746491
Si Si3 0.713951 0.434384 0.870104
Si Si4 0.902164 0.276774 0.864474
Si Si5 0.886985 0.898477 0.956295
Si Si6 0.234029 0.555983 0.212644
Si Si7 0.200725 0.794861 0.205127
O O1 0.775177 0.904754 0.404194
O O2 0.864582 0.825066 0.459307
O O3 0.816810 0.930816 0.612859
O O4 0.885751 0.950541 0.409259
O O5 0.500000 0.500000 0.801530
O O6 0.410826 0.586149 0.729675
O O7 0.400014 0.446296 0.829007
O O8 0.441449 0.482213 0.599004
O O9 0.691772 0.398805 0.741201
O O10 0.717021 0.519828 0.845004
O O11 0.669765 0.426328 0.987245
O O12 0.869529 0.208210 0.815482
O O13 0.964814 0.255596 0.912632
O O14 0.268367 0.629286 0.222285
O O15 0.250000 0.750000 0.135121
#
# Coordination Sequence:
#
# PCOD9372096 Si02
#       7
#    16  16  16  16  16  16  16
#     4  10  24  47  68 106 147 189 242 304 380 447
#     4  11  28  45  76 109 148 198 250 320 380 454
#     4  11  25  42  76 103 142 192 249 304 379 451
#     4  10  25  45  68 102 143 191 241 309 369 451
#     4  12  26  46  70 107 147 186 258 306 377 449
#     4  10  24  45  68 104 141 194 240 302 373 447
#     4  10  24  45  70 104 149 188 244 301 378 451
#
# _framework density 24.423093000000001
#
# number of rings (size 3 to 8) (size 9 to 14) (size 15 to 20)
#    0.000    1.429    1.429    0.857   10.000    4.571 
#    5.143    0.000    0.000    0.000    0.000    0.000 
#    0.000    0.000    0.000    0.000    0.000    0.000 
#
# Total GULP energy -156114.654916 kJ/mol
# GULP energy per Si atom -5575.523390 kJ/mol
# Density = 2.436751 g / cm^3
# Si number density = 24.423093 Si / 1000 Ang^3
#
#
#
# Elastic Constant Matrix: (Units=GPa)
#
#
# Indices 1 2 3 4 5 6 
#
# 1 152.1913 44.6148 1.0476 0.0000 0.0000 0.0000
# 2 44.6148 96.7689 19.9222 0.0000 0.0000 0.0000
# 3 1.0476 19.9222 40.4499 -0.0001 0.0000 0.0000
# 4 0.0000 0.0000 -0.0001 38.8672 0.0000 0.0000
# 5 0.0000 0.0000 0.0000 0.0000 21.9154 0.0000
# 6 0.0000 0.0000 0.0000 0.0000 0.0000 37.1976
#
#
#
# Elastic Compliance Matrix: (Units=1/GPa)
#
#
# Indices 1 2 3 4 5 6 
#
# 1 0.007704 -0.003907 0.001725 0.000000 0.000000 0.000000
# 2 -0.003907 0.013481 -0.006539 0.000000 0.000000 0.000000
# 3 0.001725 -0.006539 0.027898 0.000000 0.000000 0.000000
# 4 0.000000 0.000000 0.000000 0.025729 0.000000 0.000000
# 5 0.000000 0.000000 0.000000 0.000000 0.045630 0.000000
# 6 0.000000 0.000000 0.000000 0.000000 0.000000 0.026883
#
#
# Mechanical properties :
#
#
# Convention : Reuss Voigt Hill
#
# Bulk Modulus (GPa) = 31.60420 46.73104 39.16762
# Shear Modulus (GPa) = 28.52023 34.51773 31.51898
#
# Velocity S-wave (km/s) = 3.42095 3.76350 3.59631
# Velocity P-wave (km/s) = 5.34530 6.16934 5.77204
#
# Compressibility (1/GPa) = 0.03164136
#
# Stress axis : x y z
#
# Youngs Moduli (GPa) = 129.80012 74.17663 35.84538
#
# Poissons Ratio (x) = 0.28981 -0.06182
# Poissons Ratio (y) = 0.50713 0.23438
# Poissons Ratio (z) = -0.22387 0.48501
#
# Static dielectric constant tensor:
#      x y z
#    x 2.052480 0.000000 0.000000 
#    y 0.000000 2.006710 0.000000 
#    z 0.000000 0.000000 2.003710 
# 
# From -- ./inp_files/7577.got.cif
#   From: 2010.05.17/outbox.cif.g08.bks.cpg/sg43_4_cif.got.tgz:7577.got - 2010.06.03 19:21:55.
