data_PCOD9372672
_publ_section_title
;
Structure prediction by ZEFSAII (Michael W. Deem and Ramdas Pophale) SiO2 
 PCOD9372672
Probable space group: F D D 2
;
_chemical_formula_sum "Si O2"
_cell_formula_units_Z 64
_cell_length_a 7.983600
_cell_length_b 26.335658
_cell_length_c 11.130160
_cell_angle_alpha 90.000000
_cell_angle_beta 90.000000
_cell_angle_gamma 90.000000
_cell_volume 2340.153529
_symmetry_space_group_name_H-M "F D D 2"
_symmetry_group_IT_number 43
_symmetry_cell_setting 'orthorhombic'
loop_
_space_group_symop_operation_xyz
x,y,z
-x,-y,z
1/4-x,1/4+y,1/4+z
1/4+x,1/4-y,1/4+z
x,1/2+y,1/2+z
-x,1/2-y,1/2+z
1/4-x,3/4+y,3/4+z
1/4+x,3/4-y,3/4+z
1/2+x,y,1/2+z
1/2-x,-y,1/2+z
3/4-x,1/4+y,3/4+z
3/4+x,1/4-y,3/4+z
1/2+x,1/2+y,z
1/2-x,1/2-y,z
3/4-x,3/4+y,1/4+z
3/4+x,3/4-y,1/4+z
loop_
_atom_site_type_symbol
_atom_site_label
_atom_site_fract_x
_atom_site_fract_y
_atom_site_fract_z
Si Si1 0.244645 0.831271 0.859550
Si Si2 0.121592 0.440363 0.347987
Si Si3 0.405493 0.287412 0.583159
Si Si4 0.887905 0.051194 0.595453
O O1 0.281344 0.813995 0.724970
O O2 0.245389 0.892281 0.861411
O O3 0.439385 0.693849 0.883553
O O4 0.381988 0.815524 0.957494
O O5 0.191554 0.497600 0.340448
O O6 0.035488 0.426877 0.219838
O O7 0.250000 0.250000 0.581748
O O8 0.379827 0.318748 0.706802
O O9 0.000000 0.000000 0.583730
#
# Coordination Sequence:
#
# PCOD9372672 Si02
#       4
#    16  16  16  16
#     4  12  26  52  77 119 175 208 283 351 408 505
#     4  12  25  49  81 120 163 223 271 348 418 493
#     4  11  24  47  78 113 163 218 267 334 423 484
#     4  11  27  48  77 119 157 216 281 336 425 493
#
# _framework density 27.348633
#
# number of rings (size 3 to 8) (size 9 to 14) (size 15 to 20)
#    0.000    0.500    5.000    1.500    3.500    0.000 
#   13.500    0.000    0.000    0.000    0.000    0.000 
#    0.000    0.000    0.000    0.000    0.000    0.000 
#
# Total GULP energy -89212.471072 kJ/mol
# GULP energy per Si atom -5575.779442 kJ/mol
# Density = 2.728639 g / cm^3
# Si number density = 27.348633 Si / 1000 Ang^3
#
#
#
# Elastic Constant Matrix: (Units=GPa)
#
#
# Indices 1 2 3 4 5 6 
#
# 1 122.2767 44.3699 55.9204 0.0000 0.0000 0.0000
# 2 44.3699 146.7944 88.1762 0.0000 0.0000 0.0000
# 3 55.9204 88.1762 259.9568 0.0000 0.0000 0.0000
# 4 0.0000 0.0000 0.0000 16.9419 0.0000 0.0000
# 5 0.0000 0.0000 0.0000 0.0000 42.2727 0.0000
# 6 0.0000 0.0000 0.0000 0.0000 0.0000 50.7066
#
#
#
# Elastic Compliance Matrix: (Units=1/GPa)
#
#
# Indices 1 2 3 4 5 6 
#
# 1 0.009549 -0.002075 -0.001350 0.000000 0.000000 0.000000
# 2 -0.002075 0.009006 -0.002609 0.000000 0.000000 0.000000
# 3 -0.001350 -0.002609 0.005022 0.000000 0.000000 0.000000
# 4 0.000000 0.000000 0.000000 0.059025 0.000000 0.000000
# 5 0.000000 0.000000 0.000000 0.000000 0.023656 0.000000
# 6 0.000000 0.000000 0.000000 0.000000 0.000000 0.019721
#
#
# Mechanical properties :
#
#
# Convention : Reuss Voigt Hill
#
# Bulk Modulus (GPa) = 86.88578 100.66232 93.77405
# Shear Modulus (GPa) = 35.24012 44.68833 39.96423
#
# Velocity S-wave (km/s) = 3.59353 4.04669 3.82683
# Velocity P-wave (km/s) = 7.00405 7.66298 7.34091
#
# Compressibility (1/GPa) = 0.01150936
#
# Stress axis : x y z
#
# Youngs Moduli (GPa) = 104.72699 111.03254 199.12249
#
# Poissons Ratio (x) = 0.23041 0.26885
# Poissons Ratio (y) = 0.21732 0.51942
# Poissons Ratio (z) = 0.14140 0.28963
#
# Static dielectric constant tensor:
#      x y z
#    x 2.292750 0.000000 0.000000 
#    y 0.000000 2.112280 0.000000 
#    z 0.000000 0.000000 2.152740 
# 
# From -- ./inp_files/2244.got.cif
#   From: 2010.05.17/outbox.cif.g08.bks.cpg/sg43_2_cif.got.tgz:2244.got - 2010.06.03 19:21:55.
