data_PCOD9372565
_publ_section_title
;
Structure prediction by ZEFSAII (Michael W. Deem and Ramdas Pophale) SiO2 
 PCOD9372565
Probable space group: F D D 2
;
_chemical_formula_sum "Si O2"
_cell_formula_units_Z 96
_cell_length_a 15.531415
_cell_length_b 24.516448
_cell_length_c 11.578565
_cell_angle_alpha 90.000000
_cell_angle_beta 90.000000
_cell_angle_gamma 90.000000
_cell_volume 4408.829572
_symmetry_space_group_name_H-M "F D D 2"
_symmetry_group_IT_number 43
_symmetry_cell_setting 'orthorhombic'
loop_
_space_group_symop_operation_xyz
x,y,z
-x,-y,z
1/4-x,1/4+y,1/4+z
1/4+x,1/4-y,1/4+z
x,1/2+y,1/2+z
-x,1/2-y,1/2+z
1/4-x,3/4+y,3/4+z
1/4+x,3/4-y,3/4+z
1/2+x,y,1/2+z
1/2-x,-y,1/2+z
3/4-x,1/4+y,3/4+z
3/4+x,1/4-y,3/4+z
1/2+x,1/2+y,z
1/2-x,1/2-y,z
3/4-x,3/4+y,1/4+z
3/4+x,3/4-y,1/4+z
loop_
_atom_site_type_symbol
_atom_site_label
_atom_site_fract_x
_atom_site_fract_y
_atom_site_fract_z
Si Si1 0.500000 0.500000 0.612640
Si Si2 0.100604 0.549198 0.933021
Si Si3 0.028361 0.855252 0.886549
Si Si4 0.779200 0.505537 0.498872
Si Si5 0.871446 0.803181 0.026036
Si Si6 0.862193 0.339948 0.852977
Si Si7 0.500000 0.500000 0.220723
O O1 0.521880 0.547219 0.522135
O O2 0.417117 0.509450 0.689441
O O3 0.179736 0.509741 0.964567
O O4 0.134011 0.610597 0.940299
O O5 0.066682 0.528849 0.808632
O O6 0.050437 0.801748 0.810718
O O7 0.039099 0.908162 0.805278
O O8 0.942953 0.839385 0.958970
O O9 0.093003 0.877000 0.985454
O O10 0.835868 0.522483 0.386007
O O11 0.802669 0.553988 0.587950
O O12 0.790943 0.296288 0.889949
#
# Coordination Sequence:
#
# PCOD9372565 Si02
#       7
#     8  16  16  16  16  16   8
#     4  11  26  47  62 104 142 183 226 291 354 408
#     4  11  23  45  65 100 142 174 233 284 342 411
#     4  11  25  44  69 103 134 179 234 284 343 417
#     4  11  24  43  72  95 137 178 227 288 339 408
#     4  11  26  45  71  99 141 181 233 282 351 416
#     4  11  24  42  71 102 133 179 235 279 343 413
#     4  11  26  41  74 102 138 181 228 289 342 414
#
# _framework density 21.774487000000001
#
# number of rings (size 3 to 8) (size 9 to 14) (size 15 to 20)
#    0.000    1.000    3.333    2.000    7.000    2.667 
#    3.000    0.000    0.000    0.000    0.000    0.000 
#    0.000    0.000    0.000    0.000    0.000    0.000 
#
# Total GULP energy -133781.309175 kJ/mol
# GULP energy per Si atom -5574.221216 kJ/mol
# Density = 2.172493 g / cm^3
# Si number density = 21.774487 Si / 1000 Ang^3
#
#
#
# Elastic Constant Matrix: (Units=GPa)
#
#
# Indices 1 2 3 4 5 6 
#
# 1 44.9481 25.9879 21.1544 0.0000 0.0000 0.0000
# 2 25.9879 108.0427 44.6460 0.0000 0.0000 0.0000
# 3 21.1544 44.6460 82.4282 0.0000 0.0000 0.0000
# 4 0.0000 0.0000 0.0000 31.0808 0.0000 0.0000
# 5 0.0000 0.0000 0.0000 0.0000 31.1432 0.0000
# 6 0.0000 0.0000 0.0000 0.0000 0.0000 21.4306
#
#
#
# Elastic Compliance Matrix: (Units=1/GPa)
#
#
# Indices 1 2 3 4 5 6 
#
# 1 0.027026 -0.004683 -0.004400 0.000000 0.000000 0.000000
# 2 -0.004683 0.012736 -0.005696 0.000000 0.000000 0.000000
# 3 -0.004400 -0.005696 0.016346 0.000000 0.000000 0.000000
# 4 0.000000 0.000000 0.000000 0.032174 0.000000 0.000000
# 5 0.000000 0.000000 0.000000 0.000000 0.032110 0.000000
# 6 0.000000 0.000000 0.000000 0.000000 0.000000 0.046662
#
#
# Mechanical properties :
#
#
# Convention : Reuss Voigt Hill
#
# Bulk Modulus (GPa) = 37.66387 46.55505 42.10946
# Shear Modulus (GPa) = 24.33542 26.30630 25.32086
#
# Velocity S-wave (km/s) = 3.34670 3.47958 3.41378
# Velocity P-wave (km/s) = 5.68055 6.12946 5.90927
#
# Compressibility (1/GPa) = 0.02655064
#
# Stress axis : x y z
#
# Youngs Moduli (GPa) = 37.00152 78.51866 61.17600
#
# Poissons Ratio (x) = 0.36767 0.26916
# Poissons Ratio (y) = 0.17326 0.34848
# Poissons Ratio (z) = 0.16280 0.44728
#
# Static dielectric constant tensor:
#      x y z
#    x 1.819240 0.000000 0.000000 
#    y 0.000000 1.643730 0.000000 
#    z 0.000000 0.000000 1.884360 
# 
# From -- ./inp_files/6701.got.cif
#   From: 2010.05.17/outbox.cif.g08.bks.cpg/sg43_4_cif.got.tgz:6701.got - 2010.06.03 19:21:55.
