data_PCOD9372943
_publ_section_title
;
Structure prediction by ZEFSAII (Michael W. Deem and Ramdas Pophale) SiO2 
 PCOD9372943
Probable space group: F D D 2
;
_chemical_formula_sum "Si O2"
_cell_formula_units_Z 40
_cell_length_a 13.796289
_cell_length_b 20.202588
_cell_length_c 4.780910
_cell_angle_alpha 90.000000
_cell_angle_beta 90.000000
_cell_angle_gamma 90.000000
_cell_volume 1332.538785
_symmetry_space_group_name_H-M "F D D 2"
_symmetry_group_IT_number 43
_symmetry_cell_setting 'orthorhombic'
loop_
_space_group_symop_operation_xyz
x,y,z
-x,-y,z
1/4-x,1/4+y,1/4+z
1/4+x,1/4-y,1/4+z
x,1/2+y,1/2+z
-x,1/2-y,1/2+z
1/4-x,3/4+y,3/4+z
1/4+x,3/4-y,3/4+z
1/2+x,y,1/2+z
1/2-x,-y,1/2+z
3/4-x,1/4+y,3/4+z
3/4+x,1/4-y,3/4+z
1/2+x,1/2+y,z
1/2-x,1/2-y,z
3/4-x,3/4+y,1/4+z
3/4+x,3/4-y,1/4+z
loop_
_atom_site_type_symbol
_atom_site_label
_atom_site_fract_x
_atom_site_fract_y
_atom_site_fract_z
Si Si1 0.250000 0.250000 0.547601
Si Si2 0.345686 0.056777 0.381959
Si Si3 0.903558 0.667536 0.929968
O O1 0.314154 0.295532 0.340299
O O2 0.178971 0.294306 0.744824
O O3 0.251587 0.090207 0.508399
O O4 0.373726 0.104052 0.117867
O O5 0.316154 0.979572 0.369975
#
# Coordination Sequence:
#
# PCOD9372943 Si02
#       3
#     8  16  16
#     4  12  30  64 106 146 208 270 336 440 496 616
#     4  12  31  63 103 150 203 271 344 419 519 613
#     4  12  31  63 103 150 203 271 344 419 519 613
#
# _framework density 30.017887999999999
#
# number of rings (size 3 to 8) (size 9 to 14) (size 15 to 20)
#    0.000    0.000    4.000    1.200    5.600   12.800 
#    0.000    0.000    0.000    0.000    0.000    0.000 
#    0.000    0.000    0.000    0.000    0.000    0.000 
#
# Total GULP energy -56014.254623 kJ/mol
# GULP energy per Si atom -5601.425462 kJ/mol
# Density = 2.994957 g / cm^3
# Si number density = 30.017888 Si / 1000 Ang^3
#
#
#
# Elastic Constant Matrix: (Units=GPa)
#
#
# Indices 1 2 3 4 5 6 
#
# 1 239.6691 66.2835 93.1468 0.0030 -0.0043 -0.0014
# 2 66.2835 202.8024 64.6285 0.0028 -0.0010 -0.0003
# 3 93.1468 64.6285 153.1628 0.0168 -0.0144 -0.0016
# 4 0.0030 0.0028 0.0168 104.7757 -0.0040 -0.0009
# 5 -0.0043 -0.0010 -0.0144 -0.0040 82.8976 0.0019
# 6 -0.0014 -0.0003 -0.0016 -0.0009 0.0019 40.7397
#
#
#
# Elastic Compliance Matrix: (Units=1/GPa)
#
#
# Indices 1 2 3 4 5 6 
#
# 1 0.005591 -0.000859 -0.003037 0.000000 0.000000 0.000000
# 2 -0.000859 0.005829 -0.001937 0.000000 0.000000 0.000000
# 3 -0.003037 -0.001937 0.009194 -0.000001 0.000001 0.000000
# 4 0.000000 0.000000 -0.000001 0.009544 0.000000 0.000000
# 5 0.000000 0.000000 0.000001 0.000000 0.012063 -0.000001
# 6 0.000000 0.000000 0.000000 0.000000 -0.000001 0.024546
#
#
# Mechanical properties :
#
#
# Convention : Reuss Voigt Hill
#
# Bulk Modulus (GPa) = 111.78439 115.97243 113.87841
# Shear Modulus (GPa) = 61.41325 70.45430 65.93377
#
# Velocity S-wave (km/s) = 4.52806 4.84992 4.69175
# Velocity P-wave (km/s) = 8.04101 8.37142 8.20788
#
# Compressibility (1/GPa) = 0.00894579
#
# Stress axis : x y z
#
# Youngs Moduli (GPa) = 178.87455 171.55472 108.77217
#
# Poissons Ratio (x) = 0.14741 0.33038
# Poissons Ratio (y) = 0.15370 0.21070
# Poissons Ratio (z) = 0.54330 0.33231
#
# Static dielectric constant tensor:
#      x y z
#    x 2.288860 0.000000 0.000000 
#    y 0.000000 2.342120 0.000000 
#    z 0.000000 0.000000 2.710440 
# 
# From -- ./inp_files/231.got.cif
#   From: 2010.05.17/outbox.cif.g08.bks.cpg/sg43_1_cif.got.tgz:231.got - 2010.06.03 19:21:55.
