data_PCOD9372442
_publ_section_title
;
Structure prediction by ZEFSAII (Michael W. Deem and Ramdas Pophale) SiO2 
 PCOD9372442
Probable space group: F D D 2
;
_chemical_formula_sum "Si O2"
_cell_formula_units_Z 120
_cell_length_a 17.648668
_cell_length_b 13.183695
_cell_length_c 23.476190
_cell_angle_alpha 90.000000
_cell_angle_beta 90.000000
_cell_angle_gamma 90.000000
_cell_volume 5462.314434
_symmetry_space_group_name_H-M "F D D 2"
_symmetry_group_IT_number 43
_symmetry_cell_setting 'orthorhombic'
loop_
_space_group_symop_operation_xyz
x,y,z
-x,-y,z
1/4-x,1/4+y,1/4+z
1/4+x,1/4-y,1/4+z
x,1/2+y,1/2+z
-x,1/2-y,1/2+z
1/4-x,3/4+y,3/4+z
1/4+x,3/4-y,3/4+z
1/2+x,y,1/2+z
1/2-x,-y,1/2+z
3/4-x,1/4+y,3/4+z
3/4+x,1/4-y,3/4+z
1/2+x,1/2+y,z
1/2-x,1/2-y,z
3/4-x,3/4+y,1/4+z
3/4+x,3/4-y,1/4+z
loop_
_atom_site_type_symbol
_atom_site_label
_atom_site_fract_x
_atom_site_fract_y
_atom_site_fract_z
Si Si1 0.750000 0.250000 0.146060
Si Si2 0.814258 0.458826 0.976897
Si Si3 0.137853 0.855300 0.432459
Si Si4 0.919387 0.536300 0.075456
Si Si5 0.082886 0.543118 0.601888
Si Si6 0.572531 0.621339 0.294828
Si Si7 0.568399 0.751543 0.032366
Si Si8 0.660840 0.984415 0.714316
O O1 0.687914 0.177663 0.177287
O O2 0.713321 0.331621 0.102928
O O3 0.853259 0.508291 0.032077
O O4 0.738988 0.406355 0.998856
O O5 0.800721 0.554248 0.935823
O O6 0.874753 0.376602 0.954408
O O7 0.152086 0.780141 0.380698
O O8 0.134041 0.783718 0.487873
O O9 0.929023 0.656748 0.077806
O O10 0.000000 0.500000 0.051322
O O11 0.120236 0.461097 0.559670
O O12 0.073988 0.647189 0.566733
O O13 0.138062 0.546715 0.657385
O O14 0.000000 0.500000 0.619618
O O15 0.614016 0.526675 0.267451
O O16 0.495430 0.756807 0.989544
#
# Coordination Sequence:
#
# PCOD9372442 Si02
#       8
#     8  16  16  16  16  16  16  16
#     4  12  22  42  76 110 130 180 244 308 354 420
#     4  11  22  41  68 108 135 173 236 303 356 425
#     4  11  24  41  72 101 143 186 236 293 368 431
#     4  11  23  42  70 101 138 183 236 296 363 425
#     4  12  27  45  69 103 144 191 242 295 369 439
#     4  12  23  42  71 102 140 174 239 302 358 425
#     4  11  26  47  67 104 146 188 240 299 363 445
#     4  12  23  43  73 101 139 183 234 306 360 415
#
# _framework density 21.968710000000002
#
# number of rings (size 3 to 8) (size 9 to 14) (size 15 to 20)
#    0.000    0.533    5.333    3.200    1.867    4.267 
#    0.000    2.000    0.000    0.000    0.000    0.000 
#    0.000    0.000    0.000    0.000    0.000    0.000 
#
# Total GULP energy -167503.367899 kJ/mol
# GULP energy per Si atom -5583.445597 kJ/mol
# Density = 2.191871 g / cm^3
# Si number density = 21.968710 Si / 1000 Ang^3
#
#
#
# Elastic Constant Matrix: (Units=GPa)
#
#
# Indices 1 2 3 4 5 6 
#
# 1 35.3890 23.3755 -0.8254 0.0000 0.0000 0.0000
# 2 23.3755 147.0579 43.6220 0.0000 0.0000 0.0000
# 3 -0.8254 43.6220 75.7605 0.0000 0.0000 0.0000
# 4 0.0000 0.0000 0.0000 38.7803 0.0000 0.0000
# 5 0.0000 0.0000 0.0000 0.0000 21.0435 0.0000
# 6 0.0000 0.0000 0.0000 0.0000 0.0000 10.2723
#
#
#
# Elastic Compliance Matrix: (Units=1/GPa)
#
#
# Indices 1 2 3 4 5 6 
#
# 1 0.032557 -0.006368 0.004021 0.000000 0.000000 0.000000
# 2 -0.006368 0.009446 -0.005508 0.000000 0.000000 0.000000
# 3 0.004021 -0.005508 0.016415 0.000000 0.000000 0.000000
# 4 0.000000 0.000000 0.000000 0.025786 0.000000 0.000000
# 5 0.000000 0.000000 0.000000 0.000000 0.047521 0.000000
# 6 0.000000 0.000000 0.000000 0.000000 0.000000 0.097349
#
#
# Mechanical properties :
#
#
# Convention : Reuss Voigt Hill
#
# Bulk Modulus (GPa) = 23.41454 43.39460 33.40457
# Shear Modulus (GPa) = 19.30347 26.82159 23.06253
#
# Velocity S-wave (km/s) = 2.96747 3.49793 3.24356
# Velocity P-wave (km/s) = 4.73523 6.00914 5.40982
#
# Compressibility (1/GPa) = 0.04270850
#
# Stress axis : x y z
#
# Youngs Moduli (GPa) = 30.71497 105.86232 60.91995
#
# Poissons Ratio (x) = 0.67413 -0.24498
# Poissons Ratio (y) = 0.19559 0.33557
# Poissons Ratio (z) = -0.12352 0.58313
#
# Static dielectric constant tensor:
#      x y z
#    x 1.892640 0.000000 0.000000 
#    y 0.000000 1.845540 0.000000 
#    z 0.000000 0.000000 1.804110 
# 
# From -- ./inp_files/22444.got.cif
#   From: 2010.05.17/outbox.cif.g08.bks.cpg/sg43_12_cif.got.tgz:22444.got - 2010.06.03 19:21:55.
