data_PCOD9372199
_publ_section_title
;
Structure prediction by ZEFSAII (Michael W. Deem and Ramdas Pophale) SiO2 
 PCOD9372199
Probable space group: F D D 2
;
_chemical_formula_sum "Si O2"
_cell_formula_units_Z 120
_cell_length_a 8.730833
_cell_length_b 39.069607
_cell_length_c 12.435673
_cell_angle_alpha 90.000000
_cell_angle_beta 90.000000
_cell_angle_gamma 90.000000
_cell_volume 4241.935079
_symmetry_space_group_name_H-M "F D D 2"
_symmetry_group_IT_number 43
_symmetry_cell_setting 'orthorhombic'
loop_
_space_group_symop_operation_xyz
x,y,z
-x,-y,z
1/4-x,1/4+y,1/4+z
1/4+x,1/4-y,1/4+z
x,1/2+y,1/2+z
-x,1/2-y,1/2+z
1/4-x,3/4+y,3/4+z
1/4+x,3/4-y,3/4+z
1/2+x,y,1/2+z
1/2-x,-y,1/2+z
3/4-x,1/4+y,3/4+z
3/4+x,1/4-y,3/4+z
1/2+x,1/2+y,z
1/2-x,1/2-y,z
3/4-x,3/4+y,1/4+z
3/4+x,3/4-y,1/4+z
loop_
_atom_site_type_symbol
_atom_site_label
_atom_site_fract_x
_atom_site_fract_y
_atom_site_fract_z
Si Si1 0.058543 0.804638 0.843960
Si Si2 0.295337 0.695109 0.413379
Si Si3 0.503638 0.297434 0.204797
Si Si4 0.000000 0.000000 0.230677
Si Si5 0.417708 0.620181 0.936393
Si Si6 0.199946 0.522202 0.363716
Si Si7 0.761863 0.874639 0.833661
Si Si8 0.015426 0.588577 0.859765
O O1 0.175799 0.778855 0.901423
O O2 0.885807 0.799389 0.891000
O O3 0.112089 0.843581 0.870612
O O4 0.041976 0.796395 0.718132
O O5 0.088087 0.667034 0.693665
O O6 0.340134 0.713064 0.522926
O O7 0.312529 0.653777 0.415835
O O8 0.413453 0.264624 0.167047
O O9 0.588305 0.292413 0.319337
O O10 0.618005 0.364925 0.054368
O O11 0.643392 0.303923 0.121568
O O12 0.587062 0.614158 0.892864
O O13 0.729019 0.650030 0.731024
O O14 0.360451 0.515731 0.301096
O O15 0.645138 0.904725 0.803540
#
# Coordination Sequence:
#
# PCOD9372199 Si02
#       8
#    16  16  16   8  16  16  16  16
#     4  11  28  55  90 127 178 238 308 362 451 544
#     4  10  24  56  87 121 179 235 298 366 445 544
#     4  11  25  51  86 129 176 237 294 373 459 530
#     4  12  28  52  86 132 172 238 308 366 440 538
#     4  11  25  52  83 128 175 225 296 375 439 545
#     4  12  27  54  87 125 175 240 298 365 449 539
#     4  10  25  47  79 124 160 229 287 358 460 532
#     4  11  22  49  77 115 172 216 275 368 441 516
#
# _framework density 28.288975000000001
#
# number of rings (size 3 to 8) (size 9 to 14) (size 15 to 20)
#    0.000    1.067    2.667    2.400    1.867    5.867 
#   12.000   13.333    0.000    0.000    3.467    0.000 
#    0.000    0.000    0.000    0.000    0.000    0.000 
#
# Total GULP energy -168214.654198 kJ/mol
# GULP energy per Si atom -5607.155140 kJ/mol
# Density = 2.822459 g / cm^3
# Si number density = 28.288975 Si / 1000 Ang^3
#
#
#
# Elastic Constant Matrix: (Units=GPa)
#
#
# Indices 1 2 3 4 5 6 
#
# 1 134.7513 61.1685 87.8585 0.0000 0.0000 0.0000
# 2 61.1685 208.7843 83.7591 0.0000 0.0000 0.0000
# 3 87.8585 83.7591 180.2766 0.0000 0.0000 0.0000
# 4 0.0000 0.0000 0.0000 44.1557 0.0000 0.0000
# 5 0.0000 0.0000 0.0000 0.0000 52.4865 0.0000
# 6 0.0000 0.0000 0.0000 0.0000 0.0000 53.3423
#
#
#
# Elastic Compliance Matrix: (Units=1/GPa)
#
#
# Indices 1 2 3 4 5 6 
#
# 1 0.011174 -0.001338 -0.004824 0.000000 0.000000 0.000000
# 2 -0.001338 0.006047 -0.002157 0.000000 0.000000 0.000000
# 3 -0.004824 -0.002157 0.008900 0.000000 0.000000 0.000000
# 4 0.000000 0.000000 0.000000 0.022647 0.000000 0.000000
# 5 0.000000 0.000000 0.000000 0.000000 0.019053 0.000000
# 6 0.000000 0.000000 0.000000 0.000000 0.000000 0.018747
#
#
# Mechanical properties :
#
#
# Convention : Reuss Voigt Hill
#
# Bulk Modulus (GPa) = 105.46081 109.93161 107.69621
# Shear Modulus (GPa) = 47.00693 49.39866 48.20279
#
# Velocity S-wave (km/s) = 4.08078 4.18331 4.13236
# Velocity P-wave (km/s) = 7.71780 7.89164 7.80521
#
# Compressibility (1/GPa) = 0.00948220
#
# Stress axis : x y z
#
# Youngs Moduli (GPa) = 89.49571 165.36476 112.35713
#
# Poissons Ratio (x) = 0.22134 0.54197
# Poissons Ratio (y) = 0.11979 0.24239
# Poissons Ratio (z) = 0.43170 0.35675
#
# Static dielectric constant tensor:
#      x y z
#    x 2.295800 0.000000 0.000000 
#    y 0.000000 2.224240 0.000000 
#    z 0.000000 0.000000 2.209920 
# 
# From -- ./inp_files/10380.got.cif
#   From: 2010.05.17/outbox.cif.g08.bks.cpg/sg43_6_cif.got.tgz:10380.got - 2010.06.03 19:21:55.
