data_PCOD9372414
_publ_section_title
;
Structure prediction by ZEFSAII (Michael W. Deem and Ramdas Pophale) SiO2 
 PCOD9372414
Probable space group: F D D 2
;
_chemical_formula_sum "Si O2"
_cell_formula_units_Z 80
_cell_length_a 27.188645
_cell_length_b 10.584104
_cell_length_c 11.509475
_cell_angle_alpha 90.000000
_cell_angle_beta 90.000000
_cell_angle_gamma 90.000000
_cell_volume 3312.052229
_symmetry_space_group_name_H-M "F D D 2"
_symmetry_group_IT_number 43
_symmetry_cell_setting 'orthorhombic'
loop_
_space_group_symop_operation_xyz
x,y,z
-x,-y,z
1/4-x,1/4+y,1/4+z
1/4+x,1/4-y,1/4+z
x,1/2+y,1/2+z
-x,1/2-y,1/2+z
1/4-x,3/4+y,3/4+z
1/4+x,3/4-y,3/4+z
1/2+x,y,1/2+z
1/2-x,-y,1/2+z
3/4-x,1/4+y,3/4+z
3/4+x,1/4-y,3/4+z
1/2+x,1/2+y,z
1/2-x,1/2-y,z
3/4-x,3/4+y,1/4+z
3/4+x,3/4-y,1/4+z
loop_
_atom_site_type_symbol
_atom_site_label
_atom_site_fract_x
_atom_site_fract_y
_atom_site_fract_z
Si Si1 0.674901 0.452782 0.463630
Si Si2 0.332472 0.712257 0.820219
Si Si3 0.089233 0.616596 0.961715
Si Si4 0.229094 0.921625 0.012301
Si Si5 0.176477 0.184485 0.067429
O O1 0.619106 0.490939 0.494444
O O2 0.677916 0.439814 0.325042
O O3 0.713026 0.556347 0.510093
O O4 0.689472 0.316551 0.510676
O O5 0.368743 0.800620 0.896632
O O6 0.369668 0.598097 0.788715
O O7 0.317619 0.788728 0.705445
O O8 0.290321 0.650275 0.898331
O O9 0.044948 0.601299 0.872054
O O10 0.206292 0.063250 0.022822
#
# Coordination Sequence:
#
# PCOD9372414 Si02
#       5
#    16  16  16  16  16
#     4  12  26  44  72 105 146 189 242 315 374 444
#     4  11  21  45  75  99 146 193 238 301 366 446
#     4  11  23  48  68 104 149 185 242 309 369 441
#     4  11  25  46  71 109 137 198 250 293 369 457
#     4  11  22  43  72 106 145 190 245 299 374 435
#
# _framework density 24.154209999999999
#
# number of rings (size 3 to 8) (size 9 to 14) (size 15 to 20)
#    0.000    0.800    6.000    3.000    2.800    0.800 
#    3.600    0.000    0.000    0.000    0.000    0.000 
#    0.000    0.000    0.000    0.000    0.000    0.000 
#
# Total GULP energy -111994.197199 kJ/mol
# GULP energy per Si atom -5599.709860 kJ/mol
# Density = 2.409923 g / cm^3
# Si number density = 24.154210 Si / 1000 Ang^3
#
#
#
# Elastic Constant Matrix: (Units=GPa)
#
#
# Indices 1 2 3 4 5 6 
#
# 1 99.3909 36.8934 27.3196 0.0000 0.0000 0.0000
# 2 36.8934 119.0302 47.0398 0.0000 0.0000 0.0000
# 3 27.3196 47.0398 119.9218 0.0000 0.0000 0.0000
# 4 0.0000 0.0000 0.0000 24.5811 0.0000 0.0000
# 5 0.0000 0.0000 0.0000 0.0000 -0.2423 0.0000
# 6 0.0000 0.0000 0.0000 0.0000 0.0000 38.4441
#
#
#
# Elastic Compliance Matrix: (Units=1/GPa)
#
#
# Indices 1 2 3 4 5 6 
#
# 1 0.011580 -0.003014 -0.001456 0.000000 0.000000 0.000000
# 2 -0.003014 0.010727 -0.003521 0.000000 0.000000 0.000000
# 3 -0.001456 -0.003521 0.010052 0.000000 0.000000 0.000000
# 4 0.000000 0.000000 0.000000 0.040682 0.000000 0.000000
# 5 0.000000 0.000000 0.000000 0.000000 -4.126999 0.000000
# 6 0.000000 0.000000 0.000000 0.000000 0.000000 0.026012
#
#
# Mechanical properties :
#
#
# Convention : Reuss Voigt Hill
#
# Bulk Modulus (GPa) = 61.06145 62.31650 61.68897
# Shear Modulus (GPa) = -1.24797 27.69592 13.22398
#
# Velocity S-wave (km/s) = -0.71958 3.38986 2.34237
# Velocity P-wave (km/s) = 4.96431 6.41693 5.73678
#
# Compressibility (1/GPa) = 0.01637695
#
# Stress axis : x y z
#
# Youngs Moduli (GPa) = 86.35419 93.22371 99.48683
#
# Poissons Ratio (x) = 0.28097 0.14484
# Poissons Ratio (y) = 0.26027 0.35030
# Poissons Ratio (z) = 0.12572 0.32825
#
# Static dielectric constant tensor:
#      x y z
#    x 1.929750 0.000000 0.000000 
#    y 0.000000 1.990430 0.000000 
#    z 0.000000 0.000000 1.909850 
# 
# From -- ./inp_files/5688.got.cif
#   From: 2010.05.17/outbox.cif.g08.bks.cpg/sg43_3_cif.got.tgz:5688.got - 2010.06.03 19:21:55.
