data_PCOD9372202
_publ_section_title
;
Structure prediction by ZEFSAII (Michael W. Deem and Ramdas Pophale) SiO2 
 PCOD9372202
Probable space group: F D D 2
;
_chemical_formula_sum "Si O2"
_cell_formula_units_Z 120
_cell_length_a 28.000580
_cell_length_b 12.033003
_cell_length_c 14.540185
_cell_angle_alpha 90.000000
_cell_angle_beta 90.000000
_cell_angle_gamma 90.000000
_cell_volume 4899.039990
_symmetry_space_group_name_H-M "F D D 2"
_symmetry_group_IT_number 43
_symmetry_cell_setting 'orthorhombic'
loop_
_space_group_symop_operation_xyz
x,y,z
-x,-y,z
1/4-x,1/4+y,1/4+z
1/4+x,1/4-y,1/4+z
x,1/2+y,1/2+z
-x,1/2-y,1/2+z
1/4-x,3/4+y,3/4+z
1/4+x,3/4-y,3/4+z
1/2+x,y,1/2+z
1/2-x,-y,1/2+z
3/4-x,1/4+y,3/4+z
3/4+x,1/4-y,3/4+z
1/2+x,1/2+y,z
1/2-x,1/2-y,z
3/4-x,3/4+y,1/4+z
3/4+x,3/4-y,1/4+z
loop_
_atom_site_type_symbol
_atom_site_label
_atom_site_fract_x
_atom_site_fract_y
_atom_site_fract_z
Si Si1 0.267177 0.985888 0.869850
Si Si2 0.824187 0.475191 0.590035
Si Si3 0.250000 0.250000 0.291434
Si Si4 0.028878 0.685832 0.327857
Si Si5 0.621035 0.809950 0.642549
Si Si6 0.616159 0.824020 0.855449
Si Si7 0.071028 0.374067 0.133028
Si Si8 0.583341 0.499710 0.889689
O O1 0.248787 0.862038 0.850894
O O2 0.322473 0.975901 0.839251
O O3 0.228055 0.077705 0.839419
O O4 0.274048 0.012283 0.977661
O O5 0.770318 0.464247 0.628054
O O6 0.847717 0.594703 0.595148
O O7 0.820529 0.420776 0.488585
O O8 0.851147 0.377016 0.641567
O O9 0.200457 0.258251 0.231433
O O10 0.072606 0.742839 0.379833
O O11 0.044183 0.557481 0.322246
O O12 0.612572 0.851000 0.746662
O O13 0.643537 0.688785 0.656285
O O14 0.664680 0.754047 0.874556
O O15 0.119058 0.310734 0.103104
#
# Coordination Sequence:
#
# PCOD9372202 Si02
#       8
#    16  16   8  16  16  16  16  16
#     4  10  25  42  67 102 140 183 227 290 348 420
#     4  11  23  41  71  96 131 184 232 278 351 415
#     4  12  24  40  68 106 142 166 234 304 344 402
#     4   9  21  45  65  97 135 180 224 272 349 420
#     4  11  26  44  68  99 142 176 229 287 360 414
#     4  10  25  45  66  98 138 179 225 291 343 420
#     4  10  25  41  70  94 133 186 238 270 353 420
#     4  11  23  41  67 102 136 176 228 296 333 413
#
# _framework density 24.494596999999999
#
# number of rings (size 3 to 8) (size 9 to 14) (size 15 to 20)
#    0.000    1.600    1.333    0.800   13.067    5.333 
#    0.000    1.333    0.000    0.000    0.000    0.000 
#    0.000    0.000    0.000    0.000    0.000    0.000 
#
# Total GULP energy -167062.328313 kJ/mol
# GULP energy per Si atom -5568.744277 kJ/mol
# Density = 2.443885 g / cm^3
# Si number density = 24.494597 Si / 1000 Ang^3
#
#
#
# Elastic Constant Matrix: (Units=GPa)
#
#
# Indices 1 2 3 4 5 6 
#
# 1 123.9757 52.0531 2.7634 0.0000 0.0000 0.0000
# 2 52.0531 157.8247 14.9948 0.0000 0.0000 0.0000
# 3 2.7634 14.9948 52.1963 0.0000 0.0000 0.0000
# 4 0.0000 0.0000 0.0000 37.7074 0.0000 0.0000
# 5 0.0000 0.0000 0.0000 0.0000 14.5722 0.0000
# 6 0.0000 0.0000 0.0000 0.0000 0.0000 40.6408
#
#
#
# Elastic Compliance Matrix: (Units=1/GPa)
#
#
# Indices 1 2 3 4 5 6 
#
# 1 0.009371 -0.003129 0.000403 0.000000 0.000000 0.000000
# 2 -0.003129 0.007559 -0.002006 0.000000 0.000000 0.000000
# 3 0.000403 -0.002006 0.019713 0.000000 0.000000 0.000000
# 4 0.000000 0.000000 0.000000 0.026520 0.000000 0.000000
# 5 0.000000 0.000000 0.000000 0.000000 0.068624 0.000000
# 6 0.000000 0.000000 0.000000 0.000000 0.000000 0.024606
#
#
# Mechanical properties :
#
#
# Convention : Reuss Voigt Hill
#
# Bulk Modulus (GPa) = 36.79318 52.62438 44.70878
# Shear Modulus (GPa) = 28.58513 36.19644 32.39078
#
# Velocity S-wave (km/s) = 3.41984 3.84830 3.64038
# Velocity P-wave (km/s) = 5.53600 6.42469 5.99683
#
# Compressibility (1/GPa) = 0.02717895
#
# Stress axis : x y z
#
# Youngs Moduli (GPa) = 106.71397 132.29828 50.72708
#
# Poissons Ratio (x) = 0.41395 -0.02043
# Poissons Ratio (y) = 0.33390 0.10175
# Poissons Ratio (z) = -0.04298 0.26536
#
# Static dielectric constant tensor:
#      x y z
#    x 2.081390 0.000000 0.000000 
#    y 0.000000 2.052950 0.000000 
#    z 0.000000 0.000000 2.100830 
# 
# From -- ./inp_files/15086.got.cif
#   From: 2010.05.17/outbox.cif.g08.bks.cpg/sg43_8_cif.got.tgz:15086.got - 2010.06.03 19:21:55.
