data_PCOD9372314
_publ_section_title
;
Structure prediction by ZEFSAII (Michael W. Deem and Ramdas Pophale) SiO2 
 PCOD9372314
Probable space group: F D D 2
;
_chemical_formula_sum "Si O2"
_cell_formula_units_Z 56
_cell_length_a 17.523284
_cell_length_b 17.588187
_cell_length_c 7.415382
_cell_angle_alpha 90.000000
_cell_angle_beta 90.000000
_cell_angle_gamma 90.000000
_cell_volume 2285.441465
_symmetry_space_group_name_H-M "F D D 2"
_symmetry_group_IT_number 43
_symmetry_cell_setting 'orthorhombic'
loop_
_space_group_symop_operation_xyz
x,y,z
-x,-y,z
1/4-x,1/4+y,1/4+z
1/4+x,1/4-y,1/4+z
x,1/2+y,1/2+z
-x,1/2-y,1/2+z
1/4-x,3/4+y,3/4+z
1/4+x,3/4-y,3/4+z
1/2+x,y,1/2+z
1/2-x,-y,1/2+z
3/4-x,1/4+y,3/4+z
3/4+x,1/4-y,3/4+z
1/2+x,1/2+y,z
1/2-x,1/2-y,z
3/4-x,3/4+y,1/4+z
3/4+x,3/4-y,1/4+z
loop_
_atom_site_type_symbol
_atom_site_label
_atom_site_fract_x
_atom_site_fract_y
_atom_site_fract_z
Si Si1 0.695278 0.403009 0.227620
Si Si2 0.975163 0.792221 0.847447
Si Si3 0.612262 0.897662 0.365455
Si Si4 0.500000 0.000000 0.154274
O O1 0.676732 0.444494 0.417063
O O2 0.764373 0.455066 0.150369
O O3 0.721631 0.319547 0.283389
O O4 0.631266 0.400615 0.075495
O O5 0.060620 0.824893 0.817923
O O6 0.940499 0.844708 0.004120
O O7 0.565501 0.968448 0.285205
#
# Coordination Sequence:
#
# PCOD9372314 Si02
#       4
#    16  16  16   8
#     4  11  25  50  76 111 157 205 259 339 398 480
#     4  11  26  48  79 113 157 201 274 323 409 476
#     4  11  27  49  75 116 153 210 263 339 397 485
#     4  10  28  48  80 114 160 206 280 318 424 482
#
# _framework density 24.502922999999999
#
# number of rings (size 3 to 8) (size 9 to 14) (size 15 to 20)
#    0.000    1.143    2.857    0.000   12.000    4.571 
#    0.000    1.429    0.000    0.000    0.000    0.000 
#    0.000    0.000    0.000    0.000    0.000    0.000 
#
# Total GULP energy -78411.434366 kJ/mol
# GULP energy per Si atom -5600.816740 kJ/mol
# Density = 2.444715 g / cm^3
# Si number density = 24.502923 Si / 1000 Ang^3
#
#
#
# Elastic Constant Matrix: (Units=GPa)
#
#
# Indices 1 2 3 4 5 6 
#
# 1 75.6418 43.7430 42.8615 -0.0003 0.0003 0.0003
# 2 43.7430 167.6024 73.8268 -0.0003 0.0003 0.0003
# 3 42.8615 73.8268 186.8436 -0.0013 0.0014 0.0012
# 4 -0.0003 -0.0003 -0.0013 48.0228 0.0008 0.0007
# 5 0.0003 0.0003 0.0014 0.0008 49.1530 -0.0008
# 6 0.0003 0.0003 0.0012 0.0007 -0.0008 28.7574
#
#
#
# Elastic Compliance Matrix: (Units=1/GPa)
#
#
# Indices 1 2 3 4 5 6 
#
# 1 0.016497 -0.003195 -0.002522 0.000000 0.000000 0.000000
# 2 -0.003195 0.007842 -0.002366 0.000000 0.000000 0.000000
# 3 -0.002522 -0.002366 0.006865 0.000000 0.000000 0.000000
# 4 0.000000 0.000000 0.000000 0.020823 0.000000 -0.000001
# 5 0.000000 0.000000 0.000000 0.000000 0.020345 0.000001
# 6 0.000000 0.000000 0.000000 -0.000001 0.000001 0.034774
#
#
# Mechanical properties :
#
#
# Convention : Reuss Voigt Hill
#
# Bulk Modulus (GPa) = 66.49162 83.43893 74.96527
# Shear Modulus (GPa) = 38.96369 43.16372 41.06371
#
# Velocity S-wave (km/s) = 3.99201 4.20166 4.09818
# Velocity P-wave (km/s) = 6.96012 7.59376 7.28384
#
# Compressibility (1/GPa) = 0.01503949
#
# Stress axis : x y z
#
# Youngs Moduli (GPa) = 60.61819 127.51153 145.65681
#
# Poissons Ratio (x) = 0.40735 0.36735
# Poissons Ratio (y) = 0.19365 0.34461
# Poissons Ratio (z) = 0.15288 0.30168
#
# Static dielectric constant tensor:
#      x y z
#    x 2.084430 0.000000 0.000000 
#    y 0.000000 1.919000 0.000000 
#    z 0.000000 0.000000 1.942790 
# 
# From -- ./inp_files/2161.got.cif
#   From: 2010.05.17/outbox.cif.g08.bks.cpg/sg43_2_cif.got.tgz:2161.got - 2010.06.03 19:21:55.
