data_PCOD9372756
_publ_section_title
;
Structure prediction by ZEFSAII (Michael W. Deem and Ramdas Pophale) SiO2 
 PCOD9372756
Probable space group: F D D 2
;
_chemical_formula_sum "Si O2"
_cell_formula_units_Z 56
_cell_length_a 12.653608
_cell_length_b 9.284032
_cell_length_c 16.361723
_cell_angle_alpha 90.000000
_cell_angle_beta 90.000000
_cell_angle_gamma 90.000000
_cell_volume 1922.117978
_symmetry_space_group_name_H-M "F D D 2"
_symmetry_group_IT_number 43
_symmetry_cell_setting 'orthorhombic'
loop_
_space_group_symop_operation_xyz
x,y,z
-x,-y,z
1/4-x,1/4+y,1/4+z
1/4+x,1/4-y,1/4+z
x,1/2+y,1/2+z
-x,1/2-y,1/2+z
1/4-x,3/4+y,3/4+z
1/4+x,3/4-y,3/4+z
1/2+x,y,1/2+z
1/2-x,-y,1/2+z
3/4-x,1/4+y,3/4+z
3/4+x,1/4-y,3/4+z
1/2+x,1/2+y,z
1/2-x,1/2-y,z
3/4-x,3/4+y,1/4+z
3/4+x,3/4-y,1/4+z
loop_
_atom_site_type_symbol
_atom_site_label
_atom_site_fract_x
_atom_site_fract_y
_atom_site_fract_z
Si Si1 0.250000 0.250000 0.641701
Si Si2 0.335635 0.447412 0.267323
Si Si3 0.616783 0.837613 0.208220
Si Si4 0.107520 0.710043 0.278588
O O1 0.336209 0.155097 0.593056
O O2 0.179636 0.157199 0.703374
O O3 0.371906 0.336792 0.197103
O O4 0.537167 0.148931 0.514754
O O5 0.627756 0.384164 0.270820
O O6 0.506731 0.845453 0.254913
O O7 0.612362 0.906285 0.118132
#
# Coordination Sequence:
#
# PCOD9372756 Si02
#       4
#     8  16  16  16
#     4  12  28  54  94 126 202 252 318 414 512 568
#     4  11  26  58  90 136 194 260 315 418 497 603
#     4  11  28  57  97 138 190 256 340 392 522 593
#     4  12  28  58  91 140 190 258 326 423 485 611
#
# _framework density 29.134526999999999
#
# number of rings (size 3 to 8) (size 9 to 14) (size 15 to 20)
#    0.000    0.571    2.857    1.714    4.000    4.571 
#   15.429    0.000    0.000    3.429    0.000    0.000 
#    0.000    0.000    0.000    0.000    0.000    0.000 
#
# Total GULP energy -78152.287695 kJ/mol
# GULP energy per Si atom -5582.306264 kJ/mol
# Density = 2.906822 g / cm^3
# Si number density = 29.134527 Si / 1000 Ang^3
#
#
#
# Elastic Constant Matrix: (Units=GPa)
#
#
# Indices 1 2 3 4 5 6 
#
# 1 285.7755 54.9837 108.2512 0.0000 0.0000 0.0000
# 2 54.9837 264.7493 104.0743 0.0000 0.0000 0.0000
# 3 108.2512 104.0743 228.8427 0.0000 0.0000 0.0000
# 4 0.0000 0.0000 0.0000 40.3903 0.0000 0.0000
# 5 0.0000 0.0000 0.0000 0.0000 39.7511 0.0000
# 6 0.0000 0.0000 0.0000 0.0000 0.0000 37.8205
#
#
#
# Elastic Compliance Matrix: (Units=1/GPa)
#
#
# Indices 1 2 3 4 5 6 
#
# 1 0.004266 -0.000113 -0.001967 0.000000 0.000000 0.000000
# 2 -0.000113 0.004602 -0.002040 0.000000 0.000000 0.000000
# 3 -0.001967 -0.002040 0.006228 0.000000 0.000000 0.000000
# 4 0.000000 0.000000 0.000000 0.024758 0.000000 0.000000
# 5 0.000000 0.000000 0.000000 0.000000 0.025157 0.000000
# 6 0.000000 0.000000 0.000000 0.000000 0.000000 0.026441
#
#
# Mechanical properties :
#
#
# Convention : Reuss Voigt Hill
#
# Bulk Modulus (GPa) = 145.82218 145.99844 145.91031
# Shear Modulus (GPa) = 49.03114 57.72959 53.38037
#
# Velocity S-wave (km/s) = 4.10679 4.45622 4.28507
# Velocity P-wave (km/s) = 8.52336 8.75773 8.64134
#
# Compressibility (1/GPa) = 0.00685767
#
# Stress axis : x y z
#
# Youngs Moduli (GPa) = 234.41646 217.27674 160.57227
#
# Poissons Ratio (x) = 0.02452 0.31578
# Poissons Ratio (y) = 0.02646 0.32752
# Poissons Ratio (z) = 0.46100 0.44318
#
# Static dielectric constant tensor:
#      x y z
#    x 2.482870 0.000000 0.000000 
#    y 0.000000 2.809070 0.000000 
#    z 0.000000 0.000000 2.362540 
# 
# From -- ./inp_files/9342.got.cif
#   From: 2010.05.17/outbox.cif.g08.bks.cpg/sg43_5_cif.got.tgz:9342.got - 2010.06.03 19:21:55.
