data_PCOD9372731
_publ_section_title
;
Structure prediction by ZEFSAII (Michael W. Deem and Ramdas Pophale) SiO2 
 PCOD9372731
Probable space group: F D D 2
;
_chemical_formula_sum "Si O2"
_cell_formula_units_Z 72
_cell_length_a 8.293007
_cell_length_b 26.106242
_cell_length_c 11.423275
_cell_angle_alpha 90.000000
_cell_angle_beta 90.000000
_cell_angle_gamma 90.000000
_cell_volume 2473.130443
_symmetry_space_group_name_H-M "F D D 2"
_symmetry_group_IT_number 43
_symmetry_cell_setting 'orthorhombic'
loop_
_space_group_symop_operation_xyz
x,y,z
-x,-y,z
1/4-x,1/4+y,1/4+z
1/4+x,1/4-y,1/4+z
x,1/2+y,1/2+z
-x,1/2-y,1/2+z
1/4-x,3/4+y,3/4+z
1/4+x,3/4-y,3/4+z
1/2+x,y,1/2+z
1/2-x,-y,1/2+z
3/4-x,1/4+y,3/4+z
3/4+x,1/4-y,3/4+z
1/2+x,1/2+y,z
1/2-x,1/2-y,z
3/4-x,3/4+y,1/4+z
3/4+x,3/4-y,1/4+z
loop_
_atom_site_type_symbol
_atom_site_label
_atom_site_fract_x
_atom_site_fract_y
_atom_site_fract_z
Si Si1 0.528016 0.443747 0.347280
Si Si2 0.836786 0.030183 0.103093
Si Si3 0.725944 0.866594 0.001077
Si Si4 0.703204 0.125064 0.726976
Si Si5 0.000000 0.500000 0.165374
O O1 0.500000 0.500000 0.395656
O O2 0.595468 0.401917 0.435494
O O3 0.644521 0.450626 0.236078
O O4 0.363768 0.425856 0.286626
O O5 0.839926 0.078222 0.017555
O O6 0.672751 0.998485 0.099763
O O7 0.000000 0.000000 0.073487
O O8 0.885572 0.883830 0.084732
O O9 0.737382 0.804703 0.982217
O O10 0.884717 0.880399 0.890843
#
# Coordination Sequence:
#
# PCOD9372731 Si02
#       5
#    16  16  16  16   8
#     4  11  25  55  84 121 179 236 291 376 450 536
#     4  11  25  53  84 120 172 226 295 378 453 528
#     4  12  27  48  83 125 171 231 292 359 456 544
#     4  12  26  50  80 125 175 221 291 377 445 531
#     4  12  26  50  86 122 162 232 300 350 450 560
#
# _framework density 29.112901000000001
#
# number of rings (size 3 to 8) (size 9 to 14) (size 15 to 20)
#    0.000    0.444    4.444    4.000    1.556    0.000 
#    2.000    0.000    2.444    0.000    0.000    0.000 
#    0.000    0.000    0.000    0.000    0.000    0.000 
#
# Total GULP energy -100801.710061 kJ/mol
# GULP energy per Si atom -5600.095003 kJ/mol
# Density = 2.904664 g / cm^3
# Si number density = 29.112901 Si / 1000 Ang^3
#
#
#
# Elastic Constant Matrix: (Units=GPa)
#
#
# Indices 1 2 3 4 5 6 
#
# 1 195.4048 58.2585 63.7098 0.0000 0.0000 0.0000
# 2 58.2585 240.2160 94.6442 0.0000 0.0000 0.0000
# 3 63.7098 94.6442 245.7053 0.0000 0.0000 0.0000
# 4 0.0000 0.0000 0.0000 28.9533 0.0000 0.0000
# 5 0.0000 0.0000 0.0000 0.0000 50.2634 0.0000
# 6 0.0000 0.0000 0.0000 0.0000 0.0000 68.5795
#
#
#
# Elastic Compliance Matrix: (Units=1/GPa)
#
#
# Indices 1 2 3 4 5 6 
#
# 1 0.005770 -0.000955 -0.001128 0.000000 0.000000 0.000000
# 2 -0.000955 0.005066 -0.001704 0.000000 0.000000 0.000000
# 3 -0.001128 -0.001704 0.005019 0.000000 0.000000 0.000000
# 4 0.000000 0.000000 0.000000 0.034538 0.000000 0.000000
# 5 0.000000 0.000000 0.000000 0.000000 0.019895 0.000000
# 6 0.000000 0.000000 0.000000 0.000000 0.000000 0.014582
#
#
# Mechanical properties :
#
#
# Convention : Reuss Voigt Hill
#
# Bulk Modulus (GPa) = 120.76093 123.83901 122.29997
# Shear Modulus (GPa) = 52.51884 60.54014 56.52949
#
# Velocity S-wave (km/s) = 4.25193 4.56510 4.41129
# Velocity P-wave (km/s) = 8.10404 8.39146 8.24900
#
# Compressibility (1/GPa) = 0.00828082
#
# Stress axis : x y z
#
# Youngs Moduli (GPa) = 173.30567 197.40412 199.25259
#
# Poissons Ratio (x) = 0.18849 0.22483
# Poissons Ratio (y) = 0.16548 0.33947
# Poissons Ratio (z) = 0.19555 0.33632
#
# Static dielectric constant tensor:
#      x y z
#    x 2.536470 0.000000 0.000000 
#    y 0.000000 2.149740 0.000000 
#    z 0.000000 0.000000 2.760140 
# 
# From -- ./inp_files/16267.got.cif
#   From: 2010.05.17/outbox.cif.g08.bks.cpg/sg43_9_cif.got.tgz:16267.got - 2010.06.03 19:21:55.
