data_PCOD9372924
_publ_section_title
;
Structure prediction by ZEFSAII (Michael W. Deem and Ramdas Pophale) SiO2 
 PCOD9372924
Probable space group: F D D 2
;
_chemical_formula_sum "Si O2"
_cell_formula_units_Z 48
_cell_length_a 11.050240
_cell_length_b 11.893611
_cell_length_c 13.713452
_cell_angle_alpha 90.000000
_cell_angle_beta 90.000000
_cell_angle_gamma 90.000000
_cell_volume 1802.321367
_symmetry_space_group_name_H-M "F D D 2"
_symmetry_group_IT_number 43
_symmetry_cell_setting 'orthorhombic'
loop_
_space_group_symop_operation_xyz
x,y,z
-x,-y,z
1/4-x,1/4+y,1/4+z
1/4+x,1/4-y,1/4+z
x,1/2+y,1/2+z
-x,1/2-y,1/2+z
1/4-x,3/4+y,3/4+z
1/4+x,3/4-y,3/4+z
1/2+x,y,1/2+z
1/2-x,-y,1/2+z
3/4-x,1/4+y,3/4+z
3/4+x,1/4-y,3/4+z
1/2+x,1/2+y,z
1/2-x,1/2-y,z
3/4-x,3/4+y,1/4+z
3/4+x,3/4-y,1/4+z
loop_
_atom_site_type_symbol
_atom_site_label
_atom_site_fract_x
_atom_site_fract_y
_atom_site_fract_z
Si Si1 0.632167 0.950308 0.963270
Si Si2 0.322049 0.635788 0.882291
Si Si3 0.830363 0.043239 0.678524
O O1 0.626429 0.832521 0.907644
O O2 0.500000 0.000000 0.943309
O O3 0.736221 0.040930 0.933212
O O4 0.635430 0.906609 0.074864
O O5 0.250000 0.750000 0.862124
O O6 0.376150 0.591666 0.779942
O O7 0.437192 0.680811 0.942872
#
# Coordination Sequence:
#
# PCOD9372924 Si02
#       3
#    16  16  16
#     4  12  28  53  82 123 168 219 278 347 417 498
#     4  12  28  53  82 123 168 219 278 347 417 498
#     4  12  30  50  82 122 166 216 280 344 416 502
#
# _framework density 26.632321000000001
#
# number of rings (size 3 to 8) (size 9 to 14) (size 15 to 20)
#    0.000    0.000    3.333    4.000   14.000    0.000 
#    0.000    0.000    0.000    0.000    0.000    0.000 
#    0.000    0.000    0.000    0.000    0.000    0.000 
#
# Total GULP energy -67120.587379 kJ/mol
# GULP energy per Si atom -5593.382282 kJ/mol
# Density = 2.657170 g / cm^3
# Si number density = 26.632321 Si / 1000 Ang^3
#
#
#
# Elastic Constant Matrix: (Units=GPa)
#
#
# Indices 1 2 3 4 5 6 
#
# 1 147.4258 79.9540 13.8656 0.0000 0.0000 0.0000
# 2 79.9540 174.7997 29.3200 0.0000 0.0000 0.0000
# 3 13.8656 29.3200 81.3861 0.0000 0.0000 0.0000
# 4 0.0000 0.0000 0.0000 44.9594 0.0000 0.0000
# 5 0.0000 0.0000 0.0000 0.0000 40.9358 0.0000
# 6 0.0000 0.0000 0.0000 0.0000 0.0000 62.9454
#
#
#
# Elastic Compliance Matrix: (Units=1/GPa)
#
#
# Indices 1 2 3 4 5 6 
#
# 1 0.009021 -0.004117 -0.000054 0.000000 0.000000 0.000000
# 2 -0.004117 0.007968 -0.002169 0.000000 0.000000 0.000000
# 3 -0.000054 -0.002169 0.013078 0.000000 0.000000 0.000000
# 4 0.000000 0.000000 0.000000 0.022242 0.000000 0.000000
# 5 0.000000 0.000000 0.000000 0.000000 0.024428 0.000000
# 6 0.000000 0.000000 0.000000 0.000000 0.000000 0.015887
#
#
# Mechanical properties :
#
#
# Convention : Reuss Voigt Hill
#
# Bulk Modulus (GPa) = 57.51509 72.21008 64.86259
# Shear Modulus (GPa) = 45.00465 48.46626 46.73546
#
# Velocity S-wave (km/s) = 4.11524 4.27057 4.19363
# Velocity P-wave (km/s) = 6.65005 7.17563 6.91783
#
# Compressibility (1/GPa) = 0.01738674
#
# Stress axis : x y z
#
# Youngs Moduli (GPa) = 110.85185 125.50343 76.46629
#
# Poissons Ratio (x) = 0.51673 0.00410
# Poissons Ratio (y) = 0.45641 0.16586
# Poissons Ratio (z) = 0.00594 0.27222
#
# Static dielectric constant tensor:
#      x y z
#    x 2.209270 0.000000 0.000000 
#    y 0.000000 2.038980 0.000000 
#    z 0.000000 0.000000 2.073800 
# 
# From -- ./inp_files/13066.got.cif
#   From: 2010.05.17/outbox.cif.g08.bks.cpg/sg43_7_cif.got.tgz:13066.got - 2010.06.03 19:21:55.
