data_PCOD9372584
_publ_section_title
;
Structure prediction by ZEFSAII (Michael W. Deem and Ramdas Pophale) SiO2 
 PCOD9372584
Probable space group: F D D 2
;
_chemical_formula_sum "Si O2"
_cell_formula_units_Z 80
_cell_length_a 9.321489
_cell_length_b 26.348389
_cell_length_c 11.174329
_cell_angle_alpha 90.000000
_cell_angle_beta 90.000000
_cell_angle_gamma 90.000000
_cell_volume 2744.484687
_symmetry_space_group_name_H-M "F D D 2"
_symmetry_group_IT_number 43
_symmetry_cell_setting 'orthorhombic'
loop_
_space_group_symop_operation_xyz
x,y,z
-x,-y,z
1/4-x,1/4+y,1/4+z
1/4+x,1/4-y,1/4+z
x,1/2+y,1/2+z
-x,1/2-y,1/2+z
1/4-x,3/4+y,3/4+z
1/4+x,3/4-y,3/4+z
1/2+x,y,1/2+z
1/2-x,-y,1/2+z
3/4-x,1/4+y,3/4+z
3/4+x,1/4-y,3/4+z
1/2+x,1/2+y,z
1/2-x,1/2-y,z
3/4-x,3/4+y,1/4+z
3/4+x,3/4-y,1/4+z
loop_
_atom_site_type_symbol
_atom_site_label
_atom_site_fract_x
_atom_site_fract_y
_atom_site_fract_z
Si Si1 0.492872 0.924255 0.032830
Si Si2 0.418583 0.691049 0.761105
Si Si3 0.028863 0.274164 0.605767
Si Si4 0.190595 0.620454 0.732225
Si Si5 0.264611 0.568137 0.181987
O O1 0.661347 0.932235 0.024951
O O2 0.401039 0.941815 0.146276
O O3 0.418964 0.954715 0.924027
O O4 0.462775 0.864580 0.021548
O O5 0.425010 0.746387 0.701913
O O6 0.312915 0.657254 0.681316
O O7 0.365196 0.669357 0.890334
O O8 0.059656 0.233143 0.500545
O O9 0.969982 0.327237 0.556243
O O10 0.085230 0.655251 0.813177
#
# Coordination Sequence:
#
# PCOD9372584 Si02
#       5
#    16  16  16  16  16
#     4  11  24  45  74 109 145 198 254 310 383 464
#     4  12  25  45  73 107 150 191 250 322 384 456
#     4  11  25  46  77 108 148 209 258 306 383 470
#     4  11  26  47  72 111 151 194 254 320 385 460
#     4  11  23  47  77 105 151 200 256 316 379 466
#
# _framework density 29.149372
#
# number of rings (size 3 to 8) (size 9 to 14) (size 15 to 20)
#    0.000    0.800    0.000    7.800    0.000    4.800 
#    0.000   23.000    0.000    0.000    0.000    0.000 
#    0.000    0.000    0.000    0.000    0.000    0.000 
#
# Total GULP energy -111809.778176 kJ/mol
# GULP energy per Si atom -5590.488909 kJ/mol
# Density = 2.908303 g / cm^3
# Si number density = 29.149372 Si / 1000 Ang^3
#
#
#
# Elastic Constant Matrix: (Units=GPa)
#
#
# Indices 1 2 3 4 5 6 
#
# 1 136.9301 23.1567 16.9603 0.0000 0.0000 0.0000
# 2 23.1567 255.1656 31.3576 0.0000 0.0000 0.0000
# 3 16.9603 31.3576 122.5717 0.0000 0.0000 0.0000
# 4 0.0000 0.0000 0.0000 71.7517 0.0000 0.0000
# 5 0.0000 0.0000 0.0000 0.0000 35.4443 0.0000
# 6 0.0000 0.0000 0.0000 0.0000 0.0000 50.3770
#
#
#
# Elastic Compliance Matrix: (Units=1/GPa)
#
#
# Indices 1 2 3 4 5 6 
#
# 1 0.007510 -0.000572 -0.000893 0.000000 0.000000 0.000000
# 2 -0.000572 0.004090 -0.000967 0.000000 0.000000 0.000000
# 3 -0.000893 -0.000967 0.008529 0.000000 0.000000 0.000000
# 4 0.000000 0.000000 0.000000 0.013937 0.000000 0.000000
# 5 0.000000 0.000000 0.000000 0.000000 0.028213 0.000000
# 6 0.000000 0.000000 0.000000 0.000000 0.000000 0.019850
#
#
# Mechanical properties :
#
#
# Convention : Reuss Voigt Hill
#
# Bulk Modulus (GPa) = 65.50627 73.06853 69.28740
# Shear Modulus (GPa) = 54.29913 61.06078 57.67995
#
# Velocity S-wave (km/s) = 4.32069 4.58181 4.45316
# Velocity P-wave (km/s) = 6.88567 7.28780 7.08959
#
# Compressibility (1/GPa) = 0.01526571
#
# Stress axis : x y z
#
# Youngs Moduli (GPa) = 133.15048 244.51225 117.24050
#
# Poissons Ratio (x) = 0.13982 0.10469
# Poissons Ratio (y) = 0.07614 0.11339
# Poissons Ratio (z) = 0.11889 0.23648
#
# Static dielectric constant tensor:
#      x y z
#    x 2.278140 0.000000 0.000000 
#    y 0.000000 2.186260 0.000000 
#    z 0.000000 0.000000 2.723530 
# 
# From -- ./inp_files/5704.got.cif
#   From: 2010.05.17/outbox.cif.g08.bks.cpg/sg43_3_cif.got.tgz:5704.got - 2010.06.03 19:21:55.
