data_PCOD9372643
_publ_section_title
;
Structure prediction by ZEFSAII (Michael W. Deem and Ramdas Pophale) SiO2 
 PCOD9372643
Probable space group: F D D 2
;
_chemical_formula_sum "Si O2"
_cell_formula_units_Z 120
_cell_length_a 24.959841
_cell_length_b 21.682232
_cell_length_c 8.901599
_cell_angle_alpha 90.000000
_cell_angle_beta 90.000000
_cell_angle_gamma 90.000000
_cell_volume 4817.412418
_symmetry_space_group_name_H-M "F D D 2"
_symmetry_group_IT_number 43
_symmetry_cell_setting 'orthorhombic'
loop_
_space_group_symop_operation_xyz
x,y,z
-x,-y,z
1/4-x,1/4+y,1/4+z
1/4+x,1/4-y,1/4+z
x,1/2+y,1/2+z
-x,1/2-y,1/2+z
1/4-x,3/4+y,3/4+z
1/4+x,3/4-y,3/4+z
1/2+x,y,1/2+z
1/2-x,-y,1/2+z
3/4-x,1/4+y,3/4+z
3/4+x,1/4-y,3/4+z
1/2+x,1/2+y,z
1/2-x,1/2-y,z
3/4-x,3/4+y,1/4+z
3/4+x,3/4-y,1/4+z
loop_
_atom_site_type_symbol
_atom_site_label
_atom_site_fract_x
_atom_site_fract_y
_atom_site_fract_z
Si Si1 0.781130 0.087921 0.648550
Si Si2 0.250000 0.250000 0.450684
Si Si3 0.302100 0.844126 0.164403
Si Si4 0.581570 0.292170 0.779041
Si Si5 0.716637 0.330768 0.392867
Si Si6 0.344461 0.079696 0.716259
Si Si7 0.601119 0.275172 0.430547
Si Si8 0.425092 0.899772 0.659424
O O1 0.728037 0.061568 0.573530
O O2 0.784975 0.154302 0.567868
O O3 0.784173 0.102887 0.826252
O O4 0.828026 0.038648 0.619232
O O5 0.262417 0.309910 0.550786
O O6 0.301908 0.219544 0.377779
O O7 0.275574 0.818911 0.321295
O O8 0.310333 0.917578 0.150177
O O9 0.358487 0.825288 0.089414
O O10 0.590212 0.235445 0.889920
O O11 0.596546 0.272355 0.611127
O O12 0.619913 0.349712 0.816169
O O13 0.705284 0.395887 0.310992
O O14 0.660830 0.292695 0.370611
O O15 0.343602 0.128716 0.575842
#
# Coordination Sequence:
#
# PCOD9372643 Si02
#       8
#    16   8  16  16  16  16  16  16
#     4  12  27  45  80 114 162 204 271 331 399 479
#     4  12  26  48  74 104 156 206 264 322 398 488
#     4  11  24  47  71 112 148 198 259 317 395 472
#     4  12  25  45  75 113 154 212 261 328 398 471
#     4  11  24  46  74 111 155 202 255 329 401 464
#     4  11  25  44  76 105 154 197 265 323 395 473
#     4  11  25  47  75 112 161 203 269 329 398 476
#     4  12  27  48  75 113 152 212 260 337 400 474
#
# _framework density 24.909638999999999
#
# number of rings (size 3 to 8) (size 9 to 14) (size 15 to 20)
#    0.000    0.533    6.667    0.800    1.867    4.267 
#    0.000    0.667    0.000    0.000    0.000    0.000 
#    0.000    0.000    0.000    0.000    0.000    0.000 
#
# Total GULP energy -167062.652481 kJ/mol
# GULP energy per Si atom -5568.755083 kJ/mol
# Density = 2.485294 g / cm^3
# Si number density = 24.909639 Si / 1000 Ang^3
#
#
#
# Elastic Constant Matrix: (Units=GPa)
#
#
# Indices 1 2 3 4 5 6 
#
# 1 137.5822 50.5391 56.4973 0.0002 -0.0001 0.0000
# 2 50.5391 61.8719 19.9985 -0.0001 0.0003 0.0001
# 3 56.4973 19.9985 127.7467 -0.0005 0.0013 0.0000
# 4 0.0002 -0.0001 -0.0005 40.2858 0.0005 0.0000
# 5 -0.0001 0.0003 0.0013 0.0005 31.7546 -0.0001
# 6 0.0000 0.0001 0.0000 0.0000 -0.0001 36.3062
#
#
#
# Elastic Compliance Matrix: (Units=1/GPa)
#
#
# Indices 1 2 3 4 5 6 
#
# 1 0.012048 -0.008552 -0.003990 0.000000 0.000000 0.000000
# 2 -0.008552 0.023094 0.000167 0.000000 0.000000 0.000000
# 3 -0.003990 0.000167 0.009566 0.000000 0.000000 0.000000
# 4 0.000000 0.000000 0.000000 0.024823 0.000000 0.000000
# 5 0.000000 0.000000 0.000000 0.000000 0.031492 0.000000
# 6 0.000000 0.000000 0.000000 0.000000 0.000000 0.027544
#
#
# Mechanical properties :
#
#
# Convention : Reuss Voigt Hill
#
# Bulk Modulus (GPa) = 50.10238 64.58564 57.34401
# Shear Modulus (GPa) = 31.25622 35.01371 33.13497
#
# Velocity S-wave (km/s) = 3.54614 3.75324 3.65116
# Velocity P-wave (km/s) = 6.07652 6.69079 6.39104
#
# Compressibility (1/GPa) = 0.01995913
#
# Stress axis : x y z
#
# Youngs Moduli (GPa) = 83.00083 43.30149 104.53330
#
# Poissons Ratio (x) = 0.37030 0.41705
# Poissons Ratio (y) = 0.70980 -0.01743
# Poissons Ratio (z) = 0.33114 -0.00722
#
# Static dielectric constant tensor:
#      x y z
#    x 2.171960 0.000000 0.000000 
#    y 0.000000 2.078360 0.000000 
#    z 0.000000 0.000000 2.008610 
# 
# From -- ./inp_files/4329.got.cif
#   From: 2010.05.17/outbox.cif.g08.bks.cpg/sg43_3_cif.got.tgz:4329.got - 2010.06.03 19:21:55.
