data_PCOD9372184
_publ_section_title
;
Structure prediction by ZEFSAII (Michael W. Deem and Ramdas Pophale) SiO2 
 PCOD9372184
Probable space group: F D D 2
;
_chemical_formula_sum "Si O2"
_cell_formula_units_Z 88
_cell_length_a 23.344811
_cell_length_b 10.512039
_cell_length_c 16.083157
_cell_angle_alpha 90.000000
_cell_angle_beta 90.000000
_cell_angle_gamma 90.000000
_cell_volume 3946.831877
_symmetry_space_group_name_H-M "F D D 2"
_symmetry_group_IT_number 43
_symmetry_cell_setting 'orthorhombic'
loop_
_space_group_symop_operation_xyz
x,y,z
-x,-y,z
1/4-x,1/4+y,1/4+z
1/4+x,1/4-y,1/4+z
x,1/2+y,1/2+z
-x,1/2-y,1/2+z
1/4-x,3/4+y,3/4+z
1/4+x,3/4-y,3/4+z
1/2+x,y,1/2+z
1/2-x,-y,1/2+z
3/4-x,1/4+y,3/4+z
3/4+x,1/4-y,3/4+z
1/2+x,1/2+y,z
1/2-x,1/2-y,z
3/4-x,3/4+y,1/4+z
3/4+x,3/4-y,1/4+z
loop_
_atom_site_type_symbol
_atom_site_label
_atom_site_fract_x
_atom_site_fract_y
_atom_site_fract_z
Si Si1 0.062181 0.151062 0.248550
Si Si2 0.750000 0.250000 0.139842
Si Si3 0.661777 0.194414 0.538910
Si Si4 0.787573 0.936587 0.767663
Si Si5 0.186345 0.627490 0.722412
Si Si6 0.750000 0.750000 0.911169
Si Si7 0.500000 0.000000 0.614403
O O1 0.077575 0.298871 0.259299
O O2 0.121760 0.077186 0.231410
O O3 0.033261 0.097701 0.331151
O O4 0.019426 0.114201 0.174026
O O5 0.793613 0.326057 0.198793
O O6 0.596535 0.240420 0.534009
O O7 0.684850 0.198711 0.633663
O O8 0.698064 0.278209 0.474138
O O9 0.766252 0.864997 0.850268
O O10 0.737492 0.026902 0.731767
O O11 0.198814 0.715143 0.802282
#
# Coordination Sequence:
#
# PCOD9372184 Si02
#       7
#    16   8  16  16  16   8   8
#     4  11  24  45  73 106 144 191 251 291 367 444
#     4  10  24  50  70 108 146 198 244 304 362 450
#     4  12  25  46  73 106 146 191 242 306 369 437
#     4  11  26  47  72 109 149 192 248 302 374 437
#     4  12  22  41  73 103 145 189 234 303 362 433
#     4  11  27  47  71 108 146 192 251 299 369 449
#     4  11  25  41  69 106 142 188 241 297 355 435
#
# _framework density 22.296364000000001
#
# number of rings (size 3 to 8) (size 9 to 14) (size 15 to 20)
#    0.000    0.727    1.818    6.000    2.545    1.455 
#    0.000    0.000    0.000    0.000    0.000    0.000 
#    0.000    0.000    0.000    0.000    0.000    0.000 
#
# Total GULP energy -123040.613353 kJ/mol
# GULP energy per Si atom -5592.755152 kJ/mol
# Density = 2.224562 g / cm^3
# Si number density = 22.296364 Si / 1000 Ang^3
#
#
#
# Elastic Constant Matrix: (Units=GPa)
#
#
# Indices 1 2 3 4 5 6 
#
# 1 139.2957 49.3742 78.0146 0.0000 0.0000 0.0000
# 2 49.3742 105.3139 67.8381 0.0000 0.0000 0.0000
# 3 78.0146 67.8381 207.9684 0.0000 0.0000 0.0000
# 4 0.0000 0.0000 0.0000 19.6261 0.0000 0.0000
# 5 0.0000 0.0000 0.0000 0.0000 31.7869 0.0000
# 6 0.0000 0.0000 0.0000 0.0000 0.0000 36.1151
#
#
#
# Elastic Compliance Matrix: (Units=1/GPa)
#
#
# Indices 1 2 3 4 5 6 
#
# 1 0.009695 -0.002788 -0.002727 0.000000 0.000000 0.000000
# 2 -0.002788 0.012823 -0.003137 0.000000 0.000000 0.000000
# 3 -0.002727 -0.003137 0.006855 0.000000 0.000000 0.000000
# 4 0.000000 0.000000 0.000000 0.050953 0.000000 0.000000
# 5 0.000000 0.000000 0.000000 0.000000 0.031459 0.000000
# 6 0.000000 0.000000 0.000000 0.000000 0.000000 0.027689
#
#
# Mechanical properties :
#
#
# Convention : Reuss Voigt Hill
#
# Bulk Modulus (GPa) = 82.86544 93.67023 88.26783
# Shear Modulus (GPa) = 31.09420 34.66237 32.87828
#
# Velocity S-wave (km/s) = 3.73847 3.94714 3.84422
# Velocity P-wave (km/s) = 7.47536 7.92943 7.70574
#
# Compressibility (1/GPa) = 0.01206776
#
# Stress axis : x y z
#
# Youngs Moduli (GPa) = 103.14848 77.98268 145.88533
#
# Poissons Ratio (x) = 0.21745 0.39786
# Poissons Ratio (y) = 0.28763 0.45762
# Poissons Ratio (z) = 0.28131 0.24462
#
# Static dielectric constant tensor:
#      x y z
#    x 1.831810 0.000000 0.000000 
#    y 0.000000 1.874630 0.000000 
#    z 0.000000 0.000000 1.827750 
# 
# From -- ./inp_files/9603.got.cif
#   From: 2010.05.17/outbox.cif.g08.bks.cpg/sg43_5_cif.got.tgz:9603.got - 2010.06.03 19:21:55.
