data_PCOD9372428
_publ_section_title
;
Structure prediction by ZEFSAII (Michael W. Deem and Ramdas Pophale) SiO2 
 PCOD9372428
Probable space group: F D D 2
;
_chemical_formula_sum "Si O2"
_cell_formula_units_Z 120
_cell_length_a 18.251517
_cell_length_b 13.800608
_cell_length_c 24.122085
_cell_angle_alpha 90.000000
_cell_angle_beta 90.000000
_cell_angle_gamma 90.000000
_cell_volume 6075.919774
_symmetry_space_group_name_H-M "F D D 2"
_symmetry_group_IT_number 43
_symmetry_cell_setting 'orthorhombic'
loop_
_space_group_symop_operation_xyz
x,y,z
-x,-y,z
1/4-x,1/4+y,1/4+z
1/4+x,1/4-y,1/4+z
x,1/2+y,1/2+z
-x,1/2-y,1/2+z
1/4-x,3/4+y,3/4+z
1/4+x,3/4-y,3/4+z
1/2+x,y,1/2+z
1/2-x,-y,1/2+z
3/4-x,1/4+y,3/4+z
3/4+x,1/4-y,3/4+z
1/2+x,1/2+y,z
1/2-x,1/2-y,z
3/4-x,3/4+y,1/4+z
3/4+x,3/4-y,1/4+z
loop_
_atom_site_type_symbol
_atom_site_label
_atom_site_fract_x
_atom_site_fract_y
_atom_site_fract_z
Si Si1 0.126630 0.634020 0.063250
Si Si2 0.066166 0.122628 0.152785
Si Si3 0.545609 0.734801 0.881564
Si Si4 0.595977 0.824815 0.620169
Si Si5 0.531739 0.108779 0.958196
Si Si6 0.750000 0.250000 0.998999
Si Si7 0.581437 0.537352 0.946033
Si Si8 0.396957 0.747894 0.812561
O O1 0.142397 0.532908 0.093131
O O2 0.110327 0.713409 0.109247
O O3 0.060560 0.631964 0.019492
O O4 0.200901 0.675314 0.034318
O O5 0.126680 0.205293 0.160791
O O6 0.091258 0.050769 0.105211
O O7 0.988086 0.162627 0.134355
O O8 0.052538 0.062293 0.208809
O O9 0.520701 0.811948 0.929233
O O10 0.569813 0.635987 0.911420
O O11 0.476132 0.726230 0.839515
O O12 0.645347 0.859755 0.670839
O O13 0.625572 0.888398 0.568250
O O14 0.500000 0.000000 0.955814
O O15 0.500000 0.500000 0.961421
O O16 0.630347 0.543384 0.001869
#
# Coordination Sequence:
#
# PCOD9372428 Si02
#       8
#    16  16  16  16  16   8  16  16
#     4  12  24  39  72  94 133 178 215 277 340 392
#     4  12  22  41  66 102 132 165 223 277 333 404
#     4  11  25  47  63 104 138 173 224 281 337 407
#     4  11  22  40  66 103 130 160 228 286 327 394
#     4  11  23  44  69  97 133 177 225 277 338 403
#     4  12  20  40  70 106 126 158 220 296 346 368
#     4  12  26  43  68  96 138 182 219 270 340 412
#     4  11  23  40  70  98 131 169 217 282 341 385
#
# _framework density 19.750097
#
# number of rings (size 3 to 8) (size 9 to 14) (size 15 to 20)
#    0.000    0.533    5.333    4.800    3.733    1.067 
#    0.000    0.000    2.933    0.000    0.000    0.000 
#    0.000    0.000    0.000    0.000    0.000    0.000 
#
# Total GULP energy -167662.572771 kJ/mol
# GULP energy per Si atom -5588.752426 kJ/mol
# Density = 1.970514 g / cm^3
# Si number density = 19.750097 Si / 1000 Ang^3
#
#
#
# Elastic Constant Matrix: (Units=GPa)
#
#
# Indices 1 2 3 4 5 6 
#
# 1 45.7750 18.3522 2.7900 0.0000 0.0000 0.0000
# 2 18.3522 98.8938 22.4055 0.0000 0.0000 0.0000
# 3 2.7900 22.4055 67.2397 0.0000 0.0000 0.0000
# 4 0.0000 0.0000 0.0000 29.6050 0.0000 0.0000
# 5 0.0000 0.0000 0.0000 0.0000 6.6507 0.0000
# 6 0.0000 0.0000 0.0000 0.0000 0.0000 32.0784
#
#
#
# Elastic Compliance Matrix: (Units=1/GPa)
#
#
# Indices 1 2 3 4 5 6 
#
# 1 0.023619 -0.004501 0.000520 0.000000 0.000000 0.000000
# 2 -0.004501 0.011795 -0.003744 0.000000 0.000000 0.000000
# 3 0.000520 -0.003744 0.016098 0.000000 0.000000 0.000000
# 4 0.000000 0.000000 0.000000 0.033778 0.000000 0.000000
# 5 0.000000 0.000000 0.000000 0.000000 0.150361 0.000000
# 6 0.000000 0.000000 0.000000 0.000000 0.000000 0.031174
#
#
# Mechanical properties :
#
#
# Convention : Reuss Voigt Hill
#
# Bulk Modulus (GPa) = 27.72952 33.22265 30.47608
# Shear Modulus (GPa) = 16.98977 24.89087 20.94032
#
# Velocity S-wave (km/s) = 2.93616 3.55391 3.25970
# Velocity P-wave (km/s) = 5.05622 5.80503 5.44352
#
# Compressibility (1/GPa) = 0.03606266
#
# Stress axis : x y z
#
# Youngs Moduli (GPa) = 42.33925 84.77983 62.11933
#
# Poissons Ratio (x) = 0.38158 -0.03229
# Poissons Ratio (y) = 0.19056 0.23255
# Poissons Ratio (z) = -0.02201 0.31739
#
# Static dielectric constant tensor:
#      x y z
#    x 1.700470 0.000000 0.000000 
#    y 0.000000 1.687810 0.000000 
#    z 0.000000 0.000000 1.705550 
# 
# From -- ./inp_files/21825.got.cif
#   From: 2010.05.17/outbox.cif.g08.bks.cpg/sg43_11_cif.got.tgz:21825.got - 2010.06.03 19:21:55.
