data_PCOD9372011
_publ_section_title
;
Structure prediction by ZEFSAII (Michael W. Deem and Ramdas Pophale) SiO2 
 PCOD9372011
Probable space group: F D D 2
;
_chemical_formula_sum "Si O2"
_cell_formula_units_Z 72
_cell_length_a 22.180696
_cell_length_b 5.187831
_cell_length_c 26.698609
_cell_angle_alpha 90.000000
_cell_angle_beta 90.000000
_cell_angle_gamma 90.000000
_cell_volume 3072.200990
_symmetry_space_group_name_H-M "F D D 2"
_symmetry_group_IT_number 43
_symmetry_cell_setting 'orthorhombic'
loop_
_space_group_symop_operation_xyz
x,y,z
-x,-y,z
1/4-x,1/4+y,1/4+z
1/4+x,1/4-y,1/4+z
x,1/2+y,1/2+z
-x,1/2-y,1/2+z
1/4-x,3/4+y,3/4+z
1/4+x,3/4-y,3/4+z
1/2+x,y,1/2+z
1/2-x,-y,1/2+z
3/4-x,1/4+y,3/4+z
3/4+x,1/4-y,3/4+z
1/2+x,1/2+y,z
1/2-x,1/2-y,z
3/4-x,3/4+y,1/4+z
3/4+x,3/4-y,1/4+z
loop_
_atom_site_type_symbol
_atom_site_label
_atom_site_fract_x
_atom_site_fract_y
_atom_site_fract_z
Si Si1 0.250000 0.250000 0.347700
Si Si2 0.250000 0.750000 0.565994
Si Si3 0.271885 0.999817 0.251795
Si Si4 0.846539 0.860078 0.982817
Si Si5 0.750000 0.750000 0.631556
Si Si6 0.360851 0.368623 0.418298
O O1 0.256415 0.477458 0.306493
O O2 0.310903 0.262705 0.379201
O O3 0.200741 0.641885 0.527064
O O4 0.267856 0.508344 0.600250
O O5 0.250000 0.750000 0.224058
O O6 0.250000 0.250000 0.222477
O O7 0.341869 0.008636 0.256791
O O8 0.835241 0.640628 0.940503
O O9 0.858878 0.142960 0.960379
O O10 0.820909 0.665597 0.648857
#
# Coordination Sequence:
#
# PCOD9372011 Si02
#       6
#     8   8  16  16   8  16
#     4  10  26  43  73  96 142 180 244 274 361 417
#     4  12  26  48  73 104 147 198 241 296 373 456
#     4  10  24  40  72  92 130 176 237 271 334 420
#     4  12  26  45  72 101 144 183 244 289 366 427
#     4  12  28  45  72 108 153 186 245 310 382 427
#     4  12  27  44  71 106 145 184 237 309 362 425
#
# _framework density 23.435966000000001
#
# number of rings (size 3 to 8) (size 9 to 14) (size 15 to 20)
#    0.667    0.000    0.000    6.667   10.889    0.000 
#    0.000    0.000    0.000    0.000    0.000    0.000 
#    0.000    0.000    0.000    0.000    0.000    0.000 
#
# Total GULP energy -100305.258277 kJ/mol
# GULP energy per Si atom -5572.514349 kJ/mol
# Density = 2.338262 g / cm^3
# Si number density = 23.435966 Si / 1000 Ang^3
#
#
#
# Elastic Constant Matrix: (Units=GPa)
#
#
# Indices 1 2 3 4 5 6 
#
# 1 183.8765 65.4583 135.8812 0.0021 0.0112 0.0029
# 2 65.4583 208.1449 98.4021 0.0019 0.0107 0.0130
# 3 135.8812 98.4021 236.1564 0.0099 0.0064 0.0009
# 4 0.0021 0.0019 0.0099 32.0496 -0.0003 0.0059
# 5 0.0112 0.0107 0.0064 -0.0003 80.5285 0.0027
# 6 0.0029 0.0130 0.0009 0.0059 0.0027 23.8204
#
#
#
# Elastic Compliance Matrix: (Units=1/GPa)
#
#
# Indices 1 2 3 4 5 6 
#
# 1 0.009503 -0.000503 -0.005259 0.000001 -0.000001 -0.000001
# 2 -0.000503 0.006009 -0.002215 0.000000 -0.000001 -0.000003
# 3 -0.005259 -0.002215 0.008183 -0.000002 0.000000 0.000002
# 4 0.000001 0.000000 -0.000002 0.031202 0.000000 -0.000008
# 5 -0.000001 -0.000001 0.000000 0.000000 0.012418 -0.000001
# 6 -0.000001 -0.000003 0.000002 -0.000008 -0.000001 0.041981
#
#
# Mechanical properties :
#
#
# Convention : Reuss Voigt Hill
#
# Bulk Modulus (GPa) = 129.13633 136.40677 132.77155
# Shear Modulus (GPa) = 39.11438 49.17546 44.14492
#
# Velocity S-wave (km/s) = 4.08976 4.58568 4.34480
# Velocity P-wave (km/s) = 8.80471 9.29346 9.05238
#
# Compressibility (1/GPa) = 0.00774375
#
# Stress axis : x y z
#
# Youngs Moduli (GPa) = 105.22490 166.40338 122.20180
#
# Poissons Ratio (x) = 0.08363 0.64263
# Poissons Ratio (y) = 0.05288 0.27066
# Poissons Ratio (z) = 0.55335 0.36856
#
# Static dielectric constant tensor:
#      x y z
#    x 1.899500 0.000020 0.000020 
#    y 0.000020 2.036930 0.000020 
#    z 0.000020 0.000020 1.334590 
# 
# From -- ./inp_files/29762.got.cif
#   From: 2010.05.17/outbox.cif.g08.bks.cpg/sg43_15_cif.got.tgz:29762.got - 2010.06.03 19:21:55.
