data_PCOD9372375
_publ_section_title
;
Structure prediction by ZEFSAII (Michael W. Deem and Ramdas Pophale) SiO2 
 PCOD9372375
Probable space group: F D D 2
;
_chemical_formula_sum "Si O2"
_cell_formula_units_Z 120
_cell_length_a 21.976642
_cell_length_b 9.307569
_cell_length_c 31.807206
_cell_angle_alpha 90.000000
_cell_angle_beta 90.000000
_cell_angle_gamma 90.000000
_cell_volume 6506.135736
_symmetry_space_group_name_H-M "F D D 2"
_symmetry_group_IT_number 43
_symmetry_cell_setting 'orthorhombic'
loop_
_space_group_symop_operation_xyz
x,y,z
-x,-y,z
1/4-x,1/4+y,1/4+z
1/4+x,1/4-y,1/4+z
x,1/2+y,1/2+z
-x,1/2-y,1/2+z
1/4-x,3/4+y,3/4+z
1/4+x,3/4-y,3/4+z
1/2+x,y,1/2+z
1/2-x,-y,1/2+z
3/4-x,1/4+y,3/4+z
3/4+x,1/4-y,3/4+z
1/2+x,1/2+y,z
1/2-x,1/2-y,z
3/4-x,3/4+y,1/4+z
3/4+x,3/4-y,1/4+z
loop_
_atom_site_type_symbol
_atom_site_label
_atom_site_fract_x
_atom_site_fract_y
_atom_site_fract_z
Si Si1 0.859112 0.722393 0.497470
Si Si2 0.241465 0.422681 0.716784
Si Si3 0.250000 0.750000 0.932077
Si Si4 0.000259 0.675052 0.869247
Si Si5 0.291524 0.441423 0.357719
Si Si6 0.370530 0.924448 0.075403
Si Si7 0.066675 0.289591 0.046890
Si Si8 0.634942 0.515542 0.063839
O O1 0.925252 0.772337 0.481363
O O2 0.808586 0.728264 0.461565
O O3 0.846137 0.829986 0.536350
O O4 0.859665 0.567642 0.519692
O O5 0.250000 0.250000 0.719017
O O6 0.247875 0.463873 0.668239
O O7 0.291113 0.479693 0.749836
O O8 0.265407 0.884941 0.901689
O O9 0.937876 0.731561 0.849554
O O10 0.000000 0.500000 0.866117
O O11 0.057475 0.733184 0.843180
O O12 0.341364 0.569065 0.356209
O O13 0.238244 0.496871 0.327735
O O14 0.326686 0.306995 0.336765
O O15 0.412750 0.049080 0.056954
O O16 0.121354 0.181090 0.056179
#
# Coordination Sequence:
#
# PCOD9372375 Si02
#       8
#    16  16   8  16  16  16  16  16
#     4  11  22  39  64  93 125 165 216 263 322 383
#     4  11  22  38  65  94 121 162 218 269 308 381
#     4  12  24  38  66  98 130 162 224 276 316 382
#     4  11  22  40  65  95 124 162 215 264 316 379
#     4  11  21  39  66  91 116 169 214 258 315 376
#     4  11  23  41  68  89 127 171 214 257 328 393
#     4  12  22  42  63  93 126 167 215 259 319 387
#     4  11  22  41  67  91 125 170 209 260 323 384
#
# _framework density 18.444127999999999
#
# number of rings (size 3 to 8) (size 9 to 14) (size 15 to 20)
#    0.000    0.800    8.000    2.000    1.867    0.533 
#    2.400    1.333    2.933    0.000    0.000    0.000 
#    0.000    0.000    0.000    0.000    0.000    0.000 
#
# Total GULP energy -167529.258132 kJ/mol
# GULP energy per Si atom -5584.308604 kJ/mol
# Density = 1.840215 g / cm^3
# Si number density = 18.444128 Si / 1000 Ang^3
#
#
#
# Elastic Constant Matrix: (Units=GPa)
#
#
# Indices 1 2 3 4 5 6 
#
# 1 73.4287 24.7468 70.0431 0.0000 0.0000 0.0000
# 2 24.7468 61.4512 22.8493 0.0000 0.0000 -0.0001
# 3 70.0431 22.8493 122.7616 0.0000 0.0000 0.0000
# 4 0.0000 0.0000 0.0000 23.2833 0.0000 0.0000
# 5 0.0000 0.0000 0.0000 0.0000 20.1748 0.0000
# 6 0.0000 -0.0001 0.0000 0.0000 0.0000 19.0493
#
#
#
# Elastic Compliance Matrix: (Units=1/GPa)
#
#
# Indices 1 2 3 4 5 6 
#
# 1 0.032188 -0.006590 -0.017139 0.000000 0.000000 0.000000
# 2 -0.006590 0.018832 0.000255 0.000000 0.000000 0.000000
# 3 -0.017139 0.000255 0.017877 0.000000 0.000000 0.000000
# 4 0.000000 0.000000 0.000000 0.042949 0.000000 0.000000
# 5 0.000000 0.000000 0.000000 0.000000 0.049567 0.000000
# 6 0.000000 0.000000 0.000000 0.000000 0.000000 0.052495
#
#
# Mechanical properties :
#
#
# Convention : Reuss Voigt Hill
#
# Bulk Modulus (GPa) = 45.55857 54.76889 50.16373
# Shear Modulus (GPa) = 18.64469 21.83497 20.23983
#
# Velocity S-wave (km/s) = 3.18287 3.44444 3.31623
# Velocity P-wave (km/s) = 6.18563 6.75113 6.47456
#
# Compressibility (1/GPa) = 0.02194977
#
# Stress axis : x y z
#
# Youngs Moduli (GPa) = 31.06741 53.10086 55.93716
#
# Poissons Ratio (x) = 0.34992 0.95869
# Poissons Ratio (y) = 0.20472 -0.01424
# Poissons Ratio (z) = 0.53246 -0.01352
#
# Static dielectric constant tensor:
#      x y z
#    x 1.635860 0.000000 0.000000 
#    y 0.000000 1.634570 0.000000 
#    z 0.000000 0.000000 1.620920 
# 
# From -- ./inp_files/24477.got.cif
#   From: 2010.05.17/outbox.cif.g08.bks.cpg/sg43_13_cif.got.tgz:24477.got - 2010.06.03 19:21:55.
