data_PCOD9372177
_publ_section_title
;
Structure prediction by ZEFSAII (Michael W. Deem and Ramdas Pophale) SiO2 
 PCOD9372177
Probable space group: F D D 2
;
_chemical_formula_sum "Si O2"
_cell_formula_units_Z 64
_cell_length_a 7.253999
_cell_length_b 16.259989
_cell_length_c 21.761032
_cell_angle_alpha 90.000000
_cell_angle_beta 90.000000
_cell_angle_gamma 90.000000
_cell_volume 2566.712505
_symmetry_space_group_name_H-M "F D D 2"
_symmetry_group_IT_number 43
_symmetry_cell_setting 'orthorhombic'
loop_
_space_group_symop_operation_xyz
x,y,z
-x,-y,z
1/4-x,1/4+y,1/4+z
1/4+x,1/4-y,1/4+z
x,1/2+y,1/2+z
-x,1/2-y,1/2+z
1/4-x,3/4+y,3/4+z
1/4+x,3/4-y,3/4+z
1/2+x,y,1/2+z
1/2-x,-y,1/2+z
3/4-x,1/4+y,3/4+z
3/4+x,1/4-y,3/4+z
1/2+x,1/2+y,z
1/2-x,1/2-y,z
3/4-x,3/4+y,1/4+z
3/4+x,3/4-y,1/4+z
loop_
_atom_site_type_symbol
_atom_site_label
_atom_site_fract_x
_atom_site_fract_y
_atom_site_fract_z
Si Si1 0.886681 0.377083 0.943510
Si Si2 0.500000 0.000000 0.592437
Si Si3 0.250000 0.250000 0.528844
Si Si4 0.707923 0.525804 0.879431
Si Si5 0.867884 0.577528 0.048732
O O1 0.865217 0.316437 0.884594
O O2 0.816550 0.468437 0.928094
O O3 0.748385 0.332252 0.989612
O O4 0.076704 0.378230 0.983444
O O5 0.344514 0.949335 0.555439
O O6 0.430480 0.247103 0.569609
O O7 0.500000 0.500000 0.885771
O O8 0.681906 0.620827 0.859221
O O9 0.000000 0.500000 0.049268
#
# Coordination Sequence:
#
# PCOD9372177 Si02
#       5
#    16   8   8  16  16
#     4  10  24  48  79 111 155 216 254 321 403 463
#     4  11  24  52  82 116 168 200 256 349 388 464
#     4   9  24  46  72 112 162 182 268 329 370 478
#     4  11  23  49  77 107 149 208 252 321 382 470
#     4  11  27  47  76 121 156 202 272 323 390 486
#
# _framework density 24.934619999999999
#
# number of rings (size 3 to 8) (size 9 to 14) (size 15 to 20)
#    0.000    1.500    2.500    0.000    8.750    0.000 
#    6.750   13.750    0.000    0.000    0.000    0.000 
#    0.000    0.000    0.000    0.000    0.000    0.000 
#
# Total GULP energy -89155.879806 kJ/mol
# GULP energy per Si atom -5572.242488 kJ/mol
# Density = 2.487787 g / cm^3
# Si number density = 24.934620 Si / 1000 Ang^3
#
#
#
# Elastic Constant Matrix: (Units=GPa)
#
#
# Indices 1 2 3 4 5 6 
#
# 1 171.1018 52.7861 77.5384 0.0000 0.0000 0.0000
# 2 52.7861 120.7743 59.2886 0.0000 0.0000 0.0000
# 3 77.5384 59.2886 98.8551 0.0000 0.0000 0.0000
# 4 0.0000 0.0000 0.0000 46.5187 0.0000 0.0000
# 5 0.0000 0.0000 0.0000 0.0000 53.7545 0.0000
# 6 0.0000 0.0000 0.0000 0.0000 0.0000 45.0790
#
#
#
# Elastic Compliance Matrix: (Units=1/GPa)
#
#
# Indices 1 2 3 4 5 6 
#
# 1 0.009106 -0.000671 -0.006740 0.000000 0.000000 0.000000
# 2 -0.000671 0.011784 -0.006541 0.000000 0.000000 0.000000
# 3 -0.006740 -0.006541 0.019325 0.000000 0.000000 0.000000
# 4 0.000000 0.000000 0.000000 0.021497 0.000000 0.000000
# 5 0.000000 0.000000 0.000000 0.000000 0.018603 0.000000
# 6 0.000000 0.000000 0.000000 0.000000 0.000000 0.022183
#
#
# Mechanical properties :
#
#
# Convention : Reuss Voigt Hill
#
# Bulk Modulus (GPa) = 81.22696 85.55083 83.38889
# Shear Modulus (GPa) = 37.17295 42.47832 39.82564
#
# Velocity S-wave (km/s) = 3.86530 4.13193 4.00084
# Velocity P-wave (km/s) = 7.25034 7.55965 7.40661
#
# Compressibility (1/GPa) = 0.01231118
#
# Stress axis : x y z
#
# Youngs Moduli (GPa) = 109.82033 84.85802 51.74586
#
# Poissons Ratio (x) = 0.05697 0.34875
# Poissons Ratio (y) = 0.07372 0.33848
# Poissons Ratio (z) = 0.74015 0.55507
#
# Static dielectric constant tensor:
#      x y z
#    x 1.939700 0.000000 0.000000 
#    y 0.000000 2.040550 0.000000 
#    z 0.000000 0.000000 2.100540 
# 
# From -- ./inp_files/19343.got.cif
#   From: 2010.05.17/outbox.cif.g08.bks.cpg/sg43_10_cif.got.tgz:19343.got - 2010.06.03 19:21:55.
