data_PCOD9372917
_publ_section_title
;
Structure prediction by ZEFSAII (Michael W. Deem and Ramdas Pophale) SiO2 
 PCOD9372917
Probable space group: F D D 2
;
_chemical_formula_sum "Si O2"
_cell_formula_units_Z 56
_cell_length_a 9.944053
_cell_length_b 14.717887
_cell_length_c 14.636862
_cell_angle_alpha 90.000000
_cell_angle_beta 90.000000
_cell_angle_gamma 90.000000
_cell_volume 2142.184501
_symmetry_space_group_name_H-M "F D D 2"
_symmetry_group_IT_number 43
_symmetry_cell_setting 'orthorhombic'
loop_
_space_group_symop_operation_xyz
x,y,z
-x,-y,z
1/4-x,1/4+y,1/4+z
1/4+x,1/4-y,1/4+z
x,1/2+y,1/2+z
-x,1/2-y,1/2+z
1/4-x,3/4+y,3/4+z
1/4+x,3/4-y,3/4+z
1/2+x,y,1/2+z
1/2-x,-y,1/2+z
3/4-x,1/4+y,3/4+z
3/4+x,1/4-y,3/4+z
1/2+x,1/2+y,z
1/2-x,1/2-y,z
3/4-x,3/4+y,1/4+z
3/4+x,3/4-y,1/4+z
loop_
_atom_site_type_symbol
_atom_site_label
_atom_site_fract_x
_atom_site_fract_y
_atom_site_fract_z
Si Si1 0.459646 0.715768 0.346360
Si Si2 0.250000 0.750000 0.825390
Si Si3 0.353230 0.026629 0.891185
Si Si4 0.617239 0.689693 0.012117
O O1 0.369344 0.635113 0.388464
O O2 0.423307 0.733675 0.240988
O O3 0.663303 0.833109 0.281660
O O4 0.419839 0.801772 0.406066
O O5 0.242803 0.991772 0.822382
O O6 0.380992 0.801578 0.866031
O O7 0.500000 0.000000 0.855599
O O8 0.750000 0.750000 0.031938
#
# Coordination Sequence:
#
# PCOD9372917 Si02
#       4
#    16   8  16  16
#     4  12  29  53  86 125 170 229 286 361 442 537
#     4  12  30  50  88 124 174 218 298 366 440 520
#     4  12  27  54  89 122 172 227 291 364 447 532
#     4  12  30  55  88 129 173 229 295 365 444 538
#
# _framework density 26.141539999999999
#
# number of rings (size 3 to 8) (size 9 to 14) (size 15 to 20)
#    0.000    0.000    2.857    4.286    8.000    4.571 
#    0.000    0.000    0.000    0.000    0.000    0.000 
#    0.000    0.000    0.000    0.000    0.000    0.000 
#
# Total GULP energy -78246.426150 kJ/mol
# GULP energy per Si atom -5589.030439 kJ/mol
# Density = 2.608204 g / cm^3
# Si number density = 26.141540 Si / 1000 Ang^3
#
#
#
# Elastic Constant Matrix: (Units=GPa)
#
#
# Indices 1 2 3 4 5 6 
#
# 1 184.2462 43.2040 31.1136 0.0000 0.0000 0.0000
# 2 43.2040 150.3528 24.3033 0.0000 0.0000 0.0000
# 3 31.1136 24.3033 92.5036 0.0000 0.0000 0.0000
# 4 0.0000 0.0000 0.0000 20.4439 0.0000 0.0000
# 5 0.0000 0.0000 0.0000 0.0000 22.8072 0.0000
# 6 0.0000 0.0000 0.0000 0.0000 0.0000 49.3554
#
#
#
# Elastic Compliance Matrix: (Units=1/GPa)
#
#
# Indices 1 2 3 4 5 6 
#
# 1 0.006051 -0.001472 -0.001648 0.000000 0.000000 0.000000
# 2 -0.001472 0.007304 -0.001424 0.000000 0.000000 0.000000
# 3 -0.001648 -0.001424 0.011739 0.000000 0.000000 0.000000
# 4 0.000000 0.000000 0.000000 0.048914 0.000000 0.000000
# 5 0.000000 0.000000 0.000000 0.000000 0.043846 0.000000
# 6 0.000000 0.000000 0.000000 0.000000 0.000000 0.020261
#
#
# Mechanical properties :
#
#
# Convention : Reuss Voigt Hill
#
# Bulk Modulus (GPa) = 62.48022 69.37161 65.92591
# Shear Modulus (GPa) = 32.77829 40.42007 36.59918
#
# Velocity S-wave (km/s) = 3.54485 3.93644 3.74577
# Velocity P-wave (km/s) = 6.38023 6.87425 6.63184
#
# Compressibility (1/GPa) = 0.01600507
#
# Stress axis : x y z
#
# Youngs Moduli (GPa) = 165.25791 136.90665 85.18662
#
# Poissons Ratio (x) = 0.20157 0.14043
# Poissons Ratio (y) = 0.24332 0.12129
# Poissons Ratio (z) = 0.27242 0.19493
#
# Static dielectric constant tensor:
#      x y z
#    x 2.078250 0.000000 0.000000 
#    y 0.000000 2.218420 0.000000 
#    z 0.000000 0.000000 1.976540 
# 
# From -- ./inp_files/5870.got.cif
#   From: 2010.05.17/outbox.cif.g08.bks.cpg/sg43_3_cif.got.tgz:5870.got - 2010.06.03 19:21:55.
