data_PCOD9372899
_publ_section_title
;
Structure prediction by ZEFSAII (Michael W. Deem and Ramdas Pophale) SiO2 
 PCOD9372899
Probable space group: F D D 2
;
_chemical_formula_sum "Si O2"
_cell_formula_units_Z 64
_cell_length_a 16.032213
_cell_length_b 17.722662
_cell_length_c 10.084236
_cell_angle_alpha 90.000000
_cell_angle_beta 90.000000
_cell_angle_gamma 90.000000
_cell_volume 2865.269190
_symmetry_space_group_name_H-M "F D D 2"
_symmetry_group_IT_number 43
_symmetry_cell_setting 'orthorhombic'
loop_
_space_group_symop_operation_xyz
x,y,z
-x,-y,z
1/4-x,1/4+y,1/4+z
1/4+x,1/4-y,1/4+z
x,1/2+y,1/2+z
-x,1/2-y,1/2+z
1/4-x,3/4+y,3/4+z
1/4+x,3/4-y,3/4+z
1/2+x,y,1/2+z
1/2-x,-y,1/2+z
3/4-x,1/4+y,3/4+z
3/4+x,1/4-y,3/4+z
1/2+x,1/2+y,z
1/2-x,1/2-y,z
3/4-x,3/4+y,1/4+z
3/4+x,3/4-y,1/4+z
loop_
_atom_site_type_symbol
_atom_site_label
_atom_site_fract_x
_atom_site_fract_y
_atom_site_fract_z
Si Si1 0.462524 0.207591 0.605210
Si Si2 0.158701 0.243414 0.830767
Si Si3 0.928370 0.441283 0.634367
Si Si4 0.609397 0.315547 0.597904
O O1 0.408992 0.217782 0.737681
O O2 0.398868 0.191911 0.485337
O O3 0.527986 0.140017 0.622784
O O4 0.515977 0.283250 0.581551
O O5 0.250000 0.250000 0.768426
O O6 0.138044 0.155611 0.847605
O O7 0.159420 0.283582 0.973079
O O8 0.895080 0.462262 0.488104
O O9 0.000000 0.500000 0.675501
#
# Coordination Sequence:
#
# PCOD9372899 Si02
#       4
#    16  16  16  16
#     4  12  28  50  76 114 151 198 253 319 385 457
#     4  12  28  45  80 109 153 196 256 314 384 455
#     4  12  28  49  78 110 155 200 253 317 386 455
#     4  12  26  52  76 111 150 202 255 312 384 461
#
# _framework density 22.336469999999998
#
# number of rings (size 3 to 8) (size 9 to 14) (size 15 to 20)
#    0.000    0.000    2.500    6.000   14.000    0.000 
#    0.000    0.000    0.000    0.000    0.000    0.000 
#    0.000    0.000    0.000    0.000    0.000    0.000 
#
# Total GULP energy -89713.939972 kJ/mol
# GULP energy per Si atom -5607.121248 kJ/mol
# Density = 2.228563 g / cm^3
# Si number density = 22.336470 Si / 1000 Ang^3
#
#
#
# Elastic Constant Matrix: (Units=GPa)
#
#
# Indices 1 2 3 4 5 6 
#
# 1 112.3050 12.6064 44.5790 0.0000 0.0000 0.0000
# 2 12.6064 94.4775 31.7457 0.0000 0.0000 0.0000
# 3 44.5790 31.7457 121.2401 0.0000 0.0000 0.0000
# 4 0.0000 0.0000 0.0000 31.8963 0.0000 0.0000
# 5 0.0000 0.0000 0.0000 0.0000 -94.7017 0.0000
# 6 0.0000 0.0000 0.0000 0.0000 0.0000 53.0808
#
#
#
# Elastic Compliance Matrix: (Units=1/GPa)
#
#
# Indices 1 2 3 4 5 6 
#
# 1 0.010427 -0.000113 -0.003804 0.000000 0.000000 0.000000
# 2 -0.000113 0.011607 -0.002998 0.000000 0.000000 0.000000
# 3 -0.003804 -0.002998 0.010432 0.000000 0.000000 0.000000
# 4 0.000000 0.000000 0.000000 0.031352 0.000000 0.000000
# 5 0.000000 0.000000 0.000000 0.000000 -0.010559 0.000000
# 6 0.000000 0.000000 0.000000 0.000000 0.000000 0.018839
#
#
# Mechanical properties :
#
#
# Convention : Reuss Voigt Hill
#
# Bulk Modulus (GPa) = 53.66003 56.20941 54.93472
# Shear Modulus (GPa) = 54.26581 13.99453 34.13017
#
# Velocity S-wave (km/s) = 4.93431 2.50578 3.91321
# Velocity P-wave (km/s) = 7.51924 5.79581 6.71306
#
# Compressibility (1/GPa) = 0.01863585
#
# Stress axis : x y z
#
# Youngs Moduli (GPa) = 95.90358 86.15604 95.86044
#
# Poissons Ratio (x) = 0.00974 0.36469
# Poissons Ratio (y) = 0.01084 0.28735
# Poissons Ratio (z) = 0.36485 0.25826
#
# Static dielectric constant tensor:
#      x y z
#    x 1.839430 0.000000 0.000000 
#    y 0.000000 1.810150 0.000000 
#    z 0.000000 0.000000 1.789400 
# 
# From -- ./inp_files/2616.got.cif
#   From: 2010.05.17/outbox.cif.g08.bks.cpg/sg43_2_cif.got.tgz:2616.got - 2010.06.03 19:21:55.
