data_PCOD9372465
_publ_section_title
;
Structure prediction by ZEFSAII (Michael W. Deem and Ramdas Pophale) SiO2 
 PCOD9372465
Probable space group: F D D 2
;
_chemical_formula_sum "Si O2"
_cell_formula_units_Z 96
_cell_length_a 10.708486
_cell_length_b 26.198265
_cell_length_c 14.524396
_cell_angle_alpha 90.000000
_cell_angle_beta 90.000000
_cell_angle_gamma 90.000000
_cell_volume 4074.728578
_symmetry_space_group_name_H-M "F D D 2"
_symmetry_group_IT_number 43
_symmetry_cell_setting 'orthorhombic'
loop_
_space_group_symop_operation_xyz
x,y,z
-x,-y,z
1/4-x,1/4+y,1/4+z
1/4+x,1/4-y,1/4+z
x,1/2+y,1/2+z
-x,1/2-y,1/2+z
1/4-x,3/4+y,3/4+z
1/4+x,3/4-y,3/4+z
1/2+x,y,1/2+z
1/2-x,-y,1/2+z
3/4-x,1/4+y,3/4+z
3/4+x,1/4-y,3/4+z
1/2+x,1/2+y,z
1/2-x,1/2-y,z
3/4-x,3/4+y,1/4+z
3/4+x,3/4-y,1/4+z
loop_
_atom_site_type_symbol
_atom_site_label
_atom_site_fract_x
_atom_site_fract_y
_atom_site_fract_z
Si Si1 0.591443 0.453249 0.138150
Si Si2 0.839425 0.796024 0.695837
Si Si3 0.685481 0.357875 0.044991
Si Si4 0.036763 0.276363 0.041746
Si Si5 0.397214 0.331624 0.042783
Si Si6 0.168461 0.879066 0.598200
O O1 0.500000 0.500000 0.108635
O O2 0.657672 0.418324 0.060338
O O3 0.513444 0.415833 0.208832
O O4 0.701789 0.475937 0.200811
O O5 0.750000 0.750000 0.724184
O O6 0.761951 0.836845 0.634014
O O7 0.900726 0.823202 0.782327
O O8 0.944219 0.774089 0.628528
O O9 0.360671 0.357009 0.945793
O O10 0.954190 0.164284 0.050555
O O11 0.103727 0.330534 0.051452
O O12 0.311724 0.362407 0.113360
O O13 0.374019 0.271906 0.044434
#
# Coordination Sequence:
#
# PCOD9372465 Si02
#       6
#    16  16  16  16  16  16
#     4  11  22  43  73 100 132 180 241 279 338 421
#     4  11  22  46  75  99 133 187 245 280 340 434
#     4  11  22  43  72  96 134 184 226 288 341 412
#     4  11  22  46  70  98 139 187 228 295 353 411
#     4  12  25  45  68 102 145 182 228 295 363 416
#     4  12  26  44  69 106 144 180 233 299 356 418
#
# _framework density 23.559851999999999
#
# number of rings (size 3 to 8) (size 9 to 14) (size 15 to 20)
#    0.000    0.667    6.667    2.500    0.000    1.333 
#    3.000    3.333    0.000    0.000    0.000    0.000 
#    0.000    0.000    0.000    0.000    0.000    0.000 
#
# Total GULP energy -134271.352340 kJ/mol
# GULP energy per Si atom -5594.639681 kJ/mol
# Density = 2.350623 g / cm^3
# Si number density = 23.559852 Si / 1000 Ang^3
#
#
#
# Elastic Constant Matrix: (Units=GPa)
#
#
# Indices 1 2 3 4 5 6 
#
# 1 87.2574 22.4972 9.0688 0.0000 0.0000 0.0000
# 2 22.4972 131.2284 34.8252 0.0000 0.0000 0.0000
# 3 9.0688 34.8252 38.0157 0.0000 0.0000 0.0000
# 4 0.0000 0.0000 0.0000 24.7408 0.0000 0.0000
# 5 0.0000 0.0000 0.0000 0.0000 3.3043 0.0000
# 6 0.0000 0.0000 0.0000 0.0000 0.0000 51.1337
#
#
#
# Elastic Compliance Matrix: (Units=1/GPa)
#
#
# Indices 1 2 3 4 5 6 
#
# 1 0.012038 -0.001720 -0.001296 0.000000 0.000000 0.000000
# 2 -0.001720 0.010314 -0.009038 0.000000 0.000000 0.000000
# 3 -0.001296 -0.009038 0.034893 0.000000 0.000000 0.000000
# 4 0.000000 0.000000 0.000000 0.040419 0.000000 0.000000
# 5 0.000000 0.000000 0.000000 0.000000 0.302637 0.000000
# 6 0.000000 0.000000 0.000000 0.000000 0.000000 0.019557
#
#
# Mechanical properties :
#
#
# Convention : Reuss Voigt Hill
#
# Bulk Modulus (GPa) = 30.17714 43.25376 36.71545
# Shear Modulus (GPa) = 10.98873 28.50977 19.74925
#
# Velocity S-wave (km/s) = 2.16201 3.48242 2.89841
# Velocity P-wave (km/s) = 4.36680 5.87951 5.17869
#
# Compressibility (1/GPa) = 0.03313767
#
# Stress axis : x y z
#
# Youngs Moduli (GPa) = 83.06688 96.95975 28.65869
#
# Poissons Ratio (x) = 0.16675 0.03715
# Poissons Ratio (y) = 0.14286 0.25901
# Poissons Ratio (z) = 0.10769 0.87630
#
# Static dielectric constant tensor:
#      x y z
#    x 1.904450 0.000000 0.000000 
#    y 0.000000 1.932890 0.000000 
#    z 0.000000 0.000000 1.884150 
# 
# From -- ./inp_files/13331.got.cif
#   From: 2010.05.17/outbox.cif.g08.bks.cpg/sg43_7_cif.got.tgz:13331.got - 2010.06.03 19:21:55.
