data_PCOD9372863
_publ_section_title
;
Structure prediction by ZEFSAII (Michael W. Deem and Ramdas Pophale) SiO2 
 PCOD9372863
Probable space group: F D D 2
;
_chemical_formula_sum "Si O2"
_cell_formula_units_Z 112
_cell_length_a 14.223020
_cell_length_b 24.417110
_cell_length_c 15.000919
_cell_angle_alpha 90.000000
_cell_angle_beta 90.000000
_cell_angle_gamma 90.000000
_cell_volume 5209.594813
_symmetry_space_group_name_H-M "F D D 2"
_symmetry_group_IT_number 43
_symmetry_cell_setting 'orthorhombic'
loop_
_space_group_symop_operation_xyz
x,y,z
-x,-y,z
1/4-x,1/4+y,1/4+z
1/4+x,1/4-y,1/4+z
x,1/2+y,1/2+z
-x,1/2-y,1/2+z
1/4-x,3/4+y,3/4+z
1/4+x,3/4-y,3/4+z
1/2+x,y,1/2+z
1/2-x,-y,1/2+z
3/4-x,1/4+y,3/4+z
3/4+x,1/4-y,3/4+z
1/2+x,1/2+y,z
1/2-x,1/2-y,z
3/4-x,3/4+y,1/4+z
3/4+x,3/4-y,1/4+z
loop_
_atom_site_type_symbol
_atom_site_label
_atom_site_fract_x
_atom_site_fract_y
_atom_site_fract_z
Si Si1 0.716889 0.812579 0.591100
Si Si2 0.699765 0.526220 0.454132
Si Si3 0.663828 0.610719 0.716570
Si Si4 0.886497 0.504919 0.142634
Si Si5 0.515274 0.336638 0.652236
Si Si6 0.407717 0.364910 0.186934
Si Si7 0.691326 0.382210 0.727466
O O1 0.750000 0.750000 0.593319
O O2 0.621938 0.814000 0.649480
O O3 0.789657 0.852869 0.639590
O O4 0.698373 0.833954 0.492222
O O5 0.646835 0.502409 0.540527
O O6 0.728426 0.474761 0.393644
O O7 0.791448 0.561406 0.478099
O O8 0.657970 0.546963 0.693391
O O9 0.556245 0.631598 0.717321
O O10 0.722384 0.616699 0.807448
O O11 0.846507 0.560910 0.184335
O O12 0.000000 0.500000 0.147694
O O13 0.618265 0.336656 0.694041
O O14 0.296119 0.367858 0.198264
O O15 0.433570 0.364540 0.083530
#
# Coordination Sequence:
#
# PCOD9372863 Si02
#       7
#    16  16  16  16  16  16  16
#     4  12  26  47  80 107 146 188 252 323 380 449
#     4  12  25  49  74 112 148 196 254 315 381 450
#     4  12  25  45  76 113 142 186 250 318 397 438
#     4  12  25  45  80 111 147 193 254 326 381 440
#     4  12  26  46  74 110 147 193 249 313 382 454
#     4  12  27  51  69 104 156 202 249 303 380 468
#     4  12  27  49  71 107 156 203 249 309 380 460
#
# _framework density 21.498794
#
# number of rings (size 3 to 8) (size 9 to 14) (size 15 to 20)
#    0.000    0.000    5.714    4.714    0.000    0.571 
#    5.143    0.000    0.000    0.000    0.000    0.000 
#    0.000    0.000    0.000    0.000    0.000    0.000 
#
# Total GULP energy -156725.386670 kJ/mol
# GULP energy per Si atom -5597.335238 kJ/mol
# Density = 2.144986 g / cm^3
# Si number density = 21.498794 Si / 1000 Ang^3
#
#
#
# Elastic Constant Matrix: (Units=GPa)
#
#
# Indices 1 2 3 4 5 6 
#
# 1 140.4523 45.0907 29.5878 0.0000 0.0000 0.0000
# 2 45.0907 72.5945 21.3708 0.0000 0.0000 0.0000
# 3 29.5878 21.3708 107.1735 0.0000 0.0000 0.0000
# 4 0.0000 0.0000 0.0000 36.8852 0.0000 0.0000
# 5 0.0000 0.0000 0.0000 0.0000 32.6056 0.0000
# 6 0.0000 0.0000 0.0000 0.0000 0.0000 38.7855
#
#
#
# Elastic Compliance Matrix: (Units=1/GPa)
#
#
# Indices 1 2 3 4 5 6 
#
# 1 0.009107 -0.005223 -0.001473 0.000000 0.000000 0.000000
# 2 -0.005223 0.017630 -0.002073 0.000000 0.000000 0.000000
# 3 -0.001473 -0.002073 0.010151 0.000000 0.000000 0.000000
# 4 0.000000 0.000000 0.000000 0.027111 0.000000 0.000000
# 5 0.000000 0.000000 0.000000 0.000000 0.030670 0.000000
# 6 0.000000 0.000000 0.000000 0.000000 0.000000 0.025783
#
#
# Mechanical properties :
#
#
# Convention : Reuss Voigt Hill
#
# Bulk Modulus (GPa) = 51.68249 56.92432 54.30341
# Shear Modulus (GPa) = 34.61668 36.59998 35.60833
#
# Velocity S-wave (km/s) = 4.01704 4.13052 4.07417
# Velocity P-wave (km/s) = 6.75333 7.02023 6.88807
#
# Compressibility (1/GPa) = 0.01934891
#
# Stress axis : x y z
#
# Youngs Moduli (GPa) = 109.80695 56.72229 98.51544
#
# Poissons Ratio (x) = 0.29626 0.14508
# Poissons Ratio (y) = 0.57353 0.20427
# Poissons Ratio (z) = 0.16171 0.11761
#
# Static dielectric constant tensor:
#      x y z
#    x 1.782500 0.000000 0.000000 
#    y 0.000000 1.769650 0.000000 
#    z 0.000000 0.000000 1.781240 
# 
# From -- ./inp_files/10185.got.cif
#   From: 2010.05.17/outbox.cif.g08.bks.cpg/sg43_6_cif.got.tgz:10185.got - 2010.06.03 19:21:55.
