data_PCOD9372432
_publ_section_title
;
Structure prediction by ZEFSAII (Michael W. Deem and Ramdas Pophale) SiO2 
 PCOD9372432
Probable space group: F D D 2
;
_chemical_formula_sum "Si O2"
_cell_formula_units_Z 96
_cell_length_a 23.727841
_cell_length_b 18.625914
_cell_length_c 10.235005
_cell_angle_alpha 90.000000
_cell_angle_beta 90.000000
_cell_angle_gamma 90.000000
_cell_volume 4523.388359
_symmetry_space_group_name_H-M "F D D 2"
_symmetry_group_IT_number 43
_symmetry_cell_setting 'orthorhombic'
loop_
_space_group_symop_operation_xyz
x,y,z
-x,-y,z
1/4-x,1/4+y,1/4+z
1/4+x,1/4-y,1/4+z
x,1/2+y,1/2+z
-x,1/2-y,1/2+z
1/4-x,3/4+y,3/4+z
1/4+x,3/4-y,3/4+z
1/2+x,y,1/2+z
1/2-x,-y,1/2+z
3/4-x,1/4+y,3/4+z
3/4+x,1/4-y,3/4+z
1/2+x,1/2+y,z
1/2-x,1/2-y,z
3/4-x,3/4+y,1/4+z
3/4+x,3/4-y,1/4+z
loop_
_atom_site_type_symbol
_atom_site_label
_atom_site_fract_x
_atom_site_fract_y
_atom_site_fract_z
Si Si1 0.226361 0.922663 0.751860
Si Si2 0.263825 0.333525 0.710008
Si Si3 0.701739 0.310984 0.969329
Si Si4 0.038163 0.618353 0.216886
Si Si5 0.908590 0.736497 0.613201
Si Si6 0.852888 0.947269 0.662117
O O1 0.233588 0.891262 0.606767
O O2 0.286652 0.943159 0.813239
O O3 0.187129 0.992886 0.728137
O O4 0.197963 0.863981 0.846481
O O5 0.250000 0.250000 0.698155
O O6 0.221801 0.359842 0.594385
O O7 0.257979 0.347003 0.862776
O O8 0.321777 0.370864 0.674161
O O9 0.750000 0.250000 0.941355
O O10 0.643335 0.274160 0.014026
O O11 0.067958 0.684184 0.140008
O O12 0.086347 0.558254 0.228038
O O13 0.889689 0.711909 0.758203
#
# Coordination Sequence:
#
# PCOD9372432 Si02
#       6
#    16  16  16  16  16  16
#     4  11  26  45  68 106 139 178 236 293 353 409
#     4  11  22  40  69  96 131 177 232 277 338 422
#     4  11  24  45  71 103 135 183 238 279 342 426
#     4  11  24  44  68 100 135 181 230 292 347 411
#     4  11  23  45  73  97 138 188 231 290 349 424
#     4  11  23  45  70  98 138 181 236 278 355 421
#
# _framework density 21.223027999999999
#
# number of rings (size 3 to 8) (size 9 to 14) (size 15 to 20)
#    0.000    1.000    5.000    2.000    2.333    2.000 
#    6.000    0.000    0.000    0.000    0.000    0.000 
#    0.000    0.000    0.000    0.000    0.000    0.000 
#
# Total GULP energy -133901.743569 kJ/mol
# GULP energy per Si atom -5579.239315 kJ/mol
# Density = 2.117472 g / cm^3
# Si number density = 21.223028 Si / 1000 Ang^3
#
#
#
# Elastic Constant Matrix: (Units=GPa)
#
#
# Indices 1 2 3 4 5 6 
#
# 1 38.3516 16.0474 2.3129 0.0000 0.0000 0.0000
# 2 16.0474 72.4299 39.5893 0.0000 0.0000 0.0000
# 3 2.3129 39.5893 85.7900 0.0001 0.0000 0.0000
# 4 0.0000 0.0000 0.0001 23.3688 0.0000 0.0000
# 5 0.0000 0.0000 0.0000 0.0000 24.8058 0.0000
# 6 0.0000 0.0000 0.0000 0.0000 0.0000 19.2813
#
#
#
# Elastic Compliance Matrix: (Units=1/GPa)
#
#
# Indices 1 2 3 4 5 6 
#
# 1 0.029286 -0.008100 0.002948 0.000000 0.000000 0.000000
# 2 -0.008100 0.020704 -0.009336 0.000000 0.000000 0.000000
# 3 0.002948 -0.009336 0.015885 0.000000 0.000000 0.000000
# 4 0.000000 0.000000 0.000000 0.042792 0.000000 0.000000
# 5 0.000000 0.000000 0.000000 0.000000 0.040313 0.000000
# 6 0.000000 0.000000 0.000000 0.000000 0.000000 0.051864
#
#
# Mechanical properties :
#
#
# Convention : Reuss Voigt Hill
#
# Bulk Modulus (GPa) = 27.10030 34.71898 30.90964
# Shear Modulus (GPa) = 20.65100 22.73264 21.69182
#
# Velocity S-wave (km/s) = 3.12275 3.27636 3.20048
# Velocity P-wave (km/s) = 5.07928 5.54142 5.31538
#
# Compressibility (1/GPa) = 0.03689996
#
# Stress axis : x y z
#
# Youngs Moduli (GPa) = 34.14591 48.30003 62.95234
#
# Poissons Ratio (x) = 0.39124 -0.18561
# Poissons Ratio (y) = 0.27659 0.58771
# Poissons Ratio (z) = -0.10067 0.45092
#
# Static dielectric constant tensor:
#      x y z
#    x 1.832180 0.000000 0.000000 
#    y 0.000000 1.842980 0.000000 
#    z 0.000000 0.000000 1.733490 
# 
# From -- ./inp_files/3304.got.cif
#   From: 2010.05.17/outbox.cif.g08.bks.cpg/sg43_2_cif.got.tgz:3304.got - 2010.06.03 19:21:55.
