data_PCOD9372564
_publ_section_title
;
Structure prediction by ZEFSAII (Michael W. Deem and Ramdas Pophale) SiO2 
 PCOD9372564
Probable space group: F D D 2
;
_chemical_formula_sum "Si O2"
_cell_formula_units_Z 96
_cell_length_a 17.150515
_cell_length_b 26.513529
_cell_length_c 7.926676
_cell_angle_alpha 90.000000
_cell_angle_beta 90.000000
_cell_angle_gamma 90.000000
_cell_volume 3604.423476
_symmetry_space_group_name_H-M "F D D 2"
_symmetry_group_IT_number 43
_symmetry_cell_setting 'orthorhombic'
loop_
_space_group_symop_operation_xyz
x,y,z
-x,-y,z
1/4-x,1/4+y,1/4+z
1/4+x,1/4-y,1/4+z
x,1/2+y,1/2+z
-x,1/2-y,1/2+z
1/4-x,3/4+y,3/4+z
1/4+x,3/4-y,3/4+z
1/2+x,y,1/2+z
1/2-x,-y,1/2+z
3/4-x,1/4+y,3/4+z
3/4+x,1/4-y,3/4+z
1/2+x,1/2+y,z
1/2-x,1/2-y,z
3/4-x,3/4+y,1/4+z
3/4+x,3/4-y,1/4+z
loop_
_atom_site_type_symbol
_atom_site_label
_atom_site_fract_x
_atom_site_fract_y
_atom_site_fract_z
Si Si1 0.365660 0.801892 0.498610
Si Si2 0.274983 0.567541 0.437379
Si Si3 0.724636 0.333862 0.260136
Si Si4 0.766017 0.121418 0.888187
Si Si5 0.402186 0.953453 0.465502
Si Si6 0.851307 0.969146 0.331850
O O1 0.438718 0.803692 0.367735
O O2 0.295146 0.818197 0.379056
O O3 0.402013 0.840133 0.638434
O O4 0.344097 0.749793 0.589408
O O5 0.311106 0.617541 0.356084
O O6 0.181705 0.572588 0.434004
O O7 0.296533 0.517277 0.337382
O O8 0.665387 0.287870 0.227933
O O9 0.745739 0.352922 0.070960
O O10 0.779597 0.162275 0.737676
O O11 0.697875 0.081970 0.853277
O O12 0.395059 0.973451 0.655555
#
# Coordination Sequence:
#
# PCOD9372564 Si02
#       6
#    16  16  16  16  16  16
#     4  12  25  45  78 120 163 218 284 341 419 510
#     4  12  23  43  78 114 163 214 273 341 420 501
#     4  11  27  47  75 121 167 218 279 351 422 508
#     4  11  23  45  79 115 167 214 279 344 419 507
#     4  11  23  44  77 114 157 217 274 335 417 493
#     4  11  25  48  75 116 165 220 275 345 425 502
#
# _framework density 26.633939999999999
#
# number of rings (size 3 to 8) (size 9 to 14) (size 15 to 20)
#    0.000    0.667    5.000    2.000    2.333    2.000 
#    0.000    3.333    0.000   10.000    0.000    0.000 
#    0.000    0.000    0.000    0.000    0.000    0.000 
#
# Total GULP energy -134501.885668 kJ/mol
# GULP energy per Si atom -5604.245236 kJ/mol
# Density = 2.657332 g / cm^3
# Si number density = 26.633940 Si / 1000 Ang^3
#
#
#
# Elastic Constant Matrix: (Units=GPa)
#
#
# Indices 1 2 3 4 5 6 
#
# 1 120.5145 34.7716 46.8874 0.0000 0.0000 0.0000
# 2 34.7716 117.7065 67.4282 0.0000 0.0000 0.0000
# 3 46.8874 67.4282 161.5110 0.0000 0.0000 0.0000
# 4 0.0000 0.0000 0.0000 61.9692 0.0000 0.0000
# 5 0.0000 0.0000 0.0000 0.0000 43.3097 0.0000
# 6 0.0000 0.0000 0.0000 0.0000 0.0000 31.5315
#
#
#
# Elastic Compliance Matrix: (Units=1/GPa)
#
#
# Indices 1 2 3 4 5 6 
#
# 1 0.009586 -0.001627 -0.002104 0.000000 0.000000 0.000000
# 2 -0.001627 0.011442 -0.004305 0.000000 0.000000 0.000000
# 3 -0.002104 -0.004305 0.008599 0.000000 0.000000 0.000000
# 4 0.000000 0.000000 0.000000 0.016137 0.000000 0.000000
# 5 0.000000 0.000000 0.000000 0.000000 0.023089 0.000000
# 6 0.000000 0.000000 0.000000 0.000000 0.000000 0.031714
#
#
# Mechanical properties :
#
#
# Convention : Reuss Voigt Hill
#
# Bulk Modulus (GPa) = 73.76167 77.54515 75.65341
# Shear Modulus (GPa) = 41.26880 44.07173 42.67027
#
# Velocity S-wave (km/s) = 3.94062 4.07224 4.00697
# Velocity P-wave (km/s) = 6.96127 7.16165 7.06217
#
# Compressibility (1/GPa) = 0.01355718
#
# Stress axis : x y z
#
# Youngs Moduli (GPa) = 104.32405 87.39602 116.28745
#
# Poissons Ratio (x) = 0.14216 0.24463
# Poissons Ratio (y) = 0.16969 0.50058
# Poissons Ratio (z) = 0.21946 0.37622
#
# Static dielectric constant tensor:
#      x y z
#    x 2.118530 0.000000 0.000000 
#    y 0.000000 2.135910 0.000000 
#    z 0.000000 0.000000 2.084750 
# 
# From -- ./inp_files/3713.got.cif
#   From: 2010.05.17/outbox.cif.g08.bks.cpg/sg43_2_cif.got.tgz:3713.got - 2010.06.03 19:21:55.
