data_PCOD9372316
_publ_section_title
;
Structure prediction by ZEFSAII (Michael W. Deem and Ramdas Pophale) SiO2 
 PCOD9372316
Probable space group: F D D 2
;
_chemical_formula_sum "Si O2"
_cell_formula_units_Z 56
_cell_length_a 21.170133
_cell_length_b 22.560347
_cell_length_c 4.894758
_cell_angle_alpha 90.000000
_cell_angle_beta 90.000000
_cell_angle_gamma 90.000000
_cell_volume 2337.763570
_symmetry_space_group_name_H-M "F D D 2"
_symmetry_group_IT_number 43
_symmetry_cell_setting 'orthorhombic'
loop_
_space_group_symop_operation_xyz
x,y,z
-x,-y,z
1/4-x,1/4+y,1/4+z
1/4+x,1/4-y,1/4+z
x,1/2+y,1/2+z
-x,1/2-y,1/2+z
1/4-x,3/4+y,3/4+z
1/4+x,3/4-y,3/4+z
1/2+x,y,1/2+z
1/2-x,-y,1/2+z
3/4-x,1/4+y,3/4+z
3/4+x,1/4-y,3/4+z
1/2+x,1/2+y,z
1/2-x,1/2-y,z
3/4-x,3/4+y,1/4+z
3/4+x,3/4-y,1/4+z
loop_
_atom_site_type_symbol
_atom_site_label
_atom_site_fract_x
_atom_site_fract_y
_atom_site_fract_z
Si Si1 0.890972 0.090276 0.125000
Si Si2 0.250000 0.250000 0.214784
Si Si3 0.864247 0.665798 0.107745
Si Si4 0.710001 0.996004 0.647250
O O1 0.895324 0.145686 0.325612
O O2 0.831228 0.057408 0.259590
O O3 0.951037 0.045740 0.115064
O O4 0.868236 0.111373 0.824989
O O5 0.201719 0.297553 0.071288
O O6 0.910995 0.711016 0.253934
O O7 0.753125 0.976197 0.396502
#
# Coordination Sequence:
#
# PCOD9372316 Si02
#       4
#    16   8  16  16
#     4  11  26  45  74 104 141 196 232 299 374 412
#     4  10  28  50  72 114 152 180 260 300 344 466
#     4  11  26  45  74 104 141 196 232 299 374 412
#     4  11  24  43  68 105 140 177 244 296 348 445
#
# _framework density 23.954518
#
# number of rings (size 3 to 8) (size 9 to 14) (size 15 to 20)
#    0.000    1.143    0.000    3.429   12.000    9.143 
#    0.000    0.000    0.000    0.000    0.000    0.000 
#    0.000    0.000    0.000    0.000    0.000    0.000 
#
# Total GULP energy -78093.090654 kJ/mol
# GULP energy per Si atom -5578.077904 kJ/mol
# Density = 2.390000 g / cm^3
# Si number density = 23.954518 Si / 1000 Ang^3
#
#
#
# Elastic Constant Matrix: (Units=GPa)
#
#
# Indices 1 2 3 4 5 6 
#
# 1 137.3610 46.7044 40.7430 0.0049 0.0095 0.0154
# 2 46.7044 53.9227 24.8427 -0.0280 0.0168 0.0344
# 3 40.7430 24.8427 122.4536 -0.0226 0.0162 0.0142
# 4 0.0049 -0.0280 -0.0226 58.7044 0.0002 0.0282
# 5 0.0095 0.0168 0.0162 0.0002 3.9717 -0.0197
# 6 0.0154 0.0344 0.0142 0.0282 -0.0197 34.5842
#
#
#
# Elastic Compliance Matrix: (Units=1/GPa)
#
#
# Indices 1 2 3 4 5 6 
#
# 1 0.010686 -0.008403 -0.001851 -0.000006 0.000018 0.000004
# 2 -0.008403 0.027065 -0.002695 0.000013 -0.000084 -0.000022
# 3 -0.001851 -0.002695 0.009329 0.000002 -0.000022 0.000000
# 4 -0.000006 0.000013 0.000002 0.017035 -0.000001 -0.000014
# 5 0.000018 -0.000084 -0.000022 -0.000001 0.251784 0.000144
# 6 0.000004 -0.000022 0.000000 -0.000014 0.000144 0.028915
#
#
# Mechanical properties :
#
#
# Convention : Reuss Voigt Hill
#
# Bulk Modulus (GPa) = 47.20871 59.81304 53.51088
# Shear Modulus (GPa) = 13.23550 32.88187 23.05869
#
# Velocity S-wave (km/s) = 2.35314 3.70899 3.10595
# Velocity P-wave (km/s) = 5.20898 6.58527 5.93714
#
# Compressibility (1/GPa) = 0.02118253
#
# Stress axis : x y z
#
# Youngs Moduli (GPa) = 93.57891 36.94838 107.19408
#
# Poissons Ratio (x) = 0.31048 0.19839
# Poissons Ratio (y) = 0.78634 0.28887
# Poissons Ratio (z) = 0.17319 0.09957
#
# Static dielectric constant tensor:
#      x y z
#    x 1.982920 -0.000050 0.000030 
#    y -0.000050 1.873970 0.000060 
#    z 0.000030 0.000060 1.878040 
# 
# From -- ./inp_files/440.got.cif
#   From: 2010.05.17/outbox.cif.g08.bks.cpg/sg43_1_cif.got.tgz:440.got - 2010.06.03 19:21:55.
