data_PCOD9372112
_publ_section_title
;
Structure prediction by ZEFSAII (Michael W. Deem and Ramdas Pophale) SiO2 
 PCOD9372112
Probable space group: F D D 2
;
_chemical_formula_sum "Si O2"
_cell_formula_units_Z 64
_cell_length_a 14.857184
_cell_length_b 13.859564
_cell_length_c 12.717306
_cell_angle_alpha 90.000000
_cell_angle_beta 90.000000
_cell_angle_gamma 90.000000
_cell_volume 2618.672524
_symmetry_space_group_name_H-M "F D D 2"
_symmetry_group_IT_number 43
_symmetry_cell_setting 'orthorhombic'
loop_
_space_group_symop_operation_xyz
x,y,z
-x,-y,z
1/4-x,1/4+y,1/4+z
1/4+x,1/4-y,1/4+z
x,1/2+y,1/2+z
-x,1/2-y,1/2+z
1/4-x,3/4+y,3/4+z
1/4+x,3/4-y,3/4+z
1/2+x,y,1/2+z
1/2-x,-y,1/2+z
3/4-x,1/4+y,3/4+z
3/4+x,1/4-y,3/4+z
1/2+x,1/2+y,z
1/2-x,1/2-y,z
3/4-x,3/4+y,1/4+z
3/4+x,3/4-y,1/4+z
loop_
_atom_site_type_symbol
_atom_site_label
_atom_site_fract_x
_atom_site_fract_y
_atom_site_fract_z
Si Si1 0.208643 0.493461 0.806990
Si Si2 0.224085 0.946775 0.526711
Si Si3 0.929126 0.412966 0.487646
Si Si4 0.329016 0.676792 0.190338
O O1 0.209701 0.417170 0.903197
O O2 0.287769 0.570423 0.805109
O O3 0.205679 0.429971 0.704619
O O4 0.117434 0.552703 0.824766
O O5 0.184188 0.878388 0.617247
O O6 0.331782 0.944387 0.527726
O O7 0.165314 0.045474 0.514021
O O8 0.000000 0.500000 0.496657
O O9 0.250000 0.750000 0.214897
#
# Coordination Sequence:
#
# PCOD9372112 Si02
#       4
#    16  16  16  16
#     4  10  26  45  74 108 144 196 242 309 368 449
#     4  10  26  45  76 107 151 193 249 305 377 455
#     4  12  26  47  75 111 154 195 249 316 383 446
#     4  10  24  45  75 104 145 191 251 300 368 449
#
# _framework density 24.439864
#
# number of rings (size 3 to 8) (size 9 to 14) (size 15 to 20)
#    1.500    0.000    0.000    3.000    7.000    3.000 
#    0.000    0.000    0.000    0.000    0.000    0.000 
#    0.000    0.000    0.000    0.000    0.000    0.000 
#
# Total GULP energy -89189.328889 kJ/mol
# GULP energy per Si atom -5574.333056 kJ/mol
# Density = 2.438424 g / cm^3
# Si number density = 24.439864 Si / 1000 Ang^3
#
#
#
# Elastic Constant Matrix: (Units=GPa)
#
#
# Indices 1 2 3 4 5 6 
#
# 1 134.3432 37.1548 17.4375 0.0000 0.0000 0.0000
# 2 37.1548 85.8418 17.0958 0.0000 0.0000 0.0000
# 3 17.4375 17.0958 85.9343 0.0000 0.0000 0.0000
# 4 0.0000 0.0000 0.0000 34.5038 0.0000 0.0000
# 5 0.0000 0.0000 0.0000 0.0000 30.9359 0.0000
# 6 0.0000 0.0000 0.0000 0.0000 0.0000 28.8964
#
#
#
# Elastic Compliance Matrix: (Units=1/GPa)
#
#
# Indices 1 2 3 4 5 6 
#
# 1 0.008544 -0.003491 -0.001039 0.000000 0.000000 0.000000
# 2 -0.003491 0.013556 -0.001989 0.000000 0.000000 0.000000
# 3 -0.001039 -0.001989 0.012243 0.000000 0.000000 0.000000
# 4 0.000000 0.000000 0.000000 0.028982 0.000000 0.000000
# 5 0.000000 0.000000 0.000000 0.000000 0.032325 0.000000
# 6 0.000000 0.000000 0.000000 0.000000 0.000000 0.034606
#
#
# Mechanical properties :
#
#
# Convention : Reuss Voigt Hill
#
# Bulk Modulus (GPa) = 46.93506 49.94392 48.43949
# Shear Modulus (GPa) = 33.24534 34.49597 33.87066
#
# Velocity S-wave (km/s) = 3.69221 3.76102 3.72678
# Velocity P-wave (km/s) = 6.11740 6.27217 6.19527
#
# Compressibility (1/GPa) = 0.02130603
#
# Stress axis : x y z
#
# Youngs Moduli (GPa) = 117.04067 73.76576 81.67763
#
# Poissons Ratio (x) = 0.25753 0.08488
# Poissons Ratio (y) = 0.40861 0.16242
# Poissons Ratio (z) = 0.12163 0.14668
#
# Static dielectric constant tensor:
#      x y z
#    x 1.940150 0.000000 0.000000 
#    y 0.000000 1.923380 0.000000 
#    z 0.000000 0.000000 2.041690 
# 
# From -- ./inp_files/9906.got.cif
#   From: 2010.05.17/outbox.cif.g08.bks.cpg/sg43_5_cif.got.tgz:9906.got - 2010.06.03 19:21:55.
