data_PCOD9372117
_publ_section_title
;
Structure prediction by ZEFSAII (Michael W. Deem and Ramdas Pophale) SiO2 
 PCOD9372117
Probable space group: F D D 2
;
_chemical_formula_sum "Si O2"
_cell_formula_units_Z 72
_cell_length_a 9.621284
_cell_length_b 12.923604
_cell_length_c 26.924512
_cell_angle_alpha 90.000000
_cell_angle_beta 90.000000
_cell_angle_gamma 90.000000
_cell_volume 3347.838635
_symmetry_space_group_name_H-M "F D D 2"
_symmetry_group_IT_number 43
_symmetry_cell_setting 'orthorhombic'
loop_
_space_group_symop_operation_xyz
x,y,z
-x,-y,z
1/4-x,1/4+y,1/4+z
1/4+x,1/4-y,1/4+z
x,1/2+y,1/2+z
-x,1/2-y,1/2+z
1/4-x,3/4+y,3/4+z
1/4+x,3/4-y,3/4+z
1/2+x,y,1/2+z
1/2-x,-y,1/2+z
3/4-x,1/4+y,3/4+z
3/4+x,1/4-y,3/4+z
1/2+x,1/2+y,z
1/2-x,1/2-y,z
3/4-x,3/4+y,1/4+z
3/4+x,3/4-y,1/4+z
loop_
_atom_site_type_symbol
_atom_site_label
_atom_site_fract_x
_atom_site_fract_y
_atom_site_fract_z
Si Si1 0.750000 0.250000 0.663530
Si Si2 0.965350 0.166671 0.840384
Si Si3 0.250000 0.750000 0.905831
Si Si4 0.130473 0.169441 0.983611
Si Si5 0.134342 0.683303 0.001335
Si Si6 0.000000 0.500000 0.062854
O O1 0.832152 0.322003 0.625214
O O2 0.660610 0.328032 0.696472
O O3 0.128952 0.190803 0.842578
O O4 0.878383 0.254871 0.867658
O O5 0.927222 0.135709 0.784709
O O6 0.211085 0.663616 0.948237
O O7 0.250000 0.250000 0.967731
O O8 0.994912 0.240529 0.991792
O O9 0.250000 0.750000 0.030731
O O10 0.081706 0.582585 0.028961
#
# Coordination Sequence:
#
# PCOD9372117 Si02
#       6
#     8  16   8  16  16   8
#     4  12  25  46  75 108 156 197 250 319 380 462
#     4  12  26  45  74 111 147 198 258 315 392 465
#     4  10  25  42  68 107 144 191 248 307 390 456
#     4  12  25  46  75 108 151 204 259 315 392 467
#     4  10  24  46  67 103 145 197 247 308 387 455
#     4  12  26  48  73 109 154 194 260 318 380 474
#
# _framework density 21.506412999999998
#
# number of rings (size 3 to 8) (size 9 to 14) (size 15 to 20)
#    0.667    0.000    5.556    0.667   10.889    0.000 
#    0.000    2.222    0.000    0.000    0.000    0.000 
#    0.000    0.000    0.000    0.000    0.000    0.000 
#
# Total GULP energy -100304.732679 kJ/mol
# GULP energy per Si atom -5572.485149 kJ/mol
# Density = 2.145746 g / cm^3
# Si number density = 21.506413 Si / 1000 Ang^3
#
#
#
# Elastic Constant Matrix: (Units=GPa)
#
#
# Indices 1 2 3 4 5 6 
#
# 1 115.6804 40.5794 19.8739 0.0000 0.0000 0.0000
# 2 40.5794 98.2269 47.8089 0.0000 0.0000 0.0000
# 3 19.8739 47.8089 107.4241 0.0000 0.0000 0.0000
# 4 0.0000 0.0000 0.0000 28.7519 0.0000 0.0000
# 5 0.0000 0.0000 0.0000 0.0000 37.7146 0.0000
# 6 0.0000 0.0000 0.0000 0.0000 0.0000 36.2266
#
#
#
# Elastic Compliance Matrix: (Units=1/GPa)
#
#
# Indices 1 2 3 4 5 6 
#
# 1 0.010110 -0.004169 -0.000015 0.000000 0.000000 0.000000
# 2 -0.004169 0.014715 -0.005778 0.000000 0.000000 0.000000
# 3 -0.000015 -0.005778 0.011883 0.000000 0.000000 0.000000
# 4 0.000000 0.000000 0.000000 0.034780 0.000000 0.000000
# 5 0.000000 0.000000 0.000000 0.000000 0.026515 0.000000
# 6 0.000000 0.000000 0.000000 0.000000 0.000000 0.027604
#
#
# Mechanical properties :
#
#
# Convention : Reuss Voigt Hill
#
# Bulk Modulus (GPa) = 59.57956 59.76174 59.67065
# Shear Modulus (GPa) = 33.08528 34.74324 33.91426
#
# Velocity S-wave (km/s) = 3.92649 4.02367 3.97537
# Velocity P-wave (km/s) = 6.95124 7.03098 6.99122
#
# Compressibility (1/GPa) = 0.01678428
#
# Stress axis : x y z
#
# Youngs Moduli (GPa) = 98.91610 67.95817 84.15448
#
# Poissons Ratio (x) = 0.28334 0.00124
# Poissons Ratio (y) = 0.41241 0.48620
# Poissons Ratio (z) = 0.00146 0.39263
#
# Static dielectric constant tensor:
#      x y z
#    x 2.022130 0.000000 0.000000 
#    y 0.000000 2.163310 0.000000 
#    z 0.000000 0.000000 1.779590 
# 
# From -- ./inp_files/24005.got.cif
#   From: 2010.05.17/outbox.cif.g08.bks.cpg/sg43_13_cif.got.tgz:24005.got - 2010.06.03 19:21:55.
