data_PCOD9372214
_publ_section_title
;
Structure prediction by ZEFSAII (Michael W. Deem and Ramdas Pophale) SiO2 
 PCOD9372214
Probable space group: F D D 2
;
_chemical_formula_sum "Si O2"
_cell_formula_units_Z 64
_cell_length_a 14.521986
_cell_length_b 11.223270
_cell_length_c 16.160510
_cell_angle_alpha 90.000000
_cell_angle_beta 90.000000
_cell_angle_gamma 90.000000
_cell_volume 2633.907306
_symmetry_space_group_name_H-M "F D D 2"
_symmetry_group_IT_number 43
_symmetry_cell_setting 'orthorhombic'
loop_
_space_group_symop_operation_xyz
x,y,z
-x,-y,z
1/4-x,1/4+y,1/4+z
1/4+x,1/4-y,1/4+z
x,1/2+y,1/2+z
-x,1/2-y,1/2+z
1/4-x,3/4+y,3/4+z
1/4+x,3/4-y,3/4+z
1/2+x,y,1/2+z
1/2-x,-y,1/2+z
3/4-x,1/4+y,3/4+z
3/4+x,1/4-y,3/4+z
1/2+x,1/2+y,z
1/2-x,1/2-y,z
3/4-x,3/4+y,1/4+z
3/4+x,3/4-y,1/4+z
loop_
_atom_site_type_symbol
_atom_site_label
_atom_site_fract_x
_atom_site_fract_y
_atom_site_fract_z
Si Si1 0.128550 0.800758 0.032060
Si Si2 0.035920 0.633337 0.435935
Si Si3 0.779877 0.957860 0.004480
Si Si4 0.151992 0.792961 0.219581
O O1 0.179139 0.909398 0.984663
O O2 0.161899 0.821530 0.123887
O O3 0.138805 0.662340 0.010334
O O4 0.020379 0.819209 0.015052
O O5 0.143059 0.627670 0.463241
O O6 0.000000 0.500000 0.424058
O O7 0.995427 0.694704 0.352699
O O8 0.677621 0.943909 0.969039
O O9 0.250000 0.750000 0.253931
#
# Coordination Sequence:
#
# PCOD9372214 Si02
#       4
#    16  16  16  16
#     4  11  25  49  74 107 153 202 255 311 399 479
#     4  10  25  45  75 110 147 201 258 318 386 468
#     4  11  25  47  75 108 152 201 258 319 390 471
#     4  12  27  45  76 111 152 199 252 324 394 473
#
# _framework density 24.298501000000002
#
# number of rings (size 3 to 8) (size 9 to 14) (size 15 to 20)
#    0.000    1.000    2.500    2.250   10.500    2.000 
#    0.000    0.000    0.000    0.000    0.000    0.000 
#    0.000    0.000    0.000    0.000    0.000    0.000 
#
# Total GULP energy -89137.795287 kJ/mol
# GULP energy per Si atom -5571.112205 kJ/mol
# Density = 2.424320 g / cm^3
# Si number density = 24.298501 Si / 1000 Ang^3
#
#
#
# Elastic Constant Matrix: (Units=GPa)
#
#
# Indices 1 2 3 4 5 6 
#
# 1 209.9744 37.5779 9.4086 0.0000 0.0000 0.0000
# 2 37.5779 79.7999 14.5887 0.0000 0.0000 0.0000
# 3 9.4086 14.5887 55.2312 0.0000 0.0000 0.0000
# 4 0.0000 0.0000 0.0000 33.0175 0.0000 0.0000
# 5 0.0000 0.0000 0.0000 0.0000 40.4707 0.0000
# 6 0.0000 0.0000 0.0000 0.0000 0.0000 37.0576
#
#
#
# Elastic Compliance Matrix: (Units=1/GPa)
#
#
# Indices 1 2 3 4 5 6 
#
# 1 0.005204 -0.002405 -0.000251 0.000000 0.000000 0.000000
# 2 -0.002405 0.014278 -0.003362 0.000000 0.000000 0.000000
# 3 -0.000251 -0.003362 0.019037 0.000000 0.000000 0.000000
# 4 0.000000 0.000000 0.000000 0.030287 0.000000 0.000000
# 5 0.000000 0.000000 0.000000 0.000000 0.024709 0.000000
# 6 0.000000 0.000000 0.000000 0.000000 0.000000 0.026985
#
#
# Mechanical properties :
#
#
# Convention : Reuss Voigt Hill
#
# Bulk Modulus (GPa) = 37.75974 52.01733 44.88854
# Shear Modulus (GPa) = 35.36981 41.00453 38.18717
#
# Velocity S-wave (km/s) = 3.81942 4.11242 3.96862
# Velocity P-wave (km/s) = 5.91813 6.63351 6.28600
#
# Compressibility (1/GPa) = 0.02648323
#
# Stress axis : x y z
#
# Youngs Moduli (GPa) = 192.15624 70.03633 52.53061
#
# Poissons Ratio (x) = 0.16841 0.01320
# Poissons Ratio (y) = 0.46207 0.17660
# Poissons Ratio (z) = 0.04830 0.23545
#
# Static dielectric constant tensor:
#      x y z
#    x 1.979150 0.000000 0.000000 
#    y 0.000000 2.009720 0.000000 
#    z 0.000000 0.000000 2.051830 
# 
# From -- ./inp_files/13110.got.cif
#   From: 2010.05.17/outbox.cif.g08.bks.cpg/sg43_7_cif.got.tgz:13110.got - 2010.06.03 19:21:55.
