data_PCOD9372588
_publ_section_title
;
Structure prediction by ZEFSAII (Michael W. Deem and Ramdas Pophale) SiO2 
 PCOD9372588
Probable space group: F D D 2
;
_chemical_formula_sum "Si O2"
_cell_formula_units_Z 96
_cell_length_a 10.430156
_cell_length_b 16.520873
_cell_length_c 24.663286
_cell_angle_alpha 90.000000
_cell_angle_beta 90.000000
_cell_angle_gamma 90.000000
_cell_volume 4249.861098
_symmetry_space_group_name_H-M "F D D 2"
_symmetry_group_IT_number 43
_symmetry_cell_setting 'orthorhombic'
loop_
_space_group_symop_operation_xyz
x,y,z
-x,-y,z
1/4-x,1/4+y,1/4+z
1/4+x,1/4-y,1/4+z
x,1/2+y,1/2+z
-x,1/2-y,1/2+z
1/4-x,3/4+y,3/4+z
1/4+x,3/4-y,3/4+z
1/2+x,y,1/2+z
1/2-x,-y,1/2+z
3/4-x,1/4+y,3/4+z
3/4+x,1/4-y,3/4+z
1/2+x,1/2+y,z
1/2-x,1/2-y,z
3/4-x,3/4+y,1/4+z
3/4+x,3/4-y,1/4+z
loop_
_atom_site_type_symbol
_atom_site_label
_atom_site_fract_x
_atom_site_fract_y
_atom_site_fract_z
Si Si1 0.135010 0.342126 0.319940
Si Si2 0.500000 0.000000 0.923182
Si Si3 0.250000 0.750000 0.730043
Si Si4 0.168449 0.358581 0.141058
Si Si5 0.729095 0.502466 0.339304
Si Si6 0.490298 0.830136 0.983188
Si Si7 0.500000 0.000000 0.191061
Si Si8 0.250000 0.250000 0.419750
O O1 0.139307 0.274368 0.273366
O O2 0.225525 0.418348 0.306490
O O3 0.192090 0.313470 0.377216
O O4 0.993854 0.366760 0.337179
O O5 0.616112 0.014125 0.881397
O O6 0.507187 0.920359 0.960317
O O7 0.253380 0.830007 0.692592
O O8 0.067683 0.427752 0.157495
O O9 0.095589 0.276789 0.126080
O O10 0.704826 0.431608 0.296030
O O11 0.628930 0.787699 0.973080
O O12 0.370292 0.787039 0.952330
#
# Coordination Sequence:
#
# PCOD9372588 Si02
#       8
#    16   8   8  16  16  16   8   8
#     4  11  24  45  76 109 143 201 261 305 374 463
#     4  12  27  53  71 112 159 192 258 322 388 460
#     4  11  26  45  77 110 149 208 253 313 380 460
#     4  12  25  47  72 114 156 196 253 322 379 461
#     4  12  26  46  76 108 151 201 253 320 384 461
#     4  12  27  48  77 110 151 206 247 318 386 455
#     4  12  26  46  74 113 155 194 248 320 388 438
#     4  11  23  48  74 101 145 196 259 303 370 462
#
# _framework density 22.588974
#
# number of rings (size 3 to 8) (size 9 to 14) (size 15 to 20)
#    0.000    0.333    6.667    1.500    4.667    0.667 
#    3.000    0.000    0.000    0.000    0.000    0.000 
#    0.000    0.000    0.000    0.000    0.000    0.000 
#
# Total GULP energy -133968.981758 kJ/mol
# GULP energy per Si atom -5582.040907 kJ/mol
# Density = 2.253756 g / cm^3
# Si number density = 22.588974 Si / 1000 Ang^3
#
#
#
# Elastic Constant Matrix: (Units=GPa)
#
#
# Indices 1 2 3 4 5 6 
#
# 1 61.1705 30.0970 -0.5242 0.0000 0.0000 0.0000
# 2 30.0970 102.4804 41.5989 0.0000 0.0000 0.0000
# 3 -0.5242 41.5989 87.3285 0.0000 0.0000 0.0000
# 4 0.0000 0.0000 0.0000 -53.2345 0.0000 0.0000
# 5 0.0000 0.0000 0.0000 0.0000 10.4315 0.0000
# 6 0.0000 0.0000 0.0000 0.0000 0.0000 35.5441
#
#
#
# Elastic Compliance Matrix: (Units=1/GPa)
#
#
# Indices 1 2 3 4 5 6 
#
# 1 0.019989 -0.007338 0.003616 0.000000 0.000000 0.000000
# 2 -0.007338 0.014791 -0.007090 0.000000 0.000000 0.000000
# 3 0.003616 -0.007090 0.014850 0.000000 0.000000 0.000000
# 4 0.000000 0.000000 0.000000 -0.018785 0.000000 0.000000
# 5 0.000000 0.000000 0.000000 0.000000 0.095864 0.000000
# 6 0.000000 0.000000 0.000000 0.000000 0.000000 0.028134
#
#
# Mechanical properties :
#
#
# Convention : Reuss Voigt Hill
#
# Bulk Modulus (GPa) = 35.70743 43.70252 39.70498
# Shear Modulus (GPa) = 26.91022 10.53540 18.72281
#
# Velocity S-wave (km/s) = 3.45526 2.16196 2.88209
# Velocity P-wave (km/s) = 5.63562 5.06171 5.35636
#
# Compressibility (1/GPa) = 0.02800538
#
# Stress axis : x y z
#
# Youngs Moduli (GPa) = 50.02691 67.60899 67.34055
#
# Poissons Ratio (x) = 0.49613 -0.24347
# Poissons Ratio (y) = 0.36711 0.47742
# Poissons Ratio (z) = -0.18087 0.47933
#
# Static dielectric constant tensor:
#      x y z
#    x 1.451860 0.000000 0.000000 
#    y 0.000000 1.675450 0.000000 
#    z 0.000000 0.000000 1.818840 
# 
# From -- ./inp_files/21114.got.cif
#   From: 2010.05.17/outbox.cif.g08.bks.cpg/sg43_11_cif.got.tgz:21114.got - 2010.06.03 19:21:55.
