data_PCOD9372106
_publ_section_title
;
Structure prediction by ZEFSAII (Michael W. Deem and Ramdas Pophale) SiO2 
 PCOD9372106
Probable space group: F D D 2
;
_chemical_formula_sum "Si O2"
_cell_formula_units_Z 104
_cell_length_a 8.640760
_cell_length_b 28.261850
_cell_length_c 17.546283
_cell_angle_alpha 90.000000
_cell_angle_beta 90.000000
_cell_angle_gamma 90.000000
_cell_volume 4284.870090
_symmetry_space_group_name_H-M "F D D 2"
_symmetry_group_IT_number 43
_symmetry_cell_setting 'orthorhombic'
loop_
_space_group_symop_operation_xyz
x,y,z
-x,-y,z
1/4-x,1/4+y,1/4+z
1/4+x,1/4-y,1/4+z
x,1/2+y,1/2+z
-x,1/2-y,1/2+z
1/4-x,3/4+y,3/4+z
1/4+x,3/4-y,3/4+z
1/2+x,y,1/2+z
1/2-x,-y,1/2+z
3/4-x,1/4+y,3/4+z
3/4+x,1/4-y,3/4+z
1/2+x,1/2+y,z
1/2-x,1/2-y,z
3/4-x,3/4+y,1/4+z
3/4+x,3/4-y,1/4+z
loop_
_atom_site_type_symbol
_atom_site_label
_atom_site_fract_x
_atom_site_fract_y
_atom_site_fract_z
Si Si1 0.220202 0.546022 0.962610
Si Si2 0.229127 0.149621 0.977272
Si Si3 0.922855 0.270738 0.857620
Si Si4 0.500000 0.000000 0.198951
Si Si5 0.057963 0.893431 0.023055
Si Si6 0.033224 0.050240 0.311683
Si Si7 0.223527 0.872999 0.308070
O O1 0.375629 0.576968 0.951783
O O2 0.129170 0.536392 0.886941
O O3 0.273227 0.505676 0.021293
O O4 0.116458 0.581066 0.014956
O O5 0.206136 0.204255 0.997309
O O6 0.204507 0.145348 0.886668
O O7 0.122887 0.112700 0.021083
O O8 0.402980 0.138758 0.997162
O O9 0.750000 0.250000 0.870760
O O10 0.875439 0.327018 0.845262
O O11 0.082981 0.262231 0.905380
O O12 0.119404 0.839947 0.017608
O O13 0.880412 0.081100 0.327827
O O14 0.000000 0.000000 0.273643
#
# Coordination Sequence:
#
# PCOD9372106 Si02
#       7
#    16  16  16   8  16  16  16
#     4   9  21  43  66  98 137 187 246 289 374 446
#     4  12  26  44  74 106 148 195 249 313 389 447
#     4  10  24  45  73 108 144 192 262 307 381 457
#     4  12  26  46  74 114 150 198 262 328 374 466
#     4   9  25  44  65 101 149 185 244 305 376 454
#     4  11  23  42  69 101 141 193 230 306 375 454
#     4  11  24  46  71  98 142 196 242 306 380 461
#
# _framework density 24.271446999999998
#
# number of rings (size 3 to 8) (size 9 to 14) (size 15 to 20)
#    0.923    0.615    3.077    0.000    7.538    1.231 
#    2.769    0.000    0.000    0.000    0.000    0.000 
#    0.000    0.000    0.000    0.000    0.000    0.000 
#
# Total GULP energy -144805.675356 kJ/mol
# GULP energy per Si atom -5569.449052 kJ/mol
# Density = 2.421620 g / cm^3
# Si number density = 24.271447 Si / 1000 Ang^3
#
#
#
# Elastic Constant Matrix: (Units=GPa)
#
#
# Indices 1 2 3 4 5 6 
#
# 1 138.2702 35.2852 27.1627 0.0000 0.0000 0.0000
# 2 35.2852 100.1499 1.1510 0.0000 0.0000 0.0000
# 3 27.1627 1.1510 62.6745 0.0000 0.0000 0.0000
# 4 0.0000 0.0000 0.0000 16.1927 0.0000 0.0000
# 5 0.0000 0.0000 0.0000 0.0000 -20.0477 0.0000
# 6 0.0000 0.0000 0.0000 0.0000 0.0000 26.4476
#
#
#
# Elastic Compliance Matrix: (Units=1/GPa)
#
#
# Indices 1 2 3 4 5 6 
#
# 1 0.008740 -0.003037 -0.003732 0.000000 0.000000 0.000000
# 2 -0.003037 0.011042 0.001113 0.000000 0.000000 0.000000
# 3 -0.003732 0.001113 0.017553 0.000000 0.000000 0.000000
# 4 0.000000 0.000000 0.000000 0.061756 0.000000 0.000000
# 5 0.000000 0.000000 0.000000 0.000000 -0.049881 0.000000
# 6 0.000000 0.000000 0.000000 0.000000 0.000000 0.037811
#
#
# Mechanical properties :
#
#
# Convention : Reuss Voigt Hill
#
# Bulk Modulus (GPa) = 38.42624 47.58804 43.00714
# Shear Modulus (GPa) = 46.72612 20.35155 33.53883
#
# Velocity S-wave (km/s) = 4.39241 2.89882 3.72132
# Velocity P-wave (km/s) = 6.44908 5.55458 6.01847
#
# Compressibility (1/GPa) = 0.02602388
#
# Stress axis : x y z
#
# Youngs Moduli (GPa) = 114.41259 90.56261 56.97178
#
# Poissons Ratio (x) = 0.27500 0.21263
# Poissons Ratio (y) = 0.34742 -0.06342
# Poissons Ratio (z) = 0.42701 -0.10082
#
# Static dielectric constant tensor:
#      x y z
#    x 2.085940 0.000000 0.000000 
#    y 0.000000 2.036480 0.000000 
#    z 0.000000 0.000000 1.946520 
# 
# From -- ./inp_files/16650.got.cif
#   From: 2010.05.17/outbox.cif.g08.bks.cpg/sg43_9_cif.got.tgz:16650.got - 2010.06.03 19:21:55.
