data_PCOD9372510
_publ_section_title
;
Structure prediction by ZEFSAII (Michael W. Deem and Ramdas Pophale) SiO2 
 PCOD9372510
Probable space group: F D D 2
;
_chemical_formula_sum "Si O2"
_cell_formula_units_Z 64
_cell_length_a 10.566212
_cell_length_b 9.406782
_cell_length_c 25.148659
_cell_angle_alpha 90.000000
_cell_angle_beta 90.000000
_cell_angle_gamma 90.000000
_cell_volume 2499.627142
_symmetry_space_group_name_H-M "F D D 2"
_symmetry_group_IT_number 43
_symmetry_cell_setting 'orthorhombic'
loop_
_space_group_symop_operation_xyz
x,y,z
-x,-y,z
1/4-x,1/4+y,1/4+z
1/4+x,1/4-y,1/4+z
x,1/2+y,1/2+z
-x,1/2-y,1/2+z
1/4-x,3/4+y,3/4+z
1/4+x,3/4-y,3/4+z
1/2+x,y,1/2+z
1/2-x,-y,1/2+z
3/4-x,1/4+y,3/4+z
3/4+x,1/4-y,3/4+z
1/2+x,1/2+y,z
1/2-x,1/2-y,z
3/4-x,3/4+y,1/4+z
3/4+x,3/4-y,1/4+z
loop_
_atom_site_type_symbol
_atom_site_label
_atom_site_fract_x
_atom_site_fract_y
_atom_site_fract_z
Si Si1 0.894531 0.619402 0.641510
Si Si2 0.088911 0.108843 0.569313
Si Si3 0.541208 0.241427 0.740984
Si Si4 0.982101 0.267684 0.473002
O O1 0.886909 0.743372 0.598804
O O2 0.767435 0.545365 0.664951
O O3 0.000000 0.500000 0.626009
O O4 0.948360 0.699555 0.693498
O O5 0.999533 0.152176 0.518912
O O6 0.215686 0.037853 0.545324
O O7 0.000000 0.000000 0.601236
O O8 0.346412 0.872520 0.734816
O O9 0.605475 0.392978 0.731593
#
# Coordination Sequence:
#
# PCOD9372510 Si02
#       4
#    16  16  16  16
#     4   9  20  42  70 104 144 193 253 304 375 451
#     4  11  23  41  65 111 148 185 247 312 380 451
#     4   9  20  45  73  99 140 194 248 309 373 443
#     4   9  20  45  74  96 142 197 244 309 375 440
#
# _framework density 25.603818
#
# number of rings (size 3 to 8) (size 9 to 14) (size 15 to 20)
#    0.000    2.500    0.000    2.250    3.500    1.000 
#   18.000    7.500    0.000    0.000    0.000    0.000 
#    0.000    0.000    0.000    0.000    0.000    0.000 
#
# Total GULP energy -89596.651323 kJ/mol
# GULP energy per Si atom -5599.790708 kJ/mol
# Density = 2.554554 g / cm^3
# Si number density = 25.603818 Si / 1000 Ang^3
#
#
#
# Elastic Constant Matrix: (Units=GPa)
#
#
# Indices 1 2 3 4 5 6 
#
# 1 128.6711 108.7671 48.3134 0.0000 0.0000 0.0000
# 2 108.7671 176.2934 69.7931 0.0000 0.0000 0.0000
# 3 48.3134 69.7931 114.9041 0.0000 0.0000 0.0000
# 4 0.0000 0.0000 0.0000 41.9079 0.0000 0.0000
# 5 0.0000 0.0000 0.0000 0.0000 24.3731 0.0000
# 6 0.0000 0.0000 0.0000 0.0000 0.0000 69.9466
#
#
#
# Elastic Compliance Matrix: (Units=1/GPa)
#
#
# Indices 1 2 3 4 5 6 
#
# 1 0.016327 -0.009684 -0.000983 0.000000 0.000000 0.000000
# 2 -0.009684 0.013212 -0.003953 0.000000 0.000000 0.000000
# 3 -0.000983 -0.003953 0.011517 0.000000 0.000000 0.000000
# 4 0.000000 0.000000 0.000000 0.023862 0.000000 0.000000
# 5 0.000000 0.000000 0.000000 0.000000 0.041029 0.000000
# 6 0.000000 0.000000 0.000000 0.000000 0.000000 0.014297
#
#
# Mechanical properties :
#
#
# Convention : Reuss Voigt Hill
#
# Bulk Modulus (GPa) = 84.62997 97.06841 90.84919
# Shear Modulus (GPa) = 32.58978 40.11186 36.35082
#
# Velocity S-wave (km/s) = 3.57157 3.96237 3.77203
# Velocity P-wave (km/s) = 7.08051 7.67645 7.38449
#
# Compressibility (1/GPa) = 0.01181615
#
# Stress axis : x y z
#
# Youngs Moduli (GPa) = 61.24933 75.68819 86.82538
#
# Poissons Ratio (x) = 0.73296 0.08533
# Poissons Ratio (y) = 0.59314 0.34325
# Poissons Ratio (z) = 0.06019 0.29922
#
# Static dielectric constant tensor:
#      x y z
#    x 2.067920 0.000000 0.000000 
#    y 0.000000 2.043780 0.000000 
#    z 0.000000 0.000000 2.065080 
# 
# From -- ./inp_files/27668.got.cif
#   From: 2010.05.17/outbox.cif.g08.bks.cpg/sg43_14_cif.got.tgz:27668.got - 2010.06.03 19:21:55.
