data_PCOD9372628
_publ_section_title
;
Structure prediction by ZEFSAII (Michael W. Deem and Ramdas Pophale) SiO2 
 PCOD9372628
Probable space group: F D D 2
;
_chemical_formula_sum "Si O2"
_cell_formula_units_Z 56
_cell_length_a 25.101421
_cell_length_b 7.438582
_cell_length_c 11.556498
_cell_angle_alpha 90.000000
_cell_angle_beta 90.000000
_cell_angle_gamma 90.000000
_cell_volume 2157.817501
_symmetry_space_group_name_H-M "F D D 2"
_symmetry_group_IT_number 43
_symmetry_cell_setting 'orthorhombic'
loop_
_space_group_symop_operation_xyz
x,y,z
-x,-y,z
1/4-x,1/4+y,1/4+z
1/4+x,1/4-y,1/4+z
x,1/2+y,1/2+z
-x,1/2-y,1/2+z
1/4-x,3/4+y,3/4+z
1/4+x,3/4-y,3/4+z
1/2+x,y,1/2+z
1/2-x,-y,1/2+z
3/4-x,1/4+y,3/4+z
3/4+x,1/4-y,3/4+z
1/2+x,1/2+y,z
1/2-x,1/2-y,z
3/4-x,3/4+y,1/4+z
3/4+x,3/4-y,1/4+z
loop_
_atom_site_type_symbol
_atom_site_label
_atom_site_fract_x
_atom_site_fract_y
_atom_site_fract_z
Si Si1 0.557205 0.924039 0.022650
Si Si2 0.080247 0.809672 0.283958
Si Si3 0.500000 0.500000 0.848562
Si Si4 0.193679 0.253076 0.318885
O O1 0.565648 0.711546 0.047183
O O2 0.500000 0.000000 0.060981
O O3 0.610539 0.005645 0.076243
O O4 0.558872 0.939508 0.883860
O O5 0.036810 0.645800 0.284371
O O6 0.090846 0.897504 0.159161
O O7 0.458007 0.584474 0.943916
O O8 0.250000 0.250000 0.385037
#
# Coordination Sequence:
#
# PCOD9372628 Si02
#       4
#    16  16   8  16
#     4  11  27  45  72 112 155 202 260 319 399 462
#     4  11  24  45  78 111 156 205 255 327 384 465
#     4   8  22  46  72 116 144 194 260 310 384 452
#     4   9  22  45  71 106 153 190 246 324 374 461
#
# _framework density 25.952147
#
# number of rings (size 3 to 8) (size 9 to 14) (size 15 to 20)
#    0.857    1.143    0.000    0.857    4.000   11.429 
#    0.000    0.000    0.000    0.000    0.000    0.000 
#    0.000    0.000    0.000    0.000    0.000    0.000 
#
# Total GULP energy -78056.732263 kJ/mol
# GULP energy per Si atom -5575.480876 kJ/mol
# Density = 2.589308 g / cm^3
# Si number density = 25.952147 Si / 1000 Ang^3
#
#
#
# Elastic Constant Matrix: (Units=GPa)
#
#
# Indices 1 2 3 4 5 6 
#
# 1 161.1824 67.1094 32.8492 0.0000 0.0000 0.0000
# 2 67.1094 97.8515 51.0855 0.0000 0.0000 0.0000
# 3 32.8492 51.0855 128.9911 0.0000 0.0000 0.0000
# 4 0.0000 0.0000 0.0000 34.0709 0.0000 0.0000
# 5 0.0000 0.0000 0.0000 0.0000 27.0345 0.0000
# 6 0.0000 0.0000 0.0000 0.0000 0.0000 50.8140
#
#
#
# Elastic Compliance Matrix: (Units=1/GPa)
#
#
# Indices 1 2 3 4 5 6 
#
# 1 0.008687 -0.006055 0.000186 0.000000 0.000000 0.000000
# 2 -0.006055 0.017104 -0.005232 0.000000 0.000000 0.000000
# 3 0.000186 -0.005232 0.009777 0.000000 0.000000 0.000000
# 4 0.000000 0.000000 0.000000 0.029351 0.000000 0.000000
# 5 0.000000 0.000000 0.000000 0.000000 0.036990 0.000000
# 6 0.000000 0.000000 0.000000 0.000000 0.000000 0.019680
#
#
# Mechanical properties :
#
#
# Convention : Reuss Voigt Hill
#
# Bulk Modulus (GPa) = 74.81648 76.67926 75.74787
# Shear Modulus (GPa) = 33.72785 38.18258 35.95522
#
# Velocity S-wave (km/s) = 3.60893 3.83987 3.72619
# Velocity P-wave (km/s) = 6.80125 7.01926 6.91112
#
# Compressibility (1/GPa) = 0.01336604
#
# Stress axis : x y z
#
# Youngs Moduli (GPa) = 115.11003 58.46731 102.27927
#
# Poissons Ratio (x) = 0.35402 -0.01899
# Poissons Ratio (y) = 0.69699 0.53510
# Poissons Ratio (z) = -0.02137 0.30588
#
# Static dielectric constant tensor:
#      x y z
#    x 2.075290 0.000000 0.000000 
#    y 0.000000 2.194420 0.000000 
#    z 0.000000 0.000000 2.085450 
# 
# From -- ./inp_files/5204.got.cif
#   From: 2010.05.17/outbox.cif.g08.bks.cpg/sg43_3_cif.got.tgz:5204.got - 2010.06.03 19:21:55.
