data_PCOD9372461
_publ_section_title
;
Structure prediction by ZEFSAII (Michael W. Deem and Ramdas Pophale) SiO2 
 PCOD9372461
Probable space group: F D D 2
;
_chemical_formula_sum "Si O2"
_cell_formula_units_Z 64
_cell_length_a 18.779734
_cell_length_b 8.296814
_cell_length_c 18.496263
_cell_angle_alpha 90.000000
_cell_angle_beta 90.000000
_cell_angle_gamma 90.000000
_cell_volume 2881.938990
_symmetry_space_group_name_H-M "F D D 2"
_symmetry_group_IT_number 43
_symmetry_cell_setting 'orthorhombic'
loop_
_space_group_symop_operation_xyz
x,y,z
-x,-y,z
1/4-x,1/4+y,1/4+z
1/4+x,1/4-y,1/4+z
x,1/2+y,1/2+z
-x,1/2-y,1/2+z
1/4-x,3/4+y,3/4+z
1/4+x,3/4-y,3/4+z
1/2+x,y,1/2+z
1/2-x,-y,1/2+z
3/4-x,1/4+y,3/4+z
3/4+x,1/4-y,3/4+z
1/2+x,1/2+y,z
1/2-x,1/2-y,z
3/4-x,3/4+y,1/4+z
3/4+x,3/4-y,1/4+z
loop_
_atom_site_type_symbol
_atom_site_label
_atom_site_fract_x
_atom_site_fract_y
_atom_site_fract_z
Si Si1 0.698082 0.879893 0.684430
Si Si2 0.827817 0.309116 0.037735
Si Si3 0.669481 0.805377 0.051800
Si Si4 0.691284 0.362240 0.704753
O O1 0.750000 0.750000 0.724672
O O2 0.665601 0.785255 0.615049
O O3 0.641520 0.973627 0.732669
O O4 0.757290 0.009995 0.663162
O O5 0.750000 0.250000 0.012206
O O6 0.835435 0.503498 0.037755
O O7 0.750000 0.750000 0.035536
O O8 0.653610 0.778579 0.136687
O O9 0.614089 0.702931 0.004847
O O10 0.750000 0.250000 0.743165
#
# Coordination Sequence:
#
# PCOD9372461 Si02
#       4
#    16  16  16  16
#     4  11  22  44  71 103 142 192 233 301 360 433
#     4  11  22  43  71 104 144 188 239 299 368 430
#     4  11  23  45  69 104 145 188 238 305 362 432
#     4  11  25  45  72 104 149 188 242 301 368 433
#
# _framework density 22.207270999999999
#
# number of rings (size 3 to 8) (size 9 to 14) (size 15 to 20)
#    0.000    1.000    7.500    0.000    3.500    0.000 
#    9.000    1.250    0.000    0.000    0.000    0.000 
#    0.000    0.000    0.000    0.000    0.000    0.000 
#
# Total GULP energy -89153.622697 kJ/mol
# GULP energy per Si atom -5572.101419 kJ/mol
# Density = 2.215673 g / cm^3
# Si number density = 22.207271 Si / 1000 Ang^3
#
#
#
# Elastic Constant Matrix: (Units=GPa)
#
#
# Indices 1 2 3 4 5 6 
#
# 1 154.3271 53.4601 106.7180 0.0000 0.0000 0.0000
# 2 53.4601 94.4352 50.4592 0.0000 0.0000 0.0000
# 3 106.7180 50.4592 124.7053 0.0000 0.0000 0.0000
# 4 0.0000 0.0000 0.0000 42.2730 0.0000 0.0000
# 5 0.0000 0.0000 0.0000 0.0000 40.2590 0.0000
# 6 0.0000 0.0000 0.0000 0.0000 0.0000 54.5654
#
#
#
# Elastic Compliance Matrix: (Units=1/GPa)
#
#
# Indices 1 2 3 4 5 6 
#
# 1 0.016241 -0.002255 -0.012985 0.000000 0.000000 0.000000
# 2 -0.002255 0.013823 -0.003663 0.000000 0.000000 0.000000
# 3 -0.012985 -0.003663 0.020614 0.000000 0.000000 0.000000
# 4 0.000000 0.000000 0.000000 0.023656 0.000000 0.000000
# 5 0.000000 0.000000 0.000000 0.000000 0.024839 0.000000
# 6 0.000000 0.000000 0.000000 0.000000 0.000000 0.018327
#
#
# Mechanical properties :
#
#
# Convention : Reuss Voigt Hill
#
# Bulk Modulus (GPa) = 77.70374 88.30468 83.00421
# Shear Modulus (GPa) = 31.32889 38.27483 34.80186
#
# Velocity S-wave (km/s) = 3.76007 4.15604 3.96300
# Velocity P-wave (km/s) = 7.34282 7.92972 7.64191
#
# Compressibility (1/GPa) = 0.01286939
#
# Stress axis : x y z
#
# Youngs Moduli (GPa) = 61.57437 72.34094 48.51159
#
# Poissons Ratio (x) = 0.16315 0.62994
# Poissons Ratio (y) = 0.13887 0.17771
# Poissons Ratio (z) = 0.79957 0.26501
#
# Static dielectric constant tensor:
#      x y z
#    x 1.814610 0.000000 0.000000 
#    y 0.000000 1.964580 0.000000 
#    z 0.000000 0.000000 1.837160 
# 
# From -- ./inp_files/12506.got.cif
#   From: 2010.05.17/outbox.cif.g08.bks.cpg/sg43_7_cif.got.tgz:12506.got - 2010.06.03 19:21:55.
