data_PCOD9372693
_publ_section_title
;
Structure prediction by ZEFSAII (Michael W. Deem and Ramdas Pophale) SiO2 
 PCOD9372693
Probable space group: F D D 2
;
_chemical_formula_sum "Si O2"
_cell_formula_units_Z 120
_cell_length_a 25.255802
_cell_length_b 22.863738
_cell_length_c 9.541233
_cell_angle_alpha 90.000000
_cell_angle_beta 90.000000
_cell_angle_gamma 90.000000
_cell_volume 5509.509047
_symmetry_space_group_name_H-M "F D D 2"
_symmetry_group_IT_number 43
_symmetry_cell_setting 'orthorhombic'
loop_
_space_group_symop_operation_xyz
x,y,z
-x,-y,z
1/4-x,1/4+y,1/4+z
1/4+x,1/4-y,1/4+z
x,1/2+y,1/2+z
-x,1/2-y,1/2+z
1/4-x,3/4+y,3/4+z
1/4+x,3/4-y,3/4+z
1/2+x,y,1/2+z
1/2-x,-y,1/2+z
3/4-x,1/4+y,3/4+z
3/4+x,1/4-y,3/4+z
1/2+x,1/2+y,z
1/2-x,1/2-y,z
3/4-x,3/4+y,1/4+z
3/4+x,3/4-y,1/4+z
loop_
_atom_site_type_symbol
_atom_site_label
_atom_site_fract_x
_atom_site_fract_y
_atom_site_fract_z
Si Si1 0.776011 0.072626 0.659250
Si Si2 0.250000 0.250000 0.787108
Si Si3 0.286384 0.823941 0.047296
Si Si4 0.579052 0.296066 0.776429
Si Si5 0.681618 0.351555 0.406906
Si Si6 0.353451 0.078917 0.645381
Si Si7 0.563227 0.307932 0.447968
Si Si8 0.432358 0.901535 0.646538
O O1 0.713696 0.077008 0.626829
O O2 0.805537 0.111967 0.544485
O O3 0.792247 0.098600 0.808543
O O4 0.793811 0.005322 0.647753
O O5 0.290933 0.280812 0.680186
O O6 0.275896 0.198734 0.876331
O O7 0.284796 0.889021 0.115980
O O8 0.337217 0.818358 0.949484
O O9 0.232326 0.814291 0.961089
O O10 0.580086 0.228854 0.824890
O O11 0.559715 0.307511 0.617608
O O12 0.639324 0.316985 0.799089
O O13 0.678526 0.397434 0.279184
O O14 0.624987 0.319812 0.416057
O O15 0.350494 0.128800 0.529058
#
# Coordination Sequence:
#
# PCOD9372693 Si02
#       8
#    16   8  16  16  16  16  16  16
#     4  12  27  45  76 107 150 192 248 300 369 445
#     4  12  24  46  74 108 150 190 248 304 364 452
#     4  11  25  46  73 107 146 196 247 307 371 448
#     4  12  26  45  74 106 146 192 240 311 362 442
#     4  11  27  47  74 107 146 200 243 305 369 444
#     4  11  25  44  73 105 141 190 247 298 371 431
#     4  11  26  47  73 106 148 194 248 306 370 438
#     4  12  24  48  69 109 146 190 243 304 371 431
#
# _framework density 21.780525000000001
#
# number of rings (size 3 to 8) (size 9 to 14) (size 15 to 20)
#    0.000    0.533    4.000    3.200    5.600    2.133 
#    2.400    0.000    0.000    0.000    0.000    0.000 
#    0.000    0.000    0.000    0.000    0.000    0.000 
#
# Total GULP energy -167843.315118 kJ/mol
# GULP energy per Si atom -5594.777171 kJ/mol
# Density = 2.173095 g / cm^3
# Si number density = 21.780525 Si / 1000 Ang^3
#
#
#
# Elastic Constant Matrix: (Units=GPa)
#
#
# Indices 1 2 3 4 5 6 
#
# 1 107.9230 13.9181 27.1632 -0.0001 -0.0002 0.0001
# 2 13.9181 79.2087 27.6996 -0.0004 0.0000 0.0003
# 3 27.1632 27.6996 104.9569 0.0000 -0.0003 0.0002
# 4 -0.0001 -0.0004 0.0000 39.4089 -0.0001 0.0002
# 5 -0.0002 0.0000 -0.0003 -0.0001 39.4808 0.0000
# 6 0.0001 0.0003 0.0002 0.0002 0.0000 28.2588
#
#
#
# Elastic Compliance Matrix: (Units=1/GPa)
#
#
# Indices 1 2 3 4 5 6 
#
# 1 0.009974 -0.000936 -0.002334 0.000000 0.000000 0.000000
# 2 -0.000936 0.013996 -0.003452 0.000000 0.000000 0.000000
# 3 -0.002334 -0.003452 0.011043 0.000000 0.000000 0.000000
# 4 0.000000 0.000000 0.000000 0.025375 0.000000 0.000000
# 5 0.000000 0.000000 0.000000 0.000000 0.025329 0.000000
# 6 0.000000 0.000000 0.000000 0.000000 0.000000 0.035387
#
#
# Mechanical properties :
#
#
# Convention : Reuss Voigt Hill
#
# Bulk Modulus (GPa) = 46.36255 47.73893 47.05074
# Shear Modulus (GPa) = 35.27633 36.31686 35.79660
#
# Velocity S-wave (km/s) = 4.02882 4.08781 4.05843
# Velocity P-wave (km/s) = 6.55548 6.65177 6.60380
#
# Compressibility (1/GPa) = 0.02156913
#
# Stress axis : x y z
#
# Youngs Moduli (GPa) = 100.25944 71.44695 90.55732
#
# Poissons Ratio (x) = 0.06690 0.21138
# Poissons Ratio (y) = 0.09387 0.31256
# Poissons Ratio (z) = 0.23403 0.24660
#
# Static dielectric constant tensor:
#      x y z
#    x 1.800810 0.000000 0.000000 
#    y 0.000000 1.800540 0.000000 
#    z 0.000000 0.000000 1.770730 
# 
# From -- ./inp_files/4330.got.cif
#   From: 2010.05.17/outbox.cif.g08.bks.cpg/sg43_3_cif.got.tgz:4330.got - 2010.06.03 19:21:55.
