data_PCOD9372025
_publ_section_title
;
Structure prediction by ZEFSAII (Michael W. Deem and Ramdas Pophale) SiO2 
 PCOD9372025
Probable space group: F D D 2
;
_chemical_formula_sum "Si O2"
_cell_formula_units_Z 96
_cell_length_a 20.485820
_cell_length_b 12.648381
_cell_length_c 15.095378
_cell_angle_alpha 90.000000
_cell_angle_beta 90.000000
_cell_angle_gamma 90.000000
_cell_volume 3911.400475
_symmetry_space_group_name_H-M "F D D 2"
_symmetry_group_IT_number 43
_symmetry_cell_setting 'orthorhombic'
loop_
_space_group_symop_operation_xyz
x,y,z
-x,-y,z
1/4-x,1/4+y,1/4+z
1/4+x,1/4-y,1/4+z
x,1/2+y,1/2+z
-x,1/2-y,1/2+z
1/4-x,3/4+y,3/4+z
1/4+x,3/4-y,3/4+z
1/2+x,y,1/2+z
1/2-x,-y,1/2+z
3/4-x,1/4+y,3/4+z
3/4+x,1/4-y,3/4+z
1/2+x,1/2+y,z
1/2-x,1/2-y,z
3/4-x,3/4+y,1/4+z
3/4+x,3/4-y,1/4+z
loop_
_atom_site_type_symbol
_atom_site_label
_atom_site_fract_x
_atom_site_fract_y
_atom_site_fract_z
Si Si1 0.750000 0.250000 0.389710
Si Si2 0.642796 0.100040 0.688666
Si Si3 0.500000 0.000000 0.495319
Si Si4 0.305292 0.054338 0.310681
Si Si5 0.206245 0.469879 0.944226
Si Si6 0.185572 0.152497 0.721402
Si Si7 0.795016 0.592378 0.586863
O O1 0.773500 0.152849 0.448095
O O2 0.800693 0.300791 0.319438
O O3 0.713711 0.152292 0.701882
O O4 0.609532 0.197717 0.636006
O O5 0.660127 0.990502 0.640809
O O6 0.593118 0.090688 0.772128
O O7 0.447828 0.930505 0.547875
O O8 0.237319 0.015751 0.353683
O O9 0.326428 0.973803 0.235181
O O10 0.128250 0.465222 0.940598
O O11 0.242132 0.533858 0.022272
O O12 0.249545 0.148701 0.659618
#
# Coordination Sequence:
#
# PCOD9372025 Si02
#       7
#     8  16   8  16  16  16  16
#     4  10  24  43  63 100 136 178 226 282 348 413
#     4  11  24  42  65 106 139 184 237 298 360 424
#     4  12  22  41  69  94 148 184 232 316 344 443
#     4  10  24  42  66 103 139 187 238 295 369 420
#     4  10  24  43  70 101 137 182 237 295 352 429
#     4  11  23  44  69 101 140 186 234 286 357 434
#     4  11  24  44  73 106 141 188 240 297 361 426
#
# _framework density 24.543638999999999
#
# number of rings (size 3 to 8) (size 9 to 14) (size 15 to 20)
#    0.000    1.333    3.333    1.000    4.667    2.667 
#    0.000    8.333    0.000    0.000    0.000    0.000 
#    0.000    0.000    0.000    0.000    0.000    0.000 
#
# Total GULP energy -133892.259074 kJ/mol
# GULP energy per Si atom -5578.844128 kJ/mol
# Density = 2.448778 g / cm^3
# Si number density = 24.543639 Si / 1000 Ang^3
#
#
#
# Elastic Constant Matrix: (Units=GPa)
#
#
# Indices 1 2 3 4 5 6 
#
# 1 140.6512 12.8865 40.5554 0.0000 0.0000 0.0000
# 2 12.8865 94.7877 20.2804 0.0000 0.0000 0.0000
# 3 40.5554 20.2804 60.6481 0.0000 0.0000 0.0000
# 4 0.0000 0.0000 0.0000 19.8643 0.0000 0.0000
# 5 0.0000 0.0000 0.0000 0.0000 23.1498 0.0000
# 6 0.0000 0.0000 0.0000 0.0000 0.0000 22.6637
#
#
#
# Elastic Compliance Matrix: (Units=1/GPa)
#
#
# Indices 1 2 3 4 5 6 
#
# 1 0.008809 0.000068 -0.005913 0.000000 0.000000 0.000000
# 2 0.000068 0.011363 -0.003845 0.000000 0.000000 0.000000
# 3 -0.005913 -0.003845 0.021728 0.000000 0.000000 0.000000
# 4 0.000000 0.000000 0.000000 0.050342 0.000000 0.000000
# 5 0.000000 0.000000 0.000000 0.000000 0.043197 0.000000
# 6 0.000000 0.000000 0.000000 0.000000 0.000000 0.044123
#
#
# Mechanical properties :
#
#
# Convention : Reuss Voigt Hill
#
# Bulk Modulus (GPa) = 44.40596 49.28129 46.84362
# Shear Modulus (GPa) = 24.21906 27.95989 26.08948
#
# Velocity S-wave (km/s) = 3.14471 3.37885 3.26388
# Velocity P-wave (km/s) = 5.59620 5.94515 5.77331
#
# Compressibility (1/GPa) = 0.02251950
#
# Stress axis : x y z
#
# Youngs Moduli (GPa) = 113.52669 88.00202 46.02307
#
# Poissons Ratio (x) = -0.00595 0.27213
# Poissons Ratio (y) = -0.00767 0.17696
# Poissons Ratio (z) = 0.67126 0.33837
#
# Static dielectric constant tensor:
#      x y z
#    x 2.031940 0.000000 0.000000 
#    y 0.000000 2.058190 0.000000 
#    z 0.000000 0.000000 1.968780 
# 
# From -- ./inp_files/10120.got.cif
#   From: 2010.05.17/outbox.cif.g08.bks.cpg/sg43_6_cif.got.tgz:10120.got - 2010.06.03 19:21:55.
