data_PCOD9372232
_publ_section_title
;
Structure prediction by ZEFSAII (Michael W. Deem and Ramdas Pophale) SiO2 
 PCOD9372232
Probable space group: F D D 2
;
_chemical_formula_sum "Si O2"
_cell_formula_units_Z 40
_cell_length_a 9.481246
_cell_length_b 29.511162
_cell_length_c 4.847929
_cell_angle_alpha 90.000000
_cell_angle_beta 90.000000
_cell_angle_gamma 90.000000
_cell_volume 1356.463074
_symmetry_space_group_name_H-M "F D D 2"
_symmetry_group_IT_number 43
_symmetry_cell_setting 'orthorhombic'
loop_
_space_group_symop_operation_xyz
x,y,z
-x,-y,z
1/4-x,1/4+y,1/4+z
1/4+x,1/4-y,1/4+z
x,1/2+y,1/2+z
-x,1/2-y,1/2+z
1/4-x,3/4+y,3/4+z
1/4+x,3/4-y,3/4+z
1/2+x,y,1/2+z
1/2-x,-y,1/2+z
3/4-x,1/4+y,3/4+z
3/4+x,1/4-y,3/4+z
1/2+x,1/2+y,z
1/2-x,1/2-y,z
3/4-x,3/4+y,1/4+z
3/4+x,3/4-y,1/4+z
loop_
_atom_site_type_symbol
_atom_site_label
_atom_site_fract_x
_atom_site_fract_y
_atom_site_fract_z
Si Si1 0.777089 0.483387 0.967310
Si Si2 0.500000 0.000000 0.474947
Si Si3 0.089208 0.595923 0.247530
O O1 0.642272 0.489300 0.731443
O O2 0.639585 0.491175 0.206061
O O3 0.827631 0.432528 0.010516
O O4 0.544673 0.056206 0.454687
O O5 0.203908 0.628717 0.381710
#
# Coordination Sequence:
#
# PCOD9372232 Si02
#       3
#    16   8  16
#     4  10  25  48  79 111 158 214 272 349 428 506
#     4  10  26  48  84 110 176 208 288 350 438 510
#     4  11  28  49  82 125 167 225 290 357 441 530
#
# _framework density 29.488454999999998
#
# number of rings (size 3 to 8) (size 9 to 14) (size 15 to 20)
#    0.000    1.600    0.000    0.000   28.000    4.800 
#    0.000    0.000    0.000    0.000    0.000    0.000 
#    0.000    0.000    0.000    0.000    0.000    0.000 
#
# Total GULP energy -55936.858397 kJ/mol
# GULP energy per Si atom -5593.685840 kJ/mol
# Density = 2.942134 g / cm^3
# Si number density = 29.488455 Si / 1000 Ang^3
#
#
#
# Elastic Constant Matrix: (Units=GPa)
#
#
# Indices 1 2 3 4 5 6 
#
# 1 297.4216 77.2432 62.3291 -0.0001 -0.0001 0.0000
# 2 77.2432 208.0497 86.3270 0.0000 -0.0001 0.0000
# 3 62.3291 86.3270 327.0809 -0.0003 -0.0003 0.0001
# 4 -0.0001 0.0000 -0.0003 62.5853 0.0001 0.0000
# 5 -0.0001 -0.0001 -0.0003 0.0001 68.2666 -0.0001
# 6 0.0000 0.0000 0.0001 0.0000 -0.0001 107.8706
#
#
#
# Elastic Compliance Matrix: (Units=1/GPa)
#
#
# Indices 1 2 3 4 5 6 
#
# 1 0.003765 -0.001235 -0.000391 0.000000 0.000000 0.000000
# 2 -0.001235 0.005803 -0.001296 0.000000 0.000000 0.000000
# 3 -0.000391 -0.001296 0.003474 0.000000 0.000000 0.000000
# 4 0.000000 0.000000 0.000000 0.015978 0.000000 0.000000
# 5 0.000000 0.000000 0.000000 0.000000 0.014648 0.000000
# 6 0.000000 0.000000 0.000000 0.000000 0.000000 0.009270
#
#
# Mechanical properties :
#
#
# Convention : Reuss Voigt Hill
#
# Bulk Modulus (GPa) = 138.96410 142.70563 140.83487
# Shear Modulus (GPa) = 81.72059 88.18801 84.95430
#
# Velocity S-wave (km/s) = 5.27000 5.47457 5.37326
# Velocity P-wave (km/s) = 9.17920 9.40531 9.29295
#
# Compressibility (1/GPa) = 0.00719610
#
# Stress axis : x y z
#
# Youngs Moduli (GPa) = 265.59571 172.32246 287.84951
#
# Poissons Ratio (x) = 0.21290 0.11267
# Poissons Ratio (y) = 0.32814 0.37310
# Poissons Ratio (z) = 0.10396 0.22336
#
# Static dielectric constant tensor:
#      x y z
#    x 2.426950 0.000000 0.000000 
#    y 0.000000 2.014830 0.000000 
#    z 0.000000 0.000000 2.302460 
# 
# From -- ./inp_files/139.got.cif
#   From: 2010.05.17/outbox.cif.g08.bks.cpg/sg43_1_cif.got.tgz:139.got - 2010.06.03 19:21:55.
