data_PCOD9372586
_publ_section_title
;
Structure prediction by ZEFSAII (Michael W. Deem and Ramdas Pophale) SiO2 
 PCOD9372586
Probable space group: F D D 2
;
_chemical_formula_sum "Si O2"
_cell_formula_units_Z 88
_cell_length_a 32.943012
_cell_length_b 23.710801
_cell_length_c 5.228522
_cell_angle_alpha 90.000000
_cell_angle_beta 90.000000
_cell_angle_gamma 90.000000
_cell_volume 4084.025732
_symmetry_space_group_name_H-M "F D D 2"
_symmetry_group_IT_number 43
_symmetry_cell_setting 'orthorhombic'
loop_
_space_group_symop_operation_xyz
x,y,z
-x,-y,z
1/4-x,1/4+y,1/4+z
1/4+x,1/4-y,1/4+z
x,1/2+y,1/2+z
-x,1/2-y,1/2+z
1/4-x,3/4+y,3/4+z
1/4+x,3/4-y,3/4+z
1/2+x,y,1/2+z
1/2-x,-y,1/2+z
3/4-x,1/4+y,3/4+z
3/4+x,1/4-y,3/4+z
1/2+x,1/2+y,z
1/2-x,1/2-y,z
3/4-x,3/4+y,1/4+z
3/4+x,3/4-y,1/4+z
loop_
_atom_site_type_symbol
_atom_site_label
_atom_site_fract_x
_atom_site_fract_y
_atom_site_fract_z
Si Si1 0.489430 0.716312 0.022560
Si Si2 0.073533 0.533120 0.971247
Si Si3 0.346392 0.907680 0.787763
Si Si4 0.574871 0.407210 0.535345
Si Si5 0.750000 0.750000 0.356071
Si Si6 0.740613 0.353273 0.505567
O O1 0.506392 0.738725 0.291539
O O2 0.442699 0.698396 0.058826
O O3 0.511989 0.660710 0.913055
O O4 0.083236 0.472713 0.096218
O O5 0.051519 0.579107 0.150592
O O6 0.112502 0.559037 0.838883
O O7 0.038478 0.515615 0.773870
O O8 0.344354 0.880271 0.508444
O O9 0.341358 0.860911 0.009749
O O10 0.526336 0.392850 0.543663
O O11 0.758349 0.804032 0.183856
#
# Coordination Sequence:
#
# PCOD9372586 Si02
#       6
#    16  16  16  16   8  16
#     4  11  25  48  72  99 149 201 234 282 360 455
#     4  12  25  44  75 111 138 190 248 312 361 423
#     4  11  28  45  70 106 149 185 239 299 369 429
#     4  11  23  48  69 101 146 185 228 313 363 421
#     4  12  22  44  78 110 140 186 250 324 356 426
#     4  11  24  43  76 104 135 190 253 296 363 423
#
# _framework density 21.547364999999999
#
# number of rings (size 3 to 8) (size 9 to 14) (size 15 to 20)
#    0.000    0.727    3.636    4.364    5.091    1.455 
#    0.000    3.636    0.000    0.000    0.000    0.000 
#    0.000    0.000    0.000    0.000    0.000    0.000 
#
# Total GULP energy -123116.698878 kJ/mol
# GULP energy per Si atom -5596.213585 kJ/mol
# Density = 2.149832 g / cm^3
# Si number density = 21.547365 Si / 1000 Ang^3
#
#
#
# Elastic Constant Matrix: (Units=GPa)
#
#
# Indices 1 2 3 4 5 6 
#
# 1 132.3089 55.5496 33.8548 -0.0003 0.0196 0.0113
# 2 55.5496 97.0453 12.8310 0.1425 0.0762 -0.0035
# 3 33.8548 12.8310 71.4701 0.1403 0.1192 0.0004
# 4 -0.0003 0.1425 0.1403 42.1030 0.0507 0.0012
# 5 0.0196 0.0762 0.1192 0.0507 -52.4803 0.0125
# 6 0.0113 -0.0035 0.0004 0.0012 0.0125 28.6238
#
#
#
# Elastic Compliance Matrix: (Units=1/GPa)
#
#
# Indices 1 2 3 4 5 6 
#
# 1 0.011057 -0.005774 -0.004201 0.000034 -0.000014 -0.000005
# 2 -0.005774 0.013570 0.000299 -0.000047 0.000018 0.000004
# 3 -0.004201 0.000299 0.015928 -0.000054 0.000035 0.000001
# 4 0.000034 -0.000047 -0.000054 0.023752 0.000023 -0.000001
# 5 -0.000014 0.000018 0.000035 0.000023 -0.019055 0.000008
# 6 -0.000005 0.000004 0.000001 -0.000001 0.000008 0.034936
#
#
# Mechanical properties :
#
#
# Convention : Reuss Voigt Hill
#
# Bulk Modulus (GPa) = 47.16260 56.14391 51.65325
# Shear Modulus (GPa) = 46.90065 16.88858 31.89461
#
# Velocity S-wave (km/s) = 4.67050 2.80266 3.85152
# Velocity P-wave (km/s) = 7.14284 6.04862 6.61838
#
# Compressibility (1/GPa) = 0.02120324
#
# Stress axis : x y z
#
# Youngs Moduli (GPa) = 90.43899 73.69207 62.78122
#
# Poissons Ratio (x) = 0.42548 0.26375
# Poissons Ratio (y) = 0.52218 -0.01876
# Poissons Ratio (z) = 0.37995 -0.02202
#
# Static dielectric constant tensor:
#      x y z
#    x 1.834580 -0.000010 -0.000030 
#    y -0.000010 1.806410 -0.000010 
#    z -0.000030 -0.000010 1.814710 
# 
# From -- ./inp_files/1041.got.cif
#   From: 2010.05.17/outbox.cif.g08.bks.cpg/sg43_1_cif.got.tgz:1041.got - 2010.06.03 19:21:55.
