data_PCOD9372625
_publ_section_title
;
Structure prediction by ZEFSAII (Michael W. Deem and Ramdas Pophale) SiO2 
 PCOD9372625
Probable space group: F D D 2
;
_chemical_formula_sum "Si O2"
_cell_formula_units_Z 88
_cell_length_a 13.098908
_cell_length_b 13.098921
_cell_length_c 22.080766
_cell_angle_alpha 90.000000
_cell_angle_beta 90.000000
_cell_angle_gamma 90.000000
_cell_volume 3788.652300
_symmetry_space_group_name_H-M "F D D 2"
_symmetry_group_IT_number 43
_symmetry_cell_setting 'orthorhombic'
loop_
_space_group_symop_operation_xyz
x,y,z
-x,-y,z
1/4-x,1/4+y,1/4+z
1/4+x,1/4-y,1/4+z
x,1/2+y,1/2+z
-x,1/2-y,1/2+z
1/4-x,3/4+y,3/4+z
1/4+x,3/4-y,3/4+z
1/2+x,y,1/2+z
1/2-x,-y,1/2+z
3/4-x,1/4+y,3/4+z
3/4+x,1/4-y,3/4+z
1/2+x,1/2+y,z
1/2-x,1/2-y,z
3/4-x,3/4+y,1/4+z
3/4+x,3/4-y,1/4+z
loop_
_atom_site_type_symbol
_atom_site_label
_atom_site_fract_x
_atom_site_fract_y
_atom_site_fract_z
Si Si1 0.500000 0.500000 0.943300
Si Si2 0.442961 0.143676 0.235314
Si Si3 0.641987 0.620115 0.387357
Si Si4 0.750000 0.750000 0.556359
Si Si5 0.879885 0.641987 0.362302
Si Si6 0.143676 0.057039 0.514346
Si Si7 0.750000 0.250000 0.374830
O O1 0.466830 0.597498 0.905027
O O2 0.600703 0.526722 0.979329
O O3 0.405607 0.090598 0.297288
O O4 0.547597 0.202403 0.249830
O O5 0.455031 0.082033 0.172906
O O6 0.597498 0.533170 0.344632
O O7 0.765455 0.614314 0.384309
O O8 0.614314 0.734545 0.365350
O O9 0.590598 0.594393 0.452371
O O10 0.776722 0.850702 0.520330
O O11 0.082033 0.044969 0.576753
#
# Coordination Sequence:
#
# PCOD9372625 Si02
#       7
#     8  16  16   8  16  16   8
#     4  12  25  46  73 107 146 199 254 310 378 460
#     4  12  26  49  75 114 154 199 262 315 390 468
#     4  11  24  45  74 111 149 199 258 316 384 456
#     4  12  25  46  73 107 146 199 254 310 378 460
#     4  11  24  45  74 111 149 199 258 316 384 456
#     4  12  26  49  75 114 154 199 262 315 390 468
#     4  12  30  52  80 116 160 206 252 334 408 452
#
# _framework density 23.227257000000002
#
# number of rings (size 3 to 8) (size 9 to 14) (size 15 to 20)
#    0.000    0.364    3.636    5.455    0.000    0.000 
#    0.000    0.000    0.000    0.000    0.000    0.000 
#    0.000    0.000    0.000    0.000    0.000    0.000 
#
# Total GULP energy -122838.665207 kJ/mol
# GULP energy per Si atom -5583.575691 kJ/mol
# Density = 2.317439 g / cm^3
# Si number density = 23.227257 Si / 1000 Ang^3
#
#
#
# Elastic Constant Matrix: (Units=GPa)
#
#
# Indices 1 2 3 4 5 6 
#
# 1 71.8496 36.3666 24.8165 0.0000 0.0000 0.0000
# 2 36.3666 71.8496 24.8165 0.0000 0.0000 0.0000
# 3 24.8165 24.8165 134.6790 0.0000 0.0000 0.0000
# 4 0.0000 0.0000 0.0000 30.3821 0.0000 0.0000
# 5 0.0000 0.0000 0.0000 0.0000 30.3850 0.0000
# 6 0.0000 0.0000 0.0000 0.0000 0.0000 37.1013
#
#
#
# Elastic Compliance Matrix: (Units=1/GPa)
#
#
# Indices 1 2 3 4 5 6 
#
# 1 0.019138 -0.009044 -0.001860 0.000000 0.000000 0.000000
# 2 -0.009044 0.019138 -0.001860 0.000000 0.000000 0.000000
# 3 -0.001860 -0.001860 0.008110 0.000000 0.000000 0.000000
# 4 0.000000 0.000000 0.000000 0.032914 0.000000 0.000000
# 5 0.000000 0.000000 0.000000 0.000000 0.032911 0.000000
# 6 0.000000 0.000000 0.000000 0.000000 0.000000 0.026953
#
#
# Mechanical properties :
#
#
# Convention : Reuss Voigt Hill
#
# Bulk Modulus (GPa) = 47.94229 50.04193 48.99211
# Shear Modulus (GPa) = 29.12965 32.39891 30.76428
#
# Velocity S-wave (km/s) = 3.54519 3.73884 3.64330
# Velocity P-wave (km/s) = 6.11908 6.34270 6.23189
#
# Compressibility (1/GPa) = 0.02085841
#
# Stress axis : x y z
#
# Youngs Moduli (GPa) = 52.25163 52.25163 123.29698
#
# Poissons Ratio (x) = 0.47258 0.22932
# Poissons Ratio (y) = 0.47258 0.22932
# Poissons Ratio (z) = 0.09718 0.09718
#
# Static dielectric constant tensor:
#      x y z
#    x 2.121430 0.000000 0.000000 
#    y 0.000000 2.121430 0.000000 
#    z 0.000000 0.000000 1.985780 
# 
# From -- ./inp_files/17553.got.cif
#   From: 2010.05.17/outbox.cif.g08.bks.cpg/sg43_9_cif.got.tgz:17553.got - 2010.06.03 19:21:55.
