data_PCOD9372320
_publ_section_title
;
Structure prediction by ZEFSAII (Michael W. Deem and Ramdas Pophale) SiO2 
 PCOD9372320
Probable space group: F D D 2
;
_chemical_formula_sum "Si O2"
_cell_formula_units_Z 112
_cell_length_a 12.047306
_cell_length_b 15.188812
_cell_length_c 27.285154
_cell_angle_alpha 90.000000
_cell_angle_beta 90.000000
_cell_angle_gamma 90.000000
_cell_volume 4992.753876
_symmetry_space_group_name_H-M "F D D 2"
_symmetry_group_IT_number 43
_symmetry_cell_setting 'orthorhombic'
loop_
_space_group_symop_operation_xyz
x,y,z
-x,-y,z
1/4-x,1/4+y,1/4+z
1/4+x,1/4-y,1/4+z
x,1/2+y,1/2+z
-x,1/2-y,1/2+z
1/4-x,3/4+y,3/4+z
1/4+x,3/4-y,3/4+z
1/2+x,y,1/2+z
1/2-x,-y,1/2+z
3/4-x,1/4+y,3/4+z
3/4+x,1/4-y,3/4+z
1/2+x,1/2+y,z
1/2-x,1/2-y,z
3/4-x,3/4+y,1/4+z
3/4+x,3/4-y,1/4+z
loop_
_atom_site_type_symbol
_atom_site_label
_atom_site_fract_x
_atom_site_fract_y
_atom_site_fract_z
Si Si1 0.603685 0.375267 0.564630
Si Si2 0.289761 0.847307 0.635276
Si Si3 0.306327 0.958940 0.805164
Si Si4 0.932646 0.338040 0.209045
Si Si5 0.940184 0.407301 0.482138
Si Si6 0.750000 0.750000 0.894048
Si Si7 0.500000 0.500000 0.228660
Si Si8 0.698869 0.094336 0.905926
O O1 0.729996 0.358255 0.583216
O O2 0.510250 0.298501 0.569666
O O3 0.609979 0.402177 0.507998
O O4 0.573376 0.445980 0.605700
O O5 0.250000 0.750000 0.647891
O O6 0.239361 0.893372 0.683911
O O7 0.420955 0.847460 0.639969
O O8 0.213161 0.902096 0.778563
O O9 0.356404 0.908282 0.852371
O O10 0.402860 0.969205 0.765176
O O11 0.934523 0.428000 0.177032
O O12 0.061521 0.327574 0.223565
O O13 0.910466 0.247012 0.180678
O O14 0.000000 0.500000 0.492484
O O15 0.554421 0.424820 0.193866
#
# Coordination Sequence:
#
# PCOD9372320 Si02
#       8
#    16  16  16  16  16   8   8  16
#     4  12  27  41  73 105 140 188 237 296 367 429
#     4  11  18  43  70 101 135 178 232 307 349 418
#     4  12  25  49  69 102 146 188 242 301 357 432
#     4  12  24  42  73 104 140 180 235 298 364 421
#     4  11  20  40  72 104 134 176 233 303 351 414
#     4  12  24  46  63 106 145 178 234 292 350 430
#     4  12  30  50  71 106 151 196 246 292 366 444
#     4  12  25  48  72 102 145 190 238 298 362 438
#
# _framework density 22.432507999999999
#
# number of rings (size 3 to 8) (size 9 to 14) (size 15 to 20)
#    0.000    0.286    8.571    1.714    4.000    0.000 
#    5.143    0.000    0.000    0.000    0.000    0.000 
#    0.000    0.000    0.000    0.000    0.000    0.000 
#
# Total GULP energy -156147.589091 kJ/mol
# GULP energy per Si atom -5576.699610 kJ/mol
# Density = 2.238145 g / cm^3
# Si number density = 22.432508 Si / 1000 Ang^3
#
#
#
# Elastic Constant Matrix: (Units=GPa)
#
#
# Indices 1 2 3 4 5 6 
#
# 1 31.3312 -2.8598 5.9009 0.0000 0.0000 0.0000
# 2 -2.8598 101.5618 61.4977 0.0000 0.0000 0.0000
# 3 5.9009 61.4977 176.1887 0.0000 0.0000 0.0000
# 4 0.0000 0.0000 0.0000 20.3976 0.0000 0.0000
# 5 0.0000 0.0000 0.0000 0.0000 45.2038 0.0000
# 6 0.0000 0.0000 0.0000 0.0000 0.0000 13.5027
#
#
#
# Elastic Compliance Matrix: (Units=1/GPa)
#
#
# Indices 1 2 3 4 5 6 
#
# 1 0.032434 0.001992 -0.001782 0.000000 0.000000 0.000000
# 2 0.001992 0.012607 -0.004467 0.000000 0.000000 0.000000
# 3 -0.001782 -0.004467 0.007295 0.000000 0.000000 0.000000
# 4 0.000000 0.000000 0.000000 0.049025 0.000000 0.000000
# 5 0.000000 0.000000 0.000000 0.000000 0.022122 0.000000
# 6 0.000000 0.000000 0.000000 0.000000 0.000000 0.074059
#
#
# Mechanical properties :
#
#
# Convention : Reuss Voigt Hill
#
# Bulk Modulus (GPa) = 22.81911 48.68437 35.75174
# Shear Modulus (GPa) = 22.65885 32.12368 27.39126
#
# Velocity S-wave (km/s) = 3.18164 3.78830 3.49815
# Velocity P-wave (km/s) = 4.86739 6.39411 5.68226
#
# Compressibility (1/GPa) = 0.04382292
#
# Stress axis : x y z
#
# Youngs Moduli (GPa) = 30.83142 79.31906 137.08651
#
# Poissons Ratio (x) = -0.15801 0.24424
# Poissons Ratio (y) = -0.06142 0.61240
# Poissons Ratio (z) = 0.05493 0.35434
#
# Static dielectric constant tensor:
#      x y z
#    x 1.982180 0.000000 0.000000 
#    y 0.000000 1.892530 0.000000 
#    z 0.000000 0.000000 2.010170 
# 
# From -- ./inp_files/25655.got.cif
#   From: 2010.05.17/outbox.cif.g08.bks.cpg/sg43_13_cif.got.tgz:25655.got - 2010.06.03 19:21:55.
