data_PCOD9372521
_publ_section_title
;
Structure prediction by ZEFSAII (Michael W. Deem and Ramdas Pophale) SiO2 
 PCOD9372521
Probable space group: F D D 2
;
_chemical_formula_sum "Si O2"
_cell_formula_units_Z 80
_cell_length_a 12.327967
_cell_length_b 25.265859
_cell_length_c 10.626145
_cell_angle_alpha 90.000000
_cell_angle_beta 90.000000
_cell_angle_gamma 90.000000
_cell_volume 3309.796323
_symmetry_space_group_name_H-M "F D D 2"
_symmetry_group_IT_number 43
_symmetry_cell_setting 'orthorhombic'
loop_
_space_group_symop_operation_xyz
x,y,z
-x,-y,z
1/4-x,1/4+y,1/4+z
1/4+x,1/4-y,1/4+z
x,1/2+y,1/2+z
-x,1/2-y,1/2+z
1/4-x,3/4+y,3/4+z
1/4+x,3/4-y,3/4+z
1/2+x,y,1/2+z
1/2-x,-y,1/2+z
3/4-x,1/4+y,3/4+z
3/4+x,1/4-y,3/4+z
1/2+x,1/2+y,z
1/2-x,1/2-y,z
3/4-x,3/4+y,1/4+z
3/4+x,3/4-y,1/4+z
loop_
_atom_site_type_symbol
_atom_site_label
_atom_site_fract_x
_atom_site_fract_y
_atom_site_fract_z
Si Si1 0.002972 0.558171 0.728040
Si Si2 0.125514 0.749973 0.495442
Si Si3 0.357924 0.804249 0.248700
Si Si4 0.987418 0.148034 0.044910
Si Si5 0.430767 0.150266 0.143724
O O1 0.942772 0.548868 0.861725
O O2 0.952472 0.608475 0.656593
O O3 0.000000 0.500000 0.663902
O O4 0.127039 0.576977 0.743197
O O5 0.250000 0.750000 0.536013
O O6 0.124160 0.744195 0.343465
O O7 0.075384 0.804370 0.540298
O O8 0.063887 0.700105 0.559592
O O9 0.475299 0.831267 0.235931
O O10 0.287388 0.845195 0.329879
O O11 0.066149 0.110036 0.962068
#
# Coordination Sequence:
#
# PCOD9372521 Si02
#       5
#    16  16  16  16  16
#     4  12  26  45  68 102 143 184 237 301 363 431
#     4  11  23  42  68  99 137 184 238 297 360 434
#     4  11  24  42  68 101 139 188 240 295 363 437
#     4  11  25  45  71 104 138 185 241 293 363 440
#     4  11  23  44  69 100 141 187 239 298 361 436
#
# _framework density 24.170670999999999
#
# number of rings (size 3 to 8) (size 9 to 14) (size 15 to 20)
#    0.000    0.800    0.000    9.000    0.000    5.600 
#    0.000    2.000    0.000    0.000    0.000    0.000 
#    0.000    0.000    0.000    0.000    0.000    0.000 
#
# Total GULP energy -111828.353355 kJ/mol
# GULP energy per Si atom -5591.417668 kJ/mol
# Density = 2.411566 g / cm^3
# Si number density = 24.170671 Si / 1000 Ang^3
#
#
#
# Elastic Constant Matrix: (Units=GPa)
#
#
# Indices 1 2 3 4 5 6 
#
# 1 117.5697 46.4822 15.7533 0.0000 0.0000 0.0000
# 2 46.4822 128.8883 46.2286 0.0000 0.0000 0.0000
# 3 15.7533 46.2286 83.1754 0.0000 0.0000 0.0000
# 4 0.0000 0.0000 0.0000 58.9849 0.0000 0.0000
# 5 0.0000 0.0000 0.0000 0.0000 23.5243 0.0000
# 6 0.0000 0.0000 0.0000 0.0000 0.0000 43.7049
#
#
#
# Elastic Compliance Matrix: (Units=1/GPa)
#
#
# Indices 1 2 3 4 5 6 
#
# 1 0.009921 -0.003627 0.000137 0.000000 0.000000 0.000000
# 2 -0.003627 0.011016 -0.005436 0.000000 0.000000 0.000000
# 3 0.000137 -0.005436 0.015018 0.000000 0.000000 0.000000
# 4 0.000000 0.000000 0.000000 0.016953 0.000000 0.000000
# 5 0.000000 0.000000 0.000000 0.000000 0.042509 0.000000
# 6 0.000000 0.000000 0.000000 0.000000 0.000000 0.022881
#
#
# Mechanical properties :
#
#
# Convention : Reuss Voigt Hill
#
# Bulk Modulus (GPa) = 55.23794 60.72907 57.98350
# Shear Modulus (GPa) = 35.16517 39.98744 37.57631
#
# Velocity S-wave (km/s) = 3.81841 4.07182 3.94715
# Velocity P-wave (km/s) = 6.50717 6.87648 6.69437
#
# Compressibility (1/GPa) = 0.01810350
#
# Stress axis : x y z
#
# Youngs Moduli (GPa) = 100.79376 90.77344 66.58612
#
# Poissons Ratio (x) = 0.32924 -0.00911
# Poissons Ratio (y) = 0.36559 0.36196
# Poissons Ratio (z) = -0.01379 0.49344
#
# Static dielectric constant tensor:
#      x y z
#    x 1.922290 0.000000 0.000000 
#    y 0.000000 1.920760 0.000000 
#    z 0.000000 0.000000 1.998400 
# 
# From -- ./inp_files/6076.got.cif
#   From: 2010.05.17/outbox.cif.g08.bks.cpg/sg43_4_cif.got.tgz:6076.got - 2010.06.03 19:21:55.
