data_PCOD9372834
_publ_section_title
;
Structure prediction by ZEFSAII (Michael W. Deem and Ramdas Pophale) SiO2 
 PCOD9372834
Probable space group: F D D 2
;
_chemical_formula_sum "Si O2"
_cell_formula_units_Z 88
_cell_length_a 18.111801
_cell_length_b 14.427232
_cell_length_c 12.863754
_cell_angle_alpha 90.000000
_cell_angle_beta 90.000000
_cell_angle_gamma 90.000000
_cell_volume 3361.339505
_symmetry_space_group_name_H-M "F D D 2"
_symmetry_group_IT_number 43
_symmetry_cell_setting 'orthorhombic'
loop_
_space_group_symop_operation_xyz
x,y,z
-x,-y,z
1/4-x,1/4+y,1/4+z
1/4+x,1/4-y,1/4+z
x,1/2+y,1/2+z
-x,1/2-y,1/2+z
1/4-x,3/4+y,3/4+z
1/4+x,3/4-y,3/4+z
1/2+x,y,1/2+z
1/2-x,-y,1/2+z
3/4-x,1/4+y,3/4+z
3/4+x,1/4-y,3/4+z
1/2+x,1/2+y,z
1/2-x,1/2-y,z
3/4-x,3/4+y,1/4+z
3/4+x,3/4-y,1/4+z
loop_
_atom_site_type_symbol
_atom_site_label
_atom_site_fract_x
_atom_site_fract_y
_atom_site_fract_z
Si Si1 0.378549 0.077205 0.943050
Si Si2 0.500000 0.000000 0.787488
Si Si3 0.590801 0.166560 0.735593
Si Si4 0.284787 0.476259 0.189666
Si Si5 0.728649 0.572228 0.886337
Si Si6 0.134343 0.208611 0.919364
O O1 0.299904 0.028646 0.951736
O O2 0.358099 0.182341 0.915103
O O3 0.433759 0.032362 0.862694
O O4 0.414509 0.082140 0.057659
O O5 0.471423 0.912880 0.723717
O O6 0.574094 0.220821 0.843380
O O7 0.584401 0.241942 0.643846
O O8 0.665240 0.107285 0.731140
O O9 0.270903 0.557903 0.274897
O O10 0.201367 0.437906 0.176045
O O11 0.697589 0.648814 0.972630
#
# Coordination Sequence:
#
# PCOD9372834 Si02
#       6
#    16   8  16  16  16  16
#     4  12  25  45  78 109 154 199 266 329 392 471
#     4  12  24  46  82 112 156 202 272 332 400 474
#     4  12  29  49  76 118 161 212 264 332 410 485
#     4  12  28  51  77 118 157 209 268 329 408 477
#     4  12  27  49  77 110 159 208 263 333 400 477
#     4  12  26  48  74 111 150 205 265 321 395 470
#
# _framework density 26.180036999999999
#
# number of rings (size 3 to 8) (size 9 to 14) (size 15 to 20)
#    0.000    0.000    7.273    0.545   10.182    0.727 
#    3.273    0.000    0.000    0.000    0.000    0.000 
#    0.000    0.000    0.000    0.000    0.000    0.000 
#
# Total GULP energy -122785.247819 kJ/mol
# GULP energy per Si atom -5581.147628 kJ/mol
# Density = 2.612045 g / cm^3
# Si number density = 26.180037 Si / 1000 Ang^3
#
#
#
# Elastic Constant Matrix: (Units=GPa)
#
#
# Indices 1 2 3 4 5 6 
#
# 1 149.9921 18.0424 -11.9142 0.0000 0.0000 0.0000
# 2 18.0424 127.8165 7.9558 0.0000 0.0000 0.0000
# 3 -11.9142 7.9558 62.2959 0.0000 0.0000 0.0000
# 4 0.0000 0.0000 0.0000 66.2012 0.0000 0.0000
# 5 0.0000 0.0000 0.0000 0.0000 28.9184 0.0000
# 6 0.0000 0.0000 0.0000 0.0000 0.0000 137.6768
#
#
#
# Elastic Compliance Matrix: (Units=1/GPa)
#
#
# Indices 1 2 3 4 5 6 
#
# 1 0.006911 -0.001066 0.001458 0.000000 0.000000 0.000000
# 2 -0.001066 0.008051 -0.001232 0.000000 0.000000 0.000000
# 3 0.001458 -0.001232 0.016489 0.000000 0.000000 0.000000
# 4 0.000000 0.000000 0.000000 0.015105 0.000000 0.000000
# 5 0.000000 0.000000 0.000000 0.000000 0.034580 0.000000
# 6 0.000000 0.000000 0.000000 0.000000 0.000000 0.007263
#
#
# Mechanical properties :
#
#
# Convention : Reuss Voigt Hill
#
# Bulk Modulus (GPa) = 33.59123 40.91914 37.25519
# Shear Modulus (GPa) = 49.99814 68.29399 59.14606
#
# Velocity S-wave (km/s) = 4.37485 5.11301 4.75827
# Velocity P-wave (km/s) = 6.19498 7.10782 6.66704
#
# Compressibility (1/GPa) = 0.02976967
#
# Stress axis : x y z
#
# Youngs Moduli (GPa) = 144.69502 124.20937 60.64791
#
# Poissons Ratio (x) = 0.13245 -0.08842
# Poissons Ratio (y) = 0.15429 0.07472
# Poissons Ratio (z) = -0.21096 0.15304
#
# Static dielectric constant tensor:
#      x y z
#    x 2.122590 0.000000 0.000000 
#    y 0.000000 -1.297930 0.000000 
#    z 0.000000 0.000000 2.509940 
# 
# From -- ./inp_files/10888.got.cif
#   From: 2010.05.17/outbox.cif.g08.bks.cpg/sg43_6_cif.got.tgz:10888.got - 2010.06.03 19:21:55.
