data_PCOD9372775
_publ_section_title
;
Structure prediction by ZEFSAII (Michael W. Deem and Ramdas Pophale) SiO2 
 PCOD9372775
Probable space group: F D D 2
;
_chemical_formula_sum "Si O2"
_cell_formula_units_Z 120
_cell_length_a 20.645252
_cell_length_b 30.001939
_cell_length_c 10.169336
_cell_angle_alpha 90.000000
_cell_angle_beta 90.000000
_cell_angle_gamma 90.000000
_cell_volume 6298.862222
_symmetry_space_group_name_H-M "F D D 2"
_symmetry_group_IT_number 43
_symmetry_cell_setting 'orthorhombic'
loop_
_space_group_symop_operation_xyz
x,y,z
-x,-y,z
1/4-x,1/4+y,1/4+z
1/4+x,1/4-y,1/4+z
x,1/2+y,1/2+z
-x,1/2-y,1/2+z
1/4-x,3/4+y,3/4+z
1/4+x,3/4-y,3/4+z
1/2+x,y,1/2+z
1/2-x,-y,1/2+z
3/4-x,1/4+y,3/4+z
3/4+x,1/4-y,3/4+z
1/2+x,1/2+y,z
1/2-x,1/2-y,z
3/4-x,3/4+y,1/4+z
3/4+x,3/4-y,1/4+z
loop_
_atom_site_type_symbol
_atom_site_label
_atom_site_fract_x
_atom_site_fract_y
_atom_site_fract_z
Si Si1 0.725013 0.041947 0.355870
Si Si2 0.866715 0.695219 0.331473
Si Si3 0.801673 0.103682 0.761472
Si Si4 0.750000 0.750000 0.222717
Si Si5 0.673592 0.705868 0.988782
Si Si6 0.689836 0.046513 0.855161
Si Si7 0.725180 0.868508 0.961882
Si Si8 0.125084 0.046070 0.629065
O O1 0.667442 0.044341 0.464255
O O2 0.766285 0.086654 0.379179
O O3 0.690136 0.041245 0.215083
O O4 0.768979 0.998660 0.373062
O O5 0.842669 0.644351 0.320348
O O6 0.802476 0.723907 0.306980
O O7 0.901243 0.704867 0.468434
O O8 0.851096 0.062343 0.753516
O O9 0.740150 0.087522 0.844125
O O10 0.778016 0.117411 0.615301
O O11 0.709159 0.717994 0.125308
O O12 0.715350 0.665044 0.932056
O O13 0.667928 0.752024 0.908944
O O14 0.642363 0.050663 0.977715
O O15 0.662300 0.839388 0.930864
#
# Coordination Sequence:
#
# PCOD9372775 Si02
#       8
#    16  16  16   8  16  16  16  16
#     4  12  22  43  70  94 130 180 223 269 325 405
#     4  12  24  44  69 101 131 178 228 269 329 404
#     4  12  21  41  73  97 129 176 220 278 324 398
#     4  12  22  42  68 100 128 180 230 264 326 406
#     4  12  19  39  71  97 127 170 224 277 315 394
#     4  12  27  43  64 102 142 170 217 283 343 379
#     4  12  22  41  70  99 127 176 232 265 323 400
#     4  12  24  42  65 100 134 172 223 272 335 396
#
# _framework density 19.051058999999999
#
# number of rings (size 3 to 8) (size 9 to 14) (size 15 to 20)
#    0.000    0.000    9.333    1.600    0.000    1.067 
#    4.800    0.000    0.000    0.000    0.000    0.000 
#    0.000    0.000    0.000    0.000    0.000    0.000 
#
# Total GULP energy -167748.315706 kJ/mol
# GULP energy per Si atom -5591.610524 kJ/mol
# Density = 1.900770 g / cm^3
# Si number density = 19.051059 Si / 1000 Ang^3
#
#
#
# Elastic Constant Matrix: (Units=GPa)
#
#
# Indices 1 2 3 4 5 6 
#
# 1 65.7063 35.4133 18.5905 0.0000 0.0000 0.0000
# 2 35.4133 120.3525 23.2963 0.0000 0.0000 0.0000
# 3 18.5905 23.2963 75.8197 0.0000 0.0000 0.0000
# 4 0.0000 0.0000 0.0000 11.6609 0.0000 0.0000
# 5 0.0000 0.0000 0.0000 0.0000 27.2316 0.0000
# 6 0.0000 0.0000 0.0000 0.0000 0.0000 43.4502
#
#
#
# Elastic Compliance Matrix: (Units=1/GPa)
#
#
# Indices 1 2 3 4 5 6 
#
# 1 0.018742 -0.004918 -0.003084 0.000000 0.000000 0.000000
# 2 -0.004918 0.010125 -0.001905 0.000000 0.000000 0.000000
# 3 -0.003084 -0.001905 0.014531 0.000000 0.000000 0.000000
# 4 0.000000 0.000000 0.000000 0.085757 0.000000 0.000000
# 5 0.000000 0.000000 0.000000 0.000000 0.036722 0.000000
# 6 0.000000 0.000000 0.000000 0.000000 0.000000 0.023015
#
#
# Mechanical properties :
#
#
# Convention : Reuss Voigt Hill
#
# Bulk Modulus (GPa) = 42.40303 46.27540 44.33921
# Shear Modulus (GPa) = 23.08749 28.77376 25.93063
#
# Velocity S-wave (km/s) = 3.48498 3.89054 3.69333
# Velocity P-wave (km/s) = 6.20478 6.67268 6.44298
#
# Compressibility (1/GPa) = 0.02358322
#
# Stress axis : x y z
#
# Youngs Moduli (GPa) = 53.35469 98.76786 68.81915
#
# Poissons Ratio (x) = 0.48573 0.21227
# Poissons Ratio (y) = 0.26239 0.13111
# Poissons Ratio (z) = 0.16457 0.18816
#
# Static dielectric constant tensor:
#      x y z
#    x 1.674800 0.000000 0.000000 
#    y 0.000000 1.677720 0.000000 
#    z 0.000000 0.000000 1.620920 
# 
# From -- ./inp_files/3896.got.cif
#   From: 2010.05.17/outbox.cif.g08.bks.cpg/sg43_2_cif.got.tgz:3896.got - 2010.06.03 19:21:55.
