data_PCOD9372518
_publ_section_title
;
Structure prediction by ZEFSAII (Michael W. Deem and Ramdas Pophale) SiO2 
 PCOD9372518
Probable space group: F D D 2
;
_chemical_formula_sum "Si O2"
_cell_formula_units_Z 64
_cell_length_a 11.074729
_cell_length_b 11.074719
_cell_length_c 27.445905
_cell_angle_alpha 90.000000
_cell_angle_beta 90.000000
_cell_angle_gamma 90.000000
_cell_volume 3366.226846
_symmetry_space_group_name_H-M "F D D 2"
_symmetry_group_IT_number 43
_symmetry_cell_setting 'orthorhombic'
loop_
_space_group_symop_operation_xyz
x,y,z
-x,-y,z
1/4-x,1/4+y,1/4+z
1/4+x,1/4-y,1/4+z
x,1/2+y,1/2+z
-x,1/2-y,1/2+z
1/4-x,3/4+y,3/4+z
1/4+x,3/4-y,3/4+z
1/2+x,y,1/2+z
1/2-x,-y,1/2+z
3/4-x,1/4+y,3/4+z
3/4+x,1/4-y,3/4+z
1/2+x,1/2+y,z
1/2-x,1/2-y,z
3/4-x,3/4+y,1/4+z
3/4+x,3/4-y,1/4+z
loop_
_atom_site_type_symbol
_atom_site_label
_atom_site_fract_x
_atom_site_fract_y
_atom_site_fract_z
Si Si1 0.263884 0.944018 0.062650
Si Si2 0.805982 0.486116 0.817415
Si Si3 0.605684 0.597768 0.883620
Si Si4 0.347768 0.355684 0.996445
O O1 0.365702 0.848131 0.047068
O O2 0.151869 0.865702 0.082997
O O3 0.319348 0.035056 0.102240
O O4 0.211297 0.024124 0.018929
O O5 0.725876 0.538703 0.861136
O O6 0.714945 0.430652 0.777825
O O7 0.500000 0.500000 0.877684
O O8 0.621415 0.628586 0.940033
O O9 0.250000 0.250000 0.002382
#
# Coordination Sequence:
#
# PCOD9372518 Si02
#       4
#    16  16  16  16
#     4  11  23  42  66  94 133 173 218 280 328 393
#     4  11  23  42  66  94 133 173 218 280 328 393
#     4  12  24  42  68  97 133 180 221 277 334 394
#     4  12  24  42  68  97 133 180 221 277 334 394
#
# _framework density 19.012384999999998
#
# number of rings (size 3 to 8) (size 9 to 14) (size 15 to 20)
#    0.000    0.500    5.000    4.500    0.000    2.000 
#    0.000    0.000    0.000    0.000    0.000    0.000 
#    0.000    0.000    0.000    0.000    0.000    0.000 
#
# Total GULP energy -89476.916481 kJ/mol
# GULP energy per Si atom -5592.307280 kJ/mol
# Density = 1.896911 g / cm^3
# Si number density = 19.012385 Si / 1000 Ang^3
#
#
#
# Elastic Constant Matrix: (Units=GPa)
#
#
# Indices 1 2 3 4 5 6 
#
# 1 63.2374 -0.2580 -18.5425 0.0000 0.0000 0.0000
# 2 -0.2580 63.2335 -18.5442 0.0000 0.0000 0.0000
# 3 -18.5425 -18.5442 67.0880 0.0000 0.0000 0.0000
# 4 0.0000 0.0000 0.0000 22.0696 0.0000 0.0000
# 5 0.0000 0.0000 0.0000 0.0000 22.0692 0.0000
# 6 0.0000 0.0000 0.0000 0.0000 0.0000 49.5425
#
#
#
# Elastic Compliance Matrix: (Units=1/GPa)
#
#
# Indices 1 2 3 4 5 6 
#
# 1 0.017357 0.001608 0.005242 0.000000 0.000000 0.000000
# 2 0.001608 0.017358 0.005243 0.000000 0.000000 0.000000
# 3 0.005242 0.005243 0.017804 0.000000 0.000000 0.000000
# 4 0.000000 0.000000 0.000000 0.045311 0.000000 0.000000
# 5 0.000000 0.000000 0.000000 0.000000 0.045312 0.000000
# 6 0.000000 0.000000 0.000000 0.000000 0.000000 0.020185
#
#
# Mechanical properties :
#
#
# Convention : Reuss Voigt Hill
#
# Bulk Modulus (GPa) = 13.03709 13.20770 13.12240
# Shear Modulus (GPa) = 30.35636 34.12984 32.24310
#
# Velocity S-wave (km/s) = 4.00016 4.24150 4.12260
# Velocity P-wave (km/s) = 5.31103 5.56319 5.43857
#
# Compressibility (1/GPa) = 0.07670422
#
# Stress axis : x y z
#
# Youngs Moduli (GPa) = 57.61360 57.60885 56.16800
#
# Poissons Ratio (x) = -0.09264 -0.29442
# Poissons Ratio (y) = -0.09265 -0.29447
# Poissons Ratio (z) = -0.30200 -0.30202
#
# Static dielectric constant tensor:
#      x y z
#    x 1.667410 0.000000 0.000000 
#    y 0.000000 1.667410 0.000000 
#    z 0.000000 0.000000 1.626930 
# 
# From -- ./inp_files/20811.got.cif
#   From: 2010.05.17/outbox.cif.g08.bks.cpg/sg43_11_cif.got.tgz:20811.got - 2010.06.03 19:21:55.
