data_PCOD9372089
_publ_section_title
;
Structure prediction by ZEFSAII (Michael W. Deem and Ramdas Pophale) SiO2 
 PCOD9372089
Probable space group: F D D 2
;
_chemical_formula_sum "Si O2"
_cell_formula_units_Z 96
_cell_length_a 7.364802
_cell_length_b 27.120459
_cell_length_c 19.099780
_cell_angle_alpha 90.000000
_cell_angle_beta 90.000000
_cell_angle_gamma 90.000000
_cell_volume 3814.929142
_symmetry_space_group_name_H-M "F D D 2"
_symmetry_group_IT_number 43
_symmetry_cell_setting 'orthorhombic'
loop_
_space_group_symop_operation_xyz
x,y,z
-x,-y,z
1/4-x,1/4+y,1/4+z
1/4+x,1/4-y,1/4+z
x,1/2+y,1/2+z
-x,1/2-y,1/2+z
1/4-x,3/4+y,3/4+z
1/4+x,3/4-y,3/4+z
1/2+x,y,1/2+z
1/2-x,-y,1/2+z
3/4-x,1/4+y,3/4+z
3/4+x,1/4-y,3/4+z
1/2+x,1/2+y,z
1/2-x,1/2-y,z
3/4-x,3/4+y,1/4+z
3/4+x,3/4-y,1/4+z
loop_
_atom_site_type_symbol
_atom_site_label
_atom_site_fract_x
_atom_site_fract_y
_atom_site_fract_z
Si Si1 0.250000 0.250000 0.892460
Si Si2 0.000000 0.500000 0.740298
Si Si3 0.062770 0.312687 0.369585
Si Si4 0.807443 0.326542 0.617504
Si Si5 0.036490 0.320651 0.995781
Si Si6 0.352436 0.678524 0.199312
Si Si7 0.790294 0.472694 0.475759
O O1 0.129931 0.211678 0.852256
O O2 0.388675 0.213788 0.933153
O O3 0.093368 0.537350 0.685125
O O4 0.142878 0.466704 0.781666
O O5 0.142526 0.302044 0.293071
O O6 0.030406 0.367810 0.391892
O O7 0.719208 0.326883 0.540844
O O8 0.677697 0.292186 0.663381
O O9 0.024764 0.320599 0.627931
O O10 0.934446 0.371905 0.976158
O O11 0.148480 0.698337 0.200258
O O12 0.476685 0.720113 0.239214
#
# Coordination Sequence:
#
# PCOD9372089 Si02
#       7
#     8   8  16  16  16  16  16
#     4  10  24  44  76 100 146 190 246 314 374 454
#     4  10  24  46  72 108 146 202 252 314 382 460
#     4  11  23  45  72 104 145 196 254 305 380 461
#     4  12  26  46  75 110 148 195 249 316 381 448
#     4  11  24  48  73 109 149 197 253 316 386 462
#     4  11  24  48  71 109 149 195 250 305 388 448
#     4  11  26  47  73 113 149 198 251 314 382 456
#
# _framework density 25.164294000000002
#
# number of rings (size 3 to 8) (size 9 to 14) (size 15 to 20)
#    0.000    1.000    3.333    2.500    4.667    1.333 
#    6.000    0.000    0.000    0.000    0.000    0.000 
#    0.000    0.000    0.000    0.000    0.000    0.000 
#
# Total GULP energy -133673.902273 kJ/mol
# GULP energy per Si atom -5569.745928 kJ/mol
# Density = 2.510702 g / cm^3
# Si number density = 25.164294 Si / 1000 Ang^3
#
#
#
# Elastic Constant Matrix: (Units=GPa)
#
#
# Indices 1 2 3 4 5 6 
#
# 1 150.7731 55.2092 25.1338 0.0000 0.0000 0.0000
# 2 55.2092 188.2981 21.6158 0.0000 0.0000 0.0000
# 3 25.1338 21.6158 51.1875 0.0000 0.0000 0.0000
# 4 0.0000 0.0000 0.0000 28.1826 0.0000 0.0000
# 5 0.0000 0.0000 0.0000 0.0000 35.8336 0.0000
# 6 0.0000 0.0000 0.0000 0.0000 0.0000 21.5703
#
#
#
# Elastic Compliance Matrix: (Units=1/GPa)
#
#
# Indices 1 2 3 4 5 6 
#
# 1 0.007853 -0.001955 -0.003031 0.000000 0.000000 0.000000
# 2 -0.001955 0.006068 -0.001603 0.000000 0.000000 0.000000
# 3 -0.003031 -0.001603 0.021701 0.000000 0.000000 0.000000
# 4 0.000000 0.000000 0.000000 0.035483 0.000000 0.000000
# 5 0.000000 0.000000 0.000000 0.000000 0.027907 0.000000
# 6 0.000000 0.000000 0.000000 0.000000 0.000000 0.046360
#
#
# Mechanical properties :
#
#
# Convention : Reuss Voigt Hill
#
# Bulk Modulus (GPa) = 44.55105 66.01959 55.28532
# Shear Modulus (GPa) = 30.11507 36.33730 33.22618
#
# Velocity S-wave (km/s) = 3.46314 3.80413 3.63763
# Velocity P-wave (km/s) = 5.80807 6.75185 6.29767
#
# Compressibility (1/GPa) = 0.02244616
#
# Stress axis : x y z
#
# Youngs Moduli (GPa) = 127.33220 164.80368 46.08113
#
# Poissons Ratio (x) = 0.32215 0.13966
# Poissons Ratio (y) = 0.24890 0.07385
# Poissons Ratio (z) = 0.38591 0.26411
#
# Static dielectric constant tensor:
#      x y z
#    x 2.113830 0.000000 0.000000 
#    y 0.000000 1.914330 0.000000 
#    z 0.000000 0.000000 2.179740 
# 
# From -- ./inp_files/16502.got.cif
#   From: 2010.05.17/outbox.cif.g08.bks.cpg/sg43_9_cif.got.tgz:16502.got - 2010.06.03 19:21:55.
