data_PCOD9372130
_publ_section_title
;
Structure prediction by ZEFSAII (Michael W. Deem and Ramdas Pophale) SiO2 
 PCOD9372130
Probable space group: F D D 2
;
_chemical_formula_sum "Si O2"
_cell_formula_units_Z 64
_cell_length_a 5.535237
_cell_length_b 19.239240
_cell_length_c 22.290084
_cell_angle_alpha 90.000000
_cell_angle_beta 90.000000
_cell_angle_gamma 90.000000
_cell_volume 2373.754702
_symmetry_space_group_name_H-M "F D D 2"
_symmetry_group_IT_number 43
_symmetry_cell_setting 'orthorhombic'
loop_
_space_group_symop_operation_xyz
x,y,z
-x,-y,z
1/4-x,1/4+y,1/4+z
1/4+x,1/4-y,1/4+z
x,1/2+y,1/2+z
-x,1/2-y,1/2+z
1/4-x,3/4+y,3/4+z
1/4+x,3/4-y,3/4+z
1/2+x,y,1/2+z
1/2-x,-y,1/2+z
3/4-x,1/4+y,3/4+z
3/4+x,1/4-y,3/4+z
1/2+x,1/2+y,z
1/2-x,1/2-y,z
3/4-x,3/4+y,1/4+z
3/4+x,3/4-y,1/4+z
loop_
_atom_site_type_symbol
_atom_site_label
_atom_site_fract_x
_atom_site_fract_y
_atom_site_fract_z
Si Si1 0.500000 0.500000 0.417800
Si Si2 0.642443 0.425294 0.650370
Si Si3 0.250000 0.250000 0.461866
Si Si4 0.832898 0.325111 0.743058
Si Si5 0.562138 0.665298 0.560251
O O1 0.322190 0.449326 0.454628
O O2 0.665407 0.460037 0.369843
O O3 0.500000 0.500000 0.652328
O O4 0.916247 0.441908 0.666820
O O5 0.625949 0.367371 0.705079
O O6 0.614043 0.393972 0.584287
O O7 0.456144 0.281004 0.505370
O O8 0.750000 0.250000 0.765824
O O9 0.939402 0.376521 0.792795
#
# Coordination Sequence:
#
# PCOD9372130 Si02
#       5
#     8  16   8  16  16
#     4  11  24  50  70 110 160 184 256 311 372 460
#     4  11  25  47  72 110 151 196 251 313 372 454
#     4   9  24  50  72 108 154 186 244 315 368 448
#     4  11  25  48  76 108 151 198 252 316 373 455
#     4  10  24  46  73 108 144 198 243 306 376 447
#
# _framework density 26.961507000000001
#
# number of rings (size 3 to 8) (size 9 to 14) (size 15 to 20)
#    0.000    1.500    2.500    0.000    8.750    2.000 
#   13.500    0.000    0.000    0.000    0.000    0.000 
#    0.000    0.000    0.000    0.000    0.000    0.000 
#
# Total GULP energy -89108.033457 kJ/mol
# GULP energy per Si atom -5569.252091 kJ/mol
# Density = 2.690014 g / cm^3
# Si number density = 26.961507 Si / 1000 Ang^3
#
#
#
# Elastic Constant Matrix: (Units=GPa)
#
#
# Indices 1 2 3 4 5 6 
#
# 1 40.5284 19.6362 42.3728 0.0000 0.0000 0.0000
# 2 19.6362 146.7202 30.8258 0.0000 0.0000 0.0000
# 3 42.3728 30.8258 106.5058 0.0000 0.0000 0.0000
# 4 0.0000 0.0000 0.0000 10.9541 0.0000 0.0000
# 5 0.0000 0.0000 0.0000 0.0000 42.9239 0.0000
# 6 0.0000 0.0000 0.0000 0.0000 0.0000 46.0044
#
#
#
# Elastic Compliance Matrix: (Units=1/GPa)
#
#
# Indices 1 2 3 4 5 6 
#
# 1 0.042962 -0.002299 -0.016427 0.000000 0.000000 0.000000
# 2 -0.002299 0.007380 -0.001222 0.000000 0.000000 0.000000
# 3 -0.016427 -0.001222 0.016278 0.000000 0.000000 0.000000
# 4 0.000000 0.000000 0.000000 0.091290 0.000000 0.000000
# 5 0.000000 0.000000 0.000000 0.000000 0.023297 0.000000
# 6 0.000000 0.000000 0.000000 0.000000 0.000000 0.021737
#
#
# Mechanical properties :
#
#
# Convention : Reuss Voigt Hill
#
# Bulk Modulus (GPa) = 37.41644 53.26932 45.34288
# Shear Modulus (GPa) = 19.86117 33.37113 26.61615
#
# Velocity S-wave (km/s) = 2.71707 3.52196 3.14537
# Velocity P-wave (km/s) = 4.87352 6.02821 5.48136
#
# Compressibility (1/GPa) = 0.02672622
#
# Stress axis : x y z
#
# Youngs Moduli (GPa) = 23.27613 135.50225 61.43202
#
# Poissons Ratio (x) = 0.31146 1.00915
# Poissons Ratio (y) = 0.05350 0.07504
# Poissons Ratio (z) = 0.38236 0.16552
#
# Static dielectric constant tensor:
#      x y z
#    x 2.199770 0.000000 0.000000 
#    y 0.000000 2.546280 0.000000 
#    z 0.000000 0.000000 2.036880 
# 
# From -- ./inp_files/15586.got.cif
#   From: 2010.05.17/outbox.cif.g08.bks.cpg/sg43_8_cif.got.tgz:15586.got - 2010.06.03 19:21:55.
