data_PCOD9372164
_publ_section_title
;
Structure prediction by ZEFSAII (Michael W. Deem and Ramdas Pophale) SiO2 
 PCOD9372164
Probable space group: F D D 2
;
_chemical_formula_sum "Si O2"
_cell_formula_units_Z 88
_cell_length_a 8.876158
_cell_length_b 18.508157
_cell_length_c 21.572437
_cell_angle_alpha 90.000000
_cell_angle_beta 90.000000
_cell_angle_gamma 90.000000
_cell_volume 3543.948552
_symmetry_space_group_name_H-M "F D D 2"
_symmetry_group_IT_number 43
_symmetry_cell_setting 'orthorhombic'
loop_
_space_group_symop_operation_xyz
x,y,z
-x,-y,z
1/4-x,1/4+y,1/4+z
1/4+x,1/4-y,1/4+z
x,1/2+y,1/2+z
-x,1/2-y,1/2+z
1/4-x,3/4+y,3/4+z
1/4+x,3/4-y,3/4+z
1/2+x,y,1/2+z
1/2-x,-y,1/2+z
3/4-x,1/4+y,3/4+z
3/4+x,1/4-y,3/4+z
1/2+x,1/2+y,z
1/2-x,1/2-y,z
3/4-x,3/4+y,1/4+z
3/4+x,3/4-y,1/4+z
loop_
_atom_site_type_symbol
_atom_site_label
_atom_site_fract_x
_atom_site_fract_y
_atom_site_fract_z
Si Si1 0.254264 0.135363 0.172340
Si Si2 0.271125 0.515824 0.117722
Si Si3 0.705777 0.511982 0.868238
Si Si4 0.984140 0.341958 0.998313
Si Si5 0.388933 0.398663 0.299823
Si Si6 0.750000 0.750000 0.774842
O O1 0.421754 0.168785 0.162582
O O2 0.221967 0.108137 0.241377
O O3 0.144177 0.199871 0.150809
O O4 0.210552 0.068427 0.129222
O O5 0.245575 0.549752 0.185032
O O6 0.381045 0.572526 0.085132
O O7 0.133414 0.518746 0.070927
O O8 0.671343 0.552190 0.802456
O O9 0.847516 0.463233 0.846886
O O10 0.807436 0.340502 0.021056
O O11 0.025869 0.425902 0.988710
#
# Coordination Sequence:
#
# PCOD9372164 Si02
#       6
#    16  16  16  16  16   8
#     4  11  25  45  71 109 154 192 252 316 381 458
#     4  11  24  48  74 106 151 203 251 318 385 457
#     4  11  24  43  72 109 146 195 246 316 375 452
#     4  11  23  48  75 106 152 200 258 316 388 465
#     4  11  25  47  75 106 152 206 253 307 387 463
#     4  10  24  48  70 114 146 196 260 320 392 458
#
# _framework density 24.831060000000001
#
# number of rings (size 3 to 8) (size 9 to 14) (size 15 to 20)
#    0.000    1.091    3.636    1.636    0.000    6.545 
#   19.636    0.000    0.000    0.000    0.000    0.000 
#    0.000    0.000    0.000    0.000    0.000    0.000 
#
# Total GULP energy -122712.448176 kJ/mol
# GULP energy per Si atom -5577.838553 kJ/mol
# Density = 2.477454 g / cm^3
# Si number density = 24.831060 Si / 1000 Ang^3
#
#
#
# Elastic Constant Matrix: (Units=GPa)
#
#
# Indices 1 2 3 4 5 6 
#
# 1 75.4916 39.1967 28.8793 0.0000 0.0000 0.0000
# 2 39.1967 179.6275 21.5277 0.0000 0.0000 0.0000
# 3 28.8793 21.5277 61.6307 0.0000 0.0000 0.0000
# 4 0.0000 0.0000 0.0000 37.7776 0.0000 0.0000
# 5 0.0000 0.0000 0.0000 0.0000 39.7192 0.0000
# 6 0.0000 0.0000 0.0000 0.0000 0.0000 36.5573
#
#
#
# Elastic Compliance Matrix: (Units=1/GPa)
#
#
# Indices 1 2 3 4 5 6 
#
# 1 0.017533 -0.002965 -0.007180 0.000000 0.000000 0.000000
# 2 -0.002965 0.006312 -0.000815 0.000000 0.000000 0.000000
# 3 -0.007180 -0.000815 0.019875 0.000000 0.000000 0.000000
# 4 0.000000 0.000000 0.000000 0.026471 0.000000 0.000000
# 5 0.000000 0.000000 0.000000 0.000000 0.025177 0.000000
# 6 0.000000 0.000000 0.000000 0.000000 0.000000 0.027354
#
#
# Mechanical properties :
#
#
# Convention : Reuss Voigt Hill
#
# Bulk Modulus (GPa) = 45.87439 55.10637 50.49038
# Shear Modulus (GPa) = 32.91460 37.95390 35.43425
#
# Velocity S-wave (km/s) = 3.64475 3.91383 3.78168
# Velocity P-wave (km/s) = 6.01888 6.53182 6.28059
#
# Compressibility (1/GPa) = 0.02179865
#
# Stress axis : x y z
#
# Youngs Moduli (GPa) = 57.03583 158.43204 50.31496
#
# Poissons Ratio (x) = 0.46981 0.36125
# Poissons Ratio (y) = 0.16913 0.04102
# Poissons Ratio (z) = 0.40951 0.12916
#
# Static dielectric constant tensor:
#      x y z
#    x 2.100360 0.000000 0.000000 
#    y 0.000000 2.109360 0.000000 
#    z 0.000000 0.000000 1.903480 
# 
# From -- ./inp_files/20215.got.cif
#   From: 2010.05.17/outbox.cif.g08.bks.cpg/sg43_11_cif.got.tgz:20215.got - 2010.06.03 19:21:55.
