data_PCOD9372746
_publ_section_title
;
Structure prediction by ZEFSAII (Michael W. Deem and Ramdas Pophale) SiO2 
 PCOD9372746
Probable space group: F D D 2
;
_chemical_formula_sum "Si O2"
_cell_formula_units_Z 112
_cell_length_a 30.388121
_cell_length_b 14.050341
_cell_length_c 11.498032
_cell_angle_alpha 90.000000
_cell_angle_beta 90.000000
_cell_angle_gamma 90.000000
_cell_volume 4909.239553
_symmetry_space_group_name_H-M "F D D 2"
_symmetry_group_IT_number 43
_symmetry_cell_setting 'orthorhombic'
loop_
_space_group_symop_operation_xyz
x,y,z
-x,-y,z
1/4-x,1/4+y,1/4+z
1/4+x,1/4-y,1/4+z
x,1/2+y,1/2+z
-x,1/2-y,1/2+z
1/4-x,3/4+y,3/4+z
1/4+x,3/4-y,3/4+z
1/2+x,y,1/2+z
1/2-x,-y,1/2+z
3/4-x,1/4+y,3/4+z
3/4+x,1/4-y,3/4+z
1/2+x,1/2+y,z
1/2-x,1/2-y,z
3/4-x,3/4+y,1/4+z
3/4+x,3/4-y,1/4+z
loop_
_atom_site_type_symbol
_atom_site_label
_atom_site_fract_x
_atom_site_fract_y
_atom_site_fract_z
Si Si1 0.615858 0.384595 0.077510
Si Si2 0.228154 0.602408 0.169678
Si Si3 0.729857 0.655536 0.421775
Si Si4 0.815943 0.200670 0.248735
Si Si5 0.301479 0.604052 0.730141
Si Si6 0.550498 0.011795 0.252838
Si Si7 0.855221 0.418042 0.576892
O O1 0.569525 0.420398 0.128083
O O2 0.642138 0.329081 0.174741
O O3 0.644856 0.473973 0.032158
O O4 0.604910 0.321910 0.965889
O O5 0.199812 0.695146 0.205272
O O6 0.276489 0.626480 0.220121
O O7 0.206113 0.507665 0.216949
O O8 0.230766 0.585245 0.030447
O O9 0.750000 0.750000 0.478556
O O10 0.761482 0.635882 0.313594
O O11 0.824855 0.203574 0.386500
O O12 0.301427 0.665096 0.610599
O O13 0.348324 0.625544 0.786798
O O14 0.500000 0.000000 0.216067
O O15 0.568942 0.908605 0.290536
#
# Coordination Sequence:
#
# PCOD9372746 Si02
#       7
#    16  16  16  16  16  16  16
#     4  12  27  46  78 110 144 194 251 315 373 449
#     4  11  26  48  73 103 146 199 244 307 374 448
#     4  12  23  51  74 107 148 190 255 311 371 448
#     4  11  26  50  72 110 150 197 247 311 378 451
#     4  12  28  47  76 109 149 199 248 311 382 442
#     4  12  27  50  74 111 158 198 251 311 385 458
#     4  12  26  49  73 109 148 196 251 314 369 453
#
# _framework density 22.814125000000001
#
# number of rings (size 3 to 8) (size 9 to 14) (size 15 to 20)
#    0.000    0.286    5.714    3.000   10.000    0.000 
#    0.000    0.000    0.000    0.000    0.000    0.000 
#    0.000    0.000    0.000    0.000    0.000    0.000 
#
# Total GULP energy -156780.816816 kJ/mol
# GULP energy per Si atom -5599.314886 kJ/mol
# Density = 2.276220 g / cm^3
# Si number density = 22.814125 Si / 1000 Ang^3
#
#
#
# Elastic Constant Matrix: (Units=GPa)
#
#
# Indices 1 2 3 4 5 6 
#
# 1 76.8148 8.3788 9.1387 0.0000 0.0000 0.0000
# 2 8.3788 59.7479 9.5847 0.0000 0.0000 0.0000
# 3 9.1387 9.5847 126.3205 0.0000 0.0000 0.0000
# 4 0.0000 0.0000 0.0000 30.7932 0.0000 0.0000
# 5 0.0000 0.0000 0.0000 0.0000 14.6261 0.0000
# 6 0.0000 0.0000 0.0000 0.0000 0.0000 27.4862
#
#
#
# Elastic Compliance Matrix: (Units=1/GPa)
#
#
# Indices 1 2 3 4 5 6 
#
# 1 0.013306 -0.001733 -0.000831 0.000000 0.000000 0.000000
# 2 -0.001733 0.017169 -0.001177 0.000000 0.000000 0.000000
# 3 -0.000831 -0.001177 0.008066 0.000000 0.000000 0.000000
# 4 0.000000 0.000000 0.000000 0.032475 0.000000 0.000000
# 5 0.000000 0.000000 0.000000 0.000000 0.068371 0.000000
# 6 0.000000 0.000000 0.000000 0.000000 0.000000 0.036382
#
#
# Mechanical properties :
#
#
# Convention : Reuss Voigt Hill
#
# Bulk Modulus (GPa) = 32.19730 35.23193 33.71462
# Shear Modulus (GPa) = 25.82594 30.29983 28.06288
#
# Velocity S-wave (km/s) = 3.36819 3.64829 3.51103
# Velocity P-wave (km/s) = 5.41016 5.76396 5.58986
#
# Compressibility (1/GPa) = 0.03105850
#
# Stress axis : x y z
#
# Youngs Moduli (GPa) = 75.15290 58.24507 123.97970
#
# Poissons Ratio (x) = 0.10092 0.10305
# Poissons Ratio (y) = 0.13021 0.14597
# Poissons Ratio (z) = 0.06246 0.06857
#
# Static dielectric constant tensor:
#      x y z
#    x 1.815470 0.000000 0.000000 
#    y 0.000000 1.944030 0.000000 
#    z 0.000000 0.000000 1.847040 
# 
# From -- ./inp_files/8273.got.cif
#   From: 2010.05.17/outbox.cif.g08.bks.cpg/sg43_5_cif.got.tgz:8273.got - 2010.06.03 19:21:55.
