data_PCOD9372042
_publ_section_title
;
Structure prediction by ZEFSAII (Michael W. Deem and Ramdas Pophale) SiO2 
 PCOD9372042
Probable space group: F D D 2
;
_chemical_formula_sum "Si O2"
_cell_formula_units_Z 104
_cell_length_a 19.172220
_cell_length_b 22.815467
_cell_length_c 9.476160
_cell_angle_alpha 90.000000
_cell_angle_beta 90.000000
_cell_angle_gamma 90.000000
_cell_volume 4145.091783
_symmetry_space_group_name_H-M "F D D 2"
_symmetry_group_IT_number 43
_symmetry_cell_setting 'orthorhombic'
loop_
_space_group_symop_operation_xyz
x,y,z
-x,-y,z
1/4-x,1/4+y,1/4+z
1/4+x,1/4-y,1/4+z
x,1/2+y,1/2+z
-x,1/2-y,1/2+z
1/4-x,3/4+y,3/4+z
1/4+x,3/4-y,3/4+z
1/2+x,y,1/2+z
1/2-x,-y,1/2+z
3/4-x,1/4+y,3/4+z
3/4+x,1/4-y,3/4+z
1/2+x,1/2+y,z
1/2-x,1/2-y,z
3/4-x,3/4+y,1/4+z
3/4+x,3/4-y,1/4+z
loop_
_atom_site_type_symbol
_atom_site_label
_atom_site_fract_x
_atom_site_fract_y
_atom_site_fract_z
Si Si1 0.012158 0.400737 0.106580
Si Si2 0.785278 0.934862 0.173934
Si Si3 0.263511 0.835119 0.057517
Si Si4 0.638812 0.428486 0.456764
Si Si5 0.964850 0.719780 0.747804
Si Si6 0.250000 0.750000 0.581594
Si Si7 0.071490 0.584063 0.530314
O O1 0.102903 0.345782 0.352379
O O2 0.020505 0.447866 0.227494
O O3 0.980112 0.427128 0.960656
O O4 0.090214 0.385789 0.051351
O O5 0.792330 0.962889 0.329487
O O6 0.721707 0.888343 0.206521
O O7 0.649333 0.989334 0.038030
O O8 0.340853 0.809490 0.070767
O O9 0.274800 0.905119 0.052651
O O10 0.223306 0.818350 0.919948
O O11 0.710594 0.399750 0.407486
O O12 0.023039 0.760910 0.817561
O O13 0.188865 0.778314 0.677499
#
# Coordination Sequence:
#
# PCOD9372042 Si02
#       7
#    16  16  16  16  16   8  16
#     4  10  25  44  71 110 147 201 257 323 378 481
#     4  11  28  52  77 115 157 210 265 327 405 481
#     4   9  25  46  75 108 154 199 262 319 387 474
#     4  10  24  42  77 104 148 189 266 303 386 456
#     4  11  24  46  77 109 150 207 253 324 395 480
#     4  12  28  42  70 114 154 202 256 334 392 466
#     4  11  28  49  76 114 165 205 262 338 401 475
#
# _framework density 25.089914
#
# number of rings (size 3 to 8) (size 9 to 14) (size 15 to 20)
#    0.923    0.615    0.000    1.846    8.615    9.231 
#    0.000    0.000    0.000    0.000    0.000    0.000 
#    0.000    0.000    0.000    0.000    0.000    0.000 
#
# Total GULP energy -144962.735399 kJ/mol
# GULP energy per Si atom -5575.489823 kJ/mol
# Density = 2.503281 g / cm^3
# Si number density = 25.089914 Si / 1000 Ang^3
#
#
#
# Elastic Constant Matrix: (Units=GPa)
#
#
# Indices 1 2 3 4 5 6 
#
# 1 127.0436 39.5416 39.6189 0.0000 0.0000 0.0000
# 2 39.5416 105.4350 51.6396 0.0000 0.0000 0.0000
# 3 39.6189 51.6396 175.8268 0.0000 0.0000 0.0000
# 4 0.0000 0.0000 0.0000 45.7607 0.0000 0.0000
# 5 0.0000 0.0000 0.0000 0.0000 38.0525 0.0000
# 6 0.0000 0.0000 0.0000 0.0000 0.0000 34.9993
#
#
#
# Elastic Compliance Matrix: (Units=1/GPa)
#
#
# Indices 1 2 3 4 5 6 
#
# 1 0.009133 -0.002823 -0.001229 0.000000 0.000000 0.000000
# 2 -0.002823 0.011951 -0.002874 0.000000 0.000000 0.000000
# 3 -0.001229 -0.002874 0.006808 0.000000 0.000000 0.000000
# 4 0.000000 0.000000 0.000000 0.021853 0.000000 0.000000
# 5 0.000000 0.000000 0.000000 0.000000 0.026279 0.000000
# 6 0.000000 0.000000 0.000000 0.000000 0.000000 0.028572
#
#
# Mechanical properties :
#
#
# Convention : Reuss Voigt Hill
#
# Bulk Modulus (GPa) = 71.22208 74.43394 72.82801
# Shear Modulus (GPa) = 40.60786 42.26284 41.43535
#
# Velocity S-wave (km/s) = 4.02741 4.10866 4.06824
# Velocity P-wave (km/s) = 7.07638 7.22769 7.15243
#
# Compressibility (1/GPa) = 0.01404059
#
# Stress axis : x y z
#
# Youngs Moduli (GPa) = 109.48951 83.67584 146.87983
#
# Poissons Ratio (x) = 0.23626 0.18048
# Poissons Ratio (y) = 0.30914 0.42209
# Poissons Ratio (z) = 0.13454 0.24046
#
# Static dielectric constant tensor:
#      x y z
#    x 2.133950 0.000000 0.000000 
#    y 0.000000 2.003650 0.000000 
#    z 0.000000 0.000000 2.053430 
# 
# From -- ./inp_files/3979.got.cif
#   From: 2010.05.17/outbox.cif.g08.bks.cpg/sg43_2_cif.got.tgz:3979.got - 2010.06.03 19:21:55.
