data_PCOD9372369
_publ_section_title
;
Structure prediction by ZEFSAII (Michael W. Deem and Ramdas Pophale) SiO2 
 PCOD9372369
Probable space group: F D D 2
;
_chemical_formula_sum "Si O2"
_cell_formula_units_Z 112
_cell_length_a 10.642073
_cell_length_b 16.279077
_cell_length_c 29.378715
_cell_angle_alpha 90.000000
_cell_angle_beta 90.000000
_cell_angle_gamma 90.000000
_cell_volume 5089.660419
_symmetry_space_group_name_H-M "F D D 2"
_symmetry_group_IT_number 43
_symmetry_cell_setting 'orthorhombic'
loop_
_space_group_symop_operation_xyz
x,y,z
-x,-y,z
1/4-x,1/4+y,1/4+z
1/4+x,1/4-y,1/4+z
x,1/2+y,1/2+z
-x,1/2-y,1/2+z
1/4-x,3/4+y,3/4+z
1/4+x,3/4-y,3/4+z
1/2+x,y,1/2+z
1/2-x,-y,1/2+z
3/4-x,1/4+y,3/4+z
3/4+x,1/4-y,3/4+z
1/2+x,1/2+y,z
1/2-x,1/2-y,z
3/4-x,3/4+y,1/4+z
3/4+x,3/4-y,1/4+z
loop_
_atom_site_type_symbol
_atom_site_label
_atom_site_fract_x
_atom_site_fract_y
_atom_site_fract_z
Si Si1 0.383101 0.707359 0.653500
Si Si2 0.808603 0.664569 0.497746
Si Si3 0.373559 0.188455 0.987465
Si Si4 0.024368 0.740610 0.244126
Si Si5 0.995249 0.723147 0.568782
Si Si6 0.129459 0.801964 0.828570
Si Si7 0.746988 0.051230 0.671883
O O1 0.250000 0.750000 0.641194
O O2 0.420113 0.729047 0.704816
O O3 0.490914 0.737079 0.618639
O O4 0.355356 0.610678 0.652765
O O5 0.750000 0.750000 0.481946
O O6 0.710620 0.589706 0.493975
O O7 0.926457 0.652304 0.463545
O O8 0.867401 0.684177 0.547797
O O9 0.250000 0.250000 0.989732
O O10 0.446559 0.219906 0.943206
O O11 0.357887 0.090282 0.984820
O O12 0.453980 0.212253 0.031948
O O13 0.979630 0.724424 0.295229
O O14 0.090392 0.646661 0.570334
O O15 0.250000 0.750000 0.814842
O O16 0.097482 0.787184 0.880810
#
# Coordination Sequence:
#
# PCOD9372369 Si02
#       7
#    16  16  16  16  16  16  16
#     4  12  20  35  64 100 128 165 216 281 336 403
#     4  11  24  45  64  90 134 180 224 279 336 403
#     4  11  21  38  63  99 131 162 212 282 338 402
#     4  12  22  39  66  95 129 169 222 272 336 398
#     4  11  22  38  64  97 130 168 221 283 338 391
#     4  12  21  36  65  98 126 166 226 281 331 401
#     4  11  23  38  64  96 134 168 217 278 342 400
#
# _framework density 22.005399000000001
#
# number of rings (size 3 to 8) (size 9 to 14) (size 15 to 20)
#    0.000    0.571    7.143    3.000    0.000    0.000 
#    2.571    2.857    0.000    0.000    0.000    0.000 
#    0.000    0.000    0.000    0.000    0.000    0.000 
#
# Total GULP energy -156199.786391 kJ/mol
# GULP energy per Si atom -5578.563800 kJ/mol
# Density = 2.195531 g / cm^3
# Si number density = 22.005399 Si / 1000 Ang^3
#
#
#
# Elastic Constant Matrix: (Units=GPa)
#
#
# Indices 1 2 3 4 5 6 
#
# 1 20.9909 28.5301 9.1471 0.0000 0.0000 0.0000
# 2 28.5301 189.6416 22.4605 0.0000 0.0000 0.0000
# 3 9.1471 22.4605 85.0039 0.0000 0.0000 0.0000
# 4 0.0000 0.0000 0.0000 8.4993 0.0000 0.0000
# 5 0.0000 0.0000 0.0000 0.0000 13.2192 0.0000
# 6 0.0000 0.0000 0.0000 0.0000 0.0000 39.9178
#
#
#
# Elastic Compliance Matrix: (Units=1/GPa)
#
#
# Indices 1 2 3 4 5 6 
#
# 1 0.061370 -0.008723 -0.004299 0.000000 0.000000 0.000000
# 2 -0.008723 0.006683 -0.000827 0.000000 0.000000 0.000000
# 3 -0.004299 -0.000827 0.012445 0.000000 0.000000 0.000000
# 4 0.000000 0.000000 0.000000 0.117657 0.000000 0.000000
# 5 0.000000 0.000000 0.000000 0.000000 0.075647 0.000000
# 6 0.000000 0.000000 0.000000 0.000000 0.000000 0.025051
#
#
# Mechanical properties :
#
#
# Convention : Reuss Voigt Hill
#
# Bulk Modulus (GPa) = 18.93964 46.21242 32.57603
# Shear Modulus (GPa) = 14.52840 28.02716 21.27778
#
# Velocity S-wave (km/s) = 2.57226 3.57269 3.11293
# Velocity P-wave (km/s) = 4.17703 6.16968 5.26842
#
# Compressibility (1/GPa) = 0.05279930
#
# Stress axis : x y z
#
# Youngs Moduli (GPa) = 16.29468 149.62318 80.35127
#
# Poissons Ratio (x) = 1.30523 0.34542
# Poissons Ratio (y) = 0.14215 0.06647
# Poissons Ratio (z) = 0.07005 0.12378
#
# Static dielectric constant tensor:
#      x y z
#    x 1.861880 0.000000 0.000000 
#    y 0.000000 1.869770 0.000000 
#    z 0.000000 0.000000 1.773960 
# 
# From -- ./inp_files/28604.got.cif
#   From: 2010.05.17/outbox.cif.g08.bks.cpg/sg43_15_cif.got.tgz:28604.got - 2010.06.03 19:21:55.
