data_PCOD9372234
_publ_section_title
;
Structure prediction by ZEFSAII (Michael W. Deem and Ramdas Pophale) SiO2 
 PCOD9372234
Probable space group: F D D 2
;
_chemical_formula_sum "Si O2"
_cell_formula_units_Z 112
_cell_length_a 14.769738
_cell_length_b 21.909637
_cell_length_c 13.810301
_cell_angle_alpha 90.000000
_cell_angle_beta 90.000000
_cell_angle_gamma 90.000000
_cell_volume 4469.007854
_symmetry_space_group_name_H-M "F D D 2"
_symmetry_group_IT_number 43
_symmetry_cell_setting 'orthorhombic'
loop_
_space_group_symop_operation_xyz
x,y,z
-x,-y,z
1/4-x,1/4+y,1/4+z
1/4+x,1/4-y,1/4+z
x,1/2+y,1/2+z
-x,1/2-y,1/2+z
1/4-x,3/4+y,3/4+z
1/4+x,3/4-y,3/4+z
1/2+x,y,1/2+z
1/2-x,-y,1/2+z
3/4-x,1/4+y,3/4+z
3/4+x,1/4-y,3/4+z
1/2+x,1/2+y,z
1/2-x,1/2-y,z
3/4-x,3/4+y,1/4+z
3/4+x,3/4-y,1/4+z
loop_
_atom_site_type_symbol
_atom_site_label
_atom_site_fract_x
_atom_site_fract_y
_atom_site_fract_z
Si Si1 0.756256 0.321367 0.303860
Si Si2 0.882976 0.922380 0.845936
Si Si3 0.153977 0.272067 0.304734
Si Si4 0.199430 0.118691 0.151275
Si Si5 0.544530 0.678858 0.242523
Si Si6 0.163155 0.660500 0.085735
Si Si7 0.233235 0.011231 0.295055
O O1 0.750000 0.250000 0.326252
O O2 0.826197 0.361365 0.365456
O O3 0.798229 0.328166 0.194270
O O4 0.661204 0.356114 0.322177
O O5 0.818123 0.964798 0.781722
O O6 0.982349 0.897163 0.823596
O O7 0.901168 0.960929 0.941764
O O8 0.250000 0.250000 0.341182
O O9 0.134577 0.337192 0.350733
O O10 0.064446 0.230193 0.324068
O O11 0.150160 0.167624 0.217902
O O12 0.238861 0.067057 0.221475
O O13 0.497605 0.617489 0.277716
O O14 0.492874 0.709391 0.152891
O O15 0.109184 0.720639 0.048600
#
# Coordination Sequence:
#
# PCOD9372234 Si02
#       7
#    16  16  16  16  16  16  16
#     4  11  27  47  77 106 150 193 248 305 376 442
#     4  10  25  49  68 106 150 189 239 306 371 455
#     4  11  25  47  70 106 148 187 241 307 362 442
#     4  12  26  42  79 105 138 196 249 292 384 441
#     4  11  26  44  74 101 146 187 243 306 362 449
#     4  11  27  46  71 108 150 191 246 307 374 451
#     4  10  26  47  69 107 148 190 244 312 378 440
#
# _framework density 25.061492000000001
#
# number of rings (size 3 to 8) (size 9 to 14) (size 15 to 20)
#    0.000    1.143    1.429    1.714   18.000    0.000 
#    0.000    0.714    0.000    0.000    0.000    0.000 
#    0.000    0.000    0.000    0.000    0.000    0.000 
#
# Total GULP energy -156394.197934 kJ/mol
# GULP energy per Si atom -5585.507069 kJ/mol
# Density = 2.500445 g / cm^3
# Si number density = 25.061492 Si / 1000 Ang^3
#
#
#
# Elastic Constant Matrix: (Units=GPa)
#
#
# Indices 1 2 3 4 5 6 
#
# 1 117.5586 47.0106 29.6210 0.0000 0.0000 0.0000
# 2 47.0106 150.1678 31.7903 0.0000 0.0000 0.0000
# 3 29.6210 31.7903 44.3830 0.0000 0.0000 0.0000
# 4 0.0000 0.0000 0.0000 32.8975 0.0000 0.0000
# 5 0.0000 0.0000 0.0000 0.0000 38.3075 0.0000
# 6 0.0000 0.0000 0.0000 0.0000 0.0000 43.5467
#
#
#
# Elastic Compliance Matrix: (Units=1/GPa)
#
#
# Indices 1 2 3 4 5 6 
#
# 1 0.010803 -0.002187 -0.005643 0.000000 0.000000 0.000000
# 2 -0.002187 0.008292 -0.004480 0.000000 0.000000 0.000000
# 3 -0.005643 -0.004480 0.029506 0.000000 0.000000 0.000000
# 4 0.000000 0.000000 0.000000 0.030397 0.000000 0.000000
# 5 0.000000 0.000000 0.000000 0.000000 0.026105 0.000000
# 6 0.000000 0.000000 0.000000 0.000000 0.000000 0.022964
#
#
# Mechanical properties :
#
#
# Convention : Reuss Voigt Hill
#
# Bulk Modulus (GPa) = 41.69974 58.77261 50.23617
# Shear Modulus (GPa) = 31.11748 36.52951 33.82349
#
# Velocity S-wave (km/s) = 3.52752 3.82199 3.67770
# Velocity P-wave (km/s) = 5.76769 6.55584 6.17436
#
# Compressibility (1/GPa) = 0.02398097
#
# Stress axis : x y z
#
# Youngs Moduli (GPa) = 92.56721 120.59364 33.89121
#
# Poissons Ratio (x) = 0.26377 0.19125
# Poissons Ratio (y) = 0.20247 0.15183
# Poissons Ratio (z) = 0.52237 0.54023
#
# Static dielectric constant tensor:
#      x y z
#    x 2.025730 0.000000 0.000000 
#    y 0.000000 1.992650 0.000000 
#    z 0.000000 0.000000 2.034390 
# 
# From -- ./inp_files/10175.got.cif
#   From: 2010.05.17/outbox.cif.g08.bks.cpg/sg43_6_cif.got.tgz:10175.got - 2010.06.03 19:21:55.
