data_PCOD9372535
_publ_section_title
;
Structure prediction by ZEFSAII (Michael W. Deem and Ramdas Pophale) SiO2 
 PCOD9372535
Probable space group: F D D 2
;
_chemical_formula_sum "Si O2"
_cell_formula_units_Z 120
_cell_length_a 23.154939
_cell_length_b 28.424357
_cell_length_c 8.242406
_cell_angle_alpha 90.000000
_cell_angle_beta 90.000000
_cell_angle_gamma 90.000000
_cell_volume 5424.856983
_symmetry_space_group_name_H-M "F D D 2"
_symmetry_group_IT_number 43
_symmetry_cell_setting 'orthorhombic'
loop_
_space_group_symop_operation_xyz
x,y,z
-x,-y,z
1/4-x,1/4+y,1/4+z
1/4+x,1/4-y,1/4+z
x,1/2+y,1/2+z
-x,1/2-y,1/2+z
1/4-x,3/4+y,3/4+z
1/4+x,3/4-y,3/4+z
1/2+x,y,1/2+z
1/2-x,-y,1/2+z
3/4-x,1/4+y,3/4+z
3/4+x,1/4-y,3/4+z
1/2+x,1/2+y,z
1/2-x,1/2-y,z
3/4-x,3/4+y,1/4+z
3/4+x,3/4-y,1/4+z
loop_
_atom_site_type_symbol
_atom_site_label
_atom_site_fract_x
_atom_site_fract_y
_atom_site_fract_z
Si Si1 0.154811 0.817226 0.378700
Si Si2 0.357145 0.003760 0.677878
Si Si3 0.072600 0.290822 0.105142
Si Si4 0.309672 0.556586 0.750063
Si Si5 0.565953 0.832577 0.613101
Si Si6 0.455429 0.334940 0.634921
Si Si7 0.176169 0.185073 0.202244
Si Si8 0.750000 0.750000 0.966741
O O1 0.134673 0.812496 0.566721
O O2 0.093739 0.828226 0.290075
O O3 0.189182 0.863387 0.330897
O O4 0.197577 0.772597 0.361659
O O5 0.327015 0.043718 0.786484
O O6 0.413068 0.027261 0.595861
O O7 0.319756 0.987790 0.522610
O O8 0.358685 0.954601 0.772617
O O9 0.063795 0.249527 0.974661
O O10 0.022938 0.328081 0.111263
O O11 0.249799 0.565561 0.843814
O O12 0.308404 0.580064 0.574822
O O13 0.366480 0.570110 0.850649
O O14 0.564380 0.884328 0.533543
O O15 0.222940 0.208545 0.080935
#
# Coordination Sequence:
#
# PCOD9372535 Si02
#       8
#    16  16  16  16  16  16  16   8
#     4  12  28  43  73 105 153 190 247 301 382 446
#     4  11  23  43  71 103 142 182 247 302 360 431
#     4  11  23  45  70 103 137 192 237 304 361 441
#     4  11  24  42  76  97 143 185 245 307 364 431
#     4  12  25  45  73 108 139 194 250 307 365 442
#     4  12  23  43  72 107 137 190 246 310 361 440
#     4  11  27  48  70 105 146 193 243 298 379 443
#     4  12  26  50  72 104 158 198 238 308 390 456
#
# _framework density 22.120398000000002
#
# number of rings (size 3 to 8) (size 9 to 14) (size 15 to 20)
#    0.000    0.533    6.667    1.600    5.600    1.067 
#    0.000    2.000    0.000    0.000    0.000    0.000 
#    0.000    0.000    0.000    0.000    0.000    0.000 
#
# Total GULP energy -167379.017665 kJ/mol
# GULP energy per Si atom -5579.300589 kJ/mol
# Density = 2.207005 g / cm^3
# Si number density = 22.120398 Si / 1000 Ang^3
#
#
#
# Elastic Constant Matrix: (Units=GPa)
#
#
# Indices 1 2 3 4 5 6 
#
# 1 85.9543 24.9477 17.4002 -0.0006 -0.0001 -0.0001
# 2 24.9477 124.6525 11.2035 0.0005 0.0002 -0.0003
# 3 17.4002 11.2035 40.7218 -0.0035 0.0004 0.0007
# 4 -0.0006 0.0005 -0.0035 2.0672 0.0019 0.0003
# 5 -0.0001 0.0002 0.0004 0.0019 12.0527 -0.0002
# 6 -0.0001 -0.0003 0.0007 0.0003 -0.0002 37.6265
#
#
#
# Elastic Compliance Matrix: (Units=1/GPa)
#
#
# Indices 1 2 3 4 5 6 
#
# 1 0.013302 -0.002206 -0.005077 -0.000005 0.000000 0.000000
# 2 -0.002206 0.008592 -0.001421 -0.000005 0.000000 0.000000
# 3 -0.005077 -0.001421 0.027117 0.000045 -0.000001 -0.000001
# 4 -0.000005 -0.000005 0.000045 0.483737 -0.000074 -0.000004
# 5 0.000000 0.000000 -0.000001 -0.000074 0.082969 0.000000
# 6 0.000000 0.000000 -0.000001 -0.000004 0.000000 0.026577
#
#
# Mechanical properties :
#
#
# Convention : Reuss Voigt Hill
#
# Bulk Modulus (GPa) = 31.64289 39.82572 35.73430
# Shear Modulus (GPa) = 7.46006 23.53445 15.49725
#
# Velocity S-wave (km/s) = 1.83842 3.26533 2.64973
# Velocity P-wave (km/s) = 4.34077 5.67976 5.05480
#
# Compressibility (1/GPa) = 0.03160268
#
# Stress axis : x y z
#
# Youngs Moduli (GPa) = 75.17602 116.39371 36.87695
#
# Poissons Ratio (x) = 0.25676 0.18722
# Poissons Ratio (y) = 0.16583 0.05241
# Poissons Ratio (z) = 0.38167 0.16541
#
# Static dielectric constant tensor:
#      x y z
#    x 1.805670 0.000000 0.000000 
#    y 0.000000 1.851650 0.000000 
#    z 0.000000 0.000000 1.938280 
# 
# From -- ./inp_files/3914.got.cif
#   From: 2010.05.17/outbox.cif.g08.bks.cpg/sg43_2_cif.got.tgz:3914.got - 2010.06.03 19:21:55.
