data_PCOD9372261
_publ_section_title
;
Structure prediction by ZEFSAII (Michael W. Deem and Ramdas Pophale) SiO2 
 PCOD9372261
Probable space group: F D D 2
;
_chemical_formula_sum "Si O2"
_cell_formula_units_Z 104
_cell_length_a 26.797679
_cell_length_b 19.384908
_cell_length_c 7.923719
_cell_angle_alpha 90.000000
_cell_angle_beta 90.000000
_cell_angle_gamma 90.000000
_cell_volume 4116.138604
_symmetry_space_group_name_H-M "F D D 2"
_symmetry_group_IT_number 43
_symmetry_cell_setting 'orthorhombic'
loop_
_space_group_symop_operation_xyz
x,y,z
-x,-y,z
1/4-x,1/4+y,1/4+z
1/4+x,1/4-y,1/4+z
x,1/2+y,1/2+z
-x,1/2-y,1/2+z
1/4-x,3/4+y,3/4+z
1/4+x,3/4-y,3/4+z
1/2+x,y,1/2+z
1/2-x,-y,1/2+z
3/4-x,1/4+y,3/4+z
3/4+x,1/4-y,3/4+z
1/2+x,1/2+y,z
1/2-x,1/2-y,z
3/4-x,3/4+y,1/4+z
3/4+x,3/4-y,1/4+z
loop_
_atom_site_type_symbol
_atom_site_label
_atom_site_fract_x
_atom_site_fract_y
_atom_site_fract_z
Si Si1 0.942075 0.588002 0.839020
Si Si2 0.632802 0.844198 0.053440
Si Si3 0.500000 0.000000 0.120420
Si Si4 0.821494 0.831530 0.046189
Si Si5 0.524997 0.175093 0.294849
Si Si6 0.266296 0.062684 0.434113
Si Si7 0.120982 0.219212 0.326708
O O1 0.902389 0.534813 0.751194
O O2 0.984861 0.618795 0.718983
O O3 0.909690 0.653491 0.909098
O O4 0.975352 0.553449 0.986770
O O5 0.613654 0.911102 0.157481
O O6 0.684123 0.872274 0.975144
O O7 0.627991 0.785797 0.200716
O O8 0.544402 0.990621 0.259421
O O9 0.778649 0.888217 0.031448
O O10 0.848750 0.838655 0.222551
O O11 0.534799 0.184963 0.493078
O O12 0.519725 0.247043 0.202336
O O13 0.312715 0.050455 0.562907
#
# Coordination Sequence:
#
# PCOD9372261 Si02
#       7
#    16  16   8  16  16  16  16
#     4  11  28  48  76 115 148 207 259 317 384 472
#     4  11  26  46  73 107 150 193 253 315 393 450
#     4  10  26  46  70 104 156 184 262 304 372 446
#     4  11  23  46  68 106 140 198 240 312 384 445
#     4  12  26  47  74 104 147 195 248 313 380 455
#     4  12  27  47  73 109 150 191 259 310 382 453
#     4  12  25  47  77 109 153 202 257 319 392 469
#
# _framework density 25.266400000000001
#
# number of rings (size 3 to 8) (size 9 to 14) (size 15 to 20)
#    0.000    0.615    4.615    1.846    6.462    1.846 
#    2.769    0.000    0.000    0.000    0.000    0.000 
#    0.000    0.000    0.000    0.000    0.000    0.000 
#
# Total GULP energy -144835.882033 kJ/mol
# GULP energy per Si atom -5570.610847 kJ/mol
# Density = 2.520889 g / cm^3
# Si number density = 25.266400 Si / 1000 Ang^3
#
#
#
# Elastic Constant Matrix: (Units=GPa)
#
#
# Indices 1 2 3 4 5 6 
#
# 1 103.1941 31.4488 13.5327 0.0000 0.0000 0.0000
# 2 31.4488 56.7237 -3.0735 -0.0001 0.0001 0.0000
# 3 13.5327 -3.0735 61.3732 -0.0002 0.0002 0.0000
# 4 0.0000 -0.0001 -0.0002 30.7221 0.0001 0.0000
# 5 0.0000 0.0001 0.0002 0.0001 43.2980 0.0000
# 6 0.0000 0.0000 0.0000 0.0000 0.0000 31.8313
#
#
#
# Elastic Compliance Matrix: (Units=1/GPa)
#
#
# Indices 1 2 3 4 5 6 
#
# 1 0.012200 -0.006929 -0.003037 0.000000 0.000000 0.000000
# 2 -0.006929 0.021612 0.002610 0.000000 0.000000 0.000000
# 3 -0.003037 0.002610 0.017094 0.000000 0.000000 0.000000
# 4 0.000000 0.000000 0.000000 0.032550 0.000000 0.000000
# 5 0.000000 0.000000 0.000000 0.000000 0.023096 0.000000
# 6 0.000000 0.000000 0.000000 0.000000 0.000000 0.031416
#
#
# Mechanical properties :
#
#
# Convention : Reuss Voigt Hill
#
# Bulk Modulus (GPa) = 27.62799 33.90075 30.76437
# Shear Modulus (GPa) = 30.35008 33.12916 31.73962
#
# Velocity S-wave (km/s) = 3.46960 3.62497 3.54813
# Velocity P-wave (km/s) = 5.19704 5.56480 5.38406
#
# Compressibility (1/GPa) = 0.03619517
#
# Stress axis : x y z
#
# Youngs Moduli (GPa) = 81.96530 46.27034 58.49952
#
# Poissons Ratio (x) = 0.32059 0.17767
# Poissons Ratio (y) = 0.56791 -0.15269
# Poissons Ratio (z) = 0.24894 -0.12077
#
# Static dielectric constant tensor:
#      x y z
#    x 0.905490 0.000000 0.000000 
#    y 0.000000 1.264880 0.000000 
#    z 0.000000 0.000000 2.095010 
# 
# From -- ./inp_files/4238.got.cif
#   From: 2010.05.17/outbox.cif.g08.bks.cpg/sg43_3_cif.got.tgz:4238.got - 2010.06.03 19:21:55.
