data_PCOD9372093
_publ_section_title
;
Structure prediction by ZEFSAII (Michael W. Deem and Ramdas Pophale) SiO2 
 PCOD9372093
Probable space group: F D D 2
;
_chemical_formula_sum "Si O2"
_cell_formula_units_Z 72
_cell_length_a 8.983149
_cell_length_b 11.927960
_cell_length_c 30.680524
_cell_angle_alpha 90.000000
_cell_angle_beta 90.000000
_cell_angle_gamma 90.000000
_cell_volume 3287.437842
_symmetry_space_group_name_H-M "F D D 2"
_symmetry_group_IT_number 43
_symmetry_cell_setting 'orthorhombic'
loop_
_space_group_symop_operation_xyz
x,y,z
-x,-y,z
1/4-x,1/4+y,1/4+z
1/4+x,1/4-y,1/4+z
x,1/2+y,1/2+z
-x,1/2-y,1/2+z
1/4-x,3/4+y,3/4+z
1/4+x,3/4-y,3/4+z
1/2+x,y,1/2+z
1/2-x,-y,1/2+z
3/4-x,1/4+y,3/4+z
3/4+x,1/4-y,3/4+z
1/2+x,1/2+y,z
1/2-x,1/2-y,z
3/4-x,3/4+y,1/4+z
3/4+x,3/4-y,1/4+z
loop_
_atom_site_type_symbol
_atom_site_label
_atom_site_fract_x
_atom_site_fract_y
_atom_site_fract_z
Si Si1 0.778851 0.125188 0.689300
Si Si2 0.355973 0.859887 0.532539
Si Si3 0.163705 0.055517 0.347148
Si Si4 0.000000 0.000000 0.165742
Si Si5 0.115939 0.914653 0.599337
O O1 0.750000 0.250000 0.671857
O O2 0.874733 0.143490 0.732511
O O3 0.850642 0.057623 0.649362
O O4 0.625820 0.057873 0.695367
O O5 0.250000 0.750000 0.529646
O O6 0.523987 0.852872 0.551285
O O7 0.263573 0.923230 0.570193
O O8 0.186943 0.149788 0.384444
O O9 0.283850 0.954801 0.351924
O O10 0.000000 0.000000 0.347126
O O11 0.000000 0.000000 0.579174
#
# Coordination Sequence:
#
# PCOD9372093 Si02
#       5
#    16  16  16   8  16
#     4  12  24  43  69 100 144 185 236 298 351 423
#     4  10  24  45  67 100 143 183 237 299 351 424
#     4  11  24  42  71 103 136 188 237 284 365 424
#     4  12  24  46  70 104 140 190 236 294 354 430
#     4  11  22  47  73  99 145 190 229 300 362 418
#
# _framework density 21.901554000000001
#
# number of rings (size 3 to 8) (size 9 to 14) (size 15 to 20)
#    0.000    0.889    4.444    2.667    3.111    0.000 
#    4.000    1.111    0.000    0.000    0.000    0.000 
#    0.000    0.000    0.000    0.000    0.000    0.000 
#
# Total GULP energy -100331.901456 kJ/mol
# GULP energy per Si atom -5573.994525 kJ/mol
# Density = 2.185171 g / cm^3
# Si number density = 21.901554 Si / 1000 Ang^3
#
#
#
# Elastic Constant Matrix: (Units=GPa)
#
#
# Indices 1 2 3 4 5 6 
#
# 1 140.5035 37.7285 56.3381 0.0000 0.0000 0.0000
# 2 37.7285 73.4341 4.4008 0.0000 0.0000 0.0000
# 3 56.3381 4.4008 120.9675 0.0000 0.0000 0.0000
# 4 0.0000 0.0000 0.0000 13.2119 0.0000 0.0000
# 5 0.0000 0.0000 0.0000 0.0000 -142.6013 0.0000
# 6 0.0000 0.0000 0.0000 0.0000 0.0000 46.3832
#
#
#
# Elastic Compliance Matrix: (Units=1/GPa)
#
#
# Indices 1 2 3 4 5 6 
#
# 1 0.010321 -0.005025 -0.004624 0.000000 0.000000 0.000000
# 2 -0.005025 0.016094 0.001755 0.000000 0.000000 0.000000
# 3 -0.004624 0.001755 0.010356 0.000000 0.000000 0.000000
# 4 0.000000 0.000000 0.000000 0.075689 0.000000 0.000000
# 5 0.000000 0.000000 0.000000 0.000000 -0.007013 0.000000
# 6 0.000000 0.000000 0.000000 0.000000 0.000000 0.021560
#
#
# Mechanical properties :
#
#
# Convention : Reuss Voigt Hill
#
# Bulk Modulus (GPa) = 47.65797 59.09334 53.37565
# Shear Modulus (GPa) = 33.37995 -0.83871 16.27062
#
# Velocity S-wave (km/s) = 3.90820 -0.61950 2.72857
# Velocity P-wave (km/s) = 6.49405 5.15055 5.86092
#
# Compressibility (1/GPa) = 0.02098285
#
# Stress axis : x y z
#
# Youngs Moduli (GPa) = 96.89223 62.13338 96.55958
#
# Poissons Ratio (x) = 0.31225 0.44648
# Poissons Ratio (y) = 0.48692 -0.16946
# Poissons Ratio (z) = 0.44802 -0.10904
#
# Static dielectric constant tensor:
#      x y z
#    x 1.887080 0.000000 0.000000 
#    y 0.000000 1.899460 0.000000 
#    z 0.000000 0.000000 1.825540 
# 
# From -- ./inp_files/23972.got.cif
#   From: 2010.05.17/outbox.cif.g08.bks.cpg/sg43_12_cif.got.tgz:23972.got - 2010.06.03 19:21:55.
