data_PCOD9372492
_publ_section_title
;
Structure prediction by ZEFSAII (Michael W. Deem and Ramdas Pophale) SiO2 
 PCOD9372492
Probable space group: F D D 2
;
_chemical_formula_sum "Si O2"
_cell_formula_units_Z 96
_cell_length_a 16.272828
_cell_length_b 11.108853
_cell_length_c 23.714766
_cell_angle_alpha 90.000000
_cell_angle_beta 90.000000
_cell_angle_gamma 90.000000
_cell_volume 4286.976449
_symmetry_space_group_name_H-M "F D D 2"
_symmetry_group_IT_number 43
_symmetry_cell_setting 'orthorhombic'
loop_
_space_group_symop_operation_xyz
x,y,z
-x,-y,z
1/4-x,1/4+y,1/4+z
1/4+x,1/4-y,1/4+z
x,1/2+y,1/2+z
-x,1/2-y,1/2+z
1/4-x,3/4+y,3/4+z
1/4+x,3/4-y,3/4+z
1/2+x,y,1/2+z
1/2-x,-y,1/2+z
3/4-x,1/4+y,3/4+z
3/4+x,1/4-y,3/4+z
1/2+x,1/2+y,z
1/2-x,1/2-y,z
3/4-x,3/4+y,1/4+z
3/4+x,3/4-y,1/4+z
loop_
_atom_site_type_symbol
_atom_site_label
_atom_site_fract_x
_atom_site_fract_y
_atom_site_fract_z
Si Si1 0.181253 0.643967 0.853010
Si Si2 0.477551 0.139835 0.481508
Si Si3 0.374271 0.463468 0.769196
Si Si4 0.139039 0.187848 0.865668
Si Si5 0.037801 0.164707 0.670881
Si Si6 0.443667 0.660784 0.858985
O O1 0.250000 0.750000 0.859351
O O2 0.194517 0.577902 0.793293
O O3 0.188769 0.549353 0.903749
O O4 0.095214 0.711210 0.845676
O O5 0.559694 0.220788 0.478216
O O6 0.422586 0.145633 0.425548
O O7 0.500000 0.000000 0.485543
O O8 0.328936 0.362865 0.806237
O O9 0.439096 0.388949 0.731750
O O10 0.408005 0.563505 0.814311
O O11 0.163205 0.323791 0.879203
O O12 0.191501 0.108584 0.910057
O O13 0.042230 0.162112 0.860509
#
# Coordination Sequence:
#
# PCOD9372492 Si02
#       6
#    16  16  16  16  16  16
#     4  11  24  51  74 104 152 200 256 317 391 463
#     4  11  22  46  76 106 150 200 253 321 370 462
#     4  12  24  46  77 111 149 202 258 315 388 466
#     4  11  25  42  66 109 148 188 254 312 386 454
#     4  11  26  47  73 104 156 197 252 328 382 462
#     4  12  25  41  77 112 143 196 261 310 383 460
#
# _framework density 22.393405000000001
#
# number of rings (size 3 to 8) (size 9 to 14) (size 15 to 20)
#    0.000    0.667    6.667    1.500    4.667    2.000 
#    3.000    0.000    0.000    0.000    0.000    0.000 
#    0.000    0.000    0.000    0.000    0.000    0.000 
#
# Total GULP energy -133950.538988 kJ/mol
# GULP energy per Si atom -5581.272458 kJ/mol
# Density = 2.234244 g / cm^3
# Si number density = 22.393405 Si / 1000 Ang^3
#
#
#
# Elastic Constant Matrix: (Units=GPa)
#
#
# Indices 1 2 3 4 5 6 
#
# 1 69.2497 28.6747 29.8182 0.0000 0.0000 0.0000
# 2 28.6747 107.1635 43.6018 0.0000 0.0000 0.0000
# 3 29.8182 43.6018 137.7984 0.0000 0.0000 0.0000
# 4 0.0000 0.0000 0.0000 43.4785 0.0000 0.0000
# 5 0.0000 0.0000 0.0000 0.0000 30.1132 0.0000
# 6 0.0000 0.0000 0.0000 0.0000 0.0000 27.9606
#
#
#
# Elastic Compliance Matrix: (Units=1/GPa)
#
#
# Indices 1 2 3 4 5 6 
#
# 1 0.016997 -0.003503 -0.002570 0.000000 0.000000 0.000000
# 2 -0.003503 0.011432 -0.002859 0.000000 0.000000 0.000000
# 3 -0.002570 -0.002859 0.008718 0.000000 0.000000 0.000000
# 4 0.000000 0.000000 0.000000 0.023000 0.000000 0.000000
# 5 0.000000 0.000000 0.000000 0.000000 0.033208 0.000000
# 6 0.000000 0.000000 0.000000 0.000000 0.000000 0.035765
#
#
# Mechanical properties :
#
#
# Convention : Reuss Voigt Hill
#
# Bulk Modulus (GPa) = 51.85699 57.60013 54.72856
# Shear Modulus (GPa) = 32.59212 34.45158 33.52185
#
# Velocity S-wave (km/s) = 3.81915 3.92659 3.87324
# Velocity P-wave (km/s) = 6.53111 6.80700 6.67048
#
# Compressibility (1/GPa) = 0.01928381
#
# Stress axis : x y z
#
# Youngs Moduli (GPa) = 58.83271 87.47251 114.70754
#
# Poissons Ratio (x) = 0.30638 0.29477
# Poissons Ratio (y) = 0.20607 0.32800
# Poissons Ratio (z) = 0.15119 0.25012
#
# Static dielectric constant tensor:
#      x y z
#    x 1.936240 0.000000 0.000000 
#    y 0.000000 1.804710 0.000000 
#    z 0.000000 0.000000 1.946690 
# 
# From -- ./inp_files/22055.got.cif
#   From: 2010.05.17/outbox.cif.g08.bks.cpg/sg43_12_cif.got.tgz:22055.got - 2010.06.03 19:21:55.
