data_PCOD9372675
_publ_section_title
;
Structure prediction by ZEFSAII (Michael W. Deem and Ramdas Pophale) SiO2 
 PCOD9372675
Probable space group: F D D 2
;
_chemical_formula_sum "Si O2"
_cell_formula_units_Z 112
_cell_length_a 29.145279
_cell_length_b 13.930245
_cell_length_c 11.400029
_cell_angle_alpha 90.000000
_cell_angle_beta 90.000000
_cell_angle_gamma 90.000000
_cell_volume 4628.421773
_symmetry_space_group_name_H-M "F D D 2"
_symmetry_group_IT_number 43
_symmetry_cell_setting 'orthorhombic'
loop_
_space_group_symop_operation_xyz
x,y,z
-x,-y,z
1/4-x,1/4+y,1/4+z
1/4+x,1/4-y,1/4+z
x,1/2+y,1/2+z
-x,1/2-y,1/2+z
1/4-x,3/4+y,3/4+z
1/4+x,3/4-y,3/4+z
1/2+x,y,1/2+z
1/2-x,-y,1/2+z
3/4-x,1/4+y,3/4+z
3/4+x,1/4-y,3/4+z
1/2+x,1/2+y,z
1/2-x,1/2-y,z
3/4-x,3/4+y,1/4+z
3/4+x,3/4-y,1/4+z
loop_
_atom_site_type_symbol
_atom_site_label
_atom_site_fract_x
_atom_site_fract_y
_atom_site_fract_z
Si Si1 0.135775 0.661683 0.775990
Si Si2 0.581363 0.585798 0.713855
Si Si3 0.538694 0.707893 0.156979
Si Si4 0.080225 0.703703 0.989211
Si Si5 0.756310 0.360586 0.104074
Si Si6 0.958112 0.432107 0.453987
Si Si7 0.676416 0.141203 0.316529
O O1 0.085922 0.666930 0.713514
O O2 0.163556 0.568414 0.733178
O O3 0.163972 0.757019 0.745829
O O4 0.122645 0.660555 0.913694
O O5 0.580981 0.672887 0.623532
O O6 0.543659 0.585394 0.815324
O O7 0.578951 0.491575 0.632579
O O8 0.628099 0.592963 0.787637
O O9 0.496583 0.672330 0.235810
O O10 0.544288 0.821134 0.149022
O O11 0.537120 0.665231 0.026736
O O12 0.034766 0.657150 0.932188
O O13 0.750000 0.250000 0.067526
O O14 0.799000 0.354264 0.190984
O O15 0.000000 0.500000 0.485133
#
# Coordination Sequence:
#
# PCOD9372675 Si02
#       7
#    16  16  16  16  16  16  16
#     4  11  24  48  75 103 142 193 251 297 365 441
#     4  12  27  47  73 109 149 194 247 301 376 445
#     4  11  26  49  75 109 146 196 245 309 372 438
#     4  11  25  46  75 105 143 195 242 304 364 436
#     4  11  26  50  73 106 149 191 248 311 360 437
#     4  12  28  46  74 109 152 197 249 309 371 446
#     4  12  27  48  74 108 150 199 243 309 373 446
#
# _framework density 24.198312999999999
#
# number of rings (size 3 to 8) (size 9 to 14) (size 15 to 20)
#    0.000    0.571    4.286    2.143   10.000    1.143 
#    2.571    0.000    0.000    0.000    0.000    0.000 
#    0.000    0.000    0.000    0.000    0.000    0.000 
#
# Total GULP energy -156835.092894 kJ/mol
# GULP energy per Si atom -5601.253318 kJ/mol
# Density = 2.414324 g / cm^3
# Si number density = 24.198313 Si / 1000 Ang^3
#
#
#
# Elastic Constant Matrix: (Units=GPa)
#
#
# Indices 1 2 3 4 5 6 
#
# 1 51.8624 1.7359 24.2560 0.0000 0.0000 0.0000
# 2 1.7359 80.9312 35.1946 0.0000 0.0000 0.0000
# 3 24.2560 35.1946 105.8871 0.0000 0.0000 0.0000
# 4 0.0000 0.0000 0.0000 25.1114 0.0000 0.0000
# 5 0.0000 0.0000 0.0000 0.0000 58.7748 0.0000
# 6 0.0000 0.0000 0.0000 0.0000 0.0000 25.7100
#
#
#
# Elastic Compliance Matrix: (Units=1/GPa)
#
#
# Indices 1 2 3 4 5 6 
#
# 1 0.021869 0.001998 -0.005674 0.000000 0.000000 0.000000
# 2 0.001998 0.014627 -0.005319 0.000000 0.000000 0.000000
# 3 -0.005674 -0.005319 0.012512 0.000000 0.000000 0.000000
# 4 0.000000 0.000000 0.000000 0.039823 0.000000 0.000000
# 5 0.000000 0.000000 0.000000 0.000000 0.017014 0.000000
# 6 0.000000 0.000000 0.000000 0.000000 0.000000 0.038895
#
#
# Mechanical properties :
#
#
# Convention : Reuss Voigt Hill
#
# Bulk Modulus (GPa) = 32.24004 40.11706 36.17855
# Shear Modulus (GPa) = 28.89048 33.75217 31.32132
#
# Velocity S-wave (km/s) = 3.45904 3.73877 3.60162
# Velocity P-wave (km/s) = 5.41345 5.93737 5.68145
#
# Compressibility (1/GPa) = 0.03101733
#
# Stress axis : x y z
#
# Youngs Moduli (GPa) = 45.72786 68.36893 79.92491
#
# Poissons Ratio (x) = -0.13662 0.45347
# Poissons Ratio (y) = -0.09138 0.42514
# Poissons Ratio (z) = 0.25945 0.36367
#
# Static dielectric constant tensor:
#      x y z
#    x 1.329610 0.000000 0.000000 
#    y 0.000000 1.895390 0.000000 
#    z 0.000000 0.000000 1.945510 
# 
# From -- ./inp_files/8267.got.cif
#   From: 2010.05.17/outbox.cif.g08.bks.cpg/sg43_5_cif.got.tgz:8267.got - 2010.06.03 19:21:55.
