data_PCOD9372970
_publ_section_title
;
Structure prediction by ZEFSAII (Michael W. Deem and Ramdas Pophale) SiO2 
 PCOD9372970
Probable space group: F D D 2
;
_chemical_formula_sum "Si O2"
_cell_formula_units_Z 28
_cell_length_a 24.000000
_cell_length_b 21.000000
_cell_length_c 12.000000
_cell_angle_alpha 90.000000
_cell_angle_beta 90.000000
_cell_angle_gamma 90.000000
_cell_volume 6048.000000
_symmetry_space_group_name_H-M "F D D 2"
_symmetry_group_IT_number 43
_symmetry_cell_setting 'orthorhombic'
loop_
_space_group_symop_operation_xyz
x,y,z
-x,-y,z
1/4-x,1/4+y,1/4+z
1/4+x,1/4-y,1/4+z
x,1/2+y,1/2+z
-x,1/2-y,1/2+z
1/4-x,3/4+y,3/4+z
1/4+x,3/4-y,3/4+z
1/2+x,y,1/2+z
1/2-x,-y,1/2+z
3/4-x,1/4+y,3/4+z
3/4+x,1/4-y,3/4+z
1/2+x,1/2+y,z
1/2-x,1/2-y,z
3/4-x,3/4+y,1/4+z
3/4+x,3/4-y,1/4+z
loop_
_atom_site_type_symbol
_atom_site_label
_atom_site_fract_x
_atom_site_fract_y
_atom_site_fract_z
Si Si1 0.039821 0.061683 0.997490
Si Si2 0.236106 0.946877 0.308183
Si Si3 0.667872 0.522351 0.957199
Si Si4 0.829900 0.478916 0.991058
Si Si5 0.244308 0.944324 0.637149
Si Si6 0.791478 0.189067 0.207935
Si Si7 0.775804 0.614563 0.478152
O O1 0.020421 0.123785 0.927423
O O2 0.103493 0.040470 0.970465
O O3 0.034239 0.090434 0.121928
O O4 0.000000 0.000000 0.983489
O O5 0.300524 0.956769 0.344764
O O6 0.225068 0.873455 0.280031
O O7 0.191214 0.971112 0.398135
O O8 0.228979 0.002409 0.217330
O O9 0.707809 0.559349 0.043997
O O10 0.682208 0.446671 0.972621
O O11 0.894096 0.459152 0.980716
O O12 0.812102 0.519374 0.099092
O O13 0.785761 0.419327 0.982737
O O14 0.750000 0.250000 0.221455
O O15 0.785925 0.158952 0.084434
#
# Coordination Sequence:
#
# PCOD9372970 Si02
#       7
#    16  16  16  16  16  16  16
#     4  12  26  38  71 103 125 163 228 270 313 391
#     4  10  21  45  66  89 134 176 206 260 340 379
#     4  10  24  42  66  92 132 175 210 261 332 385
#     4  10  24  42  68  90 132 174 212 262 334 378
#     4  10  21  46  64  89 132 178 205 259 338 379
#     4  12  26  39  69 103 125 165 228 269 310 394
#     4  10  23  44  62 100 127 171 206 270 340 365
#
# _framework density 4.6296299999999997
#
# number of rings (size 3 to 8) (size 9 to 14) (size 15 to 20)
#    0.000    1.714    5.714    0.429   10.000    0.000 
#    2.571    2.857    0.000    0.000    0.000    0.000 
#    0.000    0.000    0.000    0.000    0.000    0.000 
#
# Total GULP energy -155883.743604 kJ/mol
# GULP energy per Si atom -5567.276557 kJ/mol
# Density = 0.461909 g / cm^3
# Si number density = 4.629630 Si / 1000 Ang^3
#
#
#
# Elastic Constant Matrix: (Units=GPa)
#
#
# Indices 1 2 3 4 5 6 
#
# 1 129.2887 61.7644 18.7959 0.0000 0.0000 0.0000
# 2 61.7644 158.7291 36.5037 0.0000 0.0000 0.0000
# 3 18.7959 36.5037 61.4979 0.0000 0.0000 0.0000
# 4 0.0000 0.0000 0.0000 38.3352 0.0000 0.0000
# 5 0.0000 0.0000 0.0000 0.0000 11.4476 0.0000
# 6 0.0000 0.0000 0.0000 0.0000 0.0000 13.0406
#
#
#
# Elastic Compliance Matrix: (Units=1/GPa)
#
#
# Indices 1 2 3 4 5 6 
#
# 1 0.009537 -0.003521 -0.000825 0.000000 0.000000 0.000000
# 2 -0.003521 0.008596 -0.004026 0.000000 0.000000 0.000000
# 3 -0.000825 -0.004026 0.018903 0.000000 0.000000 0.000000
# 4 0.000000 0.000000 0.000000 0.026086 0.000000 0.000000
# 5 0.000000 0.000000 0.000000 0.000000 0.087354 0.000000
# 6 0.000000 0.000000 0.000000 0.000000 0.000000 0.076684
#
#
# Mechanical properties :
#
#
# Convention : Reuss Voigt Hill
#
# Bulk Modulus (GPa) = 49.28234 64.84930 57.06582
# Shear Modulus (GPa) = 19.94678 28.06147 24.00412
#
# Velocity S-wave (km/s) = 3.28552 3.89693 3.60421
# Velocity P-wave (km/s) = 6.40805 7.43927 6.94283
#
# Compressibility (1/GPa) = 0.02029124
#
# Stress axis : x y z
#
# Youngs Moduli (GPa) = 104.85796 116.33084 52.90268
#
# Poissons Ratio (x) = 0.40963 0.04362
# Poissons Ratio (y) = 0.36923 0.21300
# Poissons Ratio (z) = 0.08647 0.46838
#
# Static dielectric constant tensor:
#      x y z
#    x 1.608020 0.000000 0.000000 
#    y 0.000000 1.608530 0.000000 
#    z 0.000000 0.000000 1.941180 
# 
# From -- ./inp_files/7580.got.cif
#   From: 2010.05.17/outbox.ucp.g08.bks.cvg/sg43_4_cif.got.tgz:7580.got - 2010.06.11 16:31:01.
