data_PCOD9372632
_publ_section_title
;
Structure prediction by ZEFSAII (Michael W. Deem and Ramdas Pophale) SiO2 
 PCOD9372632
Probable space group: F D D 2
;
_chemical_formula_sum "Si O2"
_cell_formula_units_Z 96
_cell_length_a 20.392092
_cell_length_b 23.778928
_cell_length_c 10.136824
_cell_angle_alpha 90.000000
_cell_angle_beta 90.000000
_cell_angle_gamma 90.000000
_cell_volume 4915.367118
_symmetry_space_group_name_H-M "F D D 2"
_symmetry_group_IT_number 43
_symmetry_cell_setting 'orthorhombic'
loop_
_space_group_symop_operation_xyz
x,y,z
-x,-y,z
1/4-x,1/4+y,1/4+z
1/4+x,1/4-y,1/4+z
x,1/2+y,1/2+z
-x,1/2-y,1/2+z
1/4-x,3/4+y,3/4+z
1/4+x,3/4-y,3/4+z
1/2+x,y,1/2+z
1/2-x,-y,1/2+z
3/4-x,1/4+y,3/4+z
3/4+x,1/4-y,3/4+z
1/2+x,1/2+y,z
1/2-x,1/2-y,z
3/4-x,3/4+y,1/4+z
3/4+x,3/4-y,1/4+z
loop_
_atom_site_type_symbol
_atom_site_label
_atom_site_fract_x
_atom_site_fract_y
_atom_site_fract_z
Si Si1 0.773786 0.337399 0.530170
Si Si2 0.167276 0.044195 0.437035
Si Si3 0.356010 0.231485 0.965089
Si Si4 0.474402 0.089758 0.592044
Si Si5 0.460482 0.210855 0.189342
Si Si6 0.851587 0.225366 0.909247
O O1 0.704127 0.306143 0.517899
O O2 0.828959 0.295107 0.474634
O O3 0.785924 0.348004 0.685397
O O4 0.772897 0.395224 0.451206
O O5 0.125300 0.037370 0.569206
O O6 0.200337 0.105303 0.418654
O O7 0.122977 0.033183 0.308985
O O8 0.225012 0.998407 0.441522
O O9 0.417959 0.224108 0.060155
O O10 0.550062 0.073117 0.617424
O O11 0.433687 0.035070 0.636789
O O12 0.414297 0.223903 0.314463
#
# Coordination Sequence:
#
# PCOD9372632 Si02
#       6
#    16  16  16  16  16  16
#     4  11  24  46  75  94 135 192 226 277 342 410
#     4  12  29  40  70 110 139 169 228 297 338 393
#     4  11  26  46  68 104 138 177 234 281 344 405
#     4  11  24  46  74  96 134 191 226 277 342 413
#     4  12  25  42  73 100 135 180 231 278 336 414
#     4  11  24  46  70  98 137 181 229 274 346 407
#
# _framework density 19.530586
#
# number of rings (size 3 to 8) (size 9 to 14) (size 15 to 20)
#    0.000    0.667    5.000    2.000    9.333    4.000 
#    0.000    0.000    0.000    0.000    0.000    0.000 
#    0.000    0.000    0.000    0.000    0.000    0.000 
#
# Total GULP energy -134300.209846 kJ/mol
# GULP energy per Si atom -5595.842077 kJ/mol
# Density = 1.948613 g / cm^3
# Si number density = 19.530586 Si / 1000 Ang^3
#
#
#
# Elastic Constant Matrix: (Units=GPa)
#
#
# Indices 1 2 3 4 5 6 
#
# 1 50.5606 21.9242 11.4342 0.0000 0.0000 0.0000
# 2 21.9242 116.1953 6.0197 0.0000 0.0000 0.0000
# 3 11.4342 6.0197 117.2294 0.0000 0.0000 0.0000
# 4 0.0000 0.0000 0.0000 28.1803 0.0000 0.0000
# 5 0.0000 0.0000 0.0000 0.0000 7.4560 0.0000
# 6 0.0000 0.0000 0.0000 0.0000 0.0000 19.2735
#
#
#
# Elastic Compliance Matrix: (Units=1/GPa)
#
#
# Indices 1 2 3 4 5 6 
#
# 1 0.021970 -0.004045 -0.001935 0.000000 0.000000 0.000000
# 2 -0.004045 0.009374 -0.000087 0.000000 0.000000 0.000000
# 3 -0.001935 -0.000087 0.008723 0.000000 0.000000 0.000000
# 4 0.000000 0.000000 0.000000 0.035486 0.000000 0.000000
# 5 0.000000 0.000000 0.000000 0.000000 0.134120 0.000000
# 6 0.000000 0.000000 0.000000 0.000000 0.000000 0.051885
#
#
# Mechanical properties :
#
#
# Convention : Reuss Voigt Hill
#
# Bulk Modulus (GPa) = 35.79970 40.30460 38.05215
# Shear Modulus (GPa) = 17.66765 27.28912 22.47838
#
# Velocity S-wave (km/s) = 3.01094 3.74204 3.39622
# Velocity P-wave (km/s) = 5.51884 6.27311 5.90802
#
# Compressibility (1/GPa) = 0.02793320
#
# Stress axis : x y z
#
# Youngs Moduli (GPa) = 45.51679 106.67866 114.63299
#
# Poissons Ratio (x) = 0.43153 0.22183
# Poissons Ratio (y) = 0.18412 0.00995
# Poissons Ratio (z) = 0.08808 0.00926
#
# Static dielectric constant tensor:
#      x y z
#    x 1.705400 0.000000 0.000000 
#    y 0.000000 1.667640 0.000000 
#    z 0.000000 0.000000 1.654680 
# 
# From -- ./inp_files/3722.got.cif
#   From: 2010.05.17/outbox.cif.g08.bks.cpg/sg43_2_cif.got.tgz:3722.got - 2010.06.03 19:21:55.
