data_PCOD9372572
_publ_section_title
;
Structure prediction by ZEFSAII (Michael W. Deem and Ramdas Pophale) SiO2 
 PCOD9372572
Probable space group: F D D 2
;
_chemical_formula_sum "Si O2"
_cell_formula_units_Z 104
_cell_length_a 9.287571
_cell_length_b 19.116216
_cell_length_c 26.476518
_cell_angle_alpha 90.000000
_cell_angle_beta 90.000000
_cell_angle_gamma 90.000000
_cell_volume 4700.726084
_symmetry_space_group_name_H-M "F D D 2"
_symmetry_group_IT_number 43
_symmetry_cell_setting 'orthorhombic'
loop_
_space_group_symop_operation_xyz
x,y,z
-x,-y,z
1/4-x,1/4+y,1/4+z
1/4+x,1/4-y,1/4+z
x,1/2+y,1/2+z
-x,1/2-y,1/2+z
1/4-x,3/4+y,3/4+z
1/4+x,3/4-y,3/4+z
1/2+x,y,1/2+z
1/2-x,-y,1/2+z
3/4-x,1/4+y,3/4+z
3/4+x,1/4-y,3/4+z
1/2+x,1/2+y,z
1/2-x,1/2-y,z
3/4-x,3/4+y,1/4+z
3/4+x,3/4-y,1/4+z
loop_
_atom_site_type_symbol
_atom_site_label
_atom_site_fract_x
_atom_site_fract_y
_atom_site_fract_z
Si Si1 0.582031 0.757242 0.119740
Si Si2 0.316784 0.339299 0.862955
Si Si3 0.500000 0.500000 0.527349
Si Si4 0.079859 0.309147 0.432191
Si Si5 0.172259 0.572277 0.942817
Si Si6 0.986097 0.330184 0.872895
Si Si7 0.120424 0.560080 0.799696
O O1 0.750000 0.750000 0.127470
O O2 0.551393 0.831411 0.095544
O O3 0.494433 0.747778 0.171329
O O4 0.512653 0.700096 0.083243
O O5 0.355415 0.294390 0.813675
O O6 0.432533 0.338600 0.907835
O O7 0.156068 0.315900 0.877729
O O8 0.595197 0.552657 0.494460
O O9 0.202674 0.369516 0.433861
O O10 0.092832 0.237857 0.397954
O O11 0.080563 0.294754 0.492148
O O12 0.047019 0.603371 0.908143
O O13 0.939322 0.363370 0.818244
O O14 0.000000 0.500000 0.810963
#
# Coordination Sequence:
#
# PCOD9372572 Si02
#       7
#    16  16   8  16  16  16  16
#     4  11  24  47  67 100 147 189 243 316 378 452
#     4  12  24  45  72 103 152 188 248 314 379 452
#     4  12  26  46  76 110 142 204 258 302 386 476
#     4  12  25  44  72 111 149 193 250 328 375 447
#     4  11  25  46  75 104 147 195 251 309 384 452
#     4  11  23  45  74 107 147 198 254 309 379 464
#     4  11  24  44  75 105 144 204 256 307 385 463
#
# _framework density 22.124241000000001
#
# number of rings (size 3 to 8) (size 9 to 14) (size 15 to 20)
#    0.000    0.615    4.615    3.231    4.308    1.231 
#    2.769    0.000    6.769    0.000    0.000    0.000 
#    0.000    0.000    0.000    0.000    0.000    0.000 
#
# Total GULP energy -144820.311939 kJ/mol
# GULP energy per Si atom -5570.011998 kJ/mol
# Density = 2.207388 g / cm^3
# Si number density = 22.124241 Si / 1000 Ang^3
#
#
#
# Elastic Constant Matrix: (Units=GPa)
#
#
# Indices 1 2 3 4 5 6 
#
# 1 132.6716 34.0938 53.4990 0.0000 0.0000 0.0000
# 2 34.0938 100.7761 37.9962 0.0000 0.0000 0.0000
# 3 53.4990 37.9962 110.3144 0.0000 0.0000 0.0000
# 4 0.0000 0.0000 0.0000 -29.7014 0.0000 0.0000
# 5 0.0000 0.0000 0.0000 0.0000 33.6975 0.0000
# 6 0.0000 0.0000 0.0000 0.0000 0.0000 40.2316
#
#
#
# Elastic Compliance Matrix: (Units=1/GPa)
#
#
# Indices 1 2 3 4 5 6 
#
# 1 0.009622 -0.001719 -0.004074 0.000000 0.000000 0.000000
# 2 -0.001719 0.011711 -0.003200 0.000000 0.000000 0.000000
# 3 -0.004074 -0.003200 0.012143 0.000000 0.000000 0.000000
# 4 0.000000 0.000000 0.000000 -0.033668 0.000000 0.000000
# 5 0.000000 0.000000 0.000000 0.000000 0.029676 0.000000
# 6 0.000000 0.000000 0.000000 0.000000 0.000000 0.024856
#
#
# Mechanical properties :
#
#
# Convention : Reuss Voigt Hill
#
# Bulk Modulus (GPa) = 64.55993 66.10444 65.33219
# Shear Modulus (GPa) = 64.52469 23.39042 43.95756
#
# Velocity S-wave (km/s) = 5.40629 3.25504 4.46225
# Velocity P-wave (km/s) = 8.25922 6.63857 7.49284
#
# Compressibility (1/GPa) = 0.01548948
#
# Stress axis : x y z
#
# Youngs Moduli (GPa) = 103.92718 85.38907 82.35130
#
# Poissons Ratio (x) = 0.14679 0.33552
# Poissons Ratio (y) = 0.17866 0.26352
# Poissons Ratio (z) = 0.42343 0.27324
#
# Static dielectric constant tensor:
#      x y z
#    x 1.869940 0.000000 0.000000 
#    y 0.000000 1.931350 0.000000 
#    z 0.000000 0.000000 1.853890 
# 
# From -- ./inp_files/24301.got.cif
#   From: 2010.05.17/outbox.cif.g08.bks.cpg/sg43_13_cif.got.tgz:24301.got - 2010.06.03 19:21:55.
