data_PCOD9372982
_publ_section_title
;
Structure prediction by ZEFSAII (Michael W. Deem and Ramdas Pophale) SiO2 
 PCOD9372982
Probable space group: F D D 2
;
_chemical_formula_sum "Si O2"
_cell_formula_units_Z 24
_cell_length_a 15.000000
_cell_length_b 21.000000
_cell_length_c 15.000000
_cell_angle_alpha 90.000000
_cell_angle_beta 90.000000
_cell_angle_gamma 90.000000
_cell_volume 4725.000000
_symmetry_space_group_name_H-M "F D D 2"
_symmetry_group_IT_number 43
_symmetry_cell_setting 'orthorhombic'
loop_
_space_group_symop_operation_xyz
x,y,z
-x,-y,z
1/4-x,1/4+y,1/4+z
1/4+x,1/4-y,1/4+z
x,1/2+y,1/2+z
-x,1/2-y,1/2+z
1/4-x,3/4+y,3/4+z
1/4+x,3/4-y,3/4+z
1/2+x,y,1/2+z
1/2-x,-y,1/2+z
3/4-x,1/4+y,3/4+z
3/4+x,1/4-y,3/4+z
1/2+x,1/2+y,z
1/2-x,1/2-y,z
3/4-x,3/4+y,1/4+z
3/4+x,3/4-y,1/4+z
loop_
_atom_site_type_symbol
_atom_site_label
_atom_site_fract_x
_atom_site_fract_y
_atom_site_fract_z
Si Si1 0.642719 0.863038 0.778550
Si Si2 0.791791 0.177348 0.079160
Si Si3 0.527430 0.834108 0.461087
Si Si4 0.399953 0.167644 0.250200
Si Si5 0.796535 0.685632 0.956098
Si Si6 0.456884 0.213352 0.070142
O O1 0.539340 0.883163 0.791730
O O2 0.675562 0.841097 0.680256
O O3 0.666831 0.811763 0.855157
O O4 0.701382 0.924194 0.809413
O O5 0.750000 0.250000 0.077750
O O6 0.879721 0.165470 0.017768
O O7 0.564155 0.825036 0.355794
O O8 0.453487 0.892047 0.481633
O O9 0.473358 0.775071 0.507213
O O10 0.467677 0.114479 0.214485
O O11 0.424638 0.222196 0.174084
O O12 0.750000 0.750000 0.985075
O O13 0.878907 0.672806 0.021847
#
# Coordination Sequence:
#
# PCOD9372982 Si02
#       6
#    16  16  16  16  16  16
#     4  11  24  44  66  98 142 178 236 297 352 421
#     4  12  25  45  69 102 140 187 237 289 365 435
#     4  12  25  46  70 102 146 187 238 296 361 439
#     4  11  25  44  71 104 143 182 237 296 359 428
#     4  11  21  40  72 101 133 178 233 294 351 422
#     4  11  23  43  68 102 137 180 236 293 355 423
#
# _framework density 5.0793650000000001
#
# number of rings (size 3 to 8) (size 9 to 14) (size 15 to 20)
#    0.000    0.667    6.667    1.500    0.000    1.333 
#    3.000    0.833    0.000    0.000    0.000    0.000 
#    0.000    0.000    0.000    0.000    0.000    0.000 
#
# Total GULP energy -133648.534531 kJ/mol
# GULP energy per Si atom -5568.688939 kJ/mol
# Density = 0.506780 g / cm^3
# Si number density = 5.079365 Si / 1000 Ang^3
#
#
#
# Elastic Constant Matrix: (Units=GPa)
#
#
# Indices 1 2 3 4 5 6 
#
# 1 172.9177 9.8379 51.5668 0.0000 0.0000 0.0000
# 2 9.8379 28.0440 10.5988 0.0000 0.0000 0.0000
# 3 51.5668 10.5988 195.4034 0.0000 0.0000 0.0000
# 4 0.0000 0.0000 0.0000 26.6181 0.0000 0.0000
# 5 0.0000 0.0000 0.0000 0.0000 46.8642 0.0000
# 6 0.0000 0.0000 0.0000 0.0000 0.0000 30.6225
#
#
#
# Elastic Compliance Matrix: (Units=1/GPa)
#
#
# Indices 1 2 3 4 5 6 
#
# 1 0.006349 -0.001627 -0.001587 0.000000 0.000000 0.000000
# 2 -0.001627 0.036822 -0.001568 0.000000 0.000000 0.000000
# 3 -0.001587 -0.001568 0.005622 0.000000 0.000000 0.000000
# 4 0.000000 0.000000 0.000000 0.037568 0.000000 0.000000
# 5 0.000000 0.000000 0.000000 0.000000 0.021338 0.000000
# 6 0.000000 0.000000 0.000000 0.000000 0.000000 0.032656
#
#
# Mechanical properties :
#
#
# Convention : Reuss Voigt Hill
#
# Bulk Modulus (GPa) = 25.49237 60.04136 42.76686
# Shear Modulus (GPa) = 30.67575 42.44506 36.56040
#
# Velocity S-wave (km/s) = 3.88986 4.57562 4.24660
# Velocity P-wave (km/s) = 5.72267 7.58491 6.71862
#
# Compressibility (1/GPa) = 0.03922743
#
# Stress axis : x y z
#
# Youngs Moduli (GPa) = 157.50449 27.15794 177.88771
#
# Poissons Ratio (x) = 0.04420 0.28235
# Poissons Ratio (y) = 0.25632 0.27889
# Poissons Ratio (z) = 0.25000 0.04258
#
# Static dielectric constant tensor:
#      x y z
#    x 1.732750 0.000000 0.000000 
#    y 0.000000 1.812600 0.000000 
#    z 0.000000 0.000000 1.771900 
# 
# From -- ./inp_files/10067.got.cif
#   From: 2010.05.17/outbox.ucp.g08.bks.cvg/sg43_6_cif.got.tgz:10067.got - 2010.06.11 16:31:01.
