data_PCOD9372846
_publ_section_title
;
Structure prediction by ZEFSAII (Michael W. Deem and Ramdas Pophale) SiO2 
 PCOD9372846
Probable space group: F D D 2
;
_chemical_formula_sum "Si O2"
_cell_formula_units_Z 72
_cell_length_a 32.860392
_cell_length_b 17.893744
_cell_length_c 5.232154
_cell_angle_alpha 90.000000
_cell_angle_beta 90.000000
_cell_angle_gamma 90.000000
_cell_volume 3076.482705
_symmetry_space_group_name_H-M "F D D 2"
_symmetry_group_IT_number 43
_symmetry_cell_setting 'orthorhombic'
loop_
_space_group_symop_operation_xyz
x,y,z
-x,-y,z
1/4-x,1/4+y,1/4+z
1/4+x,1/4-y,1/4+z
x,1/2+y,1/2+z
-x,1/2-y,1/2+z
1/4-x,3/4+y,3/4+z
1/4+x,3/4-y,3/4+z
1/2+x,y,1/2+z
1/2-x,-y,1/2+z
3/4-x,1/4+y,3/4+z
3/4+x,1/4-y,3/4+z
1/2+x,1/2+y,z
1/2-x,1/2-y,z
3/4-x,3/4+y,1/4+z
3/4+x,3/4-y,1/4+z
loop_
_atom_site_type_symbol
_atom_site_label
_atom_site_fract_x
_atom_site_fract_y
_atom_site_fract_z
Si Si1 0.719060 0.881467 0.208760
Si Si2 0.440529 0.648866 0.941751
Si Si3 0.500000 0.500000 0.325563
Si Si4 0.429373 0.002571 0.198289
Si Si5 0.412865 0.229320 0.955369
O O1 0.762387 0.913233 0.117285
O O2 0.732298 0.820199 0.419292
O O3 0.689688 0.948771 0.279095
O O4 0.694488 0.830759 0.009161
O O5 0.433475 0.559583 0.936004
O O6 0.412531 0.679984 0.712637
O O7 0.431687 0.686606 0.212315
O O8 0.463127 0.530020 0.499633
O O9 0.382650 0.001223 0.123394
#
# Coordination Sequence:
#
# PCOD9372846 Si02
#       5
#    16  16   8  16  16
#     4  12  26  49  77 107 153 207 254 311 391 469
#     4  12  26  52  73 115 153 202 253 320 392 462
#     4  12  24  48  82 106 156 208 270 304 392 484
#     4  12  27  48  77 111 148 211 256 322 384 474
#     4  12  31  45  79 115 158 191 263 331 385 447
#
# _framework density 23.403351000000001
#
# number of rings (size 3 to 8) (size 9 to 14) (size 15 to 20)
#    0.000    0.000    4.444    4.000    9.333    0.000 
#    0.000    0.000    0.000    0.000    0.000    0.000 
#    0.000    0.000    0.000    0.000    0.000    0.000 
#
# Total GULP energy -100733.550992 kJ/mol
# GULP energy per Si atom -5596.308388 kJ/mol
# Density = 2.335008 g / cm^3
# Si number density = 23.403351 Si / 1000 Ang^3
#
#
#
# Elastic Constant Matrix: (Units=GPa)
#
#
# Indices 1 2 3 4 5 6 
#
# 1 152.6933 37.0718 5.9376 0.0001 -0.0002 0.0000
# 2 37.0718 89.6950 44.5922 -0.0001 -0.0001 0.0000
# 3 5.9376 44.5922 88.1073 -0.0001 -0.0006 -0.0003
# 4 0.0001 -0.0001 -0.0001 37.8081 -0.0002 -0.0001
# 5 -0.0002 -0.0001 -0.0006 -0.0002 23.3901 0.0000
# 6 0.0000 0.0000 -0.0003 -0.0001 0.0000 38.3527
#
#
#
# Elastic Compliance Matrix: (Units=1/GPa)
#
#
# Indices 1 2 3 4 5 6 
#
# 1 0.007407 -0.003759 0.001403 0.000000 0.000000 0.000000
# 2 -0.003759 0.016805 -0.008252 0.000000 0.000000 0.000000
# 3 0.001403 -0.008252 0.015432 0.000000 0.000000 0.000000
# 4 0.000000 0.000000 0.000000 0.026449 0.000000 0.000000
# 5 0.000000 0.000000 0.000000 0.000000 0.042753 0.000000
# 6 0.000000 0.000000 0.000000 0.000000 0.000000 0.026074
#
#
# Mechanical properties :
#
#
# Convention : Reuss Voigt Hill
#
# Bulk Modulus (GPa) = 54.26385 56.18875 55.22630
# Shear Modulus (GPa) = 30.81125 36.10311 33.45718
#
# Velocity S-wave (km/s) = 3.63234 3.93192 3.78509
# Velocity P-wave (km/s) = 6.38972 6.68388 6.53846
#
# Compressibility (1/GPa) = 0.01842848
#
# Stress axis : x y z
#
# Youngs Moduli (GPa) = 135.00424 59.50589 64.80200
#
# Poissons Ratio (x) = 0.22369 -0.09094
# Poissons Ratio (y) = 0.50750 0.53474
# Poissons Ratio (z) = -0.18946 0.49104
#
# Static dielectric constant tensor:
#      x y z
#    x 1.873350 0.000000 0.000000 
#    y 0.000000 1.875370 0.000000 
#    z 0.000000 0.000000 1.914810 
# 
# From -- ./inp_files/1338.got.cif
#   From: 2010.05.17/outbox.cif.g08.bks.cpg/sg43_1_cif.got.tgz:1338.got - 2010.06.03 19:21:55.
