data_PCOD9372368
_publ_section_title
;
Structure prediction by ZEFSAII (Michael W. Deem and Ramdas Pophale) SiO2 
 PCOD9372368
Probable space group: F D D 2
;
_chemical_formula_sum "Si O2"
_cell_formula_units_Z 80
_cell_length_a 21.219103
_cell_length_b 9.911221
_cell_length_c 16.332303
_cell_angle_alpha 90.000000
_cell_angle_beta 90.000000
_cell_angle_gamma 90.000000
_cell_volume 3434.801228
_symmetry_space_group_name_H-M "F D D 2"
_symmetry_group_IT_number 43
_symmetry_cell_setting 'orthorhombic'
loop_
_space_group_symop_operation_xyz
x,y,z
-x,-y,z
1/4-x,1/4+y,1/4+z
1/4+x,1/4-y,1/4+z
x,1/2+y,1/2+z
-x,1/2-y,1/2+z
1/4-x,3/4+y,3/4+z
1/4+x,3/4-y,3/4+z
1/2+x,y,1/2+z
1/2-x,-y,1/2+z
3/4-x,1/4+y,3/4+z
3/4+x,1/4-y,3/4+z
1/2+x,1/2+y,z
1/2-x,1/2-y,z
3/4-x,3/4+y,1/4+z
3/4+x,3/4-y,1/4+z
loop_
_atom_site_type_symbol
_atom_site_label
_atom_site_fract_x
_atom_site_fract_y
_atom_site_fract_z
Si Si1 0.086825 0.640684 0.267750
Si Si2 0.104883 0.900034 0.355007
Si Si3 0.888027 0.411977 0.702679
Si Si4 0.752679 0.977301 0.146486
Si Si5 0.336681 0.637130 0.778913
O O1 0.124979 0.753205 0.319658
O O2 0.094834 0.686890 0.174124
O O3 0.018943 0.656890 0.311137
O O4 0.117274 0.493895 0.276795
O O5 0.037198 0.865262 0.395095
O O6 0.094326 0.000086 0.280694
O O7 0.825735 0.480434 0.662691
O O8 0.932362 0.405974 0.623563
O O9 0.870153 0.264919 0.736902
O O10 0.722143 0.896003 0.221393
#
# Coordination Sequence:
#
# PCOD9372368 Si02
#       5
#    16  16  16  16  16
#     4   9  18  41  62  86 134 173 209 272 329 400
#     4   9  20  39  66  89 131 170 224 274 328 391
#     4  12  22  41  68  96 131 171 223 286 324 392
#     4   9  22  42  65  86 138 177 209 266 353 392
#     4  11  21  37  66  94 130 173 221 267 331 400
#
# _framework density 23.291011999999998
#
# number of rings (size 3 to 8) (size 9 to 14) (size 15 to 20)
#    1.200    0.800    2.000    1.800    0.000    0.000 
#    3.600   11.000   17.600    0.000    0.000    0.000 
#    0.000    0.000    0.000    0.000    0.000    0.000 
#
# Total GULP energy -111635.631139 kJ/mol
# GULP energy per Si atom -5581.781557 kJ/mol
# Density = 2.323800 g / cm^3
# Si number density = 23.291012 Si / 1000 Ang^3
#
#
#
# Elastic Constant Matrix: (Units=GPa)
#
#
# Indices 1 2 3 4 5 6 
#
# 1 31.3901 18.1109 12.4822 0.0000 0.0000 0.0000
# 2 18.1109 55.2306 40.2270 0.0000 0.0000 0.0000
# 3 12.4822 40.2270 176.5537 0.0000 0.0000 0.0000
# 4 0.0000 0.0000 0.0000 53.2688 0.0000 0.0000
# 5 0.0000 0.0000 0.0000 0.0000 14.7981 0.0000
# 6 0.0000 0.0000 0.0000 0.0000 0.0000 25.7817
#
#
#
# Elastic Compliance Matrix: (Units=1/GPa)
#
#
# Indices 1 2 3 4 5 6 
#
# 1 0.039296 -0.013024 0.000189 0.000000 0.000000 0.000000
# 2 -0.013024 0.026025 -0.005009 0.000000 0.000000 0.000000
# 3 0.000189 -0.005009 0.006792 0.000000 0.000000 0.000000
# 4 0.000000 0.000000 0.000000 0.018773 0.000000 0.000000
# 5 0.000000 0.000000 0.000000 0.000000 0.067576 0.000000
# 6 0.000000 0.000000 0.000000 0.000000 0.000000 0.038787
#
#
# Mechanical properties :
#
#
# Convention : Reuss Voigt Hill
#
# Bulk Modulus (GPa) = 27.45279 44.97939 36.21609
# Shear Modulus (GPa) = 20.40172 31.59333 25.99753
#
# Velocity S-wave (km/s) = 2.96285 3.68701 3.34459
# Velocity P-wave (km/s) = 4.84944 6.12203 5.52252
#
# Compressibility (1/GPa) = 0.03642617
#
# Stress axis : x y z
#
# Youngs Moduli (GPa) = 25.44787 38.42502 147.23471
#
# Poissons Ratio (x) = 0.50043 -0.02785
# Poissons Ratio (y) = 0.33142 0.73748
# Poissons Ratio (z) = -0.00481 0.19247
#
# Static dielectric constant tensor:
#      x y z
#    x 1.895420 0.000000 0.000000 
#    y 0.000000 1.919700 0.000000 
#    z 0.000000 0.000000 1.923770 
# 
# From -- ./inp_files/11184.got.cif
#   From: 2010.05.17/outbox.cif.g08.bks.cpg/sg43_6_cif.got.tgz:11184.got - 2010.06.03 19:21:55.
