data_PCOD9372498
_publ_section_title
;
Structure prediction by ZEFSAII (Michael W. Deem and Ramdas Pophale) SiO2 
 PCOD9372498
Probable space group: F D D 2
;
_chemical_formula_sum "Si O2"
_cell_formula_units_Z 56
_cell_length_a 14.987938
_cell_length_b 10.242126
_cell_length_c 13.194809
_cell_angle_alpha 90.000000
_cell_angle_beta 90.000000
_cell_angle_gamma 90.000000
_cell_volume 2025.513351
_symmetry_space_group_name_H-M "F D D 2"
_symmetry_group_IT_number 43
_symmetry_cell_setting 'orthorhombic'
loop_
_space_group_symop_operation_xyz
x,y,z
-x,-y,z
1/4-x,1/4+y,1/4+z
1/4+x,1/4-y,1/4+z
x,1/2+y,1/2+z
-x,1/2-y,1/2+z
1/4-x,3/4+y,3/4+z
1/4+x,3/4-y,3/4+z
1/2+x,y,1/2+z
1/2-x,-y,1/2+z
3/4-x,1/4+y,3/4+z
3/4+x,1/4-y,3/4+z
1/2+x,1/2+y,z
1/2-x,1/2-y,z
3/4-x,3/4+y,1/4+z
3/4+x,3/4-y,1/4+z
loop_
_atom_site_type_symbol
_atom_site_label
_atom_site_fract_x
_atom_site_fract_y
_atom_site_fract_z
Si Si1 0.250000 0.750000 0.930570
Si Si2 0.520904 0.146070 0.878193
Si Si3 0.776830 0.012177 0.333005
Si Si4 0.325588 0.140687 0.043469
O O1 0.211928 0.641437 0.852606
O O2 0.209665 0.856208 0.011723
O O3 0.422988 0.195194 0.071768
O O4 0.453012 0.266602 0.860786
O O5 0.572981 0.197339 0.977160
O O6 0.750000 0.250000 0.167272
O O7 0.817184 0.090398 0.427598
O O8 0.250000 0.250000 0.058342
#
# Coordination Sequence:
#
# PCOD9372498 Si02
#       4
#     8  16  16  16
#     4   8  22  44  70 110 152 200 278 328 418 494
#     4   9  21  44  66 108 151 206 264 336 405 488
#     4  11  22  47  75 111 162 215 277 343 423 500
#     4  11  24  44  74 113 159 216 280 342 419 504
#
# _framework density 27.647314000000001
#
# number of rings (size 3 to 8) (size 9 to 14) (size 15 to 20)
#    0.857    1.143    0.000    2.571    2.000    0.000 
#   15.429    0.000    0.000    0.000    0.000    0.000 
#    0.000    0.000    0.000    0.000    0.000    0.000 
#
# Total GULP energy -78106.068052 kJ/mol
# GULP energy per Si atom -5579.004861 kJ/mol
# Density = 2.758439 g / cm^3
# Si number density = 27.647314 Si / 1000 Ang^3
#
#
#
# Elastic Constant Matrix: (Units=GPa)
#
#
# Indices 1 2 3 4 5 6 
#
# 1 160.6011 79.9267 27.2658 0.0000 0.0000 0.0000
# 2 79.9267 226.3589 74.1262 0.0000 0.0000 0.0000
# 3 27.2658 74.1262 165.1869 0.0000 0.0000 0.0000
# 4 0.0000 0.0000 0.0000 71.9428 0.0000 0.0000
# 5 0.0000 0.0000 0.0000 0.0000 81.9350 0.0000
# 6 0.0000 0.0000 0.0000 0.0000 0.0000 8.5742
#
#
#
# Elastic Compliance Matrix: (Units=1/GPa)
#
#
# Indices 1 2 3 4 5 6 
#
# 1 0.007555 -0.002648 -0.000059 0.000000 0.000000 0.000000
# 2 -0.002648 0.006107 -0.002303 0.000000 0.000000 0.000000
# 3 -0.000059 -0.002303 0.007097 0.000000 0.000000 0.000000
# 4 0.000000 0.000000 0.000000 0.013900 0.000000 0.000000
# 5 0.000000 0.000000 0.000000 0.000000 0.012205 0.000000
# 6 0.000000 0.000000 0.000000 0.000000 0.000000 0.116629
#
#
# Mechanical properties :
#
#
# Convention : Reuss Voigt Hill
#
# Bulk Modulus (GPa) = 93.12532 101.64271 97.38401
# Shear Modulus (GPa) = 28.23390 57.21229 42.72309
#
# Velocity S-wave (km/s) = 3.19912 4.55396 3.93528
# Velocity P-wave (km/s) = 6.88493 8.03089 7.47989
#
# Compressibility (1/GPa) = 0.01073822
#
# Stress axis : x y z
#
# Youngs Moduli (GPa) = 132.37070 163.74169 140.90365
#
# Poissons Ratio (x) = 0.43364 0.00825
# Poissons Ratio (y) = 0.35056 0.32456
# Poissons Ratio (z) = 0.00775 0.37716
#
# Static dielectric constant tensor:
#      x y z
#    x 2.556860 0.000000 0.000000 
#    y 0.000000 2.039250 0.000000 
#    z 0.000000 0.000000 2.110880 
# 
# From -- ./inp_files/9033.got.cif
#   From: 2010.05.17/outbox.cif.g08.bks.cpg/sg43_5_cif.got.tgz:9033.got - 2010.06.03 19:21:55.
