data_PCOD9372913
_publ_section_title
;
Structure prediction by ZEFSAII (Michael W. Deem and Ramdas Pophale) SiO2 
 PCOD9372913
Probable space group: F D D 2
;
_chemical_formula_sum "Si O2"
_cell_formula_units_Z 56
_cell_length_a 4.852440
_cell_length_b 21.713909
_cell_length_c 17.951316
_cell_angle_alpha 90.000000
_cell_angle_beta 90.000000
_cell_angle_gamma 90.000000
_cell_volume 1891.448319
_symmetry_space_group_name_H-M "F D D 2"
_symmetry_group_IT_number 43
_symmetry_cell_setting 'orthorhombic'
loop_
_space_group_symop_operation_xyz
x,y,z
-x,-y,z
1/4-x,1/4+y,1/4+z
1/4+x,1/4-y,1/4+z
x,1/2+y,1/2+z
-x,1/2-y,1/2+z
1/4-x,3/4+y,3/4+z
1/4+x,3/4-y,3/4+z
1/2+x,y,1/2+z
1/2-x,-y,1/2+z
3/4-x,1/4+y,3/4+z
3/4+x,1/4-y,3/4+z
1/2+x,1/2+y,z
1/2-x,1/2-y,z
3/4-x,3/4+y,1/4+z
3/4+x,3/4-y,1/4+z
loop_
_atom_site_type_symbol
_atom_site_label
_atom_site_fract_x
_atom_site_fract_y
_atom_site_fract_z
Si Si1 0.398162 0.139178 0.818560
Si Si2 0.601838 0.139178 0.478143
Si Si3 0.250000 0.546850 0.898351
Si Si4 0.250000 0.750000 0.398351
O O1 0.125000 0.125000 0.773351
O O2 0.250000 0.118531 0.898351
O O3 0.665908 0.092004 0.826766
O O4 0.440574 0.209625 0.844534
O O5 0.559426 0.209625 0.452169
O O6 0.334092 0.092004 0.469937
O O7 0.500000 0.500000 0.881764
O O8 0.000000 0.500000 0.914939
#
# Coordination Sequence:
#
# PCOD9372913 Si02
#       4
#    16  16  16   8
#     4  12  29  51  85 123 166 237 282 366 456 508
#     4  12  29  51  85 123 166 237 282 366 456 508
#     4  12  27  51  84 125 173 218 300 370 438 550
#     4  12  30  58  80 126 182 210 316 360 428 564
#
# _framework density 29.606943999999999
#
# number of rings (size 3 to 8) (size 9 to 14) (size 15 to 20)
#    0.000    0.000    0.000    8.571   12.000    8.000 
#    0.000    0.000    0.000    0.000    0.000    0.000 
#    0.000    0.000    0.000    0.000    0.000    0.000 
#
# Total GULP energy -78165.787493 kJ/mol
# GULP energy per Si atom -5583.270535 kJ/mol
# Density = 2.953956 g / cm^3
# Si number density = 29.606944 Si / 1000 Ang^3
#
#
#
# Elastic Constant Matrix: (Units=GPa)
#
#
# Indices 1 2 3 4 5 6 
#
# 1 279.5958 97.6453 87.2288 0.0000 0.0000 0.0000
# 2 97.6453 221.7565 77.5504 0.0000 0.0000 0.0000
# 3 87.2288 77.5504 228.6433 0.0000 0.0000 0.0000
# 4 0.0000 0.0000 0.0000 150.7337 0.0000 0.0000
# 5 0.0000 0.0000 0.0000 0.0000 37.0076 0.0000
# 6 0.0000 0.0000 0.0000 0.0000 0.0000 62.4964
#
#
#
# Elastic Compliance Matrix: (Units=1/GPa)
#
#
# Indices 1 2 3 4 5 6 
#
# 1 0.004492 -0.001564 -0.001183 0.000000 0.000000 0.000000
# 2 -0.001564 0.005661 -0.001323 0.000000 0.000000 0.000000
# 3 -0.001183 -0.001323 0.005274 0.000000 0.000000 0.000000
# 4 0.000000 0.000000 0.000000 0.006634 0.000000 0.000000
# 5 0.000000 0.000000 0.000000 0.000000 0.027021 0.000000
# 6 0.000000 0.000000 0.000000 0.000000 0.000000 0.016001
#
#
# Mechanical properties :
#
#
# Convention : Reuss Voigt Hill
#
# Bulk Modulus (GPa) = 137.25992 139.42718 138.34355
# Shear Modulus (GPa) = 66.09094 81.21894 73.65494
#
# Velocity S-wave (km/s) = 4.72982 5.24328 4.99315
# Velocity P-wave (km/s) = 8.73440 9.15701 8.94820
#
# Compressibility (1/GPa) = 0.00728545
#
# Stress axis : x y z
#
# Youngs Moduli (GPa) = 222.61829 176.64792 189.61443
#
# Poissons Ratio (x) = 0.27631 0.22435
# Poissons Ratio (y) = 0.34821 0.25092
# Poissons Ratio (z) = 0.26340 0.23376
#
# Static dielectric constant tensor:
#      x y z
#    x 1.991660 0.000000 0.000000 
#    y 0.000000 2.452470 0.000000 
#    z 0.000000 0.000000 3.835710 
# 
# From -- ./inp_files/23352.got.cif
#   From: 2010.05.17/outbox.cif.g08.bks.cpg/sg43_12_cif.got.tgz:23352.got - 2010.06.03 19:21:55.
