data_PCOD9372176
_publ_section_title
;
Structure prediction by ZEFSAII (Michael W. Deem and Ramdas Pophale) SiO2 
 PCOD9372176
Probable space group: F D D 2
;
_chemical_formula_sum "Si O2"
_cell_formula_units_Z 72
_cell_length_a 20.248978
_cell_length_b 18.040132
_cell_length_c 7.678092
_cell_angle_alpha 90.000000
_cell_angle_beta 90.000000
_cell_angle_gamma 90.000000
_cell_volume 2804.762751
_symmetry_space_group_name_H-M "F D D 2"
_symmetry_group_IT_number 43
_symmetry_cell_setting 'orthorhombic'
loop_
_space_group_symop_operation_xyz
x,y,z
-x,-y,z
1/4-x,1/4+y,1/4+z
1/4+x,1/4-y,1/4+z
x,1/2+y,1/2+z
-x,1/2-y,1/2+z
1/4-x,3/4+y,3/4+z
1/4+x,3/4-y,3/4+z
1/2+x,y,1/2+z
1/2-x,-y,1/2+z
3/4-x,1/4+y,3/4+z
3/4+x,1/4-y,3/4+z
1/2+x,1/2+y,z
1/2-x,1/2-y,z
3/4-x,3/4+y,1/4+z
3/4+x,3/4-y,1/4+z
loop_
_atom_site_type_symbol
_atom_site_label
_atom_site_fract_x
_atom_site_fract_y
_atom_site_fract_z
Si Si1 0.637584 0.196243 0.344440
Si Si2 0.702635 0.130358 0.806301
Si Si3 0.149043 0.484248 0.728613
Si Si4 0.709894 0.060989 0.188693
Si Si5 0.000000 0.000000 0.851448
O O1 0.641745 0.238614 0.157841
O O2 0.658016 0.113423 0.288538
O O3 0.569147 0.227893 0.422466
O O4 0.691581 0.226114 0.476110
O O5 0.760537 0.178839 0.724412
O O6 0.673394 0.066185 0.684149
O O7 0.644336 0.189785 0.842790
O O8 0.717994 0.093490 0.992803
O O9 0.217047 0.439951 0.768327
#
# Coordination Sequence:
#
# PCOD9372176 Si02
#       5
#    16  16  16  16   8
#     4  10  26  44  74 108 145 200 244 318 384 453
#     4  10  26  45  75 112 150 200 251 320 388 460
#     4  10  24  49  77 107 151 202 257 314 383 461
#     4  10  24  48  79 105 156 198 263 306 387 461
#     4  12  28  42  72 110 152 194 258 312 390 462
#
# _framework density 25.67062
#
# number of rings (size 3 to 8) (size 9 to 14) (size 15 to 20)
#    0.000    1.778    0.000    0.000   15.556    8.889 
#    0.000    0.000    0.000    0.000    0.000    0.000 
#    0.000    0.000    0.000    0.000    0.000    0.000 
#
# Total GULP energy -100694.828662 kJ/mol
# GULP energy per Si atom -5594.157148 kJ/mol
# Density = 2.561219 g / cm^3
# Si number density = 25.670620 Si / 1000 Ang^3
#
#
#
# Elastic Constant Matrix: (Units=GPa)
#
#
# Indices 1 2 3 4 5 6 
#
# 1 52.3465 25.4438 34.9334 0.0002 -0.0001 -0.0001
# 2 25.4438 152.9226 33.3829 0.0005 -0.0003 -0.0002
# 3 34.9334 33.3829 90.2315 0.0024 -0.0013 -0.0007
# 4 0.0002 0.0005 0.0024 24.3070 -0.0008 -0.0004
# 5 -0.0001 -0.0003 -0.0013 -0.0008 35.4621 0.0002
# 6 -0.0001 -0.0002 -0.0007 -0.0004 0.0002 44.8742
#
#
#
# Elastic Compliance Matrix: (Units=1/GPa)
#
#
# Indices 1 2 3 4 5 6 
#
# 1 0.026520 -0.002362 -0.009394 0.000001 0.000000 0.000000
# 2 -0.002362 0.007324 -0.001795 0.000000 0.000000 0.000000
# 3 -0.009394 -0.001795 0.015384 -0.000001 0.000001 0.000000
# 4 0.000001 0.000000 -0.000001 0.041140 0.000001 0.000000
# 5 0.000000 0.000000 0.000001 0.000001 0.028199 0.000000
# 6 0.000000 0.000000 0.000000 0.000000 0.000000 0.022285
#
#
# Mechanical properties :
#
#
# Convention : Reuss Voigt Hill
#
# Bulk Modulus (GPa) = 45.19479 53.66898 49.43189
# Shear Modulus (GPa) = 28.51777 34.37802 31.44789
#
# Velocity S-wave (km/s) = 3.33665 3.66347 3.50387
# Velocity P-wave (km/s) = 5.69984 6.23273 5.97223
#
# Compressibility (1/GPa) = 0.02212644
#
# Stress axis : x y z
#
# Youngs Moduli (GPa) = 37.70688 136.53465 65.00438
#
# Poissons Ratio (x) = 0.32249 0.61063
# Poissons Ratio (y) = 0.08906 0.11670
# Poissons Ratio (z) = 0.35420 0.24512
#
# Static dielectric constant tensor:
#      x y z
#    x 1.992520 0.000000 0.000000 
#    y 0.000000 2.047970 0.000000 
#    z 0.000000 0.000000 2.003000 
# 
# From -- ./inp_files/2672.got.cif
#   From: 2010.05.17/outbox.cif.g08.bks.cpg/sg43_2_cif.got.tgz:2672.got - 2010.06.03 19:21:55.
