data_PCOD9372718
_publ_section_title
;
Structure prediction by ZEFSAII (Michael W. Deem and Ramdas Pophale) SiO2 
 PCOD9372718
Probable space group: F D D 2
;
_chemical_formula_sum "Si O2"
_cell_formula_units_Z 104
_cell_length_a 20.856174
_cell_length_b 26.108110
_cell_length_c 6.909855
_cell_angle_alpha 90.000000
_cell_angle_beta 90.000000
_cell_angle_gamma 90.000000
_cell_volume 3762.521664
_symmetry_space_group_name_H-M "F D D 2"
_symmetry_group_IT_number 43
_symmetry_cell_setting 'orthorhombic'
loop_
_space_group_symop_operation_xyz
x,y,z
-x,-y,z
1/4-x,1/4+y,1/4+z
1/4+x,1/4-y,1/4+z
x,1/2+y,1/2+z
-x,1/2-y,1/2+z
1/4-x,3/4+y,3/4+z
1/4+x,3/4-y,3/4+z
1/2+x,y,1/2+z
1/2-x,-y,1/2+z
3/4-x,1/4+y,3/4+z
3/4+x,1/4-y,3/4+z
1/2+x,1/2+y,z
1/2-x,1/2-y,z
3/4-x,3/4+y,1/4+z
3/4+x,3/4-y,1/4+z
loop_
_atom_site_type_symbol
_atom_site_label
_atom_site_fract_x
_atom_site_fract_y
_atom_site_fract_z
Si Si1 0.443567 0.081202 0.915590
Si Si2 0.385461 0.455214 0.962831
Si Si3 0.016128 0.120122 0.785742
Si Si4 0.178769 0.477723 0.959082
Si Si5 0.750000 0.750000 0.411152
Si Si6 0.455324 0.287661 0.257381
Si Si7 0.144013 0.127041 0.277221
O O1 0.395077 0.037406 0.999812
O O2 0.495604 0.049044 0.797725
O O3 0.480601 0.111837 0.080595
O O4 0.404342 0.114862 0.757231
O O5 0.421587 0.415258 0.823164
O O6 0.438378 0.495698 0.028692
O O7 0.327366 0.490444 0.890024
O O8 0.365707 0.425172 0.158136
O O9 0.961824 0.104847 0.938539
O O10 0.034085 0.179665 0.805470
O O11 0.185960 0.471017 0.729121
O O12 0.218738 0.529636 0.993750
O O13 0.418031 0.339690 0.212295
#
# Coordination Sequence:
#
# PCOD9372718 Si02
#       7
#    16  16  16  16   8  16  16
#     4  11  27  48  72 114 152 198 262 329 394 480
#     4  12  24  49  79 108 154 209 257 325 407 484
#     4  12  26  47  76 114 152 203 267 319 399 487
#     4  11  26  47  70 116 153 197 265 316 399 478
#     4  12  24  50  72 106 146 206 256 308 406 468
#     4  11  26  47  75 111 154 201 258 326 395 480
#     4  11  25  47  76 106 156 201 255 323 413 461
#
# _framework density 27.641038000000002
#
# number of rings (size 3 to 8) (size 9 to 14) (size 15 to 20)
#    0.000    0.615    6.154    0.923    8.615    3.077 
#    0.000    0.000    0.000    0.000    0.000    0.000 
#    0.000    0.000    0.000    0.000    0.000    0.000 
#
# Total GULP energy -145667.542892 kJ/mol
# GULP energy per Si atom -5602.597804 kJ/mol
# Density = 2.757813 g / cm^3
# Si number density = 27.641038 Si / 1000 Ang^3
#
#
#
# Elastic Constant Matrix: (Units=GPa)
#
#
# Indices 1 2 3 4 5 6 
#
# 1 119.4610 46.3749 32.2157 -0.0006 0.0023 -0.0006
# 2 46.3749 125.7789 15.9414 0.0017 -0.0007 -0.0013
# 3 32.2157 15.9414 107.0378 -0.0010 0.0068 0.0000
# 4 -0.0006 0.0017 -0.0010 39.0758 0.0018 -0.0005
# 5 0.0023 -0.0007 0.0068 0.0018 55.5321 -0.0002
# 6 -0.0006 -0.0013 0.0000 -0.0005 -0.0002 66.3134
#
#
#
# Elastic Compliance Matrix: (Units=1/GPa)
#
#
# Indices 1 2 3 4 5 6 
#
# 1 0.010443 -0.003518 -0.002619 0.000000 0.000000 0.000000
# 2 -0.003518 0.009289 -0.000324 0.000000 0.000000 0.000000
# 3 -0.002619 -0.000324 0.010179 0.000000 -0.000001 0.000000
# 4 0.000000 0.000000 0.000000 0.025591 -0.000001 0.000000
# 5 0.000000 0.000000 -0.000001 -0.000001 0.018008 0.000000
# 6 0.000000 0.000000 0.000000 0.000000 0.000000 0.015080
#
#
# Mechanical properties :
#
#
# Convention : Reuss Voigt Hill
#
# Bulk Modulus (GPa) = 58.86834 60.14908 59.50871
# Shear Modulus (GPa) = 46.65215 49.36730 48.00972
#
# Velocity S-wave (km/s) = 4.11272 4.23071 4.17213
# Velocity P-wave (km/s) = 6.62543 6.75820 6.69214
#
# Compressibility (1/GPa) = 0.01698706
#
# Stress axis : x y z
#
# Youngs Moduli (GPa) = 95.75696 107.65607 98.24047
#
# Poissons Ratio (x) = 0.37878 0.25730
# Poissons Ratio (y) = 0.33692 0.03187
# Poissons Ratio (z) = 0.25080 0.03493
#
# Static dielectric constant tensor:
#      x y z
#    x 2.162420 0.000000 0.000000 
#    y 0.000000 2.174670 0.000000 
#    z 0.000000 0.000000 2.170630 
# 
# From -- ./inp_files/3372.got.cif
#   From: 2010.05.17/outbox.cif.g08.bks.cpg/sg43_2_cif.got.tgz:3372.got - 2010.06.03 19:21:55.
