data_PCOD9372558
_publ_section_title
;
Structure prediction by ZEFSAII (Michael W. Deem and Ramdas Pophale) SiO2 
 PCOD9372558
Probable space group: F D D 2
;
_chemical_formula_sum "Si O2"
_cell_formula_units_Z 104
_cell_length_a 8.343857
_cell_length_b 23.140744
_cell_length_c 22.233125
_cell_angle_alpha 90.000000
_cell_angle_beta 90.000000
_cell_angle_gamma 90.000000
_cell_volume 4292.839782
_symmetry_space_group_name_H-M "F D D 2"
_symmetry_group_IT_number 43
_symmetry_cell_setting 'orthorhombic'
loop_
_space_group_symop_operation_xyz
x,y,z
-x,-y,z
1/4-x,1/4+y,1/4+z
1/4+x,1/4-y,1/4+z
x,1/2+y,1/2+z
-x,1/2-y,1/2+z
1/4-x,3/4+y,3/4+z
1/4+x,3/4-y,3/4+z
1/2+x,y,1/2+z
1/2-x,-y,1/2+z
3/4-x,1/4+y,3/4+z
3/4+x,1/4-y,3/4+z
1/2+x,1/2+y,z
1/2-x,1/2-y,z
3/4-x,3/4+y,1/4+z
3/4+x,3/4-y,1/4+z
loop_
_atom_site_type_symbol
_atom_site_label
_atom_site_fract_x
_atom_site_fract_y
_atom_site_fract_z
Si Si1 0.481797 0.808613 0.183950
Si Si2 0.792495 0.809679 0.385233
Si Si3 0.734962 0.381205 0.237745
Si Si4 0.750000 0.250000 0.093949
Si Si5 0.485446 0.355715 0.929058
Si Si6 0.688115 0.944407 0.507602
Si Si7 0.315947 0.008942 0.275569
O O1 0.401575 0.848108 0.234641
O O2 0.341684 0.792891 0.138436
O O3 0.603720 0.851945 0.152167
O O4 0.548439 0.750279 0.214312
O O5 0.750000 0.750000 0.420097
O O6 0.907745 0.850600 0.423319
O O7 0.619954 0.839482 0.380798
O O8 0.872488 0.792366 0.323221
O O9 0.608352 0.336897 0.265104
O O10 0.758954 0.443522 0.265565
O O11 0.596933 0.280585 0.060614
O O12 0.573111 0.397233 0.977247
O O13 0.422369 0.299714 0.966030
O O14 0.500000 0.000000 0.300204
#
# Coordination Sequence:
#
# PCOD9372558 Si02
#       7
#    16  16  16   8  16  16  16
#     4  12  25  50  70 107 154 195 246 326 382 455
#     4  11  23  44  74 110 142 202 257 310 382 458
#     4  11  24  46  73 103 154 193 248 321 374 456
#     4  12  28  48  78 114 152 204 264 308 402 460
#     4  11  25  45  75 106 151 191 255 320 382 459
#     4  11  25  44  74 105 151 196 250 310 389 454
#     4  12  26  49  78 116 149 206 260 325 386 466
#
# _framework density 24.226388
#
# number of rings (size 3 to 8) (size 9 to 14) (size 15 to 20)
#    0.000    0.615    4.615    3.231    4.308    2.462 
#    2.769    3.077    0.000    0.000    0.000    0.000 
#    0.000    0.000    0.000    0.000    0.000    0.000 
#
# Total GULP energy -145259.377942 kJ/mol
# GULP energy per Si atom -5586.899152 kJ/mol
# Density = 2.417125 g / cm^3
# Si number density = 24.226388 Si / 1000 Ang^3
#
#
#
# Elastic Constant Matrix: (Units=GPa)
#
#
# Indices 1 2 3 4 5 6 
#
# 1 124.5225 39.3015 31.8211 0.0000 0.0000 0.0000
# 2 39.3015 136.7432 25.2590 0.0000 0.0000 0.0000
# 3 31.8211 25.2590 63.8624 0.0000 0.0000 0.0000
# 4 0.0000 0.0000 0.0000 7.1223 0.0000 0.0000
# 5 0.0000 0.0000 0.0000 0.0000 32.5613 0.0000
# 6 0.0000 0.0000 0.0000 0.0000 0.0000 60.7090
#
#
#
# Elastic Compliance Matrix: (Units=1/GPa)
#
#
# Indices 1 2 3 4 5 6 
#
# 1 0.009705 -0.002046 -0.004027 0.000000 0.000000 0.000000
# 2 -0.002046 0.008321 -0.002272 0.000000 0.000000 0.000000
# 3 -0.004027 -0.002272 0.018564 0.000000 0.000000 0.000000
# 4 0.000000 0.000000 0.000000 0.140405 0.000000 0.000000
# 5 0.000000 0.000000 0.000000 0.000000 0.030711 0.000000
# 6 0.000000 0.000000 0.000000 0.000000 0.000000 0.016472
#
#
# Mechanical properties :
#
#
# Convention : Reuss Voigt Hill
#
# Bulk Modulus (GPa) = 50.24811 57.54349 53.89580
# Shear Modulus (GPa) = 20.20205 35.32827 27.76516
#
# Velocity S-wave (km/s) = 2.89084 3.82285 3.38904
# Velocity P-wave (km/s) = 5.65055 6.57948 6.13263
#
# Compressibility (1/GPa) = 0.01990125
#
# Stress axis : x y z
#
# Youngs Moduli (GPa) = 103.03601 120.18476 53.86871
#
# Poissons Ratio (x) = 0.24585 0.21692
# Poissons Ratio (y) = 0.21077 0.12237
# Poissons Ratio (z) = 0.41491 0.27302
#
# Static dielectric constant tensor:
#      x y z
#    x 2.058850 0.000000 0.000000 
#    y 0.000000 2.030940 0.000000 
#    z 0.000000 0.000000 1.985410 
# 
# From -- ./inp_files/24308.got.cif
#   From: 2010.05.17/outbox.cif.g08.bks.cpg/sg43_13_cif.got.tgz:24308.got - 2010.06.03 19:21:55.
