data_PCOD9372512
_publ_section_title
;
Structure prediction by ZEFSAII (Michael W. Deem and Ramdas Pophale) SiO2 
 PCOD9372512
Probable space group: F D D 2
;
_chemical_formula_sum "Si O2"
_cell_formula_units_Z 72
_cell_length_a 6.468159
_cell_length_b 25.837591
_cell_length_c 16.219529
_cell_angle_alpha 90.000000
_cell_angle_beta 90.000000
_cell_angle_gamma 90.000000
_cell_volume 2710.634396
_symmetry_space_group_name_H-M "F D D 2"
_symmetry_group_IT_number 43
_symmetry_cell_setting 'orthorhombic'
loop_
_space_group_symop_operation_xyz
x,y,z
-x,-y,z
1/4-x,1/4+y,1/4+z
1/4+x,1/4-y,1/4+z
x,1/2+y,1/2+z
-x,1/2-y,1/2+z
1/4-x,3/4+y,3/4+z
1/4+x,3/4-y,3/4+z
1/2+x,y,1/2+z
1/2-x,-y,1/2+z
3/4-x,1/4+y,3/4+z
3/4+x,1/4-y,3/4+z
1/2+x,1/2+y,z
1/2-x,1/2-y,z
3/4-x,3/4+y,1/4+z
3/4+x,3/4-y,1/4+z
loop_
_atom_site_type_symbol
_atom_site_label
_atom_site_fract_x
_atom_site_fract_y
_atom_site_fract_z
Si Si1 0.434751 0.903647 0.673010
Si Si2 0.815249 0.346353 0.088922
Si Si3 0.750000 0.750000 0.005966
Si Si4 0.299050 0.697306 0.667132
Si Si5 0.450950 0.552694 0.594800
O O1 0.625000 0.875000 0.630966
O O2 0.500000 0.932746 0.755966
O O3 0.288009 0.855730 0.701131
O O4 0.289295 0.938678 0.615927
O O5 0.960705 0.311322 0.146005
O O6 0.961991 0.394270 0.060801
O O7 0.686509 0.791311 0.933996
O O8 0.813491 0.791311 0.077936
O O9 0.250000 0.750000 0.714932
O O10 0.500000 0.500000 0.547000
#
# Coordination Sequence:
#
# PCOD9372512 Si02
#       5
#    16  16   8  16  16
#     4  11  23  41  66  98 129 171 218 279 337 397
#     4  11  23  41  66  98 129 171 218 279 337 397
#     4   8  16  40  66  88 120 182 210 260 314 408
#     4   9  21  41  62  92 132 168 216 271 322 399
#     4   9  21  41  62  92 132 168 216 271 322 399
#
# _framework density 26.562047
#
# number of rings (size 3 to 8) (size 9 to 14) (size 15 to 20)
#    1.333    0.889    0.000    2.667    0.000    7.111 
#    8.000    0.000    0.000    0.000    0.000    0.000 
#    0.000    0.000    0.000    0.000    0.000    0.000 
#
# Total GULP energy -100238.145911 kJ/mol
# GULP energy per Si atom -5568.785884 kJ/mol
# Density = 2.650159 g / cm^3
# Si number density = 26.562047 Si / 1000 Ang^3
#
#
#
# Elastic Constant Matrix: (Units=GPa)
#
#
# Indices 1 2 3 4 5 6 
#
# 1 167.7500 38.5651 35.5703 0.0000 0.0000 0.0000
# 2 38.5651 127.9137 5.6621 0.0000 0.0000 0.0000
# 3 35.5703 5.6621 78.7305 0.0000 0.0000 0.0000
# 4 0.0000 0.0000 0.0000 31.6057 0.0000 0.0000
# 5 0.0000 0.0000 0.0000 0.0000 26.0196 0.0000
# 6 0.0000 0.0000 0.0000 0.0000 0.0000 30.9795
#
#
#
# Elastic Compliance Matrix: (Units=1/GPa)
#
#
# Indices 1 2 3 4 5 6 
#
# 1 0.007067 -0.001996 -0.003049 0.000000 0.000000 0.000000
# 2 -0.001996 0.008406 0.000297 0.000000 0.000000 0.000000
# 3 -0.003049 0.000297 0.014058 0.000000 0.000000 0.000000
# 4 0.000000 0.000000 0.000000 0.031640 0.000000 0.000000
# 5 0.000000 0.000000 0.000000 0.000000 0.038433 0.000000
# 6 0.000000 0.000000 0.000000 0.000000 0.000000 0.032279
#
#
# Mechanical properties :
#
#
# Convention : Reuss Voigt Hill
#
# Bulk Modulus (GPa) = 49.91190 59.33212 54.62201
# Shear Modulus (GPa) = 33.77094 37.36074 35.56584
#
# Velocity S-wave (km/s) = 3.56954 3.75446 3.66317
# Velocity P-wave (km/s) = 5.98500 6.41719 6.20486
#
# Compressibility (1/GPa) = 0.02003530
#
# Stress axis : x y z
#
# Youngs Moduli (GPa) = 141.51120 118.95880 71.13484
#
# Poissons Ratio (x) = 0.23739 0.21690
# Poissons Ratio (y) = 0.28239 -0.02113
# Poissons Ratio (z) = 0.43149 -0.03533
#
# Static dielectric constant tensor:
#      x y z
#    x 2.143500 0.000000 0.000000 
#    y 0.000000 2.058730 0.000000 
#    z 0.000000 0.000000 2.076190 
# 
# From -- ./inp_files/775.got.cif
#   From: 2010.05.17/outbox.cif.g08.bks.cpg/sg43_1_cif.got.tgz:775.got - 2010.06.03 19:21:55.
