data_PCOD9372004
_publ_section_title
;
Structure prediction by ZEFSAII (Michael W. Deem and Ramdas Pophale) SiO2 
 PCOD9372004
Probable space group: F D D 2
;
_chemical_formula_sum "Si O2"
_cell_formula_units_Z 104
_cell_length_a 22.490633
_cell_length_b 14.152238
_cell_length_c 15.502182
_cell_angle_alpha 90.000000
_cell_angle_beta 90.000000
_cell_angle_gamma 90.000000
_cell_volume 4934.232775
_symmetry_space_group_name_H-M "F D D 2"
_symmetry_group_IT_number 43
_symmetry_cell_setting 'orthorhombic'
loop_
_space_group_symop_operation_xyz
x,y,z
-x,-y,z
1/4-x,1/4+y,1/4+z
1/4+x,1/4-y,1/4+z
x,1/2+y,1/2+z
-x,1/2-y,1/2+z
1/4-x,3/4+y,3/4+z
1/4+x,3/4-y,3/4+z
1/2+x,y,1/2+z
1/2-x,-y,1/2+z
3/4-x,1/4+y,3/4+z
3/4+x,1/4-y,3/4+z
1/2+x,1/2+y,z
1/2-x,1/2-y,z
3/4-x,3/4+y,1/4+z
3/4+x,3/4-y,1/4+z
loop_
_atom_site_type_symbol
_atom_site_label
_atom_site_fract_x
_atom_site_fract_y
_atom_site_fract_z
Si Si1 0.979056 0.733156 0.371970
Si Si2 0.471894 0.703101 0.187875
Si Si3 0.314555 0.277756 0.066667
Si Si4 0.188748 0.461243 0.287982
Si Si5 0.750000 0.250000 0.998977
Si Si6 0.070005 0.007293 0.007629
Si Si7 0.644250 0.348840 0.100296
O O1 0.947529 0.635610 0.346321
O O2 0.933472 0.818230 0.394829
O O3 0.014357 0.761657 0.284453
O O4 0.020045 0.717213 0.454565
O O5 0.521038 0.742758 0.119902
O O6 0.481532 0.590101 0.193606
O O7 0.404161 0.710178 0.154473
O O8 0.250000 0.250000 0.030176
O O9 0.373291 0.250113 0.014275
O O10 0.329924 0.225544 0.156622
O O11 0.169210 0.353338 0.308632
O O12 0.692828 0.282377 0.054693
O O13 0.000000 0.000000 0.014473
O O14 0.105550 0.914398 0.035002
#
# Coordination Sequence:
#
# PCOD9372004 Si02
#       7
#    16  16  16  16   8  16  16
#     4  11  24  41  63  98 129 165 216 265 322 394
#     4  11  24  39  67  96 127 170 210 270 327 382
#     4  11  22  39  64  93 131 162 208 274 322 385
#     4  12  23  40  67  99 127 167 213 271 335 375
#     4  10  24  40  62  98 126 164 224 272 320 386
#     4  11  19  36  68 102 121 155 214 278 337 371
#     4  11  22  40  64  91 134 171 211 273 322 385
#
# _framework density 21.077238000000001
#
# number of rings (size 3 to 8) (size 9 to 14) (size 15 to 20)
#    0.000    0.923    6.154    2.769    4.308    0.000 
#    5.538    0.000    1.692    0.000    0.000    0.000 
#    0.000    0.000    0.000    0.000    0.000    0.000 
#
# Total GULP energy -144882.558978 kJ/mol
# GULP energy per Si atom -5572.406115 kJ/mol
# Density = 2.102927 g / cm^3
# Si number density = 21.077238 Si / 1000 Ang^3
#
#
#
# Elastic Constant Matrix: (Units=GPa)
#
#
# Indices 1 2 3 4 5 6 
#
# 1 192.3208 13.9119 49.6693 0.0000 0.0000 0.0000
# 2 13.9119 27.0602 8.2744 0.0000 0.0000 0.0000
# 3 49.6693 8.2744 69.2036 0.0000 0.0000 0.0000
# 4 0.0000 0.0000 0.0000 20.8819 0.0000 0.0000
# 5 0.0000 0.0000 0.0000 0.0000 18.2078 0.0000
# 6 0.0000 0.0000 0.0000 0.0000 0.0000 26.7861
#
#
#
# Elastic Compliance Matrix: (Units=1/GPa)
#
#
# Indices 1 2 3 4 5 6 
#
# 1 0.006484 -0.001983 -0.004416 0.000000 0.000000 0.000000
# 2 -0.001983 0.038963 -0.003236 0.000000 0.000000 0.000000
# 3 -0.004416 -0.003236 0.018007 0.000000 0.000000 0.000000
# 4 0.000000 0.000000 0.000000 0.047888 0.000000 0.000000
# 5 0.000000 0.000000 0.000000 0.000000 0.054921 0.000000
# 6 0.000000 0.000000 0.000000 0.000000 0.000000 0.037333
#
#
# Mechanical properties :
#
#
# Convention : Reuss Voigt Hill
#
# Bulk Modulus (GPa) = 22.63255 48.03287 35.33271
# Shear Modulus (GPa) = 21.04428 27.62376 24.33402
#
# Velocity S-wave (km/s) = 3.16323 3.62414 3.40150
# Velocity P-wave (km/s) = 4.90944 6.35224 5.67687
#
# Compressibility (1/GPa) = 0.04418415
#
# Stress axis : x y z
#
# Youngs Moduli (GPa) = 154.23348 25.66510 55.53470
#
# Poissons Ratio (x) = 0.05089 0.24526
# Poissons Ratio (y) = 0.30583 0.17969
# Poissons Ratio (z) = 0.68116 0.08304
#
# Static dielectric constant tensor:
#      x y z
#    x 1.936630 0.000000 0.000000 
#    y 0.000000 1.855220 0.000000 
#    z 0.000000 0.000000 1.805800 
# 
# From -- ./inp_files/14611.got.cif
#   From: 2010.05.17/outbox.cif.g08.bks.cpg/sg43_8_cif.got.tgz:14611.got - 2010.06.03 19:21:55.
