data_PCOD9372490
_publ_section_title
;
Structure prediction by ZEFSAII (Michael W. Deem and Ramdas Pophale) SiO2 
 PCOD9372490
Probable space group: F D D 2
;
_chemical_formula_sum "Si O2"
_cell_formula_units_Z 88
_cell_length_a 21.045050
_cell_length_b 20.965156
_cell_length_c 8.164426
_cell_angle_alpha 90.000000
_cell_angle_beta 90.000000
_cell_angle_gamma 90.000000
_cell_volume 3602.248899
_symmetry_space_group_name_H-M "F D D 2"
_symmetry_group_IT_number 43
_symmetry_cell_setting 'orthorhombic'
loop_
_space_group_symop_operation_xyz
x,y,z
-x,-y,z
1/4-x,1/4+y,1/4+z
1/4+x,1/4-y,1/4+z
x,1/2+y,1/2+z
-x,1/2-y,1/2+z
1/4-x,3/4+y,3/4+z
1/4+x,3/4-y,3/4+z
1/2+x,y,1/2+z
1/2-x,-y,1/2+z
3/4-x,1/4+y,3/4+z
3/4+x,1/4-y,3/4+z
1/2+x,1/2+y,z
1/2-x,1/2-y,z
3/4-x,3/4+y,1/4+z
3/4+x,3/4-y,1/4+z
loop_
_atom_site_type_symbol
_atom_site_label
_atom_site_fract_x
_atom_site_fract_y
_atom_site_fract_z
Si Si1 0.392807 0.071886 0.025780
Si Si2 0.000000 0.000000 0.389092
Si Si3 0.081930 0.066048 0.123110
Si Si4 0.360896 0.470938 0.811609
Si Si5 0.476699 0.270088 0.688887
Si Si6 0.966533 0.652704 0.499345
O O1 0.376039 0.145582 0.046155
O O2 0.380945 0.022300 0.176671
O O3 0.465418 0.056723 0.985517
O O4 0.340230 0.050850 0.893342
O O5 0.054163 0.030867 0.279276
O O6 0.143905 0.107421 0.182990
O O7 0.108275 0.015973 0.988710
O O8 0.019935 0.100347 0.043003
O O9 0.285370 0.470984 0.819651
O O10 0.502577 0.306711 0.849221
O O11 0.463059 0.194734 0.666755
#
# Coordination Sequence:
#
# PCOD9372490 Si02
#       6
#    16   8  16  16  16  16
#     4  12  27  49  71 117 146 201 250 324 384 468
#     4  12  30  42  72 110 152 190 258 320 384 464
#     4  11  26  47  72 110 147 205 250 327 391 477
#     4  11  26  49  79 105 154 198 258 314 398 472
#     4  11  22  46  74 104 140 199 251 310 388 468
#     4  11  24  46  74 104 148 197 260 316 397 475
#
# _framework density 24.429182000000001
#
# number of rings (size 3 to 8) (size 9 to 14) (size 15 to 20)
#    0.000    0.727    5.455    0.000    5.091    6.545 
#    0.000    0.000    0.000    0.000    0.000    0.000 
#    0.000    0.000    0.000    0.000    0.000    0.000 
#
# Total GULP energy -122581.362639 kJ/mol
# GULP energy per Si atom -5571.880120 kJ/mol
# Density = 2.437358 g / cm^3
# Si number density = 24.429182 Si / 1000 Ang^3
#
#
#
# Elastic Constant Matrix: (Units=GPa)
#
#
# Indices 1 2 3 4 5 6 
#
# 1 160.9876 28.2449 28.6916 0.0006 -0.0004 -0.0002
# 2 28.2449 82.2536 31.2068 0.0009 -0.0003 -0.0003
# 3 28.6916 31.2068 55.7003 0.0014 -0.0009 -0.0005
# 4 0.0006 0.0009 0.0014 20.2225 -0.0007 -0.0005
# 5 -0.0004 -0.0003 -0.0009 -0.0007 31.5239 0.0003
# 6 -0.0002 -0.0003 -0.0005 -0.0005 0.0003 32.7925
#
#
#
# Elastic Compliance Matrix: (Units=1/GPa)
#
#
# Indices 1 2 3 4 5 6 
#
# 1 0.006948 -0.001306 -0.002848 0.000000 0.000000 0.000000
# 2 -0.001306 0.015685 -0.008115 0.000000 0.000000 0.000000
# 3 -0.002848 -0.008115 0.023967 -0.000001 0.000001 0.000000
# 4 0.000000 0.000000 -0.000001 0.049450 0.000001 0.000001
# 5 0.000000 0.000000 0.000001 0.000001 0.031722 0.000000
# 6 0.000000 0.000000 0.000000 0.000001 0.000000 0.030495
#
#
# Mechanical properties :
#
#
# Convention : Reuss Voigt Hill
#
# Bulk Modulus (GPa) = 45.32460 52.80310 49.06385
# Shear Modulus (GPa) = 26.29410 30.96099 28.62754
#
# Velocity S-wave (km/s) = 3.28432 3.56389 3.42696
# Velocity P-wave (km/s) = 5.74248 6.21263 5.98217
#
# Compressibility (1/GPa) = 0.02206307
#
# Stress axis : x y z
#
# Youngs Moduli (GPa) = 143.92163 63.75658 41.72480
#
# Poissons Ratio (x) = 0.08324 0.11882
# Poissons Ratio (y) = 0.18790 0.33860
# Poissons Ratio (z) = 0.40983 0.51739
#
# Static dielectric constant tensor:
#      x y z
#    x 2.006460 0.000000 0.000000 
#    y 0.000000 2.081940 0.000000 
#    z 0.000000 0.000000 2.052440 
# 
# From -- ./inp_files/3240.got.cif
#   From: 2010.05.17/outbox.cif.g08.bks.cpg/sg43_2_cif.got.tgz:3240.got - 2010.06.03 19:21:55.
