data_PCOD9372906
_publ_section_title
;
Structure prediction by ZEFSAII (Michael W. Deem and Ramdas Pophale) SiO2 
 PCOD9372906
Probable space group: F D D 2
;
_chemical_formula_sum "Si O2"
_cell_formula_units_Z 48
_cell_length_a 10.352225
_cell_length_b 13.395658
_cell_length_c 13.831590
_cell_angle_alpha 90.000000
_cell_angle_beta 90.000000
_cell_angle_gamma 90.000000
_cell_volume 1918.093885
_symmetry_space_group_name_H-M "F D D 2"
_symmetry_group_IT_number 43
_symmetry_cell_setting 'orthorhombic'
loop_
_space_group_symop_operation_xyz
x,y,z
-x,-y,z
1/4-x,1/4+y,1/4+z
1/4+x,1/4-y,1/4+z
x,1/2+y,1/2+z
-x,1/2-y,1/2+z
1/4-x,3/4+y,3/4+z
1/4+x,3/4-y,3/4+z
1/2+x,y,1/2+z
1/2-x,-y,1/2+z
3/4-x,1/4+y,3/4+z
3/4+x,1/4-y,3/4+z
1/2+x,1/2+y,z
1/2-x,1/2-y,z
3/4-x,3/4+y,1/4+z
3/4+x,3/4-y,1/4+z
loop_
_atom_site_type_symbol
_atom_site_label
_atom_site_fract_x
_atom_site_fract_y
_atom_site_fract_z
Si Si1 0.809402 0.966724 0.619350
Si Si2 0.375380 0.685816 0.150525
Si Si3 0.623182 0.311402 0.582161
O O1 0.849531 0.081746 0.630095
O O2 0.866540 0.934660 0.516736
O O3 0.661090 0.926985 0.617455
O O4 0.864815 0.918622 0.716994
O O5 0.250000 0.750000 0.119107
O O6 0.501564 0.742341 0.111395
O O7 0.750000 0.250000 0.603943
#
# Coordination Sequence:
#
# PCOD9372906 Si02
#       3
#    16  16  16
#     4  12  27  53  83 119 168 223 275 349 425 502
#     4  12  27  49  81 121 161 221 279 344 424 504
#     4  12  29  53  82 121 171 221 282 351 426 507
#
# _framework density 25.024843000000001
#
# number of rings (size 3 to 8) (size 9 to 14) (size 15 to 20)
#    0.000    0.000    3.333    5.000    4.667    1.333 
#    0.000    0.000    0.000    0.000    0.000    0.000 
#    0.000    0.000    0.000    0.000    0.000    0.000 
#
# Total GULP energy -67141.323868 kJ/mol
# GULP energy per Si atom -5595.110322 kJ/mol
# Density = 2.496788 g / cm^3
# Si number density = 25.024843 Si / 1000 Ang^3
#
#
#
# Elastic Constant Matrix: (Units=GPa)
#
#
# Indices 1 2 3 4 5 6 
#
# 1 230.5590 98.0609 36.1173 0.0000 0.0000 0.0000
# 2 98.0609 134.2434 32.2175 0.0000 0.0000 0.0000
# 3 36.1173 32.2175 77.7194 0.0000 0.0000 0.0000
# 4 0.0000 0.0000 0.0000 36.1131 0.0000 0.0000
# 5 0.0000 0.0000 0.0000 0.0000 26.1134 0.0000
# 6 0.0000 0.0000 0.0000 0.0000 0.0000 67.7491
#
#
#
# Elastic Compliance Matrix: (Units=1/GPa)
#
#
# Indices 1 2 3 4 5 6 
#
# 1 0.006383 -0.004387 -0.001148 0.000000 0.000000 0.000000
# 2 -0.004387 0.011288 -0.002640 0.000000 0.000000 0.000000
# 3 -0.001148 -0.002640 0.014495 0.000000 0.000000 0.000000
# 4 0.000000 0.000000 0.000000 0.027691 0.000000 0.000000
# 5 0.000000 0.000000 0.000000 0.000000 0.038295 0.000000
# 6 0.000000 0.000000 0.000000 0.000000 0.000000 0.014760
#
#
# Mechanical properties :
#
#
# Convention : Reuss Voigt Hill
#
# Bulk Modulus (GPa) = 63.23139 86.14592 74.68865
# Shear Modulus (GPa) = 37.16569 44.40352 40.78461
#
# Velocity S-wave (km/s) = 3.85795 4.21691 4.04141
# Velocity P-wave (km/s) = 6.72066 7.62946 7.18943
#
# Compressibility (1/GPa) = 0.01581493
#
# Stress axis : x y z
#
# Youngs Moduli (GPa) = 156.66595 88.59344 68.99112
#
# Poissons Ratio (x) = 0.38868 0.07918
# Poissons Ratio (y) = 0.68732 0.18216
# Poissons Ratio (z) = 0.17979 0.23391
#
# Static dielectric constant tensor:
#      x y z
#    x 2.046870 0.000000 0.000000 
#    y 0.000000 2.114490 0.000000 
#    z 0.000000 0.000000 1.939190 
# 
# From -- ./inp_files/9303.got.cif
#   From: 2010.05.17/outbox.cif.g08.bks.cpg/sg43_5_cif.got.tgz:9303.got - 2010.06.03 19:21:55.
