data_PCOD9372658
_publ_section_title
;
Structure prediction by ZEFSAII (Michael W. Deem and Ramdas Pophale) SiO2 
 PCOD9372658
Probable space group: F D D 2
;
_chemical_formula_sum "Si O2"
_cell_formula_units_Z 64
_cell_length_a 25.218089
_cell_length_b 12.771295
_cell_length_c 7.602109
_cell_angle_alpha 90.000000
_cell_angle_beta 90.000000
_cell_angle_gamma 90.000000
_cell_volume 2448.393411
_symmetry_space_group_name_H-M "F D D 2"
_symmetry_group_IT_number 43
_symmetry_cell_setting 'orthorhombic'
loop_
_space_group_symop_operation_xyz
x,y,z
-x,-y,z
1/4-x,1/4+y,1/4+z
1/4+x,1/4-y,1/4+z
x,1/2+y,1/2+z
-x,1/2-y,1/2+z
1/4-x,3/4+y,3/4+z
1/4+x,3/4-y,3/4+z
1/2+x,y,1/2+z
1/2-x,-y,1/2+z
3/4-x,1/4+y,3/4+z
3/4+x,1/4-y,3/4+z
1/2+x,1/2+y,z
1/2-x,1/2-y,z
3/4-x,3/4+y,1/4+z
3/4+x,3/4-y,1/4+z
loop_
_atom_site_type_symbol
_atom_site_label
_atom_site_fract_x
_atom_site_fract_y
_atom_site_fract_z
Si Si1 0.170924 0.297930 0.117580
Si Si2 0.443473 0.120673 0.079319
Si Si3 0.053020 0.222572 0.601209
Si Si4 0.583096 0.452402 0.216614
O O1 0.107387 0.304023 0.090802
O O2 0.182910 0.287218 0.322875
O O3 0.193203 0.199524 0.006123
O O4 0.189556 0.403380 0.026286
O O5 0.495855 0.185885 0.039591
O O6 0.434757 0.039644 0.918135
O O7 0.060016 0.343231 0.647283
O O8 0.102799 0.196575 0.475286
#
# Coordination Sequence:
#
# PCOD9372658 Si02
#       4
#    16  16  16  16
#     4  11  24  47  72 108 151 191 251 309 366 455
#     4  11  25  47  74 107 151 191 252 309 372 456
#     4  11  25  47  75 111 148 196 252 309 371 459
#     4  11  25  45  75 105 150 197 244 311 378 440
#
# _framework density 26.139589000000001
#
# number of rings (size 3 to 8) (size 9 to 14) (size 15 to 20)
#    0.000    1.000    0.000    8.250    7.000    0.000 
#    4.500   12.500    0.000    0.000    0.000    0.000 
#    0.000    0.000    0.000    0.000    0.000    0.000 
#
# Total GULP energy -89761.740074 kJ/mol
# GULP energy per Si atom -5610.108755 kJ/mol
# Density = 2.608009 g / cm^3
# Si number density = 26.139589 Si / 1000 Ang^3
#
#
#
# Elastic Constant Matrix: (Units=GPa)
#
#
# Indices 1 2 3 4 5 6 
#
# 1 129.3996 6.3088 7.4758 0.0000 0.0000 0.0000
# 2 6.3088 71.3674 11.4365 0.0000 0.0000 0.0000
# 3 7.4758 11.4365 149.3547 0.0000 0.0000 0.0000
# 4 0.0000 0.0000 0.0000 54.6564 0.0000 0.0000
# 5 0.0000 0.0000 0.0000 0.0000 11.5954 0.0000
# 6 0.0000 0.0000 0.0000 0.0000 0.0000 25.6344
#
#
#
# Elastic Compliance Matrix: (Units=1/GPa)
#
#
# Indices 1 2 3 4 5 6 
#
# 1 0.007779 -0.000633 -0.000341 0.000000 0.000000 0.000000
# 2 -0.000633 0.014238 -0.001059 0.000000 0.000000 0.000000
# 3 -0.000341 -0.001059 0.006794 0.000000 0.000000 0.000000
# 4 0.000000 0.000000 0.000000 0.018296 0.000000 0.000000
# 5 0.000000 0.000000 0.000000 0.000000 0.086241 0.000000
# 6 0.000000 0.000000 0.000000 0.000000 0.000000 0.039010
#
#
# Mechanical properties :
#
#
# Convention : Reuss Voigt Hill
#
# Bulk Modulus (GPa) = 40.41230 44.50709 42.45970
# Shear Modulus (GPa) = 27.07529 40.03727 33.55628
#
# Velocity S-wave (km/s) = 3.22187 3.91790 3.58681
# Velocity P-wave (km/s) = 5.41612 6.12620 5.78207
#
# Compressibility (1/GPa) = 0.02474494
#
# Stress axis : x y z
#
# Youngs Moduli (GPa) = 128.55866 70.23662 147.19766
#
# Poissons Ratio (x) = 0.04446 0.05018
# Poissons Ratio (y) = 0.08138 0.15581
# Poissons Ratio (z) = 0.04382 0.07435
#
# Static dielectric constant tensor:
#      x y z
#    x 2.101100 0.000000 0.000000 
#    y 0.000000 1.978610 0.000000 
#    z 0.000000 0.000000 2.040240 
# 
# From -- ./inp_files/3601.got.cif
#   From: 2010.05.17/outbox.cif.g08.bks.cpg/sg43_2_cif.got.tgz:3601.got - 2010.06.03 19:21:55.
