data_PCOD9372972
_publ_section_title
;
Structure prediction by ZEFSAII (Michael W. Deem and Ramdas Pophale) SiO2 
 PCOD9372972
Probable space group: F D D 2
;
_chemical_formula_sum "Si O2"
_cell_formula_units_Z 28
_cell_length_a 15.000000
_cell_length_b 12.000000
_cell_length_c 30.000000
_cell_angle_alpha 90.000000
_cell_angle_beta 90.000000
_cell_angle_gamma 90.000000
_cell_volume 5400.000000
_symmetry_space_group_name_H-M "F D D 2"
_symmetry_group_IT_number 43
_symmetry_cell_setting 'orthorhombic'
loop_
_space_group_symop_operation_xyz
x,y,z
-x,-y,z
1/4-x,1/4+y,1/4+z
1/4+x,1/4-y,1/4+z
x,1/2+y,1/2+z
-x,1/2-y,1/2+z
1/4-x,3/4+y,3/4+z
1/4+x,3/4-y,3/4+z
1/2+x,y,1/2+z
1/2-x,-y,1/2+z
3/4-x,1/4+y,3/4+z
3/4+x,1/4-y,3/4+z
1/2+x,1/2+y,z
1/2-x,1/2-y,z
3/4-x,3/4+y,1/4+z
3/4+x,3/4-y,1/4+z
loop_
_atom_site_type_symbol
_atom_site_label
_atom_site_fract_x
_atom_site_fract_y
_atom_site_fract_z
Si Si1 0.594858 0.439657 0.739540
Si Si2 0.625577 0.400266 0.900114
Si Si3 0.644375 0.277932 0.300250
Si Si4 0.828486 0.087977 0.644084
Si Si5 0.342401 0.222209 0.568669
Si Si6 0.726693 0.941616 0.490197
Si Si7 0.225979 0.368628 0.311540
O O1 0.500000 0.500000 0.750092
O O2 0.624556 0.465222 0.688339
O O3 0.575596 0.307841 0.742485
O O4 0.675615 0.450129 0.775924
O O5 0.527670 0.343970 0.905327
O O6 0.609626 0.532881 0.892662
O O7 0.695564 0.392454 0.941734
O O8 0.662188 0.353519 0.853669
O O9 0.750000 0.250000 0.294039
O O10 0.604992 0.216766 0.345703
O O11 0.634959 0.408757 0.308750
O O12 0.576739 0.269806 0.257057
O O13 0.250000 0.250000 0.594878
O O14 0.307021 0.148479 0.526683
O O15 0.430569 0.157861 0.583432
O O16 0.250000 0.250000 0.289280
#
# Coordination Sequence:
#
# PCOD9372972 Si02
#       7
#    16  16  16  16  16  16  16
#     4  11  24  39  70 103 141 178 243 301 354 432
#     4  10  23  40  70  99 143 180 243 292 355 431
#     4  11  23  40  70 100 142 186 238 297 373 431
#     4  10  22  42  67 105 139 183 230 306 364 421
#     4  10  23  42  67  89 139 185 224 287 353 429
#     4  10  22  45  65  99 139 193 231 290 364 434
#     4  12  24  40  69 102 133 186 240 293 349 428
#
# _framework density 5.1851849999999997
#
# number of rings (size 3 to 8) (size 9 to 14) (size 15 to 20)
#    0.000    1.429    1.429    3.000   10.000    2.857 
#    0.000    0.714    0.000    0.000    0.000    0.000 
#    0.000    0.000    0.000    0.000    0.000    0.000 
#
# Total GULP energy -155944.280077 kJ/mol
# GULP energy per Si atom -5569.438574 kJ/mol
# Density = 0.517338 g / cm^3
# Si number density = 5.185185 Si / 1000 Ang^3
#
#
#
# Elastic Constant Matrix: (Units=GPa)
#
#
# Indices 1 2 3 4 5 6 
#
# 1 167.7502 20.2123 47.3551 0.0000 0.0000 0.0000
# 2 20.2123 65.6260 3.7881 0.0000 0.0000 0.0000
# 3 47.3551 3.7881 101.1607 0.0000 0.0000 0.0000
# 4 0.0000 0.0000 0.0000 23.1157 0.0000 0.0000
# 5 0.0000 0.0000 0.0000 0.0000 42.6277 0.0000
# 6 0.0000 0.0000 0.0000 0.0000 0.0000 41.0199
#
#
#
# Elastic Compliance Matrix: (Units=1/GPa)
#
#
# Indices 1 2 3 4 5 6 
#
# 1 0.007123 -0.002006 -0.003259 0.000000 0.000000 0.000000
# 2 -0.002006 0.015836 0.000346 0.000000 0.000000 0.000000
# 3 -0.003259 0.000346 0.011398 0.000000 0.000000 0.000000
# 4 0.000000 0.000000 0.000000 0.043261 0.000000 0.000000
# 5 0.000000 0.000000 0.000000 0.000000 0.023459 0.000000
# 6 0.000000 0.000000 0.000000 0.000000 0.000000 0.024378
#
#
# Mechanical properties :
#
#
# Convention : Reuss Voigt Hill
#
# Bulk Modulus (GPa) = 40.78551 53.02755 46.90653
# Shear Modulus (GPa) = 34.85156 38.89808 36.87482
#
# Velocity S-wave (km/s) = 4.10365 4.33534 4.22108
# Velocity P-wave (km/s) = 6.49310 7.11917 6.81333
#
# Compressibility (1/GPa) = 0.02451851
#
# Stress axis : x y z
#
# Youngs Moduli (GPa) = 140.39035 63.14873 87.73438
#
# Poissons Ratio (x) = 0.12666 0.28595
# Poissons Ratio (y) = 0.28158 -0.03035
# Poissons Ratio (z) = 0.45757 -0.02184
#
# Static dielectric constant tensor:
#      x y z
#    x 1.803200 0.000000 0.000000 
#    y 0.000000 1.768470 0.000000 
#    z 0.000000 0.000000 1.742040 
# 
# From -- ./inp_files/29102.got.cif
#   From: 2010.05.17/outbox.ucp.g08.bks.cvg/sg43_15_cif.got.tgz:29102.got - 2010.06.11 16:31:01.
