data_PCOD9372475
_publ_section_title
;
Structure prediction by ZEFSAII (Michael W. Deem and Ramdas Pophale) SiO2 
 PCOD9372475
Probable space group: F D D 2
;
_chemical_formula_sum "Si O2"
_cell_formula_units_Z 80
_cell_length_a 11.885585
_cell_length_b 25.175220
_cell_length_c 11.725617
_cell_angle_alpha 90.000000
_cell_angle_beta 90.000000
_cell_angle_gamma 90.000000
_cell_volume 3508.565117
_symmetry_space_group_name_H-M "F D D 2"
_symmetry_group_IT_number 43
_symmetry_cell_setting 'orthorhombic'
loop_
_space_group_symop_operation_xyz
x,y,z
-x,-y,z
1/4-x,1/4+y,1/4+z
1/4+x,1/4-y,1/4+z
x,1/2+y,1/2+z
-x,1/2-y,1/2+z
1/4-x,3/4+y,3/4+z
1/4+x,3/4-y,3/4+z
1/2+x,y,1/2+z
1/2-x,-y,1/2+z
3/4-x,1/4+y,3/4+z
3/4+x,1/4-y,3/4+z
1/2+x,1/2+y,z
1/2-x,1/2-y,z
3/4-x,3/4+y,1/4+z
3/4+x,3/4-y,1/4+z
loop_
_atom_site_type_symbol
_atom_site_label
_atom_site_fract_x
_atom_site_fract_y
_atom_site_fract_z
Si Si1 0.271690 0.812936 0.398590
Si Si2 0.197785 0.077280 0.523785
Si Si3 0.396838 0.651875 0.025121
Si Si4 0.483366 0.207958 0.317032
Si Si5 0.539778 0.060521 0.411506
O O1 0.250000 0.750000 0.387217
O O2 0.175461 0.838631 0.322384
O O3 0.397823 0.819805 0.351111
O O4 0.247048 0.823887 0.531780
O O5 0.276593 0.126795 0.550548
O O6 0.194957 0.071337 0.387488
O O7 0.244219 0.021013 0.568616
O O8 0.400501 0.691640 0.919389
O O9 0.473029 0.601520 0.990214
O O10 0.420857 0.189783 0.200631
O O11 0.500000 0.000000 0.431325
#
# Coordination Sequence:
#
# PCOD9372475 Si02
#       5
#    16  16  16  16  16
#     4   9  23  45  69 103 145 192 245 303 378 447
#     4  11  25  46  69 108 150 189 251 320 372 455
#     4  12  24  45  71 108 146 191 255 303 379 464
#     4  11  24  45  75 103 147 201 247 309 376 456
#     4  11  22  44  77 104 143 199 247 301 380 458
#
# _framework density 22.801344
#
# number of rings (size 3 to 8) (size 9 to 14) (size 15 to 20)
#    0.000    1.200    4.000    1.200    5.600    1.600 
#    3.600    5.000    0.000    0.000    0.000    0.000 
#    0.000    0.000    0.000    0.000    0.000    0.000 
#
# Total GULP energy -111857.636637 kJ/mol
# GULP energy per Si atom -5592.881832 kJ/mol
# Density = 2.274945 g / cm^3
# Si number density = 22.801344 Si / 1000 Ang^3
#
#
#
# Elastic Constant Matrix: (Units=GPa)
#
#
# Indices 1 2 3 4 5 6 
#
# 1 144.0568 40.4774 52.6291 0.0000 0.0000 0.0000
# 2 40.4774 87.6036 45.1590 0.0000 0.0000 0.0000
# 3 52.6291 45.1590 102.6781 0.0000 0.0000 0.0000
# 4 0.0000 0.0000 0.0000 40.2014 0.0000 0.0000
# 5 0.0000 0.0000 0.0000 0.0000 32.3281 0.0000
# 6 0.0000 0.0000 0.0000 0.0000 0.0000 32.4782
#
#
#
# Elastic Compliance Matrix: (Units=1/GPa)
#
#
# Indices 1 2 3 4 5 6 
#
# 1 0.008877 -0.002271 -0.003551 0.000000 0.000000 0.000000
# 2 -0.002271 0.015343 -0.005584 0.000000 0.000000 0.000000
# 3 -0.003551 -0.005584 0.014015 0.000000 0.000000 0.000000
# 4 0.000000 0.000000 0.000000 0.024875 0.000000 0.000000
# 5 0.000000 0.000000 0.000000 0.000000 0.030933 0.000000
# 6 0.000000 0.000000 0.000000 0.000000 0.000000 0.030790
#
#
# Mechanical properties :
#
#
# Convention : Reuss Voigt Hill
#
# Bulk Modulus (GPa) = 64.83885 67.87441 66.35663
# Shear Modulus (GPa) = 32.72541 34.07307 33.39924
#
# Velocity S-wave (km/s) = 3.79257 3.86987 3.83141
# Velocity P-wave (km/s) = 6.90480 7.05693 6.98128
#
# Compressibility (1/GPa) = 0.01542285
#
# Stress axis : x y z
#
# Youngs Moduli (GPa) = 112.64740 65.17688 71.35055
#
# Poissons Ratio (x) = 0.14802 0.25339
# Poissons Ratio (y) = 0.25583 0.39841
# Poissons Ratio (z) = 0.40005 0.36394
#
# Static dielectric constant tensor:
#      x y z
#    x 1.901380 0.000000 0.000000 
#    y 0.000000 1.838620 0.000000 
#    z 0.000000 0.000000 1.844680 
# 
# From -- ./inp_files/5701.got.cif
#   From: 2010.05.17/outbox.cif.g08.bks.cpg/sg43_3_cif.got.tgz:5701.got - 2010.06.03 19:21:55.
