data_PCOD9372255
_publ_section_title
;
Structure prediction by ZEFSAII (Michael W. Deem and Ramdas Pophale) SiO2 
 PCOD9372255
Probable space group: F D D 2
;
_chemical_formula_sum "Si O2"
_cell_formula_units_Z 48
_cell_length_a 19.395140
_cell_length_b 11.775690
_cell_length_c 7.098473
_cell_angle_alpha 90.000000
_cell_angle_beta 90.000000
_cell_angle_gamma 90.000000
_cell_volume 1621.228455
_symmetry_space_group_name_H-M "F D D 2"
_symmetry_group_IT_number 43
_symmetry_cell_setting 'orthorhombic'
loop_
_space_group_symop_operation_xyz
x,y,z
-x,-y,z
1/4-x,1/4+y,1/4+z
1/4+x,1/4-y,1/4+z
x,1/2+y,1/2+z
-x,1/2-y,1/2+z
1/4-x,3/4+y,3/4+z
1/4+x,3/4-y,3/4+z
1/2+x,y,1/2+z
1/2-x,-y,1/2+z
3/4-x,1/4+y,3/4+z
3/4+x,1/4-y,3/4+z
1/2+x,1/2+y,z
1/2-x,1/2-y,z
3/4-x,3/4+y,1/4+z
3/4+x,3/4-y,1/4+z
loop_
_atom_site_type_symbol
_atom_site_label
_atom_site_fract_x
_atom_site_fract_y
_atom_site_fract_z
Si Si1 0.132497 0.687337 0.144350
Si Si2 0.274042 0.403333 0.961980
Si Si3 0.373468 0.596943 0.020832
O O1 0.056978 0.654937 0.226224
O O2 0.196887 0.648246 0.268739
O O3 0.311826 0.339015 0.131466
O O4 0.126405 0.579248 0.972939
O O5 0.303715 0.532063 0.961812
O O6 0.394251 0.488373 0.190134
#
# Coordination Sequence:
#
# PCOD9372255 Si02
#       3
#    16  16  16
#     4  11  26  48  73 109 150 196 253 316 386 461
#     4  11  26  48  73 109 150 196 253 316 386 461
#     4  10  26  44  74 106 142 196 248 312 376 468
#
# _framework density 29.607181000000001
#
# number of rings (size 3 to 8) (size 9 to 14) (size 15 to 20)
#    0.000    1.333    0.000    2.000   18.667    5.333 
#   12.000    0.000    0.000    0.000    0.000    0.000 
#    0.000    0.000    0.000    0.000    0.000    0.000 
#
# Total GULP energy -67190.595332 kJ/mol
# GULP energy per Si atom -5599.216278 kJ/mol
# Density = 2.953979 g / cm^3
# Si number density = 29.607181 Si / 1000 Ang^3
#
#
#
# Elastic Constant Matrix: (Units=GPa)
#
#
# Indices 1 2 3 4 5 6 
#
# 1 134.0225 39.6667 23.0247 0.0000 0.0000 0.0000
# 2 39.6667 272.3360 59.5235 0.0000 0.0000 0.0000
# 3 23.0247 59.5235 171.0936 0.0000 0.0000 0.0000
# 4 0.0000 0.0000 0.0000 71.1893 0.0000 0.0000
# 5 0.0000 0.0000 0.0000 0.0000 29.4409 0.0000
# 6 0.0000 0.0000 0.0000 0.0000 0.0000 56.5098
#
#
#
# Elastic Compliance Matrix: (Units=1/GPa)
#
#
# Indices 1 2 3 4 5 6 
#
# 1 0.007878 -0.000991 -0.000715 0.000000 0.000000 0.000000
# 2 -0.000991 0.004099 -0.001293 0.000000 0.000000 0.000000
# 3 -0.000715 -0.001293 0.006391 0.000000 0.000000 0.000000
# 4 0.000000 0.000000 0.000000 0.014047 0.000000 0.000000
# 5 0.000000 0.000000 0.000000 0.000000 0.033966 0.000000
# 6 0.000000 0.000000 0.000000 0.000000 0.000000 0.017696
#
#
# Mechanical properties :
#
#
# Convention : Reuss Voigt Hill
#
# Bulk Modulus (GPa) = 80.84614 91.32022 86.08318
# Shear Modulus (GPa) = 53.07986 61.77715 57.42850
#
# Velocity S-wave (km/s) = 4.23874 4.57284 4.40896
# Velocity P-wave (km/s) = 7.16390 7.66760 7.42003
#
# Compressibility (1/GPa) = 0.01236917
#
# Stress axis : x y z
#
# Youngs Moduli (GPa) = 126.94136 243.97353 156.47702
#
# Poissons Ratio (x) = 0.24179 0.11193
# Poissons Ratio (y) = 0.12581 0.20226
# Poissons Ratio (z) = 0.09081 0.31536
#
# Static dielectric constant tensor:
#      x y z
#    x 1.891260 0.000000 0.000000 
#    y 0.000000 2.830080 0.000000 
#    z 0.000000 0.000000 2.406720 
# 
# From -- ./inp_files/3524.got.cif
#   From: 2010.05.17/outbox.cif.g08.bks.cpg/sg43_2_cif.got.tgz:3524.got - 2010.06.03 19:21:55.
