data_PCOD9372861
_publ_section_title
;
Structure prediction by ZEFSAII (Michael W. Deem and Ramdas Pophale) SiO2 
 PCOD9372861
Probable space group: F D D 2
;
_chemical_formula_sum "Si O2"
_cell_formula_units_Z 72
_cell_length_a 5.127372
_cell_length_b 20.847506
_cell_length_c 27.950268
_cell_angle_alpha 90.000000
_cell_angle_beta 90.000000
_cell_angle_gamma 90.000000
_cell_volume 2987.685720
_symmetry_space_group_name_H-M "F D D 2"
_symmetry_group_IT_number 43
_symmetry_cell_setting 'orthorhombic'
loop_
_space_group_symop_operation_xyz
x,y,z
-x,-y,z
1/4-x,1/4+y,1/4+z
1/4+x,1/4-y,1/4+z
x,1/2+y,1/2+z
-x,1/2-y,1/2+z
1/4-x,3/4+y,3/4+z
1/4+x,3/4-y,3/4+z
1/2+x,y,1/2+z
1/2-x,-y,1/2+z
3/4-x,1/4+y,3/4+z
3/4+x,1/4-y,3/4+z
1/2+x,1/2+y,z
1/2-x,1/2-y,z
3/4-x,3/4+y,1/4+z
3/4+x,3/4-y,1/4+z
loop_
_atom_site_type_symbol
_atom_site_label
_atom_site_fract_x
_atom_site_fract_y
_atom_site_fract_z
Si Si1 0.437408 0.310014 0.527020
Si Si2 0.740725 0.623184 0.390190
Si Si3 0.500000 0.000000 0.362235
Si Si4 0.534835 0.424391 0.033623
Si Si5 0.279910 0.357261 0.948300
O O1 0.250000 0.250000 0.518990
O O2 0.569253 0.293353 0.577726
O O3 0.650039 0.310282 0.485962
O O4 0.293707 0.379610 0.524527
O O5 0.781569 0.644858 0.335602
O O6 0.448411 0.629704 0.409929
O O7 0.826167 0.548778 0.392225
O O8 0.953562 0.661039 0.421785
O O9 0.500000 0.500000 0.041146
O O10 0.363776 0.412212 0.986110
#
# Coordination Sequence:
#
# PCOD9372861 Si02
#       5
#    16  16   8  16  16
#     4  12  24  53  85 113 160 214 276 334 411 488
#     4  12  28  50  81 120 158 210 275 330 410 484
#     4  12  26  48  88 112 160 218 278 344 398 498
#     4  12  29  55  77 117 170 214 261 345 417 482
#     4  12  28  53  78 122 157 215 266 338 399 496
#
# _framework density 24.098918000000001
#
# number of rings (size 3 to 8) (size 9 to 14) (size 15 to 20)
#    0.000    0.000    6.667    1.333    1.556    3.556 
#    4.000    0.000    0.000    0.000    0.000    0.000 
#    0.000    0.000    0.000    0.000    0.000    0.000 
#
# Total GULP energy -100516.227679 kJ/mol
# GULP energy per Si atom -5584.234871 kJ/mol
# Density = 2.404407 g / cm^3
# Si number density = 24.098918 Si / 1000 Ang^3
#
#
#
# Elastic Constant Matrix: (Units=GPa)
#
#
# Indices 1 2 3 4 5 6 
#
# 1 110.6270 37.3439 30.9694 0.0000 0.0000 0.0000
# 2 37.3439 121.2572 -4.2862 0.0000 0.0000 0.0000
# 3 30.9694 -4.2862 87.6295 0.0000 0.0000 0.0000
# 4 0.0000 0.0000 0.0000 -53.2032 0.0000 0.0000
# 5 0.0000 0.0000 0.0000 0.0000 69.7134 0.0000
# 6 0.0000 0.0000 0.0000 0.0000 0.0000 38.9774
#
#
#
# Elastic Compliance Matrix: (Units=1/GPa)
#
#
# Indices 1 2 3 4 5 6 
#
# 1 0.011467 -0.003681 -0.004233 0.000000 0.000000 0.000000
# 2 -0.003681 0.009443 0.001763 0.000000 0.000000 0.000000
# 3 -0.004233 0.001763 0.012994 0.000000 0.000000 0.000000
# 4 0.000000 0.000000 0.000000 -0.018796 0.000000 0.000000
# 5 0.000000 0.000000 0.000000 0.000000 0.014344 0.000000
# 6 0.000000 0.000000 0.000000 0.000000 0.000000 0.025656
#
#
# Mechanical properties :
#
#
# Convention : Reuss Voigt Hill
#
# Bulk Modulus (GPa) = 46.29239 49.72978 48.01109
# Shear Modulus (GPa) = 67.01479 28.12997 47.57238
#
# Velocity S-wave (km/s) = 5.27907 3.42024 4.44784
# Velocity P-wave (km/s) = 7.51060 6.02311 6.80761
#
# Compressibility (1/GPa) = 0.02160182
#
# Stress axis : x y z
#
# Youngs Moduli (GPa) = 87.20758 105.89942 76.96000
#
# Poissons Ratio (x) = 0.38983 0.32574
# Poissons Ratio (y) = 0.32102 -0.13567
# Poissons Ratio (z) = 0.36912 -0.18668
#
# Static dielectric constant tensor:
#      x y z
#    x 1.880880 0.000000 0.000000 
#    y 0.000000 2.017160 0.000000 
#    z 0.000000 0.000000 1.929680 
# 
# From -- ./inp_files/23435.got.cif
#   From: 2010.05.17/outbox.cif.g08.bks.cpg/sg43_12_cif.got.tgz:23435.got - 2010.06.03 19:21:55.
