data_PCOD9372415
_publ_section_title
;
Structure prediction by ZEFSAII (Michael W. Deem and Ramdas Pophale) SiO2 
 PCOD9372415
Probable space group: F D D 2
;
_chemical_formula_sum "Si O2"
_cell_formula_units_Z 72
_cell_length_a 13.905193
_cell_length_b 9.425466
_cell_length_c 25.008506
_cell_angle_alpha 90.000000
_cell_angle_beta 90.000000
_cell_angle_gamma 90.000000
_cell_volume 3277.687917
_symmetry_space_group_name_H-M "F D D 2"
_symmetry_group_IT_number 43
_symmetry_cell_setting 'orthorhombic'
loop_
_space_group_symop_operation_xyz
x,y,z
-x,-y,z
1/4-x,1/4+y,1/4+z
1/4+x,1/4-y,1/4+z
x,1/2+y,1/2+z
-x,1/2-y,1/2+z
1/4-x,3/4+y,3/4+z
1/4+x,3/4-y,3/4+z
1/2+x,y,1/2+z
1/2-x,-y,1/2+z
3/4-x,1/4+y,3/4+z
3/4+x,1/4-y,3/4+z
1/2+x,1/2+y,z
1/2-x,1/2-y,z
3/4-x,3/4+y,1/4+z
3/4+x,3/4-y,1/4+z
loop_
_atom_site_type_symbol
_atom_site_label
_atom_site_fract_x
_atom_site_fract_y
_atom_site_fract_z
Si Si1 0.015535 0.287084 0.794010
Si Si2 0.456153 0.853696 0.004239
Si Si3 0.686544 0.610029 0.341808
Si Si4 0.843987 0.901881 0.655850
Si Si5 0.250000 0.250000 0.980619
O O1 0.090332 0.379278 0.758099
O O2 0.068324 0.277090 0.850510
O O3 0.911885 0.343933 0.811870
O O4 0.004571 0.138969 0.765627
O O5 0.499831 0.851402 0.944497
O O6 0.500000 0.000000 0.026579
O O7 0.488712 0.729544 0.044414
O O8 0.750000 0.750000 0.357380
O O9 0.650700 0.493941 0.386900
O O10 0.911058 0.998324 0.691265
#
# Coordination Sequence:
#
# PCOD9372415 Si02
#       5
#    16  16  16  16   8
#     4  11  26  46  75 109 149 194 260 308 379 453
#     4  11  21  45  77 100 153 198 242 311 378 450
#     4  11  26  47  75 114 151 194 258 320 373 464
#     4  11  25  47  74 106 151 203 248 307 392 443
#     4  12  26  44  74 112 148 198 248 312 382 454
#
# _framework density 21.966705000000001
#
# number of rings (size 3 to 8) (size 9 to 14) (size 15 to 20)
#    0.000    0.889    2.222    5.333    6.222    0.000 
#   14.000    0.000    0.000    0.000    0.000    0.000 
#    0.000    0.000    0.000    0.000    0.000    0.000 
#
# Total GULP energy -100323.501104 kJ/mol
# GULP energy per Si atom -5573.527839 kJ/mol
# Density = 2.191671 g / cm^3
# Si number density = 21.966705 Si / 1000 Ang^3
#
#
#
# Elastic Constant Matrix: (Units=GPa)
#
#
# Indices 1 2 3 4 5 6 
#
# 1 113.3499 26.2086 49.6265 0.0000 0.0000 0.0000
# 2 26.2086 91.6423 54.7089 0.0000 0.0000 0.0000
# 3 49.6265 54.7089 162.2498 0.0000 0.0000 0.0000
# 4 0.0000 0.0000 0.0000 57.6293 0.0000 0.0000
# 5 0.0000 0.0000 0.0000 0.0000 31.3293 0.0000
# 6 0.0000 0.0000 0.0000 0.0000 0.0000 -26.8145
#
#
#
# Elastic Compliance Matrix: (Units=1/GPa)
#
#
# Indices 1 2 3 4 5 6 
#
# 1 0.010315 -0.001335 -0.002705 0.000000 0.000000 0.000000
# 2 -0.001335 0.013835 -0.004257 0.000000 0.000000 0.000000
# 3 -0.002705 -0.004257 0.008426 0.000000 0.000000 0.000000
# 4 0.000000 0.000000 0.000000 0.017352 0.000000 0.000000
# 5 0.000000 0.000000 0.000000 0.000000 0.031919 0.000000
# 6 0.000000 0.000000 0.000000 0.000000 0.000000 -0.037293
#
#
# Mechanical properties :
#
#
# Convention : Reuss Voigt Hill
#
# Bulk Modulus (GPa) = 62.56761 69.81444 66.19103
# Shear Modulus (GPa) = 75.21628 28.20871 51.71249
#
# Velocity S-wave (km/s) = 5.85793 3.58740 4.85720
# Velocity P-wave (km/s) = 8.61966 7.00073 7.85203
#
# Compressibility (1/GPa) = 0.01598271
#
# Stress axis : x y z
#
# Youngs Moduli (GPa) = 96.94437 72.28060 118.68142
#
# Poissons Ratio (x) = 0.09652 0.32101
# Poissons Ratio (y) = 0.12945 0.50518
# Poissons Ratio (z) = 0.26222 0.30767
#
# Static dielectric constant tensor:
#      x y z
#    x 1.912710 0.000000 0.000000 
#    y 0.000000 1.852990 0.000000 
#    z 0.000000 0.000000 1.782130 
# 
# From -- ./inp_files/25484.got.cif
#   From: 2010.05.17/outbox.cif.g08.bks.cpg/sg43_13_cif.got.tgz:25484.got - 2010.06.03 19:21:55.
