data_PCOD9372148
_publ_section_title
;
Structure prediction by ZEFSAII (Michael W. Deem and Ramdas Pophale) SiO2 
 PCOD9372148
Probable space group: F D D 2
;
_chemical_formula_sum "Si O2"
_cell_formula_units_Z 80
_cell_length_a 15.916752
_cell_length_b 21.663406
_cell_length_c 9.776083
_cell_angle_alpha 90.000000
_cell_angle_beta 90.000000
_cell_angle_gamma 90.000000
_cell_volume 3370.901549
_symmetry_space_group_name_H-M "F D D 2"
_symmetry_group_IT_number 43
_symmetry_cell_setting 'orthorhombic'
loop_
_space_group_symop_operation_xyz
x,y,z
-x,-y,z
1/4-x,1/4+y,1/4+z
1/4+x,1/4-y,1/4+z
x,1/2+y,1/2+z
-x,1/2-y,1/2+z
1/4-x,3/4+y,3/4+z
1/4+x,3/4-y,3/4+z
1/2+x,y,1/2+z
1/2-x,-y,1/2+z
3/4-x,1/4+y,3/4+z
3/4+x,1/4-y,3/4+z
1/2+x,1/2+y,z
1/2-x,1/2-y,z
3/4-x,3/4+y,1/4+z
3/4+x,3/4-y,1/4+z
loop_
_atom_site_type_symbol
_atom_site_label
_atom_site_fract_x
_atom_site_fract_y
_atom_site_fract_z
Si Si1 0.250000 0.250000 0.509040
Si Si2 0.500000 0.500000 0.772445
Si Si3 0.242218 0.538499 0.143241
Si Si4 0.127936 0.898886 0.353660
Si Si5 0.884686 0.827346 0.913700
Si Si6 0.618576 0.540068 0.017646
O O1 0.196831 0.199190 0.588370
O O2 0.184361 0.280929 0.405325
O O3 0.456859 0.547941 0.673029
O O4 0.568519 0.524035 0.880033
O O5 0.167960 0.582397 0.084858
O O6 0.298458 0.579117 0.249418
O O7 0.200241 0.476269 0.204920
O O8 0.304998 0.507938 0.033054
O O9 0.157500 0.903404 0.509931
O O10 0.872806 0.886784 0.007320
#
# Coordination Sequence:
#
# PCOD9372148 Si02
#       6
#     8   8  16  16  16  16
#     4   9  23  48  70 104 147 199 256 320 388 457
#     4  11  25  42  70 108 145 197 248 306 382 443
#     4  11  28  48  79 113 158 202 263 318 397 464
#     4  11  27  47  75 114 153 207 259 328 392 470
#     4  12  26  44  77 108 156 200 255 321 385 469
#     4  10  24  47  72 109 146 199 256 317 383 457
#
# _framework density 23.732523
#
# number of rings (size 3 to 8) (size 9 to 14) (size 15 to 20)
#    0.000    1.200    0.000    3.000   16.800    0.000 
#    7.200    0.000    0.000    0.000    0.000    0.000 
#    0.000    0.000    0.000    0.000    0.000    0.000 
#
# Total GULP energy -111762.260883 kJ/mol
# GULP energy per Si atom -5588.113044 kJ/mol
# Density = 2.367851 g / cm^3
# Si number density = 23.732523 Si / 1000 Ang^3
#
#
#
# Elastic Constant Matrix: (Units=GPa)
#
#
# Indices 1 2 3 4 5 6 
#
# 1 104.5336 68.5185 38.9011 0.0000 0.0000 0.0000
# 2 68.5185 177.4252 45.3310 0.0000 0.0000 0.0000
# 3 38.9011 45.3310 82.6780 0.0000 0.0000 0.0000
# 4 0.0000 0.0000 0.0000 -155.7689 0.0000 0.0000
# 5 0.0000 0.0000 0.0000 0.0000 -76.5385 0.0000
# 6 0.0000 0.0000 0.0000 0.0000 0.0000 49.8578
#
#
#
# Elastic Compliance Matrix: (Units=1/GPa)
#
#
# Indices 1 2 3 4 5 6 
#
# 1 0.013960 -0.004318 -0.004201 0.000000 0.000000 0.000000
# 2 -0.004318 0.007890 -0.002294 0.000000 0.000000 0.000000
# 3 -0.004201 -0.002294 0.015330 0.000000 0.000000 0.000000
# 4 0.000000 0.000000 0.000000 -0.006420 0.000000 0.000000
# 5 0.000000 0.000000 0.000000 0.000000 -0.013065 0.000000
# 6 0.000000 0.000000 0.000000 0.000000 0.000000 0.020057
#
#
# Mechanical properties :
#
#
# Convention : Reuss Voigt Hill
#
# Bulk Modulus (GPa) = 64.29497 74.45977 69.37737
# Shear Modulus (GPa) = 77.44566 -22.36417 27.54074
#
# Velocity S-wave (km/s) = 5.71870 -3.07309 3.41025
# Velocity P-wave (km/s) = 8.41160 4.34175 6.69350
#
# Compressibility (1/GPa) = 0.01555332
#
# Stress axis : x y z
#
# Youngs Moduli (GPa) = 71.63453 126.74622 65.23316
#
# Poissons Ratio (x) = 0.54725 0.27404
# Poissons Ratio (y) = 0.30930 0.14966
# Poissons Ratio (z) = 0.30093 0.29079
#
# Static dielectric constant tensor:
#      x y z
#    x 2.189530 0.000000 0.000000 
#    y 0.000000 2.269580 0.000000 
#    z 0.000000 0.000000 1.856150 
# 
# From -- ./inp_files/6596.got.cif
#   From: 2010.05.17/outbox.cif.g08.bks.cpg/sg43_4_cif.got.tgz:6596.got - 2010.06.03 19:21:55.
