data_PCOD9372119
_publ_section_title
;
Structure prediction by ZEFSAII (Michael W. Deem and Ramdas Pophale) SiO2 
 PCOD9372119
Probable space group: F D D 2
;
_chemical_formula_sum "Si O2"
_cell_formula_units_Z 40
_cell_length_a 11.217651
_cell_length_b 7.669044
_cell_length_c 19.102949
_cell_angle_alpha 90.000000
_cell_angle_beta 90.000000
_cell_angle_gamma 90.000000
_cell_volume 1643.401087
_symmetry_space_group_name_H-M "F D D 2"
_symmetry_group_IT_number 43
_symmetry_cell_setting 'orthorhombic'
loop_
_space_group_symop_operation_xyz
x,y,z
-x,-y,z
1/4-x,1/4+y,1/4+z
1/4+x,1/4-y,1/4+z
x,1/2+y,1/2+z
-x,1/2-y,1/2+z
1/4-x,3/4+y,3/4+z
1/4+x,3/4-y,3/4+z
1/2+x,y,1/2+z
1/2-x,-y,1/2+z
3/4-x,1/4+y,3/4+z
3/4+x,1/4-y,3/4+z
1/2+x,1/2+y,z
1/2-x,1/2-y,z
3/4-x,3/4+y,1/4+z
3/4+x,3/4-y,1/4+z
loop_
_atom_site_type_symbol
_atom_site_label
_atom_site_fract_x
_atom_site_fract_y
_atom_site_fract_z
Si Si1 0.746711 0.448104 0.265500
Si Si2 0.500000 0.000000 0.226309
Si Si3 0.592124 0.345464 0.144849
O O1 0.750000 0.250000 0.292909
O O2 0.706247 0.421962 0.185280
O O3 0.651477 0.546669 0.313313
O O4 0.877927 0.530787 0.269455
O O5 0.536446 0.174796 0.183640
O O6 0.500000 0.500000 0.151248
#
# Coordination Sequence:
#
# PCOD9372119 Si02
#       3
#    16   8  16
#     4  10  24  48  72 106 149 194 247 305 368 440
#     4  10  24  46  68 104 148 194 242 308 360 446
#     4  11  25  43  74 104 145 192 247 305 368 439
#
# _framework density 24.339766999999998
#
# number of rings (size 3 to 8) (size 9 to 14) (size 15 to 20)
#    0.000    1.600    2.000    0.000    5.600    8.000 
#    7.200    0.000    0.000    0.000    0.000    0.000 
#    0.000    0.000    0.000    0.000    0.000    0.000 
#
# Total GULP energy -55822.454945 kJ/mol
# GULP energy per Si atom -5582.245495 kJ/mol
# Density = 2.428437 g / cm^3
# Si number density = 24.339767 Si / 1000 Ang^3
#
#
#
# Elastic Constant Matrix: (Units=GPa)
#
#
# Indices 1 2 3 4 5 6 
#
# 1 151.1394 23.7336 61.6582 0.0000 0.0000 0.0000
# 2 23.7336 100.6004 7.9194 0.0000 0.0000 0.0000
# 3 61.6582 7.9194 106.0191 0.0000 0.0000 0.0000
# 4 0.0000 0.0000 0.0000 13.5632 0.0000 0.0000
# 5 0.0000 0.0000 0.0000 0.0000 25.6261 0.0000
# 6 0.0000 0.0000 0.0000 0.0000 0.0000 38.8147
#
#
#
# Elastic Compliance Matrix: (Units=1/GPa)
#
#
# Indices 1 2 3 4 5 6 
#
# 1 0.008959 -0.001713 -0.005082 0.000000 0.000000 0.000000
# 2 -0.001713 0.010327 0.000225 0.000000 0.000000 0.000000
# 3 -0.005082 0.000225 0.012371 0.000000 0.000000 0.000000
# 4 0.000000 0.000000 0.000000 0.073729 0.000000 0.000000
# 5 0.000000 0.000000 0.000000 0.000000 0.039023 0.000000
# 6 0.000000 0.000000 0.000000 0.000000 0.000000 0.025763
#
#
# Mechanical properties :
#
#
# Convention : Reuss Voigt Hill
#
# Bulk Modulus (GPa) = 54.00843 60.48680 57.24762
# Shear Modulus (GPa) = 26.38733 33.23065 29.80899
#
# Velocity S-wave (km/s) = 3.29618 3.69898 3.50337
# Velocity P-wave (km/s) = 6.06003 6.56873 6.31950
#
# Compressibility (1/GPa) = 0.01851563
#
# Stress axis : x y z
#
# Youngs Moduli (GPa) = 111.62195 96.83505 80.83314
#
# Poissons Ratio (x) = 0.16592 0.41081
# Poissons Ratio (y) = 0.19126 -0.01820
# Poissons Ratio (z) = 0.56729 -0.02180
#
# Static dielectric constant tensor:
#      x y z
#    x 1.950850 0.000000 0.000000 
#    y 0.000000 1.918380 0.000000 
#    z 0.000000 0.000000 2.019060 
# 
# From -- ./inp_files/19676.got.cif
#   From: 2010.05.17/outbox.cif.g08.bks.cpg/sg43_10_cif.got.tgz:19676.got - 2010.06.03 19:21:55.
