data_PCOD9372493
_publ_section_title
;
Structure prediction by ZEFSAII (Michael W. Deem and Ramdas Pophale) SiO2 
 PCOD9372493
Probable space group: F D D 2
;
_chemical_formula_sum "Si O2"
_cell_formula_units_Z 112
_cell_length_a 25.301421
_cell_length_b 13.342047
_cell_length_c 14.084788
_cell_angle_alpha 90.000000
_cell_angle_beta 90.000000
_cell_angle_gamma 90.000000
_cell_volume 4754.640592
_symmetry_space_group_name_H-M "F D D 2"
_symmetry_group_IT_number 43
_symmetry_cell_setting 'orthorhombic'
loop_
_space_group_symop_operation_xyz
x,y,z
-x,-y,z
1/4-x,1/4+y,1/4+z
1/4+x,1/4-y,1/4+z
x,1/2+y,1/2+z
-x,1/2-y,1/2+z
1/4-x,3/4+y,3/4+z
1/4+x,3/4-y,3/4+z
1/2+x,y,1/2+z
1/2-x,-y,1/2+z
3/4-x,1/4+y,3/4+z
3/4+x,1/4-y,3/4+z
1/2+x,1/2+y,z
1/2-x,1/2-y,z
3/4-x,3/4+y,1/4+z
3/4+x,3/4-y,1/4+z
loop_
_atom_site_type_symbol
_atom_site_label
_atom_site_fract_x
_atom_site_fract_y
_atom_site_fract_z
Si Si1 0.437821 0.882441 0.707640
Si Si2 0.895844 0.524355 0.171809
Si Si3 0.939091 0.146351 0.507880
Si Si4 0.750000 0.750000 0.618075
Si Si5 0.214952 0.071288 0.031348
Si Si6 0.820522 0.912959 0.230664
Si Si7 0.500000 0.000000 0.555476
Si Si8 0.455057 0.320649 0.630930
O O1 0.432783 0.765877 0.728614
O O2 0.379350 0.921024 0.691073
O O3 0.475183 0.913501 0.621369
O O4 0.464624 0.930917 0.799990
O O5 0.839710 0.494079 0.216160
O O6 0.935861 0.575718 0.249032
O O7 0.919994 0.419693 0.133211
O O8 0.897191 0.595890 0.080208
O O9 0.991647 0.163016 0.569819
O O10 0.959923 0.067673 0.429581
O O11 0.273020 0.058441 0.987018
O O12 0.214969 0.050652 0.142908
O O13 0.797520 0.802745 0.250238
O O14 0.820694 0.977142 0.327438
#
# Coordination Sequence:
#
# PCOD9372493 Si02
#       8
#    16  16  16   8  16  16   8  16
#     4  11  25  47  70 106 147 190 244 303 369 443
#     4  11  26  44  73 105 145 188 249 292 365 430
#     4  11  23  45  72 103 143 188 241 307 354 424
#     4  11  22  46  77 104 142 198 253 306 361 434
#     4  11  25  44  74 104 145 189 236 304 359 438
#     4  12  26  45  77 102 150 193 239 301 380 432
#     4  11  26  48  71 108 146 192 251 300 365 450
#     4  11  24  49  68 104 143 188 243 303 349 435
#
# _framework density 23.555935000000002
#
# number of rings (size 3 to 8) (size 9 to 14) (size 15 to 20)
#    0.000    0.857    2.857    3.857    6.000    3.429 
#    7.714    0.000    0.000    0.000    0.000    0.000 
#    0.000    0.000    0.000    0.000    0.000    0.000 
#
# Total GULP energy -156594.785936 kJ/mol
# GULP energy per Si atom -5592.670926 kJ/mol
# Density = 2.350232 g / cm^3
# Si number density = 23.555935 Si / 1000 Ang^3
#
#
#
# Elastic Constant Matrix: (Units=GPa)
#
#
# Indices 1 2 3 4 5 6 
#
# 1 64.6901 -8.6352 8.1863 0.0000 0.0000 0.0000
# 2 -8.6352 57.8214 4.9548 0.0000 0.0000 0.0000
# 3 8.1863 4.9548 76.5961 0.0000 0.0000 0.0000
# 4 0.0000 0.0000 0.0000 22.0504 0.0000 0.0000
# 5 0.0000 0.0000 0.0000 0.0000 67.0262 0.0000
# 6 0.0000 0.0000 0.0000 0.0000 0.0000 35.9795
#
#
#
# Elastic Compliance Matrix: (Units=1/GPa)
#
#
# Indices 1 2 3 4 5 6 
#
# 1 0.016037 0.002556 -0.001879 0.000000 0.000000 0.000000
# 2 0.002556 0.017798 -0.001425 0.000000 0.000000 0.000000
# 3 -0.001879 -0.001425 0.013349 0.000000 0.000000 0.000000
# 4 0.000000 0.000000 0.000000 0.045351 0.000000 0.000000
# 5 0.000000 0.000000 0.000000 0.000000 0.014920 0.000000
# 6 0.000000 0.000000 0.000000 0.000000 0.000000 0.027794
#
#
# Mechanical properties :
#
#
# Convention : Reuss Voigt Hill
#
# Bulk Modulus (GPa) = 21.88722 23.12436 22.50579
# Shear Modulus (GPa) = 32.90054 37.98467 35.44260
#
# Velocity S-wave (km/s) = 3.74130 4.01999 3.88314
# Velocity P-wave (km/s) = 5.28912 5.60225 5.44794
#
# Compressibility (1/GPa) = 0.04568876
#
# Stress axis : x y z
#
# Youngs Moduli (GPa) = 62.35444 56.18466 74.91474
#
# Poissons Ratio (x) = -0.14361 0.14079
# Poissons Ratio (y) = -0.15938 0.10672
# Poissons Ratio (z) = 0.11719 0.08004
#
# Static dielectric constant tensor:
#      x y z
#    x 1.864120 0.000000 0.000000 
#    y 0.000000 1.915440 0.000000 
#    z 0.000000 0.000000 1.919500 
# 
# From -- ./inp_files/11296.got.cif
#   From: 2010.05.17/outbox.cif.g08.bks.cpg/sg43_6_cif.got.tgz:11296.got - 2010.06.03 19:21:55.
