data_PCOD9372153
_publ_section_title
;
Structure prediction by ZEFSAII (Michael W. Deem and Ramdas Pophale) SiO2 
 PCOD9372153
Probable space group: F D D 2
;
_chemical_formula_sum "Si O2"
_cell_formula_units_Z 80
_cell_length_a 22.922749
_cell_length_b 18.765030
_cell_length_c 7.338129
_cell_angle_alpha 90.000000
_cell_angle_beta 90.000000
_cell_angle_gamma 90.000000
_cell_volume 3156.467370
_symmetry_space_group_name_H-M "F D D 2"
_symmetry_group_IT_number 43
_symmetry_cell_setting 'orthorhombic'
loop_
_space_group_symop_operation_xyz
x,y,z
-x,-y,z
1/4-x,1/4+y,1/4+z
1/4+x,1/4-y,1/4+z
x,1/2+y,1/2+z
-x,1/2-y,1/2+z
1/4-x,3/4+y,3/4+z
1/4+x,3/4-y,3/4+z
1/2+x,y,1/2+z
1/2-x,-y,1/2+z
3/4-x,1/4+y,3/4+z
3/4+x,1/4-y,3/4+z
1/2+x,1/2+y,z
1/2-x,1/2-y,z
3/4-x,3/4+y,1/4+z
3/4+x,3/4-y,1/4+z
loop_
_atom_site_type_symbol
_atom_site_label
_atom_site_fract_x
_atom_site_fract_y
_atom_site_fract_z
Si Si1 0.027795 0.713452 0.730230
Si Si2 0.478141 0.643014 0.553643
Si Si3 0.641704 0.203369 0.915880
Si Si4 0.615489 0.933140 0.273269
Si Si5 0.164755 0.301230 0.754795
O O1 0.000898 0.784760 0.651868
O O2 0.079851 0.740407 0.863665
O O3 0.984967 0.663184 0.840944
O O4 0.869826 0.625771 0.717334
O O5 0.417130 0.621424 0.642025
O O6 0.477278 0.421819 0.575665
O O7 0.669218 0.194365 0.714250
O O8 0.682594 0.420166 0.833845
O O9 0.669400 0.250809 0.074686
O O10 0.616119 0.005148 0.158341
#
# Coordination Sequence:
#
# PCOD9372153 Si02
#       5
#    16  16  16  16  16
#     4   9  24  44  76 112 158 213 259 336 408 482
#     4  11  23  50  74 120 162 212 282 331 414 507
#     4   9  23  45  75 114 156 211 270 326 423 478
#     4  10  24  47  78 108 162 209 260 347 409 478
#     4  11  23  44  80 113 155 217 265 342 412 490
#
# _framework density 25.34479
#
# number of rings (size 3 to 8) (size 9 to 14) (size 15 to 20)
#    1.200    0.800    0.000    1.800    2.800    3.200 
#   10.800    2.000    0.000    0.000    0.000    0.000 
#    0.000    0.000    0.000    0.000    0.000    0.000 
#
# Total GULP energy -111674.289207 kJ/mol
# GULP energy per Si atom -5583.714460 kJ/mol
# Density = 2.528710 g / cm^3
# Si number density = 25.344790 Si / 1000 Ang^3
#
#
#
# Elastic Constant Matrix: (Units=GPa)
#
#
# Indices 1 2 3 4 5 6 
#
# 1 72.7871 47.1660 59.7174 0.0008 0.0000 0.0002
# 2 47.1660 127.5384 66.2408 -0.0007 0.0000 -0.0003
# 3 59.7174 66.2408 151.2103 -0.0013 -0.0001 -0.0009
# 4 0.0008 -0.0007 -0.0013 73.7865 -0.0002 -0.0010
# 5 0.0000 0.0000 -0.0001 -0.0002 57.0505 0.0001
# 6 0.0002 -0.0003 -0.0009 -0.0010 0.0001 21.5877
#
#
#
# Elastic Compliance Matrix: (Units=1/GPa)
#
#
# Indices 1 2 3 4 5 6 
#
# 1 0.022359 -0.004767 -0.006742 0.000000 0.000000 0.000000
# 2 -0.004767 0.011167 -0.003009 0.000000 0.000000 0.000000
# 3 -0.006742 -0.003009 0.010594 0.000000 0.000000 0.000000
# 4 0.000000 0.000000 0.000000 0.013553 0.000000 0.000001
# 5 0.000000 0.000000 0.000000 0.000000 0.017528 0.000000
# 6 0.000000 0.000000 0.000000 0.000001 0.000000 0.046323
#
#
# Mechanical properties :
#
#
# Convention : Reuss Voigt Hill
#
# Bulk Modulus (GPa) = 66.29769 77.53159 71.91464
# Shear Modulus (GPa) = 32.13621 42.37904 37.25763
#
# Velocity S-wave (km/s) = 3.56471 4.09357 3.83826
# Velocity P-wave (km/s) = 6.56947 7.28013 6.93391
#
# Compressibility (1/GPa) = 0.01508348
#
# Stress axis : x y z
#
# Youngs Moduli (GPa) = 44.72435 89.55258 94.39247
#
# Poissons Ratio (x) = 0.42692 0.63639
# Poissons Ratio (y) = 0.21321 0.28403
# Poissons Ratio (z) = 0.30153 0.26947
#
# Static dielectric constant tensor:
#      x y z
#    x 2.056540 0.000000 0.000000 
#    y 0.000000 1.967380 0.000000 
#    z 0.000000 0.000000 2.075350 
# 
# From -- ./inp_files/4716.got.cif
#   From: 2010.05.17/outbox.cif.g08.bks.cpg/sg43_3_cif.got.tgz:4716.got - 2010.06.03 19:21:55.
