data_PCOD9372898
_publ_section_title
;
Structure prediction by ZEFSAII (Michael W. Deem and Ramdas Pophale) SiO2 
 PCOD9372898
Probable space group: F D D 2
;
_chemical_formula_sum "Si O2"
_cell_formula_units_Z 72
_cell_length_a 25.112115
_cell_length_b 5.665219
_cell_length_c 19.241529
_cell_angle_alpha 90.000000
_cell_angle_beta 90.000000
_cell_angle_gamma 90.000000
_cell_volume 2737.408265
_symmetry_space_group_name_H-M "F D D 2"
_symmetry_group_IT_number 43
_symmetry_cell_setting 'orthorhombic'
loop_
_space_group_symop_operation_xyz
x,y,z
-x,-y,z
1/4-x,1/4+y,1/4+z
1/4+x,1/4-y,1/4+z
x,1/2+y,1/2+z
-x,1/2-y,1/2+z
1/4-x,3/4+y,3/4+z
1/4+x,3/4-y,3/4+z
1/2+x,y,1/2+z
1/2-x,-y,1/2+z
3/4-x,1/4+y,3/4+z
3/4+x,1/4-y,3/4+z
1/2+x,1/2+y,z
1/2-x,1/2-y,z
3/4-x,3/4+y,1/4+z
3/4+x,3/4-y,1/4+z
loop_
_atom_site_type_symbol
_atom_site_label
_atom_site_fract_x
_atom_site_fract_y
_atom_site_fract_z
Si Si1 0.593946 0.297340 0.789030
Si Si2 0.250000 0.250000 0.498640
Si Si3 0.250000 0.250000 0.232579
Si Si4 0.648181 0.376048 0.652664
Si Si5 0.416186 0.732105 0.142196
Si Si6 0.000000 0.500000 0.062491
O O1 0.604913 0.275832 0.707282
O O2 0.596374 0.558945 0.821759
O O3 0.536940 0.170306 0.795386
O O4 0.643705 0.185049 0.831525
O O5 0.291460 0.386204 0.447458
O O6 0.300455 0.245882 0.183699
O O7 0.245862 0.497333 0.274277
O O8 0.639427 0.652696 0.667316
O O9 0.447237 0.953499 0.107775
#
# Coordination Sequence:
#
# PCOD9372898 Si02
#       6
#    16   8   8  16  16   8
#     4  12  28  53  78 122 167 224 299 359 455 536
#     4  12  29  53  86 128 167 237 306 380 460 553
#     4  12  29  46  83 124 165 225 288 366 444 541
#     4  12  29  49  81 117 168 225 290 370 446 544
#     4  12  28  52  85 118 169 229 291 374 455 544
#     4  12  26  51  83 118 166 222 292 352 456 538
#
# _framework density 26.302254000000001
#
# number of rings (size 3 to 8) (size 9 to 14) (size 15 to 20)
#    0.000    0.000    4.444    3.333   12.444    0.000 
#    0.000    0.000    0.000    0.000    0.000    0.000 
#    0.000    0.000    0.000    0.000    0.000    0.000 
#
# Total GULP energy -100471.767224 kJ/mol
# GULP energy per Si atom -5581.764846 kJ/mol
# Density = 2.624239 g / cm^3
# Si number density = 26.302254 Si / 1000 Ang^3
#
#
#
# Elastic Constant Matrix: (Units=GPa)
#
#
# Indices 1 2 3 4 5 6 
#
# 1 66.2949 48.1860 46.6893 -0.0013 0.0032 0.0018
# 2 48.1860 118.7733 56.0042 0.0007 0.0036 0.0015
# 3 46.6893 56.0042 128.2542 0.0000 0.0004 0.0001
# 4 -0.0013 0.0007 0.0000 -108.0872 0.0053 0.0020
# 5 0.0032 0.0036 0.0004 0.0053 -137.3107 -0.0016
# 6 0.0018 0.0015 0.0001 0.0020 -0.0016 60.5870
#
#
#
# Elastic Compliance Matrix: (Units=1/GPa)
#
#
# Indices 1 2 3 4 5 6 
#
# 1 0.024328 -0.007170 -0.005725 0.000000 0.000000 -0.000001
# 2 -0.007170 0.012716 -0.002942 0.000000 0.000000 0.000000
# 3 -0.005725 -0.002942 0.011166 0.000000 0.000000 0.000000
# 4 0.000000 0.000000 0.000000 -0.009252 0.000000 0.000000
# 5 0.000000 0.000000 0.000000 0.000000 -0.007283 0.000000
# 6 -0.000001 0.000000 0.000000 0.000000 0.000000 0.016505
#
#
# Mechanical properties :
#
#
# Convention : Reuss Voigt Hill
#
# Bulk Modulus (GPa) = 60.48112 68.34237 64.41175
# Shear Modulus (GPa) = 58.57074 -26.13264 16.21905
#
# Velocity S-wave (km/s) = 4.72405 -3.15548 2.48592
# Velocity P-wave (km/s) = 7.26637 3.57264 5.72555
#
# Compressibility (1/GPa) = 0.01653408
#
# Stress axis : x y z
#
# Youngs Moduli (GPa) = 41.10524 78.64329 89.55735
#
# Poissons Ratio (x) = 0.56388 0.51274
# Poissons Ratio (y) = 0.29473 0.26350
# Poissons Ratio (z) = 0.23534 0.23139
#
# Static dielectric constant tensor:
#      x y z
#    x 2.288450 0.000000 0.000000 
#    y 0.000000 2.370950 0.000000 
#    z 0.000000 0.000000 2.142070 
# 
# From -- ./inp_files/15679.got.cif
#   From: 2010.05.17/outbox.cif.g08.bks.cpg/sg43_8_cif.got.tgz:15679.got - 2010.06.03 19:21:55.
