data_PCOD9372418
_publ_section_title
;
Structure prediction by ZEFSAII (Michael W. Deem and Ramdas Pophale) SiO2 
 PCOD9372418
Probable space group: F D D 2
;
_chemical_formula_sum "Si O2"
_cell_formula_units_Z 96
_cell_length_a 8.167479
_cell_length_b 19.875422
_cell_length_c 25.664761
_cell_angle_alpha 90.000000
_cell_angle_beta 90.000000
_cell_angle_gamma 90.000000
_cell_volume 4166.214339
_symmetry_space_group_name_H-M "F D D 2"
_symmetry_group_IT_number 43
_symmetry_cell_setting 'orthorhombic'
loop_
_space_group_symop_operation_xyz
x,y,z
-x,-y,z
1/4-x,1/4+y,1/4+z
1/4+x,1/4-y,1/4+z
x,1/2+y,1/2+z
-x,1/2-y,1/2+z
1/4-x,3/4+y,3/4+z
1/4+x,3/4-y,3/4+z
1/2+x,y,1/2+z
1/2-x,-y,1/2+z
3/4-x,1/4+y,3/4+z
3/4+x,1/4-y,3/4+z
1/2+x,1/2+y,z
1/2-x,1/2-y,z
3/4-x,3/4+y,1/4+z
3/4+x,3/4-y,1/4+z
loop_
_atom_site_type_symbol
_atom_site_label
_atom_site_fract_x
_atom_site_fract_y
_atom_site_fract_z
Si Si1 0.637356 0.184818 0.780560
Si Si2 0.000000 0.500000 0.930818
Si Si3 0.242806 0.370120 0.174327
Si Si4 0.239951 0.441600 0.348695
Si Si5 0.697784 0.484889 0.131305
Si Si6 0.359798 0.130334 0.952362
Si Si7 0.000000 0.000000 0.775175
O O1 0.750000 0.250000 0.768831
O O2 0.644967 0.145967 0.725204
O O3 0.695813 0.125457 0.819789
O O4 0.508658 0.220575 0.820544
O O5 0.863960 0.472658 0.890089
O O6 0.957708 0.563580 0.966896
O O7 0.328264 0.330992 0.128422
O O8 0.233508 0.448073 0.157857
O O9 0.055510 0.348652 0.178618
O O10 0.170794 0.491489 0.305561
O O11 0.500000 0.500000 0.133511
O O12 0.772021 0.423683 0.164795
O O13 0.282906 0.182008 0.993227
#
# Coordination Sequence:
#
# PCOD9372418 Si02
#       7
#    16   8  16  16  16  16   8
#     4  11  23  44  74 105 144 195 247 297 389 459
#     4  12  28  48  70 111 156 195 254 320 380 462
#     4  12  24  45  79 103 149 200 250 321 384 453
#     4  12  25  50  72 106 151 196 248 316 382 463
#     4  11  21  47  73 103 150 195 249 315 383 463
#     4  12  24  46  75 112 149 193 260 313 384 472
#     4  12  26  48  76 109 146 205 254 310 400 464
#
# _framework density 23.042501999999999
#
# number of rings (size 3 to 8) (size 9 to 14) (size 15 to 20)
#    0.000    0.333    8.333    1.000    3.500    0.000 
#    9.000    0.000    0.000    0.000    0.000    0.000 
#    0.000    0.000    0.000    0.000    0.000    0.000 
#
# Total GULP energy -133743.631289 kJ/mol
# GULP energy per Si atom -5572.651304 kJ/mol
# Density = 2.299006 g / cm^3
# Si number density = 23.042502 Si / 1000 Ang^3
#
#
#
# Elastic Constant Matrix: (Units=GPa)
#
#
# Indices 1 2 3 4 5 6 
#
# 1 45.2799 7.8297 2.9935 0.0000 0.0000 0.0000
# 2 7.8297 130.5268 24.4125 0.0000 0.0000 0.0000
# 3 2.9935 24.4125 58.0985 0.0000 0.0000 0.0000
# 4 0.0000 0.0000 0.0000 87.1634 0.0000 0.0000
# 5 0.0000 0.0000 0.0000 0.0000 15.6097 0.0000
# 6 0.0000 0.0000 0.0000 0.0000 0.0000 37.4822
#
#
#
# Elastic Compliance Matrix: (Units=1/GPa)
#
#
# Indices 1 2 3 4 5 6 
#
# 1 0.022338 -0.001221 -0.000638 0.000000 0.000000 0.000000
# 2 -0.001221 0.008381 -0.003459 0.000000 0.000000 0.000000
# 3 -0.000638 -0.003459 0.018698 0.000000 0.000000 0.000000
# 4 0.000000 0.000000 0.000000 0.011473 0.000000 0.000000
# 5 0.000000 0.000000 0.000000 0.000000 0.064063 0.000000
# 6 0.000000 0.000000 0.000000 0.000000 0.000000 0.026679
#
#
# Mechanical properties :
#
#
# Convention : Reuss Voigt Hill
#
# Bulk Modulus (GPa) = 25.78463 33.81961 29.80212
# Shear Modulus (GPa) = 28.53953 41.29569 34.91761
#
# Velocity S-wave (km/s) = 3.52314 4.23798 3.89698
# Velocity P-wave (km/s) = 5.26919 6.21741 5.76283
#
# Compressibility (1/GPa) = 0.03878279
#
# Stress axis : x y z
#
# Youngs Moduli (GPa) = 44.76651 119.31182 53.48047
#
# Poissons Ratio (x) = 0.14563 0.03412
# Poissons Ratio (y) = 0.05464 0.18498
# Poissons Ratio (z) = 0.02856 0.41269
#
# Static dielectric constant tensor:
#      x y z
#    x 1.978520 0.000000 0.000000 
#    y 0.000000 1.737130 0.000000 
#    z 0.000000 0.000000 1.915360 
# 
# From -- ./inp_files/24246.got.cif
#   From: 2010.05.17/outbox.cif.g08.bks.cpg/sg43_13_cif.got.tgz:24246.got - 2010.06.03 19:21:55.
