data_PCOD9372689
_publ_section_title
;
Structure prediction by ZEFSAII (Michael W. Deem and Ramdas Pophale) SiO2 
 PCOD9372689
Probable space group: F D D 2
;
_chemical_formula_sum "Si O2"
_cell_formula_units_Z 112
_cell_length_a 28.383438
_cell_length_b 5.213512
_cell_length_c 28.060581
_cell_angle_alpha 90.000000
_cell_angle_beta 90.000000
_cell_angle_gamma 90.000000
_cell_volume 4152.331668
_symmetry_space_group_name_H-M "F D D 2"
_symmetry_group_IT_number 43
_symmetry_cell_setting 'orthorhombic'
loop_
_space_group_symop_operation_xyz
x,y,z
-x,-y,z
1/4-x,1/4+y,1/4+z
1/4+x,1/4-y,1/4+z
x,1/2+y,1/2+z
-x,1/2-y,1/2+z
1/4-x,3/4+y,3/4+z
1/4+x,3/4-y,3/4+z
1/2+x,y,1/2+z
1/2-x,-y,1/2+z
3/4-x,1/4+y,3/4+z
3/4+x,1/4-y,3/4+z
1/2+x,1/2+y,z
1/2-x,1/2-y,z
3/4-x,3/4+y,1/4+z
3/4+x,3/4-y,1/4+z
loop_
_atom_site_type_symbol
_atom_site_label
_atom_site_fract_x
_atom_site_fract_y
_atom_site_fract_z
Si Si1 0.096623 0.643012 0.612070
Si Si2 0.082038 0.160504 0.415020
Si Si3 0.801263 0.866484 0.955664
Si Si4 0.250000 0.750000 0.024540
Si Si5 0.214004 0.541196 0.287313
Si Si6 0.066667 0.767472 0.342508
Si Si7 0.131225 0.055040 0.507161
Si Si8 0.500000 0.000000 0.446462
O O1 0.118991 0.395669 0.635804
O O2 0.075438 0.805090 0.656118
O O3 0.054228 0.584780 0.575648
O O4 0.146992 0.780201 0.597364
O O5 0.059451 0.902496 0.393288
O O6 0.105356 0.214947 0.466484
O O7 0.039876 0.365360 0.415079
O O8 0.750000 0.750000 0.945776
O O9 0.834136 0.659892 0.983721
O O10 0.787430 0.112904 0.988608
O O11 0.231535 0.529138 0.061529
O O12 0.250000 0.750000 0.306912
O O13 0.164096 0.667754 0.278636
O O14 0.231344 0.452621 0.235897
O O15 0.095236 0.936807 0.302602
#
# Coordination Sequence:
#
# PCOD9372689 Si02
#       8
#    16  16  16   8  16  16  16   8
#     4  11  27  45  75 109 146 199 261 317 391 473
#     4  12  27  46  77 108 155 201 256 323 394 474
#     4  12  25  49  75 109 151 205 254 318 392 475
#     4  12  28  43  78 110 158 196 258 319 402 464
#     4  11  25  48  74 109 151 196 254 325 391 469
#     4  11  27  46  71 110 149 195 250 321 381 462
#     4  11  24  51  77 104 158 198 251 323 393 463
#     4  12  28  45  78 112 148 206 254 323 404 476
#
# _framework density 26.972798999999998
#
# number of rings (size 3 to 8) (size 9 to 14) (size 15 to 20)
#    0.000    0.571    4.286    2.143    8.000    0.571 
#    0.000    0.000    0.000    0.000    0.000    0.000 
#    0.000    0.000    0.000    0.000    0.000    0.000 
#
# Total GULP energy -156062.362826 kJ/mol
# GULP energy per Si atom -5573.655815 kJ/mol
# Density = 2.691141 g / cm^3
# Si number density = 26.972799 Si / 1000 Ang^3
#
#
#
# Elastic Constant Matrix: (Units=GPa)
#
#
# Indices 1 2 3 4 5 6 
#
# 1 113.4624 18.5831 11.9786 -0.0054 -0.0304 -0.0780
# 2 18.5831 51.3829 -2.8384 -0.0340 -0.0426 -0.0942
# 3 11.9786 -2.8384 80.4934 -0.0159 -0.0091 -0.0287
# 4 -0.0054 -0.0340 -0.0159 27.9463 -0.0115 -0.0168
# 5 -0.0304 -0.0426 -0.0091 -0.0115 52.6737 0.0129
# 6 -0.0780 -0.0942 -0.0287 -0.0168 0.0129 6.4626
#
#
#
# Elastic Compliance Matrix: (Units=1/GPa)
#
#
# Indices 1 2 3 4 5 6 
#
# 1 0.009557 -0.003542 -0.001547 -0.000003 0.000002 0.000057
# 2 -0.003542 0.020813 0.001261 0.000026 0.000015 0.000266
# 3 -0.001547 0.001261 0.012698 0.000009 0.000002 0.000056
# 4 -0.000003 0.000026 0.000009 0.035783 0.000008 0.000093
# 5 0.000002 0.000015 0.000002 0.000008 0.018985 -0.000038
# 6 0.000057 0.000266 0.000056 0.000093 -0.000038 0.154742
#
#
# Mechanical properties :
#
#
# Convention : Reuss Voigt Hill
#
# Bulk Modulus (GPa) = 28.23871 33.42059 30.82965
# Shear Modulus (GPa) = 18.37984 31.92421 25.15202
#
# Velocity S-wave (km/s) = 2.61324 3.44404 3.05699
# Velocity P-wave (km/s) = 4.42689 5.31343 4.89030
#
# Compressibility (1/GPa) = 0.03541239
#
# Stress axis : x y z
#
# Youngs Moduli (GPa) = 104.63614 48.04738 78.75196
#
# Poissons Ratio (x) = 0.17017 0.12184
# Poissons Ratio (y) = 0.37059 -0.09931
# Poissons Ratio (z) = 0.16188 -0.06059
#
# Static dielectric constant tensor:
#      x y z
#    x 2.067270 0.000000 0.000010 
#    y 0.000000 2.189990 -0.000080 
#    z 0.000010 -0.000080 2.533740 
# 
# From -- ./inp_files/30047.got.cif
#   From: 2010.05.17/outbox.cif.g08.bks.cpg/sg43_16_cif.got.tgz:30047.got - 2010.06.03 19:21:55.
