data_PCOD9372481
_publ_section_title
;
Structure prediction by ZEFSAII (Michael W. Deem and Ramdas Pophale) SiO2 
 PCOD9372481
Probable space group: F D D 2
;
_chemical_formula_sum "Si O2"
_cell_formula_units_Z 72
_cell_length_a 19.357587
_cell_length_b 26.032087
_cell_length_c 5.156130
_cell_angle_alpha 90.000000
_cell_angle_beta 90.000000
_cell_angle_gamma 90.000000
_cell_volume 2598.268723
_symmetry_space_group_name_H-M "F D D 2"
_symmetry_group_IT_number 43
_symmetry_cell_setting 'orthorhombic'
loop_
_space_group_symop_operation_xyz
x,y,z
-x,-y,z
1/4-x,1/4+y,1/4+z
1/4+x,1/4-y,1/4+z
x,1/2+y,1/2+z
-x,1/2-y,1/2+z
1/4-x,3/4+y,3/4+z
1/4+x,3/4-y,3/4+z
1/2+x,y,1/2+z
1/2-x,-y,1/2+z
3/4-x,1/4+y,3/4+z
3/4+x,1/4-y,3/4+z
1/2+x,1/2+y,z
1/2-x,1/2-y,z
3/4-x,3/4+y,1/4+z
3/4+x,3/4-y,1/4+z
loop_
_atom_site_type_symbol
_atom_site_label
_atom_site_fract_x
_atom_site_fract_y
_atom_site_fract_z
Si Si1 0.962981 0.694393 0.341450
Si Si2 0.250000 0.750000 0.574823
Si Si3 0.928480 0.356323 0.035775
Si Si4 0.715000 0.152744 0.864951
Si Si5 0.116458 0.279255 0.845762
O O1 0.939299 0.635269 0.385892
O O2 0.931700 0.721278 0.593444
O O3 0.040646 0.677676 0.268840
O O4 0.932061 0.723020 0.096096
O O5 0.242160 0.799607 0.757579
O O6 0.182945 0.744198 0.395567
O O7 0.900243 0.413121 0.100578
O O8 0.858889 0.327367 0.956995
O O9 0.988632 0.369358 0.819936
#
# Coordination Sequence:
#
# PCOD9372481 Si02
#       5
#    16   8  16  16  16
#     4  11  22  45  71 106 142 198 254 303 364 475
#     4  12  24  46  72 122 154 202 254 338 398 440
#     4  11  22  45  75 111 141 207 259 310 369 481
#     4  11  25  43  79 107 152 196 260 318 384 459
#     4  11  25  41  75 107 152 189 255 313 375 453
#
# _framework density 27.710761000000002
#
# number of rings (size 3 to 8) (size 9 to 14) (size 15 to 20)
#    0.000    0.889    6.667    2.667    0.000    3.556 
#    0.000    0.000    9.778    0.000    0.000    0.000 
#    0.000    0.000    0.000    0.000    0.000    0.000 
#
# Total GULP energy -100668.905247 kJ/mol
# GULP energy per Si atom -5592.716958 kJ/mol
# Density = 2.764769 g / cm^3
# Si number density = 27.710761 Si / 1000 Ang^3
#
#
#
# Elastic Constant Matrix: (Units=GPa)
#
#
# Indices 1 2 3 4 5 6 
#
# 1 196.8232 4.7877 83.8066 0.0575 0.0761 -0.0135
# 2 4.7877 91.8489 30.0869 -0.0112 0.0448 0.0090
# 3 83.8066 30.0869 189.9173 0.0262 0.0546 0.0032
# 4 0.0575 -0.0112 0.0262 24.9590 0.0403 -0.0067
# 5 0.0761 0.0448 0.0546 0.0403 45.0304 0.0223
# 6 -0.0135 0.0090 0.0032 -0.0067 0.0223 60.9078
#
#
#
# Elastic Compliance Matrix: (Units=1/GPa)
#
#
# Indices 1 2 3 4 5 6 
#
# 1 0.006289 0.000613 -0.002872 -0.000011 -0.000008 0.000001
# 2 0.000613 0.011543 -0.002099 0.000006 -0.000010 -0.000001
# 3 -0.002872 -0.002099 0.006865 -0.000002 -0.000001 -0.000001
# 4 -0.000011 0.000006 -0.000002 0.040066 -0.000036 0.000004
# 5 -0.000008 -0.000010 -0.000001 -0.000036 0.022207 -0.000008
# 6 0.000001 -0.000001 -0.000001 0.000004 -0.000008 0.016418
#
#
# Mechanical properties :
#
#
# Convention : Reuss Voigt Hill
#
# Bulk Modulus (GPa) = 62.57580 79.55020 71.06300
# Shear Modulus (GPa) = 42.57771 50.17332 46.37552
#
# Velocity S-wave (km/s) = 3.92408 4.25974 4.09535
# Velocity P-wave (km/s) = 6.56978 7.27760 6.93273
#
# Compressibility (1/GPa) = 0.01598062
#
# Stress axis : x y z
#
# Youngs Moduli (GPa) = 159.01342 86.63164 145.65673
#
# Poissons Ratio (x) = -0.05311 0.41836
# Poissons Ratio (y) = -0.09748 0.30576
# Poissons Ratio (z) = 0.45672 0.18186
#
# Static dielectric constant tensor:
#      x y z
#    x 2.297440 0.000050 0.000000 
#    y 0.000050 2.143680 -0.000070 
#    z 0.000000 -0.000070 2.286080 
# 
# From -- ./inp_files/778.got.cif
#   From: 2010.05.17/outbox.cif.g08.bks.cpg/sg43_1_cif.got.tgz:778.got - 2010.06.03 19:21:55.
