data_PCOD9372296
_publ_section_title
;
Structure prediction by ZEFSAII (Michael W. Deem and Ramdas Pophale) SiO2 
 PCOD9372296
Probable space group: F D D 2
;
_chemical_formula_sum "Si O2"
_cell_formula_units_Z 64
_cell_length_a 32.104389
_cell_length_b 14.605809
_cell_length_c 5.359597
_cell_angle_alpha 90.000000
_cell_angle_beta 90.000000
_cell_angle_gamma 90.000000
_cell_volume 2513.171705
_symmetry_space_group_name_H-M "F D D 2"
_symmetry_group_IT_number 43
_symmetry_cell_setting 'orthorhombic'
loop_
_space_group_symop_operation_xyz
x,y,z
-x,-y,z
1/4-x,1/4+y,1/4+z
1/4+x,1/4-y,1/4+z
x,1/2+y,1/2+z
-x,1/2-y,1/2+z
1/4-x,3/4+y,3/4+z
1/4+x,3/4-y,3/4+z
1/2+x,y,1/2+z
1/2-x,-y,1/2+z
3/4-x,1/4+y,3/4+z
3/4+x,1/4-y,3/4+z
1/2+x,1/2+y,z
1/2-x,1/2-y,z
3/4-x,3/4+y,1/4+z
3/4+x,3/4-y,1/4+z
loop_
_atom_site_type_symbol
_atom_site_label
_atom_site_fract_x
_atom_site_fract_y
_atom_site_fract_z
Si Si1 0.291845 0.119170 0.964680
Si Si2 0.671014 0.200209 0.597191
Si Si3 0.956083 0.697422 0.043350
Si Si4 0.616204 0.419767 0.341324
O O1 0.294062 0.223970 0.051965
O O2 0.252853 0.092758 0.792815
O O3 0.335728 0.105813 0.822072
O O4 0.291070 0.051598 0.204836
O O5 0.688763 0.097390 0.552922
O O6 0.646837 0.224910 0.847424
O O7 0.638923 0.210459 0.367556
O O8 0.923299 0.650290 0.853740
#
# Coordination Sequence:
#
# PCOD9372296 Si02
#       4
#    16  16  16  16
#     4  12  25  51  80 114 161 209 259 341 386 476
#     4  10  26  53  73 111 160 202 261 331 393 465
#     4  10  28  47  76 122 146 209 271 310 402 483
#     4  10  26  52  76 113 160 205 264 322 400 472
#
# _framework density 25.465831000000001
#
# number of rings (size 3 to 8) (size 9 to 14) (size 15 to 20)
#    1.500    0.000    0.000    2.250    3.500   10.000 
#    4.500    0.000    0.000    0.000    0.000    0.000 
#    0.000    0.000    0.000    0.000    0.000    0.000 
#
# Total GULP energy -89159.086599 kJ/mol
# GULP energy per Si atom -5572.442912 kJ/mol
# Density = 2.540787 g / cm^3
# Si number density = 25.465831 Si / 1000 Ang^3
#
#
#
# Elastic Constant Matrix: (Units=GPa)
#
#
# Indices 1 2 3 4 5 6 
#
# 1 214.8187 26.9430 38.2513 0.0000 0.0000 -0.0002
# 2 26.9430 78.1014 4.2819 -0.0001 0.0000 -0.0002
# 3 38.2513 4.2819 98.6464 -0.0003 0.0002 -0.0007
# 4 0.0000 -0.0001 -0.0003 2.5619 0.0001 -0.0002
# 5 0.0000 0.0000 0.0002 0.0001 10.5362 0.0003
# 6 -0.0002 -0.0002 -0.0007 -0.0002 0.0003 -3.7096
#
#
#
# Elastic Compliance Matrix: (Units=1/GPa)
#
#
# Indices 1 2 3 4 5 6 
#
# 1 0.005214 -0.001692 -0.001948 0.000000 0.000000 0.000000
# 2 -0.001692 0.013383 0.000075 0.000000 0.000000 -0.000001
# 3 -0.001948 0.000075 0.010889 0.000001 0.000000 -0.000002
# 4 0.000000 0.000000 0.000001 0.390342 -0.000005 -0.000020
# 5 0.000000 0.000000 0.000000 -0.000005 0.094911 0.000009
# 6 0.000000 -0.000001 -0.000002 -0.000020 0.000009 -0.269571
#
#
# Mechanical properties :
#
#
# Convention : Reuss Voigt Hill
#
# Bulk Modulus (GPa) = 44.72943 58.94655 51.83799
# Shear Modulus (GPa) = 19.24913 23.35038 21.29975
#
# Velocity S-wave (km/s) = 2.75231 3.03137 2.89520
# Velocity P-wave (km/s) = 5.26336 5.95398 5.61929
#
# Compressibility (1/GPa) = 0.02235665
#
# Stress axis : x y z
#
# Youngs Moduli (GPa) = 191.78239 74.71929 91.83174
#
# Poissons Ratio (x) = 0.12642 0.17893
# Poissons Ratio (y) = 0.32449 -0.00690
# Poissons Ratio (z) = 0.37368 -0.00561
#
# Static dielectric constant tensor:
#      x y z
#    x 1.979500 0.000000 0.000000 
#    y 0.000000 2.133070 0.000000 
#    z 0.000000 0.000000 2.036960 
# 
# From -- ./inp_files/1321.got.cif
#   From: 2010.05.17/outbox.cif.g08.bks.cpg/sg43_1_cif.got.tgz:1321.got - 2010.06.03 19:21:55.
