data_PCOD9372623
_publ_section_title
;
Structure prediction by ZEFSAII (Michael W. Deem and Ramdas Pophale) SiO2 
 PCOD9372623
Probable space group: F D D 2
;
_chemical_formula_sum "Si O2"
_cell_formula_units_Z 80
_cell_length_a 5.487851
_cell_length_b 30.073810
_cell_length_c 21.599280
_cell_angle_alpha 90.000000
_cell_angle_beta 90.000000
_cell_angle_gamma 90.000000
_cell_volume 3564.757878
_symmetry_space_group_name_H-M "F D D 2"
_symmetry_group_IT_number 43
_symmetry_cell_setting 'orthorhombic'
loop_
_space_group_symop_operation_xyz
x,y,z
-x,-y,z
1/4-x,1/4+y,1/4+z
1/4+x,1/4-y,1/4+z
x,1/2+y,1/2+z
-x,1/2-y,1/2+z
1/4-x,3/4+y,3/4+z
1/4+x,3/4-y,3/4+z
1/2+x,y,1/2+z
1/2-x,-y,1/2+z
3/4-x,1/4+y,3/4+z
3/4+x,1/4-y,3/4+z
1/2+x,1/2+y,z
1/2-x,1/2-y,z
3/4-x,3/4+y,1/4+z
3/4+x,3/4-y,1/4+z
loop_
_atom_site_type_symbol
_atom_site_label
_atom_site_fract_x
_atom_site_fract_y
_atom_site_fract_z
Si Si1 0.250000 0.250000 0.730561
Si Si2 0.461470 0.699350 0.125842
Si Si3 0.750000 0.750000 0.026832
Si Si4 0.263130 0.165407 0.819368
Si Si5 0.855759 0.569212 0.769315
Si Si6 0.524898 0.096661 0.644838
O O1 0.455484 0.234321 0.681481
O O2 0.229288 0.206809 0.773214
O O3 0.647389 0.712971 0.073168
O O4 0.212763 0.697078 0.085035
O O5 0.511160 0.650126 0.149522
O O6 0.553682 0.778910 0.991878
O O7 0.250169 0.118186 0.782956
O O8 0.524254 0.166281 0.856789
O O9 0.024442 0.166142 0.861794
O O10 0.042340 0.577832 0.714038
#
# Coordination Sequence:
#
# PCOD9372623 Si02
#       6
#     8  16   8  16  16  16
#     4  12  24  51  68 112 145 198 246 310 346 474
#     4  11  24  45  73 103 141 189 250 297 369 428
#     4  12  22  41  72 110 133 188 250 298 366 438
#     4  11  27  46  74 106 149 193 241 298 381 422
#     4  11  24  45  72 106 144 188 246 306 361 440
#     4  11  26  49  72 105 148 193 236 308 370 437
#
# _framework density 22.441915000000002
#
# number of rings (size 3 to 8) (size 9 to 14) (size 15 to 20)
#    0.000    0.800    6.000    0.000    2.800    3.200 
#    3.600    0.000    0.000    0.000    0.000    0.000 
#    0.000    0.000    0.000    0.000    0.000    0.000 
#
# Total GULP energy -111571.764889 kJ/mol
# GULP energy per Si atom -5578.588244 kJ/mol
# Density = 2.239084 g / cm^3
# Si number density = 22.441915 Si / 1000 Ang^3
#
#
#
# Elastic Constant Matrix: (Units=GPa)
#
#
# Indices 1 2 3 4 5 6 
#
# 1 89.7970 20.7626 25.8994 0.0000 0.0000 0.0000
# 2 20.7626 105.1217 36.8464 0.0000 0.0000 0.0000
# 3 25.8994 36.8464 88.0886 0.0000 0.0000 0.0000
# 4 0.0000 0.0000 0.0000 36.1383 0.0000 0.0000
# 5 0.0000 0.0000 0.0000 0.0000 20.9818 0.0000
# 6 0.0000 0.0000 0.0000 0.0000 0.0000 13.0091
#
#
#
# Elastic Compliance Matrix: (Units=1/GPa)
#
#
# Indices 1 2 3 4 5 6 
#
# 1 0.012333 -0.001365 -0.003055 0.000000 0.000000 0.000000
# 2 -0.001365 0.011298 -0.004325 0.000000 0.000000 0.000000
# 3 -0.003055 -0.004325 0.014059 0.000000 0.000000 0.000000
# 4 0.000000 0.000000 0.000000 0.027671 0.000000 0.000000
# 5 0.000000 0.000000 0.000000 0.000000 0.047660 0.000000
# 6 0.000000 0.000000 0.000000 0.000000 0.000000 0.076869
#
#
# Mechanical properties :
#
#
# Convention : Reuss Voigt Hill
#
# Bulk Modulus (GPa) = 49.50213 50.00268 49.75240
# Shear Modulus (GPa) = 23.35199 27.32579 25.33889
#
# Velocity S-wave (km/s) = 3.22926 3.49323 3.36384
# Velocity P-wave (km/s) = 6.00083 6.21285 6.10776
#
# Compressibility (1/GPa) = 0.02020115
#
# Stress axis : x y z
#
# Youngs Moduli (GPa) = 81.08323 88.50968 71.12697
#
# Poissons Ratio (x) = 0.12082 0.21730
# Poissons Ratio (y) = 0.11068 0.30759
# Poissons Ratio (z) = 0.24772 0.38276
#
# Static dielectric constant tensor:
#      x y z
#    x 1.972960 0.000000 0.000000 
#    y 0.000000 1.835240 0.000000 
#    z 0.000000 0.000000 1.806220 
# 
# From -- ./inp_files/19517.got.cif
#   From: 2010.05.17/outbox.cif.g08.bks.cpg/sg43_10_cif.got.tgz:19517.got - 2010.06.03 19:21:55.
