data_PCOD9372397
_publ_section_title
;
Structure prediction by ZEFSAII (Michael W. Deem and Ramdas Pophale) SiO2 
 PCOD9372397
Probable space group: F D D 2
;
_chemical_formula_sum "Si O2"
_cell_formula_units_Z 104
_cell_length_a 21.253662
_cell_length_b 8.468914
_cell_length_c 26.477800
_cell_angle_alpha 90.000000
_cell_angle_beta 90.000000
_cell_angle_gamma 90.000000
_cell_volume 4765.883146
_symmetry_space_group_name_H-M "F D D 2"
_symmetry_group_IT_number 43
_symmetry_cell_setting 'orthorhombic'
loop_
_space_group_symop_operation_xyz
x,y,z
-x,-y,z
1/4-x,1/4+y,1/4+z
1/4+x,1/4-y,1/4+z
x,1/2+y,1/2+z
-x,1/2-y,1/2+z
1/4-x,3/4+y,3/4+z
1/4+x,3/4-y,3/4+z
1/2+x,y,1/2+z
1/2-x,-y,1/2+z
3/4-x,1/4+y,3/4+z
3/4+x,1/4-y,3/4+z
1/2+x,1/2+y,z
1/2-x,1/2-y,z
3/4-x,3/4+y,1/4+z
3/4+x,3/4-y,1/4+z
loop_
_atom_site_type_symbol
_atom_site_label
_atom_site_fract_x
_atom_site_fract_y
_atom_site_fract_z
Si Si1 0.647703 0.841489 0.585560
Si Si2 0.320231 0.698060 0.902933
Si Si3 0.059451 0.897794 0.701550
Si Si4 0.742561 0.955561 0.050627
Si Si5 0.000000 0.500000 0.965152
Si Si6 0.681987 0.530333 0.648556
Si Si7 0.876822 0.128745 0.249039
O O1 0.654824 0.691469 0.622907
O O2 0.614736 0.764428 0.537401
O O3 0.613841 0.997041 0.606765
O O4 0.715914 0.897230 0.568209
O O5 0.250000 0.750000 0.890516
O O6 0.313438 0.522338 0.924632
O O7 0.349537 0.802679 0.947616
O O8 0.041685 0.880671 0.761753
O O9 0.126318 0.970816 0.685030
O O10 0.000000 0.000000 0.681357
O O11 0.707641 0.912582 0.104258
O O12 0.684408 0.012928 0.017117
O O13 0.009594 0.343814 0.931214
O O14 0.063689 0.522082 0.995286
#
# Coordination Sequence:
#
# PCOD9372397 Si02
#       7
#    16  16  16  16   8  16  16
#     4  11  22  44  76 105 136 199 255 296 375 467
#     4  12  22  44  73 103 147 190 243 306 372 451
#     4  12  26  43  72 110 149 188 247 318 379 450
#     4  11  22  46  76 102 142 193 255 301 381 458
#     4  12  22  44  74 104 148 194 246 310 382 434
#     4  11  22  43  73 105 143 194 253 297 374 463
#     4  11  21  42  73 107 141 195 245 303 372 459
#
# _framework density 21.821769
#
# number of rings (size 3 to 8) (size 9 to 14) (size 15 to 20)
#    0.000    0.615    6.154    3.231    0.000    1.231 
#   13.846    2.308    0.000    0.000    0.000    0.000 
#    0.000    0.000    0.000    0.000    0.000    0.000 
#
# Total GULP energy -144972.629650 kJ/mol
# GULP energy per Si atom -5575.870371 kJ/mol
# Density = 2.177210 g / cm^3
# Si number density = 21.821769 Si / 1000 Ang^3
#
#
#
# Elastic Constant Matrix: (Units=GPa)
#
#
# Indices 1 2 3 4 5 6 
#
# 1 140.6730 44.2387 55.2725 0.0000 0.0000 -0.0001
# 2 44.2387 43.1113 19.5608 0.0000 0.0000 -0.0001
# 3 55.2725 19.5608 93.5174 0.0000 0.0000 0.0000
# 4 0.0000 0.0000 0.0000 18.8879 0.0000 0.0000
# 5 0.0000 0.0000 0.0000 0.0000 39.3935 0.0000
# 6 -0.0001 -0.0001 0.0000 0.0000 0.0000 51.3714
#
#
#
# Elastic Compliance Matrix: (Units=1/GPa)
#
#
# Indices 1 2 3 4 5 6 
#
# 1 0.012401 -0.010385 -0.005157 0.000000 0.000000 0.000000
# 2 -0.010385 0.034325 -0.001042 0.000000 0.000000 0.000000
# 3 -0.005157 -0.001042 0.013959 0.000000 0.000000 0.000000
# 4 0.000000 0.000000 0.000000 0.052944 0.000000 0.000000
# 5 0.000000 0.000000 0.000000 0.000000 0.025385 0.000000
# 6 0.000000 0.000000 0.000000 0.000000 0.000000 0.019466
#
#
# Mechanical properties :
#
#
# Convention : Reuss Voigt Hill
#
# Bulk Modulus (GPa) = 36.34086 57.27174 46.80630
# Shear Modulus (GPa) = 24.89779 32.47921 28.68850
#
# Velocity S-wave (km/s) = 3.38148 3.86215 3.62978
# Velocity P-wave (km/s) = 5.65115 6.79635 6.25004
#
# Compressibility (1/GPa) = 0.02751723
#
# Stress axis : x y z
#
# Youngs Moduli (GPa) = 80.63861 29.13300 71.63739
#
# Poissons Ratio (x) = 0.30256 0.36945
# Poissons Ratio (y) = 0.83746 0.07462
# Poissons Ratio (z) = 0.41587 0.03034
#
# Static dielectric constant tensor:
#      x y z
#    x 1.759080 0.000000 0.000000 
#    y 0.000000 1.888740 0.000000 
#    z 0.000000 0.000000 1.888560 
# 
# From -- ./inp_files/26548.got.cif
#   From: 2010.05.17/outbox.cif.g08.bks.cpg/sg43_14_cif.got.tgz:26548.got - 2010.06.03 19:21:55.
