data_PCOD9372905
_publ_section_title
;
Structure prediction by ZEFSAII (Michael W. Deem and Ramdas Pophale) SiO2 
 PCOD9372905
Probable space group: F D D 2
;
_chemical_formula_sum "Si O2"
_cell_formula_units_Z 72
_cell_length_a 18.785150
_cell_length_b 25.130267
_cell_length_c 6.752666
_cell_angle_alpha 90.000000
_cell_angle_beta 90.000000
_cell_angle_gamma 90.000000
_cell_volume 3187.770441
_symmetry_space_group_name_H-M "F D D 2"
_symmetry_group_IT_number 43
_symmetry_cell_setting 'orthorhombic'
loop_
_space_group_symop_operation_xyz
x,y,z
-x,-y,z
1/4-x,1/4+y,1/4+z
1/4+x,1/4-y,1/4+z
x,1/2+y,1/2+z
-x,1/2-y,1/2+z
1/4-x,3/4+y,3/4+z
1/4+x,3/4-y,3/4+z
1/2+x,y,1/2+z
1/2-x,-y,1/2+z
3/4-x,1/4+y,3/4+z
3/4+x,1/4-y,3/4+z
1/2+x,1/2+y,z
1/2-x,1/2-y,z
3/4-x,3/4+y,1/4+z
3/4+x,3/4-y,1/4+z
loop_
_atom_site_type_symbol
_atom_site_label
_atom_site_fract_x
_atom_site_fract_y
_atom_site_fract_z
Si Si1 0.500000 0.500000 0.665350
Si Si2 0.143215 0.476590 0.304393
Si Si3 0.258107 0.648339 0.155485
Si Si4 0.995160 0.307054 0.228261
Si Si5 0.091276 0.872008 0.033970
O O1 0.571420 0.511272 0.788762
O O2 0.484299 0.551836 0.536003
O O3 0.206496 0.507807 0.411512
O O4 0.174202 0.462085 0.088176
O O5 0.120144 0.424298 0.422768
O O6 0.265869 0.596155 0.293198
O O7 0.337571 0.661038 0.079825
O O8 0.203083 0.636673 0.979864
O O9 0.039053 0.340381 0.390282
#
# Coordination Sequence:
#
# PCOD9372905 Si02
#       5
#     8  16  16  16  16
#     4  12  28  44  80 114 148 196 260 320 368 454
#     4  12  28  49  80 113 152 203 255 314 386 458
#     4  12  27  48  76 107 154 199 257 311 383 451
#     4  12  28  53  74 112 157 201 254 313 390 454
#     4  12  27  48  76 111 149 204 248 315 380 460
#
# _framework density 22.586320000000001
#
# number of rings (size 3 to 8) (size 9 to 14) (size 15 to 20)
#    0.000    0.000    4.444    4.000   12.444    0.000 
#    0.000    0.000    0.000    0.000    0.000    0.000 
#    0.000    0.000    0.000    0.000    0.000    0.000 
#
# Total GULP energy -100880.380863 kJ/mol
# GULP energy per Si atom -5604.465603 kJ/mol
# Density = 2.253491 g / cm^3
# Si number density = 22.586320 Si / 1000 Ang^3
#
#
#
# Elastic Constant Matrix: (Units=GPa)
#
#
# Indices 1 2 3 4 5 6 
#
# 1 145.8668 6.9320 37.6649 0.0005 -0.0014 -0.0009
# 2 6.9320 60.8982 13.5433 0.0005 -0.0010 -0.0007
# 3 37.6649 13.5433 77.8541 0.0016 -0.0029 -0.0025
# 4 0.0005 0.0005 0.0016 34.0613 -0.0009 -0.0009
# 5 -0.0014 -0.0010 -0.0029 -0.0009 24.2415 0.0017
# 6 -0.0009 -0.0007 -0.0025 -0.0009 0.0017 30.4037
#
#
#
# Elastic Compliance Matrix: (Units=1/GPa)
#
#
# Indices 1 2 3 4 5 6 
#
# 1 0.007834 -0.000051 -0.003781 0.000000 0.000000 0.000000
# 2 -0.000051 0.017082 -0.002947 0.000000 0.000000 0.000000
# 3 -0.003781 -0.002947 0.015187 -0.000001 0.000001 0.000001
# 4 0.000000 0.000000 -0.000001 0.029359 0.000001 0.000001
# 5 0.000000 0.000000 0.000001 0.000001 0.041252 -0.000002
# 6 0.000000 0.000000 0.000001 0.000001 -0.000002 0.032891
#
#
# Mechanical properties :
#
#
# Convention : Reuss Voigt Hill
#
# Bulk Modulus (GPa) = 37.67230 44.54438 41.10834
# Shear Modulus (GPa) = 30.11856 32.83990 31.47923
#
# Velocity S-wave (km/s) = 3.65566 3.81724 3.73732
# Velocity P-wave (km/s) = 5.87655 6.26044 6.07153
#
# Compressibility (1/GPa) = 0.02654470
#
# Stress axis : x y z
#
# Youngs Moduli (GPa) = 127.64245 58.54111 65.84771
#
# Poissons Ratio (x) = 0.00298 0.24899
# Poissons Ratio (y) = 0.00649 0.19405
# Poissons Ratio (z) = 0.48266 0.17252
#
# Static dielectric constant tensor:
#      x y z
#    x 1.841710 0.000000 0.000000 
#    y 0.000000 1.816100 0.000000 
#    z 0.000000 0.000000 1.868980 
# 
# From -- ./inp_files/729.got.cif
#   From: 2010.05.17/outbox.cif.g08.bks.cpg/sg43_1_cif.got.tgz:729.got - 2010.06.03 19:21:55.
