data_PCOD9372134
_publ_section_title
;
Structure prediction by ZEFSAII (Michael W. Deem and Ramdas Pophale) SiO2 
 PCOD9372134
Probable space group: F D D 2
;
_chemical_formula_sum "Si O2"
_cell_formula_units_Z 72
_cell_length_a 11.695168
_cell_length_b 25.819112
_cell_length_c 8.356955
_cell_angle_alpha 90.000000
_cell_angle_beta 90.000000
_cell_angle_gamma 90.000000
_cell_volume 2523.456542
_symmetry_space_group_name_H-M "F D D 2"
_symmetry_group_IT_number 43
_symmetry_cell_setting 'orthorhombic'
loop_
_space_group_symop_operation_xyz
x,y,z
-x,-y,z
1/4-x,1/4+y,1/4+z
1/4+x,1/4-y,1/4+z
x,1/2+y,1/2+z
-x,1/2-y,1/2+z
1/4-x,3/4+y,3/4+z
1/4+x,3/4-y,3/4+z
1/2+x,y,1/2+z
1/2-x,-y,1/2+z
3/4-x,1/4+y,3/4+z
3/4+x,1/4-y,3/4+z
1/2+x,1/2+y,z
1/2-x,1/2-y,z
3/4-x,3/4+y,1/4+z
3/4+x,3/4-y,1/4+z
loop_
_atom_site_type_symbol
_atom_site_label
_atom_site_fract_x
_atom_site_fract_y
_atom_site_fract_z
Si Si1 0.070426 0.086436 0.440490
Si Si2 0.889139 0.801997 0.892962
Si Si3 0.873650 0.659376 0.314406
Si Si4 0.750000 0.250000 0.798978
Si Si5 0.736569 0.453121 0.167169
O O1 0.084262 0.085965 0.249211
O O2 0.187842 0.064496 0.513130
O O3 0.045263 0.146407 0.485597
O O4 0.968039 0.054356 0.523205
O O5 0.002048 0.816619 0.793415
O O6 0.927093 0.748636 0.978547
O O7 0.879916 0.851145 0.008076
O O8 0.788080 0.696618 0.217031
O O9 0.635180 0.231264 0.890925
#
# Coordination Sequence:
#
# PCOD9372134 Si02
#       5
#    16  16  16   8  16
#     4  12  25  50  84 118 165 232 290 362 457 537
#     4  11  26  49  75 120 167 218 290 364 437 536
#     4  11  25  47  75 116 165 216 290 365 442 532
#     4  10  24  46  74 114 156 220 272 366 446 524
#     4  11  25  47  80 120 163 225 287 366 443 547
#
# _framework density 28.532292000000002
#
# number of rings (size 3 to 8) (size 9 to 14) (size 15 to 20)
#    0.000    0.889    0.000    6.000    3.111    1.778 
#   28.000    0.000    0.000    0.000    0.000    0.000 
#    0.000    0.000    0.000    0.000    0.000    0.000 
#
# Total GULP energy -100767.508771 kJ/mol
# GULP energy per Si atom -5598.194932 kJ/mol
# Density = 2.846735 g / cm^3
# Si number density = 28.532292 Si / 1000 Ang^3
#
#
#
# Elastic Constant Matrix: (Units=GPa)
#
#
# Indices 1 2 3 4 5 6 
#
# 1 180.3438 63.8481 59.5801 0.0000 0.0000 0.0000
# 2 63.8481 251.9961 73.5635 0.0000 0.0000 0.0000
# 3 59.5801 73.5635 108.0470 0.0000 0.0000 0.0000
# 4 0.0000 0.0000 0.0000 45.0857 0.0000 0.0000
# 5 0.0000 0.0000 0.0000 0.0000 15.4447 0.0000
# 6 0.0000 0.0000 0.0000 0.0000 0.0000 51.9674
#
#
#
# Elastic Compliance Matrix: (Units=1/GPa)
#
#
# Indices 1 2 3 4 5 6 
#
# 1 0.006906 -0.000796 -0.003266 0.000000 0.000000 0.000000
# 2 -0.000796 0.005045 -0.002995 0.000000 0.000000 0.000000
# 3 -0.003266 -0.002995 0.013096 0.000000 0.000000 0.000000
# 4 0.000000 0.000000 0.000000 0.022180 0.000000 0.000000
# 5 0.000000 0.000000 0.000000 0.000000 0.064747 0.000000
# 6 0.000000 0.000000 0.000000 0.000000 0.000000 0.019243
#
#
# Mechanical properties :
#
#
# Convention : Reuss Voigt Hill
#
# Bulk Modulus (GPa) = 91.48615 103.81894 97.65254
# Shear Modulus (GPa) = 33.56278 45.39259 39.47768
#
# Velocity S-wave (km/s) = 3.43346 3.99296 3.72373
# Velocity P-wave (km/s) = 6.91750 7.59762 7.26552
#
# Compressibility (1/GPa) = 0.01093062
#
# Stress axis : x y z
#
# Youngs Moduli (GPa) = 144.80475 198.23507 76.36178
#
# Poissons Ratio (x) = 0.15786 0.24939
# Poissons Ratio (y) = 0.11531 0.22874
# Poissons Ratio (z) = 0.47292 0.59380
#
# Static dielectric constant tensor:
#      x y z
#    x 2.175400 0.000000 0.000000 
#    y 0.000000 2.225140 0.000000 
#    z 0.000000 0.000000 2.285640 
# 
# From -- ./inp_files/5615.got.cif
#   From: 2010.05.17/outbox.cif.g08.bks.cpg/sg43_3_cif.got.tgz:5615.got - 2010.06.03 19:21:55.
