data_PCOD9372642
_publ_section_title
;
Structure prediction by ZEFSAII (Michael W. Deem and Ramdas Pophale) SiO2 
 PCOD9372642
Probable space group: F D D 2
;
_chemical_formula_sum "Si O2"
_cell_formula_units_Z 112
_cell_length_a 13.447716
_cell_length_b 13.447723
_cell_length_c 27.517725
_cell_angle_alpha 90.000000
_cell_angle_beta 90.000000
_cell_angle_gamma 90.000000
_cell_volume 4976.337303
_symmetry_space_group_name_H-M "F D D 2"
_symmetry_group_IT_number 43
_symmetry_cell_setting 'orthorhombic'
loop_
_space_group_symop_operation_xyz
x,y,z
-x,-y,z
1/4-x,1/4+y,1/4+z
1/4+x,1/4-y,1/4+z
x,1/2+y,1/2+z
-x,1/2-y,1/2+z
1/4-x,3/4+y,3/4+z
1/4+x,3/4-y,3/4+z
1/2+x,y,1/2+z
1/2-x,-y,1/2+z
3/4-x,1/4+y,3/4+z
3/4+x,1/4-y,3/4+z
1/2+x,1/2+y,z
1/2-x,1/2-y,z
3/4-x,3/4+y,1/4+z
3/4+x,3/4-y,1/4+z
loop_
_atom_site_type_symbol
_atom_site_label
_atom_site_fract_x
_atom_site_fract_y
_atom_site_fract_z
Si Si1 0.021380 0.746190 0.233300
Si Si2 0.903656 0.438030 0.070032
Si Si3 0.211850 0.038150 0.313363
Si Si4 0.067001 0.409939 0.475110
Si Si5 0.996190 0.271380 0.393426
Si Si6 0.590061 0.567001 0.401615
Si Si7 0.688030 0.653656 0.056694
O O1 0.068492 0.805064 0.279089
O O2 0.107291 0.752529 0.193257
O O3 0.922918 0.794880 0.210101
O O4 0.986348 0.642510 0.257709
O O5 0.857490 0.486348 0.119016
O O6 0.000000 0.500000 0.054198
O O7 0.940004 0.326056 0.074507
O O8 0.157394 0.080053 0.266224
O O9 0.169947 0.092606 0.360502
O O10 0.326056 0.059996 0.302219
O O11 0.000000 0.500000 0.495774
O O12 0.002529 0.357291 0.433469
O O13 0.044879 0.172918 0.416625
O O14 0.055063 0.318492 0.347637
O O15 0.500000 0.500000 0.380952
O O16 0.750000 0.750000 0.072527
#
# Coordination Sequence:
#
# PCOD9372642 Si02
#       7
#    16  16  16  16  16  16  16
#     4  11  25  45  72 105 149 193 253 310 378 453
#     4  11  24  46  74 108 148 196 243 314 383 459
#     4  12  24  44  74 100 146 192 246 310 376 448
#     4  12  26  46  72 107 145 197 255 314 379 458
#     4  11  25  45  72 105 149 193 253 310 378 453
#     4  12  26  46  72 107 145 197 255 314 379 458
#     4  11  24  46  74 108 148 196 243 314 383 459
#
# _framework density 22.506512000000001
#
# number of rings (size 3 to 8) (size 9 to 14) (size 15 to 20)
#    0.000    0.571    2.857    6.000    0.000    5.143 
#    0.000    0.000    0.000    0.000    0.000    0.000 
#    0.000    0.000    0.000    0.000    0.000    0.000 
#
# Total GULP energy -156483.045049 kJ/mol
# GULP energy per Si atom -5588.680180 kJ/mol
# Density = 2.245529 g / cm^3
# Si number density = 22.506512 Si / 1000 Ang^3
#
#
#
# Elastic Constant Matrix: (Units=GPa)
#
#
# Indices 1 2 3 4 5 6 
#
# 1 100.6696 37.5113 10.0036 0.0000 0.0000 0.0000
# 2 37.5113 100.6695 10.0034 0.0000 0.0000 0.0000
# 3 10.0036 10.0034 80.7706 0.0000 0.0000 0.0000
# 4 0.0000 0.0000 0.0000 28.0330 0.0000 0.0000
# 5 0.0000 0.0000 0.0000 0.0000 28.0330 0.0000
# 6 0.0000 0.0000 0.0000 0.0000 0.0000 43.7627
#
#
#
# Elastic Compliance Matrix: (Units=1/GPa)
#
#
# Indices 1 2 3 4 5 6 
#
# 1 0.011601 -0.004232 -0.000913 0.000000 0.000000 0.000000
# 2 -0.004232 0.011601 -0.000913 0.000000 0.000000 0.000000
# 3 -0.000913 -0.000913 0.012607 0.000000 0.000000 0.000000
# 4 0.000000 0.000000 0.000000 0.035672 0.000000 0.000000
# 5 0.000000 0.000000 0.000000 0.000000 0.035672 0.000000
# 6 0.000000 0.000000 0.000000 0.000000 0.000000 0.022851
#
#
# Mechanical properties :
#
#
# Convention : Reuss Voigt Hill
#
# Bulk Modulus (GPa) = 42.20435 44.12736 43.16586
# Shear Modulus (GPa) = 33.32955 34.93849 34.13402
#
# Velocity S-wave (km/s) = 3.85240 3.94429 3.89862
# Velocity P-wave (km/s) = 6.21134 6.35549 6.28383
#
# Compressibility (1/GPa) = 0.02369424
#
# Stress axis : x y z
#
# Youngs Moduli (GPa) = 86.19846 86.19842 79.32220
#
# Poissons Ratio (x) = 0.36480 0.07240
# Poissons Ratio (y) = 0.36480 0.07239
# Poissons Ratio (z) = 0.07867 0.07867
#
# Static dielectric constant tensor:
#      x y z
#    x 1.852440 0.000000 0.000000 
#    y 0.000000 1.852430 0.000000 
#    z 0.000000 0.000000 1.843280 
# 
# From -- ./inp_files/29097.got.cif
#   From: 2010.05.17/outbox.cif.g08.bks.cpg/sg43_15_cif.got.tgz:29097.got - 2010.06.03 19:21:55.
