data_PCOD9372644
_publ_section_title
;
Structure prediction by ZEFSAII (Michael W. Deem and Ramdas Pophale) SiO2 
 PCOD9372644
Probable space group: F D D 2
;
_chemical_formula_sum "Si O2"
_cell_formula_units_Z 88
_cell_length_a 15.401135
_cell_length_b 22.960871
_cell_length_c 10.810353
_cell_angle_alpha 90.000000
_cell_angle_beta 90.000000
_cell_angle_gamma 90.000000
_cell_volume 3822.794583
_symmetry_space_group_name_H-M "F D D 2"
_symmetry_group_IT_number 43
_symmetry_cell_setting 'orthorhombic'
loop_
_space_group_symop_operation_xyz
x,y,z
-x,-y,z
1/4-x,1/4+y,1/4+z
1/4+x,1/4-y,1/4+z
x,1/2+y,1/2+z
-x,1/2-y,1/2+z
1/4-x,3/4+y,3/4+z
1/4+x,3/4-y,3/4+z
1/2+x,y,1/2+z
1/2-x,-y,1/2+z
3/4-x,1/4+y,3/4+z
3/4+x,1/4-y,3/4+z
1/2+x,1/2+y,z
1/2-x,1/2-y,z
3/4-x,3/4+y,1/4+z
3/4+x,3/4-y,1/4+z
loop_
_atom_site_type_symbol
_atom_site_label
_atom_site_fract_x
_atom_site_fract_y
_atom_site_fract_z
Si Si1 0.505244 0.267713 0.056300
Si Si2 0.143955 0.192658 0.242739
Si Si3 0.759559 0.885881 0.852430
Si Si4 0.456323 0.366780 0.873709
Si Si5 0.321705 0.170977 0.624505
Si Si6 0.500000 0.000000 0.680978
O O1 0.427474 0.286715 0.146927
O O2 0.497237 0.198959 0.038265
O O3 0.596662 0.284915 0.120259
O O4 0.491914 0.307428 0.934938
O O5 0.230120 0.167635 0.174115
O O6 0.108232 0.139401 0.323259
O O7 0.169488 0.242595 0.339613
O O8 0.856104 0.876471 0.906059
O O9 0.725466 0.838583 0.754426
O O10 0.703194 0.885685 0.976015
O O11 0.256894 0.195007 0.520010
#
# Coordination Sequence:
#
# PCOD9372644 Si02
#       6
#    16  16  16  16  16   8
#     4  11  26  47  76 104 144 196 241 292 376 434
#     4  11  24  46  75 104 138 195 243 294 349 453
#     4  12  28  47  73 107 151 187 240 311 365 431
#     4  11  26  50  70 110 148 190 245 304 361 438
#     4  11  27  45  70 109 145 187 242 298 359 440
#     4  12  26  48  74 100 144 194 242 292 362 428
#
# _framework density 23.019808000000001
#
# number of rings (size 3 to 8) (size 9 to 14) (size 15 to 20)
#    0.000    0.727    1.818    4.364   17.818    0.000 
#    0.000    0.000    0.000    0.000    0.000    0.000 
#    0.000    0.000    0.000    0.000    0.000    0.000 
#
# Total GULP energy -123191.290774 kJ/mol
# GULP energy per Si atom -5599.604126 kJ/mol
# Density = 2.296741 g / cm^3
# Si number density = 23.019808 Si / 1000 Ang^3
#
#
#
# Elastic Constant Matrix: (Units=GPa)
#
#
# Indices 1 2 3 4 5 6 
#
# 1 81.1014 13.1480 13.1997 0.0000 0.0000 0.0000
# 2 13.1480 60.3093 19.4670 0.0000 0.0000 0.0000
# 3 13.1997 19.4670 116.3954 0.0000 0.0000 0.0000
# 4 0.0000 0.0000 0.0000 158.8342 0.0000 0.0000
# 5 0.0000 0.0000 0.0000 0.0000 31.4340 0.0000
# 6 0.0000 0.0000 0.0000 0.0000 0.0000 19.9678
#
#
#
# Elastic Compliance Matrix: (Units=1/GPa)
#
#
# Indices 1 2 3 4 5 6 
#
# 1 0.012902 -0.002474 -0.001049 0.000000 0.000000 0.000000
# 2 -0.002474 0.018002 -0.002730 0.000000 0.000000 0.000000
# 3 -0.001049 -0.002730 0.009167 0.000000 0.000000 0.000000
# 4 0.000000 0.000000 0.000000 0.006296 0.000000 0.000000
# 5 0.000000 0.000000 0.000000 0.000000 0.031813 0.000000
# 6 0.000000 0.000000 0.000000 0.000000 0.000000 0.050081
#
#
# Mechanical properties :
#
#
# Convention : Reuss Voigt Hill
#
# Bulk Modulus (GPa) = 36.27958 38.82615 37.55286
# Shear Modulus (GPa) = 33.34327 56.17997 44.76162
#
# Velocity S-wave (km/s) = 3.80999 4.94551 4.41441
# Velocity P-wave (km/s) = 5.92867 7.03660 6.50626
#
# Compressibility (1/GPa) = 0.02756371
#
# Stress axis : x y z
#
# Youngs Moduli (GPa) = 77.50664 55.54989 109.08659
#
# Poissons Ratio (x) = 0.13743 0.11447
# Poissons Ratio (y) = 0.19176 0.29783
# Poissons Ratio (z) = 0.08133 0.15166
#
# Static dielectric constant tensor:
#      x y z
#    x 1.858950 0.000000 0.000000 
#    y 0.000000 1.706580 0.000000 
#    z 0.000000 0.000000 1.820330 
# 
# From -- ./inp_files/6161.got.cif
#   From: 2010.05.17/outbox.cif.g08.bks.cpg/sg43_4_cif.got.tgz:6161.got - 2010.06.03 19:21:55.
