data_PCOD9372958
_publ_section_title
;
Structure prediction by ZEFSAII (Michael W. Deem and Ramdas Pophale) SiO2 
 PCOD9372958
Probable space group: F D D 2
;
_chemical_formula_sum "Si O2"
_cell_formula_units_Z 26
_cell_length_a 27.000000
_cell_length_b 9.000000
_cell_length_c 21.000000
_cell_angle_alpha 90.000000
_cell_angle_beta 90.000000
_cell_angle_gamma 90.000000
_cell_volume 5103.000000
_symmetry_space_group_name_H-M "F D D 2"
_symmetry_group_IT_number 43
_symmetry_cell_setting 'orthorhombic'
loop_
_space_group_symop_operation_xyz
x,y,z
-x,-y,z
1/4-x,1/4+y,1/4+z
1/4+x,1/4-y,1/4+z
x,1/2+y,1/2+z
-x,1/2-y,1/2+z
1/4-x,3/4+y,3/4+z
1/4+x,3/4-y,3/4+z
1/2+x,y,1/2+z
1/2-x,-y,1/2+z
3/4-x,1/4+y,3/4+z
3/4+x,1/4-y,3/4+z
1/2+x,1/2+y,z
1/2-x,1/2-y,z
3/4-x,3/4+y,1/4+z
3/4+x,3/4-y,1/4+z
loop_
_atom_site_type_symbol
_atom_site_label
_atom_site_fract_x
_atom_site_fract_y
_atom_site_fract_z
Si Si1 0.061344 0.788304 0.698160
Si Si2 0.287439 0.038907 0.158554
Si Si3 0.606548 0.545471 0.614884
Si Si4 0.460012 0.175041 0.640438
Si Si5 0.250000 0.250000 0.606189
Si Si6 0.409163 0.510408 0.257076
Si Si7 0.000000 0.500000 0.521661
Si Si8 0.000000 0.000000 0.795769
O O1 0.097389 0.664176 0.732635
O O2 0.014727 0.696953 0.669703
O O3 0.037072 0.902097 0.750872
O O4 0.083609 0.884663 0.638397
O O5 0.276686 0.134736 0.222254
O O6 0.279464 0.141316 0.095009
O O7 0.341949 0.966474 0.154128
O O8 0.251127 0.898380 0.148854
O O9 0.565471 0.664404 0.635465
O O10 0.622524 0.621794 0.545448
O O11 0.427089 0.089058 0.692363
O O12 0.465584 0.092886 0.571816
O O13 0.296779 0.246945 0.558805
#
# Coordination Sequence:
#
# PCOD9372958 Si02
#       8
#    16  16  16  16   8  16   8   8
#     4  12  21  43  73 104 136 188 234 285 354 433
#     4  10  24  45  66 104 139 177 236 287 350 418
#     4  11  27  40  67 112 137 174 236 303 346 411
#     4  12  23  48  71  97 140 188 233 290 359 428
#     4  10  17  42  72  98 127 190 222 286 342 428
#     4  11  22  45  71 100 138 184 239 288 358 426
#     4  11  25  46  66  96 143 195 232 282 364 429
#     4  11  20  44  78  94 132 189 234 264 354 449
#
# _framework density 5.0950420000000003
#
# number of rings (size 3 to 8) (size 9 to 14) (size 15 to 20)
#    0.000    0.923    6.154    0.923    2.154    1.231 
#   11.077    0.000    0.000    0.000    0.000    0.000 
#    0.000    0.000    0.000    0.000    0.000    0.000 
#
# Total GULP energy -144850.101584 kJ/mol
# GULP energy per Si atom -5571.157753 kJ/mol
# Density = 0.508345 g / cm^3
# Si number density = 5.095042 Si / 1000 Ang^3
#
#
#
# Elastic Constant Matrix: (Units=GPa)
#
#
# Indices 1 2 3 4 5 6 
#
# 1 24.1095 -3.3770 12.1427 0.0000 0.0000 0.0000
# 2 -3.3770 117.1320 50.5220 0.0000 0.0000 0.0000
# 3 12.1427 50.5220 131.0029 0.0000 0.0000 0.0000
# 4 0.0000 0.0000 0.0000 46.0947 0.0000 0.0000
# 5 0.0000 0.0000 0.0000 0.0000 21.9610 0.0000
# 6 0.0000 0.0000 0.0000 0.0000 0.0000 25.6404
#
#
#
# Elastic Compliance Matrix: (Units=1/GPa)
#
#
# Indices 1 2 3 4 5 6 
#
# 1 0.044805 0.003698 -0.005579 0.000000 0.000000 0.000000
# 2 0.003698 0.010546 -0.004410 0.000000 0.000000 0.000000
# 3 -0.005579 -0.004410 0.009851 0.000000 0.000000 0.000000
# 4 0.000000 0.000000 0.000000 0.021694 0.000000 0.000000
# 5 0.000000 0.000000 0.000000 0.000000 0.045535 0.000000
# 6 0.000000 0.000000 0.000000 0.000000 0.000000 0.039001
#
#
# Mechanical properties :
#
#
# Convention : Reuss Voigt Hill
#
# Bulk Modulus (GPa) = 19.00385 43.42443 31.21414
# Shear Modulus (GPa) = 24.80703 32.93634 28.87168
#
# Velocity S-wave (km/s) = 3.49264 4.02443 3.76793
# Velocity P-wave (km/s) = 5.06060 6.55349 5.85482
#
# Compressibility (1/GPa) = 0.05262091
#
# Stress axis : x y z
#
# Youngs Moduli (GPa) = 22.31870 94.82152 101.50950
#
# Poissons Ratio (x) = -0.35067 0.56635
# Poissons Ratio (y) = -0.08254 0.44765
# Poissons Ratio (z) = 0.12452 0.41816
#
# Static dielectric constant tensor:
#      x y z
#    x 1.761340 0.000000 0.000000 
#    y 0.000000 1.792610 0.000000 
#    z 0.000000 0.000000 1.712270 
# 
# From -- ./inp_files/16595.got.cif
#   From: 2010.05.17/outbox.ucp.g08.bks.cvg/sg43_9_cif.got.tgz:16595.got - 2010.06.11 16:31:01.
