data_PCOD9372804
_publ_section_title
;
Structure prediction by ZEFSAII (Michael W. Deem and Ramdas Pophale) SiO2 
 PCOD9372804
Probable space group: F D D 2
;
_chemical_formula_sum "Si O2"
_cell_formula_units_Z 88
_cell_length_a 16.334597
_cell_length_b 9.216358
_cell_length_c 23.566434
_cell_angle_alpha 90.000000
_cell_angle_beta 90.000000
_cell_angle_gamma 90.000000
_cell_volume 3547.820442
_symmetry_space_group_name_H-M "F D D 2"
_symmetry_group_IT_number 43
_symmetry_cell_setting 'orthorhombic'
loop_
_space_group_symop_operation_xyz
x,y,z
-x,-y,z
1/4-x,1/4+y,1/4+z
1/4+x,1/4-y,1/4+z
x,1/2+y,1/2+z
-x,1/2-y,1/2+z
1/4-x,3/4+y,3/4+z
1/4+x,3/4-y,3/4+z
1/2+x,y,1/2+z
1/2-x,-y,1/2+z
3/4-x,1/4+y,3/4+z
3/4+x,1/4-y,3/4+z
1/2+x,1/2+y,z
1/2-x,1/2-y,z
3/4-x,3/4+y,1/4+z
3/4+x,3/4-y,1/4+z
loop_
_atom_site_type_symbol
_atom_site_label
_atom_site_fract_x
_atom_site_fract_y
_atom_site_fract_z
Si Si1 0.750000 0.250000 0.310611
Si Si2 0.908168 0.205331 0.232445
Si Si3 0.283351 0.922161 0.395155
Si Si4 0.586951 0.831664 0.428634
Si Si5 0.978191 0.352247 0.838999
Si Si6 0.042903 0.857773 0.052314
O O1 0.824517 0.255638 0.262047
O O2 0.817780 0.276057 0.368303
O O3 0.965025 0.309188 0.193687
O O4 0.964961 0.161357 0.285017
O O5 0.889475 0.063198 0.193884
O O6 0.353272 0.036307 0.412984
O O7 0.244128 0.964753 0.331538
O O8 0.528307 0.788754 0.377392
O O9 0.534741 0.854520 0.485296
O O10 0.887049 0.377169 0.815593
O O11 0.000000 0.500000 0.872060
O O12 0.000000 0.000000 0.076591
#
# Coordination Sequence:
#
# PCOD9372804 Si02
#       6
#     8  16  16  16  16  16
#     4  12  30  48  72 110 156 204 260 326 398 456
#     4  12  25  47  72 105 146 201 254 317 392 461
#     4  12  24  48  72 107 151 191 253 322 377 462
#     4  12  25  43  80 107 145 193 257 315 390 462
#     4  12  23  42  75 107 140 191 249 311 380 461
#     4  12  23  43  73 105 141 191 250 307 375 459
#
# _framework density 24.803961000000001
#
# number of rings (size 3 to 8) (size 9 to 14) (size 15 to 20)
#    0.000    0.000    9.091    0.545    1.273    1.455 
#    6.545    0.000    0.000    0.000    0.000    0.000 
#    0.000    0.000    0.000    0.000    0.000    0.000 
#
# Total GULP energy -122679.696148 kJ/mol
# GULP energy per Si atom -5576.349825 kJ/mol
# Density = 2.474751 g / cm^3
# Si number density = 24.803961 Si / 1000 Ang^3
#
#
#
# Elastic Constant Matrix: (Units=GPa)
#
#
# Indices 1 2 3 4 5 6 
#
# 1 123.9220 32.9016 37.6347 0.0000 0.0000 0.0000
# 2 32.9016 101.1353 51.5020 0.0000 0.0000 0.0000
# 3 37.6347 51.5020 153.6595 0.0000 0.0000 0.0000
# 4 0.0000 0.0000 0.0000 50.0050 0.0000 0.0000
# 5 0.0000 0.0000 0.0000 0.0000 47.3696 0.0000
# 6 0.0000 0.0000 0.0000 0.0000 0.0000 26.8841
#
#
#
# Elastic Compliance Matrix: (Units=1/GPa)
#
#
# Indices 1 2 3 4 5 6 
#
# 1 0.009108 -0.002203 -0.001492 0.000000 0.000000 0.000000
# 2 -0.002203 0.012456 -0.003635 0.000000 0.000000 0.000000
# 3 -0.001492 -0.003635 0.008092 0.000000 0.000000 0.000000
# 4 0.000000 0.000000 0.000000 0.019998 0.000000 0.000000
# 5 0.000000 0.000000 0.000000 0.000000 0.021111 0.000000
# 6 0.000000 0.000000 0.000000 0.000000 0.000000 0.037197
#
#
# Mechanical properties :
#
#
# Convention : Reuss Voigt Hill
#
# Bulk Modulus (GPa) = 66.69273 69.19925 67.94599
# Shear Modulus (GPa) = 39.17902 41.96367 40.57135
#
# Velocity S-wave (km/s) = 3.97866 4.11763 4.04874
# Velocity P-wave (km/s) = 6.93200 7.11094 7.02204
#
# Compressibility (1/GPa) = 0.01499414
#
# Stress axis : x y z
#
# Youngs Moduli (GPa) = 109.79713 80.28520 123.58207
#
# Poissons Ratio (x) = 0.17687 0.18442
# Poissons Ratio (y) = 0.24188 0.44924
# Poissons Ratio (z) = 0.16385 0.29185
#
# Static dielectric constant tensor:
#      x y z
#    x 2.041190 0.000000 0.000000 
#    y 0.000000 0.938360 0.000000 
#    z 0.000000 0.000000 1.967570 
# 
# From -- ./inp_files/21020.got.cif
#   From: 2010.05.17/outbox.cif.g08.bks.cpg/sg43_11_cif.got.tgz:21020.got - 2010.06.03 19:21:55.
