data_PCOD9372757
_publ_section_title
;
Structure prediction by ZEFSAII (Michael W. Deem and Ramdas Pophale) SiO2 
 PCOD9372757
Probable space group: F D D 2
;
_chemical_formula_sum "Si O2"
_cell_formula_units_Z 112
_cell_length_a 15.897648
_cell_length_b 22.969589
_cell_length_c 14.053160
_cell_angle_alpha 90.000000
_cell_angle_beta 90.000000
_cell_angle_gamma 90.000000
_cell_volume 5131.686204
_symmetry_space_group_name_H-M "F D D 2"
_symmetry_group_IT_number 43
_symmetry_cell_setting 'orthorhombic'
loop_
_space_group_symop_operation_xyz
x,y,z
-x,-y,z
1/4-x,1/4+y,1/4+z
1/4+x,1/4-y,1/4+z
x,1/2+y,1/2+z
-x,1/2-y,1/2+z
1/4-x,3/4+y,3/4+z
1/4+x,3/4-y,3/4+z
1/2+x,y,1/2+z
1/2-x,-y,1/2+z
3/4-x,1/4+y,3/4+z
3/4+x,1/4-y,3/4+z
1/2+x,1/2+y,z
1/2-x,1/2-y,z
3/4-x,3/4+y,1/4+z
3/4+x,3/4-y,1/4+z
loop_
_atom_site_type_symbol
_atom_site_label
_atom_site_fract_x
_atom_site_fract_y
_atom_site_fract_z
Si Si1 0.548727 0.555223 0.702330
Si Si2 0.741071 0.576110 0.715947
Si Si3 0.716703 0.031113 0.849150
Si Si4 0.315142 0.704784 0.236530
Si Si5 0.324647 0.031578 0.521459
Si Si6 0.578211 0.355993 0.767917
Si Si7 0.972942 0.608135 0.477266
O O1 0.500000 0.500000 0.749988
O O2 0.640365 0.575860 0.737861
O O3 0.573413 0.532592 0.597828
O O4 0.482828 0.608420 0.697062
O O5 0.775931 0.527505 0.788648
O O6 0.782188 0.639201 0.728643
O O7 0.769639 0.558372 0.608021
O O8 0.648550 0.031358 0.931173
O O9 0.693667 0.082873 0.778443
O O10 0.797815 0.046515 0.912904
O O11 0.250000 0.750000 0.193603
O O12 0.420512 0.055658 0.525923
O O13 0.312013 0.962523 0.526212
O O14 0.551078 0.385096 0.867441
O O15 0.676366 0.358588 0.740283
#
# Coordination Sequence:
#
# PCOD9372757 Si02
#       7
#    16  16  16  16  16  16  16
#     4  11  27  47  73 109 147 192 251 311 378 446
#     4  12  26  46  76 110 147 199 247 311 381 447
#     4  12  25  47  73 108 150 197 250 312 375 447
#     4  11  27  46  73 106 147 193 250 308 373 447
#     4  12  26  47  76 106 155 195 248 314 377 455
#     4  12  28  46  76 107 152 199 253 313 377 453
#     4  12  26  49  71 110 150 200 253 307 377 453
#
# _framework density 21.825185000000001
#
# number of rings (size 3 to 8) (size 9 to 14) (size 15 to 20)
#    0.000    0.286    5.714    2.143    8.000    0.000 
#    2.571    0.000    0.000    0.000    0.000    0.000 
#    0.000    0.000    0.000    0.000    0.000    0.000 
#
# Total GULP energy -156340.449285 kJ/mol
# GULP energy per Si atom -5583.587474 kJ/mol
# Density = 2.177551 g / cm^3
# Si number density = 21.825185 Si / 1000 Ang^3
#
#
#
# Elastic Constant Matrix: (Units=GPa)
#
#
# Indices 1 2 3 4 5 6 
#
# 1 111.5549 17.7803 10.5783 0.0000 0.0000 0.0000
# 2 17.7803 84.0556 -3.7626 0.0000 0.0000 0.0000
# 3 10.5783 -3.7626 85.0527 0.0000 0.0000 0.0000
# 4 0.0000 0.0000 0.0000 38.0127 0.0000 0.0000
# 5 0.0000 0.0000 0.0000 0.0000 16.4297 0.0000
# 6 0.0000 0.0000 0.0000 0.0000 0.0000 31.6949
#
#
#
# Elastic Compliance Matrix: (Units=1/GPa)
#
#
# Indices 1 2 3 4 5 6 
#
# 1 0.009410 -0.002047 -0.001261 0.000000 0.000000 0.000000
# 2 -0.002047 0.012366 0.000802 0.000000 0.000000 0.000000
# 3 -0.001261 0.000802 0.011950 0.000000 0.000000 0.000000
# 4 0.000000 0.000000 0.000000 0.026307 0.000000 0.000000
# 5 0.000000 0.000000 0.000000 0.000000 0.060866 0.000000
# 6 0.000000 0.000000 0.000000 0.000000 0.000000 0.031551
#
#
# Mechanical properties :
#
#
# Convention : Reuss Voigt Hill
#
# Bulk Modulus (GPa) = 34.82740 36.65059 35.73899
# Shear Modulus (GPa) = 29.93433 34.29859 32.11646
#
# Velocity S-wave (km/s) = 3.70746 3.96853 3.84022
# Velocity P-wave (km/s) = 5.85825 6.15047 6.00614
#
# Compressibility (1/GPa) = 0.02871302
#
# Stress axis : x y z
#
# Youngs Moduli (GPa) = 106.26967 80.86847 83.68404
#
# Poissons Ratio (x) = 0.16553 0.10552
# Poissons Ratio (y) = 0.21753 -0.06708
# Poissons Ratio (z) = 0.13400 -0.06483
#
# Static dielectric constant tensor:
#      x y z
#    x 2.199580 0.000000 0.000000 
#    y 0.000000 1.767990 0.000000 
#    z 0.000000 0.000000 1.819080 
# 
# From -- ./inp_files/10177.got.cif
#   From: 2010.05.17/outbox.cif.g08.bks.cpg/sg43_6_cif.got.tgz:10177.got - 2010.06.03 19:21:55.
