data_PCOD9372179
_publ_section_title
;
Structure prediction by ZEFSAII (Michael W. Deem and Ramdas Pophale) SiO2 
 PCOD9372179
Probable space group: F D D 2
;
_chemical_formula_sum "Si O2"
_cell_formula_units_Z 72
_cell_length_a 11.269313
_cell_length_b 25.362641
_cell_length_c 9.241431
_cell_angle_alpha 90.000000
_cell_angle_beta 90.000000
_cell_angle_gamma 90.000000
_cell_volume 2641.381557
_symmetry_space_group_name_H-M "F D D 2"
_symmetry_group_IT_number 43
_symmetry_cell_setting 'orthorhombic'
loop_
_space_group_symop_operation_xyz
x,y,z
-x,-y,z
1/4-x,1/4+y,1/4+z
1/4+x,1/4-y,1/4+z
x,1/2+y,1/2+z
-x,1/2-y,1/2+z
1/4-x,3/4+y,3/4+z
1/4+x,3/4-y,3/4+z
1/2+x,y,1/2+z
1/2-x,-y,1/2+z
3/4-x,1/4+y,3/4+z
3/4+x,1/4-y,3/4+z
1/2+x,1/2+y,z
1/2-x,1/2-y,z
3/4-x,3/4+y,1/4+z
3/4+x,3/4-y,1/4+z
loop_
_atom_site_type_symbol
_atom_site_label
_atom_site_fract_x
_atom_site_fract_y
_atom_site_fract_z
Si Si1 0.250000 0.750000 0.782070
Si Si2 0.637430 0.643248 0.277865
Si Si3 0.565507 0.686424 0.979148
Si Si4 0.959348 0.206001 0.575279
Si Si5 0.809058 0.843834 0.720670
O O1 0.298539 0.805454 0.851139
O O2 0.143530 0.773405 0.682436
O O3 0.564922 0.670799 0.148781
O O4 0.723718 0.607518 0.179259
O O5 0.561711 0.603617 0.379511
O O6 0.519153 0.745286 0.968811
O O7 0.682590 0.681038 0.881946
O O8 0.912725 0.155152 0.493529
O O9 0.083601 0.187709 0.645379
#
# Coordination Sequence:
#
# PCOD9372179 Si02
#       5
#     8  16  16  16  16
#     4  10  24  48  80 114 166 234 282 382 466 522
#     4  11  25  47  78 121 168 228 296 367 453 551
#     4  11  26  48  77 119 169 220 293 377 451 542
#     4  11  27  47  78 116 164 225 284 375 456 542
#     4  12  26  51  80 119 168 229 301 369 463 552
#
# _framework density 27.258462000000002
#
# number of rings (size 3 to 8) (size 9 to 14) (size 15 to 20)
#    0.000    0.889    2.222    2.667    9.333    0.889 
#    4.000    0.000    0.000    0.000    0.000    0.000 
#    0.000    0.000    0.000    0.000    0.000    0.000 
#
# Total GULP energy -100442.189344 kJ/mol
# GULP energy per Si atom -5580.121630 kJ/mol
# Density = 2.719642 g / cm^3
# Si number density = 27.258462 Si / 1000 Ang^3
#
#
#
# Elastic Constant Matrix: (Units=GPa)
#
#
# Indices 1 2 3 4 5 6 
#
# 1 113.6091 16.5111 39.9483 0.0000 0.0000 0.0000
# 2 16.5111 147.0807 3.1868 0.0000 0.0000 0.0000
# 3 39.9483 3.1868 86.3969 0.0000 0.0000 0.0000
# 4 0.0000 0.0000 0.0000 49.5606 0.0000 0.0000
# 5 0.0000 0.0000 0.0000 0.0000 44.2055 0.0000
# 6 0.0000 0.0000 0.0000 0.0000 0.0000 51.8786
#
#
#
# Elastic Compliance Matrix: (Units=1/GPa)
#
#
# Indices 1 2 3 4 5 6 
#
# 1 0.010684 -0.001093 -0.004900 0.000000 0.000000 0.000000
# 2 -0.001093 0.006916 0.000250 0.000000 0.000000 0.000000
# 3 -0.004900 0.000250 0.013831 0.000000 0.000000 0.000000
# 4 0.000000 0.000000 0.000000 0.020177 0.000000 0.000000
# 5 0.000000 0.000000 0.000000 0.000000 0.022622 0.000000
# 6 0.000000 0.000000 0.000000 0.000000 0.000000 0.019276
#
#
# Mechanical properties :
#
#
# Convention : Reuss Voigt Hill
#
# Bulk Modulus (GPa) = 50.13566 51.81988 50.97777
# Shear Modulus (GPa) = 44.78709 48.29164 46.53937
#
# Velocity S-wave (km/s) = 4.05786 4.21363 4.13648
# Velocity P-wave (km/s) = 6.35512 6.53641 6.44641
#
# Compressibility (1/GPa) = 0.01994588
#
# Stress axis : x y z
#
# Youngs Moduli (GPa) = 93.59910 144.58627 72.30249
#
# Poissons Ratio (x) = 0.15806 0.35426
# Poissons Ratio (y) = 0.10232 -0.01810
# Poissons Ratio (z) = 0.45861 -0.03620
#
# Static dielectric constant tensor:
#      x y z
#    x 2.242750 0.000000 0.000000 
#    y 0.000000 2.151770 0.000000 
#    z 0.000000 0.000000 2.356240 
# 
# From -- ./inp_files/5611.got.cif
#   From: 2010.05.17/outbox.cif.g08.bks.cpg/sg43_3_cif.got.tgz:5611.got - 2010.06.03 19:21:55.
