data_PCOD9372409
_publ_section_title
;
Structure prediction by ZEFSAII (Michael W. Deem and Ramdas Pophale) SiO2 
 PCOD9372409
Probable space group: F D D 2
;
_chemical_formula_sum "Si O2"
_cell_formula_units_Z 104
_cell_length_a 9.338029
_cell_length_b 24.985703
_cell_length_c 21.715876
_cell_angle_alpha 90.000000
_cell_angle_beta 90.000000
_cell_angle_gamma 90.000000
_cell_volume 5066.687801
_symmetry_space_group_name_H-M "F D D 2"
_symmetry_group_IT_number 43
_symmetry_cell_setting 'orthorhombic'
loop_
_space_group_symop_operation_xyz
x,y,z
-x,-y,z
1/4-x,1/4+y,1/4+z
1/4+x,1/4-y,1/4+z
x,1/2+y,1/2+z
-x,1/2-y,1/2+z
1/4-x,3/4+y,3/4+z
1/4+x,3/4-y,3/4+z
1/2+x,y,1/2+z
1/2-x,-y,1/2+z
3/4-x,1/4+y,3/4+z
3/4+x,1/4-y,3/4+z
1/2+x,1/2+y,z
1/2-x,1/2-y,z
3/4-x,3/4+y,1/4+z
3/4+x,3/4-y,1/4+z
loop_
_atom_site_type_symbol
_atom_site_label
_atom_site_fract_x
_atom_site_fract_y
_atom_site_fract_z
Si Si1 0.266126 0.917822 0.066410
Si Si2 0.206513 0.417592 0.196886
Si Si3 0.436552 0.057914 0.452556
Si Si4 0.750000 0.750000 0.872079
Si Si5 0.148611 0.976485 0.819137
Si Si6 0.106479 0.452133 0.798878
Si Si7 0.225025 0.692828 0.907788
O O1 0.331071 0.858713 0.066069
O O2 0.138392 0.913662 0.115991
O O3 0.382448 0.963709 0.084834
O O4 0.188297 0.928297 0.001102
O O5 0.189931 0.353589 0.201773
O O6 0.215229 0.439663 0.266436
O O7 0.365787 0.421337 0.168050
O O8 0.094149 0.455906 0.161021
O O9 0.374998 0.052318 0.383560
O O10 0.500000 0.000000 0.468304
O O11 0.245164 0.028478 0.825947
O O12 0.000000 0.000000 0.795531
O O13 0.097910 0.452807 0.724311
O O14 0.000000 0.500000 0.819293
O O15 0.250000 0.750000 0.876537
#
# Coordination Sequence:
#
# PCOD9372409 Si02
#       7
#    16  16  16   8  16  16  16
#     4  12  26  46  69 104 145 180 235 295 360 429
#     4  12  24  46  74 101 136 187 242 293 344 435
#     4  11  28  45  68 103 143 192 228 291 371 419
#     4  12  28  44  70 112 138 184 240 302 358 414
#     4  11  24  46  69 103 137 179 243 286 354 425
#     4  11  23  43  69 102 128 183 241 283 342 420
#     4  11  21  44  72  96 129 184 239 274 340 433
#
# _framework density 20.526230999999999
#
# number of rings (size 3 to 8) (size 9 to 14) (size 15 to 20)
#    0.000    0.615    6.923    0.462    8.615    0.000 
#    4.154    0.000    0.000    0.000    0.000    0.000 
#    0.000    0.000    0.000    0.000    0.000    0.000 
#
# Total GULP energy -145094.412579 kJ/mol
# GULP energy per Si atom -5580.554330 kJ/mol
# Density = 2.047951 g / cm^3
# Si number density = 20.526231 Si / 1000 Ang^3
#
#
#
# Elastic Constant Matrix: (Units=GPa)
#
#
# Indices 1 2 3 4 5 6 
#
# 1 98.1996 57.6882 37.5436 0.0000 0.0000 0.0000
# 2 57.6882 191.5375 49.1416 0.0000 0.0000 0.0000
# 3 37.5436 49.1416 71.4417 0.0000 0.0000 0.0000
# 4 0.0000 0.0000 0.0000 41.1495 0.0000 0.0000
# 5 0.0000 0.0000 0.0000 0.0000 23.5319 0.0000
# 6 0.0000 0.0000 0.0000 0.0000 0.0000 33.5604
#
#
#
# Elastic Compliance Matrix: (Units=1/GPa)
#
#
# Indices 1 2 3 4 5 6 
#
# 1 0.013882 -0.002804 -0.005366 0.000000 0.000000 0.000000
# 2 -0.002804 0.006906 -0.003277 0.000000 0.000000 0.000000
# 3 -0.005366 -0.003277 0.019072 0.000000 0.000000 0.000000
# 4 0.000000 0.000000 0.000000 0.024302 0.000000 0.000000
# 5 0.000000 0.000000 0.000000 0.000000 0.042495 0.000000
# 6 0.000000 0.000000 0.000000 0.000000 0.000000 0.029797
#
#
# Mechanical properties :
#
#
# Convention : Reuss Voigt Hill
#
# Bulk Modulus (GPa) = 58.94457 72.21397 65.57927
# Shear Modulus (GPa) = 30.30221 34.10207 32.20214
#
# Velocity S-wave (km/s) = 3.84639 4.08044 3.96514
# Velocity P-wave (km/s) = 6.96458 7.58008 7.27884
#
# Compressibility (1/GPa) = 0.01696509
#
# Stress axis : x y z
#
# Youngs Moduli (GPa) = 72.03323 144.79654 52.43424
#
# Poissons Ratio (x) = 0.40606 0.28139
# Poissons Ratio (y) = 0.20201 0.17181
# Poissons Ratio (z) = 0.38656 0.47446
#
# Static dielectric constant tensor:
#      x y z
#    x 1.753470 0.000000 0.000000 
#    y 0.000000 1.787760 0.000000 
#    z 0.000000 0.000000 1.719110 
# 
# From -- ./inp_files/16550.got.cif
#   From: 2010.05.17/outbox.cif.g08.bks.cpg/sg43_9_cif.got.tgz:16550.got - 2010.06.03 19:21:55.
