data_PCOD9372979
_publ_section_title
;
Structure prediction by ZEFSAII (Michael W. Deem and Ramdas Pophale) SiO2 
 PCOD9372979
Probable space group: F D D 2
;
_chemical_formula_sum "Si O2"
_cell_formula_units_Z 18
_cell_length_a 21.000000
_cell_length_b 27.000000
_cell_length_c 6.000000
_cell_angle_alpha 90.000000
_cell_angle_beta 90.000000
_cell_angle_gamma 90.000000
_cell_volume 3402.000000
_symmetry_space_group_name_H-M "F D D 2"
_symmetry_group_IT_number 43
_symmetry_cell_setting 'orthorhombic'
loop_
_space_group_symop_operation_xyz
x,y,z
-x,-y,z
1/4-x,1/4+y,1/4+z
1/4+x,1/4-y,1/4+z
x,1/2+y,1/2+z
-x,1/2-y,1/2+z
1/4-x,3/4+y,3/4+z
1/4+x,3/4-y,3/4+z
1/2+x,y,1/2+z
1/2-x,-y,1/2+z
3/4-x,1/4+y,3/4+z
3/4+x,1/4-y,3/4+z
1/2+x,1/2+y,z
1/2-x,1/2-y,z
3/4-x,3/4+y,1/4+z
3/4+x,3/4-y,1/4+z
loop_
_atom_site_type_symbol
_atom_site_label
_atom_site_fract_x
_atom_site_fract_y
_atom_site_fract_z
Si Si1 0.744247 0.837671 0.913590
Si Si2 0.903085 0.054040 0.036228
Si Si3 0.250000 0.250000 0.558865
Si Si4 0.906625 0.145447 0.377787
Si Si5 0.993951 0.275496 0.706950
O O1 0.742129 0.797228 0.717105
O O2 0.667589 0.845998 0.963237
O O3 0.789148 0.881992 0.814707
O O4 0.790820 0.817456 0.108682
O O5 0.898806 0.098827 0.212529
O O6 0.830599 0.044885 0.950572
O O7 0.936010 0.007920 0.164222
O O8 0.945041 0.187707 0.240132
O O9 0.003519 0.252659 0.453721
#
# Coordination Sequence:
#
# PCOD9372979 Si02
#       5
#    16  16   8  16  16
#     4  11  25  44  74  98 149 188 255 302 383 445
#     4  11  26  45  74 109 149 197 255 311 383 457
#     4  10  24  44  68 106 138 196 246 314 372 452
#     4  11  26  46  70 108 148 202 245 315 375 458
#     4  12  30  50  79 112 158 199 259 318 385 450
#
# _framework density 5.2910050000000002
#
# number of rings (size 3 to 8) (size 9 to 14) (size 15 to 20)
#    0.000    0.889    2.222    2.000   18.667    0.000 
#    0.000    0.000    0.000    0.000    0.000    0.000 
#    0.000    0.000    0.000    0.000    0.000    0.000 
#
# Total GULP energy -100257.308294 kJ/mol
# GULP energy per Si atom -5569.850461 kJ/mol
# Density = 0.527896 g / cm^3
# Si number density = 5.291005 Si / 1000 Ang^3
#
#
#
# Elastic Constant Matrix: (Units=GPa)
#
#
# Indices 1 2 3 4 5 6 
#
# 1 237.8732 35.0338 30.8381 0.0458 -0.0455 -0.0261
# 2 35.0338 43.2186 24.1780 0.0329 -0.0295 -0.0182
# 3 30.8381 24.1780 90.5625 0.0731 -0.0582 -0.0339
# 4 0.0458 0.0329 0.0731 29.0609 -0.0389 -0.0229
# 5 -0.0455 -0.0295 -0.0582 -0.0389 47.8691 0.0270
# 6 -0.0261 -0.0182 -0.0339 -0.0229 0.0270 41.1952
#
#
#
# Elastic Compliance Matrix: (Units=1/GPa)
#
#
# Indices 1 2 3 4 5 6 
#
# 1 0.004812 -0.003508 -0.000702 -0.000002 0.000002 0.000001
# 2 -0.003508 0.029758 -0.006750 -0.000011 0.000007 0.000005
# 3 -0.000702 -0.006750 0.013083 -0.000024 0.000011 0.000007
# 4 -0.000002 -0.000011 -0.000024 0.034411 0.000028 0.000019
# 5 0.000002 0.000007 0.000011 0.000028 0.020890 -0.000014
# 6 0.000001 0.000005 0.000007 0.000019 -0.000014 0.024275
#
#
# Mechanical properties :
#
#
# Convention : Reuss Voigt Hill
#
# Bulk Modulus (GPa) = 38.86046 61.30600 50.08323
# Shear Modulus (GPa) = 31.70065 42.39867 37.04966
#
# Velocity S-wave (km/s) = 3.87441 4.48072 4.18855
# Velocity P-wave (km/s) = 6.19808 7.46988 6.86350
#
# Compressibility (1/GPa) = 0.02573310
#
# Stress axis : x y z
#
# Youngs Moduli (GPa) = 207.83452 33.60465 76.43332
#
# Poissons Ratio (x) = 0.11787 0.05365
# Poissons Ratio (y) = 0.72900 0.51594
# Poissons Ratio (z) = 0.14589 0.22684
#
# Static dielectric constant tensor:
#      x y z
#    x 1.745410 0.000000 0.000010 
#    y 0.000000 1.862960 -0.000010 
#    z 0.000010 -0.000010 1.811620 
# 
# From -- ./inp_files/710.got.cif
#   From: 2010.05.17/outbox.ucp.g08.bks.cvg/sg43_1_cif.got.tgz:710.got - 2010.06.11 16:31:01.
