data_PCOD9372300
_publ_section_title
;
Structure prediction by ZEFSAII (Michael W. Deem and Ramdas Pophale) SiO2 
 PCOD9372300
Probable space group: F D D 2
;
_chemical_formula_sum "Si O2"
_cell_formula_units_Z 112
_cell_length_a 12.796929
_cell_length_b 15.166069
_cell_length_c 26.149290
_cell_angle_alpha 90.000000
_cell_angle_beta 90.000000
_cell_angle_gamma 90.000000
_cell_volume 5075.030883
_symmetry_space_group_name_H-M "F D D 2"
_symmetry_group_IT_number 43
_symmetry_cell_setting 'orthorhombic'
loop_
_space_group_symop_operation_xyz
x,y,z
-x,-y,z
1/4-x,1/4+y,1/4+z
1/4+x,1/4-y,1/4+z
x,1/2+y,1/2+z
-x,1/2-y,1/2+z
1/4-x,3/4+y,3/4+z
1/4+x,3/4-y,3/4+z
1/2+x,y,1/2+z
1/2-x,-y,1/2+z
3/4-x,1/4+y,3/4+z
3/4+x,1/4-y,3/4+z
1/2+x,1/2+y,z
1/2-x,1/2-y,z
3/4-x,3/4+y,1/4+z
3/4+x,3/4-y,1/4+z
loop_
_atom_site_type_symbol
_atom_site_label
_atom_site_fract_x
_atom_site_fract_y
_atom_site_fract_z
Si Si1 0.084180 0.073081 0.781560
Si Si2 0.950259 0.196168 0.640708
Si Si3 0.750000 0.250000 0.828227
Si Si4 0.968733 0.395333 0.992554
Si Si5 0.436686 0.652407 0.322905
Si Si6 0.627556 0.594371 0.384598
Si Si7 0.000000 0.500000 0.128260
Si Si8 0.069474 0.271171 0.255590
O O1 0.128036 0.057859 0.839596
O O2 0.180053 0.084052 0.742429
O O3 0.021258 0.162021 0.771489
O O4 0.000000 0.000000 0.769576
O O5 0.907257 0.231869 0.695267
O O6 0.050868 0.257732 0.629485
O O7 0.980060 0.094817 0.653007
O O8 0.691689 0.176931 0.861860
O O9 0.831464 0.204089 0.789911
O O10 0.896696 0.392731 0.943834
O O11 0.000000 0.500000 0.999939
O O12 0.903845 0.358084 0.040191
O O13 0.510870 0.599084 0.360727
O O14 0.362784 0.727593 0.350009
O O15 0.520444 0.683380 0.280028
#
# Coordination Sequence:
#
# PCOD9372300 Si02
#       8
#    16  16   8  16  16  16   8  16
#     4  12  26  43  69 110 148 183 252 310 360 449
#     4  12  25  45  76 110 145 197 252 300 383 448
#     4  10  26  54  70 101 153 202 242 310 382 438
#     4  12  22  46  72 104 147 200 241 308 378 434
#     4  11  21  45  73  96 150 189 244 311 366 431
#     4  11  27  45  73 107 146 198 252 306 373 443
#     4  12  24  44  70 111 145 192 240 312 376 440
#     4  11  23  47  72  97 146 198 237 305 376 428
#
# _framework density 22.068830999999999
#
# number of rings (size 3 to 8) (size 9 to 14) (size 15 to 20)
#    0.000    0.571    6.429    0.857    6.000    0.000 
#    2.571    0.000    0.000    0.000    0.000    0.000 
#    0.000    0.000    0.000    0.000    0.000    0.000 
#
# Total GULP energy -156070.595533 kJ/mol
# GULP energy per Si atom -5573.949840 kJ/mol
# Density = 2.201860 g / cm^3
# Si number density = 22.068831 Si / 1000 Ang^3
#
#
#
# Elastic Constant Matrix: (Units=GPa)
#
#
# Indices 1 2 3 4 5 6 
#
# 1 112.3571 29.5688 31.3401 0.0000 0.0000 0.0000
# 2 29.5688 69.5120 31.7692 0.0000 0.0000 0.0000
# 3 31.3401 31.7692 104.7969 0.0000 0.0000 0.0000
# 4 0.0000 0.0000 0.0000 23.8684 0.0000 0.0000
# 5 0.0000 0.0000 0.0000 0.0000 32.1778 0.0000
# 6 0.0000 0.0000 0.0000 0.0000 0.0000 47.0490
#
#
#
# Elastic Compliance Matrix: (Units=1/GPa)
#
#
# Indices 1 2 3 4 5 6 
#
# 1 0.010389 -0.003482 -0.002051 0.000000 0.000000 0.000000
# 2 -0.003482 0.017867 -0.004375 0.000000 0.000000 0.000000
# 3 -0.002051 -0.004375 0.011482 0.000000 0.000000 0.000000
# 4 0.000000 0.000000 0.000000 0.041896 0.000000 0.000000
# 5 0.000000 0.000000 0.000000 0.000000 0.031077 0.000000
# 6 0.000000 0.000000 0.000000 0.000000 0.000000 0.021254
#
#
# Mechanical properties :
#
#
# Convention : Reuss Voigt Hill
#
# Bulk Modulus (GPa) = 50.19763 52.44692 51.32227
# Shear Modulus (GPa) = 31.16786 33.55156 32.35971
#
# Velocity S-wave (km/s) = 3.76214 3.90335 3.83339
# Velocity P-wave (km/s) = 6.45499 6.64316 6.54975
#
# Compressibility (1/GPa) = 0.01992126
#
# Stress axis : x y z
#
# Youngs Moduli (GPa) = 96.25924 55.97063 87.09260
#
# Poissons Ratio (x) = 0.19486 0.17866
# Poissons Ratio (y) = 0.33513 0.38104
# Poissons Ratio (z) = 0.19746 0.24488
#
# Static dielectric constant tensor:
#      x y z
#    x 1.804730 0.000000 0.000000 
#    y 0.000000 1.829800 0.000000 
#    z 0.000000 0.000000 1.854710 
# 
# From -- ./inp_files/28679.got.cif
#   From: 2010.05.17/outbox.cif.g08.bks.cpg/sg43_15_cif.got.tgz:28679.got - 2010.06.03 19:21:55.
