data_PCOD9372340
_publ_section_title
;
Structure prediction by ZEFSAII (Michael W. Deem and Ramdas Pophale) SiO2 
 PCOD9372340
Probable space group: F D D 2
;
_chemical_formula_sum "Si O2"
_cell_formula_units_Z 112
_cell_length_a 25.738124
_cell_length_b 12.336590
_cell_length_c 15.657664
_cell_angle_alpha 90.000000
_cell_angle_beta 90.000000
_cell_angle_gamma 90.000000
_cell_volume 4971.632170
_symmetry_space_group_name_H-M "F D D 2"
_symmetry_group_IT_number 43
_symmetry_cell_setting 'orthorhombic'
loop_
_space_group_symop_operation_xyz
x,y,z
-x,-y,z
1/4-x,1/4+y,1/4+z
1/4+x,1/4-y,1/4+z
x,1/2+y,1/2+z
-x,1/2-y,1/2+z
1/4-x,3/4+y,3/4+z
1/4+x,3/4-y,3/4+z
1/2+x,y,1/2+z
1/2-x,-y,1/2+z
3/4-x,1/4+y,3/4+z
3/4+x,1/4-y,3/4+z
1/2+x,1/2+y,z
1/2-x,1/2-y,z
3/4-x,3/4+y,1/4+z
3/4+x,3/4-y,1/4+z
loop_
_atom_site_type_symbol
_atom_site_label
_atom_site_fract_x
_atom_site_fract_y
_atom_site_fract_z
Si Si1 0.303090 0.520938 0.614870
Si Si2 0.947994 0.047627 0.304502
Si Si3 0.217170 0.105247 0.982120
Si Si4 0.028160 0.780306 0.551532
Si Si5 0.288093 0.338546 0.362988
Si Si6 0.851982 0.749722 0.095077
Si Si7 0.884117 0.835309 0.262199
O O1 0.329190 0.405615 0.590413
O O2 0.265211 0.564066 0.539685
O O3 0.272685 0.478483 0.699040
O O4 0.339333 0.626852 0.626128
O O5 0.968888 0.088267 0.213549
O O6 0.910117 0.948641 0.285215
O O7 0.000000 0.000000 0.350786
O O8 0.189135 0.208166 0.025424
O O9 0.176737 0.005602 0.994251
O O10 0.225504 0.117967 0.879644
O O11 0.088997 0.744309 0.560523
O O12 0.982318 0.701234 0.580401
O O13 0.250000 0.250000 0.323332
O O14 0.345984 0.308066 0.339190
O O15 0.849403 0.829874 0.176511
#
# Coordination Sequence:
#
# PCOD9372340 Si02
#       7
#    16  16  16  16  16  16  16
#     4  12  24  42  70 100 140 186 233 291 358 427
#     4  11  22  44  67  93 136 180 224 285 352 422
#     4  11  21  43  67 101 141 176 230 303 352 412
#     4  11  23  41  65  97 139 180 231 285 357 410
#     4  11  20  38  65  97 129 173 227 282 339 415
#     4  11  23  41  69 104 134 180 239 299 347 417
#     4  11  22  40  72 103 131 179 237 288 352 415
#
# _framework density 22.527812999999998
#
# number of rings (size 3 to 8) (size 9 to 14) (size 15 to 20)
#    0.000    0.857    2.857    8.143    0.000    1.143 
#    0.000    1.429    0.000    0.000    0.000    0.000 
#    0.000    0.000    0.000    0.000    0.000    0.000 
#
# Total GULP energy -155975.743590 kJ/mol
# GULP energy per Si atom -5570.562271 kJ/mol
# Density = 2.247654 g / cm^3
# Si number density = 22.527813 Si / 1000 Ang^3
#
#
#
# Elastic Constant Matrix: (Units=GPa)
#
#
# Indices 1 2 3 4 5 6 
#
# 1 46.6142 17.6965 -10.7025 0.0000 0.0000 0.0000
# 2 17.6965 134.4487 23.3210 0.0000 0.0000 0.0000
# 3 -10.7025 23.3210 57.7553 0.0000 0.0000 0.0000
# 4 0.0000 0.0000 0.0000 58.9291 0.0000 0.0000
# 5 0.0000 0.0000 0.0000 0.0000 15.4763 0.0000
# 6 0.0000 0.0000 0.0000 0.0000 0.0000 35.1739
#
#
#
# Elastic Compliance Matrix: (Units=1/GPa)
#
#
# Indices 1 2 3 4 5 6 
#
# 1 0.024538 -0.004321 0.006292 0.000000 0.000000 0.000000
# 2 -0.004321 0.008759 -0.004337 0.000000 0.000000 0.000000
# 3 0.006292 -0.004337 0.020232 0.000000 0.000000 0.000000
# 4 0.000000 0.000000 0.000000 0.016970 0.000000 0.000000
# 5 0.000000 0.000000 0.000000 0.000000 0.064615 0.000000
# 6 0.000000 0.000000 0.000000 0.000000 0.000000 0.028430
#
#
# Mechanical properties :
#
#
# Convention : Reuss Voigt Hill
#
# Bulk Modulus (GPa) = 20.49394 33.27203 26.88298
# Shear Modulus (GPa) = 27.09417 35.81607 31.45512
#
# Velocity S-wave (km/s) = 3.47176 3.99163 3.74074
# Velocity P-wave (km/s) = 5.01874 6.00379 5.53323
#
# Compressibility (1/GPa) = 0.04879491
#
# Stress axis : x y z
#
# Youngs Moduli (GPa) = 40.75359 114.16969 49.42724
#
# Poissons Ratio (x) = 0.49334 -0.31099
# Poissons Ratio (y) = 0.17610 0.21439
# Poissons Ratio (z) = -0.25641 0.49521
#
# Static dielectric constant tensor:
#      x y z
#    x 1.826740 0.000000 0.000000 
#    y 0.000000 1.876890 0.000000 
#    z 0.000000 0.000000 1.950620 
# 
# From -- ./inp_files/11674.got.cif
#   From: 2010.05.17/outbox.cif.g08.bks.cpg/sg43_6_cif.got.tgz:11674.got - 2010.06.03 19:21:55.
