data_PCOD9372619
_publ_section_title
;
Structure prediction by ZEFSAII (Michael W. Deem and Ramdas Pophale) SiO2 
 PCOD9372619
Probable space group: F D D 2
;
_chemical_formula_sum "Si O2"
_cell_formula_units_Z 112
_cell_length_a 14.934751
_cell_length_b 26.269547
_cell_length_c 12.341066
_cell_angle_alpha 90.000000
_cell_angle_beta 90.000000
_cell_angle_gamma 90.000000
_cell_volume 4841.759852
_symmetry_space_group_name_H-M "F D D 2"
_symmetry_group_IT_number 43
_symmetry_cell_setting 'orthorhombic'
loop_
_space_group_symop_operation_xyz
x,y,z
-x,-y,z
1/4-x,1/4+y,1/4+z
1/4+x,1/4-y,1/4+z
x,1/2+y,1/2+z
-x,1/2-y,1/2+z
1/4-x,3/4+y,3/4+z
1/4+x,3/4-y,3/4+z
1/2+x,y,1/2+z
1/2-x,-y,1/2+z
3/4-x,1/4+y,3/4+z
3/4+x,1/4-y,3/4+z
1/2+x,1/2+y,z
1/2-x,1/2-y,z
3/4-x,3/4+y,1/4+z
3/4+x,3/4-y,1/4+z
loop_
_atom_site_type_symbol
_atom_site_label
_atom_site_fract_x
_atom_site_fract_y
_atom_site_fract_z
Si Si1 0.393530 0.009911 0.522340
Si Si2 0.818474 0.993321 0.262983
Si Si3 0.276087 0.189435 0.559409
Si Si4 0.131462 0.881898 0.903835
Si Si5 0.439988 0.326656 0.931645
Si Si6 0.615730 0.890562 0.971215
Si Si7 0.971726 0.178539 0.636020
O O1 0.370783 0.064934 0.470023
O O2 0.500000 0.000000 0.511560
O O3 0.365506 0.007429 0.649246
O O4 0.336173 0.965195 0.463302
O O5 0.868136 0.948878 0.331198
O O6 0.719137 0.976577 0.231335
O O7 0.806226 0.039351 0.342391
O O8 0.250000 0.250000 0.551040
O O9 0.289502 0.154798 0.451345
O O10 0.214256 0.159524 0.643281
O O11 0.035439 0.854305 0.911445
O O12 0.145447 0.892139 0.777462
O O13 0.385476 0.321278 0.821982
O O14 0.585560 0.840598 0.035825
O O15 0.716261 0.881873 0.926752
#
# Coordination Sequence:
#
# PCOD9372619 Si02
#       7
#    16  16  16  16  16  16  16
#     4  12  26  46  77 108 148 195 257 314 372 454
#     4  11  24  47  73 106 146 194 246 312 364 448
#     4  11  25  46  76 109 149 198 251 312 372 452
#     4  11  26  44  75 110 144 200 254 306 380 457
#     4  11  24  45  70 105 146 188 244 309 376 443
#     4  12  26  47  72 106 150 199 242 310 384 447
#     4  12  26  50  72 108 153 195 246 310 378 455
#
# _framework density 23.132083999999999
#
# number of rings (size 3 to 8) (size 9 to 14) (size 15 to 20)
#    0.000    0.571    4.286    3.000    8.000    2.286 
#    5.143    0.714    0.000    0.000    0.000    0.000 
#    0.000    0.000    0.000    0.000    0.000    0.000 
#
# Total GULP energy -156085.807582 kJ/mol
# GULP energy per Si atom -5574.493128 kJ/mol
# Density = 2.307943 g / cm^3
# Si number density = 23.132084 Si / 1000 Ang^3
#
#
#
# Elastic Constant Matrix: (Units=GPa)
#
#
# Indices 1 2 3 4 5 6 
#
# 1 104.9041 25.3228 67.7273 0.0000 0.0000 0.0000
# 2 25.3228 62.2231 10.4374 0.0000 0.0000 0.0000
# 3 67.7273 10.4374 112.4034 0.0000 0.0000 0.0000
# 4 0.0000 0.0000 0.0000 26.0795 0.0000 0.0000
# 5 0.0000 0.0000 0.0000 0.0000 43.7713 0.0000
# 6 0.0000 0.0000 0.0000 0.0000 0.0000 36.1222
#
#
#
# Elastic Compliance Matrix: (Units=1/GPa)
#
#
# Indices 1 2 3 4 5 6 
#
# 1 0.017188 -0.005341 -0.009860 0.000000 0.000000 0.000000
# 2 -0.005341 0.017985 0.001548 0.000000 0.000000 0.000000
# 3 -0.009860 0.001548 0.014694 0.000000 0.000000 0.000000
# 4 0.000000 0.000000 0.000000 0.038344 0.000000 0.000000
# 5 0.000000 0.000000 0.000000 0.000000 0.022846 0.000000
# 6 0.000000 0.000000 0.000000 0.000000 0.000000 0.027684
#
#
# Mechanical properties :
#
#
# Convention : Reuss Voigt Hill
#
# Bulk Modulus (GPa) = 44.32521 54.05617 49.19069
# Shear Modulus (GPa) = 28.80730 32.93081 30.86905
#
# Velocity S-wave (km/s) = 3.53277 3.77715 3.65700
# Velocity P-wave (km/s) = 5.98698 6.51473 6.25642
#
# Compressibility (1/GPa) = 0.02256052
#
# Stress axis : x y z
#
# Youngs Moduli (GPa) = 58.18132 55.60164 68.05510
#
# Poissons Ratio (x) = 0.29696 0.67104
# Poissons Ratio (y) = 0.31074 -0.10535
# Poissons Ratio (z) = 0.57368 -0.08607
#
# Static dielectric constant tensor:
#      x y z
#    x 2.031560 0.000000 0.000000 
#    y 0.000000 1.978400 0.000000 
#    z 0.000000 0.000000 1.936130 
# 
# From -- ./inp_files/6316.got.cif
#   From: 2010.05.17/outbox.cif.g08.bks.cpg/sg43_4_cif.got.tgz:6316.got - 2010.06.03 19:21:55.
