data_PCOD9372768
_publ_section_title
;
Structure prediction by ZEFSAII (Michael W. Deem and Ramdas Pophale) SiO2 
 PCOD9372768
Probable space group: F D D 2
;
_chemical_formula_sum "Si O2"
_cell_formula_units_Z 48
_cell_length_a 7.346487
_cell_length_b 7.346486
_cell_length_c 28.439827
_cell_angle_alpha 90.000000
_cell_angle_beta 90.000000
_cell_angle_gamma 90.000000
_cell_volume 1534.922032
_symmetry_space_group_name_H-M "F D D 2"
_symmetry_group_IT_number 43
_symmetry_cell_setting 'orthorhombic'
loop_
_space_group_symop_operation_xyz
x,y,z
-x,-y,z
1/4-x,1/4+y,1/4+z
1/4+x,1/4-y,1/4+z
x,1/2+y,1/2+z
-x,1/2-y,1/2+z
1/4-x,3/4+y,3/4+z
1/4+x,3/4-y,3/4+z
1/2+x,y,1/2+z
1/2-x,-y,1/2+z
3/4-x,1/4+y,3/4+z
3/4+x,1/4-y,3/4+z
1/2+x,1/2+y,z
1/2-x,1/2-y,z
3/4-x,3/4+y,1/4+z
3/4+x,3/4-y,1/4+z
loop_
_atom_site_type_symbol
_atom_site_label
_atom_site_fract_x
_atom_site_fract_y
_atom_site_fract_z
Si Si1 0.962043 0.170974 0.546930
Si Si2 0.920974 0.212043 0.745278
Si Si3 0.948958 0.698958 0.646104
O O1 0.750000 0.250000 0.561057
O O2 0.023673 0.354205 0.515815
O O3 0.854205 0.976327 0.526393
O O4 0.038083 0.179933 0.599751
O O5 0.929933 0.288083 0.692457
O O6 0.000000 0.000000 0.731151
O O7 0.750000 0.750000 0.664866
O O8 0.000000 0.500000 0.627342
#
# Coordination Sequence:
#
# PCOD9372768 Si02
#       3
#    16  16  16
#     4  11  29  51  84 125 174 239 304 387 462 568
#     4  11  29  51  84 125 174 239 304 387 462 568
#     4  12  32  58  94 130 186 258 314 390 482 576
#
# _framework density 31.271947000000001
#
# number of rings (size 3 to 8) (size 9 to 14) (size 15 to 20)
#    0.000    0.667    0.000    2.000   37.333    0.000 
#    0.000    0.000    0.000    0.000    0.000    0.000 
#    0.000    0.000    0.000    0.000    0.000    0.000 
#
# Total GULP energy -66809.614154 kJ/mol
# GULP energy per Si atom -5567.467846 kJ/mol
# Density = 3.120077 g / cm^3
# Si number density = 31.271947 Si / 1000 Ang^3
#
#
#
# Elastic Constant Matrix: (Units=GPa)
#
#
# Indices 1 2 3 4 5 6 
#
# 1 356.6149 62.6652 81.5054 0.0000 0.0000 0.0000
# 2 62.6652 356.6149 81.5052 0.0000 0.0000 0.0000
# 3 81.5054 81.5052 307.5130 0.0000 0.0000 0.0000
# 4 0.0000 0.0000 0.0000 50.2331 0.0000 0.0000
# 5 0.0000 0.0000 0.0000 0.0000 50.2332 0.0000
# 6 0.0000 0.0000 0.0000 0.0000 0.0000 80.9132
#
#
#
# Elastic Compliance Matrix: (Units=1/GPa)
#
#
# Indices 1 2 3 4 5 6 
#
# 1 0.003030 -0.000371 -0.000705 0.000000 0.000000 0.000000
# 2 -0.000371 0.003030 -0.000705 0.000000 0.000000 0.000000
# 3 -0.000705 -0.000705 0.003625 0.000000 0.000000 0.000000
# 4 0.000000 0.000000 0.000000 0.019907 0.000000 0.000000
# 5 0.000000 0.000000 0.000000 0.000000 0.019907 0.000000
# 6 0.000000 0.000000 0.000000 0.000000 0.000000 0.012359
#
#
# Mechanical properties :
#
#
# Convention : Reuss Voigt Hill
#
# Bulk Modulus (GPa) = 163.27871 163.56603 163.42237
# Shear Modulus (GPa) = 74.11446 89.28037 81.69741
#
# Velocity S-wave (km/s) = 4.87354 5.34899 5.11679
# Velocity P-wave (km/s) = 9.16485 9.51666 9.34241
#
# Compressibility (1/GPa) = 0.00612450
#
# Stress axis : x y z
#
# Youngs Moduli (GPa) = 329.97910 329.97920 275.82482
#
# Poissons Ratio (x) = 0.12257 0.19439
# Poissons Ratio (y) = 0.12257 0.19439
# Poissons Ratio (z) = 0.23256 0.23256
#
# Static dielectric constant tensor:
#      x y z
#    x 3.416550 0.000000 0.000000 
#    y 0.000000 3.416570 0.000000 
#    z 0.000000 0.000000 2.385190 
# 
# From -- ./inp_files/27525.got.cif
#   From: 2010.05.17/outbox.cif.g08.bks.cpg/sg43_14_cif.got.tgz:27525.got - 2010.06.03 19:21:55.
