data_PCOD9372566
_publ_section_title
;
Structure prediction by ZEFSAII (Michael W. Deem and Ramdas Pophale) SiO2 
 PCOD9372566
Probable space group: F D D 2
;
_chemical_formula_sum "Si O2"
_cell_formula_units_Z 96
_cell_length_a 23.623965
_cell_length_b 17.577039
_cell_length_c 9.417110
_cell_angle_alpha 90.000000
_cell_angle_beta 90.000000
_cell_angle_gamma 90.000000
_cell_volume 3910.354674
_symmetry_space_group_name_H-M "F D D 2"
_symmetry_group_IT_number 43
_symmetry_cell_setting 'orthorhombic'
loop_
_space_group_symop_operation_xyz
x,y,z
-x,-y,z
1/4-x,1/4+y,1/4+z
1/4+x,1/4-y,1/4+z
x,1/2+y,1/2+z
-x,1/2-y,1/2+z
1/4-x,3/4+y,3/4+z
1/4+x,3/4-y,3/4+z
1/2+x,y,1/2+z
1/2-x,-y,1/2+z
3/4-x,1/4+y,3/4+z
3/4+x,1/4-y,3/4+z
1/2+x,1/2+y,z
1/2-x,1/2-y,z
3/4-x,3/4+y,1/4+z
3/4+x,3/4-y,1/4+z
loop_
_atom_site_type_symbol
_atom_site_label
_atom_site_fract_x
_atom_site_fract_y
_atom_site_fract_z
Si Si1 0.250000 0.250000 0.983230
Si Si2 0.441698 0.143998 0.630211
Si Si3 0.348550 0.844980 0.595409
Si Si4 0.583533 0.071433 0.004766
Si Si5 0.272238 0.032361 0.698311
Si Si6 0.750000 0.250000 0.026102
Si Si7 0.564042 0.775369 0.152829
O O1 0.201044 0.289531 0.888844
O O2 0.285860 0.310536 0.072294
O O3 0.397853 0.114900 0.510332
O O4 0.401093 0.186410 0.743327
O O5 0.475942 0.203697 0.534260
O O6 0.477096 0.073216 0.689882
O O7 0.397518 0.784981 0.572737
O O8 0.353031 0.916506 0.491896
O O9 0.572446 0.161817 0.992677
O O10 0.551187 0.030195 0.874424
O O11 0.277209 0.012938 0.532344
O O12 0.219426 0.070782 0.780015
#
# Coordination Sequence:
#
# PCOD9372566 Si02
#       7
#     8  16  16  16  16   8  16
#     4  11  25  46  66 102 145 183 238 296 362 431
#     4  11  24  42  74 104 138 186 239 296 355 435
#     4  11  25  44  69 104 139 187 237 294 360 429
#     4  11  23  45  69 100 144 181 237 296 363 430
#     4  11  23  45  72 106 142 184 237 297 357 433
#     4  11  25  42  74 106 141 193 244 298 360 439
#     4  11  25  44  74 102 143 188 239 295 360 433
#
# _framework density 24.550203
#
# number of rings (size 3 to 8) (size 9 to 14) (size 15 to 20)
#    0.000    1.000    3.333    2.500    2.333    5.333 
#    3.000    0.000    0.000    0.000    0.000    0.000 
#    0.000    0.000    0.000    0.000    0.000    0.000 
#
# Total GULP energy -134113.924330 kJ/mol
# GULP energy per Si atom -5588.080180 kJ/mol
# Density = 2.449433 g / cm^3
# Si number density = 24.550203 Si / 1000 Ang^3
#
#
#
# Elastic Constant Matrix: (Units=GPa)
#
#
# Indices 1 2 3 4 5 6 
#
# 1 80.2763 6.3233 41.3825 0.0000 0.0000 0.0000
# 2 6.3233 87.5536 29.2803 0.0000 0.0000 0.0000
# 3 41.3825 29.2803 108.5370 0.0000 0.0000 0.0000
# 4 0.0000 0.0000 0.0000 88.0457 0.0000 0.0000
# 5 0.0000 0.0000 0.0000 0.0000 31.5972 0.0000
# 6 0.0000 0.0000 0.0000 0.0000 0.0000 46.0719
#
#
#
# Elastic Compliance Matrix: (Units=1/GPa)
#
#
# Indices 1 2 3 4 5 6 
#
# 1 0.015575 0.000947 -0.006194 0.000000 0.000000 0.000000
# 2 0.000947 0.012612 -0.003763 0.000000 0.000000 0.000000
# 3 -0.006194 -0.003763 0.012590 0.000000 0.000000 0.000000
# 4 0.000000 0.000000 0.000000 0.011358 0.000000 0.000000
# 5 0.000000 0.000000 0.000000 0.000000 0.031648 0.000000
# 6 0.000000 0.000000 0.000000 0.000000 0.000000 0.021705
#
#
# Mechanical properties :
#
#
# Convention : Reuss Voigt Hill
#
# Bulk Modulus (GPa) = 43.94393 47.81544 45.87968
# Shear Modulus (GPa) = 38.14026 46.43500 42.28763
#
# Velocity S-wave (km/s) = 3.94580 4.35378 4.15480
# Velocity P-wave (km/s) = 6.22074 6.69273 6.46105
#
# Compressibility (1/GPa) = 0.02275627
#
# Stress axis : x y z
#
# Youngs Moduli (GPa) = 64.20401 79.29124 79.42677
#
# Poissons Ratio (x) = -0.07505 0.49196
# Poissons Ratio (y) = -0.06077 0.29890
# Poissons Ratio (z) = 0.39767 0.29839
#
# Static dielectric constant tensor:
#      x y z
#    x 1.958840 0.000000 0.000000 
#    y 0.000000 1.895820 0.000000 
#    z 0.000000 0.000000 1.943110 
# 
# From -- ./inp_files/4219.got.cif
#   From: 2010.05.17/outbox.cif.g08.bks.cpg/sg43_3_cif.got.tgz:4219.got - 2010.06.03 19:21:55.
