data_PCOD9372995
_publ_section_title
;
Structure prediction by ZEFSAII (Michael W. Deem and Ramdas Pophale) SiO2 
 PCOD9372995
Probable space group: I M M 2
;
_chemical_formula_sum "Si O2"
_cell_formula_units_Z 56
_cell_length_a 18.950019
_cell_length_b 22.995849
_cell_length_c 5.585204
_cell_angle_alpha 90.000000
_cell_angle_beta 90.000000
_cell_angle_gamma 90.000000
_cell_volume 2433.874263
_symmetry_space_group_name_H-M "I M M 2"
_symmetry_group_IT_number 44
_symmetry_cell_setting 'orthorhombic'
loop_
_space_group_symop_operation_xyz
x,y,z
-x,-y,z
-x,y,z
x,-y,z
1/2+x,1/2+y,1/2+z
1/2-x,1/2-y,1/2+z
1/2-x,1/2+y,1/2+z
1/2+x,1/2-y,1/2+z
loop_
_atom_site_type_symbol
_atom_site_label
_atom_site_fract_x
_atom_site_fract_y
_atom_site_fract_z
Si Si1 0.379257 0.127140 0.043250
Si Si2 0.268097 0.564378 0.543250
Si Si3 0.778105 0.909839 0.543250
Si Si4 0.083133 0.236795 0.543250
Si Si5 0.889157 0.567135 0.043250
Si Si6 0.229211 0.280810 0.043250
Si Si7 0.082612 0.238943 0.043250
O O1 0.295588 0.111227 0.043250
O O2 0.408668 0.098973 0.291220
O O3 0.388422 0.196836 0.043250
O O4 0.408668 0.098973 0.795280
O O5 0.234624 0.500000 0.543250
O O6 0.309476 0.570958 0.295719
O O7 0.309476 0.570958 0.790781
O O8 0.696926 0.933509 0.543250
O O9 0.767796 0.841421 0.543250
O O10 0.097802 0.206626 0.795274
O O11 0.000000 0.245136 0.543250
O O12 0.097802 0.206626 0.291226
O O13 0.913024 0.500000 0.043250
O O14 0.250000 0.250000 0.793250
O O15 0.144227 0.287325 0.043250
O O16 0.000000 0.257566 0.043250
#
# Coordination Sequence:
#
# PCOD9372995 Si02
#       7
#     8   8   8   8   8   8   8
#     4  10  16  25  40  59  84 107 138 194 252 290
#     4  10  17  27  46  68  89 120 168 210 249 309
#     4  10  18  30  45  65  96 130 163 207 259 307
#     4  10  19  31  50  72  91 120 168 219 259 298
#     4  10  18  28  45  64  83 115 162 203 244 307
#     4  12  24  37  53  78 110 141 177 219 269 319
#     4  10  20  36  55  74  97 130 176 221 258 303
#
# _framework density 23.008583000000002
#
# number of rings (size 3 to 8) (size 9 to 14) (size 15 to 20)
#    0.000    1.714    0.000   10.286    0.000    0.000 
#    0.000    0.000    0.000    4.714    0.000    0.000 
#    0.000    1.143    0.000    0.000    0.000   82.857 
#
# Total GULP energy -156137.610523 kJ/mol
# GULP energy per Si atom -5576.343233 kJ/mol
# Density = 2.295621 g / cm^3
# Si number density = 23.008583 Si / 1000 Ang^3
#
#
#
# Elastic Constant Matrix: (Units=GPa)
#
#
# Indices 1 2 3 4 5 6 
#
# 1 85.1683 6.8966 7.7661 0.0000 0.0000 0.0000
# 2 6.8966 67.1966 32.8797 0.0000 0.0000 0.0000
# 3 7.7661 32.8797 309.3579 0.0000 0.0000 0.0000
# 4 0.0000 0.0000 0.0000 31.6299 0.0000 0.0000
# 5 0.0000 0.0000 0.0000 0.0000 11.0561 0.0000
# 6 0.0000 0.0000 0.0000 0.0000 0.0000 3.8066
#
#
#
# Elastic Compliance Matrix: (Units=1/GPa)
#
#
# Indices 1 2 3 4 5 6 
#
# 1 0.011849 -0.001129 -0.000177 0.000000 0.000000 0.000000
# 2 -0.001129 0.015806 -0.001652 0.000000 0.000000 0.000000
# 3 -0.000177 -0.001652 0.003412 0.000000 0.000000 0.000000
# 4 0.000000 0.000000 0.000000 0.031616 0.000000 0.000000
# 5 0.000000 0.000000 0.000000 0.000000 0.090447 0.000000
# 6 0.000000 0.000000 0.000000 0.000000 0.000000 0.262702
#
#
# Mechanical properties :
#
#
# Convention : Reuss Voigt Hill
#
# Bulk Modulus (GPa) = 39.76025 61.86751 50.81388
# Shear Modulus (GPa) = 11.62433 36.91056 24.26745
#
# Velocity S-wave (km/s) = 2.25014 4.00960 3.25116
# Velocity P-wave (km/s) = 4.90602 6.95580 6.01881
#
# Compressibility (1/GPa) = 0.02515075
#
# Stress axis : x y z
#
# Youngs Moduli (GPa) = 84.39476 63.26829 293.04132
#
# Poissons Ratio (x) = 0.07145 0.05200
# Poissons Ratio (y) = 0.09531 0.48397
# Poissons Ratio (z) = 0.01497 0.10449
#
# Static dielectric constant tensor:
#      x y z
#    x 1.869860 0.000000 0.000000 
#    y 0.000000 1.837060 0.000000 
#    z 0.000000 0.000000 2.047000 
# 
# From -- ./inp_files/2449.got.cif
#   From: 2010.05.17/outbox.cif.g08.bks.cpg/sg44_2_cif.got.tgz:2449.got - 2010.06.03 19:37:08.
