data_PCOD9372848
_publ_section_title
;
Structure prediction by ZEFSAII (Michael W. Deem and Ramdas Pophale) SiO2 
 PCOD9372848
Probable space group: F D D 2
;
_chemical_formula_sum "Si O2"
_cell_formula_units_Z 64
_cell_length_a 8.280565
_cell_length_b 12.267089
_cell_length_c 27.347762
_cell_angle_alpha 90.000000
_cell_angle_beta 90.000000
_cell_angle_gamma 90.000000
_cell_volume 2777.942669
_symmetry_space_group_name_H-M "F D D 2"
_symmetry_group_IT_number 43
_symmetry_cell_setting 'orthorhombic'
loop_
_space_group_symop_operation_xyz
x,y,z
-x,-y,z
1/4-x,1/4+y,1/4+z
1/4+x,1/4-y,1/4+z
x,1/2+y,1/2+z
-x,1/2-y,1/2+z
1/4-x,3/4+y,3/4+z
1/4+x,3/4-y,3/4+z
1/2+x,y,1/2+z
1/2-x,-y,1/2+z
3/4-x,1/4+y,3/4+z
3/4+x,1/4-y,3/4+z
1/2+x,1/2+y,z
1/2-x,1/2-y,z
3/4-x,3/4+y,1/4+z
3/4+x,3/4-y,1/4+z
loop_
_atom_site_type_symbol
_atom_site_label
_atom_site_fract_x
_atom_site_fract_y
_atom_site_fract_z
Si Si1 0.437773 0.717541 0.421550
Si Si2 0.500000 0.000000 0.306687
Si Si3 0.671290 0.057335 0.758906
Si Si4 0.527737 0.750582 0.313361
Si Si5 0.500000 0.000000 0.982405
O O1 0.250000 0.750000 0.426386
O O2 0.542001 0.809962 0.450704
O O3 0.475939 0.700041 0.364861
O O4 0.483103 0.605228 0.448327
O O5 0.329713 0.993220 0.277832
O O6 0.475460 0.120370 0.328895
O O7 0.660338 0.167187 0.790450
O O8 0.500000 0.000000 0.766522
O O9 0.401823 0.745417 0.268592
#
# Coordination Sequence:
#
# PCOD9372848 Si02
#       5
#    16   8  16  16   8
#     4  12  27  49  82 121 158 221 270 337 423 486
#     4  12  26  51  76 114 164 216 265 344 406 476
#     4  12  25  49  79 114 158 206 270 333 401 484
#     4  12  26  50  80 115 165 211 274 346 406 491
#     4  12  24  49  78 114 164 212 271 340 412 492
#
# _framework density 23.038633000000001
#
# number of rings (size 3 to 8) (size 9 to 14) (size 15 to 20)
#    0.000    0.000    7.500    0.750    1.750    2.000 
#    9.000    0.000    0.000    0.000    0.000    0.000 
#    0.000    0.000    0.000    0.000    0.000    0.000 
#
# Total GULP energy -89120.479235 kJ/mol
# GULP energy per Si atom -5570.029952 kJ/mol
# Density = 2.298620 g / cm^3
# Si number density = 23.038633 Si / 1000 Ang^3
#
#
#
# Elastic Constant Matrix: (Units=GPa)
#
#
# Indices 1 2 3 4 5 6 
#
# 1 93.7385 41.8127 30.8093 0.0000 0.0000 0.0000
# 2 41.8127 150.6896 81.8587 0.0000 0.0000 0.0000
# 3 30.8093 81.8587 164.7745 0.0000 0.0000 0.0000
# 4 0.0000 0.0000 0.0000 35.2601 0.0000 0.0000
# 5 0.0000 0.0000 0.0000 0.0000 70.8395 0.0000
# 6 0.0000 0.0000 0.0000 0.0000 0.0000 49.2336
#
#
#
# Elastic Compliance Matrix: (Units=1/GPa)
#
#
# Indices 1 2 3 4 5 6 
#
# 1 0.012256 -0.002953 -0.000825 0.000000 0.000000 0.000000
# 2 -0.002953 0.009800 -0.004317 0.000000 0.000000 0.000000
# 3 -0.000825 -0.004317 0.008368 0.000000 0.000000 0.000000
# 4 0.000000 0.000000 0.000000 0.028361 0.000000 0.000000
# 5 0.000000 0.000000 0.000000 0.000000 0.014116 0.000000
# 6 0.000000 0.000000 0.000000 0.000000 0.000000 0.020311
#
#
# Mechanical properties :
#
#
# Convention : Reuss Voigt Hill
#
# Bulk Modulus (GPa) = 70.24526 79.79598 75.02062
# Shear Modulus (GPa) = 43.80349 48.04810 45.92580
#
# Velocity S-wave (km/s) = 4.36513 4.57173 4.46962
# Velocity P-wave (km/s) = 7.48079 7.91066 7.69872
#
# Compressibility (1/GPa) = 0.01423584
#
# Stress axis : x y z
#
# Youngs Moduli (GPa) = 81.59175 102.03657 119.50873
#
# Poissons Ratio (x) = 0.30129 0.09856
# Poissons Ratio (y) = 0.24092 0.51588
# Poissons Ratio (z) = 0.06729 0.44046
#
# Static dielectric constant tensor:
#      x y z
#    x 1.983330 0.000000 0.000000 
#    y 0.000000 1.961310 0.000000 
#    z 0.000000 0.000000 1.843130 
# 
# From -- ./inp_files/27684.got.cif
#   From: 2010.05.17/outbox.cif.g08.bks.cpg/sg43_14_cif.got.tgz:27684.got - 2010.06.03 19:21:55.
