data_PCOD9372330
_publ_section_title
;
Structure prediction by ZEFSAII (Michael W. Deem and Ramdas Pophale) SiO2 
 PCOD9372330
Probable space group: F D D 2
;
_chemical_formula_sum "Si O2"
_cell_formula_units_Z 96
_cell_length_a 19.450566
_cell_length_b 14.220453
_cell_length_c 14.365653
_cell_angle_alpha 90.000000
_cell_angle_beta 90.000000
_cell_angle_gamma 90.000000
_cell_volume 3973.480141
_symmetry_space_group_name_H-M "F D D 2"
_symmetry_group_IT_number 43
_symmetry_cell_setting 'orthorhombic'
loop_
_space_group_symop_operation_xyz
x,y,z
-x,-y,z
1/4-x,1/4+y,1/4+z
1/4+x,1/4-y,1/4+z
x,1/2+y,1/2+z
-x,1/2-y,1/2+z
1/4-x,3/4+y,3/4+z
1/4+x,3/4-y,3/4+z
1/2+x,y,1/2+z
1/2-x,-y,1/2+z
3/4-x,1/4+y,3/4+z
3/4+x,1/4-y,3/4+z
1/2+x,1/2+y,z
1/2-x,1/2-y,z
3/4-x,3/4+y,1/4+z
3/4+x,3/4-y,1/4+z
loop_
_atom_site_type_symbol
_atom_site_label
_atom_site_fract_x
_atom_site_fract_y
_atom_site_fract_z
Si Si1 0.250000 0.750000 0.782920
Si Si2 0.500000 0.000000 0.945358
Si Si3 0.619351 0.940553 0.080320
Si Si4 0.466803 0.662909 0.742717
Si Si5 0.756655 0.042917 0.141628
Si Si6 0.996632 0.295282 0.592712
Si Si7 0.586374 0.000045 0.354833
O O1 0.233736 0.655030 0.839789
O O2 0.188120 0.772943 0.709935
O O3 0.433554 0.013456 0.010698
O O4 0.509049 0.095671 0.889567
O O5 0.575675 0.895244 0.164783
O O6 0.654578 0.844399 0.042781
O O7 0.680141 0.005925 0.115892
O O8 0.445341 0.746509 0.813865
O O9 0.518224 0.724480 0.675912
O O10 0.465195 0.579477 0.819215
O O11 0.768714 0.002521 0.245277
O O12 0.913254 0.293227 0.602186
#
# Coordination Sequence:
#
# PCOD9372330 Si02
#       7
#     8   8  16  16  16  16  16
#     4  12  22  40  78  98 142 180 222 302 334 396
#     4  12  26  46  70 102 150 180 218 298 354 410
#     4  11  23  45  74 103 132 182 246 276 340 416
#     4  11  22  40  72 100 131 181 225 280 344 405
#     4  12  24  47  67 105 144 176 235 291 346 405
#     4  11  22  42  64 108 137 171 234 289 335 407
#     4  11  19  41  73 106 124 176 238 289 324 402
#
# _framework density 24.16018
#
# number of rings (size 3 to 8) (size 9 to 14) (size 15 to 20)
#    0.000    0.667    8.333    1.000    0.000    4.000 
#    0.000    8.333    0.000    0.000    0.000    0.000 
#    0.000    0.000    0.000    0.000    0.000    0.000 
#
# Total GULP energy -133826.841015 kJ/mol
# GULP energy per Si atom -5576.118376 kJ/mol
# Density = 2.410519 g / cm^3
# Si number density = 24.160180 Si / 1000 Ang^3
#
#
#
# Elastic Constant Matrix: (Units=GPa)
#
#
# Indices 1 2 3 4 5 6 
#
# 1 46.6705 21.3531 4.1709 0.0000 0.0000 0.0000
# 2 21.3531 242.2632 52.6339 0.0000 0.0000 0.0000
# 3 4.1709 52.6339 109.7137 0.0000 0.0000 0.0000
# 4 0.0000 0.0000 0.0000 53.4905 0.0000 0.0000
# 5 0.0000 0.0000 0.0000 0.0000 24.7795 0.0000
# 6 0.0000 0.0000 0.0000 0.0000 0.0000 41.6523
#
#
#
# Elastic Compliance Matrix: (Units=1/GPa)
#
#
# Indices 1 2 3 4 5 6 
#
# 1 0.022328 -0.001991 0.000106 0.000000 0.000000 0.000000
# 2 -0.001991 0.004786 -0.002220 0.000000 0.000000 0.000000
# 3 0.000106 -0.002220 0.010176 0.000000 0.000000 0.000000
# 4 0.000000 0.000000 0.000000 0.018695 0.000000 0.000000
# 5 0.000000 0.000000 0.000000 0.000000 0.040356 0.000000
# 6 0.000000 0.000000 0.000000 0.000000 0.000000 0.024008
#
#
# Mechanical properties :
#
#
# Convention : Reuss Voigt Hill
#
# Bulk Modulus (GPa) = 34.38812 61.66258 48.02535
# Shear Modulus (GPa) = 36.16591 45.35042 40.75817
#
# Velocity S-wave (km/s) = 3.87321 4.33722 4.11176
# Velocity P-wave (km/s) = 5.85377 7.11757 6.51638
#
# Compressibility (1/GPa) = 0.02907981
#
# Stress axis : x y z
#
# Youngs Moduli (GPa) = 44.78616 208.96092 98.27362
#
# Poissons Ratio (x) = 0.41607 -0.01045
# Poissons Ratio (y) = 0.08918 0.21818
# Poissons Ratio (z) = -0.00476 0.46392
#
# Static dielectric constant tensor:
#      x y z
#    x 2.146340 0.000000 0.000000 
#    y 0.000000 1.974240 0.000000 
#    z 0.000000 0.000000 2.020660 
# 
# From -- ./inp_files/11249.got.cif
#   From: 2010.05.17/outbox.cif.g08.bks.cpg/sg43_6_cif.got.tgz:11249.got - 2010.06.03 19:21:55.
