data_PCOD9372639
_publ_section_title
;
Structure prediction by ZEFSAII (Michael W. Deem and Ramdas Pophale) SiO2 
 PCOD9372639
Probable space group: F D D 2
;
_chemical_formula_sum "Si O2"
_cell_formula_units_Z 64
_cell_length_a 14.760524
_cell_length_b 11.474342
_cell_length_c 15.535053
_cell_angle_alpha 90.000000
_cell_angle_beta 90.000000
_cell_angle_gamma 90.000000
_cell_volume 2631.129989
_symmetry_space_group_name_H-M "F D D 2"
_symmetry_group_IT_number 43
_symmetry_cell_setting 'orthorhombic'
loop_
_space_group_symop_operation_xyz
x,y,z
-x,-y,z
1/4-x,1/4+y,1/4+z
1/4+x,1/4-y,1/4+z
x,1/2+y,1/2+z
-x,1/2-y,1/2+z
1/4-x,3/4+y,3/4+z
1/4+x,3/4-y,3/4+z
1/2+x,y,1/2+z
1/2-x,-y,1/2+z
3/4-x,1/4+y,3/4+z
3/4+x,1/4-y,3/4+z
1/2+x,1/2+y,z
1/2-x,1/2-y,z
3/4-x,3/4+y,1/4+z
3/4+x,3/4-y,1/4+z
loop_
_atom_site_type_symbol
_atom_site_label
_atom_site_fract_x
_atom_site_fract_y
_atom_site_fract_z
Si Si1 0.101882 0.955576 0.705990
Si Si2 0.347625 0.690234 0.053849
Si Si3 0.354920 0.780042 0.645022
Si Si4 0.978027 0.366667 0.976628
O O1 0.104762 0.849469 0.640313
O O2 0.118923 0.908890 0.803469
O O3 0.181337 0.050251 0.693255
O O4 0.000000 0.000000 0.707763
O O5 0.250000 0.750000 0.046034
O O6 0.360147 0.602999 0.974645
O O7 0.426706 0.786236 0.045509
O O8 0.341973 0.627780 0.146201
O O9 0.250000 0.750000 0.659160
O O10 0.000000 0.500000 0.001967
#
# Coordination Sequence:
#
# PCOD9372639 Si02
#       4
#    16  16  16  16
#     4  11  27  45  75 105 150 197 248 304 370 439
#     4  11  26  44  76 109 151 194 246 305 374 436
#     4  11  24  46  73 107 144 197 248 308 368 441
#     4  11  27  48  72 111 149 197 247 305 371 441
#
# _framework density 24.324148999999998
#
# number of rings (size 3 to 8) (size 9 to 14) (size 15 to 20)
#    0.000    1.000    2.500    1.500   10.500    7.000 
#    0.000    0.000    0.000    0.000    0.000    0.000 
#    0.000    0.000    0.000    0.000    0.000    0.000 
#
# Total GULP energy -89622.426044 kJ/mol
# GULP energy per Si atom -5601.401628 kJ/mol
# Density = 2.426879 g / cm^3
# Si number density = 24.324149 Si / 1000 Ang^3
#
#
#
# Elastic Constant Matrix: (Units=GPa)
#
#
# Indices 1 2 3 4 5 6 
#
# 1 124.4555 38.1749 8.1972 0.0000 0.0000 0.0000
# 2 38.1749 106.3089 8.3863 0.0000 0.0000 0.0000
# 3 8.1972 8.3863 89.9748 0.0000 0.0000 0.0000
# 4 0.0000 0.0000 0.0000 38.2974 0.0000 0.0000
# 5 0.0000 0.0000 0.0000 0.0000 37.5972 0.0000
# 6 0.0000 0.0000 0.0000 0.0000 0.0000 37.2659
#
#
#
# Elastic Compliance Matrix: (Units=1/GPa)
#
#
# Indices 1 2 3 4 5 6 
#
# 1 0.009054 -0.003210 -0.000526 0.000000 0.000000 0.000000
# 2 -0.003210 0.010614 -0.000697 0.000000 0.000000 0.000000
# 3 -0.000526 -0.000697 0.011227 0.000000 0.000000 0.000000
# 4 0.000000 0.000000 0.000000 0.026111 0.000000 0.000000
# 5 0.000000 0.000000 0.000000 0.000000 0.026598 0.000000
# 6 0.000000 0.000000 0.000000 0.000000 0.000000 0.026834
#
#
# Mechanical properties :
#
#
# Convention : Reuss Voigt Hill
#
# Bulk Modulus (GPa) = 45.39147 47.80623 46.59885
# Shear Modulus (GPa) = 39.47975 40.36414 39.92195
#
# Velocity S-wave (km/s) = 4.03310 4.07803 4.05563
# Velocity P-wave (km/s) = 6.35527 6.47072 6.41325
#
# Compressibility (1/GPa) = 0.02203057
#
# Stress axis : x y z
#
# Youngs Moduli (GPa) = 110.44607 94.21381 89.07041
#
# Poissons Ratio (x) = 0.30241 0.04683
# Poissons Ratio (y) = 0.35451 0.06207
# Poissons Ratio (z) = 0.05806 0.06566
#
# Static dielectric constant tensor:
#      x y z
#    x 1.966480 0.000000 0.000000 
#    y 0.000000 1.903510 0.000000 
#    z 0.000000 0.000000 1.956610 
# 
# From -- ./inp_files/9393.got.cif
#   From: 2010.05.17/outbox.cif.g08.bks.cpg/sg43_5_cif.got.tgz:9393.got - 2010.06.03 19:21:55.
