data_PCOD9372205
_publ_section_title
;
Structure prediction by ZEFSAII (Michael W. Deem and Ramdas Pophale) SiO2 
 PCOD9372205
Probable space group: F D D 2
;
_chemical_formula_sum "Si O2"
_cell_formula_units_Z 112
_cell_length_a 13.409096
_cell_length_b 17.254187
_cell_length_c 24.381737
_cell_angle_alpha 90.000000
_cell_angle_beta 90.000000
_cell_angle_gamma 90.000000
_cell_volume 5641.033034
_symmetry_space_group_name_H-M "F D D 2"
_symmetry_group_IT_number 43
_symmetry_cell_setting 'orthorhombic'
loop_
_space_group_symop_operation_xyz
x,y,z
-x,-y,z
1/4-x,1/4+y,1/4+z
1/4+x,1/4-y,1/4+z
x,1/2+y,1/2+z
-x,1/2-y,1/2+z
1/4-x,3/4+y,3/4+z
1/4+x,3/4-y,3/4+z
1/2+x,y,1/2+z
1/2-x,-y,1/2+z
3/4-x,1/4+y,3/4+z
3/4+x,1/4-y,3/4+z
1/2+x,1/2+y,z
1/2-x,1/2-y,z
3/4-x,3/4+y,1/4+z
3/4+x,3/4-y,1/4+z
loop_
_atom_site_type_symbol
_atom_site_label
_atom_site_fract_x
_atom_site_fract_y
_atom_site_fract_z
Si Si1 0.320414 0.962277 0.692110
Si Si2 0.902209 0.551671 0.792872
Si Si3 0.720257 0.423566 0.981119
Si Si4 0.249647 0.535561 0.382921
Si Si5 0.163331 0.689570 0.434492
Si Si6 0.365255 0.735201 0.829466
Si Si7 0.410572 0.056019 0.315896
O O1 0.385627 0.883799 0.704461
O O2 0.204498 0.954117 0.675689
O O3 0.368599 0.011326 0.642307
O O4 0.332778 0.007445 0.749113
O O5 0.845787 0.564370 0.849722
O O6 0.000000 0.500000 0.803356
O O7 0.943582 0.625122 0.760493
O O8 0.764377 0.477981 0.933885
O O9 0.672415 0.472922 0.030464
O O10 0.190174 0.608425 0.406751
O O11 0.185517 0.487221 0.339154
O O12 0.250000 0.750000 0.415952
O O13 0.169975 0.688365 0.500453
O O14 0.250000 0.750000 0.816766
O O15 0.400954 0.645740 0.832934
O O16 0.500000 0.000000 0.336032
#
# Coordination Sequence:
#
# PCOD9372205 Si02
#       7
#    16  16  16  16  16  16  16
#     4  11  23  44  68 100 138 177 228 288 340 402
#     4  10  25  44  66 100 139 181 222 280 344 415
#     4  11  25  41  72 104 134 174 234 279 346 406
#     4  12  24  45  70  98 138 178 228 281 349 404
#     4  11  25  44  67  98 140 182 229 278 341 416
#     4  12  24  39  72 105 134 172 231 289 343 401
#     4  11  23  43  66 101 138 179 221 287 347 402
#
# _framework density 19.854519
#
# number of rings (size 3 to 8) (size 9 to 14) (size 15 to 20)
#    0.000    0.857    4.286    3.000    4.000    0.000 
#    0.000    0.000    0.000    0.000    0.000    0.000 
#    0.000    0.000    0.000    0.000    0.000    0.000 
#
# Total GULP energy -156190.846337 kJ/mol
# GULP energy per Si atom -5578.244512 kJ/mol
# Density = 1.980933 g / cm^3
# Si number density = 19.854519 Si / 1000 Ang^3
#
#
#
# Elastic Constant Matrix: (Units=GPa)
#
#
# Indices 1 2 3 4 5 6 
#
# 1 105.7186 51.1506 48.7700 0.0000 0.0000 0.0000
# 2 51.1506 88.3545 47.6652 0.0000 0.0000 0.0000
# 3 48.7700 47.6652 123.2934 0.0000 0.0000 0.0000
# 4 0.0000 0.0000 0.0000 24.7470 0.0000 0.0000
# 5 0.0000 0.0000 0.0000 0.0000 22.8514 0.0000
# 6 0.0000 0.0000 0.0000 0.0000 0.0000 16.2224
#
#
#
# Elastic Compliance Matrix: (Units=1/GPa)
#
#
# Indices 1 2 3 4 5 6 
#
# 1 0.013984 -0.006458 -0.003035 0.000000 0.000000 0.000000
# 2 -0.006458 0.017283 -0.004127 0.000000 0.000000 0.000000
# 3 -0.003035 -0.004127 0.010907 0.000000 0.000000 0.000000
# 4 0.000000 0.000000 0.000000 0.040409 0.000000 0.000000
# 5 0.000000 0.000000 0.000000 0.000000 0.043761 0.000000
# 6 0.000000 0.000000 0.000000 0.000000 0.000000 0.061643
#
#
# Mechanical properties :
#
#
# Convention : Reuss Voigt Hill
#
# Bulk Modulus (GPa) = 66.96295 68.05977 67.51136
# Shear Modulus (GPa) = 22.70608 24.08287 23.39447
#
# Velocity S-wave (km/s) = 3.38542 3.48655 3.43635
# Velocity P-wave (km/s) = 7.00581 7.11067 7.05844
#
# Compressibility (1/GPa) = 0.01493363
#
# Stress axis : x y z
#
# Youngs Moduli (GPa) = 71.51102 57.85873 91.68736
#
# Poissons Ratio (x) = 0.37368 0.27823
# Poissons Ratio (y) = 0.46185 0.37840
# Poissons Ratio (z) = 0.21701 0.23879
#
# Static dielectric constant tensor:
#      x y z
#    x 1.980470 0.000000 0.000000 
#    y 0.000000 1.693250 0.000000 
#    z 0.000000 0.000000 1.707570 
# 
# From -- ./inp_files/21734.got.cif
#   From: 2010.05.17/outbox.cif.g08.bks.cpg/sg43_11_cif.got.tgz:21734.got - 2010.06.03 19:21:55.
