data_PCOD9372887
_publ_section_title
;
Structure prediction by ZEFSAII (Michael W. Deem and Ramdas Pophale) SiO2 
 PCOD9372887
Probable space group: F D D 2
;
_chemical_formula_sum "Si O2"
_cell_formula_units_Z 88
_cell_length_a 22.894707
_cell_length_b 17.412109
_cell_length_c 9.277428
_cell_angle_alpha 90.000000
_cell_angle_beta 90.000000
_cell_angle_gamma 90.000000
_cell_volume 3698.401526
_symmetry_space_group_name_H-M "F D D 2"
_symmetry_group_IT_number 43
_symmetry_cell_setting 'orthorhombic'
loop_
_space_group_symop_operation_xyz
x,y,z
-x,-y,z
1/4-x,1/4+y,1/4+z
1/4+x,1/4-y,1/4+z
x,1/2+y,1/2+z
-x,1/2-y,1/2+z
1/4-x,3/4+y,3/4+z
1/4+x,3/4-y,3/4+z
1/2+x,y,1/2+z
1/2-x,-y,1/2+z
3/4-x,1/4+y,3/4+z
3/4+x,1/4-y,3/4+z
1/2+x,1/2+y,z
1/2-x,1/2-y,z
3/4-x,3/4+y,1/4+z
3/4+x,3/4-y,1/4+z
loop_
_atom_site_type_symbol
_atom_site_label
_atom_site_fract_x
_atom_site_fract_y
_atom_site_fract_z
Si Si1 0.586179 0.573043 0.218130
Si Si2 0.000000 0.500000 0.487442
Si Si3 0.737596 0.097085 0.100089
Si Si4 0.372360 0.628696 0.505607
Si Si5 0.593373 0.443609 0.805513
Si Si6 0.700805 0.993643 0.845676
O O1 0.551212 0.532057 0.089026
O O2 0.538265 0.589651 0.340394
O O3 0.610536 0.654641 0.162722
O O4 0.642217 0.527142 0.272771
O O5 0.030762 0.438204 0.383627
O O6 0.674257 0.128051 0.139968
O O7 0.756727 0.037295 0.222429
O O8 0.730803 0.057273 0.945246
O O9 0.399083 0.600102 0.655940
O O10 0.354498 0.716994 0.524166
O O11 0.320177 0.575030 0.450710
#
# Coordination Sequence:
#
# PCOD9372887 Si02
#       6
#    16   8  16  16  16  16
#     4  12  26  50  76 112 152 200 257 312 379 464
#     4  12  26  46  82 114 152 204 252 314 398 444
#     4  12  27  46  80 109 152 206 249 319 392 445
#     4  12  27  50  73 115 154 198 256 317 376 457
#     4  12  27  48  77 112 156 198 256 315 375 462
#     4  12  28  49  77 113 155 198 260 316 384 461
#
# _framework density 23.794063999999999
#
# number of rings (size 3 to 8) (size 9 to 14) (size 15 to 20)
#    0.000    0.000    3.636    5.455    5.091    0.000 
#    0.000    0.000    0.000    0.000    0.000    0.000 
#    0.000    0.000    0.000    0.000    0.000    0.000 
#
# Total GULP energy -123373.740935 kJ/mol
# GULP energy per Si atom -5607.897315 kJ/mol
# Density = 2.373991 g / cm^3
# Si number density = 23.794064 Si / 1000 Ang^3
#
#
#
# Elastic Constant Matrix: (Units=GPa)
#
#
# Indices 1 2 3 4 5 6 
#
# 1 94.2705 14.0505 15.1101 0.0000 0.0000 0.0000
# 2 14.0505 68.0904 -4.7541 0.0000 0.0000 0.0000
# 3 15.1101 -4.7541 77.2851 0.0000 0.0000 0.0000
# 4 0.0000 0.0000 0.0000 42.1895 0.0000 0.0000
# 5 0.0000 0.0000 0.0000 0.0000 57.7900 0.0000
# 6 0.0000 0.0000 0.0000 0.0000 0.0000 39.3088
#
#
#
# Elastic Compliance Matrix: (Units=1/GPa)
#
#
# Indices 1 2 3 4 5 6 
#
# 1 0.011363 -0.002511 -0.002376 0.000000 0.000000 0.000000
# 2 -0.002511 0.015304 0.001432 0.000000 0.000000 0.000000
# 3 -0.002376 0.001432 0.013492 0.000000 0.000000 0.000000
# 4 0.000000 0.000000 0.000000 0.023703 0.000000 0.000000
# 5 0.000000 0.000000 0.000000 0.000000 0.017304 0.000000
# 6 0.000000 0.000000 0.000000 0.000000 0.000000 0.025440
#
#
# Mechanical properties :
#
#
# Convention : Reuss Voigt Hill
#
# Bulk Modulus (GPa) = 30.07489 32.05100 31.06294
# Shear Modulus (GPa) = 40.12930 42.20696 41.16813
#
# Velocity S-wave (km/s) = 4.11119 4.21627 4.16406
# Velocity P-wave (km/s) = 5.93321 6.09934 6.01685
#
# Compressibility (1/GPa) = 0.03325033
#
# Stress axis : x y z
#
# Youngs Moduli (GPa) = 88.00650 65.34058 74.11941
#
# Poissons Ratio (x) = 0.16405 0.17611
# Poissons Ratio (y) = 0.22095 -0.10616
# Poissons Ratio (z) = 0.20910 -0.09359
#
# Static dielectric constant tensor:
#      x y z
#    x 1.886170 0.000000 0.000000 
#    y 0.000000 1.887850 0.000000 
#    z 0.000000 0.000000 1.898100 
# 
# From -- ./inp_files/3217.got.cif
#   From: 2010.05.17/outbox.cif.g08.bks.cpg/sg43_2_cif.got.tgz:3217.got - 2010.06.03 19:21:55.
