data_PCOD9372378
_publ_section_title
;
Structure prediction by ZEFSAII (Michael W. Deem and Ramdas Pophale) SiO2 
 PCOD9372378
Probable space group: F D D 2
;
_chemical_formula_sum "Si O2"
_cell_formula_units_Z 64
_cell_length_a 21.649105
_cell_length_b 22.443512
_cell_length_c 4.698153
_cell_angle_alpha 90.000000
_cell_angle_beta 90.000000
_cell_angle_gamma 90.000000
_cell_volume 2282.747731
_symmetry_space_group_name_H-M "F D D 2"
_symmetry_group_IT_number 43
_symmetry_cell_setting 'orthorhombic'
loop_
_space_group_symop_operation_xyz
x,y,z
-x,-y,z
1/4-x,1/4+y,1/4+z
1/4+x,1/4-y,1/4+z
x,1/2+y,1/2+z
-x,1/2-y,1/2+z
1/4-x,3/4+y,3/4+z
1/4+x,3/4-y,3/4+z
1/2+x,y,1/2+z
1/2-x,-y,1/2+z
3/4-x,1/4+y,3/4+z
3/4+x,1/4-y,3/4+z
1/2+x,1/2+y,z
1/2-x,1/2-y,z
3/4-x,3/4+y,1/4+z
3/4+x,3/4-y,1/4+z
loop_
_atom_site_type_symbol
_atom_site_label
_atom_site_fract_x
_atom_site_fract_y
_atom_site_fract_z
Si Si1 0.722028 0.636928 0.475920
Si Si2 0.017486 0.712156 0.080837
Si Si3 0.139373 0.223562 0.217065
Si Si4 0.365792 0.144620 0.304641
O O1 0.733215 0.600556 0.771049
O O2 0.698220 0.703232 0.404616
O O3 0.665528 0.600253 0.317747
O O4 0.792680 0.637871 0.367074
O O5 0.083108 0.710854 0.931274
O O6 0.982993 0.763434 0.897109
O O7 0.135055 0.173134 0.970026
O O8 0.135028 0.292620 0.140139
#
# Coordination Sequence:
#
# PCOD9372378 Si02
#       4
#    16  16  16  16
#     4   9  19  33  62  94 129 176 224 290 348 426
#     4  11  21  40  65  95 131 178 228 281 353 428
#     4   9  18  34  60  90 128 174 221 285 344 421
#     4   9  17  32  59  94 127 176 223 287 347 421
#
# _framework density 28.036390000000001
#
# number of rings (size 3 to 8) (size 9 to 14) (size 15 to 20)
#    1.500    1.000    2.500    0.750    0.000    0.000 
#    0.000    7.500    0.000    0.000    6.500    0.000 
#    0.000    0.000    0.000    0.000    0.000    0.000 
#
# Total GULP energy -89097.077806 kJ/mol
# GULP energy per Si atom -5568.567363 kJ/mol
# Density = 2.797258 g / cm^3
# Si number density = 28.036390 Si / 1000 Ang^3
#
#
#
# Elastic Constant Matrix: (Units=GPa)
#
#
# Indices 1 2 3 4 5 6 
#
# 1 182.1356 51.1950 30.0558 0.0787 -0.0694 -0.0753
# 2 51.1950 251.1187 45.1339 0.1623 -0.0935 -0.1180
# 3 30.0558 45.1339 96.0828 0.2321 -0.1757 -0.1829
# 4 0.0787 0.1623 0.2321 40.3004 -0.0703 -0.1061
# 5 -0.0694 -0.0935 -0.1757 -0.0703 23.8038 0.1168
# 6 -0.0753 -0.1180 -0.1829 -0.1061 0.1168 73.7406
#
#
#
# Elastic Compliance Matrix: (Units=1/GPa)
#
#
# Indices 1 2 3 4 5 6 
#
# 1 0.005997 -0.000967 -0.001422 0.000000 0.000003 0.000001
# 2 -0.000967 0.004505 -0.001814 -0.000006 0.000001 0.000002
# 3 -0.001422 -0.001814 0.011705 -0.000057 0.000075 0.000024
# 4 0.000000 -0.000006 -0.000057 0.024814 0.000073 0.000035
# 5 0.000003 0.000001 0.000075 0.000073 0.042011 -0.000066
# 6 0.000001 0.000002 0.000024 0.000035 -0.000066 0.013561
#
#
# Mechanical properties :
#
#
# Convention : Reuss Voigt Hill
#
# Bulk Modulus (GPa) = 72.45351 86.90072 79.67711
# Shear Modulus (GPa) = 43.25290 54.43246 48.84268
#
# Velocity S-wave (km/s) = 3.93204 4.41102 4.17840
# Velocity P-wave (km/s) = 6.82007 7.55022 7.19441
#
# Compressibility (1/GPa) = 0.01380195
#
# Stress axis : x y z
#
# Youngs Moduli (GPa) = 166.75481 221.95910 85.43554
#
# Poissons Ratio (x) = 0.21465 0.12146
# Poissons Ratio (y) = 0.16126 0.15496
# Poissons Ratio (z) = 0.23706 0.40259
#
# Static dielectric constant tensor:
#      x y z
#    x 2.250080 0.000280 0.000180 
#    y 0.000280 2.272420 -0.000320 
#    z 0.000180 -0.000320 2.185310 
# 
# From -- ./inp_files/859.got.cif
#   From: 2010.05.17/outbox.cif.g08.bks.cpg/sg43_1_cif.got.tgz:859.got - 2010.06.03 19:21:55.
