data_PCOD9372142
_publ_section_title
;
Structure prediction by ZEFSAII (Michael W. Deem and Ramdas Pophale) SiO2 
 PCOD9372142
Probable space group: F D D 2
;
_chemical_formula_sum "Si O2"
_cell_formula_units_Z 88
_cell_length_a 17.329062
_cell_length_b 27.913292
_cell_length_c 7.622398
_cell_angle_alpha 90.000000
_cell_angle_beta 90.000000
_cell_angle_gamma 90.000000
_cell_volume 3687.039037
_symmetry_space_group_name_H-M "F D D 2"
_symmetry_group_IT_number 43
_symmetry_cell_setting 'orthorhombic'
loop_
_space_group_symop_operation_xyz
x,y,z
-x,-y,z
1/4-x,1/4+y,1/4+z
1/4+x,1/4-y,1/4+z
x,1/2+y,1/2+z
-x,1/2-y,1/2+z
1/4-x,3/4+y,3/4+z
1/4+x,3/4-y,3/4+z
1/2+x,y,1/2+z
1/2-x,-y,1/2+z
3/4-x,1/4+y,3/4+z
3/4+x,1/4-y,3/4+z
1/2+x,1/2+y,z
1/2-x,1/2-y,z
3/4-x,3/4+y,1/4+z
3/4+x,3/4-y,1/4+z
loop_
_atom_site_type_symbol
_atom_site_label
_atom_site_fract_x
_atom_site_fract_y
_atom_site_fract_z
Si Si1 0.640277 0.811764 0.017430
Si Si2 0.163505 0.865543 0.884048
Si Si3 0.169948 0.633501 0.969804
Si Si4 0.787037 0.533221 0.240259
Si Si5 0.345429 0.028126 0.869035
Si Si6 0.750000 0.250000 0.318337
O O1 0.647735 0.838037 0.203176
O O2 0.591489 0.762734 0.029599
O O3 0.599050 0.845690 0.873063
O O4 0.723120 0.794530 0.940049
O O5 0.242559 0.847846 0.975579
O O6 0.182564 0.921020 0.842798
O O7 0.095885 0.863536 0.025805
O O8 0.111609 0.677485 0.994945
O O9 0.797789 0.485838 0.782286
O O10 0.795929 0.544900 0.035863
O O11 0.426668 0.011755 0.949244
#
# Coordination Sequence:
#
# PCOD9372142 Si02
#       6
#    16  16  16  16  16   8
#     4  11  26  50  73 109 157 197 253 325 379 456
#     4  12  28  47  77 111 150 204 255 310 392 452
#     4  12  26  48  74 110 148 196 257 310 378 465
#     4  11  25  48  77 111 153 199 249 316 385 454
#     4  11  23  47  78 107 155 191 251 314 382 454
#     4  10  24  46  78 108 154 196 246 328 382 442
#
# _framework density 23.86739
#
# number of rings (size 3 to 8) (size 9 to 14) (size 15 to 20)
#    0.000    0.727    1.818    5.455    7.636    1.455 
#    9.818    0.909    0.000    0.000    0.000    0.000 
#    0.000    0.000    0.000    0.000    0.000    0.000 
#
# Total GULP energy -123305.465295 kJ/mol
# GULP energy per Si atom -5604.793877 kJ/mol
# Density = 2.381307 g / cm^3
# Si number density = 23.867390 Si / 1000 Ang^3
#
#
#
# Elastic Constant Matrix: (Units=GPa)
#
#
# Indices 1 2 3 4 5 6 
#
# 1 74.4862 0.4452 20.1130 0.0000 -0.0003 0.0000
# 2 0.4452 128.1956 33.8570 0.0000 0.0000 0.0000
# 3 20.1130 33.8570 113.6529 0.0001 -0.0005 0.0000
# 4 0.0000 0.0000 0.0001 31.4735 0.0000 0.0000
# 5 -0.0003 0.0000 -0.0005 0.0000 38.5066 0.0000
# 6 0.0000 0.0000 0.0000 0.0000 0.0000 36.9241
#
#
#
# Elastic Compliance Matrix: (Units=1/GPa)
#
#
# Indices 1 2 3 4 5 6 
#
# 1 0.014151 0.000665 -0.002702 0.000000 0.000000 0.000000
# 2 0.000665 0.008498 -0.002649 0.000000 0.000000 0.000000
# 3 -0.002702 -0.002649 0.010066 0.000000 0.000000 0.000000
# 4 0.000000 0.000000 0.000000 0.031773 0.000000 0.000000
# 5 0.000000 0.000000 0.000000 0.000000 0.025970 0.000000
# 6 0.000000 0.000000 0.000000 0.000000 0.000000 0.027083
#
#
# Mechanical properties :
#
#
# Convention : Reuss Voigt Hill
#
# Bulk Modulus (GPa) = 42.84243 47.24057 45.04150
# Shear Modulus (GPa) = 37.12115 38.84213 37.98164
#
# Velocity S-wave (km/s) = 3.94802 4.03850 3.99351
# Velocity P-wave (km/s) = 6.22669 6.44840 6.33851
#
# Compressibility (1/GPa) = 0.02334135
#
# Stress axis : x y z
#
# Youngs Moduli (GPa) = 70.66638 117.67601 99.34336
#
# Poissons Ratio (x) = -0.07820 0.26845
# Poissons Ratio (y) = -0.04696 0.26317
# Poissons Ratio (z) = 0.19096 0.31174
#
# Static dielectric constant tensor:
#      x y z
#    x 1.922060 0.000000 0.000000 
#    y 0.000000 1.917410 0.000000 
#    z 0.000000 0.000000 1.898790 
# 
# From -- ./inp_files/1047.got.cif
#   From: 2010.05.17/outbox.cif.g08.bks.cpg/sg43_1_cif.got.tgz:1047.got - 2010.06.03 19:21:55.
