data_PCOD9372208
_publ_section_title
;
Structure prediction by ZEFSAII (Michael W. Deem and Ramdas Pophale) SiO2 
 PCOD9372208
Probable space group: F D D 2
;
_chemical_formula_sum "Si O2"
_cell_formula_units_Z 104
_cell_length_a 28.126750
_cell_length_b 8.137314
_cell_length_c 19.824245
_cell_angle_alpha 90.000000
_cell_angle_beta 90.000000
_cell_angle_gamma 90.000000
_cell_volume 4537.297795
_symmetry_space_group_name_H-M "F D D 2"
_symmetry_group_IT_number 43
_symmetry_cell_setting 'orthorhombic'
loop_
_space_group_symop_operation_xyz
x,y,z
-x,-y,z
1/4-x,1/4+y,1/4+z
1/4+x,1/4-y,1/4+z
x,1/2+y,1/2+z
-x,1/2-y,1/2+z
1/4-x,3/4+y,3/4+z
1/4+x,3/4-y,3/4+z
1/2+x,y,1/2+z
1/2-x,-y,1/2+z
3/4-x,1/4+y,3/4+z
3/4+x,1/4-y,3/4+z
1/2+x,1/2+y,z
1/2-x,1/2-y,z
3/4-x,3/4+y,1/4+z
3/4+x,3/4-y,1/4+z
loop_
_atom_site_type_symbol
_atom_site_label
_atom_site_fract_x
_atom_site_fract_y
_atom_site_fract_z
Si Si1 0.500000 0.000000 0.048450
Si Si2 0.618064 0.053880 0.788041
Si Si3 0.036087 0.373850 0.721162
Si Si4 0.833374 0.209624 0.487889
Si Si5 0.853149 0.786441 0.850686
Si Si6 0.034658 0.277259 0.325739
Si Si7 0.470201 0.655876 0.981153
O O1 0.453143 0.052289 0.089144
O O2 0.514116 0.163331 0.006898
O O3 0.584150 0.176778 0.828030
O O4 0.666281 0.118933 0.756165
O O5 0.583094 0.981003 0.731296
O O6 0.630921 0.898365 0.833675
O O7 0.055989 0.194122 0.702209
O O8 0.000000 0.500000 0.683811
O O9 0.007475 0.327512 0.790645
O O10 0.861309 0.308925 0.430051
O O11 0.868031 0.143887 0.546671
O O12 0.796468 0.326822 0.524573
O O13 0.024169 0.334616 0.400545
O O14 0.500000 0.500000 0.006354
#
# Coordination Sequence:
#
# PCOD9372208 Si02
#       7
#     8  16  16  16  16  16  16
#     4  10  26  46  72 102 144 194 236 310 378 438
#     4   9  23  43  64  99 136 186 237 303 367 445
#     4   9  20  41  64  97 131 182 237 297 364 446
#     4  11  24  42  69 102 142 183 250 302 382 448
#     4  10  25  44  70  97 139 193 241 305 373 455
#     4  11  24  39  71 102 143 186 245 311 372 462
#     4  11  25  45  73 106 147 190 252 304 381 451
#
# _framework density 22.921133000000001
#
# number of rings (size 3 to 8) (size 9 to 14) (size 15 to 20)
#    0.000    1.846    0.000    1.385   16.154    1.231 
#    0.000    3.077    0.000    0.000    0.000    0.000 
#    0.000    0.000    0.000    0.000    0.000    0.000 
#
# Total GULP energy -145199.989122 kJ/mol
# GULP energy per Si atom -5584.614966 kJ/mol
# Density = 2.286896 g / cm^3
# Si number density = 22.921133 Si / 1000 Ang^3
#
#
#
# Elastic Constant Matrix: (Units=GPa)
#
#
# Indices 1 2 3 4 5 6 
#
# 1 144.5818 44.1140 25.6273 0.0000 0.0000 0.0000
# 2 44.1140 83.1302 18.8773 0.0000 0.0000 0.0000
# 3 25.6273 18.8773 100.5262 0.0000 0.0000 0.0000
# 4 0.0000 0.0000 0.0000 41.9727 0.0000 0.0000
# 5 0.0000 0.0000 0.0000 0.0000 19.3670 0.0000
# 6 0.0000 0.0000 0.0000 0.0000 0.0000 45.7506
#
#
#
# Elastic Compliance Matrix: (Units=1/GPa)
#
#
# Indices 1 2 3 4 5 6 
#
# 1 0.008429 -0.004162 -0.001367 0.000000 0.000000 0.000000
# 2 -0.004162 0.014621 -0.001684 0.000000 0.000000 0.000000
# 3 -0.001367 -0.001684 0.010612 0.000000 0.000000 0.000000
# 4 0.000000 0.000000 0.000000 0.023825 0.000000 0.000000
# 5 0.000000 0.000000 0.000000 0.000000 0.051634 0.000000
# 6 0.000000 0.000000 0.000000 0.000000 0.000000 0.021858
#
#
# Mechanical properties :
#
#
# Convention : Reuss Voigt Hill
#
# Bulk Modulus (GPa) = 51.99108 56.16392 54.07750
# Shear Modulus (GPa) = 32.93417 37.39270 35.16343
#
# Velocity S-wave (km/s) = 3.79469 4.04340 3.92101
# Velocity P-wave (km/s) = 6.47545 6.80845 6.64404
#
# Compressibility (1/GPa) = 0.01923407
#
# Stress axis : x y z
#
# Youngs Moduli (GPa) = 118.64030 68.39643 94.22863
#
# Poissons Ratio (x) = 0.28469 0.12882
# Poissons Ratio (y) = 0.49383 0.15872
# Poissons Ratio (z) = 0.16220 0.11521
#
# Static dielectric constant tensor:
#      x y z
#    x 1.855730 0.000000 0.000000 
#    y 0.000000 1.892750 0.000000 
#    z 0.000000 0.000000 1.848860 
# 
# From -- ./inp_files/18871.got.cif
#   From: 2010.05.17/outbox.cif.g08.bks.cpg/sg43_10_cif.got.tgz:18871.got - 2010.06.03 19:21:55.
