data_PCOD9372888
_publ_section_title
;
Structure prediction by ZEFSAII (Michael W. Deem and Ramdas Pophale) SiO2 
 PCOD9372888
Probable space group: F D D 2
;
_chemical_formula_sum "Si O2"
_cell_formula_units_Z 64
_cell_length_a 15.823126
_cell_length_b 14.560861
_cell_length_c 12.123205
_cell_angle_alpha 90.000000
_cell_angle_beta 90.000000
_cell_angle_gamma 90.000000
_cell_volume 2793.166287
_symmetry_space_group_name_H-M "F D D 2"
_symmetry_group_IT_number 43
_symmetry_cell_setting 'orthorhombic'
loop_
_space_group_symop_operation_xyz
x,y,z
-x,-y,z
1/4-x,1/4+y,1/4+z
1/4+x,1/4-y,1/4+z
x,1/2+y,1/2+z
-x,1/2-y,1/2+z
1/4-x,3/4+y,3/4+z
1/4+x,3/4-y,3/4+z
1/2+x,y,1/2+z
1/2-x,-y,1/2+z
3/4-x,1/4+y,3/4+z
3/4+x,1/4-y,3/4+z
1/2+x,1/2+y,z
1/2-x,1/2-y,z
3/4-x,3/4+y,1/4+z
3/4+x,3/4-y,1/4+z
loop_
_atom_site_type_symbol
_atom_site_label
_atom_site_fract_x
_atom_site_fract_y
_atom_site_fract_z
Si Si1 0.466501 0.400001 0.614770
Si Si2 0.894252 0.940992 0.853530
Si Si3 0.570544 0.439050 0.225596
Si Si4 0.331922 0.134829 0.344846
O O1 0.500000 0.500000 0.580827
O O2 0.545288 0.333599 0.596984
O O3 0.438983 0.408516 0.742445
O O4 0.386871 0.365217 0.545979
O O5 0.894007 0.050897 0.867391
O O6 0.926855 0.894075 0.964269
O O7 0.500000 0.500000 0.291793
O O8 0.611098 0.516994 0.145829
O O9 0.510190 0.374600 0.151389
#
# Coordination Sequence:
#
# PCOD9372888 Si02
#       4
#    16  16  16  16
#     4  12  28  48  75 118 158 198 262 336 399 460
#     4  12  26  47  75 113 150 203 258 331 391 471
#     4   8  24  49  76 106 149 207 258 312 389 478
#     4   9  24  48  77 105 152 205 263 309 397 475
#
# _framework density 22.913065
#
# number of rings (size 3 to 8) (size 9 to 14) (size 15 to 20)
#    1.500    0.000    2.500    0.000    7.000    9.000 
#    0.000    0.000    0.000    0.000    0.000    0.000 
#    0.000    0.000    0.000    0.000    0.000    0.000 
#
# Total GULP energy -89414.969463 kJ/mol
# GULP energy per Si atom -5588.435591 kJ/mol
# Density = 2.286091 g / cm^3
# Si number density = 22.913065 Si / 1000 Ang^3
#
#
#
# Elastic Constant Matrix: (Units=GPa)
#
#
# Indices 1 2 3 4 5 6 
#
# 1 117.5785 -2.0772 43.9082 0.0000 0.0000 0.0000
# 2 -2.0772 14.1746 -14.3578 0.0000 0.0000 0.0000
# 3 43.9082 -14.3578 73.8422 0.0000 0.0000 0.0000
# 4 0.0000 0.0000 0.0000 27.2576 0.0000 0.0000
# 5 0.0000 0.0000 0.0000 0.0000 85.6799 0.0000
# 6 0.0000 0.0000 0.0000 0.0000 0.0000 21.7369
#
#
#
# Elastic Compliance Matrix: (Units=1/GPa)
#
#
# Indices 1 2 3 4 5 6 
#
# 1 0.011389 -0.006464 -0.008029 0.000000 0.000000 0.000000
# 2 -0.006464 0.091519 0.021638 0.000000 0.000000 0.000000
# 3 -0.008029 0.021638 0.022524 0.000000 0.000000 0.000000
# 4 0.000000 0.000000 0.000000 0.036687 0.000000 0.000000
# 5 0.000000 0.000000 0.000000 0.000000 0.011671 0.000000
# 6 0.000000 0.000000 0.000000 0.000000 0.000000 0.046005
#
#
# Mechanical properties :
#
#
# Convention : Reuss Voigt Hill
#
# Bulk Modulus (GPa) = 7.15700 28.94908 18.05304
# Shear Modulus (GPa) = 19.83508 38.80967 29.32237
#
# Velocity S-wave (km/s) = 2.94541 4.12002 3.58120
# Velocity P-wave (km/s) = 3.83375 5.94092 4.99960
#
# Compressibility (1/GPa) = 0.13972339
#
# Stress axis : x y z
#
# Youngs Moduli (GPa) = 87.80337 10.92667 44.39727
#
# Poissons Ratio (x) = 0.07063 0.35647
# Poissons Ratio (y) = 0.56754 -0.96068
# Poissons Ratio (z) = 0.70497 -0.23643
#
# Static dielectric constant tensor:
#      x y z
#    x 1.794500 0.000000 0.000000 
#    y 0.000000 1.932720 0.000000 
#    z 0.000000 0.000000 1.826630 
# 
# From -- ./inp_files/5950.got.cif
#   From: 2010.05.17/outbox.cif.g08.bks.cpg/sg43_3_cif.got.tgz:5950.got - 2010.06.03 19:21:55.
