data_PCOD9372238
_publ_section_title
;
Structure prediction by ZEFSAII (Michael W. Deem and Ramdas Pophale) SiO2 
 PCOD9372238
Probable space group: F D D 2
;
_chemical_formula_sum "Si O2"
_cell_formula_units_Z 88
_cell_length_a 9.407527
_cell_length_b 22.640663
_cell_length_c 17.390847
_cell_angle_alpha 90.000000
_cell_angle_beta 90.000000
_cell_angle_gamma 90.000000
_cell_volume 3704.122562
_symmetry_space_group_name_H-M "F D D 2"
_symmetry_group_IT_number 43
_symmetry_cell_setting 'orthorhombic'
loop_
_space_group_symop_operation_xyz
x,y,z
-x,-y,z
1/4-x,1/4+y,1/4+z
1/4+x,1/4-y,1/4+z
x,1/2+y,1/2+z
-x,1/2-y,1/2+z
1/4-x,3/4+y,3/4+z
1/4+x,3/4-y,3/4+z
1/2+x,y,1/2+z
1/2-x,-y,1/2+z
3/4-x,1/4+y,3/4+z
3/4+x,1/4-y,3/4+z
1/2+x,1/2+y,z
1/2-x,1/2-y,z
3/4-x,3/4+y,1/4+z
3/4+x,3/4-y,1/4+z
loop_
_atom_site_type_symbol
_atom_site_label
_atom_site_fract_x
_atom_site_fract_y
_atom_site_fract_z
Si Si1 0.198864 0.841098 0.111350
Si Si2 0.240952 0.944983 0.996963
Si Si3 0.750000 0.750000 0.155753
Si Si4 0.260816 0.423889 0.823611
Si Si5 0.875225 0.543652 0.094312
Si Si6 0.347859 0.485437 0.214906
O O1 0.215708 0.904665 0.071363
O O2 0.099587 0.833643 0.185352
O O3 0.363318 0.821790 0.121611
O O4 0.131900 0.800867 0.042816
O O5 0.303802 0.007189 0.025226
O O6 0.091380 0.955448 0.956689
O O7 0.863646 0.713445 0.107163
O O8 0.311381 0.356520 0.821508
O O9 0.222524 0.453316 0.742127
O O10 0.756574 0.549520 0.159812
O O11 0.000000 0.500000 0.122738
O O12 0.500000 0.500000 0.177732
#
# Coordination Sequence:
#
# PCOD9372238 Si02
#       6
#    16  16   8  16  16  16
#     4  11  26  51  81 108 159 206 262 330 404 480
#     4  12  29  49  79 117 155 210 264 329 402 474
#     4  12  28  46  78 116 148 204 254 332 380 482
#     4  11  26  50  76 111 157 201 258 327 394 474
#     4  12  28  46  77 114 154 202 263 324 393 482
#     4  10  25  49  75 109 154 205 255 328 402 475
#
# _framework density 23.757313
#
# number of rings (size 3 to 8) (size 9 to 14) (size 15 to 20)
#    0.000    0.727    3.636    1.091   10.182    2.909 
#    0.000    0.000    0.000    0.000    0.000    0.000 
#    0.000    0.000    0.000    0.000    0.000    0.000 
#
# Total GULP energy -123318.742763 kJ/mol
# GULP energy per Si atom -5605.397398 kJ/mol
# Density = 2.370324 g / cm^3
# Si number density = 23.757313 Si / 1000 Ang^3
#
#
#
# Elastic Constant Matrix: (Units=GPa)
#
#
# Indices 1 2 3 4 5 6 
#
# 1 182.9720 52.5477 78.1998 0.0000 0.0000 0.0000
# 2 52.5477 136.8577 56.0121 0.0000 0.0000 0.0000
# 3 78.1998 56.0121 116.8742 0.0000 0.0000 0.0000
# 4 0.0000 0.0000 0.0000 30.3767 0.0000 0.0000
# 5 0.0000 0.0000 0.0000 0.0000 30.5716 0.0000
# 6 0.0000 0.0000 0.0000 0.0000 0.0000 31.8925
#
#
#
# Elastic Compliance Matrix: (Units=1/GPa)
#
#
# Indices 1 2 3 4 5 6 
#
# 1 0.007777 -0.001065 -0.004693 0.000000 0.000000 0.000000
# 2 -0.001065 0.009236 -0.003713 0.000000 0.000000 0.000000
# 3 -0.004693 -0.003713 0.013476 0.000000 0.000000 0.000000
# 4 0.000000 0.000000 0.000000 0.032920 0.000000 0.000000
# 5 0.000000 0.000000 0.000000 0.000000 0.032710 0.000000
# 6 0.000000 0.000000 0.000000 0.000000 0.000000 0.031355
#
#
# Mechanical properties :
#
#
# Convention : Reuss Voigt Hill
#
# Bulk Modulus (GPa) = 86.61640 90.02478 88.32059
# Shear Modulus (GPa) = 33.27436 35.23111 34.25273
#
# Velocity S-wave (km/s) = 3.74651 3.85510 3.80119
# Velocity P-wave (km/s) = 7.43324 7.60207 7.51813
#
# Compressibility (1/GPa) = 0.01154516
#
# Stress axis : x y z
#
# Youngs Moduli (GPa) = 128.58454 108.27547 74.20653
#
# Poissons Ratio (x) = 0.11535 0.34825
# Poissons Ratio (y) = 0.13699 0.27556
# Poissons Ratio (z) = 0.60344 0.40207
#
# Static dielectric constant tensor:
#      x y z
#    x 1.888890 0.000000 0.000000 
#    y 0.000000 1.958310 0.000000 
#    z 0.000000 0.000000 1.900860 
# 
# From -- ./inp_files/16377.got.cif
#   From: 2010.05.17/outbox.cif.g08.bks.cpg/sg43_9_cif.got.tgz:16377.got - 2010.06.03 19:21:55.
