data_PCOD9372292
_publ_section_title
;
Structure prediction by ZEFSAII (Michael W. Deem and Ramdas Pophale) SiO2 
 PCOD9372292
Probable space group: F D D 2
;
_chemical_formula_sum "Si O2"
_cell_formula_units_Z 56
_cell_length_a 33.193236
_cell_length_b 14.412758
_cell_length_c 4.930463
_cell_angle_alpha 90.000000
_cell_angle_beta 90.000000
_cell_angle_gamma 90.000000
_cell_volume 2358.763465
_symmetry_space_group_name_H-M "F D D 2"
_symmetry_group_IT_number 43
_symmetry_cell_setting 'orthorhombic'
loop_
_space_group_symop_operation_xyz
x,y,z
-x,-y,z
1/4-x,1/4+y,1/4+z
1/4+x,1/4-y,1/4+z
x,1/2+y,1/2+z
-x,1/2-y,1/2+z
1/4-x,3/4+y,3/4+z
1/4+x,3/4-y,3/4+z
1/2+x,y,1/2+z
1/2-x,-y,1/2+z
3/4-x,1/4+y,3/4+z
3/4+x,1/4-y,3/4+z
1/2+x,1/2+y,z
1/2-x,1/2-y,z
3/4-x,3/4+y,1/4+z
3/4+x,3/4-y,1/4+z
loop_
_atom_site_type_symbol
_atom_site_label
_atom_site_fract_x
_atom_site_fract_y
_atom_site_fract_z
Si Si1 0.767812 0.548946 0.197070
Si Si2 0.000000 0.000000 0.167035
Si Si3 0.850256 0.115223 0.703096
Si Si4 0.166263 0.761959 0.203606
O O1 0.741546 0.484985 0.396486
O O2 0.755516 0.655604 0.249263
O O3 0.815122 0.542174 0.279012
O O4 0.959934 0.013957 0.344483
O O5 0.830438 0.166560 0.448240
O O6 0.890142 0.069476 0.585056
O O7 0.855796 0.186330 0.951330
#
# Coordination Sequence:
#
# PCOD9372292 Si02
#       4
#    16   8  16  16
#     4  11  25  46  76 106 142 192 245 299 366 437
#     4  10  26  50  76 106 150 192 246 300 366 434
#     4  11  25  47  70 109 143 187 249 293 378 438
#     4  11  25  48  72 106 146 191 241 305 369 435
#
# _framework density 23.741254000000001
#
# number of rings (size 3 to 8) (size 9 to 14) (size 15 to 20)
#    0.000    1.143    0.000    5.143    4.000   10.286 
#    5.143    0.000    0.000    0.000    0.000    0.000 
#    0.000    0.000    0.000    0.000    0.000    0.000 
#
# Total GULP energy -78412.844958 kJ/mol
# GULP energy per Si atom -5600.917497 kJ/mol
# Density = 2.368722 g / cm^3
# Si number density = 23.741254 Si / 1000 Ang^3
#
#
#
# Elastic Constant Matrix: (Units=GPa)
#
#
# Indices 1 2 3 4 5 6 
#
# 1 108.9300 73.5065 33.6479 -0.0001 0.0005 -0.0293
# 2 73.5065 90.7733 32.6641 0.0005 0.0001 -0.0069
# 3 33.6479 32.6641 126.9869 0.0009 0.0001 -0.0307
# 4 -0.0001 0.0005 0.0009 131.7658 -0.0007 -0.0062
# 5 0.0005 0.0001 0.0001 -0.0007 -27.8401 -0.0890
# 6 -0.0293 -0.0069 -0.0307 -0.0062 -0.0890 4067.9659
#
#
#
# Elastic Compliance Matrix: (Units=1/GPa)
#
#
# Indices 1 2 3 4 5 6 
#
# 1 0.020426 -0.016082 -0.001276 0.000000 0.000000 0.000000
# 2 -0.016082 0.024801 -0.002118 0.000000 0.000000 0.000000
# 3 -0.001276 -0.002118 0.008758 0.000000 0.000000 0.000000
# 4 0.000000 0.000000 0.000000 0.007589 0.000000 0.000000
# 5 0.000000 0.000000 0.000000 0.000000 -0.035919 -0.000001
# 6 0.000000 0.000000 0.000000 0.000000 -0.000001 0.000246
#
#
# Mechanical properties :
#
#
# Convention : Reuss Voigt Hill
#
# Bulk Modulus (GPa) = 66.51681 67.36966 66.94324
# Shear Modulus (GPa) = 71.56743 846.83644 459.20193
#
# Velocity S-wave (km/s) = 5.49638 18.90684 13.92262
# Velocity P-wave (km/s) = 8.26792 22.47360 16.93253
#
# Compressibility (1/GPa) = 0.01503379
#
# Stress axis : x y z
#
# Youngs Moduli (GPa) = 48.95640 40.32026 114.18452
#
# Poissons Ratio (x) = 0.64842 0.14567
# Poissons Ratio (y) = 0.78731 0.24188
# Poissons Ratio (z) = 0.06246 0.08541
#
# Static dielectric constant tensor:
#      x y z
#    x 1.950970 0.000000 0.000000 
#    y 0.000000 1.905910 0.000000 
#    z 0.000000 0.000000 1.856430 
# 
# From -- ./inp_files/321.got.cif
#   From: 2010.05.17/outbox.cif.g08.bks.cpg/sg43_1_cif.got.tgz:321.got - 2010.06.03 19:21:55.
