data_PCOD9372078
_publ_section_title
;
Structure prediction by ZEFSAII (Michael W. Deem and Ramdas Pophale) SiO2 
 PCOD9372078
Probable space group: F D D 2
;
_chemical_formula_sum "Si O2"
_cell_formula_units_Z 88
_cell_length_a 12.748756
_cell_length_b 12.374872
_cell_length_c 24.700669
_cell_angle_alpha 90.000000
_cell_angle_beta 90.000000
_cell_angle_gamma 90.000000
_cell_volume 3896.881869
_symmetry_space_group_name_H-M "F D D 2"
_symmetry_group_IT_number 43
_symmetry_cell_setting 'orthorhombic'
loop_
_space_group_symop_operation_xyz
x,y,z
-x,-y,z
1/4-x,1/4+y,1/4+z
1/4+x,1/4-y,1/4+z
x,1/2+y,1/2+z
-x,1/2-y,1/2+z
1/4-x,3/4+y,3/4+z
1/4+x,3/4-y,3/4+z
1/2+x,y,1/2+z
1/2-x,-y,1/2+z
3/4-x,1/4+y,3/4+z
3/4+x,1/4-y,3/4+z
1/2+x,1/2+y,z
1/2-x,1/2-y,z
3/4-x,3/4+y,1/4+z
3/4+x,3/4-y,1/4+z
loop_
_atom_site_type_symbol
_atom_site_label
_atom_site_fract_x
_atom_site_fract_y
_atom_site_fract_z
Si Si1 0.490579 0.738429 0.878580
Si Si2 0.961455 0.216472 0.554353
Si Si3 0.250000 0.250000 0.107111
Si Si4 0.692350 0.862318 0.905454
Si Si5 0.614953 0.962645 0.724049
Si Si6 0.426372 0.773684 0.262241
O O1 0.522193 0.611996 0.888100
O O2 0.571482 0.825881 0.903363
O O3 0.385082 0.759428 0.911449
O O4 0.500584 0.751430 0.813886
O O5 0.853629 0.275157 0.571366
O O6 0.029440 0.194526 0.607902
O O7 0.039077 0.262334 0.509010
O O8 0.914967 0.101236 0.534671
O O9 0.750000 0.750000 0.894903
O O10 0.725884 0.909867 0.962924
O O11 0.616630 0.835801 0.736824
O O12 0.500000 0.000000 0.741131
#
# Coordination Sequence:
#
# PCOD9372078 Si02
#       6
#    16  16   8  16  16  16
#     4  11  25  44  70 108 147 190 245 312 369 432
#     4  11  23  47  75 109 145 189 257 310 361 455
#     4  10  24  44  70 106 158 178 244 316 368 446
#     4  12  22  41  78 104 139 194 255 301 363 449
#     4  12  27  46  70 110 154 194 245 312 377 444
#     4  11  25  45  73 105 145 193 258 299 359 460
#
# _framework density 22.582156999999999
#
# number of rings (size 3 to 8) (size 9 to 14) (size 15 to 20)
#    0.000    0.727    7.273    0.545    7.636    1.455 
#    0.000    0.000    2.000    0.000    0.000    0.000 
#    0.000    0.000    0.000    0.000    0.000    0.000 
#
# Total GULP energy -122848.775943 kJ/mol
# GULP energy per Si atom -5584.035270 kJ/mol
# Density = 2.253076 g / cm^3
# Si number density = 22.582157 Si / 1000 Ang^3
#
#
#
# Elastic Constant Matrix: (Units=GPa)
#
#
# Indices 1 2 3 4 5 6 
#
# 1 110.4845 2.2788 26.5287 0.0000 0.0000 0.0000
# 2 2.2788 39.7598 21.5974 0.0000 0.0000 0.0000
# 3 26.5287 21.5974 150.2449 0.0000 0.0000 0.0000
# 4 0.0000 0.0000 0.0000 29.2931 0.0000 0.0000
# 5 0.0000 0.0000 0.0000 0.0000 37.3966 0.0000
# 6 0.0000 0.0000 0.0000 0.0000 0.0000 24.8124
#
#
#
# Elastic Compliance Matrix: (Units=1/GPa)
#
#
# Indices 1 2 3 4 5 6 
#
# 1 0.009458 0.000396 -0.001727 0.000000 0.000000 0.000000
# 2 0.000396 0.027298 -0.003994 0.000000 0.000000 0.000000
# 3 -0.001727 -0.003994 0.007535 0.000000 0.000000 0.000000
# 4 0.000000 0.000000 0.000000 0.034138 0.000000 0.000000
# 5 0.000000 0.000000 0.000000 0.000000 0.026740 0.000000
# 6 0.000000 0.000000 0.000000 0.000000 0.000000 0.040302
#
#
# Mechanical properties :
#
#
# Convention : Reuss Voigt Hill
#
# Bulk Modulus (GPa) = 29.72605 44.58879 37.15742
# Shear Modulus (GPa) = 29.88039 34.97269 32.42654
#
# Velocity S-wave (km/s) = 3.64151 3.93961 3.79349
# Velocity P-wave (km/s) = 5.55634 6.36255 5.97306
#
# Compressibility (1/GPa) = 0.03364053
#
# Stress axis : x y z
#
# Youngs Moduli (GPa) = 105.73607 36.63299 132.71706
#
# Poissons Ratio (x) = -0.01450 0.22918
# Poissons Ratio (y) = -0.04187 0.53006
# Poissons Ratio (z) = 0.18259 0.14631
#
# Static dielectric constant tensor:
#      x y z
#    x 1.916840 0.000000 0.000000 
#    y 0.000000 1.852620 0.000000 
#    z 0.000000 0.000000 1.864860 
# 
# From -- ./inp_files/21669.got.cif
#   From: 2010.05.17/outbox.cif.g08.bks.cpg/sg43_11_cif.got.tgz:21669.got - 2010.06.03 19:21:55.
