data_PCOD9372211
_publ_section_title
;
Structure prediction by ZEFSAII (Michael W. Deem and Ramdas Pophale) SiO2 
 PCOD9372211
Probable space group: F D D 2
;
_chemical_formula_sum "Si O2"
_cell_formula_units_Z 64
_cell_length_a 14.982799
_cell_length_b 12.484801
_cell_length_c 11.985314
_cell_angle_alpha 90.000000
_cell_angle_beta 90.000000
_cell_angle_gamma 90.000000
_cell_volume 2241.940044
_symmetry_space_group_name_H-M "F D D 2"
_symmetry_group_IT_number 43
_symmetry_cell_setting 'orthorhombic'
loop_
_space_group_symop_operation_xyz
x,y,z
-x,-y,z
1/4-x,1/4+y,1/4+z
1/4+x,1/4-y,1/4+z
x,1/2+y,1/2+z
-x,1/2-y,1/2+z
1/4-x,3/4+y,3/4+z
1/4+x,3/4-y,3/4+z
1/2+x,y,1/2+z
1/2-x,-y,1/2+z
3/4-x,1/4+y,3/4+z
3/4+x,1/4-y,3/4+z
1/2+x,1/2+y,z
1/2-x,1/2-y,z
3/4-x,3/4+y,1/4+z
3/4+x,3/4-y,1/4+z
loop_
_atom_site_type_symbol
_atom_site_label
_atom_site_fract_x
_atom_site_fract_y
_atom_site_fract_z
Si Si1 0.250000 0.250000 0.432130
Si Si2 0.316204 0.518067 0.588319
Si Si3 0.500000 0.000000 0.353749
Si Si4 0.569944 0.152156 0.983611
Si Si5 0.430840 0.285562 0.088042
O O1 0.343646 0.271777 0.492607
O O2 0.265943 0.141882 0.363243
O O3 0.276472 0.632582 0.555530
O O4 0.234762 0.435471 0.621007
O O5 0.388987 0.464277 0.508354
O O6 0.106966 0.712496 0.461497
O O7 0.594142 0.973915 0.413825
O O8 0.499646 0.188218 0.078112
#
# Coordination Sequence:
#
# PCOD9372211 Si02
#       5
#     8  16   8  16  16
#     4  12  23  48  76 109 158 216 268 326 411 500
#     4  10  25  49  73 116 156 207 263 332 403 478
#     4  12  23  48  76 107 154 204 272 322 403 474
#     4  10  26  45  77 114 159 203 271 330 411 472
#     4  10  25  44  75 112 151 211 264 339 392 484
#
# _framework density 28.546703999999998
#
# number of rings (size 3 to 8) (size 9 to 14) (size 15 to 20)
#    1.500    0.000    2.500    0.750    3.500    7.000 
#    4.500    0.000    0.000    0.000    0.000    0.000 
#    0.000    0.000    0.000    0.000    0.000    0.000 
#
# Total GULP energy -89357.483727 kJ/mol
# GULP energy per Si atom -5584.842733 kJ/mol
# Density = 2.848173 g / cm^3
# Si number density = 28.546704 Si / 1000 Ang^3
#
#
#
# Elastic Constant Matrix: (Units=GPa)
#
#
# Indices 1 2 3 4 5 6 
#
# 1 216.8397 91.9062 45.5132 0.0000 0.0000 0.0000
# 2 91.9062 221.3392 48.3577 0.0000 0.0000 0.0000
# 3 45.5132 48.3577 88.2526 0.0000 0.0000 0.0000
# 4 0.0000 0.0000 0.0000 36.2678 0.0000 0.0000
# 5 0.0000 0.0000 0.0000 0.0000 38.7481 0.0000
# 6 0.0000 0.0000 0.0000 0.0000 0.0000 77.3822
#
#
#
# Elastic Compliance Matrix: (Units=1/GPa)
#
#
# Indices 1 2 3 4 5 6 
#
# 1 0.005870 -0.002018 -0.001922 0.000000 0.000000 0.000000
# 2 -0.002018 0.005826 -0.002152 0.000000 0.000000 0.000000
# 3 -0.001922 -0.002152 0.013501 0.000000 0.000000 0.000000
# 4 0.000000 0.000000 0.000000 0.027573 0.000000 0.000000
# 5 0.000000 0.000000 0.000000 0.000000 0.025808 0.000000
# 6 0.000000 0.000000 0.000000 0.000000 0.000000 0.012923
#
#
# Mechanical properties :
#
#
# Convention : Reuss Voigt Hill
#
# Bulk Modulus (GPa) = 76.83450 99.77619 88.30535
# Shear Modulus (GPa) = 46.28721 53.18992 49.73857
#
# Velocity S-wave (km/s) = 4.03110 4.32123 4.17868
# Velocity P-wave (km/s) = 6.97425 7.74114 7.36768
#
# Compressibility (1/GPa) = 0.01301499
#
# Stress axis : x y z
#
# Youngs Moduli (GPa) = 170.35100 171.64954 74.06719
#
# Poissons Ratio (x) = 0.34632 0.14234
# Poissons Ratio (y) = 0.34370 0.15937
# Poissons Ratio (z) = 0.32739 0.36934
#
# Static dielectric constant tensor:
#      x y z
#    x 2.187750 0.000000 0.000000 
#    y 0.000000 2.154230 0.000000 
#    z 0.000000 0.000000 2.271480 
# 
# From -- ./inp_files/13173.got.cif
#   From: 2010.05.17/outbox.cif.g08.bks.cpg/sg43_7_cif.got.tgz:13173.got - 2010.06.03 19:21:55.
