data_PCOD9372629
_publ_section_title
;
Structure prediction by ZEFSAII (Michael W. Deem and Ramdas Pophale) SiO2 
 PCOD9372629
Probable space group: F D D 2
;
_chemical_formula_sum "Si O2"
_cell_formula_units_Z 72
_cell_length_a 11.071103
_cell_length_b 25.184198
_cell_length_c 9.252969
_cell_angle_alpha 90.000000
_cell_angle_beta 90.000000
_cell_angle_gamma 90.000000
_cell_volume 2579.883670
_symmetry_space_group_name_H-M "F D D 2"
_symmetry_group_IT_number 43
_symmetry_cell_setting 'orthorhombic'
loop_
_space_group_symop_operation_xyz
x,y,z
-x,-y,z
1/4-x,1/4+y,1/4+z
1/4+x,1/4-y,1/4+z
x,1/2+y,1/2+z
-x,1/2-y,1/2+z
1/4-x,3/4+y,3/4+z
1/4+x,3/4-y,3/4+z
1/2+x,y,1/2+z
1/2-x,-y,1/2+z
3/4-x,1/4+y,3/4+z
3/4+x,1/4-y,3/4+z
1/2+x,1/2+y,z
1/2-x,1/2-y,z
3/4-x,3/4+y,1/4+z
3/4+x,3/4-y,1/4+z
loop_
_atom_site_type_symbol
_atom_site_label
_atom_site_fract_x
_atom_site_fract_y
_atom_site_fract_z
Si Si1 0.284227 0.671675 0.361520
Si Si2 0.987226 0.424062 0.588493
Si Si3 0.573517 0.807771 0.589615
Si Si4 0.750000 0.250000 0.565655
Si Si5 0.222636 0.443991 0.784099
O O1 0.273381 0.608882 0.381255
O O2 0.309245 0.682695 0.193208
O O3 0.191003 0.709902 0.441515
O O4 0.409929 0.688708 0.435128
O O5 0.992519 0.360108 0.601754
O O6 0.107540 0.440936 0.677681
O O7 0.873110 0.442604 0.678678
O O8 0.521620 0.749552 0.618302
O O9 0.731304 0.297550 0.684350
#
# Coordination Sequence:
#
# PCOD9372629 Si02
#       5
#    16  16  16   8  16
#     4  11  28  42  75 105 143 185 249 290 366 424
#     4  11  24  46  73 104 142 190 241 300 366 420
#     4  11  24  45  78  98 147 191 241 294 364 431
#     4  12  28  44  68 112 146 180 244 308 354 430
#     4  11  24  47  71 101 142 193 236 288 364 427
#
# _framework density 27.908234
#
# number of rings (size 3 to 8) (size 9 to 14) (size 15 to 20)
#    0.000    0.889    2.222    5.333   12.444    3.556 
#    0.000    0.000    0.000    0.000    0.000    0.000 
#    0.000    0.000    0.000    0.000    0.000    0.000 
#
# Total GULP energy -100697.398223 kJ/mol
# GULP energy per Si atom -5594.299901 kJ/mol
# Density = 2.784471 g / cm^3
# Si number density = 27.908234 Si / 1000 Ang^3
#
#
#
# Elastic Constant Matrix: (Units=GPa)
#
#
# Indices 1 2 3 4 5 6 
#
# 1 75.4437 33.2859 1.3479 0.0000 0.0000 0.0000
# 2 33.2859 331.1983 75.1313 0.0000 0.0000 0.0000
# 3 1.3479 75.1313 137.8058 0.0000 0.0000 0.0000
# 4 0.0000 0.0000 0.0000 62.1063 0.0000 0.0000
# 5 0.0000 0.0000 0.0000 0.0000 35.6551 0.0000
# 6 0.0000 0.0000 0.0000 0.0000 0.0000 40.5680
#
#
#
# Elastic Compliance Matrix: (Units=1/GPa)
#
#
# Indices 1 2 3 4 5 6 
#
# 1 0.013932 -0.001562 0.000716 0.000000 0.000000 0.000000
# 2 -0.001562 0.003621 -0.001959 0.000000 0.000000 0.000000
# 3 0.000716 -0.001959 0.008317 0.000000 0.000000 0.000000
# 4 0.000000 0.000000 0.000000 0.016101 0.000000 0.000000
# 5 0.000000 0.000000 0.000000 0.000000 0.028047 0.000000
# 6 0.000000 0.000000 0.000000 0.000000 0.000000 0.024650
#
#
# Mechanical properties :
#
#
# Convention : Reuss Voigt Hill
#
# Bulk Modulus (GPa) = 49.36201 84.88643 67.12422
# Shear Modulus (GPa) = 46.71518 56.64472 51.67995
#
# Velocity S-wave (km/s) = 4.09575 4.51008 4.30790
# Velocity P-wave (km/s) = 6.33187 7.58969 6.98913
#
# Compressibility (1/GPa) = 0.02025850
#
# Stress axis : x y z
#
# Youngs Moduli (GPa) = 71.77977 276.18991 120.22885
#
# Poissons Ratio (x) = 0.43154 -0.08603
# Poissons Ratio (y) = 0.11215 0.23549
# Poissons Ratio (z) = -0.05136 0.54098
#
# Static dielectric constant tensor:
#      x y z
#    x 2.620890 0.000000 0.000000 
#    y 0.000000 2.336010 0.000000 
#    z 0.000000 0.000000 2.134670 
# 
# From -- ./inp_files/5626.got.cif
#   From: 2010.05.17/outbox.cif.g08.bks.cpg/sg43_3_cif.got.tgz:5626.got - 2010.06.03 19:21:55.
