data_PCOD9372321
_publ_section_title
;
Structure prediction by ZEFSAII (Michael W. Deem and Ramdas Pophale) SiO2 
 PCOD9372321
Probable space group: F D D 2
;
_chemical_formula_sum "Si O2"
_cell_formula_units_Z 120
_cell_length_a 35.606051
_cell_length_b 11.176967
_cell_length_c 17.065123
_cell_angle_alpha 90.000000
_cell_angle_beta 90.000000
_cell_angle_gamma 90.000000
_cell_volume 6791.367017
_symmetry_space_group_name_H-M "F D D 2"
_symmetry_group_IT_number 43
_symmetry_cell_setting 'orthorhombic'
loop_
_space_group_symop_operation_xyz
x,y,z
-x,-y,z
1/4-x,1/4+y,1/4+z
1/4+x,1/4-y,1/4+z
x,1/2+y,1/2+z
-x,1/2-y,1/2+z
1/4-x,3/4+y,3/4+z
1/4+x,3/4-y,3/4+z
1/2+x,y,1/2+z
1/2-x,-y,1/2+z
3/4-x,1/4+y,3/4+z
3/4+x,1/4-y,3/4+z
1/2+x,1/2+y,z
1/2-x,1/2-y,z
3/4-x,3/4+y,1/4+z
3/4+x,3/4-y,1/4+z
loop_
_atom_site_type_symbol
_atom_site_label
_atom_site_fract_x
_atom_site_fract_y
_atom_site_fract_z
Si Si1 0.632652 0.499006 0.777510
Si Si2 0.087925 0.870123 0.377317
Si Si3 0.809509 0.088354 0.524989
Si Si4 0.559961 0.346842 0.953684
Si Si5 0.592121 0.629295 0.356564
Si Si6 0.135179 0.993396 0.953156
Si Si7 0.000000 0.500000 0.364308
Si Si8 0.664213 0.493947 0.362919
O O1 0.658742 0.560662 0.712519
O O2 0.597745 0.587806 0.788779
O O3 0.616955 0.375551 0.740705
O O4 0.649769 0.485272 0.864253
O O5 0.064542 0.783468 0.322912
O O6 0.131448 0.893024 0.346856
O O7 0.072431 0.004620 0.377280
O O8 0.776535 0.169762 0.558756
O O9 0.810644 0.053046 0.433695
O O10 0.573620 0.241099 0.897271
O O11 0.592510 0.446482 0.951335
O O12 0.523365 0.410335 0.919948
O O13 0.561584 0.287529 0.039642
O O14 0.594001 0.656650 0.264234
O O15 0.635543 0.604111 0.383858
#
# Coordination Sequence:
#
# PCOD9372321 Si02
#       8
#    16  16  16  16  16  16   8  16
#     4  11  19  31  54  86 121 144 183 241 292 339
#     4   9  19  32  59  89 112 139 188 249 309 326
#     4  11  20  37  56  84 114 157 189 232 286 353
#     4  11  20  37  56  84 114 157 189 232 286 353
#     4   9  19  32  59  89 112 139 188 249 309 326
#     4  11  19  31  54  86 121 144 183 241 292 339
#     4  12  24  36  62  68 126 166 196 210 280 364
#     4   8  20  32  64  81 113 136 192 252 298 320
#
# _framework density 17.66949
#
# number of rings (size 3 to 8) (size 9 to 14) (size 15 to 20)
#    0.800    1.067    4.000    0.800    0.000    0.000 
#    0.000    0.667   17.600    0.000    0.000    0.000 
#    0.000    0.000    0.000    0.000    0.000    0.000 
#
# Total GULP energy -167015.930592 kJ/mol
# GULP energy per Si atom -5567.197686 kJ/mol
# Density = 1.762927 g / cm^3
# Si number density = 17.669490 Si / 1000 Ang^3
#
#
#
# Elastic Constant Matrix: (Units=GPa)
#
#
# Indices 1 2 3 4 5 6 
#
# 1 37.8387 10.9645 24.6624 0.0000 0.0000 0.0000
# 2 10.9645 51.4539 21.2190 0.0000 0.0000 0.0000
# 3 24.6624 21.2190 120.2797 0.0000 0.0000 0.0000
# 4 0.0000 0.0000 0.0000 35.2602 0.0000 0.0000
# 5 0.0000 0.0000 0.0000 0.0000 4.5880 0.0000
# 6 0.0000 0.0000 0.0000 0.0000 0.0000 5.5657
#
#
#
# Elastic Compliance Matrix: (Units=1/GPa)
#
#
# Indices 1 2 3 4 5 6 
#
# 1 0.031382 -0.004350 -0.005667 0.000000 0.000000 0.000000
# 2 -0.004350 0.021563 -0.002912 0.000000 0.000000 0.000000
# 3 -0.005667 -0.002912 0.009990 0.000000 0.000000 0.000000
# 4 0.000000 0.000000 0.000000 0.028361 0.000000 0.000000
# 5 0.000000 0.000000 0.000000 0.000000 0.217958 0.000000
# 6 0.000000 0.000000 0.000000 0.000000 0.000000 0.179672
#
#
# Mechanical properties :
#
#
# Convention : Reuss Voigt Hill
#
# Bulk Modulus (GPa) = 26.97178 35.91823 31.44500
# Shear Modulus (GPa) = 9.48511 19.26454 14.37482
#
# Velocity S-wave (km/s) = 2.31942 3.30551 2.85536
# Velocity P-wave (km/s) = 4.74033 5.91105 5.35776
#
# Compressibility (1/GPa) = 0.03707579
#
# Stress axis : x y z
#
# Youngs Moduli (GPa) = 31.86501 46.37626 100.10313
#
# Poissons Ratio (x) = 0.20175 0.56731
# Poissons Ratio (y) = 0.13862 0.29150
# Poissons Ratio (z) = 0.18059 0.13505
#
# Static dielectric constant tensor:
#      x y z
#    x 1.585380 0.000000 0.000000 
#    y 0.000000 1.621310 0.000000 
#    z 0.000000 0.000000 1.655780 
# 
# From -- ./inp_files/15280.got.cif
#   From: 2010.05.17/outbox.cif.g08.bks.cpg/sg43_8_cif.got.tgz:15280.got - 2010.06.03 19:21:55.
