data_PCOD9372938
_publ_section_title
;
Structure prediction by ZEFSAII (Michael W. Deem and Ramdas Pophale) SiO2 
 PCOD9372938
Probable space group: F D D 2
;
_chemical_formula_sum "Si O2"
_cell_formula_units_Z 40
_cell_length_a 24.299912
_cell_length_b 11.256332
_cell_length_c 5.218552
_cell_angle_alpha 90.000000
_cell_angle_beta 90.000000
_cell_angle_gamma 90.000000
_cell_volume 1427.419450
_symmetry_space_group_name_H-M "F D D 2"
_symmetry_group_IT_number 43
_symmetry_cell_setting 'orthorhombic'
loop_
_space_group_symop_operation_xyz
x,y,z
-x,-y,z
1/4-x,1/4+y,1/4+z
1/4+x,1/4-y,1/4+z
x,1/2+y,1/2+z
-x,1/2-y,1/2+z
1/4-x,3/4+y,3/4+z
1/4+x,3/4-y,3/4+z
1/2+x,y,1/2+z
1/2-x,-y,1/2+z
3/4-x,1/4+y,3/4+z
3/4+x,1/4-y,3/4+z
1/2+x,1/2+y,z
1/2-x,1/2-y,z
3/4-x,3/4+y,1/4+z
3/4+x,3/4-y,1/4+z
loop_
_atom_site_type_symbol
_atom_site_label
_atom_site_fract_x
_atom_site_fract_y
_atom_site_fract_z
Si Si1 0.750000 0.750000 0.403131
Si Si2 0.851929 0.663383 0.067417
Si Si3 0.737077 0.442370 0.255756
O O1 0.801120 0.705149 0.244322
O O2 0.772793 0.849151 0.596193
O O3 0.872818 0.541259 0.217967
O O4 0.822985 0.605658 0.816932
O O5 0.766228 0.461654 0.528536
#
# Coordination Sequence:
#
# PCOD9372938 Si02
#       3
#     8  16  16
#     4  12  30  58 100 136 200 260 322 424 492 604
#     4  12  33  61 101 149 198 263 339 416 514 615
#     4  12  29  57  95 129 191 255 321 408 502 587
#
# _framework density 28.022594999999999
#
# number of rings (size 3 to 8) (size 9 to 14) (size 15 to 20)
#    0.000    0.000    4.000    1.200   16.800    3.200 
#    0.000    4.000    0.000    0.000    0.000    0.000 
#    0.000    0.000    0.000    0.000    0.000    0.000 
#
# Total GULP energy -55761.820166 kJ/mol
# GULP energy per Si atom -5576.182017 kJ/mol
# Density = 2.795881 g / cm^3
# Si number density = 28.022595 Si / 1000 Ang^3
#
#
#
# Elastic Constant Matrix: (Units=GPa)
#
#
# Indices 1 2 3 4 5 6 
#
# 1 115.0390 122.3303 99.5510 0.0000 0.0000 0.0000
# 2 122.3303 239.8796 115.4040 0.0000 0.0000 0.0000
# 3 99.5510 115.4040 227.9945 0.0000 0.0000 0.0000
# 4 0.0000 0.0000 0.0000 77.1814 0.0000 0.0000
# 5 0.0000 0.0000 0.0000 0.0000 51.4587 0.0000
# 6 0.0000 0.0000 0.0000 0.0000 0.0000 78.7381
#
#
#
# Elastic Compliance Matrix: (Units=1/GPa)
#
#
# Indices 1 2 3 4 5 6 
#
# 1 0.023228 -0.009209 -0.005481 0.000000 0.000000 0.000000
# 2 -0.009209 0.009161 -0.000616 0.000000 0.000000 0.000000
# 3 -0.005481 -0.000616 0.007091 0.000000 0.000000 0.000000
# 4 0.000000 0.000000 0.000000 0.012956 0.000000 0.000000
# 5 0.000000 0.000000 0.000000 0.000000 0.019433 0.000000
# 6 0.000000 0.000000 0.000000 0.000000 0.000000 0.012700
#
#
# Mechanical properties :
#
#
# Convention : Reuss Voigt Hill
#
# Bulk Modulus (GPa) = 112.75782 139.72041 126.23911
# Shear Modulus (GPa) = 42.32285 57.85081 50.08683
#
# Velocity S-wave (km/s) = 3.89049 4.54853 4.23232
# Velocity P-wave (km/s) = 7.77861 8.80646 8.30844
#
# Compressibility (1/GPa) = 0.00886856
#
# Stress axis : x y z
#
# Youngs Moduli (GPa) = 43.05103 109.15382 141.01682
#
# Poissons Ratio (x) = 1.00516 0.77294
# Poissons Ratio (y) = 0.39644 0.08692
# Poissons Ratio (z) = 0.23597 0.06728
#
# Static dielectric constant tensor:
#      x y z
#    x 2.274180 0.000000 0.000000 
#    y 0.000000 2.926880 0.000000 
#    z 0.000000 0.000000 2.142000 
# 
# From -- ./inp_files/155.got.cif
#   From: 2010.05.17/outbox.cif.g08.bks.cpg/sg43_1_cif.got.tgz:155.got - 2010.06.03 19:21:55.
