data_PCOD9372293
_publ_section_title
;
Structure prediction by ZEFSAII (Michael W. Deem and Ramdas Pophale) SiO2 
 PCOD9372293
Probable space group: F D D 2
;
_chemical_formula_sum "Si O2"
_cell_formula_units_Z 64
_cell_length_a 14.066625
_cell_length_b 11.209025
_cell_length_c 17.302266
_cell_angle_alpha 90.000000
_cell_angle_beta 90.000000
_cell_angle_gamma 90.000000
_cell_volume 2728.102805
_symmetry_space_group_name_H-M "F D D 2"
_symmetry_group_IT_number 43
_symmetry_cell_setting 'orthorhombic'
loop_
_space_group_symop_operation_xyz
x,y,z
-x,-y,z
1/4-x,1/4+y,1/4+z
1/4+x,1/4-y,1/4+z
x,1/2+y,1/2+z
-x,1/2-y,1/2+z
1/4-x,3/4+y,3/4+z
1/4+x,3/4-y,3/4+z
1/2+x,y,1/2+z
1/2-x,-y,1/2+z
3/4-x,1/4+y,3/4+z
3/4+x,1/4-y,3/4+z
1/2+x,1/2+y,z
1/2-x,1/2-y,z
3/4-x,3/4+y,1/4+z
3/4+x,3/4-y,1/4+z
loop_
_atom_site_type_symbol
_atom_site_label
_atom_site_fract_x
_atom_site_fract_y
_atom_site_fract_z
Si Si1 0.347566 0.796056 0.579030
Si Si2 0.712255 0.577195 0.413343
Si Si3 0.796577 0.052750 0.067728
Si Si4 0.320398 0.862479 0.207138
O O1 0.250000 0.750000 0.615729
O O2 0.430062 0.828276 0.636973
O O3 0.391925 0.694048 0.525428
O O4 0.319162 0.920019 0.538109
O O5 0.728641 0.615086 0.503365
O O6 0.646009 0.643896 0.350248
O O7 0.660587 0.449918 0.417734
O O8 0.734735 0.055911 0.145963
O O9 0.250000 0.750000 0.227306
#
# Coordination Sequence:
#
# PCOD9372293 Si02
#       4
#    16  16  16  16
#     4  12  27  44  76 112 151 193 258 325 384 467
#     4  11  27  48  77 108 159 202 263 320 398 476
#     4  11  27  49  77 114 148 209 258 330 395 467
#     4  10  26  50  77 107 153 205 256 315 399 472
#
# _framework density 23.459527999999999
#
# number of rings (size 3 to 8) (size 9 to 14) (size 15 to 20)
#    0.000    1.000    2.500    0.750   14.000    4.000 
#    0.000    0.000    0.000    0.000    0.000    0.000 
#    0.000    0.000    0.000    0.000    0.000    0.000 
#
# Total GULP energy -89250.278065 kJ/mol
# GULP energy per Si atom -5578.142379 kJ/mol
# Density = 2.340613 g / cm^3
# Si number density = 23.459528 Si / 1000 Ang^3
#
#
#
# Elastic Constant Matrix: (Units=GPa)
#
#
# Indices 1 2 3 4 5 6 
#
# 1 126.1391 -16.0159 28.2506 0.0000 0.0000 0.0000
# 2 -16.0159 84.9227 1.2449 0.0000 0.0000 0.0000
# 3 28.2506 1.2449 29.4679 0.0000 0.0000 0.0000
# 4 0.0000 0.0000 0.0000 14.7099 0.0000 0.0000
# 5 0.0000 0.0000 0.0000 0.0000 51.0539 0.0000
# 6 0.0000 0.0000 0.0000 0.0000 0.0000 21.3120
#
#
#
# Elastic Compliance Matrix: (Units=1/GPa)
#
#
# Indices 1 2 3 4 5 6 
#
# 1 0.010464 0.002122 -0.010121 0.000000 0.000000 0.000000
# 2 0.002122 0.012213 -0.002550 0.000000 0.000000 0.000000
# 3 -0.010121 -0.002550 0.043746 0.000000 0.000000 0.000000
# 4 0.000000 0.000000 0.000000 0.067982 0.000000 0.000000
# 5 0.000000 0.000000 0.000000 0.000000 0.019587 0.000000
# 6 0.000000 0.000000 0.000000 0.000000 0.000000 0.046922
#
#
# Mechanical properties :
#
#
# Convention : Reuss Voigt Hill
#
# Bulk Modulus (GPa) = 22.06343 29.72099 25.89221
# Shear Modulus (GPa) = 21.08627 32.55182 26.81905
#
# Velocity S-wave (km/s) = 3.00131 3.72906 3.38480
# Velocity P-wave (km/s) = 4.62988 5.58907 5.13193
#
# Compressibility (1/GPa) = 0.04532387
#
# Stress axis : x y z
#
# Youngs Moduli (GPa) = 95.56599 81.88024 22.85911
#
# Poissons Ratio (x) = -0.17373 0.23137
# Poissons Ratio (y) = -0.20277 0.05829
# Poissons Ratio (z) = 0.96726 0.20880
#
# Static dielectric constant tensor:
#      x y z
#    x 1.873380 0.000000 0.000000 
#    y 0.000000 1.967040 0.000000 
#    z 0.000000 0.000000 1.896920 
# 
# From -- ./inp_files/13102.got.cif
#   From: 2010.05.17/outbox.cif.g08.bks.cpg/sg43_7_cif.got.tgz:13102.got - 2010.06.03 19:21:55.
