data_PCOD9372918
_publ_section_title
;
Structure prediction by ZEFSAII (Michael W. Deem and Ramdas Pophale) SiO2 
 PCOD9372918
Probable space group: F D D 2
;
_chemical_formula_sum "Si O2"
_cell_formula_units_Z 72
_cell_length_a 7.721112
_cell_length_b 20.598311
_cell_length_c 16.657648
_cell_angle_alpha 90.000000
_cell_angle_beta 90.000000
_cell_angle_gamma 90.000000
_cell_volume 2649.263425
_symmetry_space_group_name_H-M "F D D 2"
_symmetry_group_IT_number 43
_symmetry_cell_setting 'orthorhombic'
loop_
_space_group_symop_operation_xyz
x,y,z
-x,-y,z
1/4-x,1/4+y,1/4+z
1/4+x,1/4-y,1/4+z
x,1/2+y,1/2+z
-x,1/2-y,1/2+z
1/4-x,3/4+y,3/4+z
1/4+x,3/4-y,3/4+z
1/2+x,y,1/2+z
1/2-x,-y,1/2+z
3/4-x,1/4+y,3/4+z
3/4+x,1/4-y,3/4+z
1/2+x,1/2+y,z
1/2-x,1/2-y,z
3/4-x,3/4+y,1/4+z
3/4+x,3/4-y,1/4+z
loop_
_atom_site_type_symbol
_atom_site_label
_atom_site_fract_x
_atom_site_fract_y
_atom_site_fract_z
Si Si1 0.102669 0.304105 0.292550
Si Si2 0.326718 0.962202 0.258129
Si Si3 0.750000 0.750000 0.721863
Si Si4 0.075682 0.845575 0.971531
Si Si5 0.326074 0.866991 0.110998
O O1 0.250000 0.250000 0.284933
O O2 0.036500 0.128043 0.280922
O O3 0.152107 0.362383 0.232698
O O4 0.916880 0.272228 0.273399
O O5 0.341695 0.927386 0.171364
O O6 0.252382 0.912590 0.323516
O O7 0.500000 0.000000 0.282373
O O8 0.131915 0.088142 0.128809
O O9 0.770318 0.688457 0.663081
O O10 0.055548 0.771459 0.999105
#
# Coordination Sequence:
#
# PCOD9372918 Si02
#       5
#    16  16   8  16  16
#     4  12  31  56  87 129 181 240 306 376 469 555
#     4  12  29  51  88 132 180 239 316 374 465 553
#     4  12  30  54  84 124 172 240 302 372 460 552
#     4  12  27  57  85 128 176 235 305 380 458 560
#     4  12  27  56  89 125 182 240 303 389 463 546
#
# _framework density 27.177367
#
# number of rings (size 3 to 8) (size 9 to 14) (size 15 to 20)
#    0.000    0.000    2.222    5.333   10.889    6.222 
#    0.000    0.000    0.000    0.000    0.000    0.000 
#    0.000    0.000    0.000    0.000    0.000    0.000 
#
# Total GULP energy -101081.923695 kJ/mol
# GULP energy per Si atom -5615.662427 kJ/mol
# Density = 2.711551 g / cm^3
# Si number density = 27.177367 Si / 1000 Ang^3
#
#
#
# Elastic Constant Matrix: (Units=GPa)
#
#
# Indices 1 2 3 4 5 6 
#
# 1 176.2309 68.4641 82.5734 0.0000 0.0000 0.0000
# 2 68.4641 161.2297 74.8021 0.0000 0.0000 0.0000
# 3 82.5734 74.8021 189.4466 0.0000 0.0000 0.0000
# 4 0.0000 0.0000 0.0000 55.7325 0.0000 0.0000
# 5 0.0000 0.0000 0.0000 0.0000 49.4722 0.0000
# 6 0.0000 0.0000 0.0000 0.0000 0.0000 42.1821
#
#
#
# Elastic Compliance Matrix: (Units=1/GPa)
#
#
# Indices 1 2 3 4 5 6 
#
# 1 0.007664 -0.002087 -0.002517 0.000000 0.000000 0.000000
# 2 -0.002087 0.008162 -0.002313 0.000000 0.000000 0.000000
# 3 -0.002517 -0.002313 0.007289 0.000000 0.000000 0.000000
# 4 0.000000 0.000000 0.000000 0.017943 0.000000 0.000000
# 5 0.000000 0.000000 0.000000 0.000000 0.020213 0.000000
# 6 0.000000 0.000000 0.000000 0.000000 0.000000 0.023707
#
#
# Mechanical properties :
#
#
# Convention : Reuss Voigt Hill
#
# Bulk Modulus (GPa) = 107.73993 108.73182 108.23588
# Shear Modulus (GPa) = 49.06558 49.54852 49.30705
#
# Velocity S-wave (km/s) = 4.25359 4.27447 4.26404
# Velocity P-wave (km/s) = 7.99083 8.02848 8.00968
#
# Compressibility (1/GPa) = 0.00928161
#
# Stress axis : x y z
#
# Youngs Moduli (GPa) = 130.47510 122.52472 137.19921
#
# Poissons Ratio (x) = 0.25571 0.34527
# Poissons Ratio (y) = 0.27230 0.31733
# Poissons Ratio (z) = 0.32835 0.28339
#
# Static dielectric constant tensor:
#      x y z
#    x 2.223950 0.000000 0.000000 
#    y 0.000000 2.046290 0.000000 
#    z 0.000000 0.000000 2.111550 
# 
# From -- ./inp_files/16276.got.cif
#   From: 2010.05.17/outbox.cif.g08.bks.cpg/sg43_9_cif.got.tgz:16276.got - 2010.06.03 19:21:55.
