data_PCOD9372885
_publ_section_title
;
Structure prediction by ZEFSAII (Michael W. Deem and Ramdas Pophale) SiO2 
 PCOD9372885
Probable space group: F D D 2
;
_chemical_formula_sum "Si O2"
_cell_formula_units_Z 112
_cell_length_a 9.891016
_cell_length_b 22.300078
_cell_length_c 20.658950
_cell_angle_alpha 90.000000
_cell_angle_beta 90.000000
_cell_angle_gamma 90.000000
_cell_volume 4556.753450
_symmetry_space_group_name_H-M "F D D 2"
_symmetry_group_IT_number 43
_symmetry_cell_setting 'orthorhombic'
loop_
_space_group_symop_operation_xyz
x,y,z
-x,-y,z
1/4-x,1/4+y,1/4+z
1/4+x,1/4-y,1/4+z
x,1/2+y,1/2+z
-x,1/2-y,1/2+z
1/4-x,3/4+y,3/4+z
1/4+x,3/4-y,3/4+z
1/2+x,y,1/2+z
1/2-x,-y,1/2+z
3/4-x,1/4+y,3/4+z
3/4+x,1/4-y,3/4+z
1/2+x,1/2+y,z
1/2-x,1/2-y,z
3/4-x,3/4+y,1/4+z
3/4+x,3/4-y,1/4+z
loop_
_atom_site_type_symbol
_atom_site_label
_atom_site_fract_x
_atom_site_fract_y
_atom_site_fract_z
Si Si1 0.500000 0.500000 0.545171
Si Si2 0.098973 0.346143 0.886039
Si Si3 0.750000 0.750000 0.338427
Si Si4 0.994941 0.929479 0.758338
Si Si5 0.158271 0.465822 0.371492
Si Si6 0.196518 0.149110 0.422998
Si Si7 0.377457 0.790082 0.058878
Si Si8 0.713429 0.543301 0.990460
O O1 0.428859 0.451437 0.592347
O O2 0.374258 0.528999 0.504284
O O3 0.152751 0.409759 0.862446
O O4 0.938771 0.347643 0.879692
O O5 0.119073 0.337862 0.962903
O O6 0.711216 0.802539 0.388227
O O7 0.620862 0.753920 0.292063
O O8 0.029902 0.937981 0.834089
O O9 0.071532 0.864736 0.746459
O O10 0.000000 0.000000 0.735796
O O11 0.237663 0.414805 0.411680
O O12 0.248326 0.493367 0.311976
O O13 0.154412 0.517595 0.424154
O O14 0.164047 0.173372 0.494394
O O15 0.250000 0.750000 0.077692
#
# Coordination Sequence:
#
# PCOD9372885 Si02
#       8
#     8  16   8  16  16  16  16  16
#     4  12  28  48  80 122 154 212 272 338 410 494
#     4  12  26  49  77 112 164 207 268 338 417 488
#     4  12  26  56  74 114 168 220 272 350 418 492
#     4  12  28  51  77 120 162 215 273 346 414 493
#     4  12  28  49  81 117 161 221 280 336 417 505
#     4  12  26  50  79 117 161 215 278 335 419 503
#     4  12  26  45  78 115 156 212 270 337 406 495
#     4  12  29  51  82 118 169 219 278 343 422 496
#
# _framework density 24.578903
#
# number of rings (size 3 to 8) (size 9 to 14) (size 15 to 20)
#    0.000    0.000    7.143    1.714    8.000    0.000 
#    0.000    0.000    0.000    0.000    0.000    0.000 
#    0.000    0.000    0.000    0.000    0.000    0.000 
#
# Total GULP energy -155894.583385 kJ/mol
# GULP energy per Si atom -5567.663692 kJ/mol
# Density = 2.452296 g / cm^3
# Si number density = 24.578903 Si / 1000 Ang^3
#
#
#
# Elastic Constant Matrix: (Units=GPa)
#
#
# Indices 1 2 3 4 5 6 
#
# 1 68.2012 19.0178 41.0135 0.0000 0.0000 0.0000
# 2 19.0178 184.9553 63.0345 0.0000 0.0000 0.0000
# 3 41.0135 63.0345 140.2776 0.0000 0.0000 0.0000
# 4 0.0000 0.0000 0.0000 28.0235 0.0000 0.0000
# 5 0.0000 0.0000 0.0000 0.0000 13.4709 0.0000
# 6 0.0000 0.0000 0.0000 0.0000 0.0000 14.2026
#
#
#
# Elastic Compliance Matrix: (Units=1/GPa)
#
#
# Indices 1 2 3 4 5 6 
#
# 1 0.017791 -0.000067 -0.005172 0.000000 0.000000 0.000000
# 2 -0.000067 0.006385 -0.002849 0.000000 0.000000 0.000000
# 3 -0.005172 -0.002849 0.009921 0.000000 0.000000 0.000000
# 4 0.000000 0.000000 0.000000 0.035684 0.000000 0.000000
# 5 0.000000 0.000000 0.000000 0.000000 0.074234 0.000000
# 6 0.000000 0.000000 0.000000 0.000000 0.000000 0.070410
#
#
# Mechanical properties :
#
#
# Convention : Reuss Voigt Hill
#
# Bulk Modulus (GPa) = 55.79982 71.06286 63.43134
# Shear Modulus (GPa) = 21.13500 29.16397 25.14948
#
# Velocity S-wave (km/s) = 2.93556 3.44836 3.20224
# Velocity P-wave (km/s) = 5.85163 6.69551 6.28774
#
# Compressibility (1/GPa) = 0.01792121
#
# Stress axis : x y z
#
# Youngs Moduli (GPa) = 56.20773 156.62430 100.79426
#
# Poissons Ratio (x) = 0.01046 0.52127
# Poissons Ratio (y) = 0.00376 0.28721
# Poissons Ratio (z) = 0.29069 0.44630
#
# Static dielectric constant tensor:
#      x y z
#    x 2.092990 0.000000 0.000000 
#    y 0.000000 2.136130 0.000000 
#    z 0.000000 0.000000 1.971730 
# 
# From -- ./inp_files/17253.got.cif
#   From: 2010.05.17/outbox.cif.g08.bks.cpg/sg43_9_cif.got.tgz:17253.got - 2010.06.03 19:21:55.
