data_PCOD9372322
_publ_section_title
;
Structure prediction by ZEFSAII (Michael W. Deem and Ramdas Pophale) SiO2 
 PCOD9372322
Probable space group: F D D 2
;
_chemical_formula_sum "Si O2"
_cell_formula_units_Z 104
_cell_length_a 28.219200
_cell_length_b 11.060491
_cell_length_c 14.616275
_cell_angle_alpha 90.000000
_cell_angle_beta 90.000000
_cell_angle_gamma 90.000000
_cell_volume 4562.005555
_symmetry_space_group_name_H-M "F D D 2"
_symmetry_group_IT_number 43
_symmetry_cell_setting 'orthorhombic'
loop_
_space_group_symop_operation_xyz
x,y,z
-x,-y,z
1/4-x,1/4+y,1/4+z
1/4+x,1/4-y,1/4+z
x,1/2+y,1/2+z
-x,1/2-y,1/2+z
1/4-x,3/4+y,3/4+z
1/4+x,3/4-y,3/4+z
1/2+x,y,1/2+z
1/2-x,-y,1/2+z
3/4-x,1/4+y,3/4+z
3/4+x,1/4-y,3/4+z
1/2+x,1/2+y,z
1/2-x,1/2-y,z
3/4-x,3/4+y,1/4+z
3/4+x,3/4-y,1/4+z
loop_
_atom_site_type_symbol
_atom_site_label
_atom_site_fract_x
_atom_site_fract_y
_atom_site_fract_z
Si Si1 0.639762 0.991214 0.531000
Si Si2 0.510826 0.863643 0.310645
Si Si3 0.564434 0.172033 0.595246
Si Si4 0.000000 0.500000 0.715369
Si Si5 0.493972 0.363388 0.589132
Si Si6 0.643975 0.491584 0.377355
Si Si7 0.683124 0.073604 0.070097
O O1 0.686846 0.055894 0.573902
O O2 0.595560 0.080962 0.537377
O O3 0.651619 0.970306 0.425343
O O4 0.626381 0.863319 0.579122
O O5 0.502994 0.864601 0.199750
O O6 0.470995 0.775167 0.350489
O O7 0.500000 0.000000 0.342632
O O8 0.524975 0.096187 0.650550
O O9 0.535606 0.280111 0.550153
O O10 0.037176 0.435372 0.779840
O O11 0.500000 0.500000 0.555506
O O12 0.441946 0.305574 0.577175
O O13 0.607023 0.381887 0.381380
O O14 0.657181 0.522335 0.480483
#
# Coordination Sequence:
#
# PCOD9372322 Si02
#       7
#    16  16  16   8  16  16  16
#     4  11  19  33  59  87 116 153 206 252 304 373
#     4   9  19  36  57  83 114 156 198 246 306 377
#     4  11  20  34  61  88 117 161 205 253 310 378
#     4  12  16  36  58  88 112 160 204 242 326 368
#     4   9  19  36  57  83 114 156 198 246 306 377
#     4  11  19  33  59  87 116 153 206 252 304 373
#     4  11  20  34  61  88 117 161 205 253 310 378
#
# _framework density 22.796990000000001
#
# number of rings (size 3 to 8) (size 9 to 14) (size 15 to 20)
#    0.000    1.538    7.692    0.000    0.000    1.231 
#    0.000    0.000   16.923    0.000    0.000    0.000 
#    0.000    0.000    0.000    0.000    0.000    0.000 
#
# Total GULP energy -145394.268309 kJ/mol
# GULP energy per Si atom -5592.087243 kJ/mol
# Density = 2.274510 g / cm^3
# Si number density = 22.796990 Si / 1000 Ang^3
#
#
#
# Elastic Constant Matrix: (Units=GPa)
#
#
# Indices 1 2 3 4 5 6 
#
# 1 116.8372 63.1371 1.0324 0.0000 0.0000 0.0000
# 2 63.1371 155.9178 1.5185 0.0000 0.0000 0.0000
# 3 1.0324 1.5185 29.8731 0.0000 0.0000 0.0000
# 4 0.0000 0.0000 0.0000 110.3696 0.0000 0.0000
# 5 0.0000 0.0000 0.0000 0.0000 23.5437 0.0000
# 6 0.0000 0.0000 0.0000 0.0000 0.0000 40.1843
#
#
#
# Elastic Compliance Matrix: (Units=1/GPa)
#
#
# Indices 1 2 3 4 5 6 
#
# 1 0.010957 -0.004435 -0.000153 0.000000 0.000000 0.000000
# 2 -0.004435 0.008212 -0.000264 0.000000 0.000000 0.000000
# 3 -0.000153 -0.000264 0.033494 0.000000 0.000000 0.000000
# 4 0.000000 0.000000 0.000000 0.009060 0.000000 0.000000
# 5 0.000000 0.000000 0.000000 0.000000 0.042474 0.000000
# 6 0.000000 0.000000 0.000000 0.000000 0.000000 0.024885
#
#
# Mechanical properties :
#
#
# Convention : Reuss Voigt Hill
#
# Bulk Modulus (GPa) = 23.27885 48.22267 35.75076
# Shear Modulus (GPa) = 32.65669 50.61553 41.63611
#
# Velocity S-wave (km/s) = 3.78894 4.71709 4.27826
# Velocity P-wave (km/s) = 5.41987 7.13210 6.33411
#
# Compressibility (1/GPa) = 0.04295744
#
# Stress axis : x y z
#
# Youngs Moduli (GPa) = 91.26468 121.76845 29.85638
#
# Poissons Ratio (x) = 0.54010 0.00457
# Poissons Ratio (y) = 0.40480 0.00789
# Poissons Ratio (z) = 0.01398 0.03216
#
# Static dielectric constant tensor:
#      x y z
#    x 1.581930 0.000000 0.000000 
#    y 0.000000 1.837610 0.000000 
#    z 0.000000 0.000000 1.886950 
# 
# From -- ./inp_files/15048.got.cif
#   From: 2010.05.17/outbox.cif.g08.bks.cpg/sg43_8_cif.got.tgz:15048.got - 2010.06.03 19:21:55.
