data_PCOD9372075
_publ_section_title
;
Structure prediction by ZEFSAII (Michael W. Deem and Ramdas Pophale) SiO2 
 PCOD9372075
Probable space group: F D D 2
;
_chemical_formula_sum "Si O2"
_cell_formula_units_Z 104
_cell_length_a 21.260396
_cell_length_b 22.921019
_cell_length_c 9.411906
_cell_angle_alpha 90.000000
_cell_angle_beta 90.000000
_cell_angle_gamma 90.000000
_cell_volume 4586.515354
_symmetry_space_group_name_H-M "F D D 2"
_symmetry_group_IT_number 43
_symmetry_cell_setting 'orthorhombic'
loop_
_space_group_symop_operation_xyz
x,y,z
-x,-y,z
1/4-x,1/4+y,1/4+z
1/4+x,1/4-y,1/4+z
x,1/2+y,1/2+z
-x,1/2-y,1/2+z
1/4-x,3/4+y,3/4+z
1/4+x,3/4-y,3/4+z
1/2+x,y,1/2+z
1/2-x,-y,1/2+z
3/4-x,1/4+y,3/4+z
3/4+x,1/4-y,3/4+z
1/2+x,1/2+y,z
1/2-x,1/2-y,z
3/4-x,3/4+y,1/4+z
3/4+x,3/4-y,1/4+z
loop_
_atom_site_type_symbol
_atom_site_label
_atom_site_fract_x
_atom_site_fract_y
_atom_site_fract_z
Si Si1 0.420080 0.396919 0.976870
Si Si2 0.337933 0.179533 0.912897
Si Si3 0.642860 0.901700 0.680653
Si Si4 0.194789 0.984918 0.741390
Si Si5 0.750000 0.250000 0.199908
Si Si6 0.757232 0.351725 0.986140
Si Si7 0.430143 0.234092 0.313995
O O1 0.436205 0.423118 0.823000
O O2 0.411967 0.327388 0.967363
O O3 0.472911 0.413757 0.090134
O O4 0.356122 0.424650 0.035593
O O5 0.335687 0.116076 0.838777
O O6 0.405675 0.210249 0.932447
O O7 0.300290 0.220566 0.804565
O O8 0.700305 0.882403 0.576325
O O9 0.573817 0.871395 0.681629
O O10 0.634300 0.968512 0.636401
O O11 0.261017 0.979968 0.665770
O O12 0.201179 0.993812 0.909320
O O13 0.775722 0.299902 0.094430
#
# Coordination Sequence:
#
# PCOD9372075 Si02
#       7
#    16  16  16  16   8  16  16
#     4  11  26  45  70 109 144 199 241 322 370 461
#     4  10  26  45  70 105 149 189 250 310 383 451
#     4  11  24  47  72 106 143 199 248 313 379 465
#     4  11  26  47  71 111 146 202 251 314 386 466
#     4  10  24  44  70 100 142 196 244 314 378 450
#     4  11  24  44  72 102 144 192 251 305 381 454
#     4  11  26  46  74 106 151 195 259 312 388 456
#
# _framework density 22.675167999999999
#
# number of rings (size 3 to 8) (size 9 to 14) (size 15 to 20)
#    0.000    1.231    1.538    1.846    6.462    5.538 
#    0.000    0.000    0.000    0.000    0.000    0.000 
#    0.000    0.000    0.000    0.000    0.000    0.000 
#
# Total GULP energy -145128.970975 kJ/mol
# GULP energy per Si atom -5581.883499 kJ/mol
# Density = 2.262356 g / cm^3
# Si number density = 22.675168 Si / 1000 Ang^3
#
#
#
# Elastic Constant Matrix: (Units=GPa)
#
#
# Indices 1 2 3 4 5 6 
#
# 1 86.7102 14.4573 50.8571 0.0000 0.0000 0.0000
# 2 14.4573 64.4358 28.6836 0.0000 0.0000 0.0000
# 3 50.8571 28.6836 130.3737 0.0000 0.0000 0.0000
# 4 0.0000 0.0000 0.0000 31.7994 0.0000 0.0000
# 5 0.0000 0.0000 0.0000 0.0000 36.3161 0.0000
# 6 0.0000 0.0000 0.0000 0.0000 0.0000 23.2154
#
#
#
# Elastic Compliance Matrix: (Units=1/GPa)
#
#
# Indices 1 2 3 4 5 6 
#
# 1 0.014995 -0.000843 -0.005664 0.000000 0.000000 0.000000
# 2 -0.000843 0.017252 -0.003467 0.000000 0.000000 0.000000
# 3 -0.005664 -0.003467 0.010642 0.000000 0.000000 0.000000
# 4 0.000000 0.000000 0.000000 0.031447 0.000000 0.000000
# 5 0.000000 0.000000 0.000000 0.000000 0.027536 0.000000
# 6 0.000000 0.000000 0.000000 0.000000 0.000000 0.043075
#
#
# Mechanical properties :
#
#
# Convention : Reuss Voigt Hill
#
# Bulk Modulus (GPa) = 43.58850 52.16842 47.87846
# Shear Modulus (GPa) = 28.97841 30.76760 29.87300
#
# Velocity S-wave (km/s) = 3.57876 3.68759 3.63358
# Velocity P-wave (km/s) = 6.02839 6.41778 6.22613
#
# Compressibility (1/GPa) = 0.02294183
#
# Stress axis : x y z
#
# Youngs Moduli (GPa) = 66.68773 57.96532 93.96372
#
# Poissons Ratio (x) = 0.04887 0.53221
# Poissons Ratio (y) = 0.05623 0.32574
# Poissons Ratio (z) = 0.37772 0.20095
#
# Static dielectric constant tensor:
#      x y z
#    x 1.866010 0.000000 0.000000 
#    y 0.000000 1.901810 0.000000 
#    z 0.000000 0.000000 1.791780 
# 
# From -- ./inp_files/3355.got.cif
#   From: 2010.05.17/outbox.cif.g08.bks.cpg/sg43_2_cif.got.tgz:3355.got - 2010.06.03 19:21:55.
