data_PCOD9372188
_publ_section_title
;
Structure prediction by ZEFSAII (Michael W. Deem and Ramdas Pophale) SiO2 
 PCOD9372188
Probable space group: F D D 2
;
_chemical_formula_sum "Si O2"
_cell_formula_units_Z 112
_cell_length_a 12.216643
_cell_length_b 28.036466
_cell_length_c 12.677229
_cell_angle_alpha 90.000000
_cell_angle_beta 90.000000
_cell_angle_gamma 90.000000
_cell_volume 4342.096671
_symmetry_space_group_name_H-M "F D D 2"
_symmetry_group_IT_number 43
_symmetry_cell_setting 'orthorhombic'
loop_
_space_group_symop_operation_xyz
x,y,z
-x,-y,z
1/4-x,1/4+y,1/4+z
1/4+x,1/4-y,1/4+z
x,1/2+y,1/2+z
-x,1/2-y,1/2+z
1/4-x,3/4+y,3/4+z
1/4+x,3/4-y,3/4+z
1/2+x,y,1/2+z
1/2-x,-y,1/2+z
3/4-x,1/4+y,3/4+z
3/4+x,1/4-y,3/4+z
1/2+x,1/2+y,z
1/2-x,1/2-y,z
3/4-x,3/4+y,1/4+z
3/4+x,3/4-y,1/4+z
loop_
_atom_site_type_symbol
_atom_site_label
_atom_site_fract_x
_atom_site_fract_y
_atom_site_fract_z
Si Si1 0.063665 0.126688 0.561020
Si Si2 0.877209 0.315848 0.399146
Si Si3 0.684606 0.036446 0.143063
Si Si4 0.076770 0.180464 0.129387
Si Si5 0.965902 0.713820 0.131022
Si Si6 0.572043 0.911521 0.608331
Si Si7 0.609112 0.288794 0.856721
O O1 0.947297 0.102724 0.588051
O O2 0.087194 0.146577 0.444802
O O3 0.062626 0.174725 0.632946
O O4 0.146776 0.083373 0.583066
O O5 0.868901 0.261269 0.358265
O O6 0.849707 0.315536 0.523799
O O7 0.008781 0.323286 0.390094
O O8 0.662875 0.043710 0.266829
O O9 0.007881 0.230005 0.134935
O O10 0.136826 0.172887 0.240382
O O11 0.999320 0.136666 0.105634
O O12 0.887319 0.706536 0.230145
O O13 0.477285 0.947983 0.648289
O O14 0.692416 0.986785 0.633670
#
# Coordination Sequence:
#
# PCOD9372188 Si02
#       7
#    16  16  16  16  16  16  16
#     4  12  26  46  82 123 162 221 281 364 424 504
#     4   9  23  49  84 110 168 218 294 344 425 511
#     4   9  24  48  80 117 163 218 292 346 419 514
#     4  11  26  51  76 121 164 221 283 351 423 531
#     4  11  26  45  79 113 167 217 287 346 424 517
#     4  12  28  46  85 118 172 219 284 358 443 499
#     4  10  24  50  77 115 163 223 279 350 423 510
#
# _framework density 25.793990000000001
#
# number of rings (size 3 to 8) (size 9 to 14) (size 15 to 20)
#    0.857    0.571    0.000    3.000    8.000    0.571 
#    0.000    1.429    6.286    0.000    0.000    0.000 
#    0.000    0.000    0.000    0.000    0.000    0.000 
#
# Total GULP energy -156416.351916 kJ/mol
# GULP energy per Si atom -5586.298283 kJ/mol
# Density = 2.573528 g / cm^3
# Si number density = 25.793990 Si / 1000 Ang^3
#
#
#
# Elastic Constant Matrix: (Units=GPa)
#
#
# Indices 1 2 3 4 5 6 
#
# 1 146.5143 66.1203 63.0736 0.0000 0.0000 0.0000
# 2 66.1203 216.1386 63.9749 0.0000 0.0000 0.0000
# 3 63.0736 63.9749 150.1345 0.0000 0.0000 0.0000
# 4 0.0000 0.0000 0.0000 54.6404 0.0000 0.0000
# 5 0.0000 0.0000 0.0000 0.0000 19.1245 0.0000
# 6 0.0000 0.0000 0.0000 0.0000 0.0000 40.6424
#
#
#
# Elastic Compliance Matrix: (Units=1/GPa)
#
#
# Indices 1 2 3 4 5 6 
#
# 1 0.008940 -0.001857 -0.002964 0.000000 0.000000 0.000000
# 2 -0.001857 0.005680 -0.001640 0.000000 0.000000 0.000000
# 3 -0.002964 -0.001640 0.008605 0.000000 0.000000 0.000000
# 4 0.000000 0.000000 0.000000 0.018301 0.000000 0.000000
# 5 0.000000 0.000000 0.000000 0.000000 0.052289 0.000000
# 6 0.000000 0.000000 0.000000 0.000000 0.000000 0.024605
#
#
# Mechanical properties :
#
#
# Convention : Reuss Voigt Hill
#
# Bulk Modulus (GPa) = 97.07495 99.90278 98.48886
# Shear Modulus (GPa) = 37.09826 44.18938 40.64382
#
# Velocity S-wave (km/s) = 3.79654 4.14353 3.97383
# Velocity P-wave (km/s) = 7.54551 7.85537 7.70200
#
# Compressibility (1/GPa) = 0.01030132
#
# Stress axis : x y z
#
# Youngs Moduli (GPa) = 111.86242 176.04571 116.21305
#
# Poissons Ratio (x) = 0.32699 0.34447
# Poissons Ratio (y) = 0.20777 0.19061
# Poissons Ratio (z) = 0.33158 0.28875
#
# Static dielectric constant tensor:
#      x y z
#    x 2.127350 0.000000 0.000000 
#    y 0.000000 2.128610 0.000000 
#    z 0.000000 0.000000 2.028380 
# 
# From -- ./inp_files/10267.got.cif
#   From: 2010.05.17/outbox.cif.g08.bks.cpg/sg43_6_cif.got.tgz:10267.got - 2010.06.03 19:21:55.
