data_PCOD9372387
_publ_section_title
;
Structure prediction by ZEFSAII (Michael W. Deem and Ramdas Pophale) SiO2 
 PCOD9372387
Probable space group: F D D 2
;
_chemical_formula_sum "Si O2"
_cell_formula_units_Z 120
_cell_length_a 9.434264
_cell_length_b 24.764077
_cell_length_c 26.889211
_cell_angle_alpha 90.000000
_cell_angle_beta 90.000000
_cell_angle_gamma 90.000000
_cell_volume 6282.148956
_symmetry_space_group_name_H-M "F D D 2"
_symmetry_group_IT_number 43
_symmetry_cell_setting 'orthorhombic'
loop_
_space_group_symop_operation_xyz
x,y,z
-x,-y,z
1/4-x,1/4+y,1/4+z
1/4+x,1/4-y,1/4+z
x,1/2+y,1/2+z
-x,1/2-y,1/2+z
1/4-x,3/4+y,3/4+z
1/4+x,3/4-y,3/4+z
1/2+x,y,1/2+z
1/2-x,-y,1/2+z
3/4-x,1/4+y,3/4+z
3/4+x,1/4-y,3/4+z
1/2+x,1/2+y,z
1/2-x,1/2-y,z
3/4-x,3/4+y,1/4+z
3/4+x,3/4-y,1/4+z
loop_
_atom_site_type_symbol
_atom_site_label
_atom_site_fract_x
_atom_site_fract_y
_atom_site_fract_z
Si Si1 0.933524 0.310479 0.074280
Si Si2 0.688976 0.132797 0.412132
Si Si3 0.786139 0.428935 0.214642
Si Si4 0.013656 0.374330 0.674164
Si Si5 0.345566 0.432358 0.322844
Si Si6 0.026740 0.402009 0.493370
Si Si7 0.750000 0.250000 0.818278
Si Si8 0.203602 0.031297 0.151410
O O1 0.935468 0.245592 0.079106
O O2 0.766306 0.325305 0.069961
O O3 0.999838 0.343602 0.119862
O O4 0.018893 0.322519 0.023768
O O5 0.814375 0.161372 0.442491
O O6 0.593975 0.100428 0.451797
O O7 0.585146 0.179191 0.390442
O O8 0.667923 0.388247 0.193757
O O9 0.746407 0.487705 0.192636
O O10 0.030145 0.347510 0.620550
O O11 0.923706 0.340012 0.713639
O O12 0.923425 0.429611 0.669341
O O13 0.283690 0.404547 0.273408
O O14 0.002629 0.447794 0.533752
O O15 0.611504 0.251619 0.853505
#
# Coordination Sequence:
#
# PCOD9372387 Si02
#       8
#    16  16  16  16  16  16   8  16
#     4  11  25  40  69  97 133 181 222 271 335 409
#     4  11  27  43  62 103 142 164 220 282 343 385
#     4  12  22  42  69  97 133 175 219 277 339 390
#     4  11  21  41  66  92 131 166 225 274 325 405
#     4  11  22  43  67  96 126 178 234 264 328 409
#     4  11  25  43  66  99 127 178 220 279 331 400
#     4  12  24  42  76  92 136 174 234 268 342 400
#     4  11  23  42  69  96 128 172 222 279 321 399
#
# _framework density 19.101742999999999
#
# number of rings (size 3 to 8) (size 9 to 14) (size 15 to 20)
#    0.000    0.800    5.333    2.000    5.600    0.000 
#    0.000    2.667    0.000    0.000    0.000    0.000 
#    0.000    0.000    0.000    0.000    0.000    0.000 
#
# Total GULP energy -167667.159273 kJ/mol
# GULP energy per Si atom -5588.905309 kJ/mol
# Density = 1.905827 g / cm^3
# Si number density = 19.101743 Si / 1000 Ang^3
#
#
#
# Elastic Constant Matrix: (Units=GPa)
#
#
# Indices 1 2 3 4 5 6 
#
# 1 99.7050 29.7014 37.6016 0.0000 0.0000 0.0000
# 2 29.7014 54.5569 52.4406 0.0000 0.0000 0.0000
# 3 37.6016 52.4406 135.8743 0.0000 0.0000 0.0000
# 4 0.0000 0.0000 0.0000 30.1093 0.0000 0.0000
# 5 0.0000 0.0000 0.0000 0.0000 33.7529 0.0000
# 6 0.0000 0.0000 0.0000 0.0000 0.0000 19.7111
#
#
#
# Elastic Compliance Matrix: (Units=1/GPa)
#
#
# Indices 1 2 3 4 5 6 
#
# 1 0.012110 -0.005360 -0.001283 0.000000 0.000000 0.000000
# 2 -0.005360 0.031512 -0.010679 0.000000 0.000000 0.000000
# 3 -0.001283 -0.010679 0.011836 0.000000 0.000000 0.000000
# 4 0.000000 0.000000 0.000000 0.033212 0.000000 0.000000
# 5 0.000000 0.000000 0.000000 0.000000 0.029627 0.000000
# 6 0.000000 0.000000 0.000000 0.000000 0.000000 0.050733
#
#
# Mechanical properties :
#
#
# Convention : Reuss Voigt Hill
#
# Bulk Modulus (GPa) = 48.04109 58.84703 53.44406
# Shear Modulus (GPa) = 23.74040 28.07417 25.90729
#
# Velocity S-wave (km/s) = 3.52922 3.83785 3.68676
# Velocity P-wave (km/s) = 6.46621 7.10724 6.79429
#
# Compressibility (1/GPa) = 0.02081551
#
# Stress axis : x y z
#
# Youngs Moduli (GPa) = 82.57649 31.73402 84.48708
#
# Poissons Ratio (x) = 0.17009 0.10837
# Poissons Ratio (y) = 0.44260 0.90221
# Poissons Ratio (z) = 0.10592 0.33888
#
# Static dielectric constant tensor:
#      x y z
#    x 1.654020 0.000000 0.000000 
#    y 0.000000 1.666510 0.000000 
#    z 0.000000 0.000000 1.657090 
# 
# From -- ./inp_files/20444.got.cif
#   From: 2010.05.17/outbox.cif.g08.bks.cpg/sg43_11_cif.got.tgz:20444.got - 2010.06.03 19:21:55.
