data_PCOD9372016
_publ_section_title
;
Structure prediction by ZEFSAII (Michael W. Deem and Ramdas Pophale) SiO2 
 PCOD9372016
Probable space group: F D D 2
;
_chemical_formula_sum "Si O2"
_cell_formula_units_Z 80
_cell_length_a 16.164816
_cell_length_b 20.401385
_cell_length_c 11.839686
_cell_angle_alpha 90.000000
_cell_angle_beta 90.000000
_cell_angle_gamma 90.000000
_cell_volume 3904.546522
_symmetry_space_group_name_H-M "F D D 2"
_symmetry_group_IT_number 43
_symmetry_cell_setting 'orthorhombic'
loop_
_space_group_symop_operation_xyz
x,y,z
-x,-y,z
1/4-x,1/4+y,1/4+z
1/4+x,1/4-y,1/4+z
x,1/2+y,1/2+z
-x,1/2-y,1/2+z
1/4-x,3/4+y,3/4+z
1/4+x,3/4-y,3/4+z
1/2+x,y,1/2+z
1/2-x,-y,1/2+z
3/4-x,1/4+y,3/4+z
3/4+x,1/4-y,3/4+z
1/2+x,1/2+y,z
1/2-x,1/2-y,z
3/4-x,3/4+y,1/4+z
3/4+x,3/4-y,1/4+z
loop_
_atom_site_type_symbol
_atom_site_label
_atom_site_fract_x
_atom_site_fract_y
_atom_site_fract_z
Si Si1 0.944269 0.184384 0.808720
Si Si2 0.593683 0.652428 0.661068
Si Si3 0.377889 0.317297 0.412509
Si Si4 0.761708 0.174856 0.238443
Si Si5 0.739410 0.824296 0.228642
O O1 0.925854 0.254291 0.865999
O O2 0.856893 0.164150 0.753677
O O3 0.973344 0.128986 0.896718
O O4 0.019052 0.190206 0.719713
O O5 0.628205 0.688049 0.548164
O O6 0.671217 0.642586 0.741361
O O7 0.556443 0.586045 0.608434
O O8 0.432961 0.383289 0.401043
O O9 0.292843 0.324255 0.344790
O O10 0.750000 0.250000 0.213292
O O11 0.750000 0.750000 0.182208
#
# Coordination Sequence:
#
# PCOD9372016 Si02
#       5
#    16  16  16  16  16
#     4  11  23  44  68  97 134 175 219 283 331 402
#     4  10  24  41  66  97 128 175 223 266 340 391
#     4   9  25  40  67  96 133 172 224 265 340 399
#     4  10  24  41  68  95 133 171 223 275 329 400
#     4  10  24  42  65  98 132 173 222 275 337 398
#
# _framework density 20.488934
#
# number of rings (size 3 to 8) (size 9 to 14) (size 15 to 20)
#    1.200    0.800    0.000    1.200    8.400    4.800 
#    0.000    0.000    0.000    0.000    0.000    0.000 
#    0.000    0.000    0.000    0.000    0.000    0.000 
#
# Total GULP energy -111495.995866 kJ/mol
# GULP energy per Si atom -5574.799793 kJ/mol
# Density = 2.044230 g / cm^3
# Si number density = 20.488934 Si / 1000 Ang^3
#
#
#
# Elastic Constant Matrix: (Units=GPa)
#
#
# Indices 1 2 3 4 5 6 
#
# 1 103.9182 11.8741 14.0036 0.0000 0.0000 0.0000
# 2 11.8741 83.3262 15.7917 0.0000 0.0000 0.0000
# 3 14.0036 15.7917 57.5265 0.0000 0.0000 0.0000
# 4 0.0000 0.0000 0.0000 14.1235 0.0000 0.0000
# 5 0.0000 0.0000 0.0000 0.0000 -10.2553 0.0000
# 6 0.0000 0.0000 0.0000 0.0000 0.0000 28.2808
#
#
#
# Elastic Compliance Matrix: (Units=1/GPa)
#
#
# Indices 1 2 3 4 5 6 
#
# 1 0.010031 -0.001020 -0.002162 0.000000 0.000000 0.000000
# 2 -0.001020 0.012763 -0.003255 0.000000 0.000000 0.000000
# 3 -0.002162 -0.003255 0.018803 0.000000 0.000000 0.000000
# 4 0.000000 0.000000 0.000000 0.070804 0.000000 0.000000
# 5 0.000000 0.000000 0.000000 0.000000 -0.097511 0.000000
# 6 0.000000 0.000000 0.000000 0.000000 0.000000 0.035360
#
#
# Mechanical properties :
#
#
# Convention : Reuss Voigt Hill
#
# Bulk Modulus (GPa) = 34.81495 36.45663 35.63579
# Shear Modulus (GPa) = 68.77693 19.96991 44.37342
#
# Velocity S-wave (km/s) = 5.80006 3.12535 4.65879
# Velocity P-wave (km/s) = 7.86659 5.55479 6.80952
#
# Compressibility (1/GPa) = 0.02872329
#
# Stress axis : x y z
#
# Youngs Moduli (GPa) = 99.69306 78.34965 53.18236
#
# Poissons Ratio (x) = 0.07989 0.11497
# Poissons Ratio (y) = 0.10166 0.17313
# Poissons Ratio (z) = 0.21552 0.25506
#
# Static dielectric constant tensor:
#      x y z
#    x 1.728730 0.000000 0.000000 
#    y 0.000000 1.719580 0.000000 
#    z 0.000000 0.000000 1.771200 
# 
# From -- ./inp_files/10009.got.cif
#   From: 2010.05.17/outbox.cif.g08.bks.cpg/sg43_6_cif.got.tgz:10009.got - 2010.06.03 19:21:55.
