data_PCOD9372529
_publ_section_title
;
Structure prediction by ZEFSAII (Michael W. Deem and Ramdas Pophale) SiO2 
 PCOD9372529
Probable space group: F D D 2
;
_chemical_formula_sum "Si O2"
_cell_formula_units_Z 64
_cell_length_a 4.853966
_cell_length_b 16.909516
_cell_length_c 33.935704
_cell_angle_alpha 90.000000
_cell_angle_beta 90.000000
_cell_angle_gamma 90.000000
_cell_volume 2785.382034
_symmetry_space_group_name_H-M "F D D 2"
_symmetry_group_IT_number 43
_symmetry_cell_setting 'orthorhombic'
loop_
_space_group_symop_operation_xyz
x,y,z
-x,-y,z
1/4-x,1/4+y,1/4+z
1/4+x,1/4-y,1/4+z
x,1/2+y,1/2+z
-x,1/2-y,1/2+z
1/4-x,3/4+y,3/4+z
1/4+x,3/4-y,3/4+z
1/2+x,y,1/2+z
1/2-x,-y,1/2+z
3/4-x,1/4+y,3/4+z
3/4+x,1/4-y,3/4+z
1/2+x,1/2+y,z
1/2-x,1/2-y,z
3/4-x,3/4+y,1/4+z
3/4+x,3/4-y,1/4+z
loop_
_atom_site_type_symbol
_atom_site_label
_atom_site_fract_x
_atom_site_fract_y
_atom_site_fract_z
Si Si1 0.547013 0.408546 0.056570
Si Si2 0.343715 0.919162 0.271136
Si Si3 0.508835 0.194496 0.930097
Si Si4 0.741596 0.054874 0.879906
O O1 0.500000 0.500000 0.064958
O O2 0.347840 0.390937 0.019817
O O3 0.425958 0.362496 0.094358
O O4 0.846612 0.371877 0.045839
O O5 0.240461 0.936173 0.227304
O O6 0.500000 0.000000 0.285281
O O7 0.750000 0.250000 0.916239
O O8 0.581279 0.109184 0.911865
O O9 0.250000 0.250000 0.919258
O O10 0.500000 0.000000 0.863399
O O11 0.000000 0.000000 0.892688
#
# Coordination Sequence:
#
# PCOD9372529 Si02
#       4
#    16  16  16  16
#     4  12  25  42  67  97 133 175 224 278 333 397
#     4  11  23  43  68  96 130 174 222 273 335 402
#     4  11  24  44  68  95 132 175 218 271 336 402
#     4  12  26  43  67  98 135 176 223 278 333 397
#
# _framework density 22.977098000000002
#
# number of rings (size 3 to 8) (size 9 to 14) (size 15 to 20)
#    0.000    0.500    0.000   10.500    0.000    5.000 
#    0.000    0.000    0.000    0.000    0.000    0.000 
#    0.000    0.000    0.000    0.000    0.000    0.000 
#
# Total GULP energy -89247.595584 kJ/mol
# GULP energy per Si atom -5577.974724 kJ/mol
# Density = 2.292480 g / cm^3
# Si number density = 22.977098 Si / 1000 Ang^3
#
#
#
# Elastic Constant Matrix: (Units=GPa)
#
#
# Indices 1 2 3 4 5 6 
#
# 1 174.3918 68.8721 28.4932 0.0000 0.0000 0.0000
# 2 68.8721 179.4026 58.0686 0.0000 0.0000 0.0000
# 3 28.4932 58.0686 56.6111 0.0000 0.0000 0.0000
# 4 0.0000 0.0000 0.0000 32.0945 0.0000 0.0000
# 5 0.0000 0.0000 0.0000 0.0000 26.1856 0.0000
# 6 0.0000 0.0000 0.0000 0.0000 0.0000 37.1657
#
#
#
# Elastic Compliance Matrix: (Units=1/GPa)
#
#
# Indices 1 2 3 4 5 6 
#
# 1 0.006806 -0.002251 -0.001116 0.000000 0.000000 0.000000
# 2 -0.002251 0.009089 -0.008190 0.000000 0.000000 0.000000
# 3 -0.001116 -0.008190 0.026627 0.000000 0.000000 0.000000
# 4 0.000000 0.000000 0.000000 0.031158 0.000000 0.000000
# 5 0.000000 0.000000 0.000000 0.000000 0.038189 0.000000
# 6 0.000000 0.000000 0.000000 0.000000 0.000000 0.026907
#
#
# Mechanical properties :
#
#
# Convention : Reuss Voigt Hill
#
# Bulk Modulus (GPa) = 51.52795 80.14148 65.83472
# Shear Modulus (GPa) = 29.69829 36.08727 32.89278
#
# Velocity S-wave (km/s) = 3.59906 3.96735 3.78768
# Velocity P-wave (km/s) = 6.30440 7.47937 6.91688
#
# Compressibility (1/GPa) = 0.01940694
#
# Stress axis : x y z
#
# Youngs Moduli (GPa) = 146.93521 110.01867 37.55568
#
# Poissons Ratio (x) = 0.24770 0.04191
# Poissons Ratio (y) = 0.33082 0.30759
# Poissons Ratio (z) = 0.16398 0.90107
#
# Static dielectric constant tensor:
#      x y z
#    x 1.843590 0.000000 0.000000 
#    y 0.000000 1.944280 0.000000 
#    z 0.000000 0.000000 1.844890 
# 
# From -- ./inp_files/27089.got.cif
#   From: 2010.05.17/outbox.cif.g08.bks.cpg/sg43_14_cif.got.tgz:27089.got - 2010.06.03 19:21:55.
