data_PCOD9372656
_publ_section_title
;
Structure prediction by ZEFSAII (Michael W. Deem and Ramdas Pophale) SiO2 
 PCOD9372656
Probable space group: F D D 2
;
_chemical_formula_sum "Si O2"
_cell_formula_units_Z 88
_cell_length_a 17.756925
_cell_length_b 30.196201
_cell_length_c 7.124258
_cell_angle_alpha 90.000000
_cell_angle_beta 90.000000
_cell_angle_gamma 90.000000
_cell_volume 3819.967840
_symmetry_space_group_name_H-M "F D D 2"
_symmetry_group_IT_number 43
_symmetry_cell_setting 'orthorhombic'
loop_
_space_group_symop_operation_xyz
x,y,z
-x,-y,z
1/4-x,1/4+y,1/4+z
1/4+x,1/4-y,1/4+z
x,1/2+y,1/2+z
-x,1/2-y,1/2+z
1/4-x,3/4+y,3/4+z
1/4+x,3/4-y,3/4+z
1/2+x,y,1/2+z
1/2-x,-y,1/2+z
3/4-x,1/4+y,3/4+z
3/4+x,1/4-y,3/4+z
1/2+x,1/2+y,z
1/2-x,1/2-y,z
3/4-x,3/4+y,1/4+z
3/4+x,3/4-y,1/4+z
loop_
_atom_site_type_symbol
_atom_site_label
_atom_site_fract_x
_atom_site_fract_y
_atom_site_fract_z
Si Si1 0.000641 0.084926 0.563030
Si Si2 0.392195 0.719329 0.807559
Si Si3 0.750000 0.750000 0.560500
Si Si4 0.357221 0.868072 0.612097
Si Si5 0.923473 0.652160 0.780904
Si Si6 0.971494 0.789516 0.086758
O O1 0.960336 0.093268 0.758803
O O2 0.970275 0.123247 0.425508
O O3 0.981724 0.040605 0.448748
O O4 0.089180 0.087975 0.591671
O O5 0.379012 0.667149 0.779171
O O6 0.411244 0.751820 0.636144
O O7 0.322385 0.737627 0.931461
O O8 0.472281 0.720143 0.917528
O O9 0.426902 0.835856 0.572134
O O10 0.338714 0.876537 0.831188
O O11 0.968387 0.697467 0.747975
#
# Coordination Sequence:
#
# PCOD9372656 Si02
#       6
#    16  16   8  16  16  16
#     4  12  27  45  81 103 151 196 245 302 381 435
#     4  11  27  47  76 105 150 199 241 312 379 439
#     4  12  24  50  70 112 148 192 248 314 368 442
#     4  11  26  48  74 109 148 193 251 302 376 447
#     4  11  24  48  69 110 146 195 241 310 365 444
#     4  11  24  47  72 108 146 189 253 301 369 454
#
# _framework density 23.036843000000001
#
# number of rings (size 3 to 8) (size 9 to 14) (size 15 to 20)
#    0.000    0.727    5.455    1.091   10.182    1.455 
#    0.000    0.909    0.000    0.000    0.000    0.000 
#    0.000    0.000    0.000    0.000    0.000    0.000 
#
# Total GULP energy -123038.395187 kJ/mol
# GULP energy per Si atom -5592.654327 kJ/mol
# Density = 2.298441 g / cm^3
# Si number density = 23.036843 Si / 1000 Ang^3
#
#
#
# Elastic Constant Matrix: (Units=GPa)
#
#
# Indices 1 2 3 4 5 6 
#
# 1 147.6663 56.8738 31.6207 0.0002 -0.0008 0.0000
# 2 56.8738 102.4685 19.0432 -0.0001 -0.0004 -0.0001
# 3 31.6207 19.0432 63.8024 0.0008 -0.0011 0.0001
# 4 0.0002 -0.0001 0.0008 21.6207 -0.0006 -0.0001
# 5 -0.0008 -0.0004 -0.0011 -0.0006 53.7437 -0.0001
# 6 0.0000 -0.0001 0.0001 -0.0001 -0.0001 39.3097
#
#
#
# Elastic Compliance Matrix: (Units=1/GPa)
#
#
# Indices 1 2 3 4 5 6 
#
# 1 0.009196 -0.004507 -0.003212 0.000000 0.000000 0.000000
# 2 -0.004507 0.012541 -0.001509 0.000000 0.000000 0.000000
# 3 -0.003212 -0.001509 0.017716 -0.000001 0.000000 0.000000
# 4 0.000000 0.000000 -0.000001 0.046252 0.000001 0.000000
# 5 0.000000 0.000000 0.000000 0.000001 0.018607 0.000000
# 6 0.000000 0.000000 0.000000 0.000000 0.000000 0.025439
#
#
# Mechanical properties :
#
#
# Convention : Reuss Voigt Hill
#
# Bulk Modulus (GPa) = 47.62949 58.77916 53.20432
# Shear Modulus (GPa) = 32.21510 36.69477 34.45493
#
# Velocity S-wave (km/s) = 3.74360 3.99541 3.87155
# Velocity P-wave (km/s) = 6.27744 6.84508 6.56740
#
# Compressibility (1/GPa) = 0.02099540
#
# Stress axis : x y z
#
# Youngs Moduli (GPa) = 108.74575 79.73727 56.44634
#
# Poissons Ratio (x) = 0.35938 0.18132
# Poissons Ratio (y) = 0.49012 0.08521
# Poissons Ratio (z) = 0.34932 0.12036
#
# Static dielectric constant tensor:
#      x y z
#    x 1.720490 0.000000 0.000000 
#    y 0.000000 1.805140 0.000000 
#    z 0.000000 0.000000 1.882810 
# 
# From -- ./inp_files/2909.got.cif
#   From: 2010.05.17/outbox.cif.g08.bks.cpg/sg43_2_cif.got.tgz:2909.got - 2010.06.03 19:21:55.
