data_PCOD9372347
_publ_section_title
;
Structure prediction by ZEFSAII (Michael W. Deem and Ramdas Pophale) SiO2 
 PCOD9372347
Probable space group: F D D 2
;
_chemical_formula_sum "Si O2"
_cell_formula_units_Z 120
_cell_length_a 15.319592
_cell_length_b 15.563568
_cell_length_c 23.785206
_cell_angle_alpha 90.000000
_cell_angle_beta 90.000000
_cell_angle_gamma 90.000000
_cell_volume 5671.047485
_symmetry_space_group_name_H-M "F D D 2"
_symmetry_group_IT_number 43
_symmetry_cell_setting 'orthorhombic'
loop_
_space_group_symop_operation_xyz
x,y,z
-x,-y,z
1/4-x,1/4+y,1/4+z
1/4+x,1/4-y,1/4+z
x,1/2+y,1/2+z
-x,1/2-y,1/2+z
1/4-x,3/4+y,3/4+z
1/4+x,3/4-y,3/4+z
1/2+x,y,1/2+z
1/2-x,-y,1/2+z
3/4-x,1/4+y,3/4+z
3/4+x,1/4-y,3/4+z
1/2+x,1/2+y,z
1/2-x,1/2-y,z
3/4-x,3/4+y,1/4+z
3/4+x,3/4-y,1/4+z
loop_
_atom_site_type_symbol
_atom_site_label
_atom_site_fract_x
_atom_site_fract_y
_atom_site_fract_z
Si Si1 0.956747 0.262197 0.423040
Si Si2 0.326909 0.995907 0.965812
Si Si3 0.792514 0.842653 0.972767
Si Si4 0.390039 0.215108 0.592573
Si Si5 0.489153 0.906739 0.346977
Si Si6 0.209134 0.570114 0.296791
Si Si7 0.000000 0.500000 0.031263
Si Si8 0.225885 0.615289 0.070900
O O1 0.881687 0.330527 0.440081
O O2 0.016584 0.331298 0.389458
O O3 0.966985 0.206667 0.480351
O O4 0.945020 0.193827 0.373037
O O5 0.351113 0.950799 0.908606
O O6 0.265986 0.077633 0.954017
O O7 0.418073 0.023100 0.993055
O O8 0.288346 0.934112 0.012883
O O9 0.750000 0.750000 0.962182
O O10 0.797677 0.850408 0.040388
O O11 0.487191 0.240471 0.572989
O O12 0.328878 0.137878 0.572184
O O13 0.331063 0.298335 0.576822
O O14 0.389264 0.911472 0.320185
O O15 0.500000 0.000000 0.373726
O O16 0.260375 0.659145 0.311998
#
# Coordination Sequence:
#
# PCOD9372347 Si02
#       8
#    16  16  16  16  16  16   8  16
#     4  12  23  41  71  96 134 184 225 289 358 410
#     4  12  22  41  67  99 137 173 228 286 347 418
#     4  11  20  39  65  97 133 169 222 286 348 408
#     4  11  25  42  64  99 140 180 232 282 342 420
#     4  11  23  44  65  99 141 174 228 298 345 412
#     4  12  23  42  67 102 137 181 232 282 352 423
#     4  12  20  38  68 102 138 168 222 286 342 414
#     4  11  24  43  67  97 139 183 223 289 350 412
#
# _framework density 21.160112999999999
#
# number of rings (size 3 to 8) (size 9 to 14) (size 15 to 20)
#    0.000    0.533    6.667    4.000    0.000    0.000 
#    7.200    0.000    0.000    0.000    0.000    0.000 
#    0.000    0.000    0.000    0.000    0.000    0.000 
#
# Total GULP energy -167111.214589 kJ/mol
# GULP energy per Si atom -5570.373820 kJ/mol
# Density = 2.111195 g / cm^3
# Si number density = 21.160113 Si / 1000 Ang^3
#
#
#
# Elastic Constant Matrix: (Units=GPa)
#
#
# Indices 1 2 3 4 5 6 
#
# 1 50.6404 23.5507 11.9752 0.0000 0.0000 0.0000
# 2 23.5507 90.3225 42.9642 0.0000 0.0000 0.0000
# 3 11.9752 42.9642 60.2376 0.0000 0.0000 0.0000
# 4 0.0000 0.0000 0.0000 1072.3366 0.0000 0.0000
# 5 0.0000 0.0000 0.0000 0.0000 12.4313 0.0000
# 6 0.0000 0.0000 0.0000 0.0000 0.0000 32.7838
#
#
#
# Elastic Compliance Matrix: (Units=1/GPa)
#
#
# Indices 1 2 3 4 5 6 
#
# 1 0.022480 -0.005654 -0.000436 0.000000 0.000000 0.000000
# 2 -0.005654 0.018178 -0.011842 0.000000 0.000000 0.000000
# 3 -0.000436 -0.011842 0.025134 0.000000 0.000000 0.000000
# 4 0.000000 0.000000 0.000000 0.000933 0.000000 0.000000
# 5 0.000000 0.000000 0.000000 0.000000 0.080442 0.000000
# 6 0.000000 0.000000 0.000000 0.000000 0.000000 0.030503
#
#
# Mechanical properties :
#
#
# Convention : Reuss Voigt Hill
#
# Bulk Modulus (GPa) = 33.41351 39.79783 36.60567
# Shear Modulus (GPa) = 22.37047 231.69103 127.03075
#
# Velocity S-wave (km/s) = 3.25499 10.47530 7.75651
# Velocity P-wave (km/s) = 5.47281 12.85138 9.87699
#
# Compressibility (1/GPa) = 0.02992802
#
# Stress axis : x y z
#
# Youngs Moduli (GPa) = 44.48479 55.01032 39.78716
#
# Poissons Ratio (x) = 0.31101 0.01736
# Poissons Ratio (y) = 0.25151 0.47115
# Poissons Ratio (z) = 0.01941 0.65142
#
# Static dielectric constant tensor:
#      x y z
#    x 1.897270 0.000000 0.000000 
#    y 0.000000 -2.309310 0.000000 
#    z 0.000000 0.000000 1.790170 
# 
# From -- ./inp_files/22133.got.cif
#   From: 2010.05.17/outbox.cif.g08.bks.cpg/sg43_12_cif.got.tgz:22133.got - 2010.06.03 19:21:55.
