data_PCOD9372033
_publ_section_title
;
Structure prediction by ZEFSAII (Michael W. Deem and Ramdas Pophale) SiO2 
 PCOD9372033
Probable space group: F D D 2
;
_chemical_formula_sum "Si O2"
_cell_formula_units_Z 88
_cell_length_a 13.884385
_cell_length_b 17.868033
_cell_length_c 14.624411
_cell_angle_alpha 90.000000
_cell_angle_beta 90.000000
_cell_angle_gamma 90.000000
_cell_volume 3628.121124
_symmetry_space_group_name_H-M "F D D 2"
_symmetry_group_IT_number 43
_symmetry_cell_setting 'orthorhombic'
loop_
_space_group_symop_operation_xyz
x,y,z
-x,-y,z
1/4-x,1/4+y,1/4+z
1/4+x,1/4-y,1/4+z
x,1/2+y,1/2+z
-x,1/2-y,1/2+z
1/4-x,3/4+y,3/4+z
1/4+x,3/4-y,3/4+z
1/2+x,y,1/2+z
1/2-x,-y,1/2+z
3/4-x,1/4+y,3/4+z
3/4+x,1/4-y,3/4+z
1/2+x,1/2+y,z
1/2-x,1/2-y,z
3/4-x,3/4+y,1/4+z
3/4+x,3/4-y,1/4+z
loop_
_atom_site_type_symbol
_atom_site_label
_atom_site_fract_x
_atom_site_fract_y
_atom_site_fract_z
Si Si1 0.086744 0.604463 0.335290
Si Si2 0.291424 0.906119 0.004340
Si Si3 0.500000 0.500000 0.157197
Si Si4 0.617848 0.837480 0.290022
Si Si5 0.290169 0.519073 0.839668
Si Si6 0.246926 0.889993 0.215132
O O1 0.981528 0.637586 0.336535
O O2 0.140864 0.602773 0.432333
O O3 0.104350 0.515852 0.316326
O O4 0.156415 0.643096 0.261587
O O5 0.272029 0.910973 0.111765
O O6 0.258697 0.823418 0.970268
O O7 0.403609 0.910502 0.976891
O O8 0.589988 0.513606 0.088198
O O9 0.512620 0.719826 0.195445
O O10 0.705489 0.896085 0.308195
O O11 0.226121 0.463994 0.778419
#
# Coordination Sequence:
#
# PCOD9372033 Si02
#       6
#    16  16   8  16  16  16
#     4  10  24  42  71 103 145 197 246 312 368 451
#     4  11  24  46  69 104 151 185 256 303 380 459
#     4  10  28  38  76 106 140 204 232 326 370 450
#     4  11  23  43  70 107 147 188 252 300 370 448
#     4   9  25  41  68 101 138 197 245 308 367 441
#     4  10  25  44  71 105 145 197 244 309 388 446
#
# _framework density 24.25498
#
# number of rings (size 3 to 8) (size 9 to 14) (size 15 to 20)
#    1.091    0.727    0.000    1.636   10.182    2.909 
#    0.000    0.000    0.000    0.000    0.000    0.000 
#    0.000    0.000    0.000    0.000    0.000    0.000 
#
# Total GULP energy -122592.785005 kJ/mol
# GULP energy per Si atom -5572.399318 kJ/mol
# Density = 2.419977 g / cm^3
# Si number density = 24.254980 Si / 1000 Ang^3
#
#
#
# Elastic Constant Matrix: (Units=GPa)
#
#
# Indices 1 2 3 4 5 6 
#
# 1 112.7965 20.8309 46.1804 0.0000 0.0000 0.0000
# 2 20.8309 53.2217 17.9045 0.0000 0.0000 0.0000
# 3 46.1804 17.9045 178.8444 0.0000 0.0000 0.0000
# 4 0.0000 0.0000 0.0000 25.4941 0.0000 0.0000
# 5 0.0000 0.0000 0.0000 0.0000 28.9884 0.0000
# 6 0.0000 0.0000 0.0000 0.0000 0.0000 37.6049
#
#
#
# Elastic Compliance Matrix: (Units=1/GPa)
#
#
# Indices 1 2 3 4 5 6 
#
# 1 0.010442 -0.003291 -0.002367 0.000000 0.000000 0.000000
# 2 -0.003291 0.020481 -0.001201 0.000000 0.000000 0.000000
# 3 -0.002367 -0.001201 0.006323 0.000000 0.000000 0.000000
# 4 0.000000 0.000000 0.000000 0.039225 0.000000 0.000000
# 5 0.000000 0.000000 0.000000 0.000000 0.034497 0.000000
# 6 0.000000 0.000000 0.000000 0.000000 0.000000 0.026592
#
#
# Mechanical properties :
#
#
# Convention : Reuss Voigt Hill
#
# Bulk Modulus (GPa) = 42.49975 57.18825 49.84400
# Shear Modulus (GPa) = 31.42280 35.74726 33.58503
#
# Velocity S-wave (km/s) = 3.60324 3.84319 3.72515
# Velocity P-wave (km/s) = 5.90518 6.58199 6.25275
#
# Compressibility (1/GPa) = 0.02352955
#
# Stress axis : x y z
#
# Youngs Moduli (GPa) = 95.76419 48.82508 158.15707
#
# Poissons Ratio (x) = 0.16068 0.37434
# Poissons Ratio (y) = 0.31515 0.18990
# Poissons Ratio (z) = 0.22667 0.05862
#
# Static dielectric constant tensor:
#      x y z
#    x 2.002120 0.000000 0.000000 
#    y 0.000000 2.103050 0.000000 
#    z 0.000000 0.000000 2.068660 
# 
# From -- ./inp_files/10585.got.cif
#   From: 2010.05.17/outbox.cif.g08.bks.cpg/sg43_6_cif.got.tgz:10585.got - 2010.06.03 19:21:55.
