data_PCOD9372312
_publ_section_title
;
Structure prediction by ZEFSAII (Michael W. Deem and Ramdas Pophale) SiO2 
 PCOD9372312
Probable space group: F D D 2
;
_chemical_formula_sum "Si O2"
_cell_formula_units_Z 56
_cell_length_a 31.377015
_cell_length_b 14.869024
_cell_length_c 4.894159
_cell_angle_alpha 90.000000
_cell_angle_beta 90.000000
_cell_angle_gamma 90.000000
_cell_volume 2283.348294
_symmetry_space_group_name_H-M "F D D 2"
_symmetry_group_IT_number 43
_symmetry_cell_setting 'orthorhombic'
loop_
_space_group_symop_operation_xyz
x,y,z
-x,-y,z
1/4-x,1/4+y,1/4+z
1/4+x,1/4-y,1/4+z
x,1/2+y,1/2+z
-x,1/2-y,1/2+z
1/4-x,3/4+y,3/4+z
1/4+x,3/4-y,3/4+z
1/2+x,y,1/2+z
1/2-x,-y,1/2+z
3/4-x,1/4+y,3/4+z
3/4+x,1/4-y,3/4+z
1/2+x,1/2+y,z
1/2-x,1/2-y,z
3/4-x,3/4+y,1/4+z
3/4+x,3/4-y,1/4+z
loop_
_atom_site_type_symbol
_atom_site_label
_atom_site_fract_x
_atom_site_fract_y
_atom_site_fract_z
Si Si1 0.135624 0.394931 0.944850
Si Si2 0.339709 0.290912 0.154363
Si Si3 0.480422 0.301689 0.684370
Si Si4 0.500000 0.000000 0.318736
O O1 0.117534 0.434157 0.665250
O O2 0.179969 0.447495 0.009359
O O3 0.150166 0.291523 0.946598
O O4 0.100116 0.384041 0.182362
O O5 0.291911 0.271077 0.244255
O O6 0.491253 0.244789 0.417416
O O7 0.492696 0.407158 0.655628
#
# Coordination Sequence:
#
# PCOD9372312 Si02
#       4
#    16  16  16   8
#     4  11  25  43  70 107 138 188 244 293 375 436
#     4  11  25  45  71 104 144 187 240 303 367 433
#     4  11  26  46  75 105 142 191 241 299 370 433
#     4  10  28  48  72 108 148 188 246 304 360 434
#
# _framework density 24.525386000000001
#
# number of rings (size 3 to 8) (size 9 to 14) (size 15 to 20)
#    0.000    1.143    0.000    3.429   12.000    9.143 
#    0.000    0.000    0.000    0.000    0.000    0.000 
#    0.000    0.000    0.000    0.000    0.000    0.000 
#
# Total GULP energy -78085.868702 kJ/mol
# GULP energy per Si atom -5577.562050 kJ/mol
# Density = 2.446957 g / cm^3
# Si number density = 24.525386 Si / 1000 Ang^3
#
#
#
# Elastic Constant Matrix: (Units=GPa)
#
#
# Indices 1 2 3 4 5 6 
#
# 1 126.8911 33.0654 25.2025 -0.0002 -0.0005 0.0019
# 2 33.0654 113.7789 38.3571 -0.0004 -0.0025 0.0003
# 3 25.2025 38.3571 111.9722 -0.0005 -0.0032 0.0007
# 4 -0.0002 -0.0004 -0.0005 17.0448 -0.0029 0.0001
# 5 -0.0005 -0.0025 -0.0032 -0.0029 462.5116 0.0104
# 6 0.0019 0.0003 0.0007 0.0001 0.0104 95.8608
#
#
#
# Elastic Compliance Matrix: (Units=1/GPa)
#
#
# Indices 1 2 3 4 5 6 
#
# 1 0.008674 -0.002106 -0.001231 0.000000 0.000000 0.000000
# 2 -0.002106 0.010448 -0.003105 0.000000 0.000000 0.000000
# 3 -0.001231 -0.003105 0.010272 0.000000 0.000000 0.000000
# 4 0.000000 0.000000 0.000000 0.058669 0.000000 0.000000
# 5 0.000000 0.000000 0.000000 0.000000 0.002162 0.000000
# 6 0.000000 0.000000 0.000000 0.000000 0.000000 0.010432
#
#
# Mechanical properties :
#
#
# Convention : Reuss Voigt Hill
#
# Bulk Modulus (GPa) = 60.57041 60.65467 60.61254
# Shear Modulus (GPa) = 42.00167 132.15125 87.07646
#
# Velocity S-wave (km/s) = 4.14282 7.34850 5.96504
# Velocity P-wave (km/s) = 6.90178 9.83797 8.49765
#
# Compressibility (1/GPa) = 0.01650971
#
# Stress axis : x y z
#
# Youngs Moduli (GPa) = 115.28724 95.71493 97.35675
#
# Poissons Ratio (x) = 0.20155 0.11984
# Poissons Ratio (y) = 0.24277 0.30229
# Poissons Ratio (z) = 0.14192 0.29719
#
# Static dielectric constant tensor:
#      x y z
#    x 0.322650 0.000000 0.000010 
#    y 0.000000 2.144060 0.000000 
#    z 0.000010 0.000000 1.858640 
# 
# From -- ./inp_files/315.got.cif
#   From: 2010.05.17/outbox.cif.g08.bks.cpg/sg43_1_cif.got.tgz:315.got - 2010.06.03 19:21:55.
