data_PCOD9372515
_publ_section_title
;
Structure prediction by ZEFSAII (Michael W. Deem and Ramdas Pophale) SiO2 
 PCOD9372515
Probable space group: F D D 2
;
_chemical_formula_sum "Si O2"
_cell_formula_units_Z 88
_cell_length_a 12.230922
_cell_length_b 20.919600
_cell_length_c 16.402831
_cell_angle_alpha 90.000000
_cell_angle_beta 90.000000
_cell_angle_gamma 90.000000
_cell_volume 4196.926689
_symmetry_space_group_name_H-M "F D D 2"
_symmetry_group_IT_number 43
_symmetry_cell_setting 'orthorhombic'
loop_
_space_group_symop_operation_xyz
x,y,z
-x,-y,z
1/4-x,1/4+y,1/4+z
1/4+x,1/4-y,1/4+z
x,1/2+y,1/2+z
-x,1/2-y,1/2+z
1/4-x,3/4+y,3/4+z
1/4+x,3/4-y,3/4+z
1/2+x,y,1/2+z
1/2-x,-y,1/2+z
3/4-x,1/4+y,3/4+z
3/4+x,1/4-y,3/4+z
1/2+x,1/2+y,z
1/2-x,1/2-y,z
3/4-x,3/4+y,1/4+z
3/4+x,3/4-y,1/4+z
loop_
_atom_site_type_symbol
_atom_site_label
_atom_site_fract_x
_atom_site_fract_y
_atom_site_fract_z
Si Si1 0.000000 0.000000 0.764470
Si Si2 0.634651 0.706111 0.318788
Si Si3 0.924724 0.675809 0.401648
Si Si4 0.062430 0.247222 0.146815
Si Si5 0.150304 0.128482 0.976591
Si Si6 0.660044 0.306895 0.075128
O O1 0.896620 0.994490 0.823407
O O2 0.019180 0.936998 0.713629
O O3 0.750000 0.750000 0.326234
O O4 0.552495 0.753940 0.364823
O O5 0.612418 0.706479 0.221612
O O6 0.605581 0.633728 0.348565
O O7 0.886088 0.634776 0.323549
O O8 0.843367 0.687311 0.476745
O O9 0.033952 0.644780 0.437983
O O10 0.049546 0.316204 0.187246
O O11 0.950853 0.221478 0.111578
O O12 0.750000 0.250000 0.094558
#
# Coordination Sequence:
#
# PCOD9372515 Si02
#       6
#     8  16  16  16  16  16
#     4  12  20  38  74  98 136 180 252 302 358 428
#     4  11  25  43  75 104 138 193 258 303 363 452
#     4  11  23  41  71 104 138 185 247 305 362 440
#     4  11  24  42  69 101 140 183 247 315 363 436
#     4  11  23  42  70 107 135 186 247 306 369 440
#     4  12  27  44  68 104 151 192 237 311 385 448
#
# _framework density 20.967722999999999
#
# number of rings (size 3 to 8) (size 9 to 14) (size 15 to 20)
#    0.000    0.727    4.545    3.818    5.091    1.455 
#    0.000    0.000    8.000    0.000    0.000    0.000 
#    0.000    0.000    0.000    0.000    0.000    0.000 
#
# Total GULP energy -122585.251772 kJ/mol
# GULP energy per Si atom -5572.056899 kJ/mol
# Density = 2.092000 g / cm^3
# Si number density = 20.967723 Si / 1000 Ang^3
#
#
#
# Elastic Constant Matrix: (Units=GPa)
#
#
# Indices 1 2 3 4 5 6 
#
# 1 104.6958 77.1953 30.9160 0.0000 0.0000 0.0000
# 2 77.1953 196.7463 39.3479 0.0000 0.0000 0.0000
# 3 30.9160 39.3479 65.2085 0.0000 0.0000 0.0000
# 4 0.0000 0.0000 0.0000 -2.0765 0.0000 0.0000
# 5 0.0000 0.0000 0.0000 0.0000 24.4215 0.0000
# 6 0.0000 0.0000 0.0000 0.0000 0.0000 38.2580
#
#
#
# Elastic Compliance Matrix: (Units=1/GPa)
#
#
# Indices 1 2 3 4 5 6 
#
# 1 0.014239 -0.004818 -0.003844 0.000000 0.000000 0.000000
# 2 -0.004818 0.007411 -0.002187 0.000000 0.000000 0.000000
# 3 -0.003844 -0.002187 0.018478 0.000000 0.000000 0.000000
# 4 0.000000 0.000000 0.000000 -0.481576 0.000000 0.000000
# 5 0.000000 0.000000 0.000000 0.000000 0.040948 0.000000
# 6 0.000000 0.000000 0.000000 0.000000 0.000000 0.026138
#
#
# Mechanical properties :
#
#
# Convention : Reuss Voigt Hill
#
# Bulk Modulus (GPa) = 54.26184 73.50768 63.88476
# Shear Modulus (GPa) = -14.42909 26.73334 6.15213
#
# Velocity S-wave (km/s) = -2.62612 3.57455 1.71478
# Velocity P-wave (km/s) = 4.09140 7.22290 5.86983
#
# Compressibility (1/GPa) = 0.01842916
#
# Stress axis : x y z
#
# Youngs Moduli (GPa) = 70.22962 134.94217 54.11966
#
# Poissons Ratio (x) = 0.65017 0.20801
# Poissons Ratio (y) = 0.33838 0.11838
# Poissons Ratio (z) = 0.26993 0.29516
#
# Static dielectric constant tensor:
#      x y z
#    x 1.781200 0.000000 0.000000 
#    y 0.000000 1.890710 0.000000 
#    z 0.000000 0.000000 1.768660 
# 
# From -- ./inp_files/13266.got.cif
#   From: 2010.05.17/outbox.cif.g08.bks.cpg/sg43_7_cif.got.tgz:13266.got - 2010.06.03 19:21:55.
