data_PCOD9372555
_publ_section_title
;
Structure prediction by ZEFSAII (Michael W. Deem and Ramdas Pophale) SiO2 
 PCOD9372555
Probable space group: F D D 2
;
_chemical_formula_sum "Si O2"
_cell_formula_units_Z 104
_cell_length_a 29.494366
_cell_length_b 19.352813
_cell_length_c 8.649041
_cell_angle_alpha 90.000000
_cell_angle_beta 90.000000
_cell_angle_gamma 90.000000
_cell_volume 4936.863519
_symmetry_space_group_name_H-M "F D D 2"
_symmetry_group_IT_number 43
_symmetry_cell_setting 'orthorhombic'
loop_
_space_group_symop_operation_xyz
x,y,z
-x,-y,z
1/4-x,1/4+y,1/4+z
1/4+x,1/4-y,1/4+z
x,1/2+y,1/2+z
-x,1/2-y,1/2+z
1/4-x,3/4+y,3/4+z
1/4+x,3/4-y,3/4+z
1/2+x,y,1/2+z
1/2-x,-y,1/2+z
3/4-x,1/4+y,3/4+z
3/4+x,1/4-y,3/4+z
1/2+x,1/2+y,z
1/2-x,1/2-y,z
3/4-x,3/4+y,1/4+z
3/4+x,3/4-y,1/4+z
loop_
_atom_site_type_symbol
_atom_site_label
_atom_site_fract_x
_atom_site_fract_y
_atom_site_fract_z
Si Si1 0.993127 0.651672 0.816880
Si Si2 0.972377 0.394981 0.523078
Si Si3 0.569578 0.483804 0.242004
Si Si4 0.414978 0.821787 0.011290
Si Si5 0.836232 0.720361 0.842524
Si Si6 0.320969 0.025456 0.091233
Si Si7 0.500000 0.000000 0.301344
O O1 0.965527 0.578969 0.786674
O O2 0.960589 0.710499 0.883822
O O3 0.008956 0.661707 0.641067
O O4 0.040138 0.657216 0.914505
O O5 0.948343 0.455808 0.626063
O O6 0.944066 0.349309 0.404283
O O7 0.008021 0.435449 0.415683
O O8 0.619007 0.457199 0.182902
O O9 0.577655 0.514743 0.412089
O O10 0.398821 0.891355 0.095806
O O11 0.428747 0.773477 0.154089
O O12 0.878215 0.764726 0.898556
O O13 0.792302 0.734474 0.943232
#
# Coordination Sequence:
#
# PCOD9372555 Si02
#       7
#    16  16  16  16  16  16   8
#     4  12  23  45  71 101 141 185 231 294 366 419
#     4  12  25  44  69 107 143 183 241 297 354 434
#     4  11  24  44  73 101 137 189 242 289 356 440
#     4  11  23  44  72  99 135 188 238 281 359 437
#     4  11  23  46  69  95 138 187 233 293 358 431
#     4  11  26  46  66 102 144 177 237 302 353 428
#     4  12  24  42  72 102 134 184 242 292 358 434
#
# _framework density 21.066008
#
# number of rings (size 3 to 8) (size 9 to 14) (size 15 to 20)
#    0.000    0.615    6.154    1.846    0.000    1.231 
#    8.308    0.000    0.000    0.000    0.000    0.000 
#    0.000    0.000    0.000    0.000    0.000    0.000 
#
# Total GULP energy -144806.576600 kJ/mol
# GULP energy per Si atom -5569.483715 kJ/mol
# Density = 2.101806 g / cm^3
# Si number density = 21.066008 Si / 1000 Ang^3
#
#
#
# Elastic Constant Matrix: (Units=GPa)
#
#
# Indices 1 2 3 4 5 6 
#
# 1 114.6161 46.3400 26.6020 0.0000 0.0000 0.0000
# 2 46.3400 86.6310 14.4561 -0.0002 0.0000 0.0000
# 3 26.6020 14.4561 57.0708 -0.0005 0.0000 0.0000
# 4 0.0000 -0.0002 -0.0005 34.7059 0.0000 0.0000
# 5 0.0000 0.0000 0.0000 0.0000 17.8882 0.0000
# 6 0.0000 0.0000 0.0000 0.0000 0.0000 30.8243
#
#
#
# Elastic Compliance Matrix: (Units=1/GPa)
#
#
# Indices 1 2 3 4 5 6 
#
# 1 0.012003 -0.005729 -0.004144 0.000000 0.000000 0.000000
# 2 -0.005729 0.014787 -0.001075 0.000000 0.000000 0.000000
# 3 -0.004144 -0.001075 0.019726 0.000000 0.000000 0.000000
# 4 0.000000 0.000000 0.000000 0.028814 0.000000 0.000000
# 5 0.000000 0.000000 0.000000 0.000000 0.055903 0.000000
# 6 0.000000 0.000000 0.000000 0.000000 0.000000 0.032442
#
#
# Mechanical properties :
#
#
# Convention : Reuss Voigt Hill
#
# Bulk Modulus (GPa) = 40.61701 48.12379 44.37040
# Shear Modulus (GPa) = 25.80292 28.07832 26.94062
#
# Velocity S-wave (km/s) = 3.50360 3.65481 3.58000
# Velocity P-wave (km/s) = 5.97408 6.37998 6.18036
#
# Compressibility (1/GPa) = 0.02462023
#
# Stress axis : x y z
#
# Youngs Moduli (GPa) = 83.31420 67.62633 50.69486
#
# Poissons Ratio (x) = 0.38743 0.21006
# Poissons Ratio (y) = 0.47731 0.05451
# Poissons Ratio (z) = 0.34522 0.07271
#
# Static dielectric constant tensor:
#      x y z
#    x 1.820110 0.000000 0.000000 
#    y 0.000000 1.781810 0.000000 
#    z 0.000000 0.000000 1.796690 
# 
# From -- ./inp_files/3471.got.cif
#   From: 2010.05.17/outbox.cif.g08.bks.cpg/sg43_2_cif.got.tgz:3471.got - 2010.06.03 19:21:55.
