data_PCOD9372727
_publ_section_title
;
Structure prediction by ZEFSAII (Michael W. Deem and Ramdas Pophale) SiO2 
 PCOD9372727
Probable space group: F D D 2
;
_chemical_formula_sum "Si O2"
_cell_formula_units_Z 64
_cell_length_a 4.890121
_cell_length_b 25.669032
_cell_length_c 20.610758
_cell_angle_alpha 90.000000
_cell_angle_beta 90.000000
_cell_angle_gamma 90.000000
_cell_volume 2587.158647
_symmetry_space_group_name_H-M "F D D 2"
_symmetry_group_IT_number 43
_symmetry_cell_setting 'orthorhombic'
loop_
_space_group_symop_operation_xyz
x,y,z
-x,-y,z
1/4-x,1/4+y,1/4+z
1/4+x,1/4-y,1/4+z
x,1/2+y,1/2+z
-x,1/2-y,1/2+z
1/4-x,3/4+y,3/4+z
1/4+x,3/4-y,3/4+z
1/2+x,y,1/2+z
1/2-x,-y,1/2+z
3/4-x,1/4+y,3/4+z
3/4+x,1/4-y,3/4+z
1/2+x,1/2+y,z
1/2-x,1/2-y,z
3/4-x,3/4+y,1/4+z
3/4+x,3/4-y,1/4+z
loop_
_atom_site_type_symbol
_atom_site_label
_atom_site_fract_x
_atom_site_fract_y
_atom_site_fract_z
Si Si1 0.449863 0.939245 0.802590
Si Si2 0.750000 0.750000 0.293484
Si Si3 0.607491 0.806215 0.695540
Si Si4 0.058337 0.594363 0.233080
Si Si5 0.250000 0.750000 0.385953
O O1 0.292859 0.933836 0.870412
O O2 0.752340 0.916510 0.796120
O O3 0.258660 0.912160 0.749640
O O4 0.500000 0.000000 0.789090
O O5 0.631280 0.704106 0.247544
O O6 0.499916 0.766953 0.339606
O O7 0.750000 0.750000 0.695236
O O8 0.825674 0.850746 0.710917
O O9 0.102390 0.548120 0.180287
#
# Coordination Sequence:
#
# PCOD9372727 Si02
#       5
#    16   8  16  16   8
#     4  11  25  49  80 112 153 201 270 326 385 471
#     4  12  28  51  72 117 166 206 260 322 402 480
#     4  11  30  49  77 112 160 210 258 322 395 474
#     4  12  27  49  79 116 151 205 262 328 398 459
#     4  12  26  49  82 111 164 202 262 336 394 478
#
# _framework density 24.737563999999999
#
# number of rings (size 3 to 8) (size 9 to 14) (size 15 to 20)
#    0.000    0.500    3.750    1.500   14.000    0.000 
#    0.000    0.000    0.000    0.000    0.000    0.000 
#    0.000    0.000    0.000    0.000    0.000    0.000 
#
# Total GULP energy -89508.981533 kJ/mol
# GULP energy per Si atom -5594.311346 kJ/mol
# Density = 2.468126 g / cm^3
# Si number density = 24.737564 Si / 1000 Ang^3
#
#
#
# Elastic Constant Matrix: (Units=GPa)
#
#
# Indices 1 2 3 4 5 6 
#
# 1 148.9319 35.8263 55.2708 0.0000 0.0000 0.0000
# 2 35.8263 161.5365 47.2143 0.0000 0.0000 0.0000
# 3 55.2708 47.2143 123.7139 0.0000 0.0000 0.0000
# 4 0.0000 0.0000 0.0000 -10.5826 0.0000 0.0000
# 5 0.0000 0.0000 0.0000 0.0000 42.1707 0.0000
# 6 0.0000 0.0000 0.0000 0.0000 0.0000 29.9563
#
#
#
# Elastic Compliance Matrix: (Units=1/GPa)
#
#
# Indices 1 2 3 4 5 6 
#
# 1 0.008148 -0.000836 -0.003321 0.000000 0.000000 0.000000
# 2 -0.000836 0.007054 -0.002318 0.000000 0.000000 0.000000
# 3 -0.003321 -0.002318 0.010452 0.000000 0.000000 0.000000
# 4 0.000000 0.000000 0.000000 -0.094495 0.000000 0.000000
# 5 0.000000 0.000000 0.000000 0.000000 0.023713 0.000000
# 6 0.000000 0.000000 0.000000 0.000000 0.000000 0.033382
#
#
# Mechanical properties :
#
#
# Convention : Reuss Voigt Hill
#
# Bulk Modulus (GPa) = 78.72846 78.97835 78.85340
# Shear Modulus (GPa) = 919.26600 32.03361 475.64981
#
# Velocity S-wave (km/s) = 19.29803 3.60243 13.88149
# Velocity P-wave (km/s) = 22.98797 7.02133 16.99626
#
# Compressibility (1/GPa) = 0.01270189
#
# Stress axis : x y z
#
# Youngs Moduli (GPa) = 122.72654 141.77056 95.67862
#
# Poissons Ratio (x) = 0.11858 0.31776
# Poissons Ratio (y) = 0.10265 0.22181
# Poissons Ratio (z) = 0.40759 0.32866
#
# Static dielectric constant tensor:
#      x y z
#    x 1.927350 0.000000 0.000000 
#    y 0.000000 1.962690 0.000000 
#    z 0.000000 0.000000 1.987790 
# 
# From -- ./inp_files/15587.got.cif
#   From: 2010.05.17/outbox.cif.g08.bks.cpg/sg43_8_cif.got.tgz:15587.got - 2010.06.03 19:21:55.
