data_PCOD9372549
_publ_section_title
;
Structure prediction by ZEFSAII (Michael W. Deem and Ramdas Pophale) SiO2 
 PCOD9372549
Probable space group: F D D 2
;
_chemical_formula_sum "Si O2"
_cell_formula_units_Z 96
_cell_length_a 19.767600
_cell_length_b 9.202502
_cell_length_c 27.927969
_cell_angle_alpha 90.000000
_cell_angle_beta 90.000000
_cell_angle_gamma 90.000000
_cell_volume 5080.415340
_symmetry_space_group_name_H-M "F D D 2"
_symmetry_group_IT_number 43
_symmetry_cell_setting 'orthorhombic'
loop_
_space_group_symop_operation_xyz
x,y,z
-x,-y,z
1/4-x,1/4+y,1/4+z
1/4+x,1/4-y,1/4+z
x,1/2+y,1/2+z
-x,1/2-y,1/2+z
1/4-x,3/4+y,3/4+z
1/4+x,3/4-y,3/4+z
1/2+x,y,1/2+z
1/2-x,-y,1/2+z
3/4-x,1/4+y,3/4+z
3/4+x,1/4-y,3/4+z
1/2+x,1/2+y,z
1/2-x,1/2-y,z
3/4-x,3/4+y,1/4+z
3/4+x,3/4-y,1/4+z
loop_
_atom_site_type_symbol
_atom_site_label
_atom_site_fract_x
_atom_site_fract_y
_atom_site_fract_z
Si Si1 0.060588 0.386465 0.325140
Si Si2 0.917983 0.861476 0.585869
Si Si3 0.541931 0.725774 0.228215
Si Si4 0.394728 0.594226 0.234074
Si Si5 0.431189 0.680502 0.619451
Si Si6 0.435333 0.398775 0.387111
O O1 0.063741 0.335005 0.270077
O O2 0.128947 0.461145 0.344152
O O3 0.046310 0.244342 0.357121
O O4 0.000000 0.500000 0.330525
O O5 0.898873 0.881812 0.530614
O O6 0.868739 0.740197 0.606731
O O7 0.995161 0.814195 0.594663
O O8 0.907386 0.014436 0.612816
O O9 0.461324 0.695728 0.231301
O O10 0.577843 0.570728 0.237060
O O11 0.560079 0.780526 0.175228
O O12 0.350045 0.609022 0.186820
O O13 0.500000 0.500000 0.394540
#
# Coordination Sequence:
#
# PCOD9372549 Si02
#       6
#    16  16  16  16  16  16
#     4  12  26  45  69 103 138 179 234 287 345 407
#     4  11  25  45  68 103 136 181 229 283 345 406
#     4  11  23  44  73  98 135 185 232 281 346 416
#     4  11  23  44  70  99 135 184 232 275 352 416
#     4  11  25  45  69 103 141 176 233 287 337 411
#     4  12  24  43  69  99 138 179 226 287 341 404
#
# _framework density 18.896091999999999
#
# number of rings (size 3 to 8) (size 9 to 14) (size 15 to 20)
#    0.000    0.667    5.000    3.000    4.667    2.000 
#    3.000    0.000    0.000    0.000    0.000    0.000 
#    0.000    0.000    0.000    0.000    0.000    0.000 
#
# Total GULP energy -134267.731114 kJ/mol
# GULP energy per Si atom -5594.488796 kJ/mol
# Density = 1.885308 g / cm^3
# Si number density = 18.896092 Si / 1000 Ang^3
#
#
#
# Elastic Constant Matrix: (Units=GPa)
#
#
# Indices 1 2 3 4 5 6 
#
# 1 104.6563 66.3333 70.0702 0.0000 0.0000 0.0000
# 2 66.3333 105.8686 59.4165 0.0000 0.0000 0.0000
# 3 70.0702 59.4165 176.6962 0.0000 0.0000 0.0000
# 4 0.0000 0.0000 0.0000 -8.2237 0.0000 0.0000
# 5 0.0000 0.0000 0.0000 0.0000 34.9150 0.0000
# 6 0.0000 0.0000 0.0000 0.0000 0.0000 33.9691
#
#
#
# Elastic Compliance Matrix: (Units=1/GPa)
#
#
# Indices 1 2 3 4 5 6 
#
# 1 0.017995 -0.008961 -0.004123 0.000000 0.000000 0.000000
# 2 -0.008961 0.016106 -0.001862 0.000000 0.000000 0.000000
# 3 -0.004123 -0.001862 0.007920 0.000000 0.000000 0.000000
# 4 0.000000 0.000000 0.000000 -0.121600 0.000000 0.000000
# 5 0.000000 0.000000 0.000000 0.000000 0.028641 0.000000
# 6 0.000000 0.000000 0.000000 0.000000 0.000000 0.029439
#
#
# Mechanical properties :
#
#
# Convention : Reuss Voigt Hill
#
# Bulk Modulus (GPa) = 82.44705 86.54013 84.49359
# Shear Modulus (GPa) = 402.04955 24.89216 213.47085
#
# Velocity S-wave (km/s) = 14.60242 3.63342 10.64031
# Velocity P-wave (km/s) = 18.11171 7.96867 13.99167
#
# Compressibility (1/GPa) = 0.01212900
#
# Stress axis : x y z
#
# Youngs Moduli (GPa) = 55.57004 62.09048 126.25489
#
# Poissons Ratio (x) = 0.55641 0.52052
# Poissons Ratio (y) = 0.49798 0.23509
# Poissons Ratio (z) = 0.22910 0.11561
#
# Static dielectric constant tensor:
#      x y z
#    x 1.635660 0.000000 0.000000 
#    y 0.000000 1.646540 0.000000 
#    z 0.000000 0.000000 1.635830 
# 
# From -- ./inp_files/24225.got.cif
#   From: 2010.05.17/outbox.cif.g08.bks.cpg/sg43_13_cif.got.tgz:24225.got - 2010.06.03 19:21:55.
