data_PCOD9372344
_publ_section_title
;
Structure prediction by ZEFSAII (Michael W. Deem and Ramdas Pophale) SiO2 
 PCOD9372344
Probable space group: F D D 2
;
_chemical_formula_sum "Si O2"
_cell_formula_units_Z 104
_cell_length_a 29.988894
_cell_length_b 8.422325
_cell_length_c 18.279636
_cell_angle_alpha 90.000000
_cell_angle_beta 90.000000
_cell_angle_gamma 90.000000
_cell_volume 4617.001211
_symmetry_space_group_name_H-M "F D D 2"
_symmetry_group_IT_number 43
_symmetry_cell_setting 'orthorhombic'
loop_
_space_group_symop_operation_xyz
x,y,z
-x,-y,z
1/4-x,1/4+y,1/4+z
1/4+x,1/4-y,1/4+z
x,1/2+y,1/2+z
-x,1/2-y,1/2+z
1/4-x,3/4+y,3/4+z
1/4+x,3/4-y,3/4+z
1/2+x,y,1/2+z
1/2-x,-y,1/2+z
3/4-x,1/4+y,3/4+z
3/4+x,1/4-y,3/4+z
1/2+x,1/2+y,z
1/2-x,1/2-y,z
3/4-x,3/4+y,1/4+z
3/4+x,3/4-y,1/4+z
loop_
_atom_site_type_symbol
_atom_site_label
_atom_site_fract_x
_atom_site_fract_y
_atom_site_fract_z
Si Si1 0.669484 0.068297 0.387890
Si Si2 0.577231 0.784504 0.523839
Si Si3 0.572288 0.715431 0.884856
Si Si4 0.301289 0.793528 0.247824
Si Si5 0.448877 0.500605 0.771893
Si Si6 0.000000 0.500000 0.474227
Si Si7 0.631875 0.028550 0.616806
O O1 0.620862 0.146510 0.401672
O O2 0.687684 0.069618 0.305550
O O3 0.699431 0.170776 0.442073
O O4 0.659336 0.882558 0.398389
O O5 0.571239 0.602754 0.545313
O O6 0.589545 0.751695 0.439037
O O7 0.531753 0.884667 0.520803
O O8 0.612721 0.882435 0.570723
O O9 0.568551 0.889699 0.919979
O O10 0.566663 0.676095 0.798026
O O11 0.534461 0.609324 0.926706
O O12 0.250000 0.750000 0.237433
O O13 0.500000 0.500000 0.794952
O O14 0.414127 0.615035 0.815122
#
# Coordination Sequence:
#
# PCOD9372344 Si02
#       7
#    16  16  16  16  16   8  16
#     4  11  23  42  65  96 137 179 224 281 353 430
#     4  12  25  43  68  99 137 175 234 290 350 412
#     4  11  21  41  68  98 129 182 234 279 348 422
#     4  12  27  42  65 101 140 182 231 290 356 422
#     4  11  20  38  70  98 130 173 231 282 342 414
#     4  12  18  42  70  96 124 174 232 288 330 428
#     4  11  23  44  67  97 130 185 228 285 348 424
#
# _framework density 22.525445000000001
#
# number of rings (size 3 to 8) (size 9 to 14) (size 15 to 20)
#    0.000    0.615    6.923    3.231    2.154    0.000 
#    0.000    0.000    0.000    0.000    2.000    0.000 
#    0.000    0.000    0.000    0.000    0.000    0.000 
#
# Total GULP energy -144828.255096 kJ/mol
# GULP energy per Si atom -5570.317504 kJ/mol
# Density = 2.247418 g / cm^3
# Si number density = 22.525445 Si / 1000 Ang^3
#
#
#
# Elastic Constant Matrix: (Units=GPa)
#
#
# Indices 1 2 3 4 5 6 
#
# 1 77.9947 29.7579 15.1810 0.0000 0.0000 0.0000
# 2 29.7579 95.4760 19.4373 0.0000 0.0000 0.0000
# 3 15.1810 19.4373 77.6617 0.0000 0.0000 0.0000
# 4 0.0000 0.0000 0.0000 31.4384 0.0000 0.0000
# 5 0.0000 0.0000 0.0000 0.0000 5.8388 0.0000
# 6 0.0000 0.0000 0.0000 0.0000 0.0000 25.0650
#
#
#
# Elastic Compliance Matrix: (Units=1/GPa)
#
#
# Indices 1 2 3 4 5 6 
#
# 1 0.014795 -0.004238 -0.001831 0.000000 0.000000 0.000000
# 2 -0.004238 0.012250 -0.002238 0.000000 0.000000 0.000000
# 3 -0.001831 -0.002238 0.013794 0.000000 0.000000 0.000000
# 4 0.000000 0.000000 0.000000 0.031808 0.000000 0.000000
# 5 0.000000 0.000000 0.000000 0.000000 0.171269 0.000000
# 6 0.000000 0.000000 0.000000 0.000000 0.000000 0.039896
#
#
# Mechanical properties :
#
#
# Convention : Reuss Voigt Hill
#
# Bulk Modulus (GPa) = 41.27933 42.20942 41.74437
# Shear Modulus (GPa) = 16.20731 24.91885 20.56308
#
# Velocity S-wave (km/s) = 2.68528 3.32965 3.02467
# Velocity P-wave (km/s) = 5.28959 5.79321 5.54712
#
# Compressibility (1/GPa) = 0.02422520
#
# Stress axis : x y z
#
# Youngs Moduli (GPa) = 67.59065 81.63003 72.49347
#
# Poissons Ratio (x) = 0.34599 0.13275
# Poissons Ratio (y) = 0.28648 0.16221
# Poissons Ratio (z) = 0.12378 0.18265
#
# Static dielectric constant tensor:
#      x y z
#    x 1.860040 0.000000 0.000000 
#    y 0.000000 1.953880 0.000000 
#    z 0.000000 0.000000 1.887390 
# 
# From -- ./inp_files/16659.got.cif
#   From: 2010.05.17/outbox.cif.g08.bks.cpg/sg43_9_cif.got.tgz:16659.got - 2010.06.03 19:21:55.
