data_PCOD9372429
_publ_section_title
;
Structure prediction by ZEFSAII (Michael W. Deem and Ramdas Pophale) SiO2 
 PCOD9372429
Probable space group: F D D 2
;
_chemical_formula_sum "Si O2"
_cell_formula_units_Z 96
_cell_length_a 11.973394
_cell_length_b 22.852324
_cell_length_c 15.314898
_cell_angle_alpha 90.000000
_cell_angle_beta 90.000000
_cell_angle_gamma 90.000000
_cell_volume 4190.460539
_symmetry_space_group_name_H-M "F D D 2"
_symmetry_group_IT_number 43
_symmetry_cell_setting 'orthorhombic'
loop_
_space_group_symop_operation_xyz
x,y,z
-x,-y,z
1/4-x,1/4+y,1/4+z
1/4+x,1/4-y,1/4+z
x,1/2+y,1/2+z
-x,1/2-y,1/2+z
1/4-x,3/4+y,3/4+z
1/4+x,3/4-y,3/4+z
1/2+x,y,1/2+z
1/2-x,-y,1/2+z
3/4-x,1/4+y,3/4+z
3/4+x,1/4-y,3/4+z
1/2+x,1/2+y,z
1/2-x,1/2-y,z
3/4-x,3/4+y,1/4+z
3/4+x,3/4-y,1/4+z
loop_
_atom_site_type_symbol
_atom_site_label
_atom_site_fract_x
_atom_site_fract_y
_atom_site_fract_z
Si Si1 0.746686 0.895408 0.743040
Si Si2 0.898619 0.370260 0.633601
Si Si3 0.052029 0.169357 0.691504
Si Si4 0.867267 0.988279 0.225045
Si Si5 0.460904 0.935666 0.471454
Si Si6 0.906593 0.703041 0.675218
O O1 0.878020 0.880369 0.741788
O O2 0.692727 0.901025 0.839316
O O3 0.694585 0.839948 0.693642
O O4 0.706219 0.955683 0.698674
O O5 0.852736 0.432598 0.664361
O O6 0.790084 0.329278 0.639117
O O7 0.970615 0.387864 0.548842
O O8 0.984514 0.335988 0.696549
O O9 0.099564 0.233280 0.718323
O O10 0.920012 0.179515 0.703230
O O11 0.836133 0.971212 0.323776
O O12 0.000000 0.000000 0.224565
O O13 0.500000 0.000000 0.501422
#
# Coordination Sequence:
#
# PCOD9372429 Si02
#       6
#    16  16  16  16  16  16
#     4  11  24  42  71 104 144 181 240 294 356 430
#     4  12  24  42  68 102 135 182 237 294 349 430
#     4  11  25  46  68 102 139 191 231 293 365 421
#     4  11  22  40  66 105 138 183 234 296 357 422
#     4  12  26  45  70  98 142 186 237 292 364 431
#     4  11  22  41  69  97 139 179 233 293 349 417
#
# _framework density 22.909175999999999
#
# number of rings (size 3 to 8) (size 9 to 14) (size 15 to 20)
#    0.000    0.667    5.000    4.000    0.000    1.333 
#    0.000    2.500    0.000    0.000    0.000    0.000 
#    0.000    0.000    0.000    0.000    0.000    0.000 
#
# Total GULP energy -133872.322887 kJ/mol
# GULP energy per Si atom -5578.013454 kJ/mol
# Density = 2.285703 g / cm^3
# Si number density = 22.909176 Si / 1000 Ang^3
#
#
#
# Elastic Constant Matrix: (Units=GPa)
#
#
# Indices 1 2 3 4 5 6 
#
# 1 116.7647 58.1373 1.2315 0.0000 0.0000 0.0000
# 2 58.1373 143.4928 21.6311 0.0000 0.0000 0.0000
# 3 1.2315 21.6311 17.8538 0.0000 0.0000 0.0000
# 4 0.0000 0.0000 0.0000 21.6255 0.0000 0.0000
# 5 0.0000 0.0000 0.0000 0.0000 31.8717 0.0000
# 6 0.0000 0.0000 0.0000 0.0000 0.0000 44.0919
#
#
#
# Elastic Compliance Matrix: (Units=1/GPa)
#
#
# Indices 1 2 3 4 5 6 
#
# 1 0.011195 -0.005407 0.005779 0.000000 0.000000 0.000000
# 2 -0.005407 0.011138 -0.013121 0.000000 0.000000 0.000000
# 3 0.005779 -0.013121 0.071509 0.000000 0.000000 0.000000
# 4 0.000000 0.000000 0.000000 0.046242 0.000000 0.000000
# 5 0.000000 0.000000 0.000000 0.000000 0.031376 0.000000
# 6 0.000000 0.000000 0.000000 0.000000 0.000000 0.022680
#
#
# Mechanical properties :
#
#
# Convention : Reuss Voigt Hill
#
# Bulk Modulus (GPa) = 14.63198 48.90124 31.76661
# Shear Modulus (GPa) = 20.62540 32.65858 26.64199
#
# Velocity S-wave (km/s) = 3.00377 3.77977 3.41389
# Velocity P-wave (km/s) = 4.29314 6.35931 5.42549
#
# Compressibility (1/GPa) = 0.06834343
#
# Stress axis : x y z
#
# Youngs Moduli (GPa) = 89.32182 89.78530 13.98425
#
# Poissons Ratio (x) = 0.48548 -0.08081
# Poissons Ratio (y) = 0.48297 0.18349
# Poissons Ratio (z) = -0.51618 1.17808
#
# Static dielectric constant tensor:
#      x y z
#    x 1.950280 0.000000 0.000000 
#    y 0.000000 1.850410 0.000000 
#    z 0.000000 0.000000 1.973760 
# 
# From -- ./inp_files/13305.got.cif
#   From: 2010.05.17/outbox.cif.g08.bks.cpg/sg43_7_cif.got.tgz:13305.got - 2010.06.03 19:21:55.
