data_PCOD9372494
_publ_section_title
;
Structure prediction by ZEFSAII (Michael W. Deem and Ramdas Pophale) SiO2 
 PCOD9372494
Probable space group: F D D 2
;
_chemical_formula_sum "Si O2"
_cell_formula_units_Z 80
_cell_length_a 11.824741
_cell_length_b 27.701823
_cell_length_c 8.672857
_cell_angle_alpha 90.000000
_cell_angle_beta 90.000000
_cell_angle_gamma 90.000000
_cell_volume 2840.940727
_symmetry_space_group_name_H-M "F D D 2"
_symmetry_group_IT_number 43
_symmetry_cell_setting 'orthorhombic'
loop_
_space_group_symop_operation_xyz
x,y,z
-x,-y,z
1/4-x,1/4+y,1/4+z
1/4+x,1/4-y,1/4+z
x,1/2+y,1/2+z
-x,1/2-y,1/2+z
1/4-x,3/4+y,3/4+z
1/4+x,3/4-y,3/4+z
1/2+x,y,1/2+z
1/2-x,-y,1/2+z
3/4-x,1/4+y,3/4+z
3/4+x,1/4-y,3/4+z
1/2+x,1/2+y,z
1/2-x,1/2-y,z
3/4-x,3/4+y,1/4+z
3/4+x,3/4-y,1/4+z
loop_
_atom_site_type_symbol
_atom_site_label
_atom_site_fract_x
_atom_site_fract_y
_atom_site_fract_z
Si Si1 0.639389 0.158980 0.220330
Si Si2 0.262447 0.697812 0.788738
Si Si3 0.646474 0.287576 0.207006
Si Si4 0.062620 0.302416 0.023723
Si Si5 0.311049 0.085779 0.320570
O O1 0.559889 0.186185 0.096641
O O2 0.771185 0.166470 0.193935
O O3 0.605556 0.169418 0.396791
O O4 0.628052 0.101855 0.216792
O O5 0.250000 0.750000 0.876411
O O6 0.359224 0.711985 0.665595
O O7 0.294193 0.643731 0.851481
O O8 0.150610 0.683540 0.693744
O O9 0.750000 0.250000 0.201209
O O10 0.579091 0.274457 0.364666
O O11 0.951933 0.198631 0.088757
#
# Coordination Sequence:
#
# PCOD9372494 Si02
#       5
#    16  16  16  16  16
#     4  11  23  46  73 107 158 210 262 335 404 477
#     4  11  24  48  82 114 163 224 266 343 427 482
#     4  12  28  47  75 118 160 213 274 334 414 488
#     4  11  22  46  77 106 157 210 259 335 407 477
#     4  11  26  49  78 121 166 207 280 344 399 507
#
# _framework density 28.159686000000001
#
# number of rings (size 3 to 8) (size 9 to 14) (size 15 to 20)
#    0.000    0.800    4.000    4.200    5.600    0.000 
#    3.600    5.000    0.000    0.000    0.000    0.000 
#    0.000    0.000    0.000    0.000    0.000    0.000 
#
# Total GULP energy -111828.520129 kJ/mol
# GULP energy per Si atom -5591.426006 kJ/mol
# Density = 2.809559 g / cm^3
# Si number density = 28.159686 Si / 1000 Ang^3
#
#
#
# Elastic Constant Matrix: (Units=GPa)
#
#
# Indices 1 2 3 4 5 6 
#
# 1 158.1840 -4.4178 65.3256 0.0000 0.0000 0.0000
# 2 -4.4178 172.0849 16.6246 0.0000 0.0000 0.0000
# 3 65.3256 16.6246 124.6208 0.0000 0.0000 0.0000
# 4 0.0000 0.0000 0.0000 12.7299 0.0000 0.0000
# 5 0.0000 0.0000 0.0000 0.0000 71.4143 0.0000
# 6 0.0000 0.0000 0.0000 0.0000 0.0000 43.4175
#
#
#
# Elastic Compliance Matrix: (Units=1/GPa)
#
#
# Indices 1 2 3 4 5 6 
#
# 1 0.008135 0.000629 -0.004348 0.000000 0.000000 0.000000
# 2 0.000629 0.005936 -0.001121 0.000000 0.000000 0.000000
# 3 -0.004348 -0.001121 0.010453 0.000000 0.000000 0.000000
# 4 0.000000 0.000000 0.000000 0.078556 0.000000 0.000000
# 5 0.000000 0.000000 0.000000 0.000000 0.014003 0.000000
# 6 0.000000 0.000000 0.000000 0.000000 0.000000 0.023032
#
#
# Mechanical properties :
#
#
# Convention : Reuss Voigt Hill
#
# Bulk Modulus (GPa) = 67.37525 67.77274 67.57400
# Shear Modulus (GPa) = 32.31156 50.66948 41.49052
#
# Velocity S-wave (km/s) = 3.39106 4.24649 3.84266
# Velocity P-wave (km/s) = 6.26981 6.93997 6.61338
#
# Compressibility (1/GPa) = 0.01484224
#
# Stress axis : x y z
#
# Youngs Moduli (GPa) = 122.92538 168.47567 95.66378
#
# Poissons Ratio (x) = -0.10596 0.41597
# Poissons Ratio (y) = -0.07731 0.10729
# Poissons Ratio (z) = 0.53451 0.18894
#
# Static dielectric constant tensor:
#      x y z
#    x 1.867860 0.000000 0.000000 
#    y 0.000000 2.365940 0.000000 
#    z 0.000000 0.000000 2.278560 
# 
# From -- ./inp_files/10988.got.cif
#   From: 2010.05.17/outbox.cif.g08.bks.cpg/sg43_6_cif.got.tgz:10988.got - 2010.06.03 19:21:55.
