data_PCOD9372896
_publ_section_title
;
Structure prediction by ZEFSAII (Michael W. Deem and Ramdas Pophale) SiO2 
 PCOD9372896
Probable space group: F D D 2
;
_chemical_formula_sum "Si O2"
_cell_formula_units_Z 64
_cell_length_a 8.459411
_cell_length_b 22.714976
_cell_length_c 13.401024
_cell_angle_alpha 90.000000
_cell_angle_beta 90.000000
_cell_angle_gamma 90.000000
_cell_volume 2575.078026
_symmetry_space_group_name_H-M "F D D 2"
_symmetry_group_IT_number 43
_symmetry_cell_setting 'orthorhombic'
loop_
_space_group_symop_operation_xyz
x,y,z
-x,-y,z
1/4-x,1/4+y,1/4+z
1/4+x,1/4-y,1/4+z
x,1/2+y,1/2+z
-x,1/2-y,1/2+z
1/4-x,3/4+y,3/4+z
1/4+x,3/4-y,3/4+z
1/2+x,y,1/2+z
1/2-x,-y,1/2+z
3/4-x,1/4+y,3/4+z
3/4+x,1/4-y,3/4+z
1/2+x,1/2+y,z
1/2-x,1/2-y,z
3/4-x,3/4+y,1/4+z
3/4+x,3/4-y,1/4+z
loop_
_atom_site_type_symbol
_atom_site_label
_atom_site_fract_x
_atom_site_fract_y
_atom_site_fract_z
Si Si1 0.845328 0.034414 0.244480
Si Si2 0.912282 0.146127 0.338602
Si Si3 0.105829 0.426835 0.237243
Si Si4 0.310157 0.314282 0.210174
O O1 0.890211 0.075372 0.338012
O O2 0.788451 0.085897 0.172378
O O3 0.713079 0.984748 0.240243
O O4 0.000000 0.000000 0.213412
O O5 0.749955 0.171877 0.387103
O O6 0.006531 0.174424 0.243091
O O7 0.212068 0.368956 0.252027
O O8 0.017555 0.431012 0.342659
O O9 0.250000 0.250000 0.242387
#
# Coordination Sequence:
#
# PCOD9372896 Si02
#       4
#    16  16  16  16
#     4  12  27  52  78 120 169 212 288 350 421 524
#     4  12  26  50  81 114 162 227 265 353 437 493
#     4  12  27  52  79 118 167 211 284 350 420 520
#     4  12  27  49  80 119 161 217 280 350 427 513
#
# _framework density 24.853615999999999
#
# number of rings (size 3 to 8) (size 9 to 14) (size 15 to 20)
#    0.000    0.000    2.500    7.500    3.500    0.000 
#   13.500    0.000    0.000    0.000    0.000    0.000 
#    0.000    0.000    0.000    0.000    0.000    0.000 
#
# Total GULP energy -89296.558421 kJ/mol
# GULP energy per Si atom -5581.034901 kJ/mol
# Density = 2.479705 g / cm^3
# Si number density = 24.853616 Si / 1000 Ang^3
#
#
#
# Elastic Constant Matrix: (Units=GPa)
#
#
# Indices 1 2 3 4 5 6 
#
# 1 143.6812 102.1779 32.8828 0.0000 0.0000 0.0000
# 2 102.1779 245.9500 48.3182 0.0000 0.0000 0.0000
# 3 32.8828 48.3182 54.6696 0.0000 0.0000 0.0000
# 4 0.0000 0.0000 0.0000 34.7673 0.0000 0.0000
# 5 0.0000 0.0000 0.0000 0.0000 28.0184 0.0000
# 6 0.0000 0.0000 0.0000 0.0000 0.0000 41.9748
#
#
#
# Elastic Compliance Matrix: (Units=1/GPa)
#
#
# Indices 1 2 3 4 5 6 
#
# 1 0.010246 -0.003686 -0.002905 0.000000 0.000000 0.000000
# 2 -0.003686 0.006246 -0.003303 0.000000 0.000000 0.000000
# 3 -0.002905 -0.003303 0.022959 0.000000 0.000000 0.000000
# 4 0.000000 0.000000 0.000000 0.028763 0.000000 0.000000
# 5 0.000000 0.000000 0.000000 0.000000 0.035691 0.000000
# 6 0.000000 0.000000 0.000000 0.000000 0.000000 0.023824
#
#
# Mechanical properties :
#
#
# Convention : Reuss Voigt Hill
#
# Bulk Modulus (GPa) = 50.85973 90.11764 70.48869
# Shear Modulus (GPa) = 32.45261 38.34689 35.39975
#
# Velocity S-wave (km/s) = 3.61744 3.93225 3.77812
# Velocity P-wave (km/s) = 6.16084 7.54685 6.88879
#
# Compressibility (1/GPa) = 0.01966192
#
# Stress axis : x y z
#
# Youngs Moduli (GPa) = 97.60030 160.09974 43.55637
#
# Poissons Ratio (x) = 0.59010 0.12653
# Poissons Ratio (y) = 0.35974 0.14389
# Poissons Ratio (z) = 0.28354 0.52889
#
# Static dielectric constant tensor:
#      x y z
#    x 2.156790 0.000000 0.000000 
#    y 0.000000 2.052070 0.000000 
#    z 0.000000 0.000000 2.099150 
# 
# From -- ./inp_files/8990.got.cif
#   From: 2010.05.17/outbox.cif.g08.bks.cpg/sg43_5_cif.got.tgz:8990.got - 2010.06.03 19:21:55.
