data_PCOD9372892
_publ_section_title
;
Structure prediction by ZEFSAII (Michael W. Deem and Ramdas Pophale) SiO2 
 PCOD9372892
Probable space group: F D D 2
;
_chemical_formula_sum "Si O2"
_cell_formula_units_Z 64
_cell_length_a 4.848253
_cell_length_b 21.432255
_cell_length_c 26.489456
_cell_angle_alpha 90.000000
_cell_angle_beta 90.000000
_cell_angle_gamma 90.000000
_cell_volume 2752.492740
_symmetry_space_group_name_H-M "F D D 2"
_symmetry_group_IT_number 43
_symmetry_cell_setting 'orthorhombic'
loop_
_space_group_symop_operation_xyz
x,y,z
-x,-y,z
1/4-x,1/4+y,1/4+z
1/4+x,1/4-y,1/4+z
x,1/2+y,1/2+z
-x,1/2-y,1/2+z
1/4-x,3/4+y,3/4+z
1/4+x,3/4-y,3/4+z
1/2+x,y,1/2+z
1/2-x,-y,1/2+z
3/4-x,1/4+y,3/4+z
3/4+x,1/4-y,3/4+z
1/2+x,1/2+y,z
1/2-x,1/2-y,z
3/4-x,3/4+y,1/4+z
3/4+x,3/4-y,1/4+z
loop_
_atom_site_type_symbol
_atom_site_label
_atom_site_fract_x
_atom_site_fract_y
_atom_site_fract_z
Si Si1 0.500000 0.000000 0.642470
Si Si2 0.496399 0.294005 0.189793
Si Si3 0.041926 0.639971 0.023897
Si Si4 0.000000 0.000000 0.712722
Si Si5 0.716478 0.875461 0.342000
O O1 0.589929 0.940605 0.610022
O O2 0.752474 0.023337 0.677018
O O3 0.750000 0.250000 0.175125
O O4 0.899173 0.158941 0.232618
O O5 0.404373 0.332568 0.140685
O O6 0.250000 0.250000 0.208345
O O7 0.809304 0.612598 0.060726
O O8 0.306733 0.658629 0.056895
O O9 0.891270 0.696713 0.995880
#
# Coordination Sequence:
#
# PCOD9372892 Si02
#       5
#     8  16  16   8  16
#     4  12  26  50  76 105 156 201 256 318 374 454
#     4  12  28  50  74 110 160 200 250 319 385 459
#     4  12  28  48  78 111 151 202 258 313 386 456
#     4  12  26  50  78 105 152 203 258 318 374 452
#     4  12  28  48  75 114 149 205 254 313 385 455
#
# _framework density 23.251653000000001
#
# number of rings (size 3 to 8) (size 9 to 14) (size 15 to 20)
#    0.000    0.000    2.500    6.000   14.000    0.000 
#    0.000    0.000    0.000    0.000    0.000    0.000 
#    0.000    0.000    0.000    0.000    0.000    0.000 
#
# Total GULP energy -89737.531873 kJ/mol
# GULP energy per Si atom -5608.595742 kJ/mol
# Density = 2.319873 g / cm^3
# Si number density = 23.251653 Si / 1000 Ang^3
#
#
#
# Elastic Constant Matrix: (Units=GPa)
#
#
# Indices 1 2 3 4 5 6 
#
# 1 145.4558 44.1257 59.2878 0.0000 0.0000 0.0000
# 2 44.1257 126.5251 59.6519 0.0000 0.0000 0.0000
# 3 59.2878 59.6519 139.6957 0.0000 0.0000 0.0000
# 4 0.0000 0.0000 0.0000 16.2009 0.0000 0.0000
# 5 0.0000 0.0000 0.0000 0.0000 52.0902 0.0000
# 6 0.0000 0.0000 0.0000 0.0000 0.0000 51.7248
#
#
#
# Elastic Compliance Matrix: (Units=1/GPa)
#
#
# Indices 1 2 3 4 5 6 
#
# 1 0.008562 -0.001594 -0.002953 0.000000 0.000000 0.000000
# 2 -0.001594 0.010192 -0.003676 0.000000 0.000000 0.000000
# 3 -0.002953 -0.003676 0.009981 0.000000 0.000000 0.000000
# 4 0.000000 0.000000 0.000000 0.061725 0.000000 0.000000
# 5 0.000000 0.000000 0.000000 0.000000 0.019197 0.000000
# 6 0.000000 0.000000 0.000000 0.000000 0.000000 0.019333
#
#
# Mechanical properties :
#
#
# Convention : Reuss Voigt Hill
#
# Bulk Modulus (GPa) = 81.36540 81.97858 81.67199
# Shear Modulus (GPa) = 33.43718 40.57727 37.00723
#
# Velocity S-wave (km/s) = 3.79628 4.18201 3.99381
# Velocity P-wave (km/s) = 7.36784 7.65850 7.51458
#
# Compressibility (1/GPa) = 0.01229024
#
# Stress axis : x y z
#
# Youngs Moduli (GPa) = 116.79272 98.11203 100.18538
#
# Poissons Ratio (x) = 0.15636 0.29588
# Poissons Ratio (y) = 0.18613 0.36827
# Poissons Ratio (z) = 0.34493 0.36065
#
# Static dielectric constant tensor:
#      x y z
#    x 1.842540 0.000000 0.000000 
#    y 0.000000 1.811680 0.000000 
#    z 0.000000 0.000000 1.867580 
# 
# From -- ./inp_files/662.got.cif
#   From: 2010.05.17/outbox.cif.g08.bks.cpg/sg43_1_cif.got.tgz:662.got - 2010.06.03 19:21:55.
