data_PCOD9372125
_publ_section_title
;
Structure prediction by ZEFSAII (Michael W. Deem and Ramdas Pophale) SiO2 
 PCOD9372125
Probable space group: F D D 2
;
_chemical_formula_sum "Si O2"
_cell_formula_units_Z 56
_cell_length_a 20.610917
_cell_length_b 9.077405
_cell_length_c 9.927915
_cell_angle_alpha 90.000000
_cell_angle_beta 90.000000
_cell_angle_gamma 90.000000
_cell_volume 1857.449765
_symmetry_space_group_name_H-M "F D D 2"
_symmetry_group_IT_number 43
_symmetry_cell_setting 'orthorhombic'
loop_
_space_group_symop_operation_xyz
x,y,z
-x,-y,z
1/4-x,1/4+y,1/4+z
1/4+x,1/4-y,1/4+z
x,1/2+y,1/2+z
-x,1/2-y,1/2+z
1/4-x,3/4+y,3/4+z
1/4+x,3/4-y,3/4+z
1/2+x,y,1/2+z
1/2-x,-y,1/2+z
3/4-x,1/4+y,3/4+z
3/4+x,1/4-y,3/4+z
1/2+x,1/2+y,z
1/2-x,1/2-y,z
3/4-x,3/4+y,1/4+z
3/4+x,3/4-y,1/4+z
loop_
_atom_site_type_symbol
_atom_site_label
_atom_site_fract_x
_atom_site_fract_y
_atom_site_fract_z
Si Si1 0.872246 0.351830 0.123390
Si Si2 0.221914 0.428153 0.225270
Si Si3 0.346848 0.821502 0.855229
Si Si4 0.250000 0.750000 0.490001
O O1 0.807776 0.415809 0.196046
O O2 0.881627 0.197612 0.222538
O O3 0.936987 0.440773 0.168260
O O4 0.863348 0.209101 0.002242
O O5 0.272920 0.394308 0.342070
O O6 0.162744 0.315615 0.253055
O O7 0.263220 0.384208 0.093721
#
# Coordination Sequence:
#
# PCOD9372125 Si02
#       4
#    16  16  16   8
#     4  12  24  47  76 111 141 209 260 304 394 474
#     4  10  26  53  68 111 167 198 251 337 388 456
#     4  10  26  45  73 112 146 207 251 321 389 457
#     4  10  24  46  72 104 156 204 244 326 392 440
#
# _framework density 30.148864
#
# number of rings (size 3 to 8) (size 9 to 14) (size 15 to 20)
#    0.000    1.714    2.857    0.000   12.000    0.000 
#   15.429    0.000    0.000    0.000    0.000    0.000 
#    0.000    0.000    0.000    0.000    0.000    0.000 
#
# Total GULP energy -77987.645682 kJ/mol
# GULP energy per Si atom -5570.546120 kJ/mol
# Density = 3.008024 g / cm^3
# Si number density = 30.148864 Si / 1000 Ang^3
#
#
#
# Elastic Constant Matrix: (Units=GPa)
#
#
# Indices 1 2 3 4 5 6 
#
# 1 107.0798 25.4610 67.9515 0.0000 0.0000 0.0000
# 2 25.4610 178.8918 45.3268 0.0000 0.0000 0.0000
# 3 67.9515 45.3268 195.2193 0.0000 0.0000 0.0000
# 4 0.0000 0.0000 0.0000 61.1413 0.0000 0.0000
# 5 0.0000 0.0000 0.0000 0.0000 97.5278 0.0000
# 6 0.0000 0.0000 0.0000 0.0000 0.0000 57.5185
#
#
#
# Elastic Compliance Matrix: (Units=1/GPa)
#
#
# Indices 1 2 3 4 5 6 
#
# 1 0.012067 -0.000694 -0.004039 0.000000 0.000000 0.000000
# 2 -0.000694 0.005979 -0.001147 0.000000 0.000000 0.000000
# 3 -0.004039 -0.001147 0.006795 0.000000 0.000000 0.000000
# 4 0.000000 0.000000 0.000000 0.016356 0.000000 0.000000
# 5 0.000000 0.000000 0.000000 0.000000 0.010253 0.000000
# 6 0.000000 0.000000 0.000000 0.000000 0.000000 0.017386
#
#
# Mechanical properties :
#
#
# Convention : Reuss Voigt Hill
#
# Bulk Modulus (GPa) = 76.44563 84.29663 80.37113
# Shear Modulus (GPa) = 58.85409 66.06763 62.46086
#
# Velocity S-wave (km/s) = 4.42307 4.68630 4.55658
# Velocity P-wave (km/s) = 7.17606 7.56985 7.37558
#
# Compressibility (1/GPa) = 0.01308119
#
# Stress axis : x y z
#
# Youngs Moduli (GPa) = 82.87047 167.24361 147.17527
#
# Poissons Ratio (x) = 0.11607 0.59446
# Poissons Ratio (y) = 0.05752 0.16877
# Poissons Ratio (z) = 0.33472 0.19178
#
# Static dielectric constant tensor:
#      x y z
#    x 2.243300 0.000000 0.000000 
#    y 0.000000 2.630300 0.000000 
#    z 0.000000 0.000000 2.578600 
# 
# From -- ./inp_files/5456.got.cif
#   From: 2010.05.17/outbox.cif.g08.bks.cpg/sg43_3_cif.got.tgz:5456.got - 2010.06.03 19:21:55.
