data_PCOD9372420
_publ_section_title
;
Structure prediction by ZEFSAII (Michael W. Deem and Ramdas Pophale) SiO2 
 PCOD9372420
Probable space group: F D D 2
;
_chemical_formula_sum "Si O2"
_cell_formula_units_Z 64
_cell_length_a 4.936483
_cell_length_b 13.950952
_cell_length_c 36.980911
_cell_angle_alpha 90.000000
_cell_angle_beta 90.000000
_cell_angle_gamma 90.000000
_cell_volume 2546.824950
_symmetry_space_group_name_H-M "F D D 2"
_symmetry_group_IT_number 43
_symmetry_cell_setting 'orthorhombic'
loop_
_space_group_symop_operation_xyz
x,y,z
-x,-y,z
1/4-x,1/4+y,1/4+z
1/4+x,1/4-y,1/4+z
x,1/2+y,1/2+z
-x,1/2-y,1/2+z
1/4-x,3/4+y,3/4+z
1/4+x,3/4-y,3/4+z
1/2+x,y,1/2+z
1/2-x,-y,1/2+z
3/4-x,1/4+y,3/4+z
3/4+x,1/4-y,3/4+z
1/2+x,1/2+y,z
1/2-x,1/2-y,z
3/4-x,3/4+y,1/4+z
3/4+x,3/4-y,1/4+z
loop_
_atom_site_type_symbol
_atom_site_label
_atom_site_fract_x
_atom_site_fract_y
_atom_site_fract_z
Si Si1 0.772169 0.134304 0.302050
Si Si2 0.483603 0.312264 0.691839
Si Si3 0.493685 0.677206 0.376152
Si Si4 0.516450 0.116912 0.510102
O O1 0.750000 0.250000 0.301897
O O2 0.470700 0.103177 0.292016
O O3 0.923452 0.116983 0.339956
O O4 0.968315 0.101207 0.270133
O O5 0.250000 0.250000 0.711744
O O6 0.301725 0.358754 0.660352
O O7 0.611773 0.386193 0.720684
O O8 0.750000 0.250000 0.679478
O O9 0.750000 0.750000 0.373521
O O10 0.250000 0.750000 0.380368
O O11 0.500000 0.000000 0.510446
#
# Coordination Sequence:
#
# PCOD9372420 Si02
#       4
#    16  16  16  16
#     4   9  16  29  51  78 104 135 183 234 271 314
#     4  11  22  36  56  83 114 147 184 232 286 340
#     4  11  22  36  56  83 114 147 184 232 286 340
#     4   9  16  29  51  78 104 135 183 234 271 314
#
# _framework density 25.129328999999998
#
# number of rings (size 3 to 8) (size 9 to 14) (size 15 to 20)
#    0.000    2.000    0.000    9.000    0.000    0.000 
#    0.000    0.000    0.000    6.000    0.000    0.000 
#    0.000    0.000    0.000    0.000    0.000    0.000 
#
# Total GULP energy -89236.700778 kJ/mol
# GULP energy per Si atom -5577.293799 kJ/mol
# Density = 2.507213 g / cm^3
# Si number density = 25.129329 Si / 1000 Ang^3
#
#
#
# Elastic Constant Matrix: (Units=GPa)
#
#
# Indices 1 2 3 4 5 6 
#
# 1 150.0936 -13.3875 26.4068 0.0000 0.0000 0.0000
# 2 -13.3875 79.1927 3.4259 0.0000 0.0000 0.0000
# 3 26.4068 3.4259 146.1898 0.0000 0.0000 0.0000
# 4 0.0000 0.0000 0.0000 11.3103 0.0000 0.0000
# 5 0.0000 0.0000 0.0000 0.0000 40.3781 0.0000
# 6 0.0000 0.0000 0.0000 0.0000 0.0000 -9.9453
#
#
#
# Elastic Compliance Matrix: (Units=1/GPa)
#
#
# Indices 1 2 3 4 5 6 
#
# 1 0.007001 0.001239 -0.001294 0.000000 0.000000 0.000000
# 2 0.001239 0.012860 -0.000525 0.000000 0.000000 0.000000
# 3 -0.001294 -0.000525 0.007086 0.000000 0.000000 0.000000
# 4 0.000000 0.000000 0.000000 0.088415 0.000000 0.000000
# 5 0.000000 0.000000 0.000000 0.000000 0.024766 0.000000
# 6 0.000000 0.000000 0.000000 0.000000 0.000000 -0.100550
#
#
# Mechanical properties :
#
#
# Convention : Reuss Voigt Hill
#
# Bulk Modulus (GPa) = 38.77790 45.37405 42.07597
# Shear Modulus (GPa) = 101.35429 32.28402 66.81915
#
# Velocity S-wave (km/s) = 6.35772 3.58818 5.16215
# Velocity P-wave (km/s) = 8.32820 5.93819 7.23260
#
# Compressibility (1/GPa) = 0.02578788
#
# Stress axis : x y z
#
# Youngs Moduli (GPa) = 142.84392 77.76243 141.11536
#
# Poissons Ratio (x) = -0.09638 0.18255
# Poissons Ratio (y) = -0.17704 0.07412
# Poissons Ratio (z) = 0.18478 0.04084
#
# Static dielectric constant tensor:
#      x y z
#    x 1.929400 0.000000 0.000000 
#    y 0.000000 2.001750 0.000000 
#    z 0.000000 0.000000 2.172500 
# 
# From -- ./inp_files/27096.got.cif
#   From: 2010.05.17/outbox.cif.g08.bks.cpg/sg43_14_cif.got.tgz:27096.got - 2010.06.03 19:21:55.
