data_PCOD9372716
_publ_section_title
;
Structure prediction by ZEFSAII (Michael W. Deem and Ramdas Pophale) SiO2 
 PCOD9372716
Probable space group: F D D 2
;
_chemical_formula_sum "Si O2"
_cell_formula_units_Z 80
_cell_length_a 30.584165
_cell_length_b 11.413353
_cell_length_c 8.658121
_cell_angle_alpha 90.000000
_cell_angle_beta 90.000000
_cell_angle_gamma 90.000000
_cell_volume 3022.271867
_symmetry_space_group_name_H-M "F D D 2"
_symmetry_group_IT_number 43
_symmetry_cell_setting 'orthorhombic'
loop_
_space_group_symop_operation_xyz
x,y,z
-x,-y,z
1/4-x,1/4+y,1/4+z
1/4+x,1/4-y,1/4+z
x,1/2+y,1/2+z
-x,1/2-y,1/2+z
1/4-x,3/4+y,3/4+z
1/4+x,3/4-y,3/4+z
1/2+x,y,1/2+z
1/2-x,-y,1/2+z
3/4-x,1/4+y,3/4+z
3/4+x,1/4-y,3/4+z
1/2+x,1/2+y,z
1/2-x,1/2-y,z
3/4-x,3/4+y,1/4+z
3/4+x,3/4-y,1/4+z
loop_
_atom_site_type_symbol
_atom_site_label
_atom_site_fract_x
_atom_site_fract_y
_atom_site_fract_z
Si Si1 0.315802 0.982809 0.542110
Si Si2 0.796738 0.223681 0.888854
Si Si3 0.773467 0.148499 0.554218
Si Si4 0.121389 0.170898 0.827126
Si Si5 0.624212 0.898748 0.775748
O O1 0.266072 0.941689 0.570972
O O2 0.348422 0.891350 0.456639
O O3 0.312787 0.095419 0.432310
O O4 0.337275 0.026356 0.699414
O O5 0.750000 0.250000 0.963400
O O6 0.789582 0.219323 0.705934
O O7 0.830997 0.320428 0.932281
O O8 0.750000 0.250000 0.450575
O O9 0.819830 0.090057 0.524741
O O10 0.132754 0.058756 0.676070
O O11 0.138659 0.259866 0.687724
#
# Coordination Sequence:
#
# PCOD9372716 Si02
#       5
#    16  16  16  16  16
#     4  12  27  48  74 115 158 204 276 336 406 508
#     4  11  25  47  75 105 152 202 260 332 409 487
#     4  11  26  45  77 108 153 200 258 323 408 480
#     4  12  26  48  76 110 154 207 264 332 406 492
#     4  12  26  46  75 107 152 205 258 332 407 477
#
# _framework density 26.470153
#
# number of rings (size 3 to 8) (size 9 to 14) (size 15 to 20)
#    0.000    0.400    4.000    3.600   11.200    0.000 
#    0.000    0.000    0.000    0.000    0.000    0.000 
#    0.000    0.000    0.000    0.000    0.000    0.000 
#
# Total GULP energy -111403.373767 kJ/mol
# GULP energy per Si atom -5570.168688 kJ/mol
# Density = 2.640991 g / cm^3
# Si number density = 26.470153 Si / 1000 Ang^3
#
#
#
# Elastic Constant Matrix: (Units=GPa)
#
#
# Indices 1 2 3 4 5 6 
#
# 1 196.5077 90.6406 35.2217 0.0000 0.0000 0.0000
# 2 90.6406 195.6849 33.5830 0.0000 0.0000 0.0000
# 3 35.2217 33.5830 109.7374 0.0000 0.0000 0.0000
# 4 0.0000 0.0000 0.0000 22.8151 0.0000 0.0000
# 5 0.0000 0.0000 0.0000 0.0000 15.3746 0.0000
# 6 0.0000 0.0000 0.0000 0.0000 0.0000 69.0759
#
#
#
# Elastic Compliance Matrix: (Units=1/GPa)
#
#
# Indices 1 2 3 4 5 6 
#
# 1 0.006631 -0.002856 -0.001254 0.000000 0.000000 0.000000
# 2 -0.002856 0.006624 -0.001110 0.000000 0.000000 0.000000
# 3 -0.001254 -0.001110 0.009855 0.000000 0.000000 0.000000
# 4 0.000000 0.000000 0.000000 0.043831 0.000000 0.000000
# 5 0.000000 0.000000 0.000000 0.000000 0.065042 0.000000
# 6 0.000000 0.000000 0.000000 0.000000 0.000000 0.014477
#
#
# Mechanical properties :
#
#
# Convention : Reuss Voigt Hill
#
# Bulk Modulus (GPa) = 78.93729 91.20230 85.06980
# Shear Modulus (GPa) = 31.03197 44.28543 37.65870
#
# Velocity S-wave (km/s) = 3.42766 4.09471 3.77594
# Velocity P-wave (km/s) = 6.74916 7.54222 7.15668
#
# Compressibility (1/GPa) = 0.01266828
#
# Stress axis : x y z
#
# Youngs Moduli (GPa) = 150.80347 150.97010 101.47106
#
# Poissons Ratio (x) = 0.43121 0.12727
# Poissons Ratio (y) = 0.43074 0.11267
# Poissons Ratio (z) = 0.18915 0.16763
#
# Static dielectric constant tensor:
#      x y z
#    x 2.194900 0.000000 0.000000 
#    y 0.000000 3.864460 0.000000 
#    z 0.000000 0.000000 3.178630 
# 
# From -- ./inp_files/8184.got.cif
#   From: 2010.05.17/outbox.cif.g08.bks.cpg/sg43_5_cif.got.tgz:8184.got - 2010.06.03 19:21:55.
