data_PCOD9372813
_publ_section_title
;
Structure prediction by ZEFSAII (Michael W. Deem and Ramdas Pophale) SiO2 
 PCOD9372813
Probable space group: F D D 2
;
_chemical_formula_sum "Si O2"
_cell_formula_units_Z 88
_cell_length_a 15.928971
_cell_length_b 27.018516
_cell_length_c 8.810583
_cell_angle_alpha 90.000000
_cell_angle_beta 90.000000
_cell_angle_gamma 90.000000
_cell_volume 3791.873670
_symmetry_space_group_name_H-M "F D D 2"
_symmetry_group_IT_number 43
_symmetry_cell_setting 'orthorhombic'
loop_
_space_group_symop_operation_xyz
x,y,z
-x,-y,z
1/4-x,1/4+y,1/4+z
1/4+x,1/4-y,1/4+z
x,1/2+y,1/2+z
-x,1/2-y,1/2+z
1/4-x,3/4+y,3/4+z
1/4+x,3/4-y,3/4+z
1/2+x,y,1/2+z
1/2-x,-y,1/2+z
3/4-x,1/4+y,3/4+z
3/4+x,1/4-y,3/4+z
1/2+x,1/2+y,z
1/2-x,1/2-y,z
3/4-x,3/4+y,1/4+z
3/4+x,3/4-y,1/4+z
loop_
_atom_site_type_symbol
_atom_site_label
_atom_site_fract_x
_atom_site_fract_y
_atom_site_fract_z
Si Si1 0.000000 0.500000 0.335770
Si Si2 0.600483 0.410609 0.877216
Si Si3 0.481944 0.317464 0.897881
Si Si4 0.677980 0.489313 0.359859
Si Si5 0.220102 0.402590 0.651288
Si Si6 0.157948 0.809334 0.325122
O O1 0.941056 0.537477 0.426396
O O2 0.946228 0.464790 0.225085
O O3 0.533280 0.367284 0.877087
O O4 0.640140 0.419505 0.711488
O O5 0.673995 0.394700 0.991306
O O6 0.480171 0.286457 0.744366
O O7 0.522606 0.282731 0.025355
O O8 0.668347 0.445537 0.239144
O O9 0.603105 0.516411 0.448519
O O10 0.314988 0.420234 0.618946
O O11 0.211453 0.353671 0.753163
#
# Coordination Sequence:
#
# PCOD9372813 Si02
#       6
#     8  16  16  16  16  16
#     4  12  28  48  74 108 148 196 248 302 372 452
#     4  12  25  48  71 109 142 192 244 303 368 441
#     4  12  25  46  74 107 145 193 247 300 370 434
#     4  12  23  46  75 103 149 194 236 308 366 434
#     4  12  26  48  76 108 147 190 247 310 369 441
#     4  12  27  48  73 108 146 191 249 297 373 438
#
# _framework density 23.207523999999999
#
# number of rings (size 3 to 8) (size 9 to 14) (size 15 to 20)
#    0.000    0.000    7.273    1.091    2.545    7.273 
#    3.273    0.000    0.000    0.000    0.000    0.000 
#    0.000    0.000    0.000    0.000    0.000    0.000 
#
# Total GULP energy -123253.255781 kJ/mol
# GULP energy per Si atom -5602.420717 kJ/mol
# Density = 2.315470 g / cm^3
# Si number density = 23.207524 Si / 1000 Ang^3
#
#
#
# Elastic Constant Matrix: (Units=GPa)
#
#
# Indices 1 2 3 4 5 6 
#
# 1 52.8703 7.4732 8.2003 0.0000 0.0000 0.0000
# 2 7.4732 113.3369 24.3003 0.0000 0.0000 0.0000
# 3 8.2003 24.3003 81.4261 0.0000 0.0000 0.0000
# 4 0.0000 0.0000 0.0000 35.1324 0.0000 0.0000
# 5 0.0000 0.0000 0.0000 0.0000 14.8441 0.0000
# 6 0.0000 0.0000 0.0000 0.0000 0.0000 38.1020
#
#
#
# Elastic Compliance Matrix: (Units=1/GPa)
#
#
# Indices 1 2 3 4 5 6 
#
# 1 0.019303 -0.000914 -0.001671 0.000000 0.000000 0.000000
# 2 -0.000914 0.009470 -0.002734 0.000000 0.000000 0.000000
# 3 -0.001671 -0.002734 0.013265 0.000000 0.000000 0.000000
# 4 0.000000 0.000000 0.000000 0.028464 0.000000 0.000000
# 5 0.000000 0.000000 0.000000 0.000000 0.067367 0.000000
# 6 0.000000 0.000000 0.000000 0.000000 0.000000 0.026245
#
#
# Mechanical properties :
#
#
# Convention : Reuss Voigt Hill
#
# Bulk Modulus (GPa) = 31.84851 36.39788 34.12320
# Shear Modulus (GPa) = 26.99512 31.45967 29.22740
#
# Velocity S-wave (km/s) = 3.41428 3.68582 3.55264
# Velocity P-wave (km/s) = 5.41260 5.81647 5.61817
#
# Compressibility (1/GPa) = 0.03139864
#
# Stress axis : x y z
#
# Youngs Moduli (GPa) = 51.80638 105.59946 75.38478
#
# Poissons Ratio (x) = 0.09657 0.12597
# Poissons Ratio (y) = 0.04738 0.20610
# Poissons Ratio (z) = 0.08657 0.28871
#
# Static dielectric constant tensor:
#      x y z
#    x 1.877450 0.000000 0.000000 
#    y 0.000000 1.843810 0.000000 
#    z 0.000000 0.000000 1.864000 
# 
# From -- ./inp_files/2895.got.cif
#   From: 2010.05.17/outbox.cif.g08.bks.cpg/sg43_2_cif.got.tgz:2895.got - 2010.06.03 19:21:55.
