data_PCOD9372126
_publ_section_title
;
Structure prediction by ZEFSAII (Michael W. Deem and Ramdas Pophale) SiO2 
 PCOD9372126
Probable space group: F D D 2
;
_chemical_formula_sum "Si O2"
_cell_formula_units_Z 112
_cell_length_a 12.084232
_cell_length_b 13.826525
_cell_length_c 30.118084
_cell_angle_alpha 90.000000
_cell_angle_beta 90.000000
_cell_angle_gamma 90.000000
_cell_volume 5032.217897
_symmetry_space_group_name_H-M "F D D 2"
_symmetry_group_IT_number 43
_symmetry_cell_setting 'orthorhombic'
loop_
_space_group_symop_operation_xyz
x,y,z
-x,-y,z
1/4-x,1/4+y,1/4+z
1/4+x,1/4-y,1/4+z
x,1/2+y,1/2+z
-x,1/2-y,1/2+z
1/4-x,3/4+y,3/4+z
1/4+x,3/4-y,3/4+z
1/2+x,y,1/2+z
1/2-x,-y,1/2+z
3/4-x,1/4+y,3/4+z
3/4+x,1/4-y,3/4+z
1/2+x,1/2+y,z
1/2-x,1/2-y,z
3/4-x,3/4+y,1/4+z
3/4+x,3/4-y,1/4+z
loop_
_atom_site_type_symbol
_atom_site_label
_atom_site_fract_x
_atom_site_fract_y
_atom_site_fract_z
Si Si1 0.844003 0.560714 0.605930
Si Si2 0.703744 0.859073 0.980074
Si Si3 0.336561 0.160300 0.878596
Si Si4 0.568443 0.154620 0.619829
Si Si5 0.376773 0.266546 0.209804
Si Si6 0.036976 0.299204 0.048743
Si Si7 0.652032 0.820524 0.518327
O O1 0.714995 0.571296 0.617258
O O2 0.876828 0.450842 0.616737
O O3 0.860039 0.595530 0.555035
O O4 0.937155 0.631666 0.627583
O O5 0.750000 0.750000 0.982114
O O6 0.660063 0.876167 0.929721
O O7 0.801800 0.935143 0.983093
O O8 0.616498 0.867297 0.020294
O O9 0.250000 0.250000 0.879907
O O10 0.285269 0.096822 0.838344
O O11 0.611634 0.228176 0.656991
O O12 0.593777 0.209829 0.573933
O O13 0.250000 0.250000 0.221848
O O14 0.420288 0.372009 0.223577
O O15 0.954417 0.246924 0.014739
O O16 0.750000 0.750000 0.531665
#
# Coordination Sequence:
#
# PCOD9372126 Si02
#       7
#    16  16  16  16  16  16  16
#     4  10  24  46  72 106 150 194 253 318 381 473
#     4  11  27  46  72 110 153 200 256 324 386 464
#     4  11  25  45  72 109 155 198 252 323 389 458
#     4  10  25  45  77 105 142 206 254 313 396 461
#     4  12  28  47  71 111 150 194 261 328 383 473
#     4  11  24  47  73 107 145 202 251 308 396 455
#     4  11  25  44  72 105 148 196 250 318 384 474
#
# _framework density 22.256587
#
# number of rings (size 3 to 8) (size 9 to 14) (size 15 to 20)
#    0.000    1.143    2.857    0.857   16.000    0.571 
#    0.000    1.429    0.000    0.000    0.000    0.000 
#    0.000    0.000    0.000    0.000    0.000    0.000 
#
# Total GULP energy -156306.876728 kJ/mol
# GULP energy per Si atom -5582.388455 kJ/mol
# Density = 2.220593 g / cm^3
# Si number density = 22.256587 Si / 1000 Ang^3
#
#
#
# Elastic Constant Matrix: (Units=GPa)
#
#
# Indices 1 2 3 4 5 6 
#
# 1 150.5820 51.7747 57.1281 0.0000 0.0000 0.0000
# 2 51.7747 91.5912 28.8200 0.0000 0.0000 0.0000
# 3 57.1281 28.8200 76.1145 0.0000 0.0000 0.0000
# 4 0.0000 0.0000 0.0000 221.7614 0.0000 0.0000
# 5 0.0000 0.0000 0.0000 0.0000 28.7340 0.0000
# 6 0.0000 0.0000 0.0000 0.0000 0.0000 29.5597
#
#
#
# Elastic Compliance Matrix: (Units=1/GPa)
#
#
# Indices 1 2 3 4 5 6 
#
# 1 0.010369 -0.003874 -0.006316 0.000000 0.000000 0.000000
# 2 -0.003874 0.013842 -0.002334 0.000000 0.000000 0.000000
# 3 -0.006316 -0.002334 0.018762 0.000000 0.000000 0.000000
# 4 0.000000 0.000000 0.000000 0.004509 0.000000 0.000000
# 5 0.000000 0.000000 0.000000 0.000000 0.034802 0.000000
# 6 0.000000 0.000000 0.000000 0.000000 0.000000 0.033830
#
#
# Mechanical properties :
#
#
# Convention : Reuss Voigt Hill
#
# Bulk Modulus (GPa) = 55.78269 65.97036 60.87652
# Shear Modulus (GPa) = 33.98210 68.04867 51.01539
#
# Velocity S-wave (km/s) = 3.91171 5.53543 4.79283
# Velocity P-wave (km/s) = 6.74684 8.39999 7.61839
#
# Compressibility (1/GPa) = 0.01792671
#
# Stress axis : x y z
#
# Youngs Moduli (GPa) = 96.44174 72.24231 53.29965
#
# Poissons Ratio (x) = 0.27988 0.33662
# Poissons Ratio (y) = 0.37363 0.12437
# Poissons Ratio (z) = 0.60909 0.16858
#
# Static dielectric constant tensor:
#      x y z
#    x 1.838970 0.000000 0.000000 
#    y 0.000000 1.759930 0.000000 
#    z 0.000000 0.000000 1.842390 
# 
# From -- ./inp_files/28643.got.cif
#   From: 2010.05.17/outbox.cif.g08.bks.cpg/sg43_15_cif.got.tgz:28643.got - 2010.06.03 19:21:55.
