data_PCOD9372793
_publ_section_title
;
Structure prediction by ZEFSAII (Michael W. Deem and Ramdas Pophale) SiO2 
 PCOD9372793
Probable space group: F D D 2
;
_chemical_formula_sum "Si O2"
_cell_formula_units_Z 120
_cell_length_a 8.947321
_cell_length_b 21.954973
_cell_length_c 25.145031
_cell_angle_alpha 90.000000
_cell_angle_beta 90.000000
_cell_angle_gamma 90.000000
_cell_volume 4939.444402
_symmetry_space_group_name_H-M "F D D 2"
_symmetry_group_IT_number 43
_symmetry_cell_setting 'orthorhombic'
loop_
_space_group_symop_operation_xyz
x,y,z
-x,-y,z
1/4-x,1/4+y,1/4+z
1/4+x,1/4-y,1/4+z
x,1/2+y,1/2+z
-x,1/2-y,1/2+z
1/4-x,3/4+y,3/4+z
1/4+x,3/4-y,3/4+z
1/2+x,y,1/2+z
1/2-x,-y,1/2+z
3/4-x,1/4+y,3/4+z
3/4+x,1/4-y,3/4+z
1/2+x,1/2+y,z
1/2-x,1/2-y,z
3/4-x,3/4+y,1/4+z
3/4+x,3/4-y,1/4+z
loop_
_atom_site_type_symbol
_atom_site_label
_atom_site_fract_x
_atom_site_fract_y
_atom_site_fract_z
Si Si1 0.000000 0.000000 0.862080
Si Si2 0.218034 0.903378 0.730580
Si Si3 0.939549 0.303287 0.705872
Si Si4 0.793481 0.075147 0.334274
Si Si5 0.584172 0.939580 0.125005
Si Si6 0.227155 0.158405 0.689003
Si Si7 0.767281 0.439620 0.527109
Si Si8 0.350058 0.531867 0.221748
O O1 0.129597 0.041642 0.834601
O O2 0.898357 0.040407 0.901505
O O3 0.371334 0.866303 0.726798
O O4 0.128681 0.898074 0.674879
O O5 0.124349 0.869056 0.775258
O O6 0.242123 0.974797 0.733257
O O7 0.914916 0.247537 0.746437
O O8 0.114423 0.309618 0.696444
O O9 0.766421 0.147299 0.337754
O O10 0.892157 0.066091 0.387149
O O11 0.878114 0.058031 0.280729
O O12 0.500000 0.000000 0.141577
O O13 0.722470 0.955463 0.086958
O O14 0.270848 0.085928 0.688672
O O15 0.121525 0.170931 0.739344
O O16 0.500000 0.500000 0.198885
#
# Coordination Sequence:
#
# PCOD9372793 Si02
#       8
#     8  16  16  16  16  16  16  16
#     4  12  24  44  72 110 148 190 254 304 368 454
#     4  12  26  50  74 105 157 193 248 320 372 439
#     4  12  22  45  74 104 152 189 246 309 365 447
#     4  12  27  46  74 111 144 202 252 306 384 453
#     4  12  25  45  75 111 146 196 256 308 379 450
#     4  12  24  46  74 104 151 193 248 312 371 444
#     4  12  25  44  76 109 141 201 251 304 377 446
#     4  12  29  48  72 112 152 194 253 320 377 446
#
# _framework density 24.294229999999999
#
# number of rings (size 3 to 8) (size 9 to 14) (size 15 to 20)
#    0.000    0.000    8.000    2.000    3.733    0.000 
#    0.000    1.333    0.000    0.000    0.000    0.000 
#    0.000    0.000    0.000    0.000    0.000    0.000 
#
# Total GULP energy -167857.709955 kJ/mol
# GULP energy per Si atom -5595.256998 kJ/mol
# Density = 2.423894 g / cm^3
# Si number density = 24.294230 Si / 1000 Ang^3
#
#
#
# Elastic Constant Matrix: (Units=GPa)
#
#
# Indices 1 2 3 4 5 6 
#
# 1 120.7507 29.4096 14.8547 0.0000 0.0000 0.0000
# 2 29.4096 131.2647 -7.2615 0.0000 0.0000 0.0000
# 3 14.8547 -7.2615 50.2589 0.0000 0.0000 0.0000
# 4 0.0000 0.0000 0.0000 20.4694 0.0000 0.0000
# 5 0.0000 0.0000 0.0000 0.0000 23.9200 0.0000
# 6 0.0000 0.0000 0.0000 0.0000 0.0000 58.3938
#
#
#
# Elastic Compliance Matrix: (Units=1/GPa)
#
#
# Indices 1 2 3 4 5 6 
#
# 1 0.009199 -0.002229 -0.003041 0.000000 0.000000 0.000000
# 2 -0.002229 0.008220 0.001846 0.000000 0.000000 0.000000
# 3 -0.003041 0.001846 0.021062 0.000000 0.000000 0.000000
# 4 0.000000 0.000000 0.000000 0.048853 0.000000 0.000000
# 5 0.000000 0.000000 0.000000 0.000000 0.041806 0.000000
# 6 0.000000 0.000000 0.000000 0.000000 0.000000 0.017125
#
#
# Mechanical properties :
#
#
# Convention : Reuss Voigt Hill
#
# Bulk Modulus (GPa) = 31.61174 41.80888 36.71031
# Shear Modulus (GPa) = 30.55170 38.24139 34.39654
#
# Velocity S-wave (km/s) = 3.55007 3.97179 3.76684
# Velocity P-wave (km/s) = 5.46299 6.18710 5.83629
#
# Compressibility (1/GPa) = 0.03163382
#
# Stress axis : x y z
#
# Youngs Moduli (GPa) = 108.71303 121.65784 47.47776
#
# Poissons Ratio (x) = 0.27119 0.14437
# Poissons Ratio (y) = 0.24234 -0.08767
# Poissons Ratio (z) = 0.33058 -0.22464
#
# Static dielectric constant tensor:
#      x y z
#    x 1.980970 0.000000 0.000000 
#    y 0.000000 1.965980 0.000000 
#    z 0.000000 0.000000 1.917810 
# 
# From -- ./inp_files/24481.got.cif
#   From: 2010.05.17/outbox.cif.g08.bks.cpg/sg43_13_cif.got.tgz:24481.got - 2010.06.03 19:21:55.
