data_PCOD9372648
_publ_section_title
;
Structure prediction by ZEFSAII (Michael W. Deem and Ramdas Pophale) SiO2 
 PCOD9372648
Probable space group: F D D 2
;
_chemical_formula_sum "Si O2"
_cell_formula_units_Z 64
_cell_length_a 24.131397
_cell_length_b 21.122328
_cell_length_c 5.021380
_cell_angle_alpha 90.000000
_cell_angle_beta 90.000000
_cell_angle_gamma 90.000000
_cell_volume 2559.454040
_symmetry_space_group_name_H-M "F D D 2"
_symmetry_group_IT_number 43
_symmetry_cell_setting 'orthorhombic'
loop_
_space_group_symop_operation_xyz
x,y,z
-x,-y,z
1/4-x,1/4+y,1/4+z
1/4+x,1/4-y,1/4+z
x,1/2+y,1/2+z
-x,1/2-y,1/2+z
1/4-x,3/4+y,3/4+z
1/4+x,3/4-y,3/4+z
1/2+x,y,1/2+z
1/2-x,-y,1/2+z
3/4-x,1/4+y,3/4+z
3/4+x,1/4-y,3/4+z
1/2+x,1/2+y,z
1/2-x,1/2-y,z
3/4-x,3/4+y,1/4+z
3/4+x,3/4-y,1/4+z
loop_
_atom_site_type_symbol
_atom_site_label
_atom_site_fract_x
_atom_site_fract_y
_atom_site_fract_z
Si Si1 0.254084 0.165973 0.023550
Si Si2 0.422114 0.443751 0.285906
Si Si3 0.225587 0.972819 0.642449
Si Si4 0.382728 0.559094 0.959440
O O1 0.284324 0.180970 0.299647
O O2 0.259170 0.091018 0.987153
O O3 0.190267 0.182451 0.055608
O O4 0.290983 0.197598 0.797529
O O5 0.385483 0.379492 0.303146
O O6 0.390864 0.507482 0.193962
O O7 0.164342 0.968403 0.763623
O O8 0.236738 0.023230 0.409614
#
# Coordination Sequence:
#
# PCOD9372648 Si02
#       4
#    16  16  16  16
#     4  11  26  46  70 109 151 196 257 313 377 460
#     4  11  27  46  73 109 148 200 257 312 381 463
#     4  11  24  46  76 112 152 200 260 316 380 465
#     4  11  26  48  77 108 157 206 250 323 391 448
#
# _framework density 25.005334000000001
#
# number of rings (size 3 to 8) (size 9 to 14) (size 15 to 20)
#    0.000    1.000    0.000    5.250    0.000   18.000 
#    0.000    2.500    0.000    0.000    0.000    0.000 
#    0.000    0.000    0.000    0.000    0.000    0.000 
#
# Total GULP energy -89698.768190 kJ/mol
# GULP energy per Si atom -5606.173012 kJ/mol
# Density = 2.494842 g / cm^3
# Si number density = 25.005334 Si / 1000 Ang^3
#
#
#
# Elastic Constant Matrix: (Units=GPa)
#
#
# Indices 1 2 3 4 5 6 
#
# 1 185.6818 98.4072 76.6393 -0.0118 -0.0071 -0.0114
# 2 98.4072 146.2735 44.2604 0.0663 -0.0685 -0.0278
# 3 76.6393 44.2604 111.0009 0.0196 -0.0343 -0.0462
# 4 -0.0118 0.0663 0.0196 45.9719 -0.1621 -0.0323
# 5 -0.0071 -0.0685 -0.0343 -0.1621 66.3227 0.0524
# 6 -0.0114 -0.0278 -0.0462 -0.0323 0.0524 33.4290
#
#
#
# Elastic Compliance Matrix: (Units=1/GPa)
#
#
# Indices 1 2 3 4 5 6 
#
# 1 0.010312 -0.005439 -0.004951 0.000013 -0.000007 -0.000008
# 2 -0.005439 0.010644 -0.000489 -0.000016 0.000010 0.000006
# 3 -0.004951 -0.000489 0.012622 -0.000006 0.000005 0.000015
# 4 0.000013 -0.000016 -0.000006 0.021753 0.000053 0.000021
# 5 -0.000007 0.000010 0.000005 0.000053 0.015078 -0.000024
# 6 -0.000008 0.000006 0.000015 0.000021 -0.000024 0.029914
#
#
# Mechanical properties :
#
#
# Convention : Reuss Voigt Hill
#
# Bulk Modulus (GPa) = 84.60129 97.95221 91.27675
# Shear Modulus (GPa) = 39.67651 44.05468 41.86560
#
# Velocity S-wave (km/s) = 3.98769 4.20195 4.09622
# Velocity P-wave (km/s) = 7.42354 7.92461 7.67816
#
# Compressibility (1/GPa) = 0.01182015
#
# Stress axis : x y z
#
# Youngs Moduli (GPa) = 96.97798 93.95249 79.22736
#
# Poissons Ratio (x) = 0.51103 0.39223
# Poissons Ratio (y) = 0.52749 0.03871
# Poissons Ratio (z) = 0.48011 0.04590
#
# Static dielectric constant tensor:
#      x y z
#    x 1.943820 -0.000020 0.000010 
#    y -0.000020 1.655640 -0.000120 
#    z 0.000010 -0.000120 1.910880 
# 
# From -- ./inp_files/844.got.cif
#   From: 2010.05.17/outbox.cif.g08.bks.cpg/sg43_1_cif.got.tgz:844.got - 2010.06.03 19:21:55.
