data_PCOD9372670
_publ_section_title
;
Structure prediction by ZEFSAII (Michael W. Deem and Ramdas Pophale) SiO2 
 PCOD9372670
Probable space group: F D D 2
;
_chemical_formula_sum "Si O2"
_cell_formula_units_Z 88
_cell_length_a 13.800813
_cell_length_b 11.494107
_cell_length_c 24.245527
_cell_angle_alpha 90.000000
_cell_angle_beta 90.000000
_cell_angle_gamma 90.000000
_cell_volume 3846.019974
_symmetry_space_group_name_H-M "F D D 2"
_symmetry_group_IT_number 43
_symmetry_cell_setting 'orthorhombic'
loop_
_space_group_symop_operation_xyz
x,y,z
-x,-y,z
1/4-x,1/4+y,1/4+z
1/4+x,1/4-y,1/4+z
x,1/2+y,1/2+z
-x,1/2-y,1/2+z
1/4-x,3/4+y,3/4+z
1/4+x,3/4-y,3/4+z
1/2+x,y,1/2+z
1/2-x,-y,1/2+z
3/4-x,1/4+y,3/4+z
3/4+x,1/4-y,3/4+z
1/2+x,1/2+y,z
1/2-x,1/2-y,z
3/4-x,3/4+y,1/4+z
3/4+x,3/4-y,1/4+z
loop_
_atom_site_type_symbol
_atom_site_label
_atom_site_fract_x
_atom_site_fract_y
_atom_site_fract_z
Si Si1 0.940383 0.693010 0.679820
Si Si2 0.337248 0.662545 0.352519
Si Si3 0.553871 0.709054 0.491574
Si Si4 0.386717 0.285518 0.248446
Si Si5 0.500000 0.000000 0.598790
Si Si6 0.385043 0.033499 0.202317
O O1 0.841348 0.627759 0.694446
O O2 0.930921 0.814069 0.649043
O O3 0.999557 0.702167 0.736862
O O4 0.999766 0.610977 0.638169
O O5 0.250000 0.750000 0.337405
O O6 0.350577 0.586135 0.298356
O O7 0.099757 0.750119 0.390321
O O8 0.590748 0.840601 0.481939
O O9 0.437433 0.715067 0.492998
O O10 0.342686 0.259106 0.308448
O O11 0.366587 0.169693 0.212891
O O12 0.500000 0.000000 0.209750
#
# Coordination Sequence:
#
# PCOD9372670 Si02
#       6
#    16  16  16  16   8  16
#     4  12  25  46  71 110 151 193 248 320 369 460
#     4  11  25  46  71 103 154 192 250 304 379 450
#     4  12  26  45  79 109 147 199 250 314 384 450
#     4  12  22  47  76 105 146 196 254 308 375 458
#     4  12  24  44  80 104 152 194 256 300 382 454
#     4  11  24  47  77 105 154 195 249 314 378 451
#
# _framework density 22.880797000000001
#
# number of rings (size 3 to 8) (size 9 to 14) (size 15 to 20)
#    0.000    0.364    9.091    0.000    2.545    1.455 
#    3.273    1.818    8.000    0.000    0.000    0.000 
#    0.000    0.000    0.000    0.000    0.000    0.000 
#
# Total GULP energy -122560.187822 kJ/mol
# GULP energy per Si atom -5570.917628 kJ/mol
# Density = 2.282872 g / cm^3
# Si number density = 22.880797 Si / 1000 Ang^3
#
#
#
# Elastic Constant Matrix: (Units=GPa)
#
#
# Indices 1 2 3 4 5 6 
#
# 1 89.1593 39.3396 34.8885 0.0000 0.0000 0.0000
# 2 39.3396 165.9310 46.9010 0.0000 0.0000 0.0000
# 3 34.8885 46.9010 98.6746 0.0000 0.0000 0.0000
# 4 0.0000 0.0000 0.0000 -91.9732 0.0000 0.0000
# 5 0.0000 0.0000 0.0000 0.0000 25.1590 0.0000
# 6 0.0000 0.0000 0.0000 0.0000 0.0000 27.2491
#
#
#
# Elastic Compliance Matrix: (Units=1/GPa)
#
#
# Indices 1 2 3 4 5 6 
#
# 1 0.013658 -0.002164 -0.003801 0.000000 0.000000 0.000000
# 2 -0.002164 0.007305 -0.002707 0.000000 0.000000 0.000000
# 3 -0.003801 -0.002707 0.012765 0.000000 0.000000 0.000000
# 4 0.000000 0.000000 0.000000 -0.010873 0.000000 0.000000
# 5 0.000000 0.000000 0.000000 0.000000 0.039747 0.000000
# 6 0.000000 0.000000 0.000000 0.000000 0.000000 0.036698
#
#
# Mechanical properties :
#
#
# Convention : Reuss Voigt Hill
#
# Bulk Modulus (GPa) = 61.03265 66.22477 63.62871
# Shear Modulus (GPa) = 40.94864 7.59605 24.27234
#
# Velocity S-wave (km/s) = 4.23502 1.82402 3.26055
# Velocity P-wave (km/s) = 7.11659 5.78293 6.48414
#
# Compressibility (1/GPa) = 0.01638467
#
# Stress axis : x y z
#
# Youngs Moduli (GPa) = 73.21837 136.89749 78.34099
#
# Poissons Ratio (x) = 0.29622 0.29774
# Poissons Ratio (y) = 0.15843 0.21207
# Poissons Ratio (z) = 0.27827 0.37057
#
# Static dielectric constant tensor:
#      x y z
#    x 1.913620 0.000000 0.000000 
#    y 0.000000 1.867610 0.000000 
#    z 0.000000 0.000000 1.873790 
# 
# From -- ./inp_files/21667.got.cif
#   From: 2010.05.17/outbox.cif.g08.bks.cpg/sg43_11_cif.got.tgz:21667.got - 2010.06.03 19:21:55.
