data_PCOD9372473
_publ_section_title
;
Structure prediction by ZEFSAII (Michael W. Deem and Ramdas Pophale) SiO2 
 PCOD9372473
Probable space group: F D D 2
;
_chemical_formula_sum "Si O2"
_cell_formula_units_Z 96
_cell_length_a 16.331946
_cell_length_b 10.018249
_cell_length_c 26.593370
_cell_angle_alpha 90.000000
_cell_angle_beta 90.000000
_cell_angle_gamma 90.000000
_cell_volume 4351.140761
_symmetry_space_group_name_H-M "F D D 2"
_symmetry_group_IT_number 43
_symmetry_cell_setting 'orthorhombic'
loop_
_space_group_symop_operation_xyz
x,y,z
-x,-y,z
1/4-x,1/4+y,1/4+z
1/4+x,1/4-y,1/4+z
x,1/2+y,1/2+z
-x,1/2-y,1/2+z
1/4-x,3/4+y,3/4+z
1/4+x,3/4-y,3/4+z
1/2+x,y,1/2+z
1/2-x,-y,1/2+z
3/4-x,1/4+y,3/4+z
3/4+x,1/4-y,3/4+z
1/2+x,1/2+y,z
1/2-x,1/2-y,z
3/4-x,3/4+y,1/4+z
3/4+x,3/4-y,1/4+z
loop_
_atom_site_type_symbol
_atom_site_label
_atom_site_fract_x
_atom_site_fract_y
_atom_site_fract_z
Si Si1 0.170499 0.425888 0.450390
Si Si2 0.090292 0.320392 0.307151
Si Si3 0.841005 0.297451 0.401839
Si Si4 0.155878 0.175475 0.403005
Si Si5 0.595941 0.132936 0.302278
Si Si6 0.582944 0.942266 0.950933
O O1 0.164925 0.480701 0.506804
O O2 0.142395 0.550961 0.417573
O O3 0.123451 0.287033 0.442333
O O4 0.257127 0.381072 0.424154
O O5 0.145177 0.247004 0.349173
O O6 0.116714 0.474613 0.297630
O O7 0.995552 0.341934 0.322749
O O8 0.750000 0.250000 0.418806
O O9 0.845956 0.295828 0.342002
O O10 0.592338 0.296999 0.427486
O O11 0.101966 0.043834 0.405874
O O12 0.603060 0.193522 0.246803
O O13 0.500000 0.000000 0.973125
#
# Coordination Sequence:
#
# PCOD9372473 Si02
#       6
#    16  16  16  16  16  16
#     4  11  23  45  71 100 143 187 236 299 369 431
#     4  11  22  44  72  98 138 194 241 292 375 441
#     4  12  22  43  70  97 141 193 235 295 368 439
#     4  11  24  44  69 105 140 181 242 304 361 429
#     4  11  23  41  71  99 136 193 242 290 369 449
#     4  12  25  44  67 105 144 178 243 308 356 436
#
# _framework density 22.063179999999999
#
# number of rings (size 3 to 8) (size 9 to 14) (size 15 to 20)
#    0.000    0.667    6.667    1.500    0.000    1.333 
#    6.000    0.000    0.000    0.000    0.000    0.000 
#    0.000    0.000    0.000    0.000    0.000    0.000 
#
# Total GULP energy -133768.290980 kJ/mol
# GULP energy per Si atom -5573.678791 kJ/mol
# Density = 2.201296 g / cm^3
# Si number density = 22.063180 Si / 1000 Ang^3
#
#
#
# Elastic Constant Matrix: (Units=GPa)
#
#
# Indices 1 2 3 4 5 6 
#
# 1 49.8837 28.6891 23.4380 0.0000 0.0000 0.0000
# 2 28.6891 115.8909 33.2201 0.0000 0.0000 0.0000
# 3 23.4380 33.2201 128.4903 0.0000 0.0000 0.0000
# 4 0.0000 0.0000 0.0000 41.2733 0.0000 0.0000
# 5 0.0000 0.0000 0.0000 0.0000 26.3859 0.0000
# 6 0.0000 0.0000 0.0000 0.0000 0.0000 19.4857
#
#
#
# Elastic Compliance Matrix: (Units=1/GPa)
#
#
# Indices 1 2 3 4 5 6 
#
# 1 0.024488 -0.005164 -0.003132 0.000000 0.000000 0.000000
# 2 -0.005164 0.010409 -0.001749 0.000000 0.000000 0.000000
# 3 -0.003132 -0.001749 0.008806 0.000000 0.000000 0.000000
# 4 0.000000 0.000000 0.000000 0.024229 0.000000 0.000000
# 5 0.000000 0.000000 0.000000 0.000000 0.037899 0.000000
# 6 0.000000 0.000000 0.000000 0.000000 0.000000 0.051320
#
#
# Mechanical properties :
#
#
# Convention : Reuss Voigt Hill
#
# Bulk Modulus (GPa) = 42.35005 51.66215 47.00610
# Shear Modulus (GPa) = 27.01074 31.35683 29.18378
#
# Velocity S-wave (km/s) = 3.50272 3.77401 3.64089
# Velocity P-wave (km/s) = 5.96618 6.51592 6.24710
#
# Compressibility (1/GPa) = 0.02361273
#
# Stress axis : x y z
#
# Youngs Moduli (GPa) = 40.83591 96.07419 113.55709
#
# Poissons Ratio (x) = 0.49617 0.35563
# Poissons Ratio (y) = 0.21089 0.19861
# Poissons Ratio (z) = 0.12789 0.16804
#
# Static dielectric constant tensor:
#      x y z
#    x 1.950510 0.000000 0.000000 
#    y 0.000000 1.809120 0.000000 
#    z 0.000000 0.000000 1.792510 
# 
# From -- ./inp_files/22056.got.cif
#   From: 2010.05.17/outbox.cif.g08.bks.cpg/sg43_12_cif.got.tgz:22056.got - 2010.06.03 19:21:55.
