data_PCOD9372438
_publ_section_title
;
Structure prediction by ZEFSAII (Michael W. Deem and Ramdas Pophale) SiO2 
 PCOD9372438
Probable space group: F D D 2
;
_chemical_formula_sum "Si O2"
_cell_formula_units_Z 120
_cell_length_a 21.957095
_cell_length_b 17.997604
_cell_length_c 14.658627
_cell_angle_alpha 90.000000
_cell_angle_beta 90.000000
_cell_angle_gamma 90.000000
_cell_volume 5792.724402
_symmetry_space_group_name_H-M "F D D 2"
_symmetry_group_IT_number 43
_symmetry_cell_setting 'orthorhombic'
loop_
_space_group_symop_operation_xyz
x,y,z
-x,-y,z
1/4-x,1/4+y,1/4+z
1/4+x,1/4-y,1/4+z
x,1/2+y,1/2+z
-x,1/2-y,1/2+z
1/4-x,3/4+y,3/4+z
1/4+x,3/4-y,3/4+z
1/2+x,y,1/2+z
1/2-x,-y,1/2+z
3/4-x,1/4+y,3/4+z
3/4+x,1/4-y,3/4+z
1/2+x,1/2+y,z
1/2-x,1/2-y,z
3/4-x,3/4+y,1/4+z
3/4+x,3/4-y,1/4+z
loop_
_atom_site_type_symbol
_atom_site_label
_atom_site_fract_x
_atom_site_fract_y
_atom_site_fract_z
Si Si1 0.716123 0.047491 0.824200
Si Si2 0.915487 0.627744 0.910162
Si Si3 0.578991 0.889659 0.113097
Si Si4 0.802650 0.126163 0.286918
Si Si5 0.952288 0.288959 0.407930
Si Si6 0.000000 0.000000 0.326829
Si Si7 0.717438 0.511792 0.993895
Si Si8 0.163357 0.369149 0.577158
O O1 0.766055 0.070110 0.748903
O O2 0.741252 0.038526 0.926481
O O3 0.656515 0.097027 0.817946
O O4 0.699458 0.962583 0.799358
O O5 0.861242 0.648302 0.843745
O O6 0.958360 0.699471 0.909707
O O7 0.951005 0.553477 0.879423
O O8 0.892402 0.623646 0.013245
O O9 0.509444 0.909650 0.080815
O O10 0.630814 0.940768 0.157665
O O11 0.568336 0.818717 0.178115
O O12 0.816784 0.143871 0.182347
O O13 0.990738 0.306687 0.316321
O O14 0.957092 0.940360 0.275456
O O15 0.675188 0.453074 0.046305
#
# Coordination Sequence:
#
# PCOD9372438 Si02
#       8
#    16  16  16  16  16   8  16  16
#     4  11  23  43  66  97 140 185 228 291 367 426
#     4  12  23  41  67 106 139 170 242 302 367 422
#     4  11  24  42  68  96 137 190 231 287 359 427
#     4  11  22  41  65 106 133 177 242 301 362 416
#     4  12  24  45  67  96 146 189 233 300 357 437
#     4  12  22  38  66 110 136 170 226 304 378 426
#     4  11  23  46  68 101 139 185 236 297 360 432
#     4  12  24  39  71 102 142 180 231 304 366 433
#
# _framework density 20.715643
#
# number of rings (size 3 to 8) (size 9 to 14) (size 15 to 20)
#    0.000    0.533    8.000    2.400    1.867    1.600 
#    0.000    0.667    0.000    0.000    0.000    0.000 
#    0.000    0.000    0.000    0.000    0.000    0.000 
#
# Total GULP energy -167278.690832 kJ/mol
# GULP energy per Si atom -5575.956361 kJ/mol
# Density = 2.066849 g / cm^3
# Si number density = 20.715643 Si / 1000 Ang^3
#
#
#
# Elastic Constant Matrix: (Units=GPa)
#
#
# Indices 1 2 3 4 5 6 
#
# 1 128.1669 34.9667 32.8435 0.0000 0.0000 0.0000
# 2 34.9667 69.3489 -11.1003 0.0000 0.0000 0.0000
# 3 32.8435 -11.1003 46.4005 0.0000 0.0000 0.0000
# 4 0.0000 0.0000 0.0000 22.1324 0.0000 0.0000
# 5 0.0000 0.0000 0.0000 0.0000 31.0583 0.0000
# 6 0.0000 0.0000 0.0000 0.0000 0.0000 37.8879
#
#
#
# Elastic Compliance Matrix: (Units=1/GPa)
#
#
# Indices 1 2 3 4 5 6 
#
# 1 0.012916 -0.008293 -0.011126 0.000000 0.000000 0.000000
# 2 -0.008293 0.020319 0.010731 0.000000 0.000000 0.000000
# 3 -0.011126 0.010731 0.031994 0.000000 0.000000 0.000000
# 4 0.000000 0.000000 0.000000 0.045183 0.000000 0.000000
# 5 0.000000 0.000000 0.000000 0.000000 0.032198 0.000000
# 6 0.000000 0.000000 0.000000 0.000000 0.000000 0.026394
#
#
# Mechanical properties :
#
#
# Convention : Reuss Voigt Hill
#
# Bulk Modulus (GPa) = 20.89764 39.70403 30.30083
# Shear Modulus (GPa) = 24.71192 30.69614 27.70403
#
# Velocity S-wave (km/s) = 3.45760 3.85357 3.66094
# Velocity P-wave (km/s) = 5.10390 6.24563 5.70340
#
# Compressibility (1/GPa) = 0.04785229
#
# Stress axis : x y z
#
# Youngs Moduli (GPa) = 77.42232 49.21457 31.25562
#
# Poissons Ratio (x) = 0.40816 0.34776
# Poissons Ratio (y) = 0.64210 -0.33541
# Poissons Ratio (z) = 0.86143 -0.52813
#
# Static dielectric constant tensor:
#      x y z
#    x 1.787560 0.000000 0.000000 
#    y 0.000000 1.778240 0.000000 
#    z 0.000000 0.000000 1.851200 
# 
# From -- ./inp_files/11322.got.cif
#   From: 2010.05.17/outbox.cif.g08.bks.cpg/sg43_6_cif.got.tgz:11322.got - 2010.06.03 19:21:55.
