data_PCOD9372215
_publ_section_title
;
Structure prediction by ZEFSAII (Michael W. Deem and Ramdas Pophale) SiO2 
 PCOD9372215
Probable space group: F D D 2
;
_chemical_formula_sum "Si O2"
_cell_formula_units_Z 64
_cell_length_a 15.157326
_cell_length_b 16.507668
_cell_length_c 11.903147
_cell_angle_alpha 90.000000
_cell_angle_beta 90.000000
_cell_angle_gamma 90.000000
_cell_volume 2978.311471
_symmetry_space_group_name_H-M "F D D 2"
_symmetry_group_IT_number 43
_symmetry_cell_setting 'orthorhombic'
loop_
_space_group_symop_operation_xyz
x,y,z
-x,-y,z
1/4-x,1/4+y,1/4+z
1/4+x,1/4-y,1/4+z
x,1/2+y,1/2+z
-x,1/2-y,1/2+z
1/4-x,3/4+y,3/4+z
1/4+x,3/4-y,3/4+z
1/2+x,y,1/2+z
1/2-x,-y,1/2+z
3/4-x,1/4+y,3/4+z
3/4+x,1/4-y,3/4+z
1/2+x,1/2+y,z
1/2-x,1/2-y,z
3/4-x,3/4+y,1/4+z
3/4+x,3/4-y,1/4+z
loop_
_atom_site_type_symbol
_atom_site_label
_atom_site_fract_x
_atom_site_fract_y
_atom_site_fract_z
Si Si1 0.802196 0.166507 0.290780
Si Si2 0.248304 0.551880 0.093355
Si Si3 0.593950 0.982968 0.450128
Si Si4 0.283891 0.883071 0.512185
O O1 0.750000 0.250000 0.266090
O O2 0.763475 0.097405 0.209801
O O3 0.907748 0.174801 0.281665
O O4 0.785540 0.145434 0.421010
O O5 0.335710 0.569922 0.019084
O O6 0.249594 0.453688 0.095977
O O7 0.573248 0.939121 0.334206
O O8 0.500000 0.000000 0.508091
O O9 0.641375 0.069413 0.441392
#
# Coordination Sequence:
#
# PCOD9372215 Si02
#       4
#    16  16  16  16
#     4  12  26  46  72 107 147 190 239 308 372 435
#     4  10  28  44  72 104 149 187 241 300 368 433
#     4  10  25  45  77 105 143 191 250 299 357 443
#     4  10  26  45  76 102 146 189 250 298 366 432
#
# _framework density 21.488686000000001
#
# number of rings (size 3 to 8) (size 9 to 14) (size 15 to 20)
#    1.500    0.000    0.000    2.250   14.000    4.000 
#    0.000    0.000    0.000    0.000    0.000    0.000 
#    0.000    0.000    0.000    0.000    0.000    0.000 
#
# Total GULP energy -89246.848643 kJ/mol
# GULP energy per Si atom -5577.928040 kJ/mol
# Density = 2.143978 g / cm^3
# Si number density = 21.488686 Si / 1000 Ang^3
#
#
#
# Elastic Constant Matrix: (Units=GPa)
#
#
# Indices 1 2 3 4 5 6 
#
# 1 143.1348 28.1215 38.7656 0.0000 0.0000 0.0000
# 2 28.1215 104.7074 56.7388 0.0000 0.0000 0.0000
# 3 38.7656 56.7388 102.5671 0.0000 0.0000 0.0000
# 4 0.0000 0.0000 0.0000 30.6468 0.0000 0.0000
# 5 0.0000 0.0000 0.0000 0.0000 -5.9657 0.0000
# 6 0.0000 0.0000 0.0000 0.0000 0.0000 28.0967
#
#
#
# Elastic Compliance Matrix: (Units=1/GPa)
#
#
# Indices 1 2 3 4 5 6 
#
# 1 0.007820 -0.000712 -0.002562 0.000000 0.000000 0.000000
# 2 -0.000712 0.013704 -0.007312 0.000000 0.000000 0.000000
# 3 -0.002562 -0.007312 0.014763 0.000000 0.000000 0.000000
# 4 0.000000 0.000000 0.000000 0.032630 0.000000 0.000000
# 5 0.000000 0.000000 0.000000 0.000000 -0.167625 0.000000
# 6 0.000000 0.000000 0.000000 0.000000 0.000000 0.035591
#
#
# Mechanical properties :
#
#
# Convention : Reuss Voigt Hill
#
# Bulk Modulus (GPa) = 66.15677 66.40679 66.28178
# Shear Modulus (GPa) = -135.47268 25.67445 -54.89911
#
# Velocity S-wave (km/s) = -7.94862 3.46032 -5.05998
# Velocity P-wave (km/s) = 7.30665 6.85094 1.79608
#
# Compressibility (1/GPa) = 0.01511561
#
# Stress axis : x y z
#
# Youngs Moduli (GPa) = 127.87514 72.97323 67.73894
#
# Poissons Ratio (x) = 0.05197 0.17353
# Poissons Ratio (y) = 0.09106 0.49528
# Poissons Ratio (z) = 0.32758 0.53355
#
# Static dielectric constant tensor:
#      x y z
#    x 1.847310 0.000000 0.000000 
#    y 0.000000 1.780150 0.000000 
#    z 0.000000 0.000000 1.765170 
# 
# From -- ./inp_files/5953.got.cif
#   From: 2010.05.17/outbox.cif.g08.bks.cpg/sg43_3_cif.got.tgz:5953.got - 2010.06.03 19:21:55.
