data_PCOD9372267
_publ_section_title
;
Structure prediction by ZEFSAII (Michael W. Deem and Ramdas Pophale) SiO2 
 PCOD9372267
Probable space group: F D D 2
;
_chemical_formula_sum "Si O2"
_cell_formula_units_Z 104
_cell_length_a 28.084887
_cell_length_b 17.829817
_cell_length_c 8.275398
_cell_angle_alpha 90.000000
_cell_angle_beta 90.000000
_cell_angle_gamma 90.000000
_cell_volume 4143.892272
_symmetry_space_group_name_H-M "F D D 2"
_symmetry_group_IT_number 43
_symmetry_cell_setting 'orthorhombic'
loop_
_space_group_symop_operation_xyz
x,y,z
-x,-y,z
1/4-x,1/4+y,1/4+z
1/4+x,1/4-y,1/4+z
x,1/2+y,1/2+z
-x,1/2-y,1/2+z
1/4-x,3/4+y,3/4+z
1/4+x,3/4-y,3/4+z
1/2+x,y,1/2+z
1/2-x,-y,1/2+z
3/4-x,1/4+y,3/4+z
3/4+x,1/4-y,3/4+z
1/2+x,1/2+y,z
1/2-x,1/2-y,z
3/4-x,3/4+y,1/4+z
3/4+x,3/4-y,1/4+z
loop_
_atom_site_type_symbol
_atom_site_label
_atom_site_fract_x
_atom_site_fract_y
_atom_site_fract_z
Si Si1 0.574523 0.008375 0.895640
Si Si2 0.155923 0.922147 0.192124
Si Si3 0.076238 0.400226 0.470842
Si Si4 0.250000 0.750000 0.876262
Si Si5 0.776163 0.981141 0.369525
Si Si6 0.067104 0.720783 0.452590
Si Si7 0.340287 0.872996 0.362982
O O1 0.589279 0.084580 0.983202
O O2 0.536719 0.033909 0.759786
O O3 0.618208 0.968233 0.801621
O O4 0.560743 0.942160 0.019556
O O5 0.205912 0.960458 0.232563
O O6 0.129758 0.924990 0.017246
O O7 0.037415 0.462640 0.504823
O O8 0.061029 0.339368 0.603038
O O9 0.071057 0.366078 0.294272
O O10 0.786775 0.017798 0.539452
O O11 0.723442 0.952161 0.333705
O O12 0.107734 0.662155 0.401554
O O13 0.088724 0.800135 0.513879
#
# Coordination Sequence:
#
# PCOD9372267 Si02
#       7
#    16  16  16   8  16  16  16
#     4  11  23  46  74 104 147 198 257 313 395 460
#     4  11  23  46  75 104 145 202 249 319 384 469
#     4  11  26  46  73 113 154 197 261 317 399 461
#     4  10  26  46  74 108 148 206 254 326 380 470
#     4  12  27  50  76 113 153 202 267 315 399 468
#     4  12  29  50  80 112 157 205 265 327 397 480
#     4  12  27  48  75 114 156 202 259 326 404 470
#
# _framework density 25.097178
#
# number of rings (size 3 to 8) (size 9 to 14) (size 15 to 20)
#    0.000    0.615    3.077    3.692    8.615    1.846 
#    0.000    0.000    0.000    0.000    0.000    0.000 
#    0.000    0.000    0.000    0.000    0.000    0.000 
#
# Total GULP energy -145325.891026 kJ/mol
# GULP energy per Si atom -5589.457347 kJ/mol
# Density = 2.504006 g / cm^3
# Si number density = 25.097178 Si / 1000 Ang^3
#
#
#
# Elastic Constant Matrix: (Units=GPa)
#
#
# Indices 1 2 3 4 5 6 
#
# 1 114.0428 51.0905 30.6752 0.0000 0.0000 0.0000
# 2 51.0905 78.0557 -5.4108 0.0000 0.0000 0.0000
# 3 30.6752 -5.4108 71.9984 0.0000 0.0000 0.0000
# 4 0.0000 0.0000 0.0000 32.5988 0.0000 0.0000
# 5 0.0000 0.0000 0.0000 0.0000 32.4052 0.0000
# 6 0.0000 0.0000 0.0000 0.0000 0.0000 25.0455
#
#
#
# Elastic Compliance Matrix: (Units=1/GPa)
#
#
# Indices 1 2 3 4 5 6 
#
# 1 0.015563 -0.010702 -0.007435 0.000000 0.000000 0.000000
# 2 -0.010702 0.020238 0.006080 0.000000 0.000000 0.000000
# 3 -0.007435 0.006080 0.017514 0.000000 0.000000 0.000000
# 4 0.000000 0.000000 0.000000 0.030676 0.000000 0.000000
# 5 0.000000 0.000000 0.000000 0.000000 0.030859 0.000000
# 6 0.000000 0.000000 0.000000 0.000000 0.000000 0.039927
#
#
# Mechanical properties :
#
#
# Convention : Reuss Voigt Hill
#
# Bulk Modulus (GPa) = 34.24451 46.31185 40.27818
# Shear Modulus (GPa) = 26.50786 30.52603 28.51695
#
# Velocity S-wave (km/s) = 3.25346 3.49135 3.37450
# Velocity P-wave (km/s) = 5.27141 5.89456 5.59167
#
# Compressibility (1/GPa) = 0.02920176
#
# Stress axis : x y z
#
# Youngs Moduli (GPa) = 64.25567 49.41283 57.09783
#
# Poissons Ratio (x) = 0.52881 0.42451
# Poissons Ratio (y) = 0.68766 -0.34718
# Poissons Ratio (z) = 0.47773 -0.30045
#
# Static dielectric constant tensor:
#      x y z
#    x 2.017070 0.000000 0.000000 
#    y 0.000000 2.008550 0.000000 
#    z 0.000000 0.000000 1.987430 
# 
# From -- ./inp_files/4766.got.cif
#   From: 2010.05.17/outbox.cif.g08.bks.cpg/sg43_3_cif.got.tgz:4766.got - 2010.06.03 19:21:55.
