data_PCOD9372441
_publ_section_title
;
Structure prediction by ZEFSAII (Michael W. Deem and Ramdas Pophale) SiO2 
 PCOD9372441
Probable space group: F D D 2
;
_chemical_formula_sum "Si O2"
_cell_formula_units_Z 112
_cell_length_a 25.382593
_cell_length_b 22.368949
_cell_length_c 9.054659
_cell_angle_alpha 90.000000
_cell_angle_beta 90.000000
_cell_angle_gamma 90.000000
_cell_volume 5141.071747
_symmetry_space_group_name_H-M "F D D 2"
_symmetry_group_IT_number 43
_symmetry_cell_setting 'orthorhombic'
loop_
_space_group_symop_operation_xyz
x,y,z
-x,-y,z
1/4-x,1/4+y,1/4+z
1/4+x,1/4-y,1/4+z
x,1/2+y,1/2+z
-x,1/2-y,1/2+z
1/4-x,3/4+y,3/4+z
1/4+x,3/4-y,3/4+z
1/2+x,y,1/2+z
1/2-x,-y,1/2+z
3/4-x,1/4+y,3/4+z
3/4+x,1/4-y,3/4+z
1/2+x,1/2+y,z
1/2-x,1/2-y,z
3/4-x,3/4+y,1/4+z
3/4+x,3/4-y,1/4+z
loop_
_atom_site_type_symbol
_atom_site_label
_atom_site_fract_x
_atom_site_fract_y
_atom_site_fract_z
Si Si1 0.813821 0.015856 0.141950
Si Si2 0.971893 0.866785 0.189238
Si Si3 0.418140 0.479746 0.299029
Si Si4 0.249620 0.064345 0.906851
Si Si5 0.077319 0.192211 0.900527
Si Si6 0.070657 0.413051 0.007331
Si Si7 0.085631 0.823237 0.275849
O O1 0.874322 0.005693 0.185741
O O2 0.696165 0.912582 0.295166
O O3 0.778343 0.018929 0.291744
O O4 0.804953 0.080361 0.071920
O O5 0.957327 0.935741 0.213773
O O6 0.958250 0.719458 0.267480
O O7 0.033775 0.851907 0.200667
O O8 0.443236 0.530290 0.405243
O O9 0.380250 0.442984 0.410547
O O10 0.224133 0.120058 0.821430
O O11 0.295042 0.086289 0.015883
O O12 0.139505 0.182032 0.885534
O O13 0.070198 0.263120 0.867256
O O14 0.103055 0.370950 0.895776
#
# Coordination Sequence:
#
# PCOD9372441 Si02
#       7
#    16  16  16  16  16  16  16
#     4  12  21  41  67 101 129 174 231 284 337 405
#     4  12  24  41  70 100 134 185 224 291 339 413
#     4  11  25  41  65 100 139 174 229 281 343 416
#     4  12  21  39  71 100 135 180 230 285 341 411
#     4  11  24  42  67 103 135 174 241 285 337 407
#     4  11  23  41  65 100 136 182 219 284 347 403
#     4  11  22  41  67  98 134 172 232 283 341 412
#
# _framework density 21.785340999999999
#
# number of rings (size 3 to 8) (size 9 to 14) (size 15 to 20)
#    0.000    0.571    5.714    4.286    0.000    0.571 
#    0.000    0.000    0.000    3.429    0.000    0.000 
#    0.000    0.000    0.000    0.000    0.000    0.000 
#
# Total GULP energy -156424.913871 kJ/mol
# GULP energy per Si atom -5586.604067 kJ/mol
# Density = 2.173576 g / cm^3
# Si number density = 21.785341 Si / 1000 Ang^3
#
#
#
# Elastic Constant Matrix: (Units=GPa)
#
#
# Indices 1 2 3 4 5 6 
#
# 1 83.8698 55.9711 27.9291 -0.0007 0.0004 0.0002
# 2 55.9711 91.1905 38.1290 -0.0009 0.0003 0.0003
# 3 27.9291 38.1290 105.5041 -0.0033 0.0012 0.0009
# 4 -0.0007 -0.0009 -0.0033 33.8847 0.0006 0.0006
# 5 0.0004 0.0003 0.0012 0.0006 30.4359 -0.0002
# 6 0.0002 0.0003 0.0009 0.0006 -0.0002 43.9205
#
#
#
# Elastic Compliance Matrix: (Units=1/GPa)
#
#
# Indices 1 2 3 4 5 6 
#
# 1 0.020289 -0.012024 -0.001025 0.000000 0.000000 0.000000
# 2 -0.012024 0.020044 -0.004061 0.000000 0.000000 0.000000
# 3 -0.001025 -0.004061 0.011217 0.000001 0.000000 0.000000
# 4 0.000000 0.000000 0.000001 0.029512 -0.000001 0.000000
# 5 0.000000 0.000000 0.000000 -0.000001 0.032856 0.000000
# 6 0.000000 0.000000 0.000000 0.000000 0.000000 0.022768
#
#
# Mechanical properties :
#
#
# Convention : Reuss Voigt Hill
#
# Bulk Modulus (GPa) = 57.70480 58.29143 57.99812
# Shear Modulus (GPa) = 28.29891 32.21725 30.25808
#
# Velocity S-wave (km/s) = 3.60806 3.84975 3.73086
# Velocity P-wave (km/s) = 6.62592 6.82467 6.72603
#
# Compressibility (1/GPa) = 0.01732958
#
# Stress axis : x y z
#
# Youngs Moduli (GPa) = 49.28704 49.88917 89.14771
#
# Poissons Ratio (x) = 0.59989 0.09141
# Poissons Ratio (y) = 0.59265 0.36202
# Poissons Ratio (z) = 0.05054 0.20259
#
# Static dielectric constant tensor:
#      x y z
#    x 1.823490 0.000000 0.000000 
#    y 0.000000 1.849250 0.000000 
#    z 0.000000 0.000000 1.807060 
# 
# From -- ./inp_files/7594.got.cif
#   From: 2010.05.17/outbox.cif.g08.bks.cpg/sg43_4_cif.got.tgz:7594.got - 2010.06.03 19:21:55.
