data_PCOD9372479
_publ_section_title
;
Structure prediction by ZEFSAII (Michael W. Deem and Ramdas Pophale) SiO2 
 PCOD9372479
Probable space group: F D D 2
;
_chemical_formula_sum "Si O2"
_cell_formula_units_Z 80
_cell_length_a 5.093555
_cell_length_b 26.287622
_cell_length_c 23.897490
_cell_angle_alpha 90.000000
_cell_angle_beta 90.000000
_cell_angle_gamma 90.000000
_cell_volume 3199.812936
_symmetry_space_group_name_H-M "F D D 2"
_symmetry_group_IT_number 43
_symmetry_cell_setting 'orthorhombic'
loop_
_space_group_symop_operation_xyz
x,y,z
-x,-y,z
1/4-x,1/4+y,1/4+z
1/4+x,1/4-y,1/4+z
x,1/2+y,1/2+z
-x,1/2-y,1/2+z
1/4-x,3/4+y,3/4+z
1/4+x,3/4-y,3/4+z
1/2+x,y,1/2+z
1/2-x,-y,1/2+z
3/4-x,1/4+y,3/4+z
3/4+x,1/4-y,3/4+z
1/2+x,1/2+y,z
1/2-x,1/2-y,z
3/4-x,3/4+y,1/4+z
3/4+x,3/4-y,1/4+z
loop_
_atom_site_type_symbol
_atom_site_label
_atom_site_fract_x
_atom_site_fract_y
_atom_site_fract_z
Si Si1 0.924441 0.613320 0.295630
Si Si2 0.316385 0.423372 0.519653
Si Si3 0.345924 0.649359 0.152156
Si Si4 0.490518 0.719064 0.576984
Si Si5 0.004104 0.716473 0.889755
O O1 0.650776 0.628033 0.267568
O O2 0.838746 0.608246 0.360258
O O3 0.141033 0.655996 0.286026
O O4 0.073773 0.561424 0.280511
O O5 0.339535 0.435369 0.454493
O O6 0.229145 0.458135 0.571372
O O7 0.120409 0.677727 0.117599
O O8 0.255582 0.591274 0.163586
O O9 0.750000 0.750000 0.558514
O O10 0.250000 0.750000 0.604538
O O11 0.750000 0.750000 0.901206
O O12 0.250000 0.750000 0.908110
#
# Coordination Sequence:
#
# PCOD9372479 Si02
#       5
#    16  16  16  16  16
#     4  11  22  45  67  99 140 189 230 303 363 421
#     4  11  25  43  75 101 140 192 246 297 369 439
#     4  11  26  46  75 103 151 189 244 307 375 443
#     4  12  23  42  71 100 142 190 233 297 369 428
#     4  11  24  46  72 102 143 190 241 301 368 439
#
# _framework density 25.001463000000001
#
# number of rings (size 3 to 8) (size 9 to 14) (size 15 to 20)
#    0.000    0.800    6.000    2.400    2.800    0.800 
#    3.600    4.000    0.000    0.000    0.000    0.000 
#    0.000    0.000    0.000    0.000    0.000    0.000 
#
# Total GULP energy -111643.588817 kJ/mol
# GULP energy per Si atom -5582.179441 kJ/mol
# Density = 2.494456 g / cm^3
# Si number density = 25.001463 Si / 1000 Ang^3
#
#
#
# Elastic Constant Matrix: (Units=GPa)
#
#
# Indices 1 2 3 4 5 6 
#
# 1 194.3550 32.1767 18.6219 0.0000 0.0000 0.0000
# 2 32.1767 91.9611 -9.3749 0.0000 0.0000 0.0000
# 3 18.6219 -9.3749 73.0943 0.0000 0.0000 0.0000
# 4 0.0000 0.0000 0.0000 8.7041 0.0000 0.0000
# 5 0.0000 0.0000 0.0000 0.0000 10.9938 0.0000
# 6 0.0000 0.0000 0.0000 0.0000 0.0000 53.1199
#
#
#
# Elastic Compliance Matrix: (Units=1/GPa)
#
#
# Indices 1 2 3 4 5 6 
#
# 1 0.005667 -0.002158 -0.001721 0.000000 0.000000 0.000000
# 2 -0.002158 0.011840 0.002068 0.000000 0.000000 0.000000
# 3 -0.001721 0.002068 0.014385 0.000000 0.000000 0.000000
# 4 0.000000 0.000000 0.000000 0.114888 0.000000 0.000000
# 5 0.000000 0.000000 0.000000 0.000000 0.090960 0.000000
# 6 0.000000 0.000000 0.000000 0.000000 0.000000 0.018825
#
#
# Mechanical properties :
#
#
# Convention : Reuss Voigt Hill
#
# Bulk Modulus (GPa) = 35.37186 49.13978 42.25582
# Shear Modulus (GPa) = 18.54527 35.76268 27.15398
#
# Velocity S-wave (km/s) = 2.72650 3.78620 3.29917
# Velocity P-wave (km/s) = 4.90819 6.22986 5.60810
#
# Compressibility (1/GPa) = 0.02827106
#
# Stress axis : x y z
#
# Youngs Moduli (GPa) = 176.44673 84.45764 69.51861
#
# Poissons Ratio (x) = 0.18230 0.11962
# Poissons Ratio (y) = 0.38085 -0.14380
# Poissons Ratio (z) = 0.30361 -0.17470
#
# Static dielectric constant tensor:
#      x y z
#    x 1.926670 0.000000 0.000000 
#    y 0.000000 2.122930 0.000000 
#    z 0.000000 0.000000 1.989300 
# 
# From -- ./inp_files/19505.got.cif
#   From: 2010.05.17/outbox.cif.g08.bks.cpg/sg43_10_cif.got.tgz:19505.got - 2010.06.03 19:21:55.
