data_PCOD9372961
_publ_section_title
;
Structure prediction by ZEFSAII (Michael W. Deem and Ramdas Pophale) SiO2 
 PCOD9372961
Probable space group: F D D 2
;
_chemical_formula_sum "Si O2"
_cell_formula_units_Z 28
_cell_length_a 12.000000
_cell_length_b 30.000000
_cell_length_c 15.000000
_cell_angle_alpha 90.000000
_cell_angle_beta 90.000000
_cell_angle_gamma 90.000000
_cell_volume 5400.000000
_symmetry_space_group_name_H-M "F D D 2"
_symmetry_group_IT_number 43
_symmetry_cell_setting 'orthorhombic'
loop_
_space_group_symop_operation_xyz
x,y,z
-x,-y,z
1/4-x,1/4+y,1/4+z
1/4+x,1/4-y,1/4+z
x,1/2+y,1/2+z
-x,1/2-y,1/2+z
1/4-x,3/4+y,3/4+z
1/4+x,3/4-y,3/4+z
1/2+x,y,1/2+z
1/2-x,-y,1/2+z
3/4-x,1/4+y,3/4+z
3/4+x,1/4-y,3/4+z
1/2+x,1/2+y,z
1/2-x,1/2-y,z
3/4-x,3/4+y,1/4+z
3/4+x,3/4-y,1/4+z
loop_
_atom_site_type_symbol
_atom_site_label
_atom_site_fract_x
_atom_site_fract_y
_atom_site_fract_z
Si Si1 0.990045 0.904802 0.421240
Si Si2 0.043836 0.238999 0.528617
Si Si3 0.090769 0.066069 0.859697
Si Si4 0.450862 0.088493 0.716707
Si Si5 0.909447 0.702500 0.368843
Si Si6 0.250000 0.750000 0.163976
Si Si7 0.250000 0.250000 0.247974
Si Si8 0.262544 0.115442 0.982653
O O1 0.993693 0.908474 0.314086
O O2 0.111060 0.885029 0.445697
O O3 0.876384 0.880667 0.446839
O O4 0.994259 0.953803 0.464574
O O5 0.108453 0.200258 0.474836
O O6 0.033611 0.279090 0.458410
O O7 0.136640 0.249494 0.604410
O O8 0.930012 0.219514 0.569696
O O9 0.011834 0.088275 0.785993
O O10 0.171454 0.103487 0.906525
O O11 0.013598 0.042475 0.933442
O O12 0.549277 0.075705 0.648687
O O13 0.857674 0.743261 0.310747
O O14 0.987564 0.673033 0.305910
#
# Coordination Sequence:
#
# PCOD9372961 Si02
#       8
#    16  16  16  16  16   8   8  16
#     4  11  21  42  62  91 124 167 208 260 318 372
#     4  11  18  41  68  87 123 168 204 263 307 371
#     4  11  24  43  66  87 129 166 206 256 323 377
#     4  11  21  39  65  91 124 165 211 257 308 385
#     4  11  22  42  65  92 127 163 214 263 316 372
#     4  10  19  38  64  87 118 158 216 246 305 366
#     4  10  23  42  62  91 124 162 202 256 317 376
#     4  11  23  41  62  92 129 165 198 267 318 373
#
# _framework density 5.1851849999999997
#
# number of rings (size 3 to 8) (size 9 to 14) (size 15 to 20)
#    0.000    1.143    8.571    0.000    0.000    3.429 
#    7.714    0.000    0.000    0.000    0.000    0.000 
#    0.000    0.000    0.000    0.000    0.000    0.000 
#
# Total GULP energy -156158.725150 kJ/mol
# GULP energy per Si atom -5577.097327 kJ/mol
# Density = 0.517338 g / cm^3
# Si number density = 5.185185 Si / 1000 Ang^3
#
#
#
# Elastic Constant Matrix: (Units=GPa)
#
#
# Indices 1 2 3 4 5 6 
#
# 1 64.6602 22.9182 22.2601 0.0000 0.0000 0.0000
# 2 22.9182 47.8178 15.4781 0.0000 0.0000 0.0000
# 3 22.2601 15.4781 48.5826 0.0000 0.0000 0.0000
# 4 0.0000 0.0000 0.0000 39.3246 0.0000 0.0000
# 5 0.0000 0.0000 0.0000 0.0000 -13.4488 0.0000
# 6 0.0000 0.0000 0.0000 0.0000 0.0000 41.5892
#
#
#
# Elastic Compliance Matrix: (Units=1/GPa)
#
#
# Indices 1 2 3 4 5 6 
#
# 1 0.020567 -0.007590 -0.007006 0.000000 0.000000 0.000000
# 2 -0.007590 0.026118 -0.004843 0.000000 0.000000 0.000000
# 3 -0.007006 -0.004843 0.025337 0.000000 0.000000 0.000000
# 4 0.000000 0.000000 0.000000 0.025429 0.000000 0.000000
# 5 0.000000 0.000000 0.000000 0.000000 -0.074356 0.000000
# 6 0.000000 0.000000 0.000000 0.000000 0.000000 0.024045
#
#
# Mechanical properties :
#
#
# Convention : Reuss Voigt Hill
#
# Bulk Modulus (GPa) = 30.17137 31.37483 30.77310
# Shear Modulus (GPa) = 51.51090 20.18658 35.84874
#
# Velocity S-wave (km/s) = 4.98894 3.12313 4.16194
# Velocity P-wave (km/s) = 6.91119 5.30709 6.16157
#
# Compressibility (1/GPa) = 0.03314401
#
# Stress axis : x y z
#
# Youngs Moduli (GPa) = 48.62050 38.28740 39.46866
#
# Poissons Ratio (x) = 0.29060 0.27651
# Poissons Ratio (y) = 0.36903 0.19117
# Poissons Ratio (z) = 0.34062 0.18544
#
# Static dielectric constant tensor:
#      x y z
#    x 1.700320 0.000000 0.000000 
#    y 0.000000 1.850410 0.000000 
#    z 0.000000 0.000000 1.786980 
# 
# From -- ./inp_files/9806.got.cif
#   From: 2010.05.17/outbox.ucp.g08.bks.cvg/sg43_5_cif.got.tgz:9806.got - 2010.06.11 16:31:01.
