data_PCOD9372331
_publ_section_title
;
Structure prediction by ZEFSAII (Michael W. Deem and Ramdas Pophale) SiO2 
 PCOD9372331
Probable space group: F D D 2
;
_chemical_formula_sum "Si O2"
_cell_formula_units_Z 104
_cell_length_a 14.440133
_cell_length_b 23.750279
_cell_length_c 15.598107
_cell_angle_alpha 90.000000
_cell_angle_beta 90.000000
_cell_angle_gamma 90.000000
_cell_volume 5349.482908
_symmetry_space_group_name_H-M "F D D 2"
_symmetry_group_IT_number 43
_symmetry_cell_setting 'orthorhombic'
loop_
_space_group_symop_operation_xyz
x,y,z
-x,-y,z
1/4-x,1/4+y,1/4+z
1/4+x,1/4-y,1/4+z
x,1/2+y,1/2+z
-x,1/2-y,1/2+z
1/4-x,3/4+y,3/4+z
1/4+x,3/4-y,3/4+z
1/2+x,y,1/2+z
1/2-x,-y,1/2+z
3/4-x,1/4+y,3/4+z
3/4+x,1/4-y,3/4+z
1/2+x,1/2+y,z
1/2-x,1/2-y,z
3/4-x,3/4+y,1/4+z
3/4+x,3/4-y,1/4+z
loop_
_atom_site_type_symbol
_atom_site_label
_atom_site_fract_x
_atom_site_fract_y
_atom_site_fract_z
Si Si1 0.500000 0.000000 0.058270
Si Si2 0.485999 0.614528 0.331748
Si Si3 0.314800 0.449619 0.731998
Si Si4 0.314800 0.050381 0.884543
Si Si5 0.394070 0.818390 0.429914
Si Si6 0.014001 0.114528 0.784793
Si Si7 0.144070 0.568390 0.936627
O O1 0.433576 0.040220 0.115750
O O2 0.566424 0.040220 0.000791
O O3 0.455907 0.663500 0.398067
O O4 0.419092 0.562235 0.354178
O O5 0.457941 0.638588 0.239468
O O6 0.588933 0.597426 0.358746
O O7 0.250000 0.428719 0.808270
O O8 0.299653 0.514679 0.712656
O O9 0.419092 0.437765 0.762363
O O10 0.299653 0.985321 0.903885
O O11 0.294093 0.086500 0.968474
O O12 0.338933 0.847426 0.507795
O O13 0.457941 0.861412 0.377073
#
# Coordination Sequence:
#
# PCOD9372331 Si02
#       7
#     8  16  16  16  16  16  16
#     4  12  16  28  52  80 104 136 168 236 292 332
#     4  11  20  34  55  84 118 151 196 245 302 347
#     4  11  20  33  54  85 117 151 193 247 299 347
#     4  11  20  33  54  85 117 151 193 247 299 347
#     4  12  21  34  56  85 118 147 194 245 301 354
#     4  11  20  34  55  84 118 151 196 245 302 347
#     4  12  21  34  56  85 118 147 194 245 301 354
#
# _framework density 19.441130999999999
#
# number of rings (size 3 to 8) (size 9 to 14) (size 15 to 20)
#    0.000    0.615    9.231    1.846    0.000    0.000 
#    0.000    1.538    0.000    0.000    0.000    0.000 
#    0.000    0.000    0.000    0.000    0.000    0.000 
#
# Total GULP energy -145204.688992 kJ/mol
# GULP energy per Si atom -5584.795730 kJ/mol
# Density = 1.939688 g / cm^3
# Si number density = 19.441131 Si / 1000 Ang^3
#
#
#
# Elastic Constant Matrix: (Units=GPa)
#
#
# Indices 1 2 3 4 5 6 
#
# 1 28.6488 -2.4175 20.1517 0.0000 0.0000 0.0000
# 2 -2.4175 54.7331 -3.3210 0.0000 0.0000 0.0000
# 3 20.1517 -3.3210 33.0656 0.0000 0.0000 0.0000
# 4 0.0000 0.0000 0.0000 21.3676 0.0000 0.0000
# 5 0.0000 0.0000 0.0000 0.0000 42.4885 0.0000
# 6 0.0000 0.0000 0.0000 0.0000 0.0000 17.0906
#
#
#
# Elastic Compliance Matrix: (Units=1/GPa)
#
#
# Indices 1 2 3 4 5 6 
#
# 1 0.061108 0.000442 -0.037197 0.000000 0.000000 0.000000
# 2 0.000442 0.018386 0.001577 0.000000 0.000000 0.000000
# 3 -0.037197 0.001577 0.053071 0.000000 0.000000 0.000000
# 4 0.000000 0.000000 0.000000 0.046800 0.000000 0.000000
# 5 0.000000 0.000000 0.000000 0.000000 0.023536 0.000000
# 6 0.000000 0.000000 0.000000 0.000000 0.000000 0.058512
#
#
# Mechanical properties :
#
#
# Convention : Reuss Voigt Hill
#
# Bulk Modulus (GPa) = 16.07504 16.14152 16.10828
# Shear Modulus (GPa) = 14.18424 22.99163 18.58793
#
# Velocity S-wave (km/s) = 2.70404 3.44267 3.09546
# Velocity P-wave (km/s) = 4.24684 4.91156 4.59124
#
# Compressibility (1/GPa) = 0.06220824
#
# Stress axis : x y z
#
# Youngs Moduli (GPa) = 16.36457 54.39011 18.84265
#
# Poissons Ratio (x) = -0.02405 0.70090
# Poissons Ratio (y) = -0.00723 -0.02972
# Poissons Ratio (z) = 0.60872 -0.08578
#
# Static dielectric constant tensor:
#      x y z
#    x 1.706280 0.000000 0.000000 
#    y 0.000000 1.677250 0.000000 
#    z 0.000000 0.000000 1.696320 
# 
# From -- ./inp_files/10682.got.cif
#   From: 2010.05.17/outbox.cif.g08.bks.cpg/sg43_6_cif.got.tgz:10682.got - 2010.06.03 19:21:55.
