data_PCOD9372550
_publ_section_title
;
Structure prediction by ZEFSAII (Michael W. Deem and Ramdas Pophale) SiO2 
 PCOD9372550
Probable space group: F D D 2
;
_chemical_formula_sum "Si O2"
_cell_formula_units_Z 120
_cell_length_a 27.185959
_cell_length_b 19.164365
_cell_length_c 10.073714
_cell_angle_alpha 90.000000
_cell_angle_beta 90.000000
_cell_angle_gamma 90.000000
_cell_volume 5248.421526
_symmetry_space_group_name_H-M "F D D 2"
_symmetry_group_IT_number 43
_symmetry_cell_setting 'orthorhombic'
loop_
_space_group_symop_operation_xyz
x,y,z
-x,-y,z
1/4-x,1/4+y,1/4+z
1/4+x,1/4-y,1/4+z
x,1/2+y,1/2+z
-x,1/2-y,1/2+z
1/4-x,3/4+y,3/4+z
1/4+x,3/4-y,3/4+z
1/2+x,y,1/2+z
1/2-x,-y,1/2+z
3/4-x,1/4+y,3/4+z
3/4+x,1/4-y,3/4+z
1/2+x,1/2+y,z
1/2-x,1/2-y,z
3/4-x,3/4+y,1/4+z
3/4+x,3/4-y,1/4+z
loop_
_atom_site_type_symbol
_atom_site_label
_atom_site_fract_x
_atom_site_fract_y
_atom_site_fract_z
Si Si1 0.683830 0.417722 0.380770
Si Si2 0.825575 0.857315 0.157619
Si Si3 0.500420 0.724998 0.998355
Si Si4 0.409762 0.583875 0.208625
Si Si5 0.818216 0.647384 0.307981
Si Si6 0.082171 0.771162 0.336565
Si Si7 0.750000 0.250000 0.976811
Si Si8 0.425050 0.966073 0.268944
O O1 0.727153 0.470580 0.348811
O O2 0.644418 0.430158 0.263964
O O3 0.657532 0.448803 0.511836
O O4 0.699117 0.338182 0.412405
O O5 0.786186 0.918129 0.183984
O O6 0.834026 0.821335 0.302078
O O7 0.877052 0.891742 0.115011
O O8 0.810294 0.796243 0.053446
O O9 0.526832 0.770310 0.886982
O O10 0.544198 0.678938 0.058625
O O11 0.413768 0.666229 0.233267
O O12 0.453764 0.543674 0.286714
O O13 0.780285 0.693570 0.391996
O O14 0.820213 0.678265 0.160238
O O15 0.120307 0.781492 0.456269
#
# Coordination Sequence:
#
# PCOD9372550 Si02
#       8
#    16  16  16  16  16  16   8  16
#     4  11  24  45  68 103 143 192 239 313 368 452
#     4  12  24  43  74 109 139 197 246 310 371 457
#     4  12  24  43  71 106 141 193 250 294 377 449
#     4  11  25  42  71 100 144 184 242 303 374 440
#     4  12  23  43  72 105 143 192 242 312 365 452
#     4  11  24  47  68 100 146 193 239 306 367 453
#     4  12  22  42  66 104 142 176 246 308 358 434
#     4  11  23  44  71 100 147 190 239 306 379 428
#
# _framework density 22.864017
#
# number of rings (size 3 to 8) (size 9 to 14) (size 15 to 20)
#    0.000    0.533    6.667    0.800    0.000    3.200 
#    2.400    0.000    0.000    0.000    0.000    0.000 
#    0.000    0.000    0.000    0.000    0.000    0.000 
#
# Total GULP energy -167482.019531 kJ/mol
# GULP energy per Si atom -5582.733984 kJ/mol
# Density = 2.281198 g / cm^3
# Si number density = 22.864017 Si / 1000 Ang^3
#
#
#
# Elastic Constant Matrix: (Units=GPa)
#
#
# Indices 1 2 3 4 5 6 
#
# 1 47.1371 6.4037 23.4661 0.0000 0.0000 0.0000
# 2 6.4037 89.2896 19.5896 0.0000 0.0000 0.0000
# 3 23.4661 19.5896 31.6355 -0.0001 0.0000 0.0000
# 4 0.0000 0.0000 -0.0001 31.3446 0.0000 0.0000
# 5 0.0000 0.0000 0.0000 0.0000 17.6537 0.0000
# 6 0.0000 0.0000 0.0000 0.0000 0.0000 17.3357
#
#
#
# Elastic Compliance Matrix: (Units=1/GPa)
#
#
# Indices 1 2 3 4 5 6 
#
# 1 0.034632 0.003648 -0.027948 0.000000 0.000000 0.000000
# 2 0.003648 0.013344 -0.010969 0.000000 0.000000 0.000000
# 3 -0.027948 -0.010969 0.059133 0.000000 0.000000 0.000000
# 4 0.000000 0.000000 0.000000 0.031903 0.000000 0.000000
# 5 0.000000 0.000000 0.000000 0.000000 0.056645 0.000000
# 6 0.000000 0.000000 0.000000 0.000000 0.000000 0.057684
#
#
# Mechanical properties :
#
#
# Convention : Reuss Voigt Hill
#
# Bulk Modulus (GPa) = 27.34357 29.66456 28.50407
# Shear Modulus (GPa) = 14.87775 21.17366 18.02570
#
# Velocity S-wave (km/s) = 2.55366 3.04644 2.81087
# Velocity P-wave (km/s) = 4.54754 5.03755 4.79880
#
# Compressibility (1/GPa) = 0.03657167
#
# Stress axis : x y z
#
# Youngs Moduli (GPa) = 28.87469 74.93756 16.91094
#
# Poissons Ratio (x) = -0.27336 0.47263
# Poissons Ratio (y) = -0.10533 0.18550
# Poissons Ratio (z) = 0.80699 0.82200
#
# Static dielectric constant tensor:
#      x y z
#    x 1.858250 0.000000 0.000000 
#    y 0.000000 1.931550 0.000000 
#    z 0.000000 0.000000 1.901960 
# 
# From -- ./inp_files/8025.got.cif
#   From: 2010.05.17/outbox.cif.g08.bks.cpg/sg43_5_cif.got.tgz:8025.got - 2010.06.03 19:21:55.
