data_PCOD9372496
_publ_section_title
;
Structure prediction by ZEFSAII (Michael W. Deem and Ramdas Pophale) SiO2 
 PCOD9372496
Probable space group: F D D 2
;
_chemical_formula_sum "Si O2"
_cell_formula_units_Z 120
_cell_length_a 16.566597
_cell_length_b 11.613668
_cell_length_c 27.998467
_cell_angle_alpha 90.000000
_cell_angle_beta 90.000000
_cell_angle_gamma 90.000000
_cell_volume 5386.875861
_symmetry_space_group_name_H-M "F D D 2"
_symmetry_group_IT_number 43
_symmetry_cell_setting 'orthorhombic'
loop_
_space_group_symop_operation_xyz
x,y,z
-x,-y,z
1/4-x,1/4+y,1/4+z
1/4+x,1/4-y,1/4+z
x,1/2+y,1/2+z
-x,1/2-y,1/2+z
1/4-x,3/4+y,3/4+z
1/4+x,3/4-y,3/4+z
1/2+x,y,1/2+z
1/2-x,-y,1/2+z
3/4-x,1/4+y,3/4+z
3/4+x,1/4-y,3/4+z
1/2+x,1/2+y,z
1/2-x,1/2-y,z
3/4-x,3/4+y,1/4+z
3/4+x,3/4-y,1/4+z
loop_
_atom_site_type_symbol
_atom_site_label
_atom_site_fract_x
_atom_site_fract_y
_atom_site_fract_z
Si Si1 0.927726 0.060540 0.884890
Si Si2 0.326671 0.071046 0.662929
Si Si3 0.851798 0.376313 0.191045
Si Si4 0.960631 0.376515 0.562599
Si Si5 0.616590 0.753512 0.592586
Si Si6 0.712072 0.544566 0.469713
Si Si7 0.750000 0.250000 0.023294
Si Si8 0.634399 0.112194 0.462475
O O1 0.938922 0.186341 0.907728
O O2 0.850709 0.081457 0.852189
O O3 0.914159 0.966744 0.925661
O O4 0.000000 0.000000 0.855430
O O5 0.245258 0.120185 0.686728
O O6 0.338324 0.130245 0.611179
O O7 0.409991 0.110869 0.688445
O O8 0.885379 0.323031 0.140642
O O9 0.886137 0.289822 0.231529
O O10 0.882797 0.504884 0.197558
O O11 0.911205 0.390486 0.513542
O O12 0.000000 0.500000 0.574761
O O13 0.034565 0.286901 0.566324
O O14 0.676202 0.702066 0.554050
O O15 0.772057 0.634983 0.495312
O O16 0.777045 0.444269 0.458786
#
# Coordination Sequence:
#
# PCOD9372496 Si02
#       8
#    16  16  16  16  16  16   8  16
#     4  12  25  45  77 105 150 202 252 318 396 451
#     4  11  22  47  74 103 146 197 258 312 381 472
#     4  11  24  47  73 102 152 198 249 315 398 468
#     4  12  27  46  76 112 153 198 268 323 385 475
#     4  11  23  47  76 102 147 197 248 318 380 465
#     4  11  25  41  73 103 144 189 247 308 383 448
#     4  12  24  42  74 108 142 184 254 308 374 456
#     4  12  27  47  73 112 153 197 251 327 393 468
#
# _framework density 22.276363
#
# number of rings (size 3 to 8) (size 9 to 14) (size 15 to 20)
#    0.000    0.533    4.000    5.200    1.867    1.067 
#    2.400    0.000    0.000    0.000    0.000    0.000 
#    0.000    0.000    0.000    0.000    0.000    0.000 
#
# Total GULP energy -167124.599400 kJ/mol
# GULP energy per Si atom -5570.819980 kJ/mol
# Density = 2.222566 g / cm^3
# Si number density = 22.276363 Si / 1000 Ang^3
#
#
#
# Elastic Constant Matrix: (Units=GPa)
#
#
# Indices 1 2 3 4 5 6 
#
# 1 142.9112 34.5128 25.5410 0.0000 0.0000 0.0000
# 2 34.5128 168.1554 26.1011 0.0000 0.0000 0.0000
# 3 25.5410 26.1011 39.5396 0.0000 0.0000 0.0000
# 4 0.0000 0.0000 0.0000 17.0076 0.0000 0.0000
# 5 0.0000 0.0000 0.0000 0.0000 21.0995 0.0000
# 6 0.0000 0.0000 0.0000 0.0000 0.0000 51.4183
#
#
#
# Elastic Compliance Matrix: (Units=1/GPa)
#
#
# Indices 1 2 3 4 5 6 
#
# 1 0.008042 -0.000941 -0.004574 0.000000 0.000000 0.000000
# 2 -0.000941 0.006736 -0.003839 0.000000 0.000000 0.000000
# 3 -0.004574 -0.003839 0.030780 0.000000 0.000000 0.000000
# 4 0.000000 0.000000 0.000000 0.058797 0.000000 0.000000
# 5 0.000000 0.000000 0.000000 0.000000 0.047395 0.000000
# 6 0.000000 0.000000 0.000000 0.000000 0.000000 0.019448
#
#
# Mechanical properties :
#
#
# Convention : Reuss Voigt Hill
#
# Bulk Modulus (GPa) = 37.24282 58.10178 47.67230
# Shear Modulus (GPa) = 25.14400 35.53515 30.33957
#
# Velocity S-wave (km/s) = 3.36330 3.99832 3.69448
# Velocity P-wave (km/s) = 5.64245 6.88871 6.29649
#
# Compressibility (1/GPa) = 0.02685081
#
# Stress axis : x y z
#
# Youngs Moduli (GPa) = 124.34800 148.46032 32.48889
#
# Poissons Ratio (x) = 0.13964 0.14860
# Poissons Ratio (y) = 0.11696 0.12472
# Poissons Ratio (z) = 0.56875 0.56992
#
# Static dielectric constant tensor:
#      x y z
#    x 1.916520 0.000000 0.000000 
#    y 0.000000 1.827620 0.000000 
#    z 0.000000 0.000000 1.959730 
# 
# From -- ./inp_files/26071.got.cif
#   From: 2010.05.17/outbox.cif.g08.bks.cpg/sg43_14_cif.got.tgz:26071.got - 2010.06.03 19:21:55.
