data_PCOD9372395
_publ_section_title
;
Structure prediction by ZEFSAII (Michael W. Deem and Ramdas Pophale) SiO2 
 PCOD9372395
Probable space group: F D D 2
;
_chemical_formula_sum "Si O2"
_cell_formula_units_Z 88
_cell_length_a 8.771153
_cell_length_b 18.924398
_cell_length_c 24.684903
_cell_angle_alpha 90.000000
_cell_angle_beta 90.000000
_cell_angle_gamma 90.000000
_cell_volume 4097.417187
_symmetry_space_group_name_H-M "F D D 2"
_symmetry_group_IT_number 43
_symmetry_cell_setting 'orthorhombic'
loop_
_space_group_symop_operation_xyz
x,y,z
-x,-y,z
1/4-x,1/4+y,1/4+z
1/4+x,1/4-y,1/4+z
x,1/2+y,1/2+z
-x,1/2-y,1/2+z
1/4-x,3/4+y,3/4+z
1/4+x,3/4-y,3/4+z
1/2+x,y,1/2+z
1/2-x,-y,1/2+z
3/4-x,1/4+y,3/4+z
3/4+x,1/4-y,3/4+z
1/2+x,1/2+y,z
1/2-x,1/2-y,z
3/4-x,3/4+y,1/4+z
3/4+x,3/4-y,1/4+z
loop_
_atom_site_type_symbol
_atom_site_label
_atom_site_fract_x
_atom_site_fract_y
_atom_site_fract_z
Si Si1 0.555132 0.837186 0.633790
Si Si2 0.542418 0.919316 0.741683
Si Si3 0.002452 0.082026 0.033113
Si Si4 0.116255 0.125338 0.593527
Si Si5 0.493827 0.308239 0.695223
Si Si6 0.250000 0.250000 0.779787
O O1 0.578124 0.891867 0.682520
O O2 0.455738 0.869554 0.584901
O O3 0.725969 0.835378 0.609661
O O4 0.497581 0.764676 0.660260
O O5 0.405634 0.866208 0.760970
O O6 0.674206 0.915034 0.787402
O O7 0.500000 0.000000 0.738774
O O8 0.115143 0.078406 0.982555
O O9 0.000000 0.000000 0.051901
O O10 0.024196 0.133643 0.648438
O O11 0.105716 0.046067 0.570088
O O12 0.356605 0.293966 0.738111
#
# Coordination Sequence:
#
# PCOD9372395 Si02
#       6
#    16  16  16  16  16   8
#     4  11  21  42  67  95 142 190 239 300 376 446
#     4  11  22  40  67  99 134 183 244 292 365 451
#     4  11  23  40  65 103 141 185 246 309 368 444
#     4  11  22  39  68  93 131 194 241 290 370 451
#     4  12  22  44  68  98 147 191 240 311 374 445
#     4  12  24  44  66 102 138 188 254 308 374 442
#
# _framework density 21.476942999999999
#
# number of rings (size 3 to 8) (size 9 to 14) (size 15 to 20)
#    0.000    0.727    5.455    3.818    0.000    2.909 
#    0.000    1.818    0.000    0.000    0.000    0.000 
#    0.000    0.000    0.000    0.000    0.000    0.000 
#
# Total GULP energy -122492.180785 kJ/mol
# GULP energy per Si atom -5567.826399 kJ/mol
# Density = 2.142806 g / cm^3
# Si number density = 21.476943 Si / 1000 Ang^3
#
#
#
# Elastic Constant Matrix: (Units=GPa)
#
#
# Indices 1 2 3 4 5 6 
#
# 1 51.2642 25.8060 41.4509 0.0000 0.0000 0.0000
# 2 25.8060 97.7149 56.4807 0.0000 0.0000 0.0000
# 3 41.4509 56.4807 186.1096 0.0000 0.0000 0.0000
# 4 0.0000 0.0000 0.0000 54.2452 0.0000 0.0000
# 5 0.0000 0.0000 0.0000 0.0000 29.2875 0.0000
# 6 0.0000 0.0000 0.0000 0.0000 0.0000 26.0201
#
#
#
# Elastic Compliance Matrix: (Units=1/GPa)
#
#
# Indices 1 2 3 4 5 6 
#
# 1 0.025087 -0.004118 -0.004338 0.000000 0.000000 0.000000
# 2 -0.004118 0.013087 -0.003054 0.000000 0.000000 0.000000
# 3 -0.004338 -0.003054 0.007266 0.000000 0.000000 0.000000
# 4 0.000000 0.000000 0.000000 0.018435 0.000000 0.000000
# 5 0.000000 0.000000 0.000000 0.000000 0.034144 0.000000
# 6 0.000000 0.000000 0.000000 0.000000 0.000000 0.038432
#
#
# Mechanical properties :
#
#
# Convention : Reuss Voigt Hill
#
# Bulk Modulus (GPa) = 44.60340 64.72934 54.66637
# Shear Modulus (GPa) = 29.94997 36.00064 32.97530
#
# Velocity S-wave (km/s) = 3.73837 4.09864 3.92265
# Velocity P-wave (km/s) = 6.28069 7.25278 6.78417
#
# Compressibility (1/GPa) = 0.02241982
#
# Stress axis : x y z
#
# Youngs Moduli (GPa) = 39.86096 76.41211 137.62247
#
# Poissons Ratio (x) = 0.31467 0.59697
# Poissons Ratio (y) = 0.16415 0.42036
# Poissons Ratio (z) = 0.17291 0.23340
#
# Static dielectric constant tensor:
#      x y z
#    x 1.885620 0.000000 0.000000 
#    y 0.000000 1.819010 0.000000 
#    z 0.000000 0.000000 1.806100 
# 
# From -- ./inp_files/20202.got.cif
#   From: 2010.05.17/outbox.cif.g08.bks.cpg/sg43_11_cif.got.tgz:20202.got - 2010.06.03 19:21:55.
