data_PCOD9372118
_publ_section_title
;
Structure prediction by ZEFSAII (Michael W. Deem and Ramdas Pophale) SiO2 
 PCOD9372118
Probable space group: F D D 2
;
_chemical_formula_sum "Si O2"
_cell_formula_units_Z 80
_cell_length_a 13.800949
_cell_length_b 20.228651
_cell_length_c 12.009181
_cell_angle_alpha 90.000000
_cell_angle_beta 90.000000
_cell_angle_gamma 90.000000
_cell_volume 3352.658071
_symmetry_space_group_name_H-M "F D D 2"
_symmetry_group_IT_number 43
_symmetry_cell_setting 'orthorhombic'
loop_
_space_group_symop_operation_xyz
x,y,z
-x,-y,z
1/4-x,1/4+y,1/4+z
1/4+x,1/4-y,1/4+z
x,1/2+y,1/2+z
-x,1/2-y,1/2+z
1/4-x,3/4+y,3/4+z
1/4+x,3/4-y,3/4+z
1/2+x,y,1/2+z
1/2-x,-y,1/2+z
3/4-x,1/4+y,3/4+z
3/4+x,1/4-y,3/4+z
1/2+x,1/2+y,z
1/2-x,1/2-y,z
3/4-x,3/4+y,1/4+z
3/4+x,3/4-y,1/4+z
loop_
_atom_site_type_symbol
_atom_site_label
_atom_site_fract_x
_atom_site_fract_y
_atom_site_fract_z
Si Si1 0.572275 0.239119 0.618590
Si Si2 0.145223 0.768243 0.051826
Si Si3 0.879834 0.137754 0.482706
Si Si4 0.812002 0.315705 0.423515
Si Si5 0.172492 0.422914 0.602524
O O1 0.457937 0.245127 0.605788
O O2 0.624343 0.306625 0.580616
O O3 0.614294 0.186730 0.526478
O O4 0.588562 0.217098 0.743245
O O5 0.250000 0.750000 0.101794
O O6 0.144496 0.849122 0.058686
O O7 0.136568 0.716213 0.945594
O O8 0.776238 0.133009 0.426388
O O9 0.891958 0.071873 0.553365
O O10 0.968233 0.160858 0.403434
O O11 0.750000 0.250000 0.426691
#
# Coordination Sequence:
#
# PCOD9372118 Si02
#       5
#    16  16  16  16  16
#     4  10  25  45  70 104 147 195 252 313 392 462
#     4  11  26  47  74 112 155 201 255 325 389 472
#     4  10  25  43  70 102 142 193 249 313 387 462
#     4  10  24  46  68 104 141 192 249 315 383 474
#     4  11  26  47  72 114 148 204 260 321 399 467
#
# _framework density 23.861664000000001
#
# number of rings (size 3 to 8) (size 9 to 14) (size 15 to 20)
#    0.000    1.600    0.000    1.200   14.000    6.400 
#    0.000    0.000    0.000    0.000    0.000    0.000 
#    0.000    0.000    0.000    0.000    0.000    0.000 
#
# Total GULP energy -111388.139996 kJ/mol
# GULP energy per Si atom -5569.407000 kJ/mol
# Density = 2.380735 g / cm^3
# Si number density = 23.861664 Si / 1000 Ang^3
#
#
#
# Elastic Constant Matrix: (Units=GPa)
#
#
# Indices 1 2 3 4 5 6 
#
# 1 82.4966 26.6340 9.3756 0.0000 0.0000 0.0000
# 2 26.6340 108.8199 51.7841 0.0000 0.0000 0.0000
# 3 9.3756 51.7841 67.7268 0.0000 0.0000 0.0000
# 4 0.0000 0.0000 0.0000 23.9773 0.0000 0.0000
# 5 0.0000 0.0000 0.0000 0.0000 16.3025 0.0000
# 6 0.0000 0.0000 0.0000 0.0000 0.0000 23.6657
#
#
#
# Elastic Compliance Matrix: (Units=1/GPa)
#
#
# Indices 1 2 3 4 5 6 
#
# 1 0.013206 -0.003713 0.001011 0.000000 0.000000 0.000000
# 2 -0.003713 0.015490 -0.011329 0.000000 0.000000 0.000000
# 3 0.001011 -0.011329 0.023288 0.000000 0.000000 0.000000
# 4 0.000000 0.000000 0.000000 0.041706 0.000000 0.000000
# 5 0.000000 0.000000 0.000000 0.000000 0.061340 0.000000
# 6 0.000000 0.000000 0.000000 0.000000 0.000000 0.042255
#
#
# Mechanical properties :
#
#
# Convention : Reuss Voigt Hill
#
# Bulk Modulus (GPa) = 41.80626 48.29229 45.04927
# Shear Modulus (GPa) = 21.42971 24.20575 22.81773
#
# Velocity S-wave (km/s) = 3.00005 3.18845 3.09568
# Velocity P-wave (km/s) = 5.43679 5.81699 5.63010
#
# Compressibility (1/GPa) = 0.02391986
#
# Stress axis : x y z
#
# Youngs Moduli (GPa) = 75.72528 64.55926 42.94108
#
# Poissons Ratio (x) = 0.23973 -0.04342
# Poissons Ratio (y) = 0.28119 0.48650
# Poissons Ratio (z) = -0.07657 0.73142
#
# Static dielectric constant tensor:
#      x y z
#    x 1.928880 0.000000 0.000000 
#    y 0.000000 2.305580 0.000000 
#    z 0.000000 0.000000 1.964450 
# 
# From -- ./inp_files/6068.got.cif
#   From: 2010.05.17/outbox.cif.g08.bks.cpg/sg43_4_cif.got.tgz:6068.got - 2010.06.03 19:21:55.
