data_PCOD9372578
_publ_section_title
;
Structure prediction by ZEFSAII (Michael W. Deem and Ramdas Pophale) SiO2 
 PCOD9372578
Probable space group: F D D 2
;
_chemical_formula_sum "Si O2"
_cell_formula_units_Z 72
_cell_length_a 24.111238
_cell_length_b 15.801271
_cell_length_c 8.267211
_cell_angle_alpha 90.000000
_cell_angle_beta 90.000000
_cell_angle_gamma 90.000000
_cell_volume 3149.709886
_symmetry_space_group_name_H-M "F D D 2"
_symmetry_group_IT_number 43
_symmetry_cell_setting 'orthorhombic'
loop_
_space_group_symop_operation_xyz
x,y,z
-x,-y,z
1/4-x,1/4+y,1/4+z
1/4+x,1/4-y,1/4+z
x,1/2+y,1/2+z
-x,1/2-y,1/2+z
1/4-x,3/4+y,3/4+z
1/4+x,3/4-y,3/4+z
1/2+x,y,1/2+z
1/2-x,-y,1/2+z
3/4-x,1/4+y,3/4+z
3/4+x,1/4-y,3/4+z
1/2+x,1/2+y,z
1/2-x,1/2-y,z
3/4-x,3/4+y,1/4+z
3/4+x,3/4-y,1/4+z
loop_
_atom_site_type_symbol
_atom_site_label
_atom_site_fract_x
_atom_site_fract_y
_atom_site_fract_z
Si Si1 0.062598 0.428996 0.940870
Si Si2 0.214764 0.423588 0.545426
Si Si3 0.863017 0.908734 0.422216
Si Si4 0.500278 0.342669 0.958386
Si Si5 0.500000 0.000000 0.240026
O O1 0.097184 0.351221 0.861984
O O2 0.101823 0.507001 0.892586
O O3 0.003319 0.404291 0.858406
O O4 0.044544 0.453348 0.122520
O O5 0.155809 0.414787 0.627655
O O6 0.243402 0.511122 0.595793
O O7 0.207956 0.421022 0.354180
O O8 0.808809 0.899831 0.308289
O O9 0.482362 0.423733 0.856452
#
# Coordination Sequence:
#
# PCOD9372578 Si02
#       5
#    16  16  16  16   8
#     4  11  24  44  77 100 151 190 250 303 378 433
#     4  11  23  47  73 106 150 200 239 317 364 441
#     4  11  23  46  73 108 139 199 249 309 362 452
#     4  11  27  44  75 106 151 194 253 298 385 437
#     4  12  26  48  70 114 148 200 234 318 376 452
#
# _framework density 22.859249999999999
#
# number of rings (size 3 to 8) (size 9 to 14) (size 15 to 20)
#    0.000    0.889    4.444    1.333    6.222    0.000 
#   16.000    0.000    0.000    0.000    0.000    0.000 
#    0.000    0.000    0.000    0.000    0.000    0.000 
#
# Total GULP energy -100289.470729 kJ/mol
# GULP energy per Si atom -5571.637263 kJ/mol
# Density = 2.280722 g / cm^3
# Si number density = 22.859250 Si / 1000 Ang^3
#
#
#
# Elastic Constant Matrix: (Units=GPa)
#
#
# Indices 1 2 3 4 5 6 
#
# 1 59.3881 9.3757 18.1675 0.0000 0.0000 0.0000
# 2 9.3757 121.1398 62.6209 0.0000 0.0000 0.0000
# 3 18.1675 62.6209 156.9896 0.0001 0.0000 0.0000
# 4 0.0000 0.0000 0.0001 46.2876 0.0000 0.0000
# 5 0.0000 0.0000 0.0000 0.0000 21.2243 0.0000
# 6 0.0000 0.0000 0.0000 0.0000 0.0000 -2.3599
#
#
#
# Elastic Compliance Matrix: (Units=1/GPa)
#
#
# Indices 1 2 3 4 5 6 
#
# 1 0.017471 -0.000387 -0.001868 0.000000 0.000000 0.000000
# 2 -0.000387 0.010408 -0.004107 0.000000 0.000000 0.000000
# 3 -0.001868 -0.004107 0.008224 0.000000 0.000000 0.000000
# 4 0.000000 0.000000 0.000000 0.021604 0.000000 0.000000
# 5 0.000000 0.000000 0.000000 0.000000 0.047116 0.000000
# 6 0.000000 0.000000 0.000000 0.000000 0.000000 -0.423738
#
#
# Mechanical properties :
#
#
# Convention : Reuss Voigt Hill
#
# Bulk Modulus (GPa) = 42.77064 57.53842 50.15453
# Shear Modulus (GPa) = -16.75601 29.52063 6.38231
#
# Velocity S-wave (km/s) = -2.71035 3.59752 1.67274
# Velocity P-wave (km/s) = 2.99272 6.51779 5.07139
#
# Compressibility (1/GPa) = 0.02338052
#
# Stress axis : x y z
#
# Youngs Moduli (GPa) = 57.23851 96.08216 121.59408
#
# Poissons Ratio (x) = 0.03716 0.22708
# Poissons Ratio (y) = 0.02214 0.49936
# Poissons Ratio (z) = 0.10689 0.39458
#
# Static dielectric constant tensor:
#      x y z
#    x 1.871640 0.000000 0.000000 
#    y 0.000000 1.869610 0.000000 
#    z 0.000000 0.000000 1.844180 
# 
# From -- ./inp_files/2341.got.cif
#   From: 2010.05.17/outbox.cif.g08.bks.cpg/sg43_2_cif.got.tgz:2341.got - 2010.06.03 19:21:55.
