data_PCOD9372539
_publ_section_title
;
Structure prediction by ZEFSAII (Michael W. Deem and Ramdas Pophale) SiO2 
 PCOD9372539
Probable space group: F D D 2
;
_chemical_formula_sum "Si O2"
_cell_formula_units_Z 88
_cell_length_a 32.910860
_cell_length_b 5.221154
_cell_length_c 23.343919
_cell_angle_alpha 90.000000
_cell_angle_beta 90.000000
_cell_angle_gamma 90.000000
_cell_volume 4011.247891
_symmetry_space_group_name_H-M "F D D 2"
_symmetry_group_IT_number 43
_symmetry_cell_setting 'orthorhombic'
loop_
_space_group_symop_operation_xyz
x,y,z
-x,-y,z
1/4-x,1/4+y,1/4+z
1/4+x,1/4-y,1/4+z
x,1/2+y,1/2+z
-x,1/2-y,1/2+z
1/4-x,3/4+y,3/4+z
1/4+x,3/4-y,3/4+z
1/2+x,y,1/2+z
1/2-x,-y,1/2+z
3/4-x,1/4+y,3/4+z
3/4+x,1/4-y,3/4+z
1/2+x,1/2+y,z
1/2-x,1/2-y,z
3/4-x,3/4+y,1/4+z
3/4+x,3/4-y,1/4+z
loop_
_atom_site_type_symbol
_atom_site_label
_atom_site_fract_x
_atom_site_fract_y
_atom_site_fract_z
Si Si1 0.604064 0.946238 0.143560
Si Si2 0.961504 0.171426 0.714961
Si Si3 0.596540 0.691093 0.421909
Si Si4 0.796815 0.141102 0.290094
Si Si5 0.500000 0.000000 0.615599
Si Si6 0.526119 0.242976 0.836877
O O1 0.574264 0.014038 0.196321
O O2 0.619845 0.664999 0.163289
O O3 0.637642 0.168332 0.147531
O O4 0.577386 0.961619 0.084853
O O5 0.955637 0.319350 0.773812
O O6 0.974032 0.330005 0.659379
O O7 0.000000 0.000000 0.725930
O O8 0.574320 0.658644 0.483834
O O9 0.561865 0.787236 0.380083
O O10 0.750000 0.250000 0.277696
O O11 0.782490 0.893278 0.325879
O O12 0.500000 0.500000 0.837533
O O13 0.500000 0.000000 0.855105
#
# Coordination Sequence:
#
# PCOD9372539 Si02
#       6
#    16  16  16  16   8  16
#     4  12  27  48  71 113 149 194 247 321 384 440
#     4  11  23  43  73 105 136 194 251 310 355 460
#     4  12  31  46  74 112 158 192 247 320 400 443
#     4  12  28  48  82 107 155 211 268 311 382 485
#     4  12  20  46  78 106 138 194 272 306 358 446
#     4  11  25  46  74 101 145 193 244 296 376 457
#
# _framework density 21.938310000000001
#
# number of rings (size 3 to 8) (size 9 to 14) (size 15 to 20)
#    0.000    0.364    4.545    2.727    8.909    0.000 
#    0.000    0.000    0.000    0.000    0.000    0.000 
#    0.000    0.000    0.000    0.000    0.000    0.000 
#
# Total GULP energy -122607.633742 kJ/mol
# GULP energy per Si atom -5573.074261 kJ/mol
# Density = 2.188838 g / cm^3
# Si number density = 21.938310 Si / 1000 Ang^3
#
#
#
# Elastic Constant Matrix: (Units=GPa)
#
#
# Indices 1 2 3 4 5 6 
#
# 1 93.3837 12.4101 58.8394 0.0030 -0.0460 -0.0021
# 2 12.4101 70.7840 10.4688 0.0051 0.0165 -0.0014
# 3 58.8394 10.4688 97.8034 -0.0054 0.0821 -0.0013
# 4 0.0030 0.0051 -0.0054 26.1367 0.0975 -0.0002
# 5 -0.0460 0.0165 0.0821 0.0975 -363.0812 -0.0372
# 6 -0.0021 -0.0014 -0.0013 -0.0002 -0.0372 46.1493
#
#
#
# Elastic Compliance Matrix: (Units=1/GPa)
#
#
# Indices 1 2 3 4 5 6 
#
# 1 0.017407 -0.001527 -0.010309 -0.000004 -0.000005 0.000000
# 2 -0.001527 0.014489 -0.000632 -0.000003 0.000001 0.000000
# 3 -0.010309 -0.000632 0.016494 0.000005 0.000005 0.000000
# 4 -0.000004 -0.000003 0.000005 0.038260 0.000010 0.000000
# 5 -0.000005 0.000001 0.000005 0.000010 -0.002754 -0.000002
# 6 0.000000 0.000000 0.000000 0.000000 -0.000002 0.021669
#
#
# Mechanical properties :
#
#
# Convention : Reuss Voigt Hill
#
# Bulk Modulus (GPa) = 42.63715 47.26752 44.95234
# Shear Modulus (GPa) = 36.14860 -46.14218 -4.99679
#
# Velocity S-wave (km/s) = 4.06364 -4.59112 -1.51083
# Velocity P-wave (km/s) = 6.44164 2.55187 4.18227
#
# Compressibility (1/GPa) = 0.02345372
#
# Stress axis : x y z
#
# Youngs Moduli (GPa) = 57.44911 69.01920 60.62817
#
# Poissons Ratio (x) = 0.10541 0.62499
# Poissons Ratio (y) = 0.08774 0.03832
# Poissons Ratio (z) = 0.59222 0.04363
#
# Static dielectric constant tensor:
#      x y z
#    x 3.940420 0.001100 0.000020 
#    y 0.001100 2.082810 0.000020 
#    z 0.000020 0.000020 1.822950 
# 
# From -- ./inp_files/22939.got.cif
#   From: 2010.05.17/outbox.cif.g08.bks.cpg/sg43_12_cif.got.tgz:22939.got - 2010.06.03 19:21:55.
