data_PCOD9372890
_publ_section_title
;
Structure prediction by ZEFSAII (Michael W. Deem and Ramdas Pophale) SiO2 
 PCOD9372890
Probable space group: F D D 2
;
_chemical_formula_sum "Si O2"
_cell_formula_units_Z 88
_cell_length_a 26.558928
_cell_length_b 11.323130
_cell_length_c 11.447029
_cell_angle_alpha 90.000000
_cell_angle_beta 90.000000
_cell_angle_gamma 90.000000
_cell_volume 3442.467257
_symmetry_space_group_name_H-M "F D D 2"
_symmetry_group_IT_number 43
_symmetry_cell_setting 'orthorhombic'
loop_
_space_group_symop_operation_xyz
x,y,z
-x,-y,z
1/4-x,1/4+y,1/4+z
1/4+x,1/4-y,1/4+z
x,1/2+y,1/2+z
-x,1/2-y,1/2+z
1/4-x,3/4+y,3/4+z
1/4+x,3/4-y,3/4+z
1/2+x,y,1/2+z
1/2-x,-y,1/2+z
3/4-x,1/4+y,3/4+z
3/4+x,1/4-y,3/4+z
1/2+x,1/2+y,z
1/2-x,1/2-y,z
3/4-x,3/4+y,1/4+z
3/4+x,3/4-y,1/4+z
loop_
_atom_site_type_symbol
_atom_site_label
_atom_site_fract_x
_atom_site_fract_y
_atom_site_fract_z
Si Si1 0.278912 0.051227 0.450090
Si Si2 0.058721 0.847892 0.093290
Si Si3 0.334419 0.883979 0.282177
Si Si4 0.750000 0.250000 0.726120
Si Si5 0.444453 0.313799 0.829473
Si Si6 0.329890 0.630037 0.186454
O O1 0.310521 0.946818 0.395152
O O2 0.220405 0.010913 0.473906
O O3 0.254572 0.136050 0.351340
O O4 0.302764 0.115045 0.560177
O O5 0.110066 0.867647 0.168159
O O6 0.061572 0.960841 0.004524
O O7 0.065064 0.730065 0.015439
O O8 0.394369 0.877122 0.289032
O O9 0.315668 0.752427 0.250450
O O10 0.319817 0.967662 0.175680
O O11 0.762139 0.143467 0.627769
#
# Coordination Sequence:
#
# PCOD9372890 Si02
#       6
#    16  16  16   8  16  16
#     4  12  27  50  80 117 163 216 256 349 408 468
#     4  12  28  50  78 120 155 217 271 339 413 490
#     4  12  28  53  80 120 162 214 280 334 417 500
#     4  12  26  48  74 112 162 196 280 324 412 492
#     4  12  28  50  78 120 155 217 271 339 413 490
#     4  12  28  53  80 120 162 214 280 334 417 500
#
# _framework density 25.563063
#
# number of rings (size 3 to 8) (size 9 to 14) (size 15 to 20)
#    0.000    0.000    5.455    2.182    5.091    5.818 
#    0.000    0.000    0.000    0.000    0.000    0.000 
#    0.000    0.000    0.000    0.000    0.000    0.000 
#
# Total GULP energy -122919.163203 kJ/mol
# GULP energy per Si atom -5587.234691 kJ/mol
# Density = 2.550488 g / cm^3
# Si number density = 25.563063 Si / 1000 Ang^3
#
#
#
# Elastic Constant Matrix: (Units=GPa)
#
#
# Indices 1 2 3 4 5 6 
#
# 1 158.1863 67.5674 53.5605 0.0000 0.0000 0.0000
# 2 67.5674 155.1765 44.9870 0.0000 0.0000 0.0000
# 3 53.5605 44.9870 113.7570 0.0000 0.0000 0.0000
# 4 0.0000 0.0000 0.0000 9.4383 0.0000 0.0000
# 5 0.0000 0.0000 0.0000 0.0000 55.4700 0.0000
# 6 0.0000 0.0000 0.0000 0.0000 0.0000 49.5375
#
#
#
# Elastic Compliance Matrix: (Units=1/GPa)
#
#
# Indices 1 2 3 4 5 6 
#
# 1 0.008525 -0.002878 -0.002875 0.000000 0.000000 0.000000
# 2 -0.002878 0.008251 -0.001908 0.000000 0.000000 0.000000
# 3 -0.002875 -0.001908 0.010899 0.000000 0.000000 0.000000
# 4 0.000000 0.000000 0.000000 0.105951 0.000000 0.000000
# 5 0.000000 0.000000 0.000000 0.000000 0.018028 0.000000
# 6 0.000000 0.000000 0.000000 0.000000 0.000000 0.020187
#
#
# Mechanical properties :
#
#
# Convention : Reuss Voigt Hill
#
# Bulk Modulus (GPa) = 80.96177 84.37218 82.66697
# Shear Modulus (GPa) = 26.13973 40.28949 33.21461
#
# Velocity S-wave (km/s) = 3.20122 3.97430 3.60852
# Velocity P-wave (km/s) = 6.73824 7.35780 7.05482
#
# Compressibility (1/GPa) = 0.01235151
#
# Stress axis : x y z
#
# Youngs Moduli (GPa) = 117.30671 121.20387 91.75209
#
# Poissons Ratio (x) = 0.34885 0.26383
# Poissons Ratio (y) = 0.33763 0.17503
# Poissons Ratio (z) = 0.33731 0.23122
#
# Static dielectric constant tensor:
#      x y z
#    x 2.037830 0.000000 0.000000 
#    y 0.000000 2.017720 0.000000 
#    z 0.000000 0.000000 2.110820 
# 
# From -- ./inp_files/8233.got.cif
#   From: 2010.05.17/outbox.cif.g08.bks.cpg/sg43_5_cif.got.tgz:8233.got - 2010.06.03 19:21:55.
