data_PCOD9372223
_publ_section_title
;
Structure prediction by ZEFSAII (Michael W. Deem and Ramdas Pophale) SiO2 
 PCOD9372223
Probable space group: F D D 2
;
_chemical_formula_sum "Si O2"
_cell_formula_units_Z 96
_cell_length_a 16.704645
_cell_length_b 22.889451
_cell_length_c 9.674762
_cell_angle_alpha 90.000000
_cell_angle_beta 90.000000
_cell_angle_gamma 90.000000
_cell_volume 3699.243480
_symmetry_space_group_name_H-M "F D D 2"
_symmetry_group_IT_number 43
_symmetry_cell_setting 'orthorhombic'
loop_
_space_group_symop_operation_xyz
x,y,z
-x,-y,z
1/4-x,1/4+y,1/4+z
1/4+x,1/4-y,1/4+z
x,1/2+y,1/2+z
-x,1/2-y,1/2+z
1/4-x,3/4+y,3/4+z
1/4+x,3/4-y,3/4+z
1/2+x,y,1/2+z
1/2-x,-y,1/2+z
3/4-x,1/4+y,3/4+z
3/4+x,1/4-y,3/4+z
1/2+x,1/2+y,z
1/2-x,1/2-y,z
3/4-x,3/4+y,1/4+z
3/4+x,3/4-y,1/4+z
loop_
_atom_site_type_symbol
_atom_site_label
_atom_site_fract_x
_atom_site_fract_y
_atom_site_fract_z
Si Si1 0.028960 0.436612 0.328110
Si Si2 0.601363 0.604152 0.392853
Si Si3 0.683727 0.498636 0.804505
Si Si4 0.009588 0.070093 0.130951
Si Si5 0.193142 0.125396 0.793923
Si Si6 0.163072 0.484509 0.993764
O O1 0.120335 0.454601 0.371577
O O2 0.983400 0.418363 0.466886
O O3 0.034041 0.393031 0.200474
O O4 0.000000 0.500000 0.274272
O O5 0.514136 0.744457 0.640055
O O6 0.580472 0.588731 0.233590
O O7 0.523132 0.633991 0.455763
O O8 0.610783 0.542701 0.472906
O O9 0.648808 0.563968 0.793560
O O10 0.697417 0.479017 0.648092
O O11 0.929665 0.106861 0.165470
O O12 0.000000 0.000000 0.146180
O O13 0.142094 0.177704 0.728032
#
# Coordination Sequence:
#
# PCOD9372223 Si02
#       6
#    16  16  16  16  16  16
#     4  10  25  47  70 110 153 202 260 331 400 486
#     4  12  27  49  80 113 154 216 263 337 409 484
#     4  11  27  45  77 112 158 207 269 336 413 489
#     4  11  28  50  80 115 163 207 271 336 406 490
#     4  11  25  47  78 109 157 207 267 329 406 484
#     4  11  27  48  75 118 157 209 274 337 406 501
#
# _framework density 25.951252
#
# number of rings (size 3 to 8) (size 9 to 14) (size 15 to 20)
#    0.000    1.000    0.000    4.500   14.000    5.333 
#    3.000    0.000    0.000    0.000    0.000    0.000 
#    0.000    0.000    0.000    0.000    0.000    0.000 
#
# Total GULP energy -134658.909681 kJ/mol
# GULP energy per Si atom -5610.787903 kJ/mol
# Density = 2.589219 g / cm^3
# Si number density = 25.951252 Si / 1000 Ang^3
#
#
#
# Elastic Constant Matrix: (Units=GPa)
#
#
# Indices 1 2 3 4 5 6 
#
# 1 72.0451 4.4347 16.5453 0.0000 0.0000 0.0000
# 2 4.4347 98.3609 14.8903 0.0000 0.0000 0.0000
# 3 16.5453 14.8903 123.5522 0.0000 0.0000 0.0000
# 4 0.0000 0.0000 0.0000 36.1708 0.0000 0.0000
# 5 0.0000 0.0000 0.0000 0.0000 49.8360 0.0000
# 6 0.0000 0.0000 0.0000 0.0000 0.0000 47.6409
#
#
#
# Elastic Compliance Matrix: (Units=1/GPa)
#
#
# Indices 1 2 3 4 5 6 
#
# 1 0.014333 -0.000362 -0.001876 0.000000 0.000000 0.000000
# 2 -0.000362 0.010365 -0.001201 0.000000 0.000000 0.000000
# 3 -0.001876 -0.001201 0.008490 0.000000 0.000000 0.000000
# 4 0.000000 0.000000 0.000000 0.027647 0.000000 0.000000
# 5 0.000000 0.000000 0.000000 0.000000 0.020066 0.000000
# 6 0.000000 0.000000 0.000000 0.000000 0.000000 0.020990
#
#
# Mechanical properties :
#
#
# Convention : Reuss Voigt Hill
#
# Bulk Modulus (GPa) = 38.00788 40.63319 39.32053
# Shear Modulus (GPa) = 42.53950 43.93540 43.23745
#
# Velocity S-wave (km/s) = 4.05311 4.11907 4.08622
# Velocity P-wave (km/s) = 6.04824 6.18981 6.11944
#
# Compressibility (1/GPa) = 0.02631033
#
# Stress axis : x y z
#
# Youngs Moduli (GPa) = 69.76778 96.48103 117.79082
#
# Poissons Ratio (x) = 0.03495 0.22095
# Poissons Ratio (y) = 0.02527 0.14142
# Poissons Ratio (z) = 0.13087 0.11584
#
# Static dielectric constant tensor:
#      x y z
#    x 2.077400 0.000000 0.000000 
#    y 0.000000 2.016470 0.000000 
#    z 0.000000 0.000000 2.015620 
# 
# From -- ./inp_files/4362.got.cif
#   From: 2010.05.17/outbox.cif.g08.bks.cpg/sg43_3_cif.got.tgz:4362.got - 2010.06.03 19:21:55.
