data_PCOD9372611
_publ_section_title
;
Structure prediction by ZEFSAII (Michael W. Deem and Ramdas Pophale) SiO2 
 PCOD9372611
Probable space group: F D D 2
;
_chemical_formula_sum "Si O2"
_cell_formula_units_Z 80
_cell_length_a 29.288658
_cell_length_b 21.110955
_cell_length_c 5.420527
_cell_angle_alpha 90.000000
_cell_angle_beta 90.000000
_cell_angle_gamma 90.000000
_cell_volume 3351.574403
_symmetry_space_group_name_H-M "F D D 2"
_symmetry_group_IT_number 43
_symmetry_cell_setting 'orthorhombic'
loop_
_space_group_symop_operation_xyz
x,y,z
-x,-y,z
1/4-x,1/4+y,1/4+z
1/4+x,1/4-y,1/4+z
x,1/2+y,1/2+z
-x,1/2-y,1/2+z
1/4-x,3/4+y,3/4+z
1/4+x,3/4-y,3/4+z
1/2+x,y,1/2+z
1/2-x,-y,1/2+z
3/4-x,1/4+y,3/4+z
3/4+x,1/4-y,3/4+z
1/2+x,1/2+y,z
1/2-x,1/2-y,z
3/4-x,3/4+y,1/4+z
3/4+x,3/4-y,1/4+z
loop_
_atom_site_type_symbol
_atom_site_label
_atom_site_fract_x
_atom_site_fract_y
_atom_site_fract_z
Si Si1 0.904732 0.975138 0.647480
Si Si2 0.686819 0.212345 0.876861
Si Si3 0.446067 0.755114 0.269309
Si Si4 0.007952 0.144771 0.092965
Si Si5 0.156455 0.404831 0.656456
O O1 0.926775 0.008598 0.400621
O O2 0.851212 0.995652 0.669624
O O3 0.906196 0.900138 0.608786
O O4 0.930963 0.991665 0.895558
O O5 0.732357 0.171808 0.843850
O O6 0.645261 0.163059 0.828332
O O7 0.479906 0.811012 0.358750
O O8 0.475096 0.691340 0.252286
O O9 0.425511 0.778879 0.010317
O O10 0.057336 0.134196 0.207629
#
# Coordination Sequence:
#
# PCOD9372611 Si02
#       5
#    16  16  16  16  16
#     4  11  26  49  71 105 144 193 234 301 372 430
#     4  11  27  46  73 104 148 186 241 302 366 430
#     4  11  24  44  75 100 142 184 250 294 363 428
#     4  12  24  45  72 109 138 194 244 306 352 449
#     4  11  25  46  72 104 144 190 239 304 361 433
#
# _framework density 23.869377
#
# number of rings (size 3 to 8) (size 9 to 14) (size 15 to 20)
#    0.000    0.800    6.000    0.000    5.600    0.800 
#    0.000    0.000    0.000    0.000    0.000    0.000 
#    0.000    0.000    0.000    0.000    0.000    0.000 
#
# Total GULP energy -111791.322800 kJ/mol
# GULP energy per Si atom -5589.566140 kJ/mol
# Density = 2.381505 g / cm^3
# Si number density = 23.869377 Si / 1000 Ang^3
#
#
#
# Elastic Constant Matrix: (Units=GPa)
#
#
# Indices 1 2 3 4 5 6 
#
# 1 103.0160 19.0285 36.6682 0.0124 0.0035 0.0011
# 2 19.0285 72.0405 17.5782 -0.0809 -0.0005 0.0029
# 3 36.6682 17.5782 90.3587 -0.0756 -0.0048 0.0039
# 4 0.0124 -0.0809 -0.0756 39.2926 -0.0036 0.0030
# 5 0.0035 -0.0005 -0.0048 -0.0036 28.5769 -0.0074
# 6 0.0011 0.0029 0.0039 0.0030 -0.0074 44.0954
#
#
#
# Elastic Compliance Matrix: (Units=1/GPa)
#
#
# Indices 1 2 3 4 5 6 
#
# 1 0.011618 -0.002014 -0.004323 -0.000016 -0.000002 0.000000
# 2 -0.002014 0.014922 -0.002086 0.000027 0.000000 -0.000001
# 3 -0.004323 -0.002086 0.013227 0.000023 0.000003 -0.000001
# 4 -0.000016 0.000027 0.000023 0.025450 0.000003 -0.000002
# 5 -0.000002 0.000000 0.000003 0.000003 0.034993 0.000006
# 6 0.000000 -0.000001 -0.000001 -0.000002 0.000006 0.022678
#
#
# Mechanical properties :
#
#
# Convention : Reuss Voigt Hill
#
# Bulk Modulus (GPa) = 43.62600 45.77388 44.69994
# Shear Modulus (GPa) = 33.92728 35.20232 34.56480
#
# Velocity S-wave (km/s) = 3.77420 3.84447 3.80949
# Velocity P-wave (km/s) = 6.10814 6.23899 6.17391
#
# Compressibility (1/GPa) = 0.02292211
#
# Stress axis : x y z
#
# Youngs Moduli (GPa) = 86.07369 67.01529 75.60287
#
# Poissons Ratio (x) = 0.13496 0.32682
# Poissons Ratio (y) = 0.17335 0.15768
# Poissons Ratio (z) = 0.37209 0.13977
#
# Static dielectric constant tensor:
#      x y z
#    x 1.898780 0.000000 0.000000 
#    y 0.000000 1.919800 0.000000 
#    z 0.000000 0.000000 1.948530 
# 
# From -- ./inp_files/955.got.cif
#   From: 2010.05.17/outbox.cif.g08.bks.cpg/sg43_1_cif.got.tgz:955.got - 2010.06.03 19:21:55.
