data_PCOD9372055
_publ_section_title
;
Structure prediction by ZEFSAII (Michael W. Deem and Ramdas Pophale) SiO2 
 PCOD9372055
Probable space group: F D D 2
;
_chemical_formula_sum "Si O2"
_cell_formula_units_Z 72
_cell_length_a 21.109723
_cell_length_b 8.662882
_cell_length_c 16.161432
_cell_angle_alpha 90.000000
_cell_angle_beta 90.000000
_cell_angle_gamma 90.000000
_cell_volume 2955.457868
_symmetry_space_group_name_H-M "F D D 2"
_symmetry_group_IT_number 43
_symmetry_cell_setting 'orthorhombic'
loop_
_space_group_symop_operation_xyz
x,y,z
-x,-y,z
1/4-x,1/4+y,1/4+z
1/4+x,1/4-y,1/4+z
x,1/2+y,1/2+z
-x,1/2-y,1/2+z
1/4-x,3/4+y,3/4+z
1/4+x,3/4-y,3/4+z
1/2+x,y,1/2+z
1/2-x,-y,1/2+z
3/4-x,1/4+y,3/4+z
3/4+x,1/4-y,3/4+z
1/2+x,1/2+y,z
1/2-x,1/2-y,z
3/4-x,3/4+y,1/4+z
3/4+x,3/4-y,1/4+z
loop_
_atom_site_type_symbol
_atom_site_label
_atom_site_fract_x
_atom_site_fract_y
_atom_site_fract_z
Si Si1 0.466886 0.667784 0.505650
Si Si2 0.168316 0.057698 0.191402
Si Si3 0.400141 0.286128 0.836717
Si Si4 0.823099 0.202234 0.057609
Si Si5 0.250000 0.250000 0.066309
O O1 0.500000 0.500000 0.489874
O O2 0.526367 0.783578 0.510454
O O3 0.428709 0.742108 0.427155
O O4 0.414432 0.630864 0.574719
O O5 0.162210 0.902490 0.136374
O O6 0.104082 0.126228 0.228043
O O7 0.197716 0.173008 0.124613
O O8 0.456701 0.363413 0.780637
O O9 0.389235 0.113348 0.804398
O O10 0.750000 0.250000 0.053473
#
# Coordination Sequence:
#
# PCOD9372055 Si02
#       5
#    16  16  16  16   8
#     4  11  20  41  67  95 127 175 221 274 331 392
#     4  11  24  43  69  96 134 176 221 282 336 398
#     4  11  21  41  68  91 133 176 219 270 339 394
#     4  12  21  44  70  94 131 180 224 271 335 402
#     4  10  24  44  60  94 144 166 212 296 338 378
#
# _framework density 24.361706999999999
#
# number of rings (size 3 to 8) (size 9 to 14) (size 15 to 20)
#    0.000    0.889    8.889    0.000    0.000    3.556 
#    8.000    0.000    0.000    0.000    0.000    0.000 
#    0.000    0.000    0.000    0.000    0.000    0.000 
#
# Total GULP energy -100228.144897 kJ/mol
# GULP energy per Si atom -5568.230272 kJ/mol
# Density = 2.430626 g / cm^3
# Si number density = 24.361707 Si / 1000 Ang^3
#
#
#
# Elastic Constant Matrix: (Units=GPa)
#
#
# Indices 1 2 3 4 5 6 
#
# 1 144.0387 11.6062 68.1939 0.0000 0.0000 0.0000
# 2 11.6062 62.6794 17.0405 0.0000 0.0000 0.0000
# 3 68.1939 17.0405 52.4343 0.0000 0.0000 0.0000
# 4 0.0000 0.0000 0.0000 13.7984 0.0000 0.0000
# 5 0.0000 0.0000 0.0000 0.0000 50.3579 0.0000
# 6 0.0000 0.0000 0.0000 0.0000 0.0000 25.5030
#
#
#
# Elastic Compliance Matrix: (Units=1/GPa)
#
#
# Indices 1 2 3 4 5 6 
#
# 1 0.018727 0.003460 -0.025480 0.000000 0.000000 0.000000
# 2 0.003460 0.018140 -0.010394 0.000000 0.000000 0.000000
# 3 -0.025480 -0.010394 0.055588 0.000000 0.000000 0.000000
# 4 0.000000 0.000000 0.000000 0.072472 0.000000 0.000000
# 5 0.000000 0.000000 0.000000 0.000000 0.019858 0.000000
# 6 0.000000 0.000000 0.000000 0.000000 0.000000 0.039211
#
#
# Mechanical properties :
#
#
# Convention : Reuss Voigt Hill
#
# Bulk Modulus (GPa) = 36.19959 50.31484 43.25721
# Shear Modulus (GPa) = 16.77658 28.75263 22.76461
#
# Velocity S-wave (km/s) = 2.62705 3.43919 3.06018
# Velocity P-wave (km/s) = 4.90850 6.03894 5.50282
#
# Compressibility (1/GPa) = 0.02762463
#
# Stress axis : x y z
#
# Youngs Moduli (GPa) = 53.39823 55.12825 17.98945
#
# Poissons Ratio (x) = -0.19072 0.45837
# Poissons Ratio (y) = -0.18473 0.18699
# Poissons Ratio (z) = 1.36060 0.57303
#
# Static dielectric constant tensor:
#      x y z
#    x 2.438660 0.000000 0.000000 
#    y 0.000000 2.130640 0.000000 
#    z 0.000000 0.000000 1.997420 
# 
# From -- ./inp_files/12557.got.cif
#   From: 2010.05.17/outbox.cif.g08.bks.cpg/sg43_7_cif.got.tgz:12557.got - 2010.06.03 19:21:55.
