data_PCOD9372646
_publ_section_title
;
Structure prediction by ZEFSAII (Michael W. Deem and Ramdas Pophale) SiO2 
 PCOD9372646
Probable space group: F D D 2
;
_chemical_formula_sum "Si O2"
_cell_formula_units_Z 64
_cell_length_a 13.450455
_cell_length_b 13.088096
_cell_length_c 14.842438
_cell_angle_alpha 90.000000
_cell_angle_beta 90.000000
_cell_angle_gamma 90.000000
_cell_volume 2612.875346
_symmetry_space_group_name_H-M "F D D 2"
_symmetry_group_IT_number 43
_symmetry_cell_setting 'orthorhombic'
loop_
_space_group_symop_operation_xyz
x,y,z
-x,-y,z
1/4-x,1/4+y,1/4+z
1/4+x,1/4-y,1/4+z
x,1/2+y,1/2+z
-x,1/2-y,1/2+z
1/4-x,3/4+y,3/4+z
1/4+x,3/4-y,3/4+z
1/2+x,y,1/2+z
1/2-x,-y,1/2+z
3/4-x,1/4+y,3/4+z
3/4+x,1/4-y,3/4+z
1/2+x,1/2+y,z
1/2-x,1/2-y,z
3/4-x,3/4+y,1/4+z
3/4+x,3/4-y,1/4+z
loop_
_atom_site_type_symbol
_atom_site_label
_atom_site_fract_x
_atom_site_fract_y
_atom_site_fract_z
Si Si1 0.583993 0.061845 0.947250
Si Si2 0.645601 0.273172 0.900912
Si Si3 0.603419 0.366064 0.533184
Si Si4 0.560826 0.150004 0.470824
O O1 0.614715 0.155469 0.887470
O O2 0.515609 0.109617 0.028220
O O3 0.500000 0.000000 0.894205
O O4 0.649852 0.970328 0.989176
O O5 0.750000 0.250000 0.949253
O O6 0.667898 0.335206 0.809875
O O7 0.555647 0.328303 0.952226
O O8 0.613210 0.261099 0.479582
O O9 0.894515 0.400510 0.381900
#
# Coordination Sequence:
#
# PCOD9372646 Si02
#       4
#    16  16  16  16
#     4   7  18  47  69 102 144 210 261 306 392 489
#     4  11  26  45  72 117 160 210 264 336 400 469
#     4   8  20  42  73 104 145 205 257 322 398 473
#     4  11  24  46  75 113 155 200 270 337 396 474
#
# _framework density 24.494088000000001
#
# number of rings (size 3 to 8) (size 9 to 14) (size 15 to 20)
#    1.500    1.000    0.000    0.000    3.500    6.000 
#   13.500    1.250    0.000    0.000    0.000    0.000 
#    0.000    0.000    0.000    0.000    0.000    0.000 
#
# Total GULP energy -89108.731356 kJ/mol
# GULP energy per Si atom -5569.295710 kJ/mol
# Density = 2.443834 g / cm^3
# Si number density = 24.494088 Si / 1000 Ang^3
#
#
#
# Elastic Constant Matrix: (Units=GPa)
#
#
# Indices 1 2 3 4 5 6 
#
# 1 97.5835 43.4506 56.6399 0.0000 0.0000 0.0000
# 2 43.4506 119.0405 43.8073 0.0000 0.0000 0.0000
# 3 56.6399 43.8073 128.9451 0.0000 0.0000 0.0000
# 4 0.0000 0.0000 0.0000 21.5474 0.0000 0.0000
# 5 0.0000 0.0000 0.0000 0.0000 28.7631 0.0000
# 6 0.0000 0.0000 0.0000 0.0000 0.0000 32.9435
#
#
#
# Elastic Compliance Matrix: (Units=1/GPa)
#
#
# Indices 1 2 3 4 5 6 
#
# 1 0.014908 -0.003465 -0.005371 0.000000 0.000000 0.000000
# 2 -0.003465 0.010406 -0.002013 0.000000 0.000000 0.000000
# 3 -0.005371 -0.002013 0.010799 0.000000 0.000000 0.000000
# 4 0.000000 0.000000 0.000000 0.046409 0.000000 0.000000
# 5 0.000000 0.000000 0.000000 0.000000 0.034767 0.000000
# 6 0.000000 0.000000 0.000000 0.000000 0.000000 0.030355
#
#
# Mechanical properties :
#
#
# Convention : Reuss Voigt Hill
#
# Bulk Modulus (GPa) = 69.37838 70.37384 69.87611
# Shear Modulus (GPa) = 28.71129 30.09556 29.40343
#
# Velocity S-wave (km/s) = 3.42741 3.50907 3.46848
# Velocity P-wave (km/s) = 6.63694 6.72394 6.68058
#
# Compressibility (1/GPa) = 0.01441371
#
# Stress axis : x y z
#
# Youngs Moduli (GPa) = 67.07777 96.09716 92.60438
#
# Poissons Ratio (x) = 0.33297 0.49741
# Poissons Ratio (y) = 0.23242 0.18645
# Poissons Ratio (z) = 0.36030 0.19348
#
# Static dielectric constant tensor:
#      x y z
#    x 1.919540 0.000000 0.000000 
#    y 0.000000 2.086740 0.000000 
#    z 0.000000 0.000000 1.903330 
# 
# From -- ./inp_files/13111.got.cif
#   From: 2010.05.17/outbox.cif.g08.bks.cpg/sg43_7_cif.got.tgz:13111.got - 2010.06.03 19:21:55.
