data_PCOD9372499
_publ_section_title
;
Structure prediction by ZEFSAII (Michael W. Deem and Ramdas Pophale) SiO2 
 PCOD9372499
Probable space group: F D D 2
;
_chemical_formula_sum "Si O2"
_cell_formula_units_Z 96
_cell_length_a 15.942874
_cell_length_b 26.540680
_cell_length_c 10.024769
_cell_angle_alpha 90.000000
_cell_angle_beta 90.000000
_cell_angle_gamma 90.000000
_cell_volume 4241.827795
_symmetry_space_group_name_H-M "F D D 2"
_symmetry_group_IT_number 43
_symmetry_cell_setting 'orthorhombic'
loop_
_space_group_symop_operation_xyz
x,y,z
-x,-y,z
1/4-x,1/4+y,1/4+z
1/4+x,1/4-y,1/4+z
x,1/2+y,1/2+z
-x,1/2-y,1/2+z
1/4-x,3/4+y,3/4+z
1/4+x,3/4-y,3/4+z
1/2+x,y,1/2+z
1/2-x,-y,1/2+z
3/4-x,1/4+y,3/4+z
3/4+x,1/4-y,3/4+z
1/2+x,1/2+y,z
1/2-x,1/2-y,z
3/4-x,3/4+y,1/4+z
3/4+x,3/4-y,1/4+z
loop_
_atom_site_type_symbol
_atom_site_label
_atom_site_fract_x
_atom_site_fract_y
_atom_site_fract_z
Si Si1 0.250000 0.750000 0.195521
Si Si2 0.126003 0.327564 0.584022
Si Si3 0.097651 0.322305 0.116906
Si Si4 0.152655 0.687787 0.413277
Si Si5 0.974273 0.718538 0.352336
Si Si6 0.245812 0.079247 0.588362
Si Si7 0.750000 0.750000 0.122320
O O1 0.179638 0.777459 0.111477
O O2 0.207014 0.707792 0.288788
O O3 0.082579 0.317764 0.442178
O O4 0.057172 0.331539 0.701548
O O5 0.189625 0.374442 0.592344
O O6 0.117112 0.379276 0.157506
O O7 0.018594 0.303824 0.203751
O O8 0.169587 0.283370 0.169065
O O9 0.070500 0.326698 0.962120
O O10 0.205673 0.705802 0.538219
O O11 0.066028 0.717227 0.415825
O O12 0.951991 0.777254 0.346050
#
# Coordination Sequence:
#
# PCOD9372499 Si02
#       7
#     8  16  16  16  16  16   8
#     4  11  22  47  76 104 144 190 252 288 366 450
#     4  12  29  47  74 114 147 191 242 314 365 438
#     4  12  26  44  77 105 139 200 243 300 360 449
#     4  11  23  44  73 104 140 196 244 294 355 448
#     4  12  28  46  74 106 153 187 239 308 372 424
#     4  12  27  50  75 106 147 194 247 296 368 443
#     4  11  24  45  70 108 146 184 252 302 360 436
#
# _framework density 22.631754999999998
#
# number of rings (size 3 to 8) (size 9 to 14) (size 15 to 20)
#    0.000    0.333    5.000    3.000    7.000    2.000 
#    0.000    0.000    0.000    0.000    0.000    0.000 
#    0.000    0.000    0.000    0.000    0.000    0.000 
#
# Total GULP energy -134059.508046 kJ/mol
# GULP energy per Si atom -5585.812835 kJ/mol
# Density = 2.258024 g / cm^3
# Si number density = 22.631755 Si / 1000 Ang^3
#
#
#
# Elastic Constant Matrix: (Units=GPa)
#
#
# Indices 1 2 3 4 5 6 
#
# 1 75.3963 24.2001 19.8292 0.0000 0.0000 0.0000
# 2 24.2001 138.9194 32.4360 0.0000 0.0000 0.0000
# 3 19.8292 32.4360 80.9838 0.0000 0.0000 0.0000
# 4 0.0000 0.0000 0.0000 -24.7266 0.0000 0.0000
# 5 0.0000 0.0000 0.0000 0.0000 14.6412 0.0000
# 6 0.0000 0.0000 0.0000 0.0000 0.0000 41.3886
#
#
#
# Elastic Compliance Matrix: (Units=1/GPa)
#
#
# Indices 1 2 3 4 5 6 
#
# 1 0.014611 -0.001886 -0.002822 0.000000 0.000000 0.000000
# 2 -0.001886 0.008185 -0.002816 0.000000 0.000000 0.000000
# 3 -0.002822 -0.002816 0.014167 0.000000 0.000000 0.000000
# 4 0.000000 0.000000 0.000000 -0.040442 0.000000 0.000000
# 5 0.000000 0.000000 0.000000 0.000000 0.068300 0.000000
# 6 0.000000 0.000000 0.000000 0.000000 0.000000 0.024161
#
#
# Mechanical properties :
#
#
# Convention : Reuss Voigt Hill
#
# Bulk Modulus (GPa) = 45.63420 49.80334 47.71877
# Shear Modulus (GPa) = 44.90922 20.84959 32.87940
#
# Velocity S-wave (km/s) = 4.45943 3.03851 3.81570
# Velocity P-wave (km/s) = 6.83542 5.86206 6.36737
#
# Compressibility (1/GPa) = 0.02191339
#
# Stress axis : x y z
#
# Youngs Moduli (GPa) = 68.44210 122.18088 70.58601
#
# Poissons Ratio (x) = 0.23048 0.19919
# Poissons Ratio (y) = 0.12911 0.19879
# Poissons Ratio (z) = 0.19314 0.34409
#
# Static dielectric constant tensor:
#      x y z
#    x 1.822360 0.000000 0.000000 
#    y 0.000000 1.884100 0.000000 
#    z 0.000000 0.000000 1.820780 
# 
# From -- ./inp_files/6300.got.cif
#   From: 2010.05.17/outbox.cif.g08.bks.cpg/sg43_4_cif.got.tgz:6300.got - 2010.06.03 19:21:55.
