data_PCOD9372190
_publ_section_title
;
Structure prediction by ZEFSAII (Michael W. Deem and Ramdas Pophale) SiO2 
 PCOD9372190
Probable space group: F D D 2
;
_chemical_formula_sum "Si O2"
_cell_formula_units_Z 64
_cell_length_a 13.546464
_cell_length_b 29.400506
_cell_length_c 6.569822
_cell_angle_alpha 90.000000
_cell_angle_beta 90.000000
_cell_angle_gamma 90.000000
_cell_volume 2616.582035
_symmetry_space_group_name_H-M "F D D 2"
_symmetry_group_IT_number 43
_symmetry_cell_setting 'orthorhombic'
loop_
_space_group_symop_operation_xyz
x,y,z
-x,-y,z
1/4-x,1/4+y,1/4+z
1/4+x,1/4-y,1/4+z
x,1/2+y,1/2+z
-x,1/2-y,1/2+z
1/4-x,3/4+y,3/4+z
1/4+x,3/4-y,3/4+z
1/2+x,y,1/2+z
1/2-x,-y,1/2+z
3/4-x,1/4+y,3/4+z
3/4+x,1/4-y,3/4+z
1/2+x,1/2+y,z
1/2-x,1/2-y,z
3/4-x,3/4+y,1/4+z
3/4+x,3/4-y,1/4+z
loop_
_atom_site_type_symbol
_atom_site_label
_atom_site_fract_x
_atom_site_fract_y
_atom_site_fract_z
Si Si1 0.866409 0.408662 0.781290
Si Si2 0.708822 0.188395 0.747586
Si Si3 0.817810 0.003461 0.270976
Si Si4 0.383343 0.457888 0.659881
O O1 0.843717 0.359201 0.700497
O O2 0.878320 0.496888 0.982240
O O3 0.791178 0.450128 0.733302
O O4 0.875994 0.411823 0.025227
O O5 0.783884 0.175983 0.928666
O O6 0.634374 0.224849 0.843975
O O7 0.774502 0.203799 0.557608
O O8 0.780979 0.967016 0.777125
#
# Coordination Sequence:
#
# PCOD9372190 Si02
#       4
#    16  16  16  16
#     4  10  26  45  75 119 150 206 270 319 408 484
#     4  12  24  52  78 112 164 212 263 336 407 474
#     4  10  24  51  76 118 151 210 275 320 410 471
#     4  10  25  49  79 115 158 207 263 343 388 484
#
# _framework density 24.459389999999999
#
# number of rings (size 3 to 8) (size 9 to 14) (size 15 to 20)
#    1.500    0.000    0.000    3.750    0.000    6.000 
#   18.000    0.000    0.000    0.000    0.000    0.000 
#    0.000    0.000    0.000    0.000    0.000    0.000 
#
# Total GULP energy -89349.530410 kJ/mol
# GULP energy per Si atom -5584.345651 kJ/mol
# Density = 2.440372 g / cm^3
# Si number density = 24.459390 Si / 1000 Ang^3
#
#
#
# Elastic Constant Matrix: (Units=GPa)
#
#
# Indices 1 2 3 4 5 6 
#
# 1 90.7880 65.2271 84.5890 0.0000 -0.0001 0.0000
# 2 65.2271 142.6411 65.1844 0.0000 0.0000 0.0000
# 3 84.5890 65.1844 165.9154 0.0000 -0.0003 0.0000
# 4 0.0000 0.0000 0.0000 33.3066 0.0000 0.0000
# 5 -0.0001 0.0000 -0.0003 0.0000 57.7977 0.0000
# 6 0.0000 0.0000 0.0000 0.0000 0.0000 36.7227
#
#
#
# Elastic Compliance Matrix: (Units=1/GPa)
#
#
# Indices 1 2 3 4 5 6 
#
# 1 0.025697 -0.007025 -0.010341 0.000000 0.000000 0.000000
# 2 -0.007025 0.010465 -0.000530 0.000000 0.000000 0.000000
# 3 -0.010341 -0.000530 0.011508 0.000000 0.000000 0.000000
# 4 0.000000 0.000000 0.000000 0.030024 0.000000 0.000000
# 5 0.000000 0.000000 0.000000 0.000000 0.017302 0.000000
# 6 0.000000 0.000000 0.000000 0.000000 0.000000 0.027231
#
#
# Mechanical properties :
#
#
# Convention : Reuss Voigt Hill
#
# Bulk Modulus (GPa) = 84.19282 92.14948 88.17115
# Shear Modulus (GPa) = 30.86841 37.85500 34.36171
#
# Velocity S-wave (km/s) = 3.55636 3.93831 3.75220
# Velocity P-wave (km/s) = 7.16657 7.64439 7.40933
#
# Compressibility (1/GPa) = 0.01187750
#
# Stress axis : x y z
#
# Youngs Moduli (GPa) = 38.91527 95.55489 86.89898
#
# Poissons Ratio (x) = 0.67127 0.89863
# Poissons Ratio (y) = 0.27338 0.04605
# Poissons Ratio (z) = 0.40243 0.05064
#
# Static dielectric constant tensor:
#      x y z
#    x 1.966280 0.000000 0.000000 
#    y 0.000000 2.005740 0.000000 
#    z 0.000000 0.000000 2.002060 
# 
# From -- ./inp_files/689.got.cif
#   From: 2010.05.17/outbox.cif.g08.bks.cpg/sg43_1_cif.got.tgz:689.got - 2010.06.03 19:21:55.
