data_PCOD9372384
_publ_section_title
;
Structure prediction by ZEFSAII (Michael W. Deem and Ramdas Pophale) SiO2 
 PCOD9372384
Probable space group: F D D 2
;
_chemical_formula_sum "Si O2"
_cell_formula_units_Z 80
_cell_length_a 11.215985
_cell_length_b 12.014449
_cell_length_c 24.800110
_cell_angle_alpha 90.000000
_cell_angle_beta 90.000000
_cell_angle_gamma 90.000000
_cell_volume 3341.911041
_symmetry_space_group_name_H-M "F D D 2"
_symmetry_group_IT_number 43
_symmetry_cell_setting 'orthorhombic'
loop_
_space_group_symop_operation_xyz
x,y,z
-x,-y,z
1/4-x,1/4+y,1/4+z
1/4+x,1/4-y,1/4+z
x,1/2+y,1/2+z
-x,1/2-y,1/2+z
1/4-x,3/4+y,3/4+z
1/4+x,3/4-y,3/4+z
1/2+x,y,1/2+z
1/2-x,-y,1/2+z
3/4-x,1/4+y,3/4+z
3/4+x,1/4-y,3/4+z
1/2+x,1/2+y,z
1/2-x,1/2-y,z
3/4-x,3/4+y,1/4+z
3/4+x,3/4-y,1/4+z
loop_
_atom_site_type_symbol
_atom_site_label
_atom_site_fract_x
_atom_site_fract_y
_atom_site_fract_z
Si Si1 0.870219 0.947000 0.485300
Si Si2 0.250293 0.445166 0.590278
Si Si3 0.228063 0.437175 0.885090
Si Si4 0.970240 0.873177 0.920787
Si Si5 0.441019 0.211095 0.531030
O O1 0.810563 0.001701 0.538018
O O2 0.880970 0.817600 0.501369
O O3 0.797050 0.972608 0.431601
O O4 0.000000 0.000000 0.478324
O O5 0.352994 0.372014 0.619844
O O6 0.209492 0.535538 0.633599
O O7 0.150654 0.366221 0.564120
O O8 0.330955 0.358064 0.907108
O O9 0.271087 0.488441 0.828534
O O10 0.000000 0.000000 0.907831
O O11 0.995006 0.853522 0.983487
#
# Coordination Sequence:
#
# PCOD9372384 Si02
#       5
#    16  16  16  16  16
#     4  11  21  40  72 106 137 178 232 288 344 420
#     4  11  24  46  70  97 139 188 236 281 347 429
#     4  11  23  43  73 102 135 183 232 286 349 419
#     4  12  27  44  66 103 142 181 233 297 357 408
#     4  11  24  45  69 100 140 186 231 282 352 434
#
# _framework density 23.938400999999999
#
# number of rings (size 3 to 8) (size 9 to 14) (size 15 to 20)
#    0.000    0.800    0.000   10.200    0.000    3.200 
#    0.000    6.000    0.000    0.000    0.000    0.000 
#    0.000    0.000    0.000    0.000    0.000    0.000 
#
# Total GULP energy -111951.161893 kJ/mol
# GULP energy per Si atom -5597.558095 kJ/mol
# Density = 2.388392 g / cm^3
# Si number density = 23.938401 Si / 1000 Ang^3
#
#
#
# Elastic Constant Matrix: (Units=GPa)
#
#
# Indices 1 2 3 4 5 6 
#
# 1 73.8134 37.7555 43.6955 0.0000 0.0000 0.0000
# 2 37.7555 123.5515 77.4044 0.0000 0.0000 0.0000
# 3 43.6955 77.4044 191.1928 0.0000 0.0000 0.0000
# 4 0.0000 0.0000 0.0000 33.7847 0.0000 0.0000
# 5 0.0000 0.0000 0.0000 0.0000 43.1217 0.0000
# 6 0.0000 0.0000 0.0000 0.0000 0.0000 18.9289
#
#
#
# Elastic Compliance Matrix: (Units=1/GPa)
#
#
# Indices 1 2 3 4 5 6 
#
# 1 0.016818 -0.003659 -0.002362 0.000000 0.000000 0.000000
# 2 -0.003659 0.011641 -0.003876 0.000000 0.000000 0.000000
# 3 -0.002362 -0.003876 0.007339 0.000000 0.000000 0.000000
# 4 0.000000 0.000000 0.000000 0.029599 0.000000 0.000000
# 5 0.000000 0.000000 0.000000 0.000000 0.023190 0.000000
# 6 0.000000 0.000000 0.000000 0.000000 0.000000 0.052829
#
#
# Mechanical properties :
#
#
# Convention : Reuss Voigt Hill
#
# Bulk Modulus (GPa) = 62.49162 78.47427 70.48294
# Shear Modulus (GPa) = 30.02172 34.48055 32.25114
#
# Velocity S-wave (km/s) = 3.54520 3.79936 3.67448
# Velocity P-wave (km/s) = 6.55132 7.21802 6.89273
#
# Compressibility (1/GPa) = 0.01600215
#
# Stress axis : x y z
#
# Youngs Moduli (GPa) = 59.46105 85.90639 136.24933
#
# Poissons Ratio (x) = 0.31437 0.32182
# Poissons Ratio (y) = 0.21759 0.52815
# Poissons Ratio (z) = 0.14045 0.33300
#
# Static dielectric constant tensor:
#      x y z
#    x 1.998090 0.000000 0.000000 
#    y 0.000000 1.972530 0.000000 
#    z 0.000000 0.000000 1.890020 
# 
# From -- ./inp_files/20958.got.cif
#   From: 2010.05.17/outbox.cif.g08.bks.cpg/sg43_11_cif.got.tgz:20958.got - 2010.06.03 19:21:55.
