data_PCOD9372231
_publ_section_title
;
Structure prediction by ZEFSAII (Michael W. Deem and Ramdas Pophale) SiO2 
 PCOD9372231
Probable space group: F D D 2
;
_chemical_formula_sum "Si O2"
_cell_formula_units_Z 64
_cell_length_a 18.626552
_cell_length_b 15.472268
_cell_length_c 8.086596
_cell_angle_alpha 90.000000
_cell_angle_beta 90.000000
_cell_angle_gamma 90.000000
_cell_volume 2330.516570
_symmetry_space_group_name_H-M "F D D 2"
_symmetry_group_IT_number 43
_symmetry_cell_setting 'orthorhombic'
loop_
_space_group_symop_operation_xyz
x,y,z
-x,-y,z
1/4-x,1/4+y,1/4+z
1/4+x,1/4-y,1/4+z
x,1/2+y,1/2+z
-x,1/2-y,1/2+z
1/4-x,3/4+y,3/4+z
1/4+x,3/4-y,3/4+z
1/2+x,y,1/2+z
1/2-x,-y,1/2+z
3/4-x,1/4+y,3/4+z
3/4+x,1/4-y,3/4+z
1/2+x,1/2+y,z
1/2-x,1/2-y,z
3/4-x,3/4+y,1/4+z
3/4+x,3/4-y,1/4+z
loop_
_atom_site_type_symbol
_atom_site_label
_atom_site_fract_x
_atom_site_fract_y
_atom_site_fract_z
Si Si1 0.135911 0.541212 0.576110
Si Si2 0.970093 0.328285 0.603150
Si Si3 0.501685 0.637559 0.621480
Si Si4 0.087561 0.417222 0.834689
O O1 0.156188 0.453634 0.478811
O O2 0.207830 0.597610 0.541906
O O3 0.105985 0.508643 0.750849
O O4 0.070921 0.597662 0.503382
O O5 0.035621 0.367096 0.707499
O O6 0.991890 0.233889 0.536186
O O7 0.455141 0.576928 0.505179
O O8 0.585991 0.622247 0.621054
#
# Coordination Sequence:
#
# PCOD9372231 Si02
#       4
#    16  16  16  16
#     4  10  25  48  74 114 156 201 266 328 393 484
#     4  10  25  48  75 112 155 201 263 324 397 472
#     4  10  26  46  77 115 154 206 267 323 399 482
#     4  12  23  50  79 113 157 211 258 340 399 478
#
# _framework density 27.461722000000002
#
# number of rings (size 3 to 8) (size 9 to 14) (size 15 to 20)
#    1.500    0.000    2.500    0.750    3.500    6.000 
#    4.500    3.750    0.000    0.000    0.000    0.000 
#    0.000    0.000    0.000    0.000    0.000    0.000 
#
# Total GULP energy -89396.184754 kJ/mol
# GULP energy per Si atom -5587.261547 kJ/mol
# Density = 2.739922 g / cm^3
# Si number density = 27.461722 Si / 1000 Ang^3
#
#
#
# Elastic Constant Matrix: (Units=GPa)
#
#
# Indices 1 2 3 4 5 6 
#
# 1 243.3811 79.9012 62.6628 0.0000 0.0000 0.0000
# 2 79.9012 110.4082 39.5914 0.0000 0.0000 0.0000
# 3 62.6628 39.5914 63.1441 0.0000 0.0000 0.0000
# 4 0.0000 0.0000 0.0000 20.2369 0.0000 0.0000
# 5 0.0000 0.0000 0.0000 0.0000 54.5811 0.0000
# 6 0.0000 0.0000 0.0000 0.0000 0.0000 55.5513
#
#
#
# Elastic Compliance Matrix: (Units=1/GPa)
#
#
# Indices 1 2 3 4 5 6 
#
# 1 0.006176 -0.002931 -0.004291 0.000000 0.000000 0.000000
# 2 -0.002931 0.013075 -0.005290 0.000000 0.000000 0.000000
# 3 -0.004291 -0.005290 0.023412 0.000000 0.000000 0.000000
# 4 0.000000 0.000000 0.000000 0.049415 0.000000 0.000000
# 5 0.000000 0.000000 0.000000 0.000000 0.018321 0.000000
# 6 0.000000 0.000000 0.000000 0.000000 0.000000 0.018001
#
#
# Mechanical properties :
#
#
# Convention : Reuss Voigt Hill
#
# Bulk Modulus (GPa) = 56.69070 86.80491 71.74781
# Shear Modulus (GPa) = 31.38672 41.72572 36.55622
#
# Velocity S-wave (km/s) = 3.38439 3.90219 3.65248
# Velocity P-wave (km/s) = 5.99670 7.20978 6.63104
#
# Compressibility (1/GPa) = 0.01763958
#
# Stress axis : x y z
#
# Youngs Moduli (GPa) = 161.92486 76.48201 42.71315
#
# Poissons Ratio (x) = 0.22413 0.18329
# Poissons Ratio (y) = 0.47452 0.22595
# Poissons Ratio (z) = 0.69485 0.40458
#
# Static dielectric constant tensor:
#      x y z
#    x 2.146710 0.000000 0.000000 
#    y 0.000000 2.130220 0.000000 
#    z 0.000000 0.000000 2.266600 
# 
# From -- ./inp_files/5940.got.cif
#   From: 2010.05.17/outbox.cif.g08.bks.cpg/sg43_3_cif.got.tgz:5940.got - 2010.06.03 19:21:55.
