data_PCOD9372464
_publ_section_title
;
Structure prediction by ZEFSAII (Michael W. Deem and Ramdas Pophale) SiO2 
 PCOD9372464
Probable space group: F D D 2
;
_chemical_formula_sum "Si O2"
_cell_formula_units_Z 88
_cell_length_a 5.785011
_cell_length_b 26.437164
_cell_length_c 26.830186
_cell_angle_alpha 90.000000
_cell_angle_beta 90.000000
_cell_angle_gamma 90.000000
_cell_volume 4103.389451
_symmetry_space_group_name_H-M "F D D 2"
_symmetry_group_IT_number 43
_symmetry_cell_setting 'orthorhombic'
loop_
_space_group_symop_operation_xyz
x,y,z
-x,-y,z
1/4-x,1/4+y,1/4+z
1/4+x,1/4-y,1/4+z
x,1/2+y,1/2+z
-x,1/2-y,1/2+z
1/4-x,3/4+y,3/4+z
1/4+x,3/4-y,3/4+z
1/2+x,y,1/2+z
1/2-x,-y,1/2+z
3/4-x,1/4+y,3/4+z
3/4+x,1/4-y,3/4+z
1/2+x,1/2+y,z
1/2-x,1/2-y,z
3/4-x,3/4+y,1/4+z
3/4+x,3/4-y,1/4+z
loop_
_atom_site_type_symbol
_atom_site_label
_atom_site_fract_x
_atom_site_fract_y
_atom_site_fract_z
Si Si1 0.197299 0.466850 0.983170
Si Si2 0.132467 0.375873 0.710790
Si Si3 0.750000 0.750000 0.149635
Si Si4 0.871258 0.195735 0.390475
Si Si5 0.264868 0.860097 0.622618
Si Si6 0.080479 0.913457 0.048511
O O1 0.284378 0.501654 0.937846
O O2 0.000000 0.500000 0.010309
O O3 0.082952 0.416380 0.961076
O O4 0.413104 0.448894 0.015832
O O5 0.247150 0.427796 0.690965
O O6 0.932381 0.365533 0.670415
O O7 0.012350 0.366681 0.764153
O O8 0.794742 0.698856 0.120184
O O9 0.750000 0.250000 0.394801
O O10 0.687156 0.151112 0.378570
O O11 0.046830 0.193417 0.343632
O O12 0.410767 0.874082 0.574453
#
# Coordination Sequence:
#
# PCOD9372464 Si02
#       6
#    16  16   8  16  16  16
#     4  12  22  40  75 106 135 178 236 296 361 423
#     4  11  22  43  71  98 143 187 232 297 361 428
#     4  12  22  42  74 102 138 184 232 294 370 416
#     4  11  26  46  72 101 147 189 243 299 360 436
#     4  11  24  43  71 102 141 182 236 298 362 427
#     4  11  25  42  69 108 143 184 243 296 361 432
#
# _framework density 21.445684
#
# number of rings (size 3 to 8) (size 9 to 14) (size 15 to 20)
#    0.000    0.727    5.455    1.091    0.000   10.182 
#    0.000    0.000   30.000    0.000    0.000    0.000 
#    0.000    0.000    0.000    0.000    0.000    0.000 
#
# Total GULP energy -122933.821089 kJ/mol
# GULP energy per Si atom -5587.900959 kJ/mol
# Density = 2.139687 g / cm^3
# Si number density = 21.445684 Si / 1000 Ang^3
#
#
#
# Elastic Constant Matrix: (Units=GPa)
#
#
# Indices 1 2 3 4 5 6 
#
# 1 93.7673 57.8174 26.8914 0.0000 0.0000 0.0000
# 2 57.8174 163.4747 47.3694 0.0000 0.0000 0.0000
# 3 26.8914 47.3694 74.9424 0.0000 0.0000 0.0000
# 4 0.0000 0.0000 0.0000 24.1100 0.0000 0.0000
# 5 0.0000 0.0000 0.0000 0.0000 50.3527 0.0000
# 6 0.0000 0.0000 0.0000 0.0000 0.0000 44.6380
#
#
#
# Elastic Compliance Matrix: (Units=1/GPa)
#
#
# Indices 1 2 3 4 5 6 
#
# 1 0.013959 -0.004267 -0.002312 0.000000 0.000000 0.000000
# 2 -0.004267 0.008793 -0.004027 0.000000 0.000000 0.000000
# 3 -0.002312 -0.004027 0.016718 0.000000 0.000000 0.000000
# 4 0.000000 0.000000 0.000000 0.041477 0.000000 0.000000
# 5 0.000000 0.000000 0.000000 0.000000 0.019860 0.000000
# 6 0.000000 0.000000 0.000000 0.000000 0.000000 0.022402
#
#
# Mechanical properties :
#
#
# Convention : Reuss Voigt Hill
#
# Bulk Modulus (GPa) = 54.76705 66.26007 60.51356
# Shear Modulus (GPa) = 33.22111 37.16055 35.19083
#
# Velocity S-wave (km/s) = 3.94011 4.16718 4.05523
# Velocity P-wave (km/s) = 6.80384 7.35647 7.08554
#
# Compressibility (1/GPa) = 0.01825915
#
# Stress axis : x y z
#
# Youngs Moduli (GPa) = 71.63967 113.72480 59.81453
#
# Poissons Ratio (x) = 0.48527 0.13827
# Poissons Ratio (y) = 0.30569 0.24086
# Poissons Ratio (z) = 0.16561 0.45795
#
# Static dielectric constant tensor:
#      x y z
#    x 1.843130 0.000000 0.000000 
#    y 0.000000 1.803920 0.000000 
#    z 0.000000 0.000000 1.781520 
# 
# From -- ./inp_files/27234.got.cif
#   From: 2010.05.17/outbox.cif.g08.bks.cpg/sg43_14_cif.got.tgz:27234.got - 2010.06.03 19:21:55.
