data_PCOD9372821
_publ_section_title
;
Structure prediction by ZEFSAII (Michael W. Deem and Ramdas Pophale) SiO2 
 PCOD9372821
Probable space group: F D D 2
;
_chemical_formula_sum "Si O2"
_cell_formula_units_Z 56
_cell_length_a 9.316879
_cell_length_b 13.422395
_cell_length_c 16.559960
_cell_angle_alpha 90.000000
_cell_angle_beta 90.000000
_cell_angle_gamma 90.000000
_cell_volume 2070.902984
_symmetry_space_group_name_H-M "F D D 2"
_symmetry_group_IT_number 43
_symmetry_cell_setting 'orthorhombic'
loop_
_space_group_symop_operation_xyz
x,y,z
-x,-y,z
1/4-x,1/4+y,1/4+z
1/4+x,1/4-y,1/4+z
x,1/2+y,1/2+z
-x,1/2-y,1/2+z
1/4-x,3/4+y,3/4+z
1/4+x,3/4-y,3/4+z
1/2+x,y,1/2+z
1/2-x,-y,1/2+z
3/4-x,1/4+y,3/4+z
3/4+x,1/4-y,3/4+z
1/2+x,1/2+y,z
1/2-x,1/2-y,z
3/4-x,3/4+y,1/4+z
3/4+x,3/4-y,1/4+z
loop_
_atom_site_type_symbol
_atom_site_label
_atom_site_fract_x
_atom_site_fract_y
_atom_site_fract_z
Si Si1 0.500000 0.500000 0.835810
Si Si2 0.566596 0.835900 0.735535
Si Si3 0.567385 0.411339 0.590537
Si Si4 0.725114 0.630453 0.306928
O O1 0.589062 0.581527 0.884653
O O2 0.371037 0.566033 0.797079
O O3 0.591251 0.724568 0.773535
O O4 0.688292 0.888575 0.790259
O O5 0.595818 0.844890 0.641868
O O6 0.407742 0.878007 0.745803
O O7 0.750000 0.250000 0.392461
O O8 0.750000 0.750000 0.314495
#
# Coordination Sequence:
#
# PCOD9372821 Si02
#       4
#     8  16  16  16
#     4  12  24  40  78  96 148 190 248 302 378 436
#     4   9  24  46  70  99 153 184 254 303 379 438
#     4   8  21  46  63 107 138 189 244 306 361 451
#     4  12  25  46  73 111 146 202 249 316 375 460
#
# _framework density 27.041342
#
# number of rings (size 3 to 8) (size 9 to 14) (size 15 to 20)
#    1.714    0.000    2.857    0.000    6.000    4.571 
#    0.000    2.857    3.143    0.000    0.000    0.000 
#    0.000    0.000    0.000    0.000    0.000    0.000 
#
# Total GULP energy -78068.606132 kJ/mol
# GULP energy per Si atom -5576.329009 kJ/mol
# Density = 2.697979 g / cm^3
# Si number density = 27.041342 Si / 1000 Ang^3
#
#
#
# Elastic Constant Matrix: (Units=GPa)
#
#
# Indices 1 2 3 4 5 6 
#
# 1 180.9802 76.1817 22.8123 0.0000 0.0000 0.0000
# 2 76.1817 157.4848 18.5484 0.0000 0.0000 0.0000
# 3 22.8123 18.5484 79.8794 0.0000 0.0000 0.0000
# 4 0.0000 0.0000 0.0000 17.0186 0.0000 0.0000
# 5 0.0000 0.0000 0.0000 0.0000 20.9264 0.0000
# 6 0.0000 0.0000 0.0000 0.0000 0.0000 101.2177
#
#
#
# Elastic Compliance Matrix: (Units=1/GPa)
#
#
# Indices 1 2 3 4 5 6 
#
# 1 0.007059 -0.003267 -0.001257 0.000000 0.000000 0.000000
# 2 -0.003267 0.008040 -0.000934 0.000000 0.000000 0.000000
# 3 -0.001257 -0.000934 0.013095 0.000000 0.000000 0.000000
# 4 0.000000 0.000000 0.000000 0.058759 0.000000 0.000000
# 5 0.000000 0.000000 0.000000 0.000000 0.047786 0.000000
# 6 0.000000 0.000000 0.000000 0.000000 0.000000 0.009880
#
#
# Mechanical properties :
#
#
# Convention : Reuss Voigt Hill
#
# Bulk Modulus (GPa) = 57.87797 72.60324 65.24060
# Shear Modulus (GPa) = 30.99917 47.88603 39.44260
#
# Velocity S-wave (km/s) = 3.38947 4.21271 3.82331
# Velocity P-wave (km/s) = 6.06366 7.11124 6.60824
#
# Compressibility (1/GPa) = 0.01727773
#
# Stress axis : x y z
#
# Youngs Moduli (GPa) = 141.66284 124.37764 76.36590
#
# Poissons Ratio (x) = 0.40630 0.09602
# Poissons Ratio (y) = 0.46276 0.07133
# Poissons Ratio (z) = 0.17813 0.11617
#
# Static dielectric constant tensor:
#      x y z
#    x 2.110360 0.000000 0.000000 
#    y 0.000000 2.197340 0.000000 
#    z 0.000000 0.000000 1.950800 
# 
# From -- ./inp_files/19883.got.cif
#   From: 2010.05.17/outbox.cif.g08.bks.cpg/sg43_10_cif.got.tgz:19883.got - 2010.06.03 19:21:55.
