data_PCOD9372455
_publ_section_title
;
Structure prediction by ZEFSAII (Michael W. Deem and Ramdas Pophale) SiO2 
 PCOD9372455
Probable space group: F D D 2
;
_chemical_formula_sum "Si O2"
_cell_formula_units_Z 112
_cell_length_a 5.543199
_cell_length_b 30.229495
_cell_length_c 24.961762
_cell_angle_alpha 90.000000
_cell_angle_beta 90.000000
_cell_angle_gamma 90.000000
_cell_volume 4182.795192
_symmetry_space_group_name_H-M "F D D 2"
_symmetry_group_IT_number 43
_symmetry_cell_setting 'orthorhombic'
loop_
_space_group_symop_operation_xyz
x,y,z
-x,-y,z
1/4-x,1/4+y,1/4+z
1/4+x,1/4-y,1/4+z
x,1/2+y,1/2+z
-x,1/2-y,1/2+z
1/4-x,3/4+y,3/4+z
1/4+x,3/4-y,3/4+z
1/2+x,y,1/2+z
1/2-x,-y,1/2+z
3/4-x,1/4+y,3/4+z
3/4+x,1/4-y,3/4+z
1/2+x,1/2+y,z
1/2-x,1/2-y,z
3/4-x,3/4+y,1/4+z
3/4+x,3/4-y,1/4+z
loop_
_atom_site_type_symbol
_atom_site_label
_atom_site_fract_x
_atom_site_fract_y
_atom_site_fract_z
Si Si1 0.750000 0.250000 0.153240
Si Si2 0.060405 0.117966 0.758284
Si Si3 0.496626 0.553270 0.002420
Si Si4 0.697922 0.412277 0.109000
Si Si5 0.059208 0.187400 0.917877
Si Si6 0.157225 0.590734 0.929062
Si Si7 0.750000 0.250000 0.974194
Si Si8 0.441840 0.713766 0.559991
O O1 0.711109 0.293014 0.187409
O O2 0.535075 0.235847 0.114059
O O3 0.973544 0.167294 0.770874
O O4 0.871302 0.091020 0.721094
O O5 0.292868 0.125060 0.720705
O O6 0.096185 0.086146 0.809112
O O7 0.500000 0.500000 0.999796
O O8 0.313899 0.569007 0.049190
O O9 0.425244 0.575975 0.945513
O O10 0.442228 0.424319 0.138346
O O11 0.675134 0.359354 0.121237
O O12 0.948177 0.430449 0.133633
O O13 0.973892 0.235351 0.938100
O O14 0.653435 0.213506 0.015598
O O15 0.250000 0.750000 0.540174
#
# Coordination Sequence:
#
# PCOD9372455 Si02
#       8
#     8  16  16  16  16  16   8  16
#     4  11  28  46  78 116 160 212 278 342 417 502
#     4  11  25  47  80 111 157 215 271 342 421 492
#     4  12  29  52  78 112 158 218 282 345 416 505
#     4  11  28  48  79 116 158 213 275 338 411 498
#     4  11  24  48  75 118 160 210 264 334 414 495
#     4  11  26  51  78 112 161 217 271 340 420 501
#     4  11  22  42  74 114 162 210 264 340 419 486
#     4  11  25  43  77 121 159 204 274 349 412 497
#
# _framework density 26.776353
#
# number of rings (size 3 to 8) (size 9 to 14) (size 15 to 20)
#    0.000    0.857    2.857    2.571    7.000    2.857 
#    0.000    0.000    0.000    0.000    0.000    0.000 
#    0.000    0.000    0.000    0.000    0.000    0.000 
#
# Total GULP energy -156342.409733 kJ/mol
# GULP energy per Si atom -5583.657490 kJ/mol
# Density = 2.671541 g / cm^3
# Si number density = 26.776353 Si / 1000 Ang^3
#
#
#
# Elastic Constant Matrix: (Units=GPa)
#
#
# Indices 1 2 3 4 5 6 
#
# 1 137.0173 30.3057 51.8318 0.0000 0.0000 0.0000
# 2 30.3057 170.6665 31.9673 0.0000 0.0000 0.0000
# 3 51.8318 31.9673 76.6270 0.0000 0.0000 0.0000
# 4 0.0000 0.0000 0.0000 17.5469 0.0000 0.0000
# 5 0.0000 0.0000 0.0000 0.0000 59.8468 0.0000
# 6 0.0000 0.0000 0.0000 0.0000 0.0000 43.4143
#
#
#
# Elastic Compliance Matrix: (Units=1/GPa)
#
#
# Indices 1 2 3 4 5 6 
#
# 1 0.009854 -0.000544 -0.006439 0.000000 0.000000 0.000000
# 2 -0.000544 0.006386 -0.002296 0.000000 0.000000 0.000000
# 3 -0.006439 -0.002296 0.018363 0.000000 0.000000 0.000000
# 4 0.000000 0.000000 0.000000 0.056990 0.000000 0.000000
# 5 0.000000 0.000000 0.000000 0.000000 0.016709 0.000000
# 6 0.000000 0.000000 0.000000 0.000000 0.000000 0.023034
#
#
# Mechanical properties :
#
#
# Convention : Reuss Voigt Hill
#
# Bulk Modulus (GPa) = 62.32031 68.05780 65.18905
# Shear Modulus (GPa) = 32.20742 42.17534 37.19138
#
# Velocity S-wave (km/s) = 3.47195 3.97305 3.73092
# Velocity P-wave (km/s) = 6.27674 6.82050 6.55426
#
# Compressibility (1/GPa) = 0.01604613
#
# Stress axis : x y z
#
# Youngs Moduli (GPa) = 101.47826 156.59095 54.45588
#
# Poissons Ratio (x) = 0.08516 0.35063
# Poissons Ratio (y) = 0.05519 0.12505
# Poissons Ratio (z) = 0.65339 0.35958
#
# Static dielectric constant tensor:
#      x y z
#    x 2.275100 0.000000 0.000000 
#    y 0.000000 2.169820 0.000000 
#    z 0.000000 0.000000 2.150380 
# 
# From -- ./inp_files/27459.got.cif
#   From: 2010.05.17/outbox.cif.g08.bks.cpg/sg43_14_cif.got.tgz:27459.got - 2010.06.03 19:21:55.
