data_PCOD9372760
_publ_section_title
;
Structure prediction by ZEFSAII (Michael W. Deem and Ramdas Pophale) SiO2 
 PCOD9372760
Probable space group: F D D 2
;
_chemical_formula_sum "Si O2"
_cell_formula_units_Z 72
_cell_length_a 15.136148
_cell_length_b 12.725829
_cell_length_c 14.439850
_cell_angle_alpha 90.000000
_cell_angle_beta 90.000000
_cell_angle_gamma 90.000000
_cell_volume 2781.404357
_symmetry_space_group_name_H-M "F D D 2"
_symmetry_group_IT_number 43
_symmetry_cell_setting 'orthorhombic'
loop_
_space_group_symop_operation_xyz
x,y,z
-x,-y,z
1/4-x,1/4+y,1/4+z
1/4+x,1/4-y,1/4+z
x,1/2+y,1/2+z
-x,1/2-y,1/2+z
1/4-x,3/4+y,3/4+z
1/4+x,3/4-y,3/4+z
1/2+x,y,1/2+z
1/2-x,-y,1/2+z
3/4-x,1/4+y,3/4+z
3/4+x,1/4-y,3/4+z
1/2+x,1/2+y,z
1/2-x,1/2-y,z
3/4-x,3/4+y,1/4+z
3/4+x,3/4-y,1/4+z
loop_
_atom_site_type_symbol
_atom_site_label
_atom_site_fract_x
_atom_site_fract_y
_atom_site_fract_z
Si Si1 0.721134 0.630360 0.036260
Si Si2 0.961584 0.156970 0.297249
Si Si3 0.007385 0.656800 0.072551
Si Si4 0.500000 0.000000 0.928572
Si Si5 0.523949 0.113880 0.589225
O O1 0.750000 0.750000 0.051785
O O2 0.777490 0.529459 0.066370
O O3 0.629004 0.616872 0.087827
O O4 0.718103 0.612498 0.924394
O O5 0.982123 0.128039 0.191209
O O6 0.032100 0.088383 0.356661
O O7 0.861634 0.122279 0.321121
O O8 0.001652 0.776970 0.040891
O O9 0.956945 0.580655 0.001090
O O10 0.500000 0.000000 0.549421
#
# Coordination Sequence:
#
# PCOD9372760 Si02
#       5
#    16  16  16   8  16
#     4  11  27  53  80 121 169 212 273 347 422 480
#     4  11  27  48  81 114 160 222 277 332 407 506
#     4  11  27  48  81 114 160 222 277 332 407 506
#     4  12  24  44  82 108 156 210 294 314 400 496
#     4  11  27  53  80 121 169 212 273 347 422 480
#
# _framework density 25.886202999999998
#
# number of rings (size 3 to 8) (size 9 to 14) (size 15 to 20)
#    0.000    0.889    2.222    2.667   12.444    0.000 
#    0.000    0.000    0.000    0.000    0.000    0.000 
#    0.000    0.000    0.000    0.000    0.000    0.000 
#
# Total GULP energy -100590.112635 kJ/mol
# GULP energy per Si atom -5588.339591 kJ/mol
# Density = 2.582728 g / cm^3
# Si number density = 25.886203 Si / 1000 Ang^3
#
#
#
# Elastic Constant Matrix: (Units=GPa)
#
#
# Indices 1 2 3 4 5 6 
#
# 1 114.3301 34.5357 -6.1933 0.0000 0.0000 0.0000
# 2 34.5357 292.9174 -5.5937 0.0000 0.0000 0.0000
# 3 -6.1933 -5.5937 90.8040 0.0000 0.0000 0.0000
# 4 0.0000 0.0000 0.0000 59.1602 0.0000 0.0000
# 5 0.0000 0.0000 0.0000 0.0000 -18.7534 0.0000
# 6 0.0000 0.0000 0.0000 0.0000 0.0000 44.2164
#
#
#
# Elastic Compliance Matrix: (Units=1/GPa)
#
#
# Indices 1 2 3 4 5 6 
#
# 1 0.009097 -0.001062 0.000555 0.000000 0.000000 0.000000
# 2 -0.001062 0.003542 0.000146 0.000000 0.000000 0.000000
# 3 0.000555 0.000146 0.011060 0.000000 0.000000 0.000000
# 4 0.000000 0.000000 0.000000 0.016903 0.000000 0.000000
# 5 0.000000 0.000000 0.000000 0.000000 -0.053324 0.000000
# 6 0.000000 0.000000 0.000000 0.000000 0.000000 0.022616
#
#
# Mechanical properties :
#
#
# Convention : Reuss Voigt Hill
#
# Bulk Modulus (GPa) = 43.52255 60.39433 51.95844
# Shear Modulus (GPa) = 273.58521 48.61149 161.09835
#
# Velocity S-wave (km/s) = 10.29160 4.33817 7.89737
# Velocity P-wave (km/s) = 12.57268 6.96235 10.16235
#
# Compressibility (1/GPa) = 0.02297659
#
# Stress axis : x y z
#
# Youngs Moduli (GPa) = 109.92065 282.33193 90.41942
#
# Poissons Ratio (x) = 0.29984 -0.05019
# Poissons Ratio (y) = 0.11674 -0.01318
# Poissons Ratio (z) = -0.06101 -0.04115
#
# Static dielectric constant tensor:
#      x y z
#    x 2.057690 0.000000 0.000000 
#    y 0.000000 1.909310 0.000000 
#    z 0.000000 0.000000 2.055430 
# 
# From -- ./inp_files/7867.got.cif
#   From: 2010.05.17/outbox.cif.g08.bks.cpg/sg43_4_cif.got.tgz:7867.got - 2010.06.03 19:21:55.
