data_PCOD9372036
_publ_section_title
;
Structure prediction by ZEFSAII (Michael W. Deem and Ramdas Pophale) SiO2 
 PCOD9372036
Probable space group: F D D 2
;
_chemical_formula_sum "Si O2"
_cell_formula_units_Z 80
_cell_length_a 19.716646
_cell_length_b 13.462245
_cell_length_c 12.764240
_cell_angle_alpha 90.000000
_cell_angle_beta 90.000000
_cell_angle_gamma 90.000000
_cell_volume 3388.016295
_symmetry_space_group_name_H-M "F D D 2"
_symmetry_group_IT_number 43
_symmetry_cell_setting 'orthorhombic'
loop_
_space_group_symop_operation_xyz
x,y,z
-x,-y,z
1/4-x,1/4+y,1/4+z
1/4+x,1/4-y,1/4+z
x,1/2+y,1/2+z
-x,1/2-y,1/2+z
1/4-x,3/4+y,3/4+z
1/4+x,3/4-y,3/4+z
1/2+x,y,1/2+z
1/2-x,-y,1/2+z
3/4-x,1/4+y,3/4+z
3/4+x,1/4-y,3/4+z
1/2+x,1/2+y,z
1/2-x,1/2-y,z
3/4-x,3/4+y,1/4+z
3/4+x,3/4-y,1/4+z
loop_
_atom_site_type_symbol
_atom_site_label
_atom_site_fract_x
_atom_site_fract_y
_atom_site_fract_z
Si Si1 0.500000 0.500000 0.587121
Si Si2 0.601247 0.330487 0.621414
Si Si3 0.500000 0.000000 0.729562
Si Si4 0.668401 0.694948 0.296312
Si Si5 0.470934 0.308493 0.946605
Si Si6 0.299874 0.627053 0.147324
O O1 0.544409 0.415485 0.644390
O O2 0.545612 0.563354 0.505135
O O3 0.623687 0.257978 0.715511
O O4 0.573633 0.260026 0.527576
O O5 0.670650 0.394981 0.609912
O O6 0.437499 0.994609 0.651000
O O7 0.494382 0.088526 0.811681
O O8 0.736737 0.647486 0.249646
O O9 0.621417 0.608069 0.342579
O O10 0.530382 0.236323 0.910909
#
# Coordination Sequence:
#
# PCOD9372036 Si02
#       6
#     8  16   8  16  16  16
#     4   9  24  50  65 104 136 192 237 298 368 425
#     4  11  25  47  69 103 147 184 242 300 362 435
#     4  11  22  42  63 100 130 182 229 284 354 413
#     4  12  23  44  68 101 140 183 236 291 358 431
#     4  11  25  46  69 106 142 190 237 299 365 425
#     4  10  24  42  72  97 138 183 240 291 356 435
#
# _framework density 23.612635000000001
#
# number of rings (size 3 to 8) (size 9 to 14) (size 15 to 20)
#    0.000    1.200    2.000    2.400    5.600    1.600 
#   10.800    0.000    0.000    0.000    0.000    0.000 
#    0.000    0.000    0.000    0.000    0.000    0.000 
#
# Total GULP energy -111478.119302 kJ/mol
# GULP energy per Si atom -5573.905965 kJ/mol
# Density = 2.355889 g / cm^3
# Si number density = 23.612635 Si / 1000 Ang^3
#
#
#
# Elastic Constant Matrix: (Units=GPa)
#
#
# Indices 1 2 3 4 5 6 
#
# 1 112.1296 28.2749 33.0295 0.0000 0.0000 0.0000
# 2 28.2749 114.5601 21.3258 0.0000 0.0000 0.0000
# 3 33.0295 21.3258 57.2614 0.0000 0.0000 0.0000
# 4 0.0000 0.0000 0.0000 9.2751 0.0000 0.0000
# 5 0.0000 0.0000 0.0000 0.0000 36.7741 0.0000
# 6 0.0000 0.0000 0.0000 0.0000 0.0000 32.9148
#
#
#
# Elastic Compliance Matrix: (Units=1/GPa)
#
#
# Indices 1 2 3 4 5 6 
#
# 1 0.011027 -0.001652 -0.005745 0.000000 0.000000 0.000000
# 2 -0.001652 0.009627 -0.002632 0.000000 0.000000 0.000000
# 3 -0.005745 -0.002632 0.021758 0.000000 0.000000 0.000000
# 4 0.000000 0.000000 0.000000 0.107816 0.000000 0.000000
# 5 0.000000 0.000000 0.000000 0.000000 0.027193 0.000000
# 6 0.000000 0.000000 0.000000 0.000000 0.000000 0.030381
#
#
# Mechanical properties :
#
#
# Convention : Reuss Voigt Hill
#
# Bulk Modulus (GPa) = 44.73773 49.91240 47.32507
# Shear Modulus (GPa) = 21.24828 29.21419 25.23123
#
# Velocity S-wave (km/s) = 3.00304 3.52124 3.27241
# Velocity P-wave (km/s) = 5.56884 6.14134 5.86208
#
# Compressibility (1/GPa) = 0.02235250
#
# Stress axis : x y z
#
# Youngs Moduli (GPa) = 90.68430 103.87640 45.95962
#
# Poissons Ratio (x) = 0.17162 0.26406
# Poissons Ratio (y) = 0.14982 0.12098
# Poissons Ratio (z) = 0.52102 0.27344
#
# Static dielectric constant tensor:
#      x y z
#    x 1.994560 0.000000 0.000000 
#    y 0.000000 2.290180 0.000000 
#    z 0.000000 0.000000 1.840990 
# 
# From -- ./inp_files/10869.got.cif
#   From: 2010.05.17/outbox.cif.g08.bks.cpg/sg43_6_cif.got.tgz:10869.got - 2010.06.03 19:21:55.
