data_PCOD9372506
_publ_section_title
;
Structure prediction by ZEFSAII (Michael W. Deem and Ramdas Pophale) SiO2 
 PCOD9372506
Probable space group: F D D 2
;
_chemical_formula_sum "Si O2"
_cell_formula_units_Z 120
_cell_length_a 19.931835
_cell_length_b 11.105393
_cell_length_c 26.744500
_cell_angle_alpha 90.000000
_cell_angle_beta 90.000000
_cell_angle_gamma 90.000000
_cell_volume 5919.918099
_symmetry_space_group_name_H-M "F D D 2"
_symmetry_group_IT_number 43
_symmetry_cell_setting 'orthorhombic'
loop_
_space_group_symop_operation_xyz
x,y,z
-x,-y,z
1/4-x,1/4+y,1/4+z
1/4+x,1/4-y,1/4+z
x,1/2+y,1/2+z
-x,1/2-y,1/2+z
1/4-x,3/4+y,3/4+z
1/4+x,3/4-y,3/4+z
1/2+x,y,1/2+z
1/2-x,-y,1/2+z
3/4-x,1/4+y,3/4+z
3/4+x,1/4-y,3/4+z
1/2+x,1/2+y,z
1/2-x,1/2-y,z
3/4-x,3/4+y,1/4+z
3/4+x,3/4-y,1/4+z
loop_
_atom_site_type_symbol
_atom_site_label
_atom_site_fract_x
_atom_site_fract_y
_atom_site_fract_z
Si Si1 0.453256 0.118316 0.285480
Si Si2 0.937898 0.790993 0.083581
Si Si3 0.250000 0.750000 0.897436
Si Si4 0.376725 0.146443 0.683271
Si Si5 0.908176 0.653086 0.925488
Si Si6 0.515401 0.134206 0.843929
Si Si7 0.483476 0.871495 0.013026
Si Si8 0.304879 0.350768 0.921844
O O1 0.379364 0.071979 0.302690
O O2 0.469404 0.244985 0.312931
O O3 0.462183 0.149420 0.226838
O O4 0.500000 0.000000 0.295646
O O5 0.930218 0.693415 0.127866
O O6 0.961467 0.909075 0.111572
O O7 0.996748 0.737493 0.048553
O O8 0.306382 0.820451 0.928255
O O9 0.390879 0.288931 0.679324
O O10 0.324630 0.125581 0.636535
O O11 0.337803 0.119329 0.735150
O O12 0.963471 0.630840 0.967603
O O13 0.871847 0.776490 0.932852
O O14 0.946455 0.656493 0.873485
O O15 0.500000 0.000000 0.820987
O O16 0.500000 0.000000 0.038491
O O17 0.250000 0.250000 0.907388
#
# Coordination Sequence:
#
# PCOD9372506 Si02
#       8
#    16  16   8  16  16  16  16  16
#     4  11  23  42  66 104 140 175 232 293 346 411
#     4  12  24  43  66  94 140 182 221 291 346 409
#     4  12  24  42  62  94 142 172 220 280 346 406
#     4   9  19  37  65  95 131 172 217 279 333 407
#     4   9  17  37  67  95 123 166 220 277 326 403
#     4   9  18  38  67  93 127 175 225 269 337 417
#     4   9  19  39  68  96 123 171 232 268 332 418
#     4  11  23  39  64  96 136 173 225 281 350 405
#
# _framework density 20.27055
#
# number of rings (size 3 to 8) (size 9 to 14) (size 15 to 20)
#    0.000    1.867    2.667    3.600    0.000    0.000 
#    3.600    0.000    0.000    0.000    1.733    0.000 
#    0.000    0.000    0.000    0.000    0.000    0.000 
#
# Total GULP energy -167316.682904 kJ/mol
# GULP energy per Si atom -5577.222763 kJ/mol
# Density = 2.022441 g / cm^3
# Si number density = 20.270550 Si / 1000 Ang^3
#
#
#
# Elastic Constant Matrix: (Units=GPa)
#
#
# Indices 1 2 3 4 5 6 
#
# 1 81.9478 21.4929 24.7510 0.0000 0.0000 0.0000
# 2 21.4929 91.1666 47.2794 0.0000 0.0000 0.0000
# 3 24.7510 47.2794 92.1204 0.0000 0.0000 0.0000
# 4 0.0000 0.0000 0.0000 -5.7520 0.0000 0.0000
# 5 0.0000 0.0000 0.0000 0.0000 19.9999 0.0000
# 6 0.0000 0.0000 0.0000 0.0000 0.0000 36.8266
#
#
#
# Elastic Compliance Matrix: (Units=1/GPa)
#
#
# Indices 1 2 3 4 5 6 
#
# 1 0.013487 -0.001772 -0.002714 0.000000 0.000000 0.000000
# 2 -0.001772 0.015180 -0.007315 0.000000 0.000000 0.000000
# 3 -0.002714 -0.007315 0.015339 0.000000 0.000000 0.000000
# 4 0.000000 0.000000 0.000000 -0.173851 0.000000 0.000000
# 5 0.000000 0.000000 0.000000 0.000000 0.050000 0.000000
# 6 0.000000 0.000000 0.000000 0.000000 0.000000 0.027154
#
#
# Mechanical properties :
#
#
# Convention : Reuss Voigt Hill
#
# Bulk Modulus (GPa) = 49.00995 50.25347 49.63171
# Shear Modulus (GPa) = -224.35422 21.66234 -101.34594
#
# Velocity S-wave (km/s) = -10.53186 3.27258 -7.07850
# Velocity P-wave (km/s) = 11.12039 6.25499 6.50147
#
# Compressibility (1/GPa) = 0.02040402
#
# Stress axis : x y z
#
# Youngs Moduli (GPa) = 74.14280 65.87510 65.19371
#
# Poissons Ratio (x) = 0.11673 0.17696
# Poissons Ratio (y) = 0.13139 0.47689
# Poissons Ratio (z) = 0.20125 0.48187
#
# Static dielectric constant tensor:
#      x y z
#    x 1.704590 0.000000 0.000000 
#    y 0.000000 1.682580 0.000000 
#    z 0.000000 0.000000 1.738980 
# 
# From -- ./inp_files/26069.got.cif
#   From: 2010.05.17/outbox.cif.g08.bks.cpg/sg43_14_cif.got.tgz:26069.got - 2010.06.03 19:21:55.
