data_PCOD9372750
_publ_section_title
;
Structure prediction by ZEFSAII (Michael W. Deem and Ramdas Pophale) SiO2 
 PCOD9372750
Probable space group: F D D 2
;
_chemical_formula_sum "Si O2"
_cell_formula_units_Z 48
_cell_length_a 22.412870
_cell_length_b 11.991486
_cell_length_c 6.976142
_cell_angle_alpha 90.000000
_cell_angle_beta 90.000000
_cell_angle_gamma 90.000000
_cell_volume 1874.933155
_symmetry_space_group_name_H-M "F D D 2"
_symmetry_group_IT_number 43
_symmetry_cell_setting 'orthorhombic'
loop_
_space_group_symop_operation_xyz
x,y,z
-x,-y,z
1/4-x,1/4+y,1/4+z
1/4+x,1/4-y,1/4+z
x,1/2+y,1/2+z
-x,1/2-y,1/2+z
1/4-x,3/4+y,3/4+z
1/4+x,3/4-y,3/4+z
1/2+x,y,1/2+z
1/2-x,-y,1/2+z
3/4-x,1/4+y,3/4+z
3/4+x,1/4-y,3/4+z
1/2+x,1/2+y,z
1/2-x,1/2-y,z
3/4-x,3/4+y,1/4+z
3/4+x,3/4-y,1/4+z
loop_
_atom_site_type_symbol
_atom_site_label
_atom_site_fract_x
_atom_site_fract_y
_atom_site_fract_z
Si Si1 0.519134 0.650692 0.351660
Si Si2 0.208407 0.876679 0.662430
Si Si3 0.919019 0.513971 0.086744
O O1 0.507961 0.782739 0.346125
O O2 0.462195 0.594477 0.461115
O O3 0.574726 0.604465 0.475045
O O4 0.529779 0.611583 0.136169
O O5 0.195010 0.764076 0.546187
O O6 0.145938 0.940232 0.621191
#
# Coordination Sequence:
#
# PCOD9372750 Si02
#       3
#    16  16  16
#     4  11  26  48  77 113 158 208 266 331 401 474
#     4  12  24  50  79 113 163 208 271 330 397 484
#     4  11  26  49  74 118 155 213 265 325 408 464
#
# _framework density 25.600915000000001
#
# number of rings (size 3 to 8) (size 9 to 14) (size 15 to 20)
#    0.000    0.667    6.667    0.000    0.000    8.000 
#   12.000    0.000    0.000    0.000    0.000    0.000 
#    0.000    0.000    0.000    0.000    0.000    0.000 
#
# Total GULP energy -67115.735530 kJ/mol
# GULP energy per Si atom -5592.977961 kJ/mol
# Density = 2.554265 g / cm^3
# Si number density = 25.600915 Si / 1000 Ang^3
#
#
#
# Elastic Constant Matrix: (Units=GPa)
#
#
# Indices 1 2 3 4 5 6 
#
# 1 94.5238 46.3412 29.6719 0.0000 0.0000 0.0000
# 2 46.3412 148.1438 42.3719 0.0000 0.0000 0.0000
# 3 29.6719 42.3719 232.0555 0.0000 0.0000 0.0000
# 4 0.0000 0.0000 0.0000 51.0616 0.0000 0.0000
# 5 0.0000 0.0000 0.0000 0.0000 17.1058 0.0000
# 6 0.0000 0.0000 0.0000 0.0000 0.0000 33.3705
#
#
#
# Elastic Compliance Matrix: (Units=1/GPa)
#
#
# Indices 1 2 3 4 5 6 
#
# 1 0.012690 -0.003699 -0.000947 0.000000 0.000000 0.000000
# 2 -0.003699 0.008200 -0.001024 0.000000 0.000000 0.000000
# 3 -0.000947 -0.001024 0.004617 0.000000 0.000000 0.000000
# 4 0.000000 0.000000 0.000000 0.019584 0.000000 0.000000
# 5 0.000000 0.000000 0.000000 0.000000 0.058460 0.000000
# 6 0.000000 0.000000 0.000000 0.000000 0.000000 0.029967
#
#
# Mechanical properties :
#
#
# Convention : Reuss Voigt Hill
#
# Bulk Modulus (GPa) = 70.58615 79.05476 74.82045
# Shear Modulus (GPa) = 33.42670 44.06345 38.74507
#
# Velocity S-wave (km/s) = 3.61734 4.15320 3.89450
# Velocity P-wave (km/s) = 6.71405 7.34475 7.03647
#
# Compressibility (1/GPa) = 0.01416709
#
# Stress axis : x y z
#
# Youngs Moduli (GPa) = 78.80220 121.94868 216.56836
#
# Poissons Ratio (x) = 0.45105 0.20515
# Poissons Ratio (y) = 0.29146 0.22185
# Poissons Ratio (z) = 0.07465 0.12492
#
# Static dielectric constant tensor:
#      x y z
#    x 2.089190 0.000000 0.000000 
#    y 0.000000 2.174380 0.000000 
#    z 0.000000 0.000000 1.999490 
# 
# From -- ./inp_files/263.got.cif
#   From: 2010.05.17/outbox.cif.g08.bks.cpg/sg43_1_cif.got.tgz:263.got - 2010.06.03 19:21:55.
