data_PCOD9372427
_publ_section_title
;
Structure prediction by ZEFSAII (Michael W. Deem and Ramdas Pophale) SiO2 
 PCOD9372427
Probable space group: F D D 2
;
_chemical_formula_sum "Si O2"
_cell_formula_units_Z 32
_cell_length_a 8.763616
_cell_length_b 28.077326
_cell_length_c 4.394867
_cell_angle_alpha 90.000000
_cell_angle_beta 90.000000
_cell_angle_gamma 90.000000
_cell_volume 1081.396154
_symmetry_space_group_name_H-M "F D D 2"
_symmetry_group_IT_number 43
_symmetry_cell_setting 'orthorhombic'
loop_
_space_group_symop_operation_xyz
x,y,z
-x,-y,z
1/4-x,1/4+y,1/4+z
1/4+x,1/4-y,1/4+z
x,1/2+y,1/2+z
-x,1/2-y,1/2+z
1/4-x,3/4+y,3/4+z
1/4+x,3/4-y,3/4+z
1/2+x,y,1/2+z
1/2-x,-y,1/2+z
3/4-x,1/4+y,3/4+z
3/4+x,1/4-y,3/4+z
1/2+x,1/2+y,z
1/2-x,1/2-y,z
3/4-x,3/4+y,1/4+z
3/4+x,3/4-y,1/4+z
loop_
_atom_site_type_symbol
_atom_site_label
_atom_site_fract_x
_atom_site_fract_y
_atom_site_fract_z
Si Si1 0.426436 0.408250 0.153240
Si Si2 0.933038 0.220872 0.382108
O O1 0.446351 0.450684 0.399621
O O2 0.330228 0.364974 0.290376
O O3 0.326222 0.428580 0.876453
O O4 0.939000 0.264509 0.628448
#
# Coordination Sequence:
#
# PCOD9372427 Si02
#       2
#    16  16
#     4  11  22  40  65  94 129 176 227 280 337 408
#     4   9  20  40  62  92 132 174 220 278 342 406
#
# _framework density 29.591372
#
# number of rings (size 3 to 8) (size 9 to 14) (size 15 to 20)
#    0.000    2.000    0.000    3.000    0.000    0.000 
#    0.000   37.500    0.000    0.000    0.000    0.000 
#    0.000    0.000    0.000    0.000    0.000    0.000 
#
# Total GULP energy -44606.140089 kJ/mol
# GULP energy per Si atom -5575.767511 kJ/mol
# Density = 2.952402 g / cm^3
# Si number density = 29.591372 Si / 1000 Ang^3
#
#
#
# Elastic Constant Matrix: (Units=GPa)
#
#
# Indices 1 2 3 4 5 6 
#
# 1 84.3387 41.7989 45.4643 -0.0007 -0.0014 0.0006
# 2 41.7989 154.8479 87.7971 -0.0007 -0.0009 0.0004
# 3 45.4643 87.7971 253.0908 -0.0025 -0.0032 0.0016
# 4 -0.0007 -0.0007 -0.0025 98.7761 0.0011 -0.0005
# 5 -0.0014 -0.0009 -0.0032 0.0011 35.8918 -0.0010
# 6 0.0006 0.0004 0.0016 -0.0005 -0.0010 42.0446
#
#
#
# Elastic Compliance Matrix: (Units=1/GPa)
#
#
# Indices 1 2 3 4 5 6 
#
# 1 0.014139 -0.002958 -0.001514 0.000000 0.000000 0.000000
# 2 -0.002958 0.008658 -0.002472 0.000000 0.000000 0.000000
# 3 -0.001514 -0.002472 0.005081 0.000000 0.000000 0.000000
# 4 0.000000 0.000000 0.000000 0.010124 0.000000 0.000000
# 5 0.000000 0.000000 0.000000 0.000000 0.027862 0.000001
# 6 0.000000 0.000000 0.000000 0.000000 0.000001 0.023784
#
#
# Mechanical properties :
#
#
# Convention : Reuss Voigt Hill
#
# Bulk Modulus (GPa) = 71.48143 93.59978 82.54061
# Shear Modulus (GPa) = 46.21110 56.49029 51.35070
#
# Velocity S-wave (km/s) = 3.95605 4.37396 4.17024
# Velocity P-wave (km/s) = 6.71384 7.56361 7.15136
#
# Compressibility (1/GPa) = 0.01398965
#
# Stress axis : x y z
#
# Youngs Moduli (GPa) = 70.72572 115.49774 196.82656
#
# Poissons Ratio (x) = 0.34169 0.29792
# Poissons Ratio (y) = 0.20924 0.48657
# Poissons Ratio (z) = 0.10705 0.28552
#
# Static dielectric constant tensor:
#      x y z
#    x 2.401020 0.000000 0.000000 
#    y 0.000000 2.260110 0.000000 
#    z 0.000000 0.000000 2.194140 
# 
# From -- ./inp_files/64.got.cif
#   From: 2010.05.17/outbox.cif.g08.bks.cpg/sg43_1_cif.got.tgz:64.got - 2010.06.03 19:21:55.
