data_PCOD9372538
_publ_section_title
;
Structure prediction by ZEFSAII (Michael W. Deem and Ramdas Pophale) SiO2 
 PCOD9372538
Probable space group: F D D 2
;
_chemical_formula_sum "Si O2"
_cell_formula_units_Z 96
_cell_length_a 10.502158
_cell_length_b 20.949081
_cell_length_c 19.884255
_cell_angle_alpha 90.000000
_cell_angle_beta 90.000000
_cell_angle_gamma 90.000000
_cell_volume 4374.746050
_symmetry_space_group_name_H-M "F D D 2"
_symmetry_group_IT_number 43
_symmetry_cell_setting 'orthorhombic'
loop_
_space_group_symop_operation_xyz
x,y,z
-x,-y,z
1/4-x,1/4+y,1/4+z
1/4+x,1/4-y,1/4+z
x,1/2+y,1/2+z
-x,1/2-y,1/2+z
1/4-x,3/4+y,3/4+z
1/4+x,3/4-y,3/4+z
1/2+x,y,1/2+z
1/2-x,-y,1/2+z
3/4-x,1/4+y,3/4+z
3/4+x,1/4-y,3/4+z
1/2+x,1/2+y,z
1/2-x,1/2-y,z
3/4-x,3/4+y,1/4+z
3/4+x,3/4-y,1/4+z
loop_
_atom_site_type_symbol
_atom_site_label
_atom_site_fract_x
_atom_site_fract_y
_atom_site_fract_z
Si Si1 0.502423 0.075374 0.457070
Si Si2 0.847254 0.496723 0.069408
Si Si3 0.257794 0.048330 0.712011
Si Si4 0.713477 0.093824 0.944105
Si Si5 0.557928 0.105260 0.317825
Si Si6 0.723744 0.931203 0.303832
O O1 0.364394 0.104212 0.438981
O O2 0.597187 0.093662 0.396142
O O3 0.524255 0.109034 0.527383
O O4 0.500000 0.000000 0.462791
O O5 0.796342 0.465124 0.137888
O O6 0.794015 0.568483 0.061657
O O7 0.000000 0.500000 0.073479
O O8 0.810994 0.454382 0.005051
O O9 0.380988 0.093119 0.705258
O O10 0.158012 0.083845 0.761633
O O11 0.274227 0.980482 0.748750
O O12 0.692360 0.062739 0.870739
O O13 0.429602 0.062495 0.311127
#
# Coordination Sequence:
#
# PCOD9372538 Si02
#       6
#    16  16  16  16  16  16
#     4  11  23  46  72 103 142 190 249 305 373 453
#     4  12  24  46  71 109 149 198 248 311 383 452
#     4  12  25  45  73 108 149 191 249 317 379 455
#     4  11  26  44  68 107 149 188 245 311 379 440
#     4  11  23  43  73 104 140 188 252 302 369 451
#     4  11  24  45  70 104 139 198 245 303 369 452
#
# _framework density 21.944130000000001
#
# number of rings (size 3 to 8) (size 9 to 14) (size 15 to 20)
#    0.000    0.667    3.333    5.500    0.000    2.000 
#    3.000    0.000    0.000    0.000    0.000    0.000 
#    0.000    0.000    0.000    0.000    0.000    0.000 
#
# Total GULP energy -134064.059990 kJ/mol
# GULP energy per Si atom -5586.002500 kJ/mol
# Density = 2.189418 g / cm^3
# Si number density = 21.944130 Si / 1000 Ang^3
#
#
#
# Elastic Constant Matrix: (Units=GPa)
#
#
# Indices 1 2 3 4 5 6 
#
# 1 82.6896 41.7906 35.9134 0.0000 0.0000 0.0000
# 2 41.7906 134.4831 73.4055 0.0000 0.0000 0.0000
# 3 35.9134 73.4055 177.6771 0.0000 0.0000 0.0000
# 4 0.0000 0.0000 0.0000 43.2817 0.0000 0.0000
# 5 0.0000 0.0000 0.0000 0.0000 25.7064 0.0000
# 6 0.0000 0.0000 0.0000 0.0000 0.0000 35.0277
#
#
#
# Elastic Compliance Matrix: (Units=1/GPa)
#
#
# Indices 1 2 3 4 5 6 
#
# 1 0.014608 -0.003780 -0.001391 0.000000 0.000000 0.000000
# 2 -0.003780 0.010579 -0.003607 0.000000 0.000000 0.000000
# 3 -0.001391 -0.003607 0.007399 0.000000 0.000000 0.000000
# 4 0.000000 0.000000 0.000000 0.023104 0.000000 0.000000
# 5 0.000000 0.000000 0.000000 0.000000 0.038901 0.000000
# 6 0.000000 0.000000 0.000000 0.000000 0.000000 0.028549
#
#
# Mechanical properties :
#
#
# Convention : Reuss Voigt Hill
#
# Bulk Modulus (GPa) = 66.52884 77.45209 71.99047
# Shear Modulus (GPa) = 34.31555 37.05250 35.68402
#
# Velocity S-wave (km/s) = 3.95874 4.11359 4.03691
# Velocity P-wave (km/s) = 7.16092 7.61143 7.38961
#
# Compressibility (1/GPa) = 0.01503108
#
# Stress axis : x y z
#
# Youngs Moduli (GPa) = 68.45559 94.52519 135.14680
#
# Poissons Ratio (x) = 0.35733 0.18798
# Poissons Ratio (y) = 0.25878 0.48742
# Poissons Ratio (z) = 0.09522 0.34091
#
# Static dielectric constant tensor:
#      x y z
#    x 1.870520 0.000000 0.000000 
#    y 0.000000 1.787170 0.000000 
#    z 0.000000 0.000000 1.916160 
# 
# From -- ./inp_files/13300.got.cif
#   From: 2010.05.17/outbox.cif.g08.bks.cpg/sg43_7_cif.got.tgz:13300.got - 2010.06.03 19:21:55.
