data_PCOD9372836
_publ_section_title
;
Structure prediction by ZEFSAII (Michael W. Deem and Ramdas Pophale) SiO2 
 PCOD9372836
Probable space group: F D D 2
;
_chemical_formula_sum "Si O2"
_cell_formula_units_Z 64
_cell_length_a 21.406074
_cell_length_b 7.649554
_cell_length_c 15.797762
_cell_angle_alpha 90.000000
_cell_angle_beta 90.000000
_cell_angle_gamma 90.000000
_cell_volume 2586.834854
_symmetry_space_group_name_H-M "F D D 2"
_symmetry_group_IT_number 43
_symmetry_cell_setting 'orthorhombic'
loop_
_space_group_symop_operation_xyz
x,y,z
-x,-y,z
1/4-x,1/4+y,1/4+z
1/4+x,1/4-y,1/4+z
x,1/2+y,1/2+z
-x,1/2-y,1/2+z
1/4-x,3/4+y,3/4+z
1/4+x,3/4-y,3/4+z
1/2+x,y,1/2+z
1/2-x,-y,1/2+z
3/4-x,1/4+y,3/4+z
3/4+x,1/4-y,3/4+z
1/2+x,1/2+y,z
1/2-x,1/2-y,z
3/4-x,3/4+y,1/4+z
3/4+x,3/4-y,1/4+z
loop_
_atom_site_type_symbol
_atom_site_label
_atom_site_fract_x
_atom_site_fract_y
_atom_site_fract_z
Si Si1 0.034847 0.826775 0.309040
Si Si2 0.613863 0.198843 0.165534
Si Si3 0.681700 0.287840 0.813604
Si Si4 0.686025 0.596871 0.951337
O O1 0.097168 0.774680 0.257725
O O2 0.065640 0.885012 0.397503
O O3 0.983246 0.685839 0.280718
O O4 0.000000 0.000000 0.276901
O O5 0.595719 0.360951 0.105714
O O6 0.565747 0.037108 0.158237
O O7 0.750000 0.250000 0.777468
O O8 0.689939 0.441735 0.882952
O O9 0.632177 0.339197 0.743554
#
# Coordination Sequence:
#
# PCOD9372836 Si02
#       4
#    16  16  16  16
#     4  12  24  48  74 105 151 195 249 313 373 452
#     4  12  24  47  73 104 147 199 237 314 380 435
#     4  12  25  46  70 107 144 188 244 309 367 450
#     4  12  26  46  72 104 148 194 246 304 376 447
#
# _framework density 24.740659000000001
#
# number of rings (size 3 to 8) (size 9 to 14) (size 15 to 20)
#    0.000    0.000    7.500    2.250    0.000    2.000 
#    4.500    0.000    0.000    0.000    0.000    0.000 
#    0.000    0.000    0.000    0.000    0.000    0.000 
#
# Total GULP energy -89334.915969 kJ/mol
# GULP energy per Si atom -5583.432248 kJ/mol
# Density = 2.468435 g / cm^3
# Si number density = 24.740659 Si / 1000 Ang^3
#
#
#
# Elastic Constant Matrix: (Units=GPa)
#
#
# Indices 1 2 3 4 5 6 
#
# 1 97.1515 2.6838 29.5212 0.0000 0.0000 0.0000
# 2 2.6838 175.0045 8.4949 0.0000 0.0000 0.0000
# 3 29.5212 8.4949 25.1113 0.0000 0.0000 0.0000
# 4 0.0000 0.0000 0.0000 24.2366 0.0000 0.0000
# 5 0.0000 0.0000 0.0000 0.0000 63.1696 0.0000
# 6 0.0000 0.0000 0.0000 0.0000 0.0000 25.8068
#
#
#
# Elastic Compliance Matrix: (Units=1/GPa)
#
#
# Indices 1 2 3 4 5 6 
#
# 1 0.016094 0.000683 -0.019151 0.000000 0.000000 0.000000
# 2 0.000683 0.005839 -0.002778 0.000000 0.000000 0.000000
# 3 -0.019151 -0.002778 0.063276 0.000000 0.000000 0.000000
# 4 0.000000 0.000000 0.000000 0.041260 0.000000 0.000000
# 5 0.000000 0.000000 0.000000 0.000000 0.015830 0.000000
# 6 0.000000 0.000000 0.000000 0.000000 0.000000 0.038749
#
#
# Mechanical properties :
#
#
# Convention : Reuss Voigt Hill
#
# Bulk Modulus (GPa) = 23.41001 42.07411 32.74206
# Shear Modulus (GPa) = 21.02792 39.74710 30.38751
#
# Velocity S-wave (km/s) = 2.91853 4.01253 3.50843
# Velocity P-wave (km/s) = 4.56506 6.20565 5.44747
#
# Compressibility (1/GPa) = 0.04271676
#
# Stress axis : x y z
#
# Youngs Moduli (GPa) = 62.13622 171.27672 15.80368
#
# Poissons Ratio (x) = -0.11695 0.30265
# Poissons Ratio (y) = -0.04243 0.04390
# Poissons Ratio (z) = 1.18996 0.47578
#
# Static dielectric constant tensor:
#      x y z
#    x 1.996260 0.000000 0.000000 
#    y 0.000000 2.019200 0.000000 
#    z 0.000000 0.000000 1.986890 
# 
# From -- ./inp_files/9002.got.cif
#   From: 2010.05.17/outbox.cif.g08.bks.cpg/sg43_5_cif.got.tgz:9002.got - 2010.06.03 19:21:55.
