data_PCOD9372280
_publ_section_title
;
Structure prediction by ZEFSAII (Michael W. Deem and Ramdas Pophale) SiO2 
 PCOD9372280
Probable space group: F D D 2
;
_chemical_formula_sum "Si O2"
_cell_formula_units_Z 104
_cell_length_a 18.182126
_cell_length_b 25.057906
_cell_length_c 9.642084
_cell_angle_alpha 90.000000
_cell_angle_beta 90.000000
_cell_angle_gamma 90.000000
_cell_volume 4392.991363
_symmetry_space_group_name_H-M "F D D 2"
_symmetry_group_IT_number 43
_symmetry_cell_setting 'orthorhombic'
loop_
_space_group_symop_operation_xyz
x,y,z
-x,-y,z
1/4-x,1/4+y,1/4+z
1/4+x,1/4-y,1/4+z
x,1/2+y,1/2+z
-x,1/2-y,1/2+z
1/4-x,3/4+y,3/4+z
1/4+x,3/4-y,3/4+z
1/2+x,y,1/2+z
1/2-x,-y,1/2+z
3/4-x,1/4+y,3/4+z
3/4+x,1/4-y,3/4+z
1/2+x,1/2+y,z
1/2-x,1/2-y,z
3/4-x,3/4+y,1/4+z
3/4+x,3/4-y,1/4+z
loop_
_atom_site_type_symbol
_atom_site_label
_atom_site_fract_x
_atom_site_fract_y
_atom_site_fract_z
Si Si1 0.367699 0.326534 0.473820
Si Si2 0.895725 0.450353 0.966817
Si Si3 0.124663 0.179053 0.051276
Si Si4 0.305302 0.677565 0.916724
Si Si5 0.413010 0.740017 0.759760
Si Si6 0.186443 0.451824 0.012105
Si Si7 0.750000 0.750000 0.951410
O O1 0.391449 0.387429 0.463798
O O2 0.282196 0.326777 0.427945
O O3 0.413686 0.285771 0.378167
O O4 0.386440 0.314208 0.633044
O O5 0.921381 0.459109 0.807442
O O6 0.822649 0.483511 0.003713
O O7 0.947072 0.469964 0.091792
O O8 0.099499 0.128441 0.143351
O O9 0.082867 0.229992 0.115294
O O10 0.095992 0.173029 0.895680
O O11 0.206851 0.203720 0.036394
O O12 0.335052 0.712070 0.788543
O O13 0.476213 0.695531 0.763842
#
# Coordination Sequence:
#
# PCOD9372280 Si02
#       7
#    16  16  16  16  16  16   8
#     4  12  26  46  79 104 147 207 256 304 393 456
#     4  11  24  47  75  99 146 196 261 299 375 470
#     4  11  26  45  70 108 153 184 254 319 390 440
#     4  12  26  44  76 107 146 199 256 315 372 465
#     4  12  26  44  74 108 149 189 250 312 381 444
#     4  11  26  49  70 108 148 198 250 319 379 466
#     4  10  26  48  72 108 154 200 246 326 388 464
#
# _framework density 23.674074000000001
#
# number of rings (size 3 to 8) (size 9 to 14) (size 15 to 20)
#    0.000    0.615    3.077    4.154    6.462    2.462 
#    0.000    0.000    0.000    0.000    0.000    0.000 
#    0.000    0.000    0.000    0.000    0.000    0.000 
#
# Total GULP energy -145095.419994 kJ/mol
# GULP energy per Si atom -5580.593077 kJ/mol
# Density = 2.362019 g / cm^3
# Si number density = 23.674074 Si / 1000 Ang^3
#
#
#
# Elastic Constant Matrix: (Units=GPa)
#
#
# Indices 1 2 3 4 5 6 
#
# 1 119.4756 15.7741 28.1777 0.0000 0.0000 0.0000
# 2 15.7741 66.4213 20.7169 0.0000 0.0000 0.0000
# 3 28.1777 20.7169 81.1521 0.0000 0.0000 0.0000
# 4 0.0000 0.0000 0.0000 38.3825 0.0000 0.0000
# 5 0.0000 0.0000 0.0000 0.0000 36.5848 0.0000
# 6 0.0000 0.0000 0.0000 0.0000 0.0000 26.6066
#
#
#
# Elastic Compliance Matrix: (Units=1/GPa)
#
#
# Indices 1 2 3 4 5 6 
#
# 1 0.009218 -0.001294 -0.002870 0.000000 0.000000 0.000000
# 2 -0.001294 0.016539 -0.003773 0.000000 0.000000 0.000000
# 3 -0.002870 -0.003773 0.014282 0.000000 0.000000 0.000000
# 4 0.000000 0.000000 0.000000 0.026054 0.000000 0.000000
# 5 0.000000 0.000000 0.000000 0.000000 0.027334 0.000000
# 6 0.000000 0.000000 0.000000 0.000000 0.000000 0.037585
#
#
# Mechanical properties :
#
#
# Convention : Reuss Voigt Hill
#
# Bulk Modulus (GPa) = 41.38173 44.04293 42.71233
# Shear Modulus (GPa) = 32.27036 33.80678 33.03857
#
# Velocity S-wave (km/s) = 3.69604 3.78300 3.73977
# Velocity P-wave (km/s) = 5.97762 6.14212 6.06043
#
# Compressibility (1/GPa) = 0.02416526
#
# Stress axis : x y z
#
# Youngs Moduli (GPa) = 108.48726 60.46136 70.01639
#
# Poissons Ratio (x) = 0.07823 0.20097
# Poissons Ratio (y) = 0.14036 0.26417
# Poissons Ratio (z) = 0.31139 0.22812
#
# Static dielectric constant tensor:
#      x y z
#    x 1.946750 0.000000 0.000000 
#    y 0.000000 1.823710 0.000000 
#    z 0.000000 0.000000 1.931390 
# 
# From -- ./inp_files/3365.got.cif
#   From: 2010.05.17/outbox.cif.g08.bks.cpg/sg43_2_cif.got.tgz:3365.got - 2010.06.03 19:21:55.
