data_PCOD9372183
_publ_section_title
;
Structure prediction by ZEFSAII (Michael W. Deem and Ramdas Pophale) SiO2 
 PCOD9372183
Probable space group: F D D 2
;
_chemical_formula_sum "Si O2"
_cell_formula_units_Z 120
_cell_length_a 16.951240
_cell_length_b 22.303574
_cell_length_c 14.225895
_cell_angle_alpha 90.000000
_cell_angle_beta 90.000000
_cell_angle_gamma 90.000000
_cell_volume 5378.430154
_symmetry_space_group_name_H-M "F D D 2"
_symmetry_group_IT_number 43
_symmetry_cell_setting 'orthorhombic'
loop_
_space_group_symop_operation_xyz
x,y,z
-x,-y,z
1/4-x,1/4+y,1/4+z
1/4+x,1/4-y,1/4+z
x,1/2+y,1/2+z
-x,1/2-y,1/2+z
1/4-x,3/4+y,3/4+z
1/4+x,3/4-y,3/4+z
1/2+x,y,1/2+z
1/2-x,-y,1/2+z
3/4-x,1/4+y,3/4+z
3/4+x,1/4-y,3/4+z
1/2+x,1/2+y,z
1/2-x,1/2-y,z
3/4-x,3/4+y,1/4+z
3/4+x,3/4-y,1/4+z
loop_
_atom_site_type_symbol
_atom_site_label
_atom_site_fract_x
_atom_site_fract_y
_atom_site_fract_z
Si Si1 0.169099 0.722156 0.550560
Si Si2 0.306096 0.300953 0.381761
Si Si3 0.759970 0.358224 0.393489
Si Si4 0.750000 0.750000 0.747381
Si Si5 0.007316 0.682274 0.630088
Si Si6 0.853265 0.733945 0.570945
Si Si7 0.531395 0.650213 0.325661
Si Si8 0.898450 0.158897 0.478680
O O1 0.250000 0.750000 0.593375
O O2 0.196126 0.668321 0.483790
O O3 0.134473 0.773584 0.482059
O O4 0.097588 0.700397 0.615142
O O5 0.250000 0.250000 0.342534
O O6 0.261001 0.362756 0.359230
O O7 0.325890 0.279643 0.489819
O O8 0.392484 0.309342 0.341545
O O9 0.743142 0.306517 0.315892
O O10 0.820987 0.398584 0.334993
O O11 0.675026 0.378689 0.434548
O O12 0.821975 0.753260 0.673316
O O13 0.946991 0.723963 0.573554
O O14 0.985664 0.680521 0.739861
O O15 0.815593 0.666914 0.555741
O O16 0.473713 0.649328 0.413376
#
# Coordination Sequence:
#
# PCOD9372183 Si02
#       8
#    16  16  16   8  16  16  16  16
#     4  10  24  50  66  92 141 181 233 297 336 419
#     4  11  23  43  64  97 142 179 223 288 350 412
#     4  11  24  42  71  98 135 185 225 295 349 416
#     4  12  18  40  72  94 134 178 220 286 358 398
#     4  11  24  43  68 100 134 185 235 284 358 421
#     4  11  22  39  67 101 138 176 228 297 348 412
#     4  11  23  38  66  97 137 178 228 290 346 427
#     4  11  23  44  69 102 133 174 241 286 354 418
#
# _framework density 22.311343000000001
#
# number of rings (size 3 to 8) (size 9 to 14) (size 15 to 20)
#    0.000    1.067    5.333    1.600    1.867    1.600 
#   12.000    0.000    0.000    0.000    0.000    0.000 
#    0.000    0.000    0.000    0.000    0.000    0.000 
#
# Total GULP energy -167415.456672 kJ/mol
# GULP energy per Si atom -5580.515222 kJ/mol
# Density = 2.226056 g / cm^3
# Si number density = 22.311343 Si / 1000 Ang^3
#
#
#
# Elastic Constant Matrix: (Units=GPa)
#
#
# Indices 1 2 3 4 5 6 
#
# 1 147.6037 43.0446 15.4844 0.0000 0.0000 0.0000
# 2 43.0446 45.7733 10.0190 0.0000 0.0000 0.0000
# 3 15.4844 10.0190 50.3104 0.0000 0.0000 0.0000
# 4 0.0000 0.0000 0.0000 27.5483 0.0000 0.0000
# 5 0.0000 0.0000 0.0000 0.0000 33.2338 0.0000
# 6 0.0000 0.0000 0.0000 0.0000 0.0000 35.8927
#
#
#
# Elastic Compliance Matrix: (Units=1/GPa)
#
#
# Indices 1 2 3 4 5 6 
#
# 1 0.009402 -0.008582 -0.001185 0.000000 0.000000 0.000000
# 2 -0.008582 0.030676 -0.003468 0.000000 0.000000 0.000000
# 3 -0.001185 -0.003468 0.020932 0.000000 0.000000 0.000000
# 4 0.000000 0.000000 0.000000 0.036300 0.000000 0.000000
# 5 0.000000 0.000000 0.000000 0.000000 0.030090 0.000000
# 6 0.000000 0.000000 0.000000 0.000000 0.000000 0.027861
#
#
# Mechanical properties :
#
#
# Convention : Reuss Voigt Hill
#
# Bulk Modulus (GPa) = 28.95086 42.30927 35.63006
# Shear Modulus (GPa) = 25.87415 31.01091 28.44253
#
# Velocity S-wave (km/s) = 3.40911 3.73220 3.57431
# Velocity P-wave (km/s) = 5.33855 6.12999 5.74790
#
# Compressibility (1/GPa) = 0.03454129
#
# Stress axis : x y z
#
# Youngs Moduli (GPa) = 106.36129 32.59843 47.77431
#
# Poissons Ratio (x) = 0.27976 0.05659
# Poissons Ratio (y) = 0.91281 0.16566
# Poissons Ratio (z) = 0.12600 0.11304
#
# Static dielectric constant tensor:
#      x y z
#    x 1.847960 0.000000 0.000000 
#    y 0.000000 1.871900 0.000000 
#    z 0.000000 0.000000 1.826250 
# 
# From -- ./inp_files/10705.got.cif
#   From: 2010.05.17/outbox.cif.g08.bks.cpg/sg43_6_cif.got.tgz:10705.got - 2010.06.03 19:21:55.
