data_PCOD9372692
_publ_section_title
;
Structure prediction by ZEFSAII (Michael W. Deem and Ramdas Pophale) SiO2 
 PCOD9372692
Probable space group: F D D 2
;
_chemical_formula_sum "Si O2"
_cell_formula_units_Z 120
_cell_length_a 12.164411
_cell_length_b 25.818394
_cell_length_c 16.676313
_cell_angle_alpha 90.000000
_cell_angle_beta 90.000000
_cell_angle_gamma 90.000000
_cell_volume 5237.455514
_symmetry_space_group_name_H-M "F D D 2"
_symmetry_group_IT_number 43
_symmetry_cell_setting 'orthorhombic'
loop_
_space_group_symop_operation_xyz
x,y,z
-x,-y,z
1/4-x,1/4+y,1/4+z
1/4+x,1/4-y,1/4+z
x,1/2+y,1/2+z
-x,1/2-y,1/2+z
1/4-x,3/4+y,3/4+z
1/4+x,3/4-y,3/4+z
1/2+x,y,1/2+z
1/2-x,-y,1/2+z
3/4-x,1/4+y,3/4+z
3/4+x,1/4-y,3/4+z
1/2+x,1/2+y,z
1/2-x,1/2-y,z
3/4-x,3/4+y,1/4+z
3/4+x,3/4-y,1/4+z
loop_
_atom_site_type_symbol
_atom_site_label
_atom_site_fract_x
_atom_site_fract_y
_atom_site_fract_z
Si Si1 0.876071 0.509990 0.587260
Si Si2 0.209606 0.825854 0.482746
Si Si3 0.042223 0.695578 0.264982
Si Si4 0.500000 0.000000 0.091367
Si Si5 0.065479 0.450941 0.764433
Si Si6 0.554096 0.667036 0.052205
Si Si7 0.474102 0.219429 0.092001
Si Si8 0.850835 0.107907 0.985510
O O1 0.797378 0.459727 0.583823
O O2 0.893261 0.530153 0.677289
O O3 0.824463 0.556235 0.535354
O O4 0.000000 0.500000 0.556107
O O5 0.180710 0.886133 0.495021
O O6 0.196953 0.794214 0.399883
O O7 0.339611 0.825208 0.498035
O O8 0.139175 0.796900 0.551006
O O9 0.153698 0.724862 0.288328
O O10 0.977794 0.716006 0.186811
O O11 0.174022 0.435250 0.812128
O O12 0.000000 0.500000 0.801114
O O13 0.984123 0.403222 0.755914
O O14 0.498702 0.722832 0.062921
O O15 0.470403 0.626603 0.014415
O O16 0.593688 0.651561 0.140920
#
# Coordination Sequence:
#
# PCOD9372692 Si02
#       8
#    16  16  16   8  16  16  16  16
#     4  11  25  44  71 111 145 190 250 313 377 460
#     4  12  28  50  76 109 152 201 252 312 390 463
#     4  12  29  47  77 109 152 198 255 312 385 463
#     4  12  28  52  76 114 156 204 252 320 392 466
#     4  11  25  44  73 106 147 196 251 308 386 454
#     4  12  26  45  76 111 148 195 254 312 381 451
#     4  12  26  49  73 106 151 196 250 313 371 461
#     4  12  25  45  76 109 148 198 249 318 384 456
#
# _framework density 22.911888000000001
#
# number of rings (size 3 to 8) (size 9 to 14) (size 15 to 20)
#    0.000    0.267    5.333    2.400    8.400    3.200 
#    0.000    0.000    0.000    0.000    0.000    0.000 
#    0.000    0.000    0.000    0.000    0.000    0.000 
#
# Total GULP energy -167932.239020 kJ/mol
# GULP energy per Si atom -5597.741301 kJ/mol
# Density = 2.285974 g / cm^3
# Si number density = 22.911888 Si / 1000 Ang^3
#
#
#
# Elastic Constant Matrix: (Units=GPa)
#
#
# Indices 1 2 3 4 5 6 
#
# 1 58.7529 13.3520 21.9255 0.0000 0.0000 0.0000
# 2 13.3520 116.2012 14.9313 0.0000 0.0000 0.0000
# 3 21.9255 14.9313 55.6867 0.0000 0.0000 0.0000
# 4 0.0000 0.0000 0.0000 33.6250 0.0000 0.0000
# 5 0.0000 0.0000 0.0000 0.0000 34.4660 0.0000
# 6 0.0000 0.0000 0.0000 0.0000 0.0000 42.5666
#
#
#
# Elastic Compliance Matrix: (Units=1/GPa)
#
#
# Indices 1 2 3 4 5 6 
#
# 1 0.020152 -0.001342 -0.007575 0.000000 0.000000 0.000000
# 2 -0.001342 0.009002 -0.001885 0.000000 0.000000 0.000000
# 3 -0.007575 -0.001885 0.021445 0.000000 0.000000 0.000000
# 4 0.000000 0.000000 0.000000 0.029740 0.000000 0.000000
# 5 0.000000 0.000000 0.000000 0.000000 0.029014 0.000000
# 6 0.000000 0.000000 0.000000 0.000000 0.000000 0.023493
#
#
# Mechanical properties :
#
#
# Convention : Reuss Voigt Hill
#
# Bulk Modulus (GPa) = 34.48802 36.78425 35.63613
# Shear Modulus (GPa) = 30.46629 34.16032 32.31330
#
# Velocity S-wave (km/s) = 3.65048 3.86546 3.75951
# Velocity P-wave (km/s) = 5.73177 6.00099 5.86792
#
# Compressibility (1/GPa) = 0.02899558
#
# Stress axis : x y z
#
# Youngs Moduli (GPa) = 49.62246 111.08346 46.62993
#
# Poissons Ratio (x) = 0.14910 0.35320
# Poissons Ratio (y) = 0.06661 0.08791
# Poissons Ratio (z) = 0.37587 0.20942
#
# Static dielectric constant tensor:
#      x y z
#    x 1.824530 0.000000 0.000000 
#    y 0.000000 1.899820 0.000000 
#    z 0.000000 0.000000 1.883100 
# 
# From -- ./inp_files/13459.got.cif
#   From: 2010.05.17/outbox.cif.g08.bks.cpg/sg43_7_cif.got.tgz:13459.got - 2010.06.03 19:21:55.
