data_PCOD9372101
_publ_section_title
;
Structure prediction by ZEFSAII (Michael W. Deem and Ramdas Pophale) SiO2 
 PCOD9372101
Probable space group: F D D 2
;
_chemical_formula_sum "Si O2"
_cell_formula_units_Z 64
_cell_length_a 14.589262
_cell_length_b 7.201780
_cell_length_c 26.701093
_cell_angle_alpha 90.000000
_cell_angle_beta 90.000000
_cell_angle_gamma 90.000000
_cell_volume 2805.447936
_symmetry_space_group_name_H-M "F D D 2"
_symmetry_group_IT_number 43
_symmetry_cell_setting 'orthorhombic'
loop_
_space_group_symop_operation_xyz
x,y,z
-x,-y,z
1/4-x,1/4+y,1/4+z
1/4+x,1/4-y,1/4+z
x,1/2+y,1/2+z
-x,1/2-y,1/2+z
1/4-x,3/4+y,3/4+z
1/4+x,3/4-y,3/4+z
1/2+x,y,1/2+z
1/2-x,-y,1/2+z
3/4-x,1/4+y,3/4+z
3/4+x,1/4-y,3/4+z
1/2+x,1/2+y,z
1/2-x,1/2-y,z
3/4-x,3/4+y,1/4+z
3/4+x,3/4-y,1/4+z
loop_
_atom_site_type_symbol
_atom_site_label
_atom_site_fract_x
_atom_site_fract_y
_atom_site_fract_z
Si Si1 0.986094 0.278753 0.774900
Si Si2 0.645530 0.184263 0.866052
Si Si3 0.853027 0.261422 0.687939
Si Si4 0.356862 0.246207 0.844541
O O1 0.917582 0.244048 0.821098
O O2 0.934350 0.210329 0.725767
O O3 0.000000 0.500000 0.768464
O O4 0.083384 0.210223 0.795323
O O5 0.750000 0.250000 0.857528
O O6 0.616539 0.279160 0.917832
O O7 0.629446 0.964202 0.864365
O O8 0.750000 0.250000 0.709129
O O9 0.864299 0.133668 0.638940
O O10 0.250000 0.250000 0.832825
#
# Coordination Sequence:
#
# PCOD9372101 Si02
#       4
#    16  16  16  16
#     4  10  24  45  71 108 148 190 246 306 367 437
#     4  11  22  44  72 100 148 187 233 309 359 436
#     4  12  24  46  76 108 140 198 249 302 376 440
#     4  11  24  46  72 107 148 191 243 310 369 436
#
# _framework density 22.812756
#
# number of rings (size 3 to 8) (size 9 to 14) (size 15 to 20)
#    0.000    1.000    5.000    1.500    0.000    0.000 
#    4.500    0.000    0.000    0.000    0.000    0.000 
#    0.000    0.000    0.000    0.000    0.000    0.000 
#
# Total GULP energy -89500.971130 kJ/mol
# GULP energy per Si atom -5593.810696 kJ/mol
# Density = 2.276083 g / cm^3
# Si number density = 22.812756 Si / 1000 Ang^3
#
#
#
# Elastic Constant Matrix: (Units=GPa)
#
#
# Indices 1 2 3 4 5 6 
#
# 1 137.2027 25.8660 44.1827 0.0000 0.0000 0.0000
# 2 25.8660 91.8375 30.8868 0.0000 0.0000 0.0000
# 3 44.1827 30.8868 106.5922 0.0000 0.0000 0.0000
# 4 0.0000 0.0000 0.0000 20.4769 0.0000 0.0000
# 5 0.0000 0.0000 0.0000 0.0000 37.3710 0.0000
# 6 0.0000 0.0000 0.0000 0.0000 0.0000 18.7295
#
#
#
# Elastic Compliance Matrix: (Units=1/GPa)
#
#
# Indices 1 2 3 4 5 6 
#
# 1 0.008559 -0.001349 -0.003157 0.000000 0.000000 0.000000
# 2 -0.001349 0.012277 -0.002998 0.000000 0.000000 0.000000
# 3 -0.003157 -0.002998 0.011559 0.000000 0.000000 0.000000
# 4 0.000000 0.000000 0.000000 0.048835 0.000000 0.000000
# 5 0.000000 0.000000 0.000000 0.000000 0.026759 0.000000
# 6 0.000000 0.000000 0.000000 0.000000 0.000000 0.053392
#
#
# Mechanical properties :
#
#
# Convention : Reuss Voigt Hill
#
# Bulk Modulus (GPa) = 57.51475 59.72261 58.61868
# Shear Modulus (GPa) = 27.44454 30.96195 29.20324
#
# Velocity S-wave (km/s) = 3.47224 3.68804 3.58177
# Velocity P-wave (km/s) = 6.42975 6.66122 6.54651
#
# Compressibility (1/GPa) = 0.01738684
#
# Stress axis : x y z
#
# Youngs Moduli (GPa) = 116.83001 81.45214 86.51300
#
# Poissons Ratio (x) = 0.10988 0.27312
# Poissons Ratio (y) = 0.15760 0.25940
# Poissons Ratio (z) = 0.36883 0.24422
#
# Static dielectric constant tensor:
#      x y z
#    x 1.875970 0.000000 0.000000 
#    y 0.000000 1.893140 0.000000 
#    z 0.000000 0.000000 1.810340 
# 
# From -- ./inp_files/19940.got.cif
#   From: 2010.05.17/outbox.cif.g08.bks.cpg/sg43_10_cif.got.tgz:19940.got - 2010.06.03 19:21:55.
