data_PCOD9372704
_publ_section_title
;
Structure prediction by ZEFSAII (Michael W. Deem and Ramdas Pophale) SiO2 
 PCOD9372704
Probable space group: F D D 2
;
_chemical_formula_sum "Si O2"
_cell_formula_units_Z 72
_cell_length_a 12.194350
_cell_length_b 21.187603
_cell_length_c 12.490924
_cell_angle_alpha 90.000000
_cell_angle_beta 90.000000
_cell_angle_gamma 90.000000
_cell_volume 3227.268126
_symmetry_space_group_name_H-M "F D D 2"
_symmetry_group_IT_number 43
_symmetry_cell_setting 'orthorhombic'
loop_
_space_group_symop_operation_xyz
x,y,z
-x,-y,z
1/4-x,1/4+y,1/4+z
1/4+x,1/4-y,1/4+z
x,1/2+y,1/2+z
-x,1/2-y,1/2+z
1/4-x,3/4+y,3/4+z
1/4+x,3/4-y,3/4+z
1/2+x,y,1/2+z
1/2-x,-y,1/2+z
3/4-x,1/4+y,3/4+z
3/4+x,1/4-y,3/4+z
1/2+x,1/2+y,z
1/2-x,1/2-y,z
3/4-x,3/4+y,1/4+z
3/4+x,3/4-y,1/4+z
loop_
_atom_site_type_symbol
_atom_site_label
_atom_site_fract_x
_atom_site_fract_y
_atom_site_fract_z
Si Si1 0.712438 0.821701 0.528960
Si Si2 0.500000 0.000000 0.393171
Si Si3 0.037562 0.928299 0.507381
Si Si4 0.497696 0.612887 0.046403
Si Si5 0.997696 0.887113 0.739938
O O1 0.750000 0.750000 0.527999
O O2 0.750000 0.849556 0.643171
O O3 0.760193 0.852596 0.422731
O O4 0.581473 0.829412 0.519099
O O5 0.454116 0.051832 0.479032
O O6 0.545884 0.051832 0.307309
O O7 0.168527 0.920588 0.517242
O O8 0.989807 0.897404 0.613610
O O9 0.000000 0.000000 0.508342
O O10 0.625000 0.625000 0.018170
#
# Coordination Sequence:
#
# PCOD9372704 Si02
#       5
#    16   8  16  16  16
#     4  11  25  46  70 106 143 183 235 303 361 417
#     4  12  24  40  74 104 138 188 240 288 344 436
#     4  11  25  46  70 106 143 183 235 303 361 417
#     4  12  24  48  71 103 140 191 241 288 356 437
#     4  12  24  48  71 103 140 191 241 288 356 437
#
# _framework density 22.309891
#
# number of rings (size 3 to 8) (size 9 to 14) (size 15 to 20)
#    0.000    0.444    6.667    1.333    0.000    3.556 
#    8.000    0.000    0.000    0.000    0.000    0.000 
#    0.000    0.000    0.000    0.000    0.000    0.000 
#
# Total GULP energy -100312.144240 kJ/mol
# GULP energy per Si atom -5572.896902 kJ/mol
# Density = 2.225911 g / cm^3
# Si number density = 22.309891 Si / 1000 Ang^3
#
#
#
# Elastic Constant Matrix: (Units=GPa)
#
#
# Indices 1 2 3 4 5 6 
#
# 1 150.5744 64.2476 19.5376 0.0000 0.0000 0.0000
# 2 64.2476 95.7133 29.5329 0.0000 0.0000 0.0000
# 3 19.5376 29.5329 197.9431 0.0000 0.0000 0.0000
# 4 0.0000 0.0000 0.0000 35.9548 0.0000 0.0000
# 5 0.0000 0.0000 0.0000 0.0000 8.3816 0.0000
# 6 0.0000 0.0000 0.0000 0.0000 0.0000 41.6904
#
#
#
# Elastic Compliance Matrix: (Units=1/GPa)
#
#
# Indices 1 2 3 4 5 6 
#
# 1 0.009307 -0.006252 0.000014 0.000000 0.000000 0.000000
# 2 -0.006252 0.015151 -0.001644 0.000000 0.000000 0.000000
# 3 0.000014 -0.001644 0.005296 0.000000 0.000000 0.000000
# 4 0.000000 0.000000 0.000000 0.027813 0.000000 0.000000
# 5 0.000000 0.000000 0.000000 0.000000 0.119309 0.000000
# 6 0.000000 0.000000 0.000000 0.000000 0.000000 0.023986
#
#
# Mechanical properties :
#
#
# Convention : Reuss Voigt Hill
#
# Bulk Modulus (GPa) = 71.46933 74.54079 73.00506
# Shear Modulus (GPa) = 22.59497 39.26621 30.93059
#
# Velocity S-wave (km/s) = 3.18587 4.19983 3.72749
# Velocity P-wave (km/s) = 6.75554 7.54998 7.16378
#
# Compressibility (1/GPa) = 0.01399202
#
# Stress axis : x y z
#
# Youngs Moduli (GPa) = 107.44771 66.00061 188.82977
#
# Poissons Ratio (x) = 0.41261 -0.00267
# Poissons Ratio (y) = 0.67172 0.31035
# Poissons Ratio (z) = -0.00152 0.10847
#
# Static dielectric constant tensor:
#      x y z
#    x 1.863480 0.000000 0.000000 
#    y 0.000000 1.794110 0.000000 
#    z 0.000000 0.000000 1.895340 
# 
# From -- ./inp_files/5631.got.cif
#   From: 2010.05.17/outbox.cif.g08.bks.cpg/sg43_3_cif.got.tgz:5631.got - 2010.06.03 19:21:55.
