data_PCOD9372723
_publ_section_title
;
Structure prediction by ZEFSAII (Michael W. Deem and Ramdas Pophale) SiO2 
 PCOD9372723
Probable space group: F D D 2
;
_chemical_formula_sum "Si O2"
_cell_formula_units_Z 64
_cell_length_a 14.066369
_cell_length_b 20.857217
_cell_length_c 10.194465
_cell_angle_alpha 90.000000
_cell_angle_beta 90.000000
_cell_angle_gamma 90.000000
_cell_volume 2990.906281
_symmetry_space_group_name_H-M "F D D 2"
_symmetry_group_IT_number 43
_symmetry_cell_setting 'orthorhombic'
loop_
_space_group_symop_operation_xyz
x,y,z
-x,-y,z
1/4-x,1/4+y,1/4+z
1/4+x,1/4-y,1/4+z
x,1/2+y,1/2+z
-x,1/2-y,1/2+z
1/4-x,3/4+y,3/4+z
1/4+x,3/4-y,3/4+z
1/2+x,y,1/2+z
1/2-x,-y,1/2+z
3/4-x,1/4+y,3/4+z
3/4+x,1/4-y,3/4+z
1/2+x,1/2+y,z
1/2-x,1/2-y,z
3/4-x,3/4+y,1/4+z
3/4+x,3/4-y,1/4+z
loop_
_atom_site_type_symbol
_atom_site_label
_atom_site_fract_x
_atom_site_fract_y
_atom_site_fract_z
Si Si1 0.793120 0.619643 0.621190
Si Si2 0.000000 0.500000 0.424778
Si Si3 0.500000 0.500000 0.496533
Si Si4 0.416411 0.749584 0.460238
Si Si5 0.748863 0.121347 0.840756
O O1 0.746764 0.686766 0.658928
O O2 0.736127 0.560397 0.683168
O O3 0.816806 0.614069 0.466415
O O4 0.900401 0.627348 0.672237
O O5 0.907010 0.494598 0.331877
O O6 0.007457 0.562121 0.516223
O O7 0.594151 0.496341 0.587493
O O8 0.479579 0.812399 0.493151
#
# Coordination Sequence:
#
# PCOD9372723 Si02
#       5
#    16   8   8  16  16
#     4  12  26  45  71 104 137 177 228 285 340 407
#     4  11  25  48  70  98 141 181 228 278 338 415
#     4  11  25  48  70  98 141 181 228 278 338 415
#     4  11  26  46  69 102 138 184 223 278 348 405
#     4  12  26  45  71 104 137 177 228 285 340 407
#
# _framework density 21.398195999999999
#
# number of rings (size 3 to 8) (size 9 to 14) (size 15 to 20)
#    0.000    0.500    5.000    2.250    7.000    0.000 
#    9.000    0.000    0.000    0.000    0.000    0.000 
#    0.000    0.000    0.000    0.000    0.000    0.000 
#
# Total GULP energy -89271.917580 kJ/mol
# GULP energy per Si atom -5579.494849 kJ/mol
# Density = 2.134949 g / cm^3
# Si number density = 21.398196 Si / 1000 Ang^3
#
#
#
# Elastic Constant Matrix: (Units=GPa)
#
#
# Indices 1 2 3 4 5 6 
#
# 1 93.2410 56.5265 9.8568 0.0000 0.0000 0.0000
# 2 56.5265 235.1781 80.9366 0.0000 0.0000 0.0000
# 3 9.8568 80.9366 98.4722 0.0000 0.0000 0.0000
# 4 0.0000 0.0000 0.0000 40.1327 0.0000 0.0000
# 5 0.0000 0.0000 0.0000 0.0000 3.0228 0.0000
# 6 0.0000 0.0000 0.0000 0.0000 0.0000 39.8203
#
#
#
# Elastic Compliance Matrix: (Units=1/GPa)
#
#
# Indices 1 2 3 4 5 6 
#
# 1 0.012763 -0.003665 0.001734 0.000000 0.000000 0.000000
# 2 -0.003665 0.006981 -0.005371 0.000000 0.000000 0.000000
# 3 0.001734 -0.005371 0.014396 0.000000 0.000000 0.000000
# 4 0.000000 0.000000 0.000000 0.024917 0.000000 0.000000
# 5 0.000000 0.000000 0.000000 0.000000 0.330823 0.000000
# 6 0.000000 0.000000 0.000000 0.000000 0.000000 0.025113
#
#
# Mechanical properties :
#
#
# Convention : Reuss Voigt Hill
#
# Bulk Modulus (GPa) = 51.18236 80.17012 65.67624
# Shear Modulus (GPa) = 11.46500 35.23325 23.34913
#
# Velocity S-wave (km/s) = 2.31723 4.06218 3.30687
# Velocity P-wave (km/s) = 5.57946 7.71679 6.73347
#
# Compressibility (1/GPa) = 0.01953798
#
# Stress axis : x y z
#
# Youngs Moduli (GPa) = 78.35026 143.23572 69.46157
#
# Poissons Ratio (x) = 0.52491 -0.12048
# Poissons Ratio (y) = 0.28713 0.37311
# Poissons Ratio (z) = -0.13590 0.76938
#
# Static dielectric constant tensor:
#      x y z
#    x 1.797060 0.000000 0.000000 
#    y 0.000000 1.711600 0.000000 
#    z 0.000000 0.000000 1.756030 
# 
# From -- ./inp_files/2276.got.cif
#   From: 2010.05.17/outbox.cif.g08.bks.cpg/sg43_2_cif.got.tgz:2276.got - 2010.06.03 19:21:55.
