data_PCOD9372543
_publ_section_title
;
Structure prediction by ZEFSAII (Michael W. Deem and Ramdas Pophale) SiO2 
 PCOD9372543
Probable space group: F D D 2
;
_chemical_formula_sum "Si O2"
_cell_formula_units_Z 88
_cell_length_a 12.575980
_cell_length_b 24.086968
_cell_length_c 14.062000
_cell_angle_alpha 90.000000
_cell_angle_beta 90.000000
_cell_angle_gamma 90.000000
_cell_volume 4259.622058
_symmetry_space_group_name_H-M "F D D 2"
_symmetry_group_IT_number 43
_symmetry_cell_setting 'orthorhombic'
loop_
_space_group_symop_operation_xyz
x,y,z
-x,-y,z
1/4-x,1/4+y,1/4+z
1/4+x,1/4-y,1/4+z
x,1/2+y,1/2+z
-x,1/2-y,1/2+z
1/4-x,3/4+y,3/4+z
1/4+x,3/4-y,3/4+z
1/2+x,y,1/2+z
1/2-x,-y,1/2+z
3/4-x,1/4+y,3/4+z
3/4+x,1/4-y,3/4+z
1/2+x,1/2+y,z
1/2-x,1/2-y,z
3/4-x,3/4+y,1/4+z
3/4+x,3/4-y,1/4+z
loop_
_atom_site_type_symbol
_atom_site_label
_atom_site_fract_x
_atom_site_fract_y
_atom_site_fract_z
Si Si1 0.874650 0.753597 0.480370
Si Si2 0.208845 0.354309 0.015531
Si Si3 0.894035 0.962178 0.417938
Si Si4 0.000000 0.500000 0.390265
Si Si5 0.796882 0.477313 0.525113
Si Si6 0.036267 0.631759 0.053735
O O1 0.750000 0.750000 0.456393
O O2 0.894558 0.706222 0.559263
O O3 0.936386 0.748272 0.382420
O O4 0.906303 0.809394 0.537664
O O5 0.261912 0.303063 0.070386
O O6 0.272639 0.411617 0.028935
O O7 0.089754 0.359574 0.055079
O O8 0.190942 0.349991 0.902020
O O9 0.926808 0.905346 0.466198
O O10 0.804013 0.992464 0.478770
O O11 0.000000 0.000000 0.416806
O O12 0.898457 0.490364 0.458628
#
# Coordination Sequence:
#
# PCOD9372543 Si02
#       6
#    16  16  16   8  16  16
#     4  11  24  45  70 103 150 189 234 297 358 439
#     4  12  25  46  74 106 145 186 243 307 361 443
#     4  11  23  43  74 105 137 187 242 297 349 425
#     4  12  28  48  70 108 154 192 240 304 384 438
#     4  12  25  48  73 108 147 189 246 297 372 442
#     4  12  24  45  73 109 141 188 247 296 363 434
#
# _framework density 20.659109999999998
#
# number of rings (size 3 to 8) (size 9 to 14) (size 15 to 20)
#    0.000    0.364    6.364    2.182    1.273    5.818 
#    0.000    0.000    0.000    0.000    0.000    0.000 
#    0.000    0.000    0.000    0.000    0.000    0.000 
#
# Total GULP energy -122992.296479 kJ/mol
# GULP energy per Si atom -5590.558931 kJ/mol
# Density = 2.061209 g / cm^3
# Si number density = 20.659110 Si / 1000 Ang^3
#
#
#
# Elastic Constant Matrix: (Units=GPa)
#
#
# Indices 1 2 3 4 5 6 
#
# 1 121.0738 39.5702 38.4545 0.0000 0.0000 0.0000
# 2 39.5702 90.6821 22.3990 0.0000 0.0000 0.0000
# 3 38.4545 22.3990 150.0322 0.0000 0.0000 0.0000
# 4 0.0000 0.0000 0.0000 32.2320 0.0000 0.0000
# 5 0.0000 0.0000 0.0000 0.0000 -29.2443 0.0000
# 6 0.0000 0.0000 0.0000 0.0000 0.0000 28.9612
#
#
#
# Elastic Compliance Matrix: (Units=1/GPa)
#
#
# Indices 1 2 3 4 5 6 
#
# 1 0.010192 -0.003948 -0.002023 0.000000 0.000000 0.000000
# 2 -0.003948 0.012979 -0.000926 0.000000 0.000000 0.000000
# 3 -0.002023 -0.000926 0.007322 0.000000 0.000000 0.000000
# 4 0.000000 0.000000 0.000000 0.031025 0.000000 0.000000
# 5 0.000000 0.000000 0.000000 0.000000 -0.034195 0.000000
# 6 0.000000 0.000000 0.000000 0.000000 0.000000 0.034529
#
#
# Mechanical properties :
#
#
# Convention : Reuss Voigt Hill
#
# Bulk Modulus (GPa) = 59.88072 62.51507 61.19789
# Shear Modulus (GPa) = 61.56717 23.81408 42.69062
#
# Velocity S-wave (km/s) = 5.46499 3.39885 4.55073
# Velocity P-wave (km/s) = 8.29877 6.76231 7.56963
#
# Compressibility (1/GPa) = 0.01669987
#
# Stress axis : x y z
#
# Youngs Moduli (GPa) = 98.11437 77.04816 136.57546
#
# Poissons Ratio (x) = 0.30417 0.27629
# Poissons Ratio (y) = 0.38734 0.12645
# Poissons Ratio (z) = 0.19848 0.07133
#
# Static dielectric constant tensor:
#      x y z
#    x 1.775810 0.000000 0.000000 
#    y 0.000000 1.725720 0.000000 
#    z 0.000000 0.000000 1.774400 
# 
# From -- ./inp_files/6131.got.cif
#   From: 2010.05.17/outbox.cif.g08.bks.cpg/sg43_4_cif.got.tgz:6131.got - 2010.06.03 19:21:55.
