data_PCOD9372000
_publ_section_title
;
Structure prediction by ZEFSAII (Michael W. Deem and Ramdas Pophale) SiO2 
 PCOD9372000
Probable space group: F D D 2
;
_chemical_formula_sum "Si O2"
_cell_formula_units_Z 120
_cell_length_a 9.472658
_cell_length_b 21.983937
_cell_length_c 25.616749
_cell_angle_alpha 90.000000
_cell_angle_beta 90.000000
_cell_angle_gamma 90.000000
_cell_volume 5334.593625
_symmetry_space_group_name_H-M "F D D 2"
_symmetry_group_IT_number 43
_symmetry_cell_setting 'orthorhombic'
loop_
_space_group_symop_operation_xyz
x,y,z
-x,-y,z
1/4-x,1/4+y,1/4+z
1/4+x,1/4-y,1/4+z
x,1/2+y,1/2+z
-x,1/2-y,1/2+z
1/4-x,3/4+y,3/4+z
1/4+x,3/4-y,3/4+z
1/2+x,y,1/2+z
1/2-x,-y,1/2+z
3/4-x,1/4+y,3/4+z
3/4+x,1/4-y,3/4+z
1/2+x,1/2+y,z
1/2-x,1/2-y,z
3/4-x,3/4+y,1/4+z
3/4+x,3/4-y,1/4+z
loop_
_atom_site_type_symbol
_atom_site_label
_atom_site_fract_x
_atom_site_fract_y
_atom_site_fract_z
Si Si1 0.234793 0.601795 0.504520
Si Si2 0.044643 0.276237 0.788858
Si Si3 0.410592 0.231907 0.533819
Si Si4 0.891013 0.842400 0.101683
Si Si5 0.089807 0.949140 0.126936
Si Si6 0.584105 0.895402 0.472824
Si Si7 0.181852 0.556995 0.200449
Si Si8 0.250000 0.250000 0.870363
O O1 0.318030 0.538928 0.512260
O O2 0.225218 0.641117 0.558111
O O3 0.308861 0.645789 0.462777
O O4 0.074335 0.584847 0.489026
O O5 0.175490 0.294686 0.827107
O O6 0.921946 0.265679 0.831759
O O7 0.969667 0.321762 0.749087
O O8 0.250000 0.250000 0.547328
O O9 0.511901 0.212971 0.581925
O O10 0.406728 0.173545 0.494650
O O11 0.494276 0.283319 0.502208
O O12 0.840449 0.842512 0.161001
O O13 0.995655 0.899489 0.100260
O O14 0.195652 0.915109 0.165103
O O15 0.000000 0.000000 0.156792
O O16 0.125080 0.501037 0.163993
#
# Coordination Sequence:
#
# PCOD9372000 Si02
#       8
#    16  16  16  16  16  16  16   8
#     4  11  24  43  67  98 135 173 226 285 339 414
#     4  11  22  43  65  98 134 175 227 275 341 405
#     4  11  24  45  70  98 136 180 227 286 339 416
#     4  11  23  40  69  96 129 174 225 276 336 417
#     4  11  19  41  73  95 122 177 238 270 324 416
#     4  11  23  43  68  96 131 178 232 274 338 413
#     4  11  24  41  65 105 133 175 229 286 352 394
#     4  10  24  38  68  96 138 172 224 296 322 410
#
# _framework density 22.494685
#
# number of rings (size 3 to 8) (size 9 to 14) (size 15 to 20)
#    0.000    1.067    4.000    4.000    3.733    2.133 
#    8.400    0.000    0.000    0.000    0.000    0.000 
#    0.000    0.000    0.000    0.000    0.000    0.000 
#
# Total GULP energy -167102.422124 kJ/mol
# GULP energy per Si atom -5570.080737 kJ/mol
# Density = 2.244349 g / cm^3
# Si number density = 22.494685 Si / 1000 Ang^3
#
#
#
# Elastic Constant Matrix: (Units=GPa)
#
#
# Indices 1 2 3 4 5 6 
#
# 1 42.1475 0.6003 16.7679 0.0000 0.0000 0.0000
# 2 0.6003 33.4192 0.2260 0.0000 0.0000 0.0000
# 3 16.7679 0.2260 111.5874 0.0000 0.0000 0.0000
# 4 0.0000 0.0000 0.0000 21.2454 0.0000 0.0000
# 5 0.0000 0.0000 0.0000 0.0000 30.6033 0.0000
# 6 0.0000 0.0000 0.0000 0.0000 0.0000 25.0627
#
#
#
# Elastic Compliance Matrix: (Units=1/GPa)
#
#
# Indices 1 2 3 4 5 6 
#
# 1 0.025241 -0.000428 -0.003792 0.000000 0.000000 0.000000
# 2 -0.000428 0.029931 0.000004 0.000000 0.000000 0.000000
# 3 -0.003792 0.000004 0.009531 0.000000 0.000000 0.000000
# 4 0.000000 0.000000 0.000000 0.047069 0.000000 0.000000
# 5 0.000000 0.000000 0.000000 0.000000 0.032676 0.000000
# 6 0.000000 0.000000 0.000000 0.000000 0.000000 0.039900
#
#
# Mechanical properties :
#
#
# Convention : Reuss Voigt Hill
#
# Bulk Modulus (GPa) = 17.77127 24.70473 21.23800
# Shear Modulus (GPa) = 23.63654 26.68629 25.16141
#
# Velocity S-wave (km/s) = 3.24506 3.44806 3.34810
# Velocity P-wave (km/s) = 4.68593 5.18252 4.94047
#
# Compressibility (1/GPa) = 0.05627060
#
# Stress axis : x y z
#
# Youngs Moduli (GPa) = 39.61825 33.41069 104.91650
#
# Poissons Ratio (x) = 0.01429 0.39784
# Poissons Ratio (y) = 0.01695 -0.00039
# Poissons Ratio (z) = 0.15023 -0.00012
#
# Static dielectric constant tensor:
#      x y z
#    x 1.914000 0.000000 0.000000 
#    y 0.000000 1.853950 0.000000 
#    z 0.000000 0.000000 1.925170 
# 
# From -- ./inp_files/24476.got.cif
#   From: 2010.05.17/outbox.cif.g08.bks.cpg/sg43_13_cif.got.tgz:24476.got - 2010.06.03 19:21:55.
