data_PCOD9372048
_publ_section_title
;
Structure prediction by ZEFSAII (Michael W. Deem and Ramdas Pophale) SiO2 
 PCOD9372048
Probable space group: F D D 2
;
_chemical_formula_sum "Si O2"
_cell_formula_units_Z 104
_cell_length_a 10.884818
_cell_length_b 18.011362
_cell_length_c 25.030341
_cell_angle_alpha 90.000000
_cell_angle_beta 90.000000
_cell_angle_gamma 90.000000
_cell_volume 4907.208298
_symmetry_space_group_name_H-M "F D D 2"
_symmetry_group_IT_number 43
_symmetry_cell_setting 'orthorhombic'
loop_
_space_group_symop_operation_xyz
x,y,z
-x,-y,z
1/4-x,1/4+y,1/4+z
1/4+x,1/4-y,1/4+z
x,1/2+y,1/2+z
-x,1/2-y,1/2+z
1/4-x,3/4+y,3/4+z
1/4+x,3/4-y,3/4+z
1/2+x,y,1/2+z
1/2-x,-y,1/2+z
3/4-x,1/4+y,3/4+z
3/4+x,1/4-y,3/4+z
1/2+x,1/2+y,z
1/2-x,1/2-y,z
3/4-x,3/4+y,1/4+z
3/4+x,3/4-y,1/4+z
loop_
_atom_site_type_symbol
_atom_site_label
_atom_site_fract_x
_atom_site_fract_y
_atom_site_fract_z
Si Si1 0.250000 0.250000 0.884570
Si Si2 0.264927 0.534853 0.917170
Si Si3 0.842995 0.098890 0.132833
Si Si4 0.390142 0.861287 0.189476
Si Si5 0.955710 0.638162 0.775465
Si Si6 0.750000 0.750000 0.457693
Si Si7 0.918505 0.625931 0.058566
Si Si8 0.250000 0.250000 0.115760
O O1 0.324733 0.193752 0.921179
O O2 0.330603 0.304706 0.847629
O O3 0.203373 0.592972 0.876636
O O4 0.223159 0.449874 0.910743
O O5 0.408027 0.542878 0.905380
O O6 0.217823 0.555142 0.976406
O O7 0.747034 0.146211 0.167963
O O8 0.777077 0.083112 0.077323
O O9 0.893231 0.030380 0.168138
O O10 0.393253 0.855532 0.252480
O O11 0.815911 0.615954 0.793299
O O12 0.022554 0.567537 0.748212
O O13 0.838374 0.695103 0.081367
#
# Coordination Sequence:
#
# PCOD9372048 Si02
#       8
#     8  16  16  16  16   8  16   8
#     4  12  25  42  75 110 143 190 249 312 362 452
#     4  11  25  48  69 107 147 189 244 309 374 456
#     4  11  24  43  75 102 142 191 244 307 363 436
#     4  12  24  45  74 106 144 190 250 303 363 445
#     4  11  24  46  77 103 140 201 248 301 370 453
#     4  10  24  43  67 110 141 173 252 294 356 444
#     4  12  25  48  74 110 143 200 251 303 377 455
#     4  12  27  49  68 112 158 183 239 318 390 430
#
# _framework density 21.193314000000001
#
# number of rings (size 3 to 8) (size 9 to 14) (size 15 to 20)
#    0.000    0.615    6.154    1.846    4.308    3.077 
#    2.769    0.000    0.000    0.000    0.000    0.000 
#    0.000    0.000    0.000    0.000    0.000    0.000 
#
# Total GULP energy -144991.906386 kJ/mol
# GULP energy per Si atom -5576.611784 kJ/mol
# Density = 2.114508 g / cm^3
# Si number density = 21.193314 Si / 1000 Ang^3
#
#
#
# Elastic Constant Matrix: (Units=GPa)
#
#
# Indices 1 2 3 4 5 6 
#
# 1 112.2305 22.5868 28.1641 0.0000 0.0000 0.0000
# 2 22.5868 77.9206 -1.8895 0.0000 0.0000 0.0000
# 3 28.1641 -1.8895 63.2515 0.0000 0.0000 0.0000
# 4 0.0000 0.0000 0.0000 25.9192 0.0000 0.0000
# 5 0.0000 0.0000 0.0000 0.0000 32.2377 0.0000
# 6 0.0000 0.0000 0.0000 0.0000 0.0000 40.8105
#
#
#
# Elastic Compliance Matrix: (Units=1/GPa)
#
#
# Indices 1 2 3 4 5 6 
#
# 1 0.010794 -0.003248 -0.004903 0.000000 0.000000 0.000000
# 2 -0.003248 0.013820 0.001859 0.000000 0.000000 0.000000
# 3 -0.004903 0.001859 0.018049 0.000000 0.000000 0.000000
# 4 0.000000 0.000000 0.000000 0.038581 0.000000 0.000000
# 5 0.000000 0.000000 0.000000 0.000000 0.031020 0.000000
# 6 0.000000 0.000000 0.000000 0.000000 0.000000 0.024504
#
#
# Mechanical properties :
#
#
# Convention : Reuss Voigt Hill
#
# Bulk Modulus (GPa) = 33.24610 39.01393 36.13001
# Shear Modulus (GPa) = 31.37183 33.42957 32.40070
#
# Velocity S-wave (km/s) = 3.85160 3.97591 3.91425
# Velocity P-wave (km/s) = 5.95826 6.28695 6.12481
#
# Compressibility (1/GPa) = 0.03007872
#
# Stress axis : x y z
#
# Youngs Moduli (GPa) = 92.64066 72.35828 55.40531
#
# Poissons Ratio (x) = 0.23501 0.27168
# Poissons Ratio (y) = 0.30088 -0.10300
# Poissons Ratio (z) = 0.45426 -0.13452
#
# Static dielectric constant tensor:
#      x y z
#    x 1.877080 0.000000 0.000000 
#    y 0.000000 1.836200 0.000000 
#    z 0.000000 0.000000 1.780290 
# 
# From -- ./inp_files/25166.got.cif
#   From: 2010.05.17/outbox.cif.g08.bks.cpg/sg43_13_cif.got.tgz:25166.got - 2010.06.03 19:21:55.
