data_PCOD9372568
_publ_section_title
;
Structure prediction by ZEFSAII (Michael W. Deem and Ramdas Pophale) SiO2 
 PCOD9372568
Probable space group: F D D 2
;
_chemical_formula_sum "Si O2"
_cell_formula_units_Z 104
_cell_length_a 27.038387
_cell_length_b 15.538671
_cell_length_c 10.372878
_cell_angle_alpha 90.000000
_cell_angle_beta 90.000000
_cell_angle_gamma 90.000000
_cell_volume 4358.067186
_symmetry_space_group_name_H-M "F D D 2"
_symmetry_group_IT_number 43
_symmetry_cell_setting 'orthorhombic'
loop_
_space_group_symop_operation_xyz
x,y,z
-x,-y,z
1/4-x,1/4+y,1/4+z
1/4+x,1/4-y,1/4+z
x,1/2+y,1/2+z
-x,1/2-y,1/2+z
1/4-x,3/4+y,3/4+z
1/4+x,3/4-y,3/4+z
1/2+x,y,1/2+z
1/2-x,-y,1/2+z
3/4-x,1/4+y,3/4+z
3/4+x,1/4-y,3/4+z
1/2+x,1/2+y,z
1/2-x,1/2-y,z
3/4-x,3/4+y,1/4+z
3/4+x,3/4-y,1/4+z
loop_
_atom_site_type_symbol
_atom_site_label
_atom_site_fract_x
_atom_site_fract_y
_atom_site_fract_z
Si Si1 0.303929 0.379376 0.411750
Si Si2 0.750000 0.750000 0.784825
Si Si3 0.508922 0.635760 0.924337
Si Si4 0.359398 0.045692 0.801049
Si Si5 0.068965 0.411165 0.212948
Si Si6 0.737558 0.428753 0.144161
Si Si7 0.107491 0.070281 0.792541
O O1 0.273213 0.345807 0.289593
O O2 0.342261 0.455132 0.365754
O O3 0.336440 0.308581 0.488287
O O4 0.262075 0.420802 0.503992
O O5 0.704219 0.738706 0.879516
O O6 0.748695 0.836838 0.706503
O O7 0.472711 0.629140 0.800730
O O8 0.513798 0.737104 0.953678
O O9 0.559623 0.593797 0.879454
O O10 0.319831 0.058322 0.684448
O O11 0.356806 0.117970 0.914845
O O12 0.094050 0.346285 0.119134
O O13 0.109428 0.467040 0.285647
#
# Coordination Sequence:
#
# PCOD9372568 Si02
#       7
#    16   8  16  16  16  16  16
#     4  11  26  44  72 104 151 196 250 311 383 449
#     4  12  24  46  74 108 146 198 256 310 372 462
#     4  11  26  48  68 110 154 190 248 321 378 447
#     4  11  23  45  71 108 144 190 254 306 374 459
#     4  12  26  45  78 107 150 194 258 310 382 459
#     4  11  25  44  73 104 148 198 244 316 378 445
#     4  12  24  45  78 107 144 195 254 311 376 460
#
# _framework density 23.863790999999999
#
# number of rings (size 3 to 8) (size 9 to 14) (size 15 to 20)
#    0.000    0.615    4.615    1.846    6.462    3.692 
#    2.769    0.000    0.000    0.000    0.000    0.000 
#    0.000    0.000    0.000    0.000    0.000    0.000 
#
# Total GULP energy -145256.962635 kJ/mol
# GULP energy per Si atom -5586.806255 kJ/mol
# Density = 2.380948 g / cm^3
# Si number density = 23.863791 Si / 1000 Ang^3
#
#
#
# Elastic Constant Matrix: (Units=GPa)
#
#
# Indices 1 2 3 4 5 6 
#
# 1 76.1805 -2.0498 56.7757 0.0000 0.0000 0.0000
# 2 -2.0498 89.4417 14.0130 0.0000 0.0000 0.0000
# 3 56.7757 14.0130 90.7419 0.0000 0.0000 0.0000
# 4 0.0000 0.0000 0.0000 13.7913 0.0000 0.0000
# 5 0.0000 0.0000 0.0000 0.0000 20.7011 0.0000
# 6 0.0000 0.0000 0.0000 0.0000 0.0000 22.3807
#
#
#
# Elastic Compliance Matrix: (Units=1/GPa)
#
#
# Indices 1 2 3 4 5 6 
#
# 1 0.025435 0.003152 -0.016401 0.000000 0.000000 0.000000
# 2 0.003152 0.011848 -0.003802 0.000000 0.000000 0.000000
# 3 -0.016401 -0.003802 0.021869 0.000000 0.000000 0.000000
# 4 0.000000 0.000000 0.000000 0.072509 0.000000 0.000000
# 5 0.000000 0.000000 0.000000 0.000000 0.048307 0.000000
# 6 0.000000 0.000000 0.000000 0.000000 0.000000 0.044681
#
#
# Mechanical properties :
#
#
# Convention : Reuss Voigt Hill
#
# Bulk Modulus (GPa) = 39.91831 43.76021 41.83926
# Shear Modulus (GPa) = 18.71948 23.88298 21.30123
#
# Velocity S-wave (km/s) = 2.80381 3.16698 2.99091
# Velocity P-wave (km/s) = 5.21974 5.63474 5.43121
#
# Compressibility (1/GPa) = 0.02505116
#
# Stress axis : x y z
#
# Youngs Moduli (GPa) = 39.31614 84.39951 45.72633
#
# Poissons Ratio (x) = -0.26607 0.74996
# Poissons Ratio (y) = -0.12394 0.17386
# Poissons Ratio (z) = 0.64482 0.32090
#
# Static dielectric constant tensor:
#      x y z
#    x 1.965470 0.000000 0.000000 
#    y 0.000000 1.997930 0.000000 
#    z 0.000000 0.000000 2.028810 
# 
# From -- ./inp_files/7957.got.cif
#   From: 2010.05.17/outbox.cif.g08.bks.cpg/sg43_4_cif.got.tgz:7957.got - 2010.06.03 19:21:55.
