data_PCOD9372362
_publ_section_title
;
Structure prediction by ZEFSAII (Michael W. Deem and Ramdas Pophale) SiO2 
 PCOD9372362
Probable space group: F D D 2
;
_chemical_formula_sum "Si O2"
_cell_formula_units_Z 64
_cell_length_a 23.612823
_cell_length_b 9.515399
_cell_length_c 9.841495
_cell_angle_alpha 90.000000
_cell_angle_beta 90.000000
_cell_angle_gamma 90.000000
_cell_volume 2211.240559
_symmetry_space_group_name_H-M "F D D 2"
_symmetry_group_IT_number 43
_symmetry_cell_setting 'orthorhombic'
loop_
_space_group_symop_operation_xyz
x,y,z
-x,-y,z
1/4-x,1/4+y,1/4+z
1/4+x,1/4-y,1/4+z
x,1/2+y,1/2+z
-x,1/2-y,1/2+z
1/4-x,3/4+y,3/4+z
1/4+x,3/4-y,3/4+z
1/2+x,y,1/2+z
1/2-x,-y,1/2+z
3/4-x,1/4+y,3/4+z
3/4+x,1/4-y,3/4+z
1/2+x,1/2+y,z
1/2-x,1/2-y,z
3/4-x,3/4+y,1/4+z
3/4+x,3/4-y,1/4+z
loop_
_atom_site_type_symbol
_atom_site_label
_atom_site_fract_x
_atom_site_fract_y
_atom_site_fract_z
Si Si1 0.934977 0.029554 0.696790
Si Si2 0.710889 0.443847 0.071282
Si Si3 0.442491 0.565950 0.004989
Si Si4 0.414030 0.112052 0.789017
O O1 0.932756 0.202022 0.706922
O O2 0.931048 0.995560 0.859325
O O3 0.885363 0.943790 0.619952
O O4 0.000000 0.000000 0.652437
O O5 0.704688 0.525658 0.212547
O O6 0.778095 0.450787 0.038717
O O7 0.688713 0.286656 0.090014
O O8 0.598555 0.431285 0.132265
O O9 0.500000 0.500000 0.059731
#
# Coordination Sequence:
#
# PCOD9372362 Si02
#       4
#    16  16  16  16
#     4   9  22  47  85 136 197 244 325 394 487 581
#     4   9  21  43  85 135 177 256 324 389 485 573
#     4   9  19  45  85 128 189 245 311 400 484 568
#     4  11  20  46  92 127 192 253 329 390 486 590
#
# _framework density 28.943028999999999
#
# number of rings (size 3 to 8) (size 9 to 14) (size 15 to 20)
#    1.500    1.000    2.500    0.000    0.000    0.000 
#    4.500    5.000   22.000    0.000    0.000    0.000 
#    7.500    0.000    0.000    0.000    2.000    0.000 
#
# Total GULP energy -89460.036738 kJ/mol
# GULP energy per Si atom -5591.252296 kJ/mol
# Density = 2.887715 g / cm^3
# Si number density = 28.943029 Si / 1000 Ang^3
#
#
#
# Elastic Constant Matrix: (Units=GPa)
#
#
# Indices 1 2 3 4 5 6 
#
# 1 248.9317 102.1579 91.3031 0.0000 0.0000 0.0000
# 2 102.1579 210.7993 60.3134 0.0000 0.0000 0.0000
# 3 91.3031 60.3134 184.3354 0.0000 0.0000 0.0000
# 4 0.0000 0.0000 0.0000 45.1896 0.0000 0.0000
# 5 0.0000 0.0000 0.0000 0.0000 66.9288 0.0000
# 6 0.0000 0.0000 0.0000 0.0000 0.0000 61.3321
#
#
#
# Elastic Compliance Matrix: (Units=1/GPa)
#
#
# Indices 1 2 3 4 5 6 
#
# 1 0.005670 -0.002145 -0.002107 0.000000 0.000000 0.000000
# 2 -0.002145 0.006045 -0.000915 0.000000 0.000000 0.000000
# 3 -0.002107 -0.000915 0.006768 0.000000 0.000000 0.000000
# 4 0.000000 0.000000 0.000000 0.022129 0.000000 0.000000
# 5 0.000000 0.000000 0.000000 0.000000 0.014941 0.000000
# 6 0.000000 0.000000 0.000000 0.000000 0.000000 0.016305
#
#
# Mechanical properties :
#
#
# Convention : Reuss Voigt Hill
#
# Bulk Modulus (GPa) = 122.71601 127.95725 125.33663
# Shear Modulus (GPa) = 58.88652 60.70958 59.79805
#
# Velocity S-wave (km/s) = 4.51551 4.58488 4.55032
# Velocity P-wave (km/s) = 8.34731 8.50495 8.42650
#
# Compressibility (1/GPa) = 0.00814890
#
# Stress axis : x y z
#
# Youngs Moduli (GPa) = 176.36167 165.41578 147.75712
#
# Poissons Ratio (x) = 0.35484 0.31127
# Poissons Ratio (y) = 0.37832 0.13527
# Poissons Ratio (z) = 0.37153 0.15144
#
# Static dielectric constant tensor:
#      x y z
#    x 2.321390 0.000000 0.000000 
#    y 0.000000 2.307060 0.000000 
#    z 0.000000 0.000000 2.290510 
# 
# From -- ./inp_files/9386.got.cif
#   From: 2010.05.17/outbox.cif.g08.bks.cpg/sg43_5_cif.got.tgz:9386.got - 2010.06.03 19:21:55.
