data_PCOD9372980
_publ_section_title
;
Structure prediction by ZEFSAII (Michael W. Deem and Ramdas Pophale) SiO2 
 PCOD9372980
Probable space group: F D D 2
;
_chemical_formula_sum "Si O2"
_cell_formula_units_Z 30
_cell_length_a 9.000000
_cell_length_b 24.000000
_cell_length_c 30.000000
_cell_angle_alpha 90.000000
_cell_angle_beta 90.000000
_cell_angle_gamma 90.000000
_cell_volume 6480.000000
_symmetry_space_group_name_H-M "F D D 2"
_symmetry_group_IT_number 43
_symmetry_cell_setting 'orthorhombic'
loop_
_space_group_symop_operation_xyz
x,y,z
-x,-y,z
1/4-x,1/4+y,1/4+z
1/4+x,1/4-y,1/4+z
x,1/2+y,1/2+z
-x,1/2-y,1/2+z
1/4-x,3/4+y,3/4+z
1/4+x,3/4-y,3/4+z
1/2+x,y,1/2+z
1/2-x,-y,1/2+z
3/4-x,1/4+y,3/4+z
3/4+x,1/4-y,3/4+z
1/2+x,1/2+y,z
1/2-x,1/2-y,z
3/4-x,3/4+y,1/4+z
3/4+x,3/4-y,1/4+z
loop_
_atom_site_type_symbol
_atom_site_label
_atom_site_fract_x
_atom_site_fract_y
_atom_site_fract_z
Si Si1 0.250000 0.750000 0.526070
Si Si2 0.215454 0.950193 0.703775
Si Si3 0.821864 0.498347 0.953571
Si Si4 0.226570 0.382096 0.908806
Si Si5 0.073983 0.238061 0.808211
Si Si6 0.699053 0.359428 0.586023
Si Si7 0.450958 0.303990 0.391046
Si Si8 0.931719 0.367648 0.666810
O O1 0.109391 0.730568 0.495935
O O2 0.284249 0.693982 0.554252
O O3 0.081634 0.915153 0.680962
O O4 0.342991 0.902288 0.705483
O O5 0.276341 0.000328 0.672996
O O6 0.768060 0.558336 0.934018
O O7 0.752294 0.441382 0.932787
O O8 0.000000 0.500000 0.946401
O O9 0.794010 0.497841 0.006679
O O10 0.289181 0.392880 0.859586
O O11 0.069802 0.351493 0.904705
O O12 0.250000 0.250000 0.817149
O O13 0.983810 0.277508 0.842387
O O14 0.039862 0.172025 0.815643
O O15 0.817149 0.355072 0.626574
O O16 0.297955 0.337025 0.397556
#
# Coordination Sequence:
#
# PCOD9372980 Si02
#       8
#     8  16  16  16  16  16  16  16
#     4  12  24  42  66  96 138 174 228 276 332 402
#     4  11  23  39  68  94 122 174 225 261 327 395
#     4  11  24  41  64 100 131 168 218 275 336 390
#     4  11  20  42  69  90 124 177 219 260 330 413
#     4  11  22  39  65  96 124 166 223 269 317 396
#     4  11  24  41  66  97 130 173 222 268 331 397
#     4  12  20  42  68  91 127 172 221 269 332 398
#     4  11  25  42  66  98 135 170 220 277 337 401
#
# _framework density 4.6296299999999997
#
# number of rings (size 3 to 8) (size 9 to 14) (size 15 to 20)
#    0.000    0.800    6.667    2.000    0.000    2.667 
#    0.000    2.667    2.933    0.000    0.000    0.000 
#    0.000    0.000    0.000    0.000    0.000    0.000 
#
# Total GULP energy -167374.667882 kJ/mol
# GULP energy per Si atom -5579.155596 kJ/mol
# Density = 0.461909 g / cm^3
# Si number density = 4.629630 Si / 1000 Ang^3
#
#
#
# Elastic Constant Matrix: (Units=GPa)
#
#
# Indices 1 2 3 4 5 6 
#
# 1 54.8424 32.4160 15.1830 0.0000 0.0000 0.0000
# 2 32.4160 169.9010 56.3735 0.0000 0.0000 0.0000
# 3 15.1830 56.3735 75.3942 0.0000 0.0000 0.0000
# 4 0.0000 0.0000 0.0000 44.4724 0.0000 0.0000
# 5 0.0000 0.0000 0.0000 0.0000 21.9451 0.0000
# 6 0.0000 0.0000 0.0000 0.0000 0.0000 42.6706
#
#
#
# Elastic Compliance Matrix: (Units=1/GPa)
#
#
# Indices 1 2 3 4 5 6 
#
# 1 0.020699 -0.003413 -0.001617 0.000000 0.000000 0.000000
# 2 -0.003413 0.008391 -0.005586 0.000000 0.000000 0.000000
# 3 -0.001617 -0.005586 0.017766 0.000000 0.000000 0.000000
# 4 0.000000 0.000000 0.000000 0.022486 0.000000 0.000000
# 5 0.000000 0.000000 0.000000 0.000000 0.045568 0.000000
# 6 0.000000 0.000000 0.000000 0.000000 0.000000 0.023435
#
#
# Mechanical properties :
#
#
# Convention : Reuss Voigt Hill
#
# Bulk Modulus (GPa) = 39.02598 56.45365 47.73982
# Shear Modulus (GPa) = 29.74100 34.89529 32.31815
#
# Velocity S-wave (km/s) = 4.01186 4.34561 4.18207
# Velocity P-wave (km/s) = 6.52532 7.46527 7.01107
#
# Compressibility (1/GPa) = 0.02562396
#
# Stress axis : x y z
#
# Youngs Moduli (GPa) = 48.31189 119.18203 56.28645
#
# Poissons Ratio (x) = 0.40675 0.09099
# Poissons Ratio (y) = 0.16488 0.31444
# Poissons Ratio (z) = 0.07810 0.66581
#
# Static dielectric constant tensor:
#      x y z
#    x 1.674490 0.000000 0.000000 
#    y 0.000000 1.620540 0.000000 
#    z 0.000000 0.000000 1.650380 
# 
# From -- ./inp_files/24466.got.cif
#   From: 2010.05.17/outbox.ucp.g08.bks.cvg/sg43_13_cif.got.tgz:24466.got - 2010.06.11 16:31:01.
