data_PCOD9372393
_publ_section_title
;
Structure prediction by ZEFSAII (Michael W. Deem and Ramdas Pophale) SiO2 
 PCOD9372393
Probable space group: F D D 2
;
_chemical_formula_sum "Si O2"
_cell_formula_units_Z 104
_cell_length_a 9.291887
_cell_length_b 17.434657
_cell_length_c 23.624410
_cell_angle_alpha 90.000000
_cell_angle_beta 90.000000
_cell_angle_gamma 90.000000
_cell_volume 3827.174801
_symmetry_space_group_name_H-M "F D D 2"
_symmetry_group_IT_number 43
_symmetry_cell_setting 'orthorhombic'
loop_
_space_group_symop_operation_xyz
x,y,z
-x,-y,z
1/4-x,1/4+y,1/4+z
1/4+x,1/4-y,1/4+z
x,1/2+y,1/2+z
-x,1/2-y,1/2+z
1/4-x,3/4+y,3/4+z
1/4+x,3/4-y,3/4+z
1/2+x,y,1/2+z
1/2-x,-y,1/2+z
3/4-x,1/4+y,3/4+z
3/4+x,1/4-y,3/4+z
1/2+x,1/2+y,z
1/2-x,1/2-y,z
3/4-x,3/4+y,1/4+z
3/4+x,3/4-y,1/4+z
loop_
_atom_site_type_symbol
_atom_site_label
_atom_site_fract_x
_atom_site_fract_y
_atom_site_fract_z
Si Si1 0.719520 0.826968 0.197360
Si Si2 0.242295 0.644163 0.365983
Si Si3 0.509094 0.783953 0.299427
Si Si4 0.217309 0.859837 0.884150
Si Si5 0.734308 0.080115 0.190482
Si Si6 0.000000 0.000000 0.488746
Si Si7 0.078992 0.752759 0.051578
O O1 0.750000 0.750000 0.160772
O O2 0.607677 0.882751 0.169559
O O3 0.628737 0.798097 0.250851
O O4 0.874466 0.864373 0.189670
O O5 0.127439 0.662863 0.317099
O O6 0.371845 0.694497 0.391251
O O7 0.309198 0.564779 0.346585
O O8 0.614170 0.800530 0.351922
O O9 0.397251 0.721960 0.271921
O O10 0.362820 0.832308 0.911086
O O11 0.265636 0.922220 0.834742
O O12 0.706709 0.171499 0.205534
O O13 0.742736 0.024457 0.245055
O O14 0.250000 0.750000 0.038707
#
# Coordination Sequence:
#
# PCOD9372393 Si02
#       7
#    16  16  16  16  16   8  16
#     4  11  21  41  72 104 137 196 255 306 380 476
#     4  11  21  46  71 109 144 197 254 321 391 475
#     4  11  26  45  74 106 151 200 255 325 406 471
#     4  11  26  44  74 111 156 197 263 327 404 485
#     4  12  25  47  79 110 152 204 266 328 402 487
#     4  12  22  48  76 100 140 202 260 320 388 482
#     4  12  24  45  76 113 153 208 265 323 407 488
#
# _framework density 27.174092000000002
#
# number of rings (size 3 to 8) (size 9 to 14) (size 15 to 20)
#    0.000    0.615    6.154    1.846    2.154    0.000 
#    5.538    0.000    0.000    0.000    0.000    0.000 
#    0.000    0.000    0.000    0.000    0.000    0.000 
#
# Total GULP energy -144893.431051 kJ/mol
# GULP energy per Si atom -5572.824271 kJ/mol
# Density = 2.711224 g / cm^3
# Si number density = 27.174092 Si / 1000 Ang^3
#
#
#
# Elastic Constant Matrix: (Units=GPa)
#
#
# Indices 1 2 3 4 5 6 
#
# 1 235.3204 31.3755 75.3515 0.0000 0.0000 0.0000
# 2 31.3755 90.8633 38.5575 0.0000 0.0000 0.0000
# 3 75.3515 38.5575 136.7395 0.0000 0.0000 0.0000
# 4 0.0000 0.0000 0.0000 29.8618 0.0000 0.0000
# 5 0.0000 0.0000 0.0000 0.0000 55.1127 0.0000
# 6 0.0000 0.0000 0.0000 0.0000 0.0000 40.1051
#
#
#
# Elastic Compliance Matrix: (Units=1/GPa)
#
#
# Indices 1 2 3 4 5 6 
#
# 1 0.005194 -0.000658 -0.002677 0.000000 0.000000 0.000000
# 2 -0.000658 0.012585 -0.003186 0.000000 0.000000 0.000000
# 3 -0.002677 -0.003186 0.009687 0.000000 0.000000 0.000000
# 4 0.000000 0.000000 0.000000 0.033488 0.000000 0.000000
# 5 0.000000 0.000000 0.000000 0.000000 0.018145 0.000000
# 6 0.000000 0.000000 0.000000 0.000000 0.000000 0.024934
#
#
# Mechanical properties :
#
#
# Convention : Reuss Voigt Hill
#
# Bulk Modulus (GPa) = 69.32796 83.72136 76.52466
# Shear Modulus (GPa) = 41.02316 46.19183 43.60750
#
# Velocity S-wave (km/s) = 3.88963 4.12739 4.01027
# Velocity P-wave (km/s) = 6.76315 7.32052 7.04735
#
# Compressibility (1/GPa) = 0.01442419
#
# Stress axis : x y z
#
# Youngs Moduli (GPa) = 192.51498 79.46167 103.23356
#
# Poissons Ratio (x) = 0.05226 0.27635
# Poissons Ratio (y) = 0.12661 0.32892
# Poissons Ratio (z) = 0.51536 0.25318
#
# Static dielectric constant tensor:
#      x y z
#    x 2.071650 0.000000 0.000000 
#    y 0.000000 2.292020 0.000000 
#    z 0.000000 0.000000 2.365810 
# 
# From -- ./inp_files/24415.got.cif
#   From: 2010.05.17/outbox.cif.g08.bks.cpg/sg43_13_cif.got.tgz:24415.got - 2010.06.03 19:21:55.
