data_PCOD9372034
_publ_section_title
;
Structure prediction by ZEFSAII (Michael W. Deem and Ramdas Pophale) SiO2 
 PCOD9372034
Probable space group: F D D 2
;
_chemical_formula_sum "Si O2"
_cell_formula_units_Z 104
_cell_length_a 25.839098
_cell_length_b 21.238078
_cell_length_c 9.201911
_cell_angle_alpha 90.000000
_cell_angle_beta 90.000000
_cell_angle_gamma 90.000000
_cell_volume 5049.758269
_symmetry_space_group_name_H-M "F D D 2"
_symmetry_group_IT_number 43
_symmetry_cell_setting 'orthorhombic'
loop_
_space_group_symop_operation_xyz
x,y,z
-x,-y,z
1/4-x,1/4+y,1/4+z
1/4+x,1/4-y,1/4+z
x,1/2+y,1/2+z
-x,1/2-y,1/2+z
1/4-x,3/4+y,3/4+z
1/4+x,3/4-y,3/4+z
1/2+x,y,1/2+z
1/2-x,-y,1/2+z
3/4-x,1/4+y,3/4+z
3/4+x,1/4-y,3/4+z
1/2+x,1/2+y,z
1/2-x,1/2-y,z
3/4-x,3/4+y,1/4+z
3/4+x,3/4-y,1/4+z
loop_
_atom_site_type_symbol
_atom_site_label
_atom_site_fract_x
_atom_site_fract_y
_atom_site_fract_z
Si Si1 0.942245 0.621437 0.088410
Si Si2 0.942030 0.714431 0.591962
Si Si3 0.076153 0.085507 0.902810
Si Si4 0.577726 0.033883 0.725798
Si Si5 0.750000 0.750000 0.955699
Si Si6 0.992834 0.801222 0.825746
Si Si7 0.524642 0.898966 0.774482
O O1 0.881737 0.638987 0.099240
O O2 0.964803 0.550598 0.117928
O O3 0.969961 0.662881 0.212014
O O4 0.958309 0.633554 0.923243
O O5 0.881835 0.712122 0.556836
O O6 0.956354 0.759365 0.724871
O O7 0.961243 0.645935 0.641670
O O8 0.972508 0.733610 0.445621
O O9 0.042136 0.039150 0.800405
O O10 0.041589 0.148107 0.910880
O O11 0.083657 0.050413 0.055830
O O12 0.535616 0.083603 0.783177
O O13 0.554423 0.964619 0.749499
#
# Coordination Sequence:
#
# PCOD9372034 Si02
#       7
#    16  16  16  16   8  16  16
#     4  11  24  44  68 105 139 185 238 295 376 420
#     4  12  25  45  68 102 141 182 233 294 365 420
#     4  11  23  44  71 101 138 188 238 293 364 433
#     4  11  24  44  71 101 135 189 239 285 363 428
#     4  10  24  42  72 100 144 182 242 302 352 452
#     4  11  25  43  66 103 139 182 234 294 355 439
#     4  11  25  44  71 100 140 181 238 300 347 437
#
# _framework density 20.595044999999999
#
# number of rings (size 3 to 8) (size 9 to 14) (size 15 to 20)
#    0.000    0.923    3.077    3.692    2.154    8.615 
#    0.000    0.000    0.000    0.000    0.000    0.000 
#    0.000    0.000    0.000    0.000    0.000    0.000 
#
# Total GULP energy -145255.602570 kJ/mol
# GULP energy per Si atom -5586.753945 kJ/mol
# Density = 2.054817 g / cm^3
# Si number density = 20.595045 Si / 1000 Ang^3
#
#
#
# Elastic Constant Matrix: (Units=GPa)
#
#
# Indices 1 2 3 4 5 6 
#
# 1 179.6387 50.6285 61.3914 0.0000 -0.0004 0.0000
# 2 50.6285 69.6949 28.5833 0.0002 -0.0010 -0.0001
# 3 61.3914 28.5833 112.6325 0.0005 -0.0022 -0.0003
# 4 0.0000 0.0002 0.0005 30.9422 -0.0012 -0.0002
# 5 -0.0004 -0.0010 -0.0022 -0.0012 -34.5917 0.0008
# 6 0.0000 -0.0001 -0.0003 -0.0002 0.0008 22.6049
#
#
#
# Elastic Compliance Matrix: (Units=1/GPa)
#
#
# Indices 1 2 3 4 5 6 
#
# 1 0.007905 -0.004437 -0.003183 0.000000 0.000000 0.000000
# 2 -0.004437 0.018506 -0.002278 0.000000 0.000000 0.000000
# 3 -0.003183 -0.002278 0.011191 0.000000 -0.000001 0.000000
# 4 0.000000 0.000000 0.000000 0.032318 -0.000001 0.000000
# 5 0.000000 0.000000 -0.000001 -0.000001 -0.028909 0.000001
# 6 0.000000 0.000000 0.000000 0.000000 0.000001 0.044238
#
#
# Mechanical properties :
#
#
# Convention : Reuss Voigt Hill
#
# Bulk Modulus (GPa) = 56.15849 71.46361 63.81105
# Shear Modulus (GPa) = 45.05310 18.54862 31.80086
#
# Velocity S-wave (km/s) = 4.68222 3.00431 3.93377
# Velocity P-wave (km/s) = 7.52051 6.84173 7.18914
#
# Compressibility (1/GPa) = 0.01780675
#
# Stress axis : x y z
#
# Youngs Moduli (GPa) = 126.50345 54.03751 89.35600
#
# Poissons Ratio (x) = 0.23977 0.28439
# Poissons Ratio (y) = 0.56131 0.20353
# Poissons Ratio (z) = 0.40261 0.12309
#
# Static dielectric constant tensor:
#      x y z
#    x 1.761690 0.000000 0.000000 
#    y 0.000000 1.741530 0.000000 
#    z 0.000000 0.000000 1.717370 
# 
# From -- ./inp_files/4237.got.cif
#   From: 2010.05.17/outbox.cif.g08.bks.cpg/sg43_3_cif.got.tgz:4237.got - 2010.06.03 19:21:55.
