data_PCOD9372847
_publ_section_title
;
Structure prediction by ZEFSAII (Michael W. Deem and Ramdas Pophale) SiO2 
 PCOD9372847
Probable space group: F D D 2
;
_chemical_formula_sum "Si O2"
_cell_formula_units_Z 88
_cell_length_a 30.640066
_cell_length_b 10.498703
_cell_length_c 11.131795
_cell_angle_alpha 90.000000
_cell_angle_beta 90.000000
_cell_angle_gamma 90.000000
_cell_volume 3580.886422
_symmetry_space_group_name_H-M "F D D 2"
_symmetry_group_IT_number 43
_symmetry_cell_setting 'orthorhombic'
loop_
_space_group_symop_operation_xyz
x,y,z
-x,-y,z
1/4-x,1/4+y,1/4+z
1/4+x,1/4-y,1/4+z
x,1/2+y,1/2+z
-x,1/2-y,1/2+z
1/4-x,3/4+y,3/4+z
1/4+x,3/4-y,3/4+z
1/2+x,y,1/2+z
1/2-x,-y,1/2+z
3/4-x,1/4+y,3/4+z
3/4+x,1/4-y,3/4+z
1/2+x,1/2+y,z
1/2-x,1/2-y,z
3/4-x,3/4+y,1/4+z
3/4+x,3/4-y,1/4+z
loop_
_atom_site_type_symbol
_atom_site_label
_atom_site_fract_x
_atom_site_fract_y
_atom_site_fract_z
Si Si1 0.982717 0.231107 0.974880
Si Si2 0.082550 0.048468 0.403646
Si Si3 0.750000 0.250000 0.548349
Si Si4 0.424408 0.286156 0.068621
Si Si5 0.335990 0.292877 0.924466
Si Si6 0.925518 0.575568 0.653654
O O1 0.955475 0.348675 0.924293
O O2 0.985600 0.116477 0.880798
O O3 0.960156 0.171180 0.094133
O O4 0.032425 0.263828 0.003497
O O5 0.128177 0.117505 0.371585
O O6 0.090950 0.989727 0.534841
O O7 0.071713 0.950902 0.296226
O O8 0.706852 0.279322 0.471409
O O9 0.421186 0.194885 0.183374
O O10 0.430447 0.434815 0.096467
O O11 0.379745 0.267117 0.996606
#
# Coordination Sequence:
#
# PCOD9372847 Si02
#       6
#    16  16   8  16  16  16
#     4  12  26  49  80 112 154 206 262 320 388 473
#     4  12  27  49  80 115 159 202 263 331 385 474
#     4  12  24  52  74 108 148 198 260 310 388 466
#     4  12  25  49  75 112 150 202 255 317 393 468
#     4  12  28  49  77 113 155 200 253 327 396 462
#     4  12  24  49  77 114 150 211 262 315 397 463
#
# _framework density 24.574921
#
# number of rings (size 3 to 8) (size 9 to 14) (size 15 to 20)
#    0.000    0.000    3.636    6.545    0.000    0.000 
#   26.182    0.000    0.000    0.000    0.000    0.000 
#    0.000    0.000    0.000    0.000    0.000    0.000 
#
# Total GULP energy -123389.120338 kJ/mol
# GULP energy per Si atom -5608.596379 kJ/mol
# Density = 2.451899 g / cm^3
# Si number density = 24.574921 Si / 1000 Ang^3
#
#
#
# Elastic Constant Matrix: (Units=GPa)
#
#
# Indices 1 2 3 4 5 6 
#
# 1 163.4736 25.9704 45.6546 0.0000 0.0000 0.0000
# 2 25.9704 71.6985 17.1710 0.0000 0.0000 0.0000
# 3 45.6546 17.1710 114.8894 0.0000 0.0000 0.0000
# 4 0.0000 0.0000 0.0000 25.5486 0.0000 0.0000
# 5 0.0000 0.0000 0.0000 0.0000 29.6105 0.0000
# 6 0.0000 0.0000 0.0000 0.0000 0.0000 34.5412
#
#
#
# Elastic Compliance Matrix: (Units=1/GPa)
#
#
# Indices 1 2 3 4 5 6 
#
# 1 0.007141 -0.001978 -0.002542 0.000000 0.000000 0.000000
# 2 -0.001978 0.015013 -0.001458 0.000000 0.000000 0.000000
# 3 -0.002542 -0.001458 0.009932 0.000000 0.000000 0.000000
# 4 0.000000 0.000000 0.000000 0.039141 0.000000 0.000000
# 5 0.000000 0.000000 0.000000 0.000000 0.033772 0.000000
# 6 0.000000 0.000000 0.000000 0.000000 0.000000 0.028951
#
#
# Mechanical properties :
#
#
# Convention : Reuss Voigt Hill
#
# Bulk Modulus (GPa) = 49.67578 58.62815 54.15197
# Shear Modulus (GPa) = 32.76193 35.35777 34.05985
#
# Velocity S-wave (km/s) = 3.65519 3.79723 3.72689
# Velocity P-wave (km/s) = 6.17023 6.56765 6.37204
#
# Compressibility (1/GPa) = 0.02013053
#
# Stress axis : x y z
#
# Youngs Moduli (GPa) = 140.02842 66.60958 100.68332
#
# Poissons Ratio (x) = 0.13175 0.25596
# Poissons Ratio (y) = 0.27696 0.14678
# Poissons Ratio (z) = 0.35598 0.09710
#
# Static dielectric constant tensor:
#      x y z
#    x 2.115830 0.000000 0.000000 
#    y 0.000000 2.030680 0.000000 
#    z 0.000000 0.000000 1.974320 
# 
# From -- ./inp_files/5752.got.cif
#   From: 2010.05.17/outbox.cif.g08.bks.cpg/sg43_3_cif.got.tgz:5752.got - 2010.06.03 19:21:55.
