data_PCOD9372446
_publ_section_title
;
Structure prediction by ZEFSAII (Michael W. Deem and Ramdas Pophale) SiO2 
 PCOD9372446
Probable space group: F D D 2
;
_chemical_formula_sum "Si O2"
_cell_formula_units_Z 104
_cell_length_a 19.056372
_cell_length_b 17.136830
_cell_length_c 13.734306
_cell_angle_alpha 90.000000
_cell_angle_beta 90.000000
_cell_angle_gamma 90.000000
_cell_volume 4485.154728
_symmetry_space_group_name_H-M "F D D 2"
_symmetry_group_IT_number 43
_symmetry_cell_setting 'orthorhombic'
loop_
_space_group_symop_operation_xyz
x,y,z
-x,-y,z
1/4-x,1/4+y,1/4+z
1/4+x,1/4-y,1/4+z
x,1/2+y,1/2+z
-x,1/2-y,1/2+z
1/4-x,3/4+y,3/4+z
1/4+x,3/4-y,3/4+z
1/2+x,y,1/2+z
1/2-x,-y,1/2+z
3/4-x,1/4+y,3/4+z
3/4+x,1/4-y,3/4+z
1/2+x,1/2+y,z
1/2-x,1/2-y,z
3/4-x,3/4+y,1/4+z
3/4+x,3/4-y,1/4+z
loop_
_atom_site_type_symbol
_atom_site_label
_atom_site_fract_x
_atom_site_fract_y
_atom_site_fract_z
Si Si1 0.893432 0.601245 0.907310
Si Si2 0.991919 0.729019 0.832077
Si Si3 0.283349 0.992702 0.855312
Si Si4 0.355941 0.125974 0.510751
Si Si5 0.841785 0.617296 0.115107
Si Si6 0.250000 0.750000 0.035790
Si Si7 0.375071 0.288195 0.063429
O O1 0.928023 0.683728 0.883954
O O2 0.820150 0.577814 0.855653
O O3 0.946902 0.543026 0.856795
O O4 0.885751 0.586990 0.021825
O O5 0.976203 0.723471 0.718082
O O6 0.981254 0.818861 0.861049
O O7 0.066953 0.684342 0.836638
O O8 0.333605 0.927454 0.809463
O O9 0.206427 0.990298 0.812172
O O10 0.294663 0.186592 0.478562
O O11 0.382074 0.084292 0.414385
O O12 0.879940 0.593762 0.217119
O O13 0.832464 0.707811 0.083845
#
# Coordination Sequence:
#
# PCOD9372446 Si02
#       7
#    16  16  16  16  16   8  16
#     4   9  17  37  64  96 124 162 221 289 341 384
#     4   9  18  37  68  92 128 162 226 290 334 397
#     4   9  20  39  66  94 122 170 226 284 335 395
#     4   9  19  41  66  96 125 170 227 289 339 392
#     4  11  22  42  61  91 141 182 220 270 337 422
#     4   8  16  36  70 102 116 152 234 304 340 366
#     4  11  24  44  62  93 142 182 226 268 342 424
#
# _framework density 23.187607
#
# number of rings (size 3 to 8) (size 9 to 14) (size 15 to 20)
#    0.000    2.462    1.538    0.000    0.000    1.231 
#   24.923    0.000    0.000    0.000    0.000    0.000 
#    0.000    0.000    0.000    0.000    0.000    0.000 
#
# Total GULP energy -144961.830182 kJ/mol
# GULP energy per Si atom -5575.455007 kJ/mol
# Density = 2.313483 g / cm^3
# Si number density = 23.187607 Si / 1000 Ang^3
#
#
#
# Elastic Constant Matrix: (Units=GPa)
#
#
# Indices 1 2 3 4 5 6 
#
# 1 64.4428 24.4073 5.9507 0.0000 0.0000 0.0000
# 2 24.4073 95.2453 30.8393 0.0000 0.0000 0.0000
# 3 5.9507 30.8393 105.6671 0.0000 0.0000 0.0000
# 4 0.0000 0.0000 0.0000 9.5930 0.0000 0.0000
# 5 0.0000 0.0000 0.0000 0.0000 8.8491 0.0000
# 6 0.0000 0.0000 0.0000 0.0000 0.0000 21.5000
#
#
#
# Elastic Compliance Matrix: (Units=1/GPa)
#
#
# Indices 1 2 3 4 5 6 
#
# 1 0.017197 -0.004521 0.000351 0.000000 0.000000 0.000000
# 2 -0.004521 0.012783 -0.003476 0.000000 0.000000 0.000000
# 3 0.000351 -0.003476 0.010458 0.000000 0.000000 0.000000
# 4 0.000000 0.000000 0.000000 0.104242 0.000000 0.000000
# 5 0.000000 0.000000 0.000000 0.000000 0.113006 0.000000
# 6 0.000000 0.000000 0.000000 0.000000 0.000000 0.046512
#
#
# Mechanical properties :
#
#
# Convention : Reuss Voigt Hill
#
# Bulk Modulus (GPa) = 39.76592 43.08333 41.42463
# Shear Modulus (GPa) = 15.24982 21.59895 18.42439
#
# Velocity S-wave (km/s) = 2.56729 3.05534 2.82189
# Velocity P-wave (km/s) = 5.09655 5.57382 5.34052
#
# Compressibility (1/GPa) = 0.02514716
#
# Stress axis : x y z
#
# Youngs Moduli (GPa) = 58.14843 78.22761 95.61621
#
# Poissons Ratio (x) = 0.35363 -0.03355
# Poissons Ratio (y) = 0.26286 0.33239
# Poissons Ratio (z) = -0.02040 0.27194
#
# Static dielectric constant tensor:
#      x y z
#    x 1.911990 0.000000 0.000000 
#    y 0.000000 2.338300 0.000000 
#    z 0.000000 0.000000 1.881240 
# 
# From -- ./inp_files/11315.got.cif
#   From: 2010.05.17/outbox.cif.g08.bks.cpg/sg43_6_cif.got.tgz:11315.got - 2010.06.03 19:21:55.
