data_PCOD9372447
_publ_section_title
;
Structure prediction by ZEFSAII (Michael W. Deem and Ramdas Pophale) SiO2 
 PCOD9372447
Probable space group: F D D 2
;
_chemical_formula_sum "Si O2"
_cell_formula_units_Z 80
_cell_length_a 10.334545
_cell_length_b 21.697395
_cell_length_c 14.275852
_cell_angle_alpha 90.000000
_cell_angle_beta 90.000000
_cell_angle_gamma 90.000000
_cell_volume 3201.112910
_symmetry_space_group_name_H-M "F D D 2"
_symmetry_group_IT_number 43
_symmetry_cell_setting 'orthorhombic'
loop_
_space_group_symop_operation_xyz
x,y,z
-x,-y,z
1/4-x,1/4+y,1/4+z
1/4+x,1/4-y,1/4+z
x,1/2+y,1/2+z
-x,1/2-y,1/2+z
1/4-x,3/4+y,3/4+z
1/4+x,3/4-y,3/4+z
1/2+x,y,1/2+z
1/2-x,-y,1/2+z
3/4-x,1/4+y,3/4+z
3/4+x,1/4-y,3/4+z
1/2+x,1/2+y,z
1/2-x,1/2-y,z
3/4-x,3/4+y,1/4+z
3/4+x,3/4-y,1/4+z
loop_
_atom_site_type_symbol
_atom_site_label
_atom_site_fract_x
_atom_site_fract_y
_atom_site_fract_z
Si Si1 0.096325 0.147394 0.630610
Si Si2 0.596142 0.177703 0.340047
Si Si3 0.890733 0.577131 0.405076
Si Si4 0.116368 0.875287 0.086559
Si Si5 0.002314 0.254919 0.510182
O O1 0.088617 0.185535 0.728445
O O2 0.241024 0.122434 0.625638
O O3 0.987526 0.094701 0.623601
O O4 0.065816 0.192775 0.544757
O O5 0.501139 0.120052 0.361819
O O6 0.550429 0.233280 0.406320
O O7 0.918065 0.569825 0.514659
O O8 0.753206 0.614069 0.405590
O O9 0.860129 0.520523 0.336897
O O10 0.101733 0.810845 0.028789
#
# Coordination Sequence:
#
# PCOD9372447 Si02
#       5
#    16  16  16  16  16
#     4  12  22  41  67  95 131 162 221 281 317 383
#     4  11  22  42  65  95 129 174 210 274 327 376
#     4   9  18  40  61  84 130 164 205 252 314 396
#     4   9  19  37  62  91 123 168 203 257 322 376
#     4   9  22  41  63  90 132 167 217 247 335 397
#
# _framework density 24.991308
#
# number of rings (size 3 to 8) (size 9 to 14) (size 15 to 20)
#    1.200    0.800    2.000    1.800    0.000    0.800 
#    7.200    0.000    4.400    0.000    0.000    0.000 
#    0.000    0.000    0.000    0.000    0.000    0.000 
#
# Total GULP energy -111696.989245 kJ/mol
# GULP energy per Si atom -5584.849462 kJ/mol
# Density = 2.493443 g / cm^3
# Si number density = 24.991308 Si / 1000 Ang^3
#
#
#
# Elastic Constant Matrix: (Units=GPa)
#
#
# Indices 1 2 3 4 5 6 
#
# 1 149.6477 34.4950 2.1523 0.0000 0.0000 0.0000
# 2 34.4950 72.7174 37.0344 0.0000 0.0000 0.0000
# 3 2.1523 37.0344 128.3790 0.0000 0.0000 0.0000
# 4 0.0000 0.0000 0.0000 26.2756 0.0000 0.0000
# 5 0.0000 0.0000 0.0000 0.0000 22.2804 0.0000
# 6 0.0000 0.0000 0.0000 0.0000 0.0000 23.3711
#
#
#
# Elastic Compliance Matrix: (Units=1/GPa)
#
#
# Indices 1 2 3 4 5 6 
#
# 1 0.007627 -0.004165 0.001074 0.000000 0.000000 0.000000
# 2 -0.004165 0.018394 -0.005237 0.000000 0.000000 0.000000
# 3 0.001074 -0.005237 0.009282 0.000000 0.000000 0.000000
# 4 0.000000 0.000000 0.000000 0.038058 0.000000 0.000000
# 5 0.000000 0.000000 0.000000 0.000000 0.044883 0.000000
# 6 0.000000 0.000000 0.000000 0.000000 0.000000 0.042788
#
#
# Mechanical properties :
#
#
# Convention : Reuss Voigt Hill
#
# Bulk Modulus (GPa) = 53.62516 55.34527 54.48521
# Shear Modulus (GPa) = 27.18820 32.85626 30.02223
#
# Velocity S-wave (km/s) = 3.30192 3.62982 3.46975
# Velocity P-wave (km/s) = 6.00342 6.30566 6.15639
#
# Compressibility (1/GPa) = 0.01864796
#
# Stress axis : x y z
#
# Youngs Moduli (GPa) = 131.11436 54.36432 107.73476
#
# Poissons Ratio (x) = 0.22641 -0.11566
# Poissons Ratio (y) = 0.54606 0.56416
# Poissons Ratio (z) = -0.14076 0.28468
#
# Static dielectric constant tensor:
#      x y z
#    x 1.930910 0.000000 0.000000 
#    y 0.000000 1.955840 0.000000 
#    z 0.000000 0.000000 2.009310 
# 
# From -- ./inp_files/9622.got.cif
#   From: 2010.05.17/outbox.cif.g08.bks.cpg/sg43_5_cif.got.tgz:9622.got - 2010.06.03 19:21:55.
