data_PCOD9372128
_publ_section_title
;
Structure prediction by ZEFSAII (Michael W. Deem and Ramdas Pophale) SiO2 
 PCOD9372128
Probable space group: F D D 2
;
_chemical_formula_sum "Si O2"
_cell_formula_units_Z 56
_cell_length_a 16.639375
_cell_length_b 17.856692
_cell_length_c 6.875202
_cell_angle_alpha 90.000000
_cell_angle_beta 90.000000
_cell_angle_gamma 90.000000
_cell_volume 2042.788856
_symmetry_space_group_name_H-M "F D D 2"
_symmetry_group_IT_number 43
_symmetry_cell_setting 'orthorhombic'
loop_
_space_group_symop_operation_xyz
x,y,z
-x,-y,z
1/4-x,1/4+y,1/4+z
1/4+x,1/4-y,1/4+z
x,1/2+y,1/2+z
-x,1/2-y,1/2+z
1/4-x,3/4+y,3/4+z
1/4+x,3/4-y,3/4+z
1/2+x,y,1/2+z
1/2-x,-y,1/2+z
3/4-x,1/4+y,3/4+z
3/4+x,1/4-y,3/4+z
1/2+x,1/2+y,z
1/2-x,1/2-y,z
3/4-x,3/4+y,1/4+z
3/4+x,3/4-y,1/4+z
loop_
_atom_site_type_symbol
_atom_site_label
_atom_site_fract_x
_atom_site_fract_y
_atom_site_fract_z
Si Si1 0.307288 0.542002 0.139780
Si Si2 0.091074 0.097597 0.099485
Si Si3 0.250000 0.250000 0.631033
Si Si4 0.118357 0.072266 0.655410
O O1 0.346267 0.601391 0.288693
O O2 0.212226 0.552393 0.156380
O O3 0.427780 0.491817 0.534267
O O4 0.335421 0.456578 0.165957
O O5 0.085383 0.087262 0.871251
O O6 0.094365 0.181063 0.182275
O O7 0.016779 0.065298 0.225329
#
# Coordination Sequence:
#
# PCOD9372128 Si02
#       4
#    16  16   8  16
#     4  11  27  48  76 123 160 215 278 331 410 499
#     4  11  26  48  80 114 165 212 271 338 412 483
#     4  10  24  46  72 114 148 204 268 330 402 494
#     4  11  26  47  80 112 165 205 270 338 411 483
#
# _framework density 27.413505000000001
#
# number of rings (size 3 to 8) (size 9 to 14) (size 15 to 20)
#    0.000    1.143    0.000    4.286    8.000   16.000 
#    0.000    0.000    0.000    0.000    0.000    0.000 
#    0.000    0.000    0.000    0.000    0.000    0.000 
#
# Total GULP energy -78420.665401 kJ/mol
# GULP energy per Si atom -5601.476100 kJ/mol
# Density = 2.735111 g / cm^3
# Si number density = 27.413505 Si / 1000 Ang^3
#
#
#
# Elastic Constant Matrix: (Units=GPa)
#
#
# Indices 1 2 3 4 5 6 
#
# 1 220.3538 65.7373 81.7485 0.0001 -0.0001 -0.0001
# 2 65.7373 99.4379 41.3545 0.0005 -0.0002 -0.0002
# 3 81.7485 41.3545 250.6219 0.0012 -0.0009 -0.0005
# 4 0.0001 0.0005 0.0012 45.2908 -0.0004 -0.0002
# 5 -0.0001 -0.0002 -0.0009 -0.0004 34.0691 0.0002
# 6 -0.0001 -0.0002 -0.0005 -0.0002 0.0002 44.7684
#
#
#
# Elastic Compliance Matrix: (Units=1/GPa)
#
#
# Indices 1 2 3 4 5 6 
#
# 1 0.006090 -0.003435 -0.001419 0.000000 0.000000 0.000000
# 2 -0.003435 0.012736 -0.000981 0.000000 0.000000 0.000000
# 3 -0.001419 -0.000981 0.004615 0.000000 0.000000 0.000000
# 4 0.000000 0.000000 0.000000 0.022080 0.000000 0.000000
# 5 0.000000 0.000000 0.000000 0.000000 0.029352 0.000000
# 6 0.000000 0.000000 0.000000 0.000000 0.000000 0.022337
#
#
# Mechanical properties :
#
#
# Convention : Reuss Voigt Hill
#
# Bulk Modulus (GPa) = 84.97212 105.34381 95.15796
# Shear Modulus (GPa) = 44.32487 50.26388 47.29437
#
# Velocity S-wave (km/s) = 4.02543 4.28664 4.15808
# Velocity P-wave (km/s) = 7.25735 7.93798 7.60528
#
# Compressibility (1/GPa) = 0.01176857
#
# Stress axis : x y z
#
# Youngs Moduli (GPa) = 164.21316 78.52000 216.68800
#
# Poissons Ratio (x) = 0.26975 0.30758
# Poissons Ratio (y) = 0.56415 0.21255
# Poissons Ratio (z) = 0.23309 0.07702
#
# Static dielectric constant tensor:
#      x y z
#    x 2.148450 0.000000 0.000000 
#    y 0.000000 2.318830 0.000000 
#    z 0.000000 0.000000 2.114550 
# 
# From -- ./inp_files/2530.got.cif
#   From: 2010.05.17/outbox.cif.g08.bks.cpg/sg43_2_cif.got.tgz:2530.got - 2010.06.03 19:21:55.
