data_PCOD9372633
_publ_section_title
;
Structure prediction by ZEFSAII (Michael W. Deem and Ramdas Pophale) SiO2 
 PCOD9372633
Probable space group: F D D 2
;
_chemical_formula_sum "Si O2"
_cell_formula_units_Z 120
_cell_length_a 25.263056
_cell_length_b 24.266704
_cell_length_c 9.439247
_cell_angle_alpha 90.000000
_cell_angle_beta 90.000000
_cell_angle_gamma 90.000000
_cell_volume 5786.740776
_symmetry_space_group_name_H-M "F D D 2"
_symmetry_group_IT_number 43
_symmetry_cell_setting 'orthorhombic'
loop_
_space_group_symop_operation_xyz
x,y,z
-x,-y,z
1/4-x,1/4+y,1/4+z
1/4+x,1/4-y,1/4+z
x,1/2+y,1/2+z
-x,1/2-y,1/2+z
1/4-x,3/4+y,3/4+z
1/4+x,3/4-y,3/4+z
1/2+x,y,1/2+z
1/2-x,-y,1/2+z
3/4-x,1/4+y,3/4+z
3/4+x,1/4-y,3/4+z
1/2+x,1/2+y,z
1/2-x,1/2-y,z
3/4-x,3/4+y,1/4+z
3/4+x,3/4-y,1/4+z
loop_
_atom_site_type_symbol
_atom_site_label
_atom_site_fract_x
_atom_site_fract_y
_atom_site_fract_z
Si Si1 0.091807 0.154963 0.308810
Si Si2 0.838519 0.231535 0.480651
Si Si3 0.457609 0.361982 0.784642
Si Si4 0.804465 0.519337 0.803948
Si Si5 0.806006 0.539143 0.284681
Si Si6 0.750000 0.250000 0.931346
Si Si7 0.293242 0.823282 0.690438
Si Si8 0.838765 0.218712 0.153439
O O1 0.082277 0.203473 0.419504
O O2 0.057190 0.173289 0.174236
O O3 0.151750 0.155224 0.252973
O O4 0.079666 0.096608 0.381238
O O5 0.822190 0.168558 0.503622
O O6 0.899040 0.242227 0.529167
O O7 0.806371 0.273260 0.581962
O O8 0.828043 0.240032 0.312855
O O9 0.461841 0.320043 0.655357
O O10 0.513170 0.380396 0.852078
O O11 0.427877 0.328479 0.906218
O O12 0.751799 0.486262 0.765502
O O13 0.849646 0.482307 0.875926
O O14 0.741435 0.199279 0.822297
O O15 0.800622 0.245461 0.034678
#
# Coordination Sequence:
#
# PCOD9372633 Si02
#       8
#    16  16  16  16  16   8  16  16
#     4  11  25  44  71 104 136 184 228 289 356 408
#     4  11  25  44  69 102 140 180 234 281 347 420
#     4  12  23  45  71  98 142 187 225 286 350 408
#     4  12  25  47  69 103 142 179 233 289 349 414
#     4  11  26  44  72 102 137 183 232 286 345 421
#     4  12  24  42  72  94 138 176 224 294 332 400
#     4  11  24  46  71 103 137 182 237 282 341 426
#     4  12  26  45  68 103 139 176 231 290 343 420
#
# _framework density 20.737062000000002
#
# number of rings (size 3 to 8) (size 9 to 14) (size 15 to 20)
#    0.000    0.533    5.333    2.400    1.867    2.133 
#    2.400    0.000    0.000    0.000    0.000    0.000 
#    0.000    0.000    0.000    0.000    0.000    0.000 
#
# Total GULP energy -167653.188540 kJ/mol
# GULP energy per Si atom -5588.439618 kJ/mol
# Density = 2.068986 g / cm^3
# Si number density = 20.737062 Si / 1000 Ang^3
#
#
#
# Elastic Constant Matrix: (Units=GPa)
#
#
# Indices 1 2 3 4 5 6 
#
# 1 92.5919 17.8074 19.1834 0.0003 -0.0002 0.0000
# 2 17.8074 74.6017 27.6297 0.0004 -0.0002 -0.0001
# 3 19.1834 27.6297 112.3890 0.0016 -0.0009 -0.0004
# 4 0.0003 0.0004 0.0016 29.6115 -0.0005 -0.0004
# 5 -0.0002 -0.0002 -0.0009 -0.0005 31.9364 0.0002
# 6 0.0000 -0.0001 -0.0004 -0.0004 0.0002 13.6259
#
#
#
# Elastic Compliance Matrix: (Units=1/GPa)
#
#
# Indices 1 2 3 4 5 6 
#
# 1 0.011522 -0.002224 -0.001420 0.000000 0.000000 0.000000
# 2 -0.002224 0.015177 -0.003351 0.000000 0.000000 0.000000
# 3 -0.001420 -0.003351 0.009964 0.000000 0.000000 0.000000
# 4 0.000000 0.000000 0.000000 0.033771 0.000001 0.000001
# 5 0.000000 0.000000 0.000000 0.000001 0.031312 0.000000
# 6 0.000000 0.000000 0.000000 0.000001 0.000000 0.073389
#
#
# Mechanical properties :
#
#
# Convention : Reuss Voigt Hill
#
# Bulk Modulus (GPa) = 44.10842 45.42487 44.76664
# Shear Modulus (GPa) = 25.42157 29.36558 27.39357
#
# Velocity S-wave (km/s) = 3.50508 3.76718 3.63849
# Velocity P-wave (km/s) = 6.13981 6.39335 6.26786
#
# Compressibility (1/GPa) = 0.02267141
#
# Stress axis : x y z
#
# Youngs Moduli (GPa) = 86.79011 65.89044 100.36230
#
# Poissons Ratio (x) = 0.14657 0.14250
# Poissons Ratio (y) = 0.19306 0.33635
# Poissons Ratio (z) = 0.12323 0.22082
#
# Static dielectric constant tensor:
#      x y z
#    x 1.731930 0.000000 0.000000 
#    y 0.000000 1.722680 0.000000 
#    z 0.000000 0.000000 1.785410 
# 
# From -- ./inp_files/4335.got.cif
#   From: 2010.05.17/outbox.cif.g08.bks.cpg/sg43_3_cif.got.tgz:4335.got - 2010.06.03 19:21:55.
