data_PCOD9372081
_publ_section_title
;
Structure prediction by ZEFSAII (Michael W. Deem and Ramdas Pophale) SiO2 
 PCOD9372081
Probable space group: F D D 2
;
_chemical_formula_sum "Si O2"
_cell_formula_units_Z 112
_cell_length_a 24.053357
_cell_length_b 14.319357
_cell_length_c 14.630359
_cell_angle_alpha 90.000000
_cell_angle_beta 90.000000
_cell_angle_gamma 90.000000
_cell_volume 5039.114155
_symmetry_space_group_name_H-M "F D D 2"
_symmetry_group_IT_number 43
_symmetry_cell_setting 'orthorhombic'
loop_
_space_group_symop_operation_xyz
x,y,z
-x,-y,z
1/4-x,1/4+y,1/4+z
1/4+x,1/4-y,1/4+z
x,1/2+y,1/2+z
-x,1/2-y,1/2+z
1/4-x,3/4+y,3/4+z
1/4+x,3/4-y,3/4+z
1/2+x,y,1/2+z
1/2-x,-y,1/2+z
3/4-x,1/4+y,3/4+z
3/4+x,1/4-y,3/4+z
1/2+x,1/2+y,z
1/2-x,1/2-y,z
3/4-x,3/4+y,1/4+z
3/4+x,3/4-y,1/4+z
loop_
_atom_site_type_symbol
_atom_site_label
_atom_site_fract_x
_atom_site_fract_y
_atom_site_fract_z
Si Si1 0.436379 0.031255 0.519360
Si Si2 0.829587 0.408017 0.298681
Si Si3 0.120761 0.943667 0.396029
Si Si4 0.385144 0.840608 0.933722
Si Si5 0.780261 0.436075 0.633087
Si Si6 0.595390 0.664662 0.953216
Si Si7 0.491838 0.387238 0.687863
O O1 0.415007 0.065813 0.615969
O O2 0.434657 0.111599 0.442962
O O3 0.500000 0.000000 0.524849
O O4 0.402029 0.939808 0.491726
O O5 0.824136 0.365791 0.197863
O O6 0.858251 0.507858 0.279629
O O7 0.866194 0.339563 0.363503
O O8 0.772101 0.411516 0.352196
O O9 0.122745 0.937710 0.287454
O O10 0.178301 0.897087 0.432699
O O11 0.110692 0.048537 0.427796
O O12 0.438306 0.783860 0.895526
O O13 0.718150 0.435034 0.674747
O O14 0.771039 0.399750 0.530118
O O15 0.500000 0.500000 0.683426
#
# Coordination Sequence:
#
# PCOD9372081 Si02
#       7
#    16  16  16  16  16  16  16
#     4  10  24  44  71 101 141 185 249 317 366 447
#     4  12  26  43  73 106 148 197 244 312 388 448
#     4  12  27  48  70 107 157 196 256 308 371 472
#     4  12  25  48  70 102 150 202 240 305 384 448
#     4  11  24  47  75 106 147 189 250 322 381 457
#     4  11  24  44  73 109 142 185 254 314 381 443
#     4  12  25  46  79 113 148 196 257 322 390 455
#
# _framework density 22.226127999999999
#
# number of rings (size 3 to 8) (size 9 to 14) (size 15 to 20)
#    0.000    0.571    2.857    5.571    6.000    1.143 
#    0.000    0.714    0.000    0.000    0.000    0.000 
#    0.000    0.000    0.000    0.000    0.000    0.000 
#
# Total GULP energy -156665.189109 kJ/mol
# GULP energy per Si atom -5595.185325 kJ/mol
# Density = 2.217554 g / cm^3
# Si number density = 22.226128 Si / 1000 Ang^3
#
#
#
# Elastic Constant Matrix: (Units=GPa)
#
#
# Indices 1 2 3 4 5 6 
#
# 1 48.3719 24.6993 25.8843 0.0000 0.0000 0.0000
# 2 24.6993 120.9105 -1.1777 0.0000 0.0000 0.0000
# 3 25.8843 -1.1777 83.0369 0.0000 0.0000 0.0000
# 4 0.0000 0.0000 0.0000 42.1421 0.0000 0.0000
# 5 0.0000 0.0000 0.0000 0.0000 41.2067 0.0000
# 6 0.0000 0.0000 0.0000 0.0000 0.0000 37.1245
#
#
#
# Elastic Compliance Matrix: (Units=1/GPa)
#
#
# Indices 1 2 3 4 5 6 
#
# 1 0.028485 -0.005906 -0.008963 0.000000 0.000000 0.000000
# 2 -0.005906 0.009496 0.001976 0.000000 0.000000 0.000000
# 3 -0.008963 0.001976 0.014865 0.000000 0.000000 0.000000
# 4 0.000000 0.000000 0.000000 0.023729 0.000000 0.000000
# 5 0.000000 0.000000 0.000000 0.000000 0.024268 0.000000
# 6 0.000000 0.000000 0.000000 0.000000 0.000000 0.026936
#
#
# Mechanical properties :
#
#
# Convention : Reuss Voigt Hill
#
# Bulk Modulus (GPa) = 36.95604 39.01458 37.98531
# Shear Modulus (GPa) = 30.75276 37.62220 34.18748
#
# Velocity S-wave (km/s) = 3.72375 4.11871 3.92620
# Velocity P-wave (km/s) = 5.92890 6.34113 6.13848
#
# Compressibility (1/GPa) = 0.02705918
#
# Stress axis : x y z
#
# Youngs Moduli (GPa) = 35.10587 105.30386 67.27267
#
# Poissons Ratio (x) = 0.62195 0.60298
# Poissons Ratio (y) = 0.20734 -0.13291
# Poissons Ratio (z) = 0.31466 -0.20806
#
# Static dielectric constant tensor:
#      x y z
#    x 1.828380 0.000000 0.000000 
#    y 0.000000 1.850750 0.000000 
#    z 0.000000 0.000000 1.796630 
# 
# From -- ./inp_files/10207.got.cif
#   From: 2010.05.17/outbox.cif.g08.bks.cpg/sg43_6_cif.got.tgz:10207.got - 2010.06.03 19:21:55.
