data_PCOD9372941
_publ_section_title
;
Structure prediction by ZEFSAII (Michael W. Deem and Ramdas Pophale) SiO2 
 PCOD9372941
Probable space group: F D D 2
;
_chemical_formula_sum "Si O2"
_cell_formula_units_Z 40
_cell_length_a 17.629168
_cell_length_b 13.042398
_cell_length_c 4.882838
_cell_angle_alpha 90.000000
_cell_angle_beta 90.000000
_cell_angle_gamma 90.000000
_cell_volume 1122.694464
_symmetry_space_group_name_H-M "F D D 2"
_symmetry_group_IT_number 43
_symmetry_cell_setting 'orthorhombic'
loop_
_space_group_symop_operation_xyz
x,y,z
-x,-y,z
1/4-x,1/4+y,1/4+z
1/4+x,1/4-y,1/4+z
x,1/2+y,1/2+z
-x,1/2-y,1/2+z
1/4-x,3/4+y,3/4+z
1/4+x,3/4-y,3/4+z
1/2+x,y,1/2+z
1/2-x,-y,1/2+z
3/4-x,1/4+y,3/4+z
3/4+x,1/4-y,3/4+z
1/2+x,1/2+y,z
1/2-x,1/2-y,z
3/4-x,3/4+y,1/4+z
3/4+x,3/4-y,1/4+z
loop_
_atom_site_type_symbol
_atom_site_label
_atom_site_fract_x
_atom_site_fract_y
_atom_site_fract_z
Si Si1 0.225325 0.895665 0.884130
Si Si2 0.500000 0.500000 0.621925
Si Si3 0.870269 0.925410 0.667952
O O1 0.202627 0.821348 0.628726
O O2 0.189743 0.004896 0.852545
O O3 0.204802 0.841397 0.170624
O O4 0.314821 0.906628 0.900265
O O5 0.409852 0.559070 0.568971
#
# Coordination Sequence:
#
# PCOD9372941 Si02
#       3
#    16   8  16
#     4  12  31  57  89 134 179 237 302 375 447 541
#     4  12  30  54  90 134 172 236 302 378 436 552
#     4  12  31  56  91 131 179 237 304 371 450 536
#
# _framework density 35.628574999999998
#
# number of rings (size 3 to 8) (size 9 to 14) (size 15 to 20)
#    0.000    0.000    4.000    1.200   22.400    0.000 
#    0.000    0.000    0.000    0.000    0.000    0.000 
#    0.000    0.000    0.000    0.000    0.000    0.000 
#
# Total GULP energy -55928.075294 kJ/mol
# GULP energy per Si atom -5592.807529 kJ/mol
# Density = 3.554748 g / cm^3
# Si number density = 35.628575 Si / 1000 Ang^3
#
#
#
# Elastic Constant Matrix: (Units=GPa)
#
#
# Indices 1 2 3 4 5 6 
#
# 1 500.0516 177.8244 75.2137 0.0003 -0.0008 0.0002
# 2 177.8244 329.6105 145.7253 0.0028 -0.0010 -0.0010
# 3 75.2137 145.7253 374.3605 0.0149 -0.0065 -0.0009
# 4 0.0003 0.0028 0.0149 111.8268 -0.0019 -0.0008
# 5 -0.0008 -0.0010 -0.0065 -0.0019 49.5833 0.0004
# 6 0.0002 -0.0010 -0.0009 -0.0008 0.0004 51.8228
#
#
#
# Elastic Compliance Matrix: (Units=1/GPa)
#
#
# Indices 1 2 3 4 5 6 
#
# 1 0.002475 -0.001347 0.000027 0.000000 0.000000 0.000000
# 2 -0.001347 0.004398 -0.001441 0.000000 0.000000 0.000000
# 3 0.000027 -0.001441 0.003227 0.000000 0.000000 0.000000
# 4 0.000000 0.000000 0.000000 0.008942 0.000000 0.000000
# 5 0.000000 0.000000 0.000000 0.000000 0.020168 0.000000
# 6 0.000000 0.000000 0.000000 0.000000 0.000000 0.019297
#
#
# Mechanical properties :
#
#
# Convention : Reuss Voigt Hill
#
# Bulk Modulus (GPa) = 218.48579 222.39436 220.44007
# Shear Modulus (GPa) = 76.27231 96.33055 86.30143
#
# Velocity S-wave (km/s) = 4.63186 5.20539 4.92698
# Velocity P-wave (km/s) = 9.49009 9.93398 9.71457
#
# Compressibility (1/GPa) = 0.00457696
#
# Stress axis : x y z
#
# Youngs Moduli (GPa) = 404.07818 227.38228 309.90474
#
# Poissons Ratio (x) = 0.30632 -0.00843
# Poissons Ratio (y) = 0.54436 0.44666
# Poissons Ratio (z) = -0.01099 0.32772
#
# Static dielectric constant tensor:
#      x y z
#    x 3.146220 0.000000 0.000000 
#    y 0.000000 3.214990 0.000000 
#    z 0.000000 0.000000 2.940100 
# 
# From -- ./inp_files/232.got.cif
#   From: 2010.05.17/outbox.cif.g08.bks.cpg/sg43_1_cif.got.tgz:232.got - 2010.06.03 19:21:55.
