data_PCOD9372374
_publ_section_title
;
Structure prediction by ZEFSAII (Michael W. Deem and Ramdas Pophale) SiO2 
 PCOD9372374
Probable space group: F D D 2
;
_chemical_formula_sum "Si O2"
_cell_formula_units_Z 72
_cell_length_a 7.821262
_cell_length_b 14.417313
_cell_length_c 23.690617
_cell_angle_alpha 90.000000
_cell_angle_beta 90.000000
_cell_angle_gamma 90.000000
_cell_volume 2671.391459
_symmetry_space_group_name_H-M "F D D 2"
_symmetry_group_IT_number 43
_symmetry_cell_setting 'orthorhombic'
loop_
_space_group_symop_operation_xyz
x,y,z
-x,-y,z
1/4-x,1/4+y,1/4+z
1/4+x,1/4-y,1/4+z
x,1/2+y,1/2+z
-x,1/2-y,1/2+z
1/4-x,3/4+y,3/4+z
1/4+x,3/4-y,3/4+z
1/2+x,y,1/2+z
1/2-x,-y,1/2+z
3/4-x,1/4+y,3/4+z
3/4+x,1/4-y,3/4+z
1/2+x,1/2+y,z
1/2-x,1/2-y,z
3/4-x,3/4+y,1/4+z
3/4+x,3/4-y,1/4+z
loop_
_atom_site_type_symbol
_atom_site_label
_atom_site_fract_x
_atom_site_fract_y
_atom_site_fract_z
Si Si1 0.618194 0.652256 0.070490
Si Si2 0.412385 0.821224 0.231675
Si Si3 0.500000 0.000000 0.656545
Si Si4 0.335429 0.066238 0.861523
Si Si5 0.976253 0.864061 0.254824
O O1 0.609775 0.563904 0.113448
O O2 0.570647 0.744826 0.104964
O O3 0.454723 0.651484 0.027441
O O4 0.784652 0.639379 0.031642
O O5 0.250000 0.750000 0.235486
O O6 0.427760 0.868612 0.170809
O O7 0.553117 0.740436 0.236910
O O8 0.555863 0.922369 0.702765
O O9 0.395541 0.125748 0.808170
O O10 0.500000 0.000000 0.869039
#
# Coordination Sequence:
#
# PCOD9372374 Si02
#       5
#    16  16   8  16  16
#     4  11  21  39  64  97 122 171 222 260 327 388
#     4  11  23  40  62  94 135 168 210 271 331 388
#     4  12  20  34  74  90 122 160 224 270 316 388
#     4   9  20  39  64  88 127 173 219 262 319 388
#     4  11  21  41  64  92 122 171 221 265 316 393
#
# _framework density 26.952248000000001
#
# number of rings (size 3 to 8) (size 9 to 14) (size 15 to 20)
#    0.000    1.333    7.778    0.000    0.000    0.000 
#    4.000    1.111    0.000    0.000    0.000    0.000 
#    0.000    0.000    0.000    0.000    0.000    0.000 
#
# Total GULP energy -100424.490183 kJ/mol
# GULP energy per Si atom -5579.138344 kJ/mol
# Density = 2.689090 g / cm^3
# Si number density = 26.952248 Si / 1000 Ang^3
#
#
#
# Elastic Constant Matrix: (Units=GPa)
#
#
# Indices 1 2 3 4 5 6 
#
# 1 140.1189 1.1713 43.1669 0.0000 0.0000 0.0000
# 2 1.1713 76.0575 48.6303 0.0000 0.0000 0.0000
# 3 43.1669 48.6303 232.8343 0.0000 0.0000 0.0000
# 4 0.0000 0.0000 0.0000 -9.0568 0.0000 0.0000
# 5 0.0000 0.0000 0.0000 0.0000 14.3134 0.0000
# 6 0.0000 0.0000 0.0000 0.0000 0.0000 35.6232
#
#
#
# Elastic Compliance Matrix: (Units=1/GPa)
#
#
# Indices 1 2 3 4 5 6 
#
# 1 0.007623 0.000907 -0.001603 0.000000 0.000000 0.000000
# 2 0.000907 0.015282 -0.003360 0.000000 0.000000 0.000000
# 3 -0.001603 -0.003360 0.005294 0.000000 0.000000 0.000000
# 4 0.000000 0.000000 0.000000 -0.110414 0.000000 0.000000
# 5 0.000000 0.000000 0.000000 0.000000 0.069864 0.000000
# 6 0.000000 0.000000 0.000000 0.000000 0.000000 0.028072
#
#
# Mechanical properties :
#
#
# Convention : Reuss Voigt Hill
#
# Bulk Modulus (GPa) = 49.78046 70.54973 60.16510
# Shear Modulus (GPa) = 163.78187 31.91211 97.84699
#
# Velocity S-wave (km/s) = 7.80380 3.44470 6.03180
# Velocity P-wave (km/s) = 9.98544 6.48490 8.41912
#
# Compressibility (1/GPa) = 0.02008820
#
# Stress axis : x y z
#
# Youngs Moduli (GPa) = 131.18208 65.43464 188.89783
#
# Poissons Ratio (x) = -0.05938 0.30277
# Poissons Ratio (y) = -0.11904 0.63473
# Poissons Ratio (z) = 0.21026 0.21987
#
# Static dielectric constant tensor:
#      x y z
#    x 2.332950 0.000000 0.000000 
#    y 0.000000 2.163910 0.000000 
#    z 0.000000 0.000000 2.147790 
# 
# From -- ./inp_files/24065.got.cif
#   From: 2010.05.17/outbox.cif.g08.bks.cpg/sg43_13_cif.got.tgz:24065.got - 2010.06.03 19:21:55.
