data_PCOD9372227
_publ_section_title
;
Structure prediction by ZEFSAII (Michael W. Deem and Ramdas Pophale) SiO2 
 PCOD9372227
Probable space group: F D D 2
;
_chemical_formula_sum "Si O2"
_cell_formula_units_Z 64
_cell_length_a 18.466412
_cell_length_b 9.330976
_cell_length_c 13.085263
_cell_angle_alpha 90.000000
_cell_angle_beta 90.000000
_cell_angle_gamma 90.000000
_cell_volume 2254.717051
_symmetry_space_group_name_H-M "F D D 2"
_symmetry_group_IT_number 43
_symmetry_cell_setting 'orthorhombic'
loop_
_space_group_symop_operation_xyz
x,y,z
-x,-y,z
1/4-x,1/4+y,1/4+z
1/4+x,1/4-y,1/4+z
x,1/2+y,1/2+z
-x,1/2-y,1/2+z
1/4-x,3/4+y,3/4+z
1/4+x,3/4-y,3/4+z
1/2+x,y,1/2+z
1/2-x,-y,1/2+z
3/4-x,1/4+y,3/4+z
3/4+x,1/4-y,3/4+z
1/2+x,1/2+y,z
1/2-x,1/2-y,z
3/4-x,3/4+y,1/4+z
3/4+x,3/4-y,1/4+z
loop_
_atom_site_type_symbol
_atom_site_label
_atom_site_fract_x
_atom_site_fract_y
_atom_site_fract_z
Si Si1 0.127421 0.785929 0.830640
Si Si2 0.729218 0.559524 0.388565
Si Si3 0.408478 0.434883 0.735835
Si Si4 0.527439 0.294947 0.365201
O O1 0.187426 0.896084 0.876161
O O2 0.180383 0.651470 0.810660
O O3 0.057381 0.715535 0.883589
O O4 0.088818 0.895756 0.752159
O O5 0.703870 0.395465 0.396906
O O6 0.708948 0.614642 0.503940
O O7 0.439112 0.362226 0.838725
O O8 0.326121 0.395510 0.705414
#
# Coordination Sequence:
#
# PCOD9372227 Si02
#       4
#    16  16  16  16
#     4  11  23  47  76 111 158 209 259 338 410 477
#     4   9  26  45  73 115 154 202 269 327 403 492
#     4  10  25  49  69 114 155 201 268 328 398 484
#     4  10  25  47  76 110 154 206 266 326 396 487
#
# _framework density 28.384936
#
# number of rings (size 3 to 8) (size 9 to 14) (size 15 to 20)
#    1.500    0.500    0.000    0.750    3.500   11.000 
#    4.500    0.000    0.000    0.000    0.000    0.000 
#    0.000    0.000    0.000    0.000    0.000    0.000 
#
# Total GULP energy -89185.665599 kJ/mol
# GULP energy per Si atom -5574.104100 kJ/mol
# Density = 2.832033 g / cm^3
# Si number density = 28.384936 Si / 1000 Ang^3
#
#
#
# Elastic Constant Matrix: (Units=GPa)
#
#
# Indices 1 2 3 4 5 6 
#
# 1 258.3303 33.1735 12.8612 0.0000 0.0000 0.0000
# 2 33.1735 150.2052 25.3038 0.0000 0.0000 0.0000
# 3 12.8612 25.3038 41.8463 0.0000 0.0000 0.0000
# 4 0.0000 0.0000 0.0000 32.2486 0.0000 0.0000
# 5 0.0000 0.0000 0.0000 0.0000 49.8987 0.0000
# 6 0.0000 0.0000 0.0000 0.0000 0.0000 31.3428
#
#
#
# Elastic Compliance Matrix: (Units=1/GPa)
#
#
# Indices 1 2 3 4 5 6 
#
# 1 0.004006 -0.000754 -0.000775 0.000000 0.000000 0.000000
# 2 -0.000754 0.007555 -0.004336 0.000000 0.000000 0.000000
# 3 -0.000775 -0.004336 0.026757 0.000000 0.000000 0.000000
# 4 0.000000 0.000000 0.000000 0.031009 0.000000 0.000000
# 5 0.000000 0.000000 0.000000 0.000000 0.020041 0.000000
# 6 0.000000 0.000000 0.000000 0.000000 0.000000 0.031905
#
#
# Mechanical properties :
#
#
# Convention : Reuss Voigt Hill
#
# Bulk Modulus (GPa) = 37.61274 65.89541 51.75408
# Shear Modulus (GPa) = 35.24414 47.96756 41.60585
#
# Velocity S-wave (km/s) = 3.52753 4.11529 3.83269
# Velocity P-wave (km/s) = 5.46544 6.77098 6.15293
#
# Compressibility (1/GPa) = 0.02658674
#
# Stress axis : x y z
#
# Youngs Moduli (GPa) = 249.59641 132.36887 37.37281
#
# Poissons Ratio (x) = 0.09984 0.02897
# Poissons Ratio (y) = 0.18826 0.16206
# Poissons Ratio (z) = 0.19351 0.57400
#
# Static dielectric constant tensor:
#      x y z
#    x 2.179210 0.000000 0.000000 
#    y 0.000000 2.255570 0.000000 
#    z 0.000000 0.000000 2.256350 
# 
# From -- ./inp_files/14125.got.cif
#   From: 2010.05.17/outbox.cif.g08.bks.cpg/sg43_8_cif.got.tgz:14125.got - 2010.06.03 19:21:55.
