data_PCOD9372645
_publ_section_title
;
Structure prediction by ZEFSAII (Michael W. Deem and Ramdas Pophale) SiO2 
 PCOD9372645
Probable space group: F D D 2
;
_chemical_formula_sum "Si O2"
_cell_formula_units_Z 112
_cell_length_a 10.721694
_cell_length_b 14.778427
_cell_length_c 28.394446
_cell_angle_alpha 90.000000
_cell_angle_beta 90.000000
_cell_angle_gamma 90.000000
_cell_volume 4499.093497
_symmetry_space_group_name_H-M "F D D 2"
_symmetry_group_IT_number 43
_symmetry_cell_setting 'orthorhombic'
loop_
_space_group_symop_operation_xyz
x,y,z
-x,-y,z
1/4-x,1/4+y,1/4+z
1/4+x,1/4-y,1/4+z
x,1/2+y,1/2+z
-x,1/2-y,1/2+z
1/4-x,3/4+y,3/4+z
1/4+x,3/4-y,3/4+z
1/2+x,y,1/2+z
1/2-x,-y,1/2+z
3/4-x,1/4+y,3/4+z
3/4+x,1/4-y,3/4+z
1/2+x,1/2+y,z
1/2-x,1/2-y,z
3/4-x,3/4+y,1/4+z
3/4+x,3/4-y,1/4+z
loop_
_atom_site_type_symbol
_atom_site_label
_atom_site_fract_x
_atom_site_fract_y
_atom_site_fract_z
Si Si1 0.882331 0.816935 0.346510
Si Si2 0.112947 0.069263 0.889421
Si Si3 0.891898 0.932314 0.255826
Si Si4 0.524579 0.657942 0.797106
Si Si5 0.038662 0.264093 0.929238
Si Si6 0.714444 0.076889 0.928368
Si Si7 0.750000 0.250000 0.237108
Si Si8 0.000000 0.500000 0.237727
O O1 0.853044 0.885203 0.304282
O O2 0.784036 0.845359 0.387769
O O3 0.919975 0.724167 0.319506
O O4 0.002238 0.815538 0.381679
O O5 0.101412 0.099475 0.835392
O O6 0.084793 0.163085 0.915270
O O7 0.235262 0.014866 0.904830
O O8 0.000000 0.000000 0.899013
O O9 0.808878 0.992735 0.220797
O O10 0.945995 0.855880 0.220839
O O11 0.000000 0.000000 0.271311
O O12 0.635869 0.710475 0.769191
O O13 0.447931 0.581392 0.768894
O O14 0.154919 0.304452 0.955656
O O15 0.578704 0.064397 0.951887
#
# Coordination Sequence:
#
# PCOD9372645 Si02
#       8
#    16  16  16  16  16  16   8   8
#     4  11  27  48  76 112 152 212 251 330 403 459
#     4  11  24  46  75 112 152 200 258 317 390 468
#     4  12  26  50  77 111 156 203 268 330 392 469
#     4  11  26  47  76 112 153 203 256 314 395 477
#     4  11  26  49  74 110 158 201 261 327 393 478
#     4  12  26  48  76 113 153 201 263 329 393 479
#     4  12  26  47  76 110 152 190 266 325 390 478
#     4  12  26  47  76 114 150 204 256 317 394 476
#
# _framework density 24.893905
#
# number of rings (size 3 to 8) (size 9 to 14) (size 15 to 20)
#    0.000    0.571    5.000    1.714    3.000    3.429 
#    2.571    0.000    0.000    0.000    0.000    0.000 
#    0.000    0.000    0.000    0.000    0.000    0.000 
#
# Total GULP energy -156157.430286 kJ/mol
# GULP energy per Si atom -5577.051082 kJ/mol
# Density = 2.483725 g / cm^3
# Si number density = 24.893905 Si / 1000 Ang^3
#
#
#
# Elastic Constant Matrix: (Units=GPa)
#
#
# Indices 1 2 3 4 5 6 
#
# 1 60.6540 6.5138 26.4436 0.0000 0.0000 0.0000
# 2 6.5138 65.8851 35.3353 0.0000 0.0000 0.0000
# 3 26.4436 35.3353 151.7088 0.0000 0.0000 0.0000
# 4 0.0000 0.0000 0.0000 40.2003 0.0000 0.0000
# 5 0.0000 0.0000 0.0000 0.0000 37.9224 0.0000
# 6 0.0000 0.0000 0.0000 0.0000 0.0000 43.4495
#
#
#
# Elastic Compliance Matrix: (Units=1/GPa)
#
#
# Indices 1 2 3 4 5 6 
#
# 1 0.017844 -0.000110 -0.003085 0.000000 0.000000 0.000000
# 2 -0.000110 0.017345 -0.004021 0.000000 0.000000 0.000000
# 3 -0.003085 -0.004021 0.008066 0.000000 0.000000 0.000000
# 4 0.000000 0.000000 0.000000 0.024875 0.000000 0.000000
# 5 0.000000 0.000000 0.000000 0.000000 0.026370 0.000000
# 6 0.000000 0.000000 0.000000 0.000000 0.000000 0.023015
#
#
# Mechanical properties :
#
#
# Convention : Reuss Voigt Hill
#
# Bulk Modulus (GPa) = 34.69326 46.09259 40.39293
# Shear Modulus (GPa) = 35.32237 38.31147 36.81692
#
# Velocity S-wave (km/s) = 3.77094 3.92725 3.84989
# Velocity P-wave (km/s) = 5.73818 6.25462 6.00195
#
# Compressibility (1/GPa) = 0.02882404
#
# Stress axis : x y z
#
# Youngs Moduli (GPa) = 56.04258 57.65276 123.98089
#
# Poissons Ratio (x) = 0.00633 0.38244
# Poissons Ratio (y) = 0.00615 0.49851
# Poissons Ratio (z) = 0.17287 0.23181
#
# Static dielectric constant tensor:
#      x y z
#    x 2.080800 0.000000 0.000000 
#    y 0.000000 2.025480 0.000000 
#    z 0.000000 0.000000 1.967840 
# 
# From -- ./inp_files/28673.got.cif
#   From: 2010.05.17/outbox.cif.g08.bks.cpg/sg43_15_cif.got.tgz:28673.got - 2010.06.03 19:21:55.
