data_PCOD9372816
_publ_section_title
;
Structure prediction by ZEFSAII (Michael W. Deem and Ramdas Pophale) SiO2 
 PCOD9372816
Probable space group: F D D 2
;
_chemical_formula_sum "Si O2"
_cell_formula_units_Z 112
_cell_length_a 26.605980
_cell_length_b 14.398313
_cell_length_c 13.003416
_cell_angle_alpha 90.000000
_cell_angle_beta 90.000000
_cell_angle_gamma 90.000000
_cell_volume 4981.364566
_symmetry_space_group_name_H-M "F D D 2"
_symmetry_group_IT_number 43
_symmetry_cell_setting 'orthorhombic'
loop_
_space_group_symop_operation_xyz
x,y,z
-x,-y,z
1/4-x,1/4+y,1/4+z
1/4+x,1/4-y,1/4+z
x,1/2+y,1/2+z
-x,1/2-y,1/2+z
1/4-x,3/4+y,3/4+z
1/4+x,3/4-y,3/4+z
1/2+x,y,1/2+z
1/2-x,-y,1/2+z
3/4-x,1/4+y,3/4+z
3/4+x,1/4-y,3/4+z
1/2+x,1/2+y,z
1/2-x,1/2-y,z
3/4-x,3/4+y,1/4+z
3/4+x,3/4-y,1/4+z
loop_
_atom_site_type_symbol
_atom_site_label
_atom_site_fract_x
_atom_site_fract_y
_atom_site_fract_z
Si Si1 0.557775 0.023852 0.110860
Si Si2 0.780323 0.347218 0.052672
Si Si3 0.965898 0.637525 0.566970
Si Si4 0.579244 0.667187 0.055140
Si Si5 0.875079 0.020008 0.015719
Si Si6 0.144706 0.115549 0.725416
Si Si7 0.697666 0.929066 0.691751
O O1 0.587881 0.083941 0.196663
O O2 0.553488 0.087106 0.009444
O O3 0.500000 0.000000 0.140984
O O4 0.590335 0.935495 0.068234
O O5 0.750000 0.250000 0.045863
O O6 0.829892 0.341670 0.123026
O O7 0.743316 0.417712 0.111628
O O8 0.792744 0.380641 0.938797
O O9 0.929495 0.566667 0.509919
O O10 0.954257 0.737812 0.521114
O O11 0.024642 0.622184 0.549522
O O12 0.618547 0.590674 0.015894
O O13 0.592236 0.691625 0.172708
O O14 0.580530 0.765559 0.998717
O O15 0.850705 0.052060 0.122462
#
# Coordination Sequence:
#
# PCOD9372816 Si02
#       7
#    16  16  16  16  16  16  16
#     4  12  26  49  74 111 155 191 260 318 372 460
#     4  12  23  46  78 111 147 192 257 311 375 452
#     4  12  26  44  75 105 147 194 238 313 381 431
#     4  12  25  47  71 101 151 195 248 302 379 452
#     4  12  26  45  70 109 144 194 250 309 367 452
#     4  12  26  47  74 108 149 204 247 314 378 451
#     4  12  24  46  74 108 146 189 249 309 377 447
#
# _framework density 22.483799000000001
#
# number of rings (size 3 to 8) (size 9 to 14) (size 15 to 20)
#    0.000    0.000    7.143    3.000    4.000    0.000 
#    0.000    2.857    0.000    0.000    0.000    0.000 
#    0.000    0.000    0.000    0.000    0.000    0.000 
#
# Total GULP energy -156652.369189 kJ/mol
# GULP energy per Si atom -5594.727471 kJ/mol
# Density = 2.243263 g / cm^3
# Si number density = 22.483799 Si / 1000 Ang^3
#
#
#
# Elastic Constant Matrix: (Units=GPa)
#
#
# Indices 1 2 3 4 5 6 
#
# 1 123.5139 28.1736 37.9672 0.0000 0.0000 0.0000
# 2 28.1736 99.5950 20.0877 0.0000 0.0000 0.0000
# 3 37.9672 20.0877 60.6010 0.0000 0.0000 0.0000
# 4 0.0000 0.0000 0.0000 10.2569 0.0000 0.0000
# 5 0.0000 0.0000 0.0000 0.0000 31.8280 0.0000
# 6 0.0000 0.0000 0.0000 0.0000 0.0000 14.7324
#
#
#
# Elastic Compliance Matrix: (Units=1/GPa)
#
#
# Indices 1 2 3 4 5 6 
#
# 1 0.010297 -0.001727 -0.005879 0.000000 0.000000 0.000000
# 2 -0.001727 0.011050 -0.002581 0.000000 0.000000 0.000000
# 3 -0.005879 -0.002581 0.021040 0.000000 0.000000 0.000000
# 4 0.000000 0.000000 0.000000 0.097495 0.000000 0.000000
# 5 0.000000 0.000000 0.000000 0.000000 0.031419 0.000000
# 6 0.000000 0.000000 0.000000 0.000000 0.000000 0.067878
#
#
# Mechanical properties :
#
#
# Convention : Reuss Voigt Hill
#
# Bulk Modulus (GPa) = 45.42623 50.68518 48.05571
# Shear Modulus (GPa) = 18.73431 24.52888 21.63160
#
# Velocity S-wave (km/s) = 2.88971 3.30655 3.10513
# Velocity P-wave (km/s) = 5.60194 6.09669 5.85454
#
# Compressibility (1/GPa) = 0.02201371
#
# Stress axis : x y z
#
# Youngs Moduli (GPa) = 97.11236 90.49978 47.52860
#
# Poissons Ratio (x) = 0.15631 0.27941
# Poissons Ratio (y) = 0.16773 0.12265
# Poissons Ratio (z) = 0.57091 0.23354
#
# Static dielectric constant tensor:
#      x y z
#    x 1.867490 0.000000 0.000000 
#    y 0.000000 1.837420 0.000000 
#    z 0.000000 0.000000 1.791600 
# 
# From -- ./inp_files/11255.got.cif
#   From: 2010.05.17/outbox.cif.g08.bks.cpg/sg43_6_cif.got.tgz:11255.got - 2010.06.03 19:21:55.
