data_PCOD9372274
_publ_section_title
;
Structure prediction by ZEFSAII (Michael W. Deem and Ramdas Pophale) SiO2 
 PCOD9372274
Probable space group: F D D 2
;
_chemical_formula_sum "Si O2"
_cell_formula_units_Z 96
_cell_length_a 12.165605
_cell_length_b 23.722896
_cell_length_c 14.536309
_cell_angle_alpha 90.000000
_cell_angle_beta 90.000000
_cell_angle_gamma 90.000000
_cell_volume 4195.227942
_symmetry_space_group_name_H-M "F D D 2"
_symmetry_group_IT_number 43
_symmetry_cell_setting 'orthorhombic'
loop_
_space_group_symop_operation_xyz
x,y,z
-x,-y,z
1/4-x,1/4+y,1/4+z
1/4+x,1/4-y,1/4+z
x,1/2+y,1/2+z
-x,1/2-y,1/2+z
1/4-x,3/4+y,3/4+z
1/4+x,3/4-y,3/4+z
1/2+x,y,1/2+z
1/2-x,-y,1/2+z
3/4-x,1/4+y,3/4+z
3/4+x,1/4-y,3/4+z
1/2+x,1/2+y,z
1/2-x,1/2-y,z
3/4-x,3/4+y,1/4+z
3/4+x,3/4-y,1/4+z
loop_
_atom_site_type_symbol
_atom_site_label
_atom_site_fract_x
_atom_site_fract_y
_atom_site_fract_z
Si Si1 0.515776 0.932721 0.113890
Si Si2 0.376431 0.391757 0.373821
Si Si3 0.479307 0.262614 0.180177
Si Si4 0.396631 0.588734 0.410212
Si Si5 0.960144 0.814161 0.997000
Si Si6 0.872350 0.514153 0.629953
O O1 0.408155 0.898382 0.140264
O O2 0.611039 0.915910 0.185297
O O3 0.500000 0.000000 0.117226
O O4 0.556382 0.915518 0.013231
O O5 0.314732 0.434964 0.441766
O O6 0.493879 0.418769 0.349248
O O7 0.291726 0.388714 0.288532
O O8 0.395472 0.329142 0.407638
O O9 0.553993 0.209063 0.154418
O O10 0.411736 0.255826 0.272861
O O11 0.416418 0.281172 0.087512
O O12 0.040270 0.774079 0.938900
O O13 0.000000 0.500000 0.642656
#
# Coordination Sequence:
#
# PCOD9372274 Si02
#       6
#    16  16  16  16  16  16
#     4  12  28  49  75 112 155 198 256 312 384 457
#     4  10  27  45  73 106 150 190 254 305 372 451
#     4  10  26  47  73 108 148 191 251 307 375 442
#     4  12  27  46  80 105 153 197 251 316 377 450
#     4  10  27  47  72 107 152 192 255 305 374 450
#     4  12  27  46  79 106 149 199 248 310 379 438
#
# _framework density 22.883144000000001
#
# number of rings (size 3 to 8) (size 9 to 14) (size 15 to 20)
#    1.000    0.000    1.667    2.500   14.000    2.000 
#    0.000    0.000    0.000    0.000    0.000    0.000 
#    0.000    0.000    0.000    0.000    0.000    0.000 
#
# Total GULP energy -134258.116432 kJ/mol
# GULP energy per Si atom -5594.088185 kJ/mol
# Density = 2.283106 g / cm^3
# Si number density = 22.883144 Si / 1000 Ang^3
#
#
#
# Elastic Constant Matrix: (Units=GPa)
#
#
# Indices 1 2 3 4 5 6 
#
# 1 78.9216 14.3113 21.3633 0.0000 0.0000 0.0000
# 2 14.3113 41.4525 -24.9540 0.0000 0.0000 0.0000
# 3 21.3633 -24.9540 66.9917 0.0000 0.0000 0.0000
# 4 0.0000 0.0000 0.0000 22.2648 0.0000 0.0000
# 5 0.0000 0.0000 0.0000 0.0000 35.7982 0.0000
# 6 0.0000 0.0000 0.0000 0.0000 0.0000 31.9883
#
#
#
# Elastic Compliance Matrix: (Units=1/GPa)
#
#
# Indices 1 2 3 4 5 6 
#
# 1 0.017641 -0.012216 -0.010176 0.000000 0.000000 0.000000
# 2 -0.012216 0.039557 0.018630 0.000000 0.000000 0.000000
# 3 -0.010176 0.018630 0.025112 0.000000 0.000000 0.000000
# 4 0.000000 0.000000 0.000000 0.044914 0.000000 0.000000
# 5 0.000000 0.000000 0.000000 0.000000 0.027934 0.000000
# 6 0.000000 0.000000 0.000000 0.000000 0.000000 0.031261
#
#
# Mechanical properties :
#
#
# Convention : Reuss Voigt Hill
#
# Bulk Modulus (GPa) = 13.37150 23.20078 18.28614
# Shear Modulus (GPa) = 22.84451 29.78663 26.31557
#
# Velocity S-wave (km/s) = 3.16303 3.61180 3.39484
# Velocity P-wave (km/s) = 4.38130 5.24922 4.83477
#
# Compressibility (1/GPa) = 0.07478593
#
# Stress axis : x y z
#
# Youngs Moduli (GPa) = 56.68757 25.28009 39.82167
#
# Poissons Ratio (x) = 0.30882 0.40522
# Poissons Ratio (y) = 0.69250 -0.74189
# Poissons Ratio (z) = 0.57685 -0.47098
#
# Static dielectric constant tensor:
#      x y z
#    x 1.821180 0.000000 0.000000 
#    y 0.000000 1.827900 0.000000 
#    z 0.000000 0.000000 1.866200 
# 
# From -- ./inp_files/13330.got.cif
#   From: 2010.05.17/outbox.cif.g08.bks.cpg/sg43_7_cif.got.tgz:13330.got - 2010.06.03 19:21:55.
