data_PCOD9372903
_publ_section_title
;
Structure prediction by ZEFSAII (Michael W. Deem and Ramdas Pophale) SiO2 
 PCOD9372903
Probable space group: F D D 2
;
_chemical_formula_sum "Si O2"
_cell_formula_units_Z 56
_cell_length_a 4.866649
_cell_length_b 24.042431
_cell_length_c 17.246233
_cell_angle_alpha 90.000000
_cell_angle_beta 90.000000
_cell_angle_gamma 90.000000
_cell_volume 2017.913994
_symmetry_space_group_name_H-M "F D D 2"
_symmetry_group_IT_number 43
_symmetry_cell_setting 'orthorhombic'
loop_
_space_group_symop_operation_xyz
x,y,z
-x,-y,z
1/4-x,1/4+y,1/4+z
1/4+x,1/4-y,1/4+z
x,1/2+y,1/2+z
-x,1/2-y,1/2+z
1/4-x,3/4+y,3/4+z
1/4+x,3/4-y,3/4+z
1/2+x,y,1/2+z
1/2-x,-y,1/2+z
3/4-x,1/4+y,3/4+z
3/4+x,1/4-y,3/4+z
1/2+x,1/2+y,z
1/2-x,1/2-y,z
3/4-x,3/4+y,1/4+z
3/4+x,3/4-y,1/4+z
loop_
_atom_site_type_symbol
_atom_site_label
_atom_site_fract_x
_atom_site_fract_y
_atom_site_fract_z
Si Si1 0.750000 0.750000 0.427431
Si Si2 0.660323 0.551128 0.818106
Si Si3 0.776637 0.349948 0.801534
Si Si4 0.455089 0.063117 0.961525
O O1 0.520821 0.726184 0.487531
O O2 0.728563 0.804482 0.370910
O O3 0.500000 0.500000 0.857380
O O4 0.426074 0.597501 0.812244
O O5 0.917919 0.651228 0.762615
O O6 0.607917 0.324611 0.730385
O O7 0.071100 0.430516 0.868744
O O8 0.500000 0.000000 0.983919
#
# Coordination Sequence:
#
# PCOD9372903 Si02
#       4
#     8  16  16  16
#     4  12  30  58  88 142 188 244 324 396 466 570
#     4  12  32  55  91 141 190 243 321 391 479 570
#     4  12  31  56  90 133 187 248 312 388 470 566
#     4  12  26  57  89 127 185 244 309 380 477 563
#
# _framework density 27.751431
#
# number of rings (size 3 to 8) (size 9 to 14) (size 15 to 20)
#    0.000    0.000    4.286    1.714   12.000    2.286 
#    0.000    2.857    0.000    0.000    0.000    0.000 
#    0.000    0.000    0.000    0.000    0.000    0.000 
#
# Total GULP energy -78134.574092 kJ/mol
# GULP energy per Si atom -5581.041007 kJ/mol
# Density = 2.768827 g / cm^3
# Si number density = 27.751431 Si / 1000 Ang^3
#
#
#
# Elastic Constant Matrix: (Units=GPa)
#
#
# Indices 1 2 3 4 5 6 
#
# 1 194.8380 44.5609 100.1881 0.0000 0.0000 0.0000
# 2 44.5609 174.9776 91.8687 0.0000 0.0000 0.0000
# 3 100.1881 91.8687 141.3690 0.0000 0.0000 0.0000
# 4 0.0000 0.0000 0.0000 89.8379 0.0000 0.0000
# 5 0.0000 0.0000 0.0000 0.0000 36.2177 0.0000
# 6 0.0000 0.0000 0.0000 0.0000 0.0000 -3.9357
#
#
#
# Elastic Compliance Matrix: (Units=1/GPa)
#
#
# Indices 1 2 3 4 5 6 
#
# 1 0.008321 0.001483 -0.006861 0.000000 0.000000 0.000000
# 2 0.001483 0.008939 -0.006860 0.000000 0.000000 0.000000
# 3 -0.006861 -0.006860 0.016394 0.000000 0.000000 0.000000
# 4 0.000000 0.000000 0.000000 0.011131 0.000000 0.000000
# 5 0.000000 0.000000 0.000000 0.000000 0.027611 0.000000
# 6 0.000000 0.000000 0.000000 0.000000 0.000000 -0.254087
#
#
# Mechanical properties :
#
#
# Convention : Reuss Voigt Hill
#
# Bulk Modulus (GPa) = 108.95207 109.37999 109.16603
# Shear Modulus (GPa) = -32.43513 42.72844 5.14665
#
# Velocity S-wave (km/s) = -3.42244 3.92814 1.36330
# Velocity P-wave (km/s) = 4.87111 7.75071 6.47307
#
# Compressibility (1/GPa) = 0.00917835
#
# Stress axis : x y z
#
# Youngs Moduli (GPa) = 120.17260 111.86753 60.99668
#
# Poissons Ratio (x) = -0.16592 0.41851
# Poissons Ratio (y) = -0.17824 0.41845
# Poissons Ratio (z) = 0.82453 0.76744
#
# Static dielectric constant tensor:
#      x y z
#    x 2.571830 0.000000 0.000000 
#    y 0.000000 2.384790 0.000000 
#    z 0.000000 0.000000 2.284380 
# 
# From -- ./inp_files/15553.got.cif
#   From: 2010.05.17/outbox.cif.g08.bks.cpg/sg43_8_cif.got.tgz:15553.got - 2010.06.03 19:21:55.
