data_PCOD9372594
_publ_section_title
;
Structure prediction by ZEFSAII (Michael W. Deem and Ramdas Pophale) SiO2 
 PCOD9372594
Probable space group: F D D 2
;
_chemical_formula_sum "Si O2"
_cell_formula_units_Z 72
_cell_length_a 7.716069
_cell_length_b 17.280330
_cell_length_c 27.806582
_cell_angle_alpha 90.000000
_cell_angle_beta 90.000000
_cell_angle_gamma 90.000000
_cell_volume 3707.624497
_symmetry_space_group_name_H-M "F D D 2"
_symmetry_group_IT_number 43
_symmetry_cell_setting 'orthorhombic'
loop_
_space_group_symop_operation_xyz
x,y,z
-x,-y,z
1/4-x,1/4+y,1/4+z
1/4+x,1/4-y,1/4+z
x,1/2+y,1/2+z
-x,1/2-y,1/2+z
1/4-x,3/4+y,3/4+z
1/4+x,3/4-y,3/4+z
1/2+x,y,1/2+z
1/2-x,-y,1/2+z
3/4-x,1/4+y,3/4+z
3/4+x,1/4-y,3/4+z
1/2+x,1/2+y,z
1/2-x,1/2-y,z
3/4-x,3/4+y,1/4+z
3/4+x,3/4-y,1/4+z
loop_
_atom_site_type_symbol
_atom_site_label
_atom_site_fract_x
_atom_site_fract_y
_atom_site_fract_z
Si Si1 0.270128 0.161463 0.056710
Si Si2 0.000000 0.500000 0.471968
Si Si3 0.852227 0.565745 0.959727
Si Si4 0.068848 0.588420 0.117899
Si Si5 0.178958 0.168897 0.316522
O O1 0.250000 0.250000 0.041202
O O2 0.080144 0.140898 0.077233
O O3 0.417027 0.141179 0.095439
O O4 0.317645 0.105453 0.011572
O O5 0.169129 0.527097 0.445061
O O6 0.066536 0.433678 0.509024
O O7 0.881460 0.630802 0.919642
O O8 0.000000 0.500000 0.962165
O O9 0.237042 0.595052 0.084031
O O10 0.000000 0.500000 0.119573
O O11 0.250000 0.250000 0.337521
#
# Coordination Sequence:
#
# PCOD9372594 Si02
#       5
#    16   8  16  16  16
#     4  11  24  42  66  95 131 168 215 272 324 385
#     4   8  18  40  60  86 122 166 204 260 320 374
#     4  11  24  40  65  94 130 170 219 267 325 388
#     4  12  23  40  66  94 129 171 215 266 325 387
#     4   9  19  40  66  87 119 170 210 255 322 378
#
# _framework density 19.419440999999999
#
# number of rings (size 3 to 8) (size 9 to 14) (size 15 to 20)
#    0.667    0.889    2.222    2.667    4.667    0.000 
#    0.000    0.000    0.000    0.000    0.000    0.000 
#    0.000    0.000    0.000    0.000    0.000    0.000 
#
# Total GULP energy -100313.596189 kJ/mol
# GULP energy per Si atom -5572.977566 kJ/mol
# Density = 1.937524 g / cm^3
# Si number density = 19.419441 Si / 1000 Ang^3
#
#
#
# Elastic Constant Matrix: (Units=GPa)
#
#
# Indices 1 2 3 4 5 6 
#
# 1 139.0193 67.9434 29.6338 0.0000 0.0000 0.0000
# 2 67.9434 90.3516 23.1487 0.0000 0.0000 0.0000
# 3 29.6338 23.1487 63.4639 0.0000 0.0000 0.0000
# 4 0.0000 0.0000 0.0000 22.1620 0.0000 0.0000
# 5 0.0000 0.0000 0.0000 0.0000 -9.8761 0.0000
# 6 0.0000 0.0000 0.0000 0.0000 0.0000 15.8067
#
#
#
# Elastic Compliance Matrix: (Units=1/GPa)
#
#
# Indices 1 2 3 4 5 6 
#
# 1 0.011719 -0.008175 -0.002490 0.000000 0.000000 0.000000
# 2 -0.008175 0.017911 -0.002716 0.000000 0.000000 0.000000
# 3 -0.002490 -0.002716 0.017911 0.000000 0.000000 0.000000
# 4 0.000000 0.000000 0.000000 0.045122 0.000000 0.000000
# 5 0.000000 0.000000 0.000000 0.000000 -0.101254 0.000000
# 6 0.000000 0.000000 0.000000 0.000000 0.000000 0.063265
#
#
# Mechanical properties :
#
#
# Convention : Reuss Voigt Hill
#
# Bulk Modulus (GPa) = 48.12663 59.36517 53.74590
# Shear Modulus (GPa) = 56.58517 17.09244 36.83880
#
# Velocity S-wave (km/s) = 5.40386 2.96999 4.36019
# Velocity P-wave (km/s) = 7.98574 6.51133 7.28593
#
# Compressibility (1/GPa) = 0.02077852
#
# Stress axis : x y z
#
# Youngs Moduli (GPa) = 85.32848 55.83137 55.83300
#
# Poissons Ratio (x) = 0.45641 0.13905
# Poissons Ratio (y) = 0.69754 0.15164
# Poissons Ratio (z) = 0.21251 0.15164
#
# Static dielectric constant tensor:
#      x y z
#    x 1.679650 0.000000 0.000000 
#    y 0.000000 1.746840 0.000000 
#    z 0.000000 0.000000 1.698090 
# 
# From -- ./inp_files/27788.got.cif
#   From: 2010.05.17/outbox.cif.g08.bks.cpg/sg43_14_cif.got.tgz:27788.got - 2010.06.03 19:21:55.
