data_PCOD9372007
_publ_section_title
;
Structure prediction by ZEFSAII (Michael W. Deem and Ramdas Pophale) SiO2 
 PCOD9372007
Probable space group: F D D 2
;
_chemical_formula_sum "Si O2"
_cell_formula_units_Z 80
_cell_length_a 26.096773
_cell_length_b 11.998981
_cell_length_c 13.241657
_cell_angle_alpha 90.000000
_cell_angle_beta 90.000000
_cell_angle_gamma 90.000000
_cell_volume 4146.422072
_symmetry_space_group_name_H-M "F D D 2"
_symmetry_group_IT_number 43
_symmetry_cell_setting 'orthorhombic'
loop_
_space_group_symop_operation_xyz
x,y,z
-x,-y,z
1/4-x,1/4+y,1/4+z
1/4+x,1/4-y,1/4+z
x,1/2+y,1/2+z
-x,1/2-y,1/2+z
1/4-x,3/4+y,3/4+z
1/4+x,3/4-y,3/4+z
1/2+x,y,1/2+z
1/2-x,-y,1/2+z
3/4-x,1/4+y,3/4+z
3/4+x,1/4-y,3/4+z
1/2+x,1/2+y,z
1/2-x,1/2-y,z
3/4-x,3/4+y,1/4+z
3/4+x,3/4-y,1/4+z
loop_
_atom_site_type_symbol
_atom_site_label
_atom_site_fract_x
_atom_site_fract_y
_atom_site_fract_z
Si Si1 0.326353 0.062385 0.608410
Si Si2 0.326353 0.937615 0.414203
Si Si3 0.349665 0.809252 0.043639
Si Si4 0.150335 0.309252 0.978975
Si Si5 0.728365 0.500000 0.511307
O O1 0.327393 0.193592 0.584339
O O2 0.357563 0.038307 0.708780
O O3 0.267661 0.020128 0.604051
O O4 0.350761 0.000000 0.511307
O O5 0.327393 0.806408 0.438274
O O6 0.267660 0.979871 0.418563
O O7 0.357563 0.961693 0.313833
O O8 0.375000 0.875000 0.136307
O O9 0.306728 0.891827 0.998996
O O10 0.193272 0.391826 0.023618
#
# Coordination Sequence:
#
# PCOD9372007 Si02
#       5
#    16  16  16  16  16
#     4  10  24  41  67  94 133 175 222 275 339 402
#     4  10  24  41  67  94 133 175 222 275 339 402
#     4  12  21  45  67  96 134 175 225 283 329 403
#     4  12  21  45  67  96 134 175 225 283 329 403
#     4  10  24  40  68  95 135 168 228 266 344 398
#
# _framework density 19.293742000000002
#
# number of rings (size 3 to 8) (size 9 to 14) (size 15 to 20)
#    1.200    0.000    4.000    2.400    0.000    1.600 
#    0.000    4.000    0.000    0.000    0.000    0.000 
#    0.000    0.000    0.000    0.000    0.000    0.000 
#
# Total GULP energy -111555.218679 kJ/mol
# GULP energy per Si atom -5577.760934 kJ/mol
# Density = 1.924983 g / cm^3
# Si number density = 19.293742 Si / 1000 Ang^3
#
#
#
# Elastic Constant Matrix: (Units=GPa)
#
#
# Indices 1 2 3 4 5 6 
#
# 1 105.5664 16.9270 31.1186 0.0000 0.0000 0.0000
# 2 16.9270 80.9880 13.9417 0.0000 0.0000 0.0000
# 3 31.1186 13.9417 79.2908 0.0000 0.0000 0.0000
# 4 0.0000 0.0000 0.0000 32.3197 0.0000 0.0000
# 5 0.0000 0.0000 0.0000 0.0000 17.2260 0.0000
# 6 0.0000 0.0000 0.0000 0.0000 0.0000 46.3089
#
#
#
# Elastic Compliance Matrix: (Units=1/GPa)
#
#
# Indices 1 2 3 4 5 6 
#
# 1 0.010907 -0.001591 -0.004001 0.000000 0.000000 0.000000
# 2 -0.001591 0.012965 -0.001655 0.000000 0.000000 0.000000
# 3 -0.004001 -0.001655 0.014473 0.000000 0.000000 0.000000
# 4 0.000000 0.000000 0.000000 0.030941 0.000000 0.000000
# 5 0.000000 0.000000 0.000000 0.000000 0.058052 0.000000
# 6 0.000000 0.000000 0.000000 0.000000 0.000000 0.021594
#
#
# Mechanical properties :
#
#
# Convention : Reuss Voigt Hill
#
# Bulk Modulus (GPa) = 41.92694 43.31330 42.62012
# Shear Modulus (GPa) = 29.17553 32.76146 30.96849
#
# Velocity S-wave (km/s) = 3.89289 4.12519 4.01072
# Velocity P-wave (km/s) = 6.47952 6.72218 6.60197
#
# Compressibility (1/GPa) = 0.02385101
#
# Stress axis : x y z
#
# Youngs Moduli (GPa) = 91.68268 77.13089 69.09398
#
# Poissons Ratio (x) = 0.12271 0.27644
# Poissons Ratio (y) = 0.14586 0.11437
# Poissons Ratio (z) = 0.36681 0.12767
#
# Static dielectric constant tensor:
#      x y z
#    x 1.686270 0.000000 0.000000 
#    y 0.000000 1.684670 0.000000 
#    z 0.000000 0.000000 1.666820 
# 
# From -- ./inp_files/11443.got.cif
#   From: 2010.05.17/outbox.cif.g08.bks.cpg/sg43_6_cif.got.tgz:11443.got - 2010.06.03 19:21:55.
