data_PCOD9372365
_publ_section_title
;
Structure prediction by ZEFSAII (Michael W. Deem and Ramdas Pophale) SiO2 
 PCOD9372365
Probable space group: F D D 2
;
_chemical_formula_sum "Si O2"
_cell_formula_units_Z 120
_cell_length_a 22.359152
_cell_length_b 12.792626
_cell_length_c 18.243282
_cell_angle_alpha 90.000000
_cell_angle_beta 90.000000
_cell_angle_gamma 90.000000
_cell_volume 5218.167348
_symmetry_space_group_name_H-M "F D D 2"
_symmetry_group_IT_number 43
_symmetry_cell_setting 'orthorhombic'
loop_
_space_group_symop_operation_xyz
x,y,z
-x,-y,z
1/4-x,1/4+y,1/4+z
1/4+x,1/4-y,1/4+z
x,1/2+y,1/2+z
-x,1/2-y,1/2+z
1/4-x,3/4+y,3/4+z
1/4+x,3/4-y,3/4+z
1/2+x,y,1/2+z
1/2-x,-y,1/2+z
3/4-x,1/4+y,3/4+z
3/4+x,1/4-y,3/4+z
1/2+x,1/2+y,z
1/2-x,1/2-y,z
3/4-x,3/4+y,1/4+z
3/4+x,3/4-y,1/4+z
loop_
_atom_site_type_symbol
_atom_site_label
_atom_site_fract_x
_atom_site_fract_y
_atom_site_fract_z
Si Si1 0.500000 0.500000 0.183331
Si Si2 0.928977 0.388683 0.567367
Si Si3 0.369423 0.955440 0.418197
Si Si4 0.837107 0.342790 0.037002
Si Si5 0.779635 0.359650 0.195776
Si Si6 0.488904 0.379055 0.668559
Si Si7 0.705413 0.503365 0.277115
Si Si8 0.889871 0.328920 0.285302
O O1 0.446246 0.466414 0.131901
O O2 0.471195 0.586134 0.235874
O O3 0.886282 0.303566 0.610532
O O4 0.902581 0.448718 0.496505
O O5 0.994545 0.341056 0.543948
O O6 0.301218 0.926243 0.435530
O O7 0.397038 0.861480 0.369194
O O8 0.812870 0.346180 0.119353
O O9 0.883055 0.246300 0.023482
O O10 0.866895 0.455251 0.023542
O O11 0.750000 0.250000 0.213882
O O12 0.729553 0.447785 0.203498
O O13 0.829817 0.383494 0.256179
O O14 0.500000 0.500000 0.652765
O O15 0.462681 0.323568 0.597037
O O16 0.443959 0.367727 0.735807
#
# Coordination Sequence:
#
# PCOD9372365 Si02
#       8
#     8  16  16  16  16  16  16  16
#     4  12  30  52  68  92 154 200 246 292 352 446
#     4  11  26  51  74 105 143 197 244 303 361 453
#     4  11  24  47  75 104 146 188 245 306 374 435
#     4  12  25  43  68 103 139 192 238 297 366 443
#     4  12  22  39  67 108 140 174 235 302 370 434
#     4  11  21  36  63 103 143 185 231 294 370 430
#     4  11  22  40  73 103 142 181 236 300 367 431
#     4  12  23  40  71 103 143 180 235 307 368 433
#
# _framework density 22.996580000000002
#
# number of rings (size 3 to 8) (size 9 to 14) (size 15 to 20)
#    0.000    0.533    6.000    4.400    0.000    1.067 
#   10.800    0.000    0.000    0.000    0.000    0.000 
#    0.000    0.000    0.000    0.000    0.000    0.000 
#
# Total GULP energy -167571.235411 kJ/mol
# GULP energy per Si atom -5585.707847 kJ/mol
# Density = 2.294424 g / cm^3
# Si number density = 22.996580 Si / 1000 Ang^3
#
#
#
# Elastic Constant Matrix: (Units=GPa)
#
#
# Indices 1 2 3 4 5 6 
#
# 1 71.4985 -9.3110 49.6700 0.0000 0.0000 0.0000
# 2 -9.3110 30.1992 11.5849 0.0000 0.0000 0.0000
# 3 49.6700 11.5849 116.3924 0.0000 0.0000 0.0000
# 4 0.0000 0.0000 0.0000 6.3930 0.0000 0.0000
# 5 0.0000 0.0000 0.0000 0.0000 81.1569 0.0000
# 6 0.0000 0.0000 0.0000 0.0000 0.0000 -4.2928
#
#
#
# Elastic Compliance Matrix: (Units=1/GPa)
#
#
# Indices 1 2 3 4 5 6 
#
# 1 0.023091 0.011332 -0.010982 0.000000 0.000000 0.000000
# 2 0.011332 0.039990 -0.008816 0.000000 0.000000 0.000000
# 3 -0.010982 -0.008816 0.014156 0.000000 0.000000 0.000000
# 4 0.000000 0.000000 0.000000 0.156422 0.000000 0.000000
# 5 0.000000 0.000000 0.000000 0.000000 0.012322 0.000000
# 6 0.000000 0.000000 0.000000 0.000000 0.000000 -0.232947
#
#
# Mechanical properties :
#
#
# Convention : Reuss Voigt Hill
#
# Bulk Modulus (GPa) = 16.58249 35.77532 26.17890
# Shear Modulus (GPa) = 99.86562 27.72782 63.79672
#
# Velocity S-wave (km/s) = 6.59701 3.47614 5.27277
# Velocity P-wave (km/s) = 8.07799 5.63045 6.96261
#
# Compressibility (1/GPa) = 0.06030458
#
# Stress axis : x y z
#
# Youngs Moduli (GPa) = 43.30629 25.00651 70.64294
#
# Poissons Ratio (x) = -0.28338 0.77581
# Poissons Ratio (y) = -0.49076 0.62281
# Poissons Ratio (z) = 0.47559 0.22047
#
# Static dielectric constant tensor:
#      x y z
#    x 1.883840 0.000000 0.000000 
#    y 0.000000 2.018610 0.000000 
#    z 0.000000 0.000000 1.835340 
# 
# From -- ./inp_files/14887.got.cif
#   From: 2010.05.17/outbox.cif.g08.bks.cpg/sg43_8_cif.got.tgz:14887.got - 2010.06.03 19:21:55.
