data_PCOD9372309
_publ_section_title
;
Structure prediction by ZEFSAII (Michael W. Deem and Ramdas Pophale) SiO2 
 PCOD9372309
Probable space group: F D D 2
;
_chemical_formula_sum "Si O2"
_cell_formula_units_Z 56
_cell_length_a 12.619600
_cell_length_b 17.665092
_cell_length_c 9.137989
_cell_angle_alpha 90.000000
_cell_angle_beta 90.000000
_cell_angle_gamma 90.000000
_cell_volume 2037.098945
_symmetry_space_group_name_H-M "F D D 2"
_symmetry_group_IT_number 43
_symmetry_cell_setting 'orthorhombic'
loop_
_space_group_symop_operation_xyz
x,y,z
-x,-y,z
1/4-x,1/4+y,1/4+z
1/4+x,1/4-y,1/4+z
x,1/2+y,1/2+z
-x,1/2-y,1/2+z
1/4-x,3/4+y,3/4+z
1/4+x,3/4-y,3/4+z
1/2+x,y,1/2+z
1/2-x,-y,1/2+z
3/4-x,1/4+y,3/4+z
3/4+x,1/4-y,3/4+z
1/2+x,1/2+y,z
1/2-x,1/2-y,z
3/4-x,3/4+y,1/4+z
3/4+x,3/4-y,1/4+z
loop_
_atom_site_type_symbol
_atom_site_label
_atom_site_fract_x
_atom_site_fract_y
_atom_site_fract_z
Si Si1 0.111201 0.780285 0.088360
Si Si2 0.355984 0.119536 0.337934
Si Si3 0.000000 0.000000 0.827497
Si Si4 0.715105 0.360303 0.355362
O O1 0.090001 0.691669 0.111432
O O2 0.191664 0.822823 0.198673
O O3 0.998601 0.821383 0.108301
O O4 0.144063 0.802475 0.923980
O O5 0.444038 0.064713 0.417958
O O6 0.417900 0.120143 0.181377
O O7 0.078014 0.043869 0.713989
#
# Coordination Sequence:
#
# PCOD9372309 Si02
#       4
#    16  16   8  16
#     4  12  28  49  83 113 164 209 276 331 416 482
#     4  10  28  46  77 114 155 212 262 333 401 488
#     4   8  24  48  74 108 168 208 260 332 414 476
#     4  10  28  51  80 119 157 217 267 342 404 496
#
# _framework density 27.490074
#
# number of rings (size 3 to 8) (size 9 to 14) (size 15 to 20)
#    1.714    0.000    0.000    0.000   12.000    8.000 
#    0.000    0.000    0.000    0.000    0.000    0.000 
#    0.000    0.000    0.000    0.000    0.000    0.000 
#
# Total GULP energy -78122.187494 kJ/mol
# GULP energy per Si atom -5580.156250 kJ/mol
# Density = 2.742751 g / cm^3
# Si number density = 27.490074 Si / 1000 Ang^3
#
#
#
# Elastic Constant Matrix: (Units=GPa)
#
#
# Indices 1 2 3 4 5 6 
#
# 1 138.3638 48.9211 32.3293 0.0000 0.0000 0.0000
# 2 48.9211 249.9345 91.2885 0.0000 0.0000 0.0000
# 3 32.3293 91.2885 113.7638 0.0000 0.0000 0.0000
# 4 0.0000 0.0000 0.0000 57.4525 0.0000 0.0000
# 5 0.0000 0.0000 0.0000 0.0000 36.2486 0.0000
# 6 0.0000 0.0000 0.0000 0.0000 0.0000 30.0703
#
#
#
# Elastic Compliance Matrix: (Units=1/GPa)
#
#
# Indices 1 2 3 4 5 6 
#
# 1 0.007925 -0.001031 -0.001425 0.000000 0.000000 0.000000
# 2 -0.001031 0.005794 -0.004356 0.000000 0.000000 0.000000
# 3 -0.001425 -0.004356 0.012691 0.000000 0.000000 0.000000
# 4 0.000000 0.000000 0.000000 0.017406 0.000000 0.000000
# 5 0.000000 0.000000 0.000000 0.000000 0.027587 0.000000
# 6 0.000000 0.000000 0.000000 0.000000 0.000000 0.033255
#
#
# Mechanical properties :
#
#
# Convention : Reuss Voigt Hill
#
# Bulk Modulus (GPa) = 78.21435 94.12666 86.17051
# Shear Modulus (GPa) = 40.80176 46.72250 43.76213
#
# Velocity S-wave (km/s) = 3.85676 4.12711 3.99422
# Velocity P-wave (km/s) = 6.95316 7.55151 7.25850
#
# Compressibility (1/GPa) = 0.01278538
#
# Stress axis : x y z
#
# Youngs Moduli (GPa) = 126.18787 172.59353 78.79703
#
# Poissons Ratio (x) = 0.17789 0.11228
# Poissons Ratio (y) = 0.13006 0.34327
# Poissons Ratio (z) = 0.17982 0.75189
#
# Static dielectric constant tensor:
#      x y z
#    x 2.383010 0.000000 0.000000 
#    y 0.000000 2.124100 0.000000 
#    z 0.000000 0.000000 2.153190 
# 
# From -- ./inp_files/2157.got.cif
#   From: 2010.05.17/outbox.cif.g08.bks.cpg/sg43_2_cif.got.tgz:2157.got - 2010.06.03 19:21:55.
