data_PCOD9372714
_publ_section_title
;
Structure prediction by ZEFSAII (Michael W. Deem and Ramdas Pophale) SiO2 
 PCOD9372714
Probable space group: F D D 2
;
_chemical_formula_sum "Si O2"
_cell_formula_units_Z 120
_cell_length_a 26.043054
_cell_length_b 20.096393
_cell_length_c 9.689940
_cell_angle_alpha 90.000000
_cell_angle_beta 90.000000
_cell_angle_gamma 90.000000
_cell_volume 5071.437930
_symmetry_space_group_name_H-M "F D D 2"
_symmetry_group_IT_number 43
_symmetry_cell_setting 'orthorhombic'
loop_
_space_group_symop_operation_xyz
x,y,z
-x,-y,z
1/4-x,1/4+y,1/4+z
1/4+x,1/4-y,1/4+z
x,1/2+y,1/2+z
-x,1/2-y,1/2+z
1/4-x,3/4+y,3/4+z
1/4+x,3/4-y,3/4+z
1/2+x,y,1/2+z
1/2-x,-y,1/2+z
3/4-x,1/4+y,3/4+z
3/4+x,1/4-y,3/4+z
1/2+x,1/2+y,z
1/2-x,1/2-y,z
3/4-x,3/4+y,1/4+z
3/4+x,3/4-y,1/4+z
loop_
_atom_site_type_symbol
_atom_site_label
_atom_site_fract_x
_atom_site_fract_y
_atom_site_fract_z
Si Si1 0.557214 0.206767 0.948760
Si Si2 0.350951 0.377489 0.389662
Si Si3 0.573589 0.352770 0.848342
Si Si4 0.846173 0.096481 0.676246
Si Si5 0.225652 0.368003 0.930804
Si Si6 0.479615 0.366934 0.175696
Si Si7 0.582553 0.005612 0.016780
Si Si8 0.250000 0.250000 0.555557
O O1 0.556321 0.283818 0.914817
O O2 0.537533 0.170787 0.811911
O O3 0.615173 0.178395 0.966602
O O4 0.523132 0.180461 0.075531
O O5 0.350184 0.359752 0.226475
O O6 0.291093 0.386671 0.417968
O O7 0.379270 0.445962 0.431352
O O8 0.617214 0.345692 0.734146
O O9 0.526806 0.388285 0.771078
O O10 0.818495 0.116783 0.538410
O O11 0.883937 0.036764 0.625927
O O12 0.801984 0.089805 0.794026
O O13 0.206389 0.304683 0.846793
O O14 0.472430 0.445374 0.209747
O O15 0.544497 0.970029 0.906454
#
# Coordination Sequence:
#
# PCOD9372714 Si02
#       8
#    16  16  16  16  16  16  16   8
#     4  11  27  48  72 108 146 196 248 303 382 457
#     4  11  25  47  71 109 146 199 244 310 379 454
#     4  12  26  46  74 105 152 185 251 315 373 444
#     4  12  27  46  72 113 144 197 242 317 377 438
#     4  11  26  48  73 111 145 198 249 310 383 441
#     4  12  27  46  75 108 149 196 250 304 383 444
#     4  11  26  48  77 106 158 196 258 305 385 469
#     4  12  24  52  78 110 146 208 254 310 370 488
#
# _framework density 23.661928
#
# number of rings (size 3 to 8) (size 9 to 14) (size 15 to 20)
#    0.000    0.533    5.333    1.600   13.067    0.000 
#    0.000    0.000    0.000    0.000    0.000    0.000 
#    0.000    0.000    0.000    0.000    0.000    0.000 
#
# Total GULP energy -167685.330857 kJ/mol
# GULP energy per Si atom -5589.511029 kJ/mol
# Density = 2.360807 g / cm^3
# Si number density = 23.661928 Si / 1000 Ang^3
#
#
#
# Elastic Constant Matrix: (Units=GPa)
#
#
# Indices 1 2 3 4 5 6 
#
# 1 114.1964 32.6484 44.6747 -0.0001 0.0000 0.0000
# 2 32.6484 43.4506 30.6581 -0.0001 0.0001 0.0000
# 3 44.6747 30.6581 122.9558 -0.0004 0.0002 0.0001
# 4 -0.0001 -0.0001 -0.0004 28.0084 0.0001 0.0000
# 5 0.0000 0.0001 0.0002 0.0001 59.2946 0.0000
# 6 0.0000 0.0000 0.0001 0.0000 0.0000 31.0417
#
#
#
# Elastic Compliance Matrix: (Units=1/GPa)
#
#
# Indices 1 2 3 4 5 6 
#
# 1 0.011759 -0.007064 -0.002511 0.000000 0.000000 0.000000
# 2 -0.007064 0.032171 -0.005455 0.000000 0.000000 0.000000
# 3 -0.002511 -0.005455 0.010406 0.000000 0.000000 0.000000
# 4 0.000000 0.000000 0.000000 0.035704 0.000000 0.000000
# 5 0.000000 0.000000 0.000000 0.000000 0.016865 0.000000
# 6 0.000000 0.000000 0.000000 0.000000 0.000000 0.032215
#
#
# Mechanical properties :
#
#
# Convention : Reuss Voigt Hill
#
# Bulk Modulus (GPa) = 41.19338 55.17392 48.18365
# Shear Modulus (GPa) = 28.20551 35.17705 31.69128
#
# Velocity S-wave (km/s) = 3.45631 3.85990 3.66366
# Velocity P-wave (km/s) = 5.77711 6.57520 6.18904
#
# Compressibility (1/GPa) = 0.02427575
#
# Stress axis : x y z
#
# Youngs Moduli (GPa) = 85.04359 31.08371 96.10198
#
# Poissons Ratio (x) = 0.21956 0.24133
# Poissons Ratio (y) = 0.60071 0.52425
# Poissons Ratio (z) = 0.21356 0.16957
#
# Static dielectric constant tensor:
#      x y z
#    x 1.890750 0.000000 0.000000 
#    y 0.000000 1.935150 0.000000 
#    z 0.000000 0.000000 1.924680 
# 
# From -- ./inp_files/4358.got.cif
#   From: 2010.05.17/outbox.cif.g08.bks.cpg/sg43_3_cif.got.tgz:4358.got - 2010.06.03 19:21:55.
