data_PCOD9372855
_publ_section_title
;
Structure prediction by ZEFSAII (Michael W. Deem and Ramdas Pophale) SiO2 
 PCOD9372855
Probable space group: F D D 2
;
_chemical_formula_sum "Si O2"
_cell_formula_units_Z 64
_cell_length_a 8.638936
_cell_length_b 12.146660
_cell_length_c 23.582377
_cell_angle_alpha 90.000000
_cell_angle_beta 90.000000
_cell_angle_gamma 90.000000
_cell_volume 2474.598297
_symmetry_space_group_name_H-M "F D D 2"
_symmetry_group_IT_number 43
_symmetry_cell_setting 'orthorhombic'
loop_
_space_group_symop_operation_xyz
x,y,z
-x,-y,z
1/4-x,1/4+y,1/4+z
1/4+x,1/4-y,1/4+z
x,1/2+y,1/2+z
-x,1/2-y,1/2+z
1/4-x,3/4+y,3/4+z
1/4+x,3/4-y,3/4+z
1/2+x,y,1/2+z
1/2-x,-y,1/2+z
3/4-x,1/4+y,3/4+z
3/4+x,1/4-y,3/4+z
1/2+x,1/2+y,z
1/2-x,1/2-y,z
3/4-x,3/4+y,1/4+z
3/4+x,3/4-y,1/4+z
loop_
_atom_site_type_symbol
_atom_site_label
_atom_site_fract_x
_atom_site_fract_y
_atom_site_fract_z
Si Si1 0.340780 0.531911 0.520490
Si Si2 0.072401 0.281093 0.950617
Si Si3 0.380210 0.666791 0.051973
Si Si4 0.569959 0.388234 0.867856
O O1 0.500000 0.500000 0.551316
O O2 0.404603 0.589841 0.463645
O O3 0.213211 0.434962 0.522341
O O4 0.264572 0.627320 0.557490
O O5 0.250000 0.250000 0.943046
O O6 0.979811 0.222542 0.900068
O O7 0.980123 0.229238 0.004013
O O8 0.250000 0.750000 0.072883
O O9 0.499869 0.640487 0.102241
O O10 0.500000 0.500000 0.895511
#
# Coordination Sequence:
#
# PCOD9372855 Si02
#       4
#    16  16  16  16
#     4  12  24  51  81 114 171 212 278 360 421 512
#     4  12  27  49  81 124 160 223 286 349 430 503
#     4  12  25  50  84 117 174 225 277 364 431 506
#     4  12  26  49  82 122 165 230 284 354 438 517
#
# _framework density 25.862783
#
# number of rings (size 3 to 8) (size 9 to 14) (size 15 to 20)
#    0.000    0.000    7.500    1.500    3.500    2.000 
#    0.000    0.000    0.000    0.000    0.000    0.000 
#    0.000    0.000    0.000    0.000    0.000    0.000 
#
# Total GULP energy -89420.943165 kJ/mol
# GULP energy per Si atom -5588.808948 kJ/mol
# Density = 2.580392 g / cm^3
# Si number density = 25.862783 Si / 1000 Ang^3
#
#
#
# Elastic Constant Matrix: (Units=GPa)
#
#
# Indices 1 2 3 4 5 6 
#
# 1 249.6005 104.0559 66.7420 0.0000 0.0000 0.0000
# 2 104.0559 176.7391 46.0529 0.0000 0.0000 0.0000
# 3 66.7420 46.0529 74.8918 0.0000 0.0000 0.0000
# 4 0.0000 0.0000 0.0000 20.5521 0.0000 0.0000
# 5 0.0000 0.0000 0.0000 0.0000 16.9805 0.0000
# 6 0.0000 0.0000 0.0000 0.0000 0.0000 60.1397
#
#
#
# Elastic Compliance Matrix: (Units=1/GPa)
#
#
# Indices 1 2 3 4 5 6 
#
# 1 0.006121 -0.002599 -0.003857 0.000000 0.000000 0.000000
# 2 -0.002599 0.007841 -0.002506 0.000000 0.000000 0.000000
# 3 -0.003857 -0.002506 0.018331 0.000000 0.000000 0.000000
# 4 0.000000 0.000000 0.000000 0.048657 0.000000 0.000000
# 5 0.000000 0.000000 0.000000 0.000000 0.058891 0.000000
# 6 0.000000 0.000000 0.000000 0.000000 0.000000 0.016628
#
#
# Mechanical properties :
#
#
# Convention : Reuss Voigt Hill
#
# Bulk Modulus (GPa) = 69.58963 103.88147 86.73555
# Shear Modulus (GPa) = 27.90464 38.49315 33.19889
#
# Velocity S-wave (km/s) = 3.28830 3.86211 3.58670
# Velocity P-wave (km/s) = 6.43295 7.75509 7.12476
#
# Compressibility (1/GPa) = 0.01436996
#
# Stress axis : x y z
#
# Youngs Moduli (GPa) = 163.36742 127.53421 54.55363
#
# Poissons Ratio (x) = 0.33144 0.21041
# Poissons Ratio (y) = 0.42457 0.13669
# Poissons Ratio (z) = 0.63010 0.31955
#
# Static dielectric constant tensor:
#      x y z
#    x 2.281690 0.000000 0.000000 
#    y 0.000000 2.214590 0.000000 
#    z 0.000000 0.000000 2.086770 
# 
# From -- ./inp_files/21503.got.cif
#   From: 2010.05.17/outbox.cif.g08.bks.cpg/sg43_11_cif.got.tgz:21503.got - 2010.06.03 19:21:55.
