data_PCOD9372673
_publ_section_title
;
Structure prediction by ZEFSAII (Michael W. Deem and Ramdas Pophale) SiO2 
 PCOD9372673
Probable space group: F D D 2
;
_chemical_formula_sum "Si O2"
_cell_formula_units_Z 88
_cell_length_a 13.631619
_cell_length_b 31.720971
_cell_length_c 6.917405
_cell_angle_alpha 90.000000
_cell_angle_beta 90.000000
_cell_angle_gamma 90.000000
_cell_volume 2991.142582
_symmetry_space_group_name_H-M "F D D 2"
_symmetry_group_IT_number 43
_symmetry_cell_setting 'orthorhombic'
loop_
_space_group_symop_operation_xyz
x,y,z
-x,-y,z
1/4-x,1/4+y,1/4+z
1/4+x,1/4-y,1/4+z
x,1/2+y,1/2+z
-x,1/2-y,1/2+z
1/4-x,3/4+y,3/4+z
1/4+x,3/4-y,3/4+z
1/2+x,y,1/2+z
1/2-x,-y,1/2+z
3/4-x,1/4+y,3/4+z
3/4+x,1/4-y,3/4+z
1/2+x,1/2+y,z
1/2-x,1/2-y,z
3/4-x,3/4+y,1/4+z
3/4+x,3/4-y,1/4+z
loop_
_atom_site_type_symbol
_atom_site_label
_atom_site_fract_x
_atom_site_fract_y
_atom_site_fract_z
Si Si1 0.634757 0.052268 0.855850
Si Si2 0.094794 0.217398 0.015654
Si Si3 0.902196 0.821576 0.641235
Si Si4 0.250000 0.750000 0.824423
Si Si5 0.371594 0.413724 0.781901
Si Si6 0.422245 0.100492 0.491325
O O1 0.650109 0.101136 0.787234
O O2 0.731166 0.024799 0.804000
O O3 0.550547 0.032106 0.726567
O O4 0.618920 0.057927 0.087340
O O5 0.125388 0.214813 0.792029
O O6 0.020857 0.324290 0.138477
O O7 0.163336 0.241487 0.165201
O O8 0.103523 0.167857 0.074458
O O9 0.856310 0.865958 0.709551
O O10 0.867127 0.822743 0.421477
O O11 0.220747 0.838146 0.657782
#
# Coordination Sequence:
#
# PCOD9372673 Si02
#       6
#    16  16  16   8  16  16
#     4  11  28  59  93 131 183 241 318 379 462 570
#     4  12  28  57  89 128 181 238 311 373 461 563
#     4  11  25  45  83 137 182 216 298 384 456 538
#     4  12  34  62  90 126 198 262 292 378 488 550
#     4  11  24  47  88 141 175 227 295 392 454 526
#     4  11  26  51  91 135 170 225 307 391 453 530
#
# _framework density 29.420196000000001
#
# number of rings (size 3 to 8) (size 9 to 14) (size 15 to 20)
#    0.000    0.727    3.636    1.091    5.091    2.909 
#    9.818    0.909    0.000    0.000    0.000    0.000 
#    0.000    0.000    0.000    0.000    0.000    0.000 
#
# Total GULP energy -123395.010253 kJ/mol
# GULP energy per Si atom -5608.864102 kJ/mol
# Density = 2.935323 g / cm^3
# Si number density = 29.420196 Si / 1000 Ang^3
#
#
#
# Elastic Constant Matrix: (Units=GPa)
#
#
# Indices 1 2 3 4 5 6 
#
# 1 155.4626 35.2798 28.9271 0.0000 0.0000 0.0000
# 2 35.2798 111.5459 50.3522 0.0000 0.0000 0.0000
# 3 28.9271 50.3522 223.1392 0.0000 0.0000 0.0000
# 4 0.0000 0.0000 0.0000 63.8079 0.0000 0.0000
# 5 0.0000 0.0000 0.0000 0.0000 62.0665 0.0000
# 6 0.0000 0.0000 0.0000 0.0000 0.0000 45.0350
#
#
#
# Elastic Compliance Matrix: (Units=1/GPa)
#
#
# Indices 1 2 3 4 5 6 
#
# 1 0.006971 -0.002001 -0.000452 0.000000 0.000000 0.000000
# 2 -0.002001 0.010556 -0.002123 0.000000 0.000000 0.000000
# 3 -0.000452 -0.002123 0.005019 0.000000 0.000000 0.000000
# 4 0.000000 0.000000 0.000000 0.015672 0.000000 0.000000
# 5 0.000000 0.000000 0.000000 0.000000 0.016112 0.000000
# 6 0.000000 0.000000 0.000000 0.000000 0.000000 0.022205
#
#
# Mechanical properties :
#
#
# Convention : Reuss Voigt Hill
#
# Bulk Modulus (GPa) = 74.65608 79.91843 77.28725
# Shear Modulus (GPa) = 55.46324 59.22113 57.34218
#
# Velocity S-wave (km/s) = 4.34661 4.49145 4.41962
# Velocity P-wave (km/s) = 7.11488 7.35669 7.23680
#
# Compressibility (1/GPa) = 0.01339476
#
# Stress axis : x y z
#
# Youngs Moduli (GPa) = 143.46082 94.73464 199.23865
#
# Poissons Ratio (x) = 0.18952 0.09010
# Poissons Ratio (y) = 0.28700 0.42291
# Poissons Ratio (z) = 0.06488 0.20109
#
# Static dielectric constant tensor:
#      x y z
#    x 2.264330 0.000000 0.000000 
#    y 0.000000 2.489610 0.000000 
#    z 0.000000 0.000000 2.219640 
# 
# From -- ./inp_files/4739.got.cif
#   From: 2010.05.17/outbox.cif.g08.bks.cpg/sg43_3_cif.got.tgz:4739.got - 2010.06.03 19:21:55.
