data_PCOD9372915
_publ_section_title
;
Structure prediction by ZEFSAII (Michael W. Deem and Ramdas Pophale) SiO2 
 PCOD9372915
Probable space group: F D D 2
;
_chemical_formula_sum "Si O2"
_cell_formula_units_Z 56
_cell_length_a 31.139830
_cell_length_b 14.318885
_cell_length_c 4.614072
_cell_angle_alpha 90.000000
_cell_angle_beta 90.000000
_cell_angle_gamma 90.000000
_cell_volume 2057.357697
_symmetry_space_group_name_H-M "F D D 2"
_symmetry_group_IT_number 43
_symmetry_cell_setting 'orthorhombic'
loop_
_space_group_symop_operation_xyz
x,y,z
-x,-y,z
1/4-x,1/4+y,1/4+z
1/4+x,1/4-y,1/4+z
x,1/2+y,1/2+z
-x,1/2-y,1/2+z
1/4-x,3/4+y,3/4+z
1/4+x,3/4-y,3/4+z
1/2+x,y,1/2+z
1/2-x,-y,1/2+z
3/4-x,1/4+y,3/4+z
3/4+x,1/4-y,3/4+z
1/2+x,1/2+y,z
1/2-x,1/2-y,z
3/4-x,3/4+y,1/4+z
3/4+x,3/4-y,1/4+z
loop_
_atom_site_type_symbol
_atom_site_label
_atom_site_fract_x
_atom_site_fract_y
_atom_site_fract_z
Si Si1 0.768272 0.441534 0.760180
Si Si2 0.000000 0.000000 0.344136
Si Si3 0.896507 0.757103 0.233785
Si Si4 0.089355 0.045811 0.449107
O O1 0.735029 0.480879 0.518233
O O2 0.815105 0.444433 0.610644
O O3 0.758264 0.342157 0.901338
O O4 0.958016 0.982920 0.538115
O O5 0.915503 0.860786 0.252329
O O6 0.858227 0.772448 0.460252
O O7 0.874247 0.713862 0.953601
#
# Coordination Sequence:
#
# PCOD9372915 Si02
#       4
#    16   8  16  16
#     4  12  28  54  89 126 175 221 295 366 433 534
#     4  12  30  56  94 128 174 230 298 364 452 510
#     4  12  27  53  83 124 176 227 289 361 441 527
#     4  12  28  52  83 124 176 225 291 362 438 528
#
# _framework density 27.219377000000001
#
# number of rings (size 3 to 8) (size 9 to 14) (size 15 to 20)
#    0.000    0.000    2.857    5.143    4.000    6.857 
#    0.000    0.000    0.000    0.000    0.000    0.000 
#    0.000    0.000    0.000    0.000    0.000    0.000 
#
# Total GULP energy -78403.828713 kJ/mol
# GULP energy per Si atom -5600.273479 kJ/mol
# Density = 2.715742 g / cm^3
# Si number density = 27.219377 Si / 1000 Ang^3
#
#
#
# Elastic Constant Matrix: (Units=GPa)
#
#
# Indices 1 2 3 4 5 6 
#
# 1 177.5432 70.8872 39.1209 0.0001 0.0001 0.0002
# 2 70.8872 162.1480 64.0580 0.0012 -0.0002 0.0004
# 3 39.1209 64.0580 130.5033 0.0037 -0.0005 0.0011
# 4 0.0001 0.0012 0.0037 46.4989 -0.0003 0.0007
# 5 0.0001 -0.0002 -0.0005 -0.0003 60.9724 0.0001
# 6 0.0002 0.0004 0.0011 0.0007 0.0001 30.1292
#
#
#
# Elastic Compliance Matrix: (Units=1/GPa)
#
#
# Indices 1 2 3 4 5 6 
#
# 1 0.006879 -0.002720 -0.000727 0.000000 0.000000 0.000000
# 2 -0.002720 0.008726 -0.003468 0.000000 0.000000 0.000000
# 3 -0.000727 -0.003468 0.009583 -0.000001 0.000000 0.000000
# 4 0.000000 0.000000 -0.000001 0.021506 0.000000 0.000000
# 5 0.000000 0.000000 0.000000 0.000000 0.016401 0.000000
# 6 0.000000 0.000000 0.000000 0.000000 0.000000 0.033190
#
#
# Mechanical properties :
#
#
# Convention : Reuss Voigt Hill
#
# Bulk Modulus (GPa) = 88.04329 90.92520 89.48424
# Shear Modulus (GPa) = 43.89788 47.26200 45.57994
#
# Velocity S-wave (km/s) = 4.02025 4.17146 4.09655
# Velocity P-wave (km/s) = 7.34615 7.52851 7.43789
#
# Compressibility (1/GPa) = 0.01135805
#
# Stress axis : x y z
#
# Youngs Moduli (GPa) = 145.37836 114.59491 104.35348
#
# Poissons Ratio (x) = 0.31170 0.07585
# Poissons Ratio (y) = 0.39543 0.36190
# Poissons Ratio (z) = 0.10567 0.39742
#
# Static dielectric constant tensor:
#      x y z
#    x 2.246480 0.000000 0.000000 
#    y 0.000000 2.309420 0.000000 
#    z 0.000000 0.000000 2.108560 
# 
# From -- ./inp_files/1295.got.cif
#   From: 2010.05.17/outbox.cif.g08.bks.cpg/sg43_1_cif.got.tgz:1295.got - 2010.06.03 19:21:55.
