data_PCOD9372104
_publ_section_title
;
Structure prediction by ZEFSAII (Michael W. Deem and Ramdas Pophale) SiO2 
 PCOD9372104
Probable space group: F D D 2
;
_chemical_formula_sum "Si O2"
_cell_formula_units_Z 112
_cell_length_a 22.424326
_cell_length_b 14.966949
_cell_length_c 14.837969
_cell_angle_alpha 90.000000
_cell_angle_beta 90.000000
_cell_angle_gamma 90.000000
_cell_volume 4979.974703
_symmetry_space_group_name_H-M "F D D 2"
_symmetry_group_IT_number 43
_symmetry_cell_setting 'orthorhombic'
loop_
_space_group_symop_operation_xyz
x,y,z
-x,-y,z
1/4-x,1/4+y,1/4+z
1/4+x,1/4-y,1/4+z
x,1/2+y,1/2+z
-x,1/2-y,1/2+z
1/4-x,3/4+y,3/4+z
1/4+x,3/4-y,3/4+z
1/2+x,y,1/2+z
1/2-x,-y,1/2+z
3/4-x,1/4+y,3/4+z
3/4+x,1/4-y,3/4+z
1/2+x,1/2+y,z
1/2-x,1/2-y,z
3/4-x,3/4+y,1/4+z
3/4+x,3/4-y,1/4+z
loop_
_atom_site_type_symbol
_atom_site_label
_atom_site_fract_x
_atom_site_fract_y
_atom_site_fract_z
Si Si1 0.615315 0.764939 0.635040
Si Si2 0.149073 0.957870 0.091285
Si Si3 0.652623 0.483498 0.722349
Si Si4 0.975919 0.810301 0.496549
Si Si5 0.000000 0.000000 0.866901
Si Si6 0.667309 0.395304 0.533019
Si Si7 0.000000 0.500000 0.954044
Si Si8 0.637454 0.155327 0.656050
O O1 0.610696 0.870852 0.617825
O O2 0.582085 0.714959 0.553434
O O3 0.578580 0.733319 0.722685
O O4 0.686630 0.747022 0.649911
O O5 0.212067 0.941884 0.139837
O O6 0.129168 0.050112 0.138443
O O7 0.152535 0.950467 0.983323
O O8 0.720645 0.491542 0.755489
O O9 0.645170 0.428990 0.630706
O O10 0.626651 0.583617 0.722843
O O11 0.619539 0.439959 0.805277
O O12 0.995112 0.911495 0.515232
O O13 0.028179 0.079508 0.806262
O O14 0.952614 0.053584 0.928200
#
# Coordination Sequence:
#
# PCOD9372104 Si02
#       8
#    16  16  16  16   8  16   8  16
#     4  11  25  45  72 110 146 199 244 312 384 452
#     4  11  24  43  71 100 148 192 239 304 370 456
#     4  11  25  44  72 109 143 194 248 318 371 451
#     4  11  24  45  72 106 147 195 249 307 378 450
#     4  10  24  45  75 106 144 188 246 327 367 450
#     4  11  25  43  74 108 151 189 255 309 389 448
#     4  10  24  45  73 102 156 182 250 317 363 458
#     4  11  23  47  73 104 148 196 249 310 384 444
#
# _framework density 22.490075000000001
#
# number of rings (size 3 to 8) (size 9 to 14) (size 15 to 20)
#    0.000    1.143    2.857    2.571    4.000    5.143 
#    0.000    3.571    0.000    0.000    0.000    0.000 
#    0.000    0.000    0.000    0.000    0.000    0.000 
#
# Total GULP energy -155983.271192 kJ/mol
# GULP energy per Si atom -5570.831114 kJ/mol
# Density = 2.243889 g / cm^3
# Si number density = 22.490075 Si / 1000 Ang^3
#
#
#
# Elastic Constant Matrix: (Units=GPa)
#
#
# Indices 1 2 3 4 5 6 
#
# 1 60.9132 25.0566 1.5807 0.0000 0.0000 0.0000
# 2 25.0566 80.5823 7.9322 0.0000 0.0000 0.0000
# 3 1.5807 7.9322 88.2705 0.0000 0.0000 0.0000
# 4 0.0000 0.0000 0.0000 16.3574 0.0000 0.0000
# 5 0.0000 0.0000 0.0000 0.0000 21.1685 0.0000
# 6 0.0000 0.0000 0.0000 0.0000 0.0000 30.1608
#
#
#
# Elastic Compliance Matrix: (Units=1/GPa)
#
#
# Indices 1 2 3 4 5 6 
#
# 1 0.018828 -0.005873 0.000191 0.000000 0.000000 0.000000
# 2 -0.005873 0.014352 -0.001185 0.000000 0.000000 0.000000
# 3 0.000191 -0.001185 0.011432 0.000000 0.000000 0.000000
# 4 0.000000 0.000000 0.000000 0.061134 0.000000 0.000000
# 5 0.000000 0.000000 0.000000 0.000000 0.047240 0.000000
# 6 0.000000 0.000000 0.000000 0.000000 0.000000 0.033156
#
#
# Mechanical properties :
#
#
# Convention : Reuss Voigt Hill
#
# Bulk Modulus (GPa) = 32.38564 33.21169 32.79867
# Shear Modulus (GPa) = 23.79037 26.55044 25.17041
#
# Velocity S-wave (km/s) = 3.25594 3.43963 3.34904
# Velocity P-wave (km/s) = 5.34472 5.52938 5.43784
#
# Compressibility (1/GPa) = 0.03087788
#
# Stress axis : x y z
#
# Youngs Moduli (GPa) = 53.11305 69.67432 87.47494
#
# Poissons Ratio (x) = 0.40921 -0.01667
# Poissons Ratio (y) = 0.31194 0.10362
# Poissons Ratio (z) = -0.01012 0.08253
#
# Static dielectric constant tensor:
#      x y z
#    x 1.896630 0.000000 0.000000 
#    y 0.000000 2.030200 0.000000 
#    z 0.000000 0.000000 1.844410 
# 
# From -- ./inp_files/11281.got.cif
#   From: 2010.05.17/outbox.cif.g08.bks.cpg/sg43_6_cif.got.tgz:11281.got - 2010.06.03 19:21:55.
