data_PCOD9372508
_publ_section_title
;
Structure prediction by ZEFSAII (Michael W. Deem and Ramdas Pophale) SiO2 
 PCOD9372508
Probable space group: F D D 2
;
_chemical_formula_sum "Si O2"
_cell_formula_units_Z 96
_cell_length_a 23.473919
_cell_length_b 18.532573
_cell_length_c 10.152379
_cell_angle_alpha 90.000000
_cell_angle_beta 90.000000
_cell_angle_gamma 90.000000
_cell_volume 4416.610934
_symmetry_space_group_name_H-M "F D D 2"
_symmetry_group_IT_number 43
_symmetry_cell_setting 'orthorhombic'
loop_
_space_group_symop_operation_xyz
x,y,z
-x,-y,z
1/4-x,1/4+y,1/4+z
1/4+x,1/4-y,1/4+z
x,1/2+y,1/2+z
-x,1/2-y,1/2+z
1/4-x,3/4+y,3/4+z
1/4+x,3/4-y,3/4+z
1/2+x,y,1/2+z
1/2-x,-y,1/2+z
3/4-x,1/4+y,3/4+z
3/4+x,1/4-y,3/4+z
1/2+x,1/2+y,z
1/2-x,1/2-y,z
3/4-x,3/4+y,1/4+z
3/4+x,3/4-y,1/4+z
loop_
_atom_site_type_symbol
_atom_site_label
_atom_site_fract_x
_atom_site_fract_y
_atom_site_fract_z
Si Si1 0.964179 0.809398 0.946920
Si Si2 0.181082 0.846506 0.127899
Si Si3 0.591888 0.900446 0.237377
Si Si4 0.540058 0.743370 0.246847
Si Si5 0.500000 0.000000 0.681572
Si Si6 0.426829 0.101283 0.520037
Si Si7 0.750000 0.750000 0.839135
O O1 0.902141 0.840168 0.917813
O O2 0.981157 0.761513 0.821942
O O3 0.013682 0.868175 0.963753
O O4 0.967016 0.774442 0.092794
O O5 0.208396 0.804431 0.253338
O O6 0.220944 0.812633 0.015523
O O7 0.113208 0.841167 0.096845
O O8 0.186823 0.932161 0.098362
O O9 0.576168 0.816740 0.246088
O O10 0.603830 0.924393 0.387656
O O11 0.542223 0.948549 0.172490
O O12 0.552450 0.965037 0.605689
#
# Coordination Sequence:
#
# PCOD9372508 Si02
#       7
#    16  16  16  16   8  16   8
#     4  11  25  42  71 103 141 189 244 304 371 442
#     4  11  25  44  69 102 145 184 248 296 371 442
#     4  11  25  45  70 102 148 181 246 298 380 441
#     4  11  24  46  69 105 143 192 245 307 373 450
#     4  11  23  42  66 100 133 187 242 296 362 433
#     4  11  23  40  71  97 136 190 239 296 359 448
#     4  11  27  48  70 112 149 201 232 322 376 455
#
# _framework density 21.736124
#
# number of rings (size 3 to 8) (size 9 to 14) (size 15 to 20)
#    0.000    1.000    3.333    1.500    9.333    2.667 
#    0.000    1.667    0.000    0.000    0.000    0.000 
#    0.000    0.000    0.000    0.000    0.000    0.000 
#
# Total GULP energy -133692.978198 kJ/mol
# GULP energy per Si atom -5570.540758 kJ/mol
# Density = 2.168665 g / cm^3
# Si number density = 21.736124 Si / 1000 Ang^3
#
#
#
# Elastic Constant Matrix: (Units=GPa)
#
#
# Indices 1 2 3 4 5 6 
#
# 1 126.6207 40.1027 19.9588 0.0000 0.0000 0.0000
# 2 40.1027 102.4263 29.5228 0.0000 0.0000 0.0000
# 3 19.9588 29.5228 75.8882 0.0000 0.0000 0.0000
# 4 0.0000 0.0000 0.0000 19.5157 0.0000 0.0000
# 5 0.0000 0.0000 0.0000 0.0000 23.7723 0.0000
# 6 0.0000 0.0000 0.0000 0.0000 0.0000 24.2440
#
#
#
# Elastic Compliance Matrix: (Units=1/GPa)
#
#
# Indices 1 2 3 4 5 6 
#
# 1 0.009101 -0.003236 -0.001135 0.000000 0.000000 0.000000
# 2 -0.003236 0.012147 -0.003874 0.000000 0.000000 0.000000
# 3 -0.001135 -0.003874 0.014983 0.000000 0.000000 0.000000
# 4 0.000000 0.000000 0.000000 0.051241 0.000000 0.000000
# 5 0.000000 0.000000 0.000000 0.000000 0.042066 0.000000
# 6 0.000000 0.000000 0.000000 0.000000 0.000000 0.041247
#
#
# Mechanical properties :
#
#
# Convention : Reuss Voigt Hill
#
# Bulk Modulus (GPa) = 50.65716 53.78931 52.22323
# Shear Modulus (GPa) = 25.79231 27.86314 26.82773
#
# Velocity S-wave (km/s) = 3.44846 3.58422 3.51700
# Velocity P-wave (km/s) = 6.26194 6.47527 6.36950
#
# Compressibility (1/GPa) = 0.01974054
#
# Stress axis : x y z
#
# Youngs Moduli (GPa) = 109.87225 82.32491 66.74262
#
# Poissons Ratio (x) = 0.26644 0.07573
# Poissons Ratio (y) = 0.35559 0.25858
# Poissons Ratio (z) = 0.12467 0.31896
#
# Static dielectric constant tensor:
#      x y z
#    x 1.853470 0.000000 0.000000 
#    y 0.000000 1.768300 0.000000 
#    z 0.000000 0.000000 1.859440 
# 
# From -- ./inp_files/6706.got.cif
#   From: 2010.05.17/outbox.cif.g08.bks.cpg/sg43_4_cif.got.tgz:6706.got - 2010.06.03 19:21:55.
