data_PCOD9372361
_publ_section_title
;
Structure prediction by ZEFSAII (Michael W. Deem and Ramdas Pophale) SiO2 
 PCOD9372361
Probable space group: F D D 2
;
_chemical_formula_sum "Si O2"
_cell_formula_units_Z 80
_cell_length_a 29.480826
_cell_length_b 5.111965
_cell_length_c 20.759711
_cell_angle_alpha 90.000000
_cell_angle_beta 90.000000
_cell_angle_gamma 90.000000
_cell_volume 3128.591222
_symmetry_space_group_name_H-M "F D D 2"
_symmetry_group_IT_number 43
_symmetry_cell_setting 'orthorhombic'
loop_
_space_group_symop_operation_xyz
x,y,z
-x,-y,z
1/4-x,1/4+y,1/4+z
1/4+x,1/4-y,1/4+z
x,1/2+y,1/2+z
-x,1/2-y,1/2+z
1/4-x,3/4+y,3/4+z
1/4+x,3/4-y,3/4+z
1/2+x,y,1/2+z
1/2-x,-y,1/2+z
3/4-x,1/4+y,3/4+z
3/4+x,1/4-y,3/4+z
1/2+x,1/2+y,z
1/2-x,1/2-y,z
3/4-x,3/4+y,1/4+z
3/4+x,3/4-y,1/4+z
loop_
_atom_site_type_symbol
_atom_site_label
_atom_site_fract_x
_atom_site_fract_y
_atom_site_fract_z
Si Si1 0.250000 0.250000 0.622921
Si Si2 0.500000 0.500000 0.602046
Si Si3 0.700194 0.331659 0.904518
Si Si4 0.708066 0.550520 0.232978
Si Si5 0.874509 0.759752 0.298899
Si Si6 0.566987 0.253399 0.283374
O O1 0.212524 0.370000 0.670741
O O2 0.227235 0.032927 0.577787
O O3 0.536943 0.385136 0.652869
O O4 0.533583 0.631001 0.547721
O O5 0.750000 0.250000 0.875574
O O6 0.657810 0.307796 0.858261
O O7 0.694106 0.155539 0.966702
O O8 0.750000 0.750000 0.228752
O O9 0.660825 0.700831 0.239840
O O10 0.910716 0.532488 0.283972
O O11 0.896696 0.039986 0.311524
#
# Coordination Sequence:
#
# PCOD9372361 Si02
#       6
#     8   8  16  16  16  16
#     4  11  30  52  76 120 170 233 258 334 430 513
#     4  11  20  46  84 116 150 217 282 314 398 507
#     4  12  26  50  83 111 161 213 270 328 408 491
#     4  11  24  46  86 115 164 218 272 334 412 502
#     4  12  28  51  77 124 154 214 278 344 394 481
#     4  12  32  51  79 116 171 209 275 340 417 471
#
# _framework density 25.570615
#
# number of rings (size 3 to 8) (size 9 to 14) (size 15 to 20)
#    0.000    0.400    5.000    1.200   11.200    0.000 
#    0.000    0.000    0.000    0.000    0.000    0.000 
#    0.000    0.000    0.000    0.000    0.000    0.000 
#
# Total GULP energy -111740.584430 kJ/mol
# GULP energy per Si atom -5587.029221 kJ/mol
# Density = 2.551241 g / cm^3
# Si number density = 25.570615 Si / 1000 Ang^3
#
#
#
# Elastic Constant Matrix: (Units=GPa)
#
#
# Indices 1 2 3 4 5 6 
#
# 1 96.6260 27.6556 35.2322 -0.0098 -0.0001 -0.0020
# 2 27.6556 86.1631 27.8422 -0.0343 -0.0008 -0.0057
# 3 35.2322 27.8422 138.4326 -0.0101 -0.0009 -0.0025
# 4 -0.0098 -0.0343 -0.0101 -8.8591 -0.0004 -0.0010
# 5 -0.0001 -0.0008 -0.0009 -0.0004 22.6681 -0.0019
# 6 -0.0020 -0.0057 -0.0025 -0.0010 -0.0019 77.1106
#
#
#
# Elastic Compliance Matrix: (Units=1/GPa)
#
#
# Indices 1 2 3 4 5 6 
#
# 1 0.012135 -0.003098 -0.002465 0.000001 0.000000 0.000000
# 2 -0.003098 0.013204 -0.001867 -0.000046 0.000000 0.000001
# 3 -0.002465 -0.001867 0.008227 0.000001 0.000000 0.000000
# 4 0.000001 -0.000046 0.000001 -0.112878 -0.000002 -0.000002
# 5 0.000000 0.000000 0.000000 -0.000002 0.044115 0.000001
# 6 0.000000 0.000001 0.000000 -0.000002 0.000001 0.012968
#
#
# Mechanical properties :
#
#
# Convention : Reuss Voigt Hill
#
# Bulk Modulus (GPa) = 53.46461 55.85351 54.65906
# Shear Modulus (GPa) = -4410.64490 33.55003 -2188.54744
#
# Velocity S-wave (km/s) = -41.57683 3.62616 -29.28723
# Velocity P-wave (km/s) = 47.79006 6.27872 33.49976
#
# Compressibility (1/GPa) = 0.01870396
#
# Stress axis : x y z
#
# Youngs Moduli (GPa) = 82.40731 75.73676 121.55578
#
# Poissons Ratio (x) = 0.23465 0.29967
# Poissons Ratio (y) = 0.25532 0.22695
# Poissons Ratio (z) = 0.20316 0.14140
#
# Static dielectric constant tensor:
#      x y z
#    x 2.019770 0.000000 0.000000 
#    y 0.000000 -0.262250 0.000000 
#    z 0.000000 0.000000 2.021430 
# 
# From -- ./inp_files/22933.got.cif
#   From: 2010.05.17/outbox.cif.g08.bks.cpg/sg43_12_cif.got.tgz:22933.got - 2010.06.03 19:21:55.
