data_PCOD9372859
_publ_section_title
;
Structure prediction by ZEFSAII (Michael W. Deem and Ramdas Pophale) SiO2 
 PCOD9372859
Probable space group: F D D 2
;
_chemical_formula_sum "Si O2"
_cell_formula_units_Z 56
_cell_length_a 13.945253
_cell_length_b 24.324063
_cell_length_c 6.531061
_cell_angle_alpha 90.000000
_cell_angle_beta 90.000000
_cell_angle_gamma 90.000000
_cell_volume 2215.369935
_symmetry_space_group_name_H-M "F D D 2"
_symmetry_group_IT_number 43
_symmetry_cell_setting 'orthorhombic'
loop_
_space_group_symop_operation_xyz
x,y,z
-x,-y,z
1/4-x,1/4+y,1/4+z
1/4+x,1/4-y,1/4+z
x,1/2+y,1/2+z
-x,1/2-y,1/2+z
1/4-x,3/4+y,3/4+z
1/4+x,3/4-y,3/4+z
1/2+x,y,1/2+z
1/2-x,-y,1/2+z
3/4-x,1/4+y,3/4+z
3/4+x,1/4-y,3/4+z
1/2+x,1/2+y,z
1/2-x,1/2-y,z
3/4-x,3/4+y,1/4+z
3/4+x,3/4-y,1/4+z
loop_
_atom_site_type_symbol
_atom_site_label
_atom_site_fract_x
_atom_site_fract_y
_atom_site_fract_z
Si Si1 0.250000 0.750000 0.708591
Si Si2 0.428248 0.820015 0.045114
Si Si3 0.799813 0.183434 0.071585
Si Si4 0.089642 0.237577 0.896915
O O1 0.169107 0.722765 0.565467
O O2 0.186605 0.793409 0.842065
O O3 0.315181 0.808961 0.062945
O O4 0.448380 0.818302 0.289259
O O5 0.438357 0.871397 0.897128
O O6 0.498511 0.771813 0.972569
O O7 0.856690 0.218481 0.243654
#
# Coordination Sequence:
#
# PCOD9372859 Si02
#       4
#     8  16  16  16
#     4  12  24  52  80 112 164 212 262 346 396 482
#     4  12  25  51  77 116 158 210 271 328 409 478
#     4  12  25  50  78 115 163 207 277 329 401 491
#     4  12  26  51  81 116 165 211 268 342 401 486
#
# _framework density 25.277944999999999
#
# number of rings (size 3 to 8) (size 9 to 14) (size 15 to 20)
#    0.000    0.000    8.571    1.714    0.000    0.000 
#   15.429    0.000    0.000    0.000    0.000    0.000 
#    0.000    0.000    0.000    0.000    0.000    0.000 
#
# Total GULP energy -77948.294976 kJ/mol
# GULP energy per Si atom -5567.735355 kJ/mol
# Density = 2.522041 g / cm^3
# Si number density = 25.277945 Si / 1000 Ang^3
#
#
#
# Elastic Constant Matrix: (Units=GPa)
#
#
# Indices 1 2 3 4 5 6 
#
# 1 157.7516 11.9536 32.4863 0.0000 -0.0001 0.0000
# 2 11.9536 61.3431 47.0915 0.0000 0.0000 0.0000
# 3 32.4863 47.0915 132.8746 0.0000 -0.0002 0.0000
# 4 0.0000 0.0000 0.0000 20.9310 0.0000 0.0000
# 5 -0.0001 0.0000 -0.0002 0.0000 65.7533 0.0000
# 6 0.0000 0.0000 0.0000 0.0000 0.0000 7.9860
#
#
#
# Elastic Compliance Matrix: (Units=1/GPa)
#
#
# Indices 1 2 3 4 5 6 
#
# 1 0.006675 -0.000066 -0.001609 0.000000 0.000000 0.000000
# 2 -0.000066 0.022395 -0.007921 0.000000 0.000000 0.000000
# 3 -0.001609 -0.007921 0.010726 0.000000 0.000000 0.000000
# 4 0.000000 0.000000 0.000000 0.047776 0.000000 0.000000
# 5 0.000000 0.000000 0.000000 0.000000 0.015208 0.000000
# 6 0.000000 0.000000 0.000000 0.000000 0.000000 0.125220
#
#
# Mechanical properties :
#
#
# Convention : Reuss Voigt Hill
#
# Bulk Modulus (GPa) = 48.52926 59.44801 53.98863
# Shear Modulus (GPa) = 19.68034 36.29658 27.98846
#
# Velocity S-wave (km/s) = 2.79329 3.79344 3.33111
# Velocity P-wave (km/s) = 5.44456 6.53878 6.01660
#
# Compressibility (1/GPa) = 0.02060613
#
# Stress axis : x y z
#
# Youngs Moduli (GPa) = 149.80474 44.65231 93.22769
#
# Poissons Ratio (x) = 0.00294 0.14998
# Poissons Ratio (y) = 0.00986 0.73845
# Poissons Ratio (z) = 0.24099 0.35369
#
# Static dielectric constant tensor:
#      x y z
#    x 2.062340 0.000000 0.000000 
#    y 0.000000 2.159510 0.000000 
#    z 0.000000 0.000000 2.716150 
# 
# From -- ./inp_files/332.got.cif
#   From: 2010.05.17/outbox.cif.g08.bks.cpg/sg43_1_cif.got.tgz:332.got - 2010.06.03 19:21:55.
