data_PCOD9372585
_publ_section_title
;
Structure prediction by ZEFSAII (Michael W. Deem and Ramdas Pophale) SiO2 
 PCOD9372585
Probable space group: F D D 2
;
_chemical_formula_sum "Si O2"
_cell_formula_units_Z 80
_cell_length_a 11.347396
_cell_length_b 10.319183
_cell_length_c 27.922512
_cell_angle_alpha 90.000000
_cell_angle_beta 90.000000
_cell_angle_gamma 90.000000
_cell_volume 3269.610441
_symmetry_space_group_name_H-M "F D D 2"
_symmetry_group_IT_number 43
_symmetry_cell_setting 'orthorhombic'
loop_
_space_group_symop_operation_xyz
x,y,z
-x,-y,z
1/4-x,1/4+y,1/4+z
1/4+x,1/4-y,1/4+z
x,1/2+y,1/2+z
-x,1/2-y,1/2+z
1/4-x,3/4+y,3/4+z
1/4+x,3/4-y,3/4+z
1/2+x,y,1/2+z
1/2-x,-y,1/2+z
3/4-x,1/4+y,3/4+z
3/4+x,1/4-y,3/4+z
1/2+x,1/2+y,z
1/2-x,1/2-y,z
3/4-x,3/4+y,1/4+z
3/4+x,3/4-y,1/4+z
loop_
_atom_site_type_symbol
_atom_site_label
_atom_site_fract_x
_atom_site_fract_y
_atom_site_fract_z
Si Si1 0.629355 0.663581 0.156490
Si Si2 0.245766 0.480661 0.730094
Si Si3 0.925638 0.368447 0.157331
Si Si4 0.073781 0.874729 0.301345
Si Si5 0.414987 0.124736 0.297760
O O1 0.750000 0.750000 0.156965
O O2 0.654713 0.548487 0.193494
O O3 0.516053 0.752063 0.166976
O O4 0.614765 0.616761 0.101649
O O5 0.333959 0.394850 0.699003
O O6 0.315762 0.594760 0.758446
O O7 0.189270 0.389561 0.769791
O O8 0.859023 0.360533 0.106827
O O9 0.000000 0.500000 0.153888
O O10 0.995793 0.749619 0.290943
O O11 0.000000 0.000000 0.287960
O O12 0.500000 0.000000 0.295955
#
# Coordination Sequence:
#
# PCOD9372585 Si02
#       5
#    16  16  16  16  16
#     4  11  23  47  82 114 162 217 277 339 420 495
#     4  12  27  49  85 118 168 219 278 342 421 493
#     4  12  24  53  81 115 163 220 279 342 417 494
#     4  12  30  52  78 123 167 214 285 347 410 493
#     4  11  25  51  83 113 161 218 271 341 410 491
#
# _framework density 24.467746999999999
#
# number of rings (size 3 to 8) (size 9 to 14) (size 15 to 20)
#    0.000    0.400    6.000    1.800    2.800    0.000 
#   10.800    0.000    0.000    0.000    0.000    0.000 
#    0.000    0.000    0.000    0.000    0.000    0.000 
#
# Total GULP energy -112285.666046 kJ/mol
# GULP energy per Si atom -5614.283302 kJ/mol
# Density = 2.441206 g / cm^3
# Si number density = 24.467747 Si / 1000 Ang^3
#
#
#
# Elastic Constant Matrix: (Units=GPa)
#
#
# Indices 1 2 3 4 5 6 
#
# 1 122.0270 75.3475 76.1148 0.0000 0.0000 0.0000
# 2 75.3475 142.4232 36.2762 0.0000 0.0000 0.0000
# 3 76.1148 36.2762 184.7805 0.0000 0.0000 0.0000
# 4 0.0000 0.0000 0.0000 6.0368 0.0000 0.0000
# 5 0.0000 0.0000 0.0000 0.0000 689.6591 0.0000
# 6 0.0000 0.0000 0.0000 0.0000 0.0000 52.2719
#
#
#
# Elastic Compliance Matrix: (Units=1/GPa)
#
#
# Indices 1 2 3 4 5 6 
#
# 1 0.015697 -0.007008 -0.005090 0.000000 0.000000 0.000000
# 2 -0.007008 0.010520 0.000821 0.000000 0.000000 0.000000
# 3 -0.005090 0.000821 0.007347 0.000000 0.000000 0.000000
# 4 0.000000 0.000000 0.000000 0.165650 0.000000 0.000000
# 5 0.000000 0.000000 0.000000 0.000000 0.001450 0.000000
# 6 0.000000 0.000000 0.000000 0.000000 0.000000 0.019131
#
#
# Mechanical properties :
#
#
# Convention : Reuss Voigt Hill
#
# Bulk Modulus (GPa) = 90.81984 91.63417 91.22701
# Shear Modulus (GPa) = 20.32375 167.02639 93.67507
#
# Velocity S-wave (km/s) = 2.88520 8.27116 6.19421
# Velocity P-wave (km/s) = 6.94967 11.34674 9.40868
#
# Compressibility (1/GPa) = 0.01101081
#
# Stress axis : x y z
#
# Youngs Moduli (GPa) = 63.70645 95.06136 136.10483
#
# Poissons Ratio (x) = 0.66618 0.69279
# Poissons Ratio (y) = 0.44644 -0.11181
# Poissons Ratio (z) = 0.32427 -0.07809
#
# Static dielectric constant tensor:
#      x y z
#    x 1.616800 0.000000 0.000000 
#    y 0.000000 1.892610 0.000000 
#    z 0.000000 0.000000 1.936740 
# 
# From -- ./inp_files/28397.got.cif
#   From: 2010.05.17/outbox.cif.g08.bks.cpg/sg43_15_cif.got.tgz:28397.got - 2010.06.03 19:21:55.
