data_PCOD9372544
_publ_section_title
;
Structure prediction by ZEFSAII (Michael W. Deem and Ramdas Pophale) SiO2 
 PCOD9372544
Probable space group: F D D 2
;
_chemical_formula_sum "Si O2"
_cell_formula_units_Z 112
_cell_length_a 13.166465
_cell_length_b 21.891297
_cell_length_c 14.803989
_cell_angle_alpha 90.000000
_cell_angle_beta 90.000000
_cell_angle_gamma 90.000000
_cell_volume 4266.968491
_symmetry_space_group_name_H-M "F D D 2"
_symmetry_group_IT_number 43
_symmetry_cell_setting 'orthorhombic'
loop_
_space_group_symop_operation_xyz
x,y,z
-x,-y,z
1/4-x,1/4+y,1/4+z
1/4+x,1/4-y,1/4+z
x,1/2+y,1/2+z
-x,1/2-y,1/2+z
1/4-x,3/4+y,3/4+z
1/4+x,3/4-y,3/4+z
1/2+x,y,1/2+z
1/2-x,-y,1/2+z
3/4-x,1/4+y,3/4+z
3/4+x,1/4-y,3/4+z
1/2+x,1/2+y,z
1/2-x,1/2-y,z
3/4-x,3/4+y,1/4+z
3/4+x,3/4-y,1/4+z
loop_
_atom_site_type_symbol
_atom_site_label
_atom_site_fract_x
_atom_site_fract_y
_atom_site_fract_z
Si Si1 0.407852 0.415269 0.712990
Si Si2 0.853058 0.590485 0.670271
Si Si3 0.374661 0.613555 0.772804
Si Si4 0.116067 0.522564 0.401248
Si Si5 0.816611 0.605287 0.463836
Si Si6 0.708761 0.978485 0.148257
Si Si7 0.809449 0.812633 0.739713
O O1 0.525010 0.416080 0.732624
O O2 0.360776 0.442175 0.807834
O O3 0.371628 0.465461 0.644439
O O4 0.383636 0.348525 0.670900
O O5 0.854766 0.611163 0.564985
O O6 0.810534 0.520755 0.659237
O O7 0.777769 0.634380 0.728760
O O8 0.964841 0.605295 0.705282
O O9 0.360361 0.678327 0.729383
O O10 0.385341 0.624623 0.878791
O O11 0.294199 0.564655 0.736458
O O12 0.188499 0.467579 0.436639
O O13 0.000000 0.500000 0.390907
O O14 0.648829 0.940057 0.068577
O O15 0.750000 0.750000 0.725286
#
# Coordination Sequence:
#
# PCOD9372544 Si02
#       7
#    16  16  16  16  16  16  16
#     4  11  23  43  75 119 144 194 268 339 402 467
#     4  11  29  52  77 117 166 221 272 338 429 501
#     4  12  25  43  82 112 151 207 268 338 407 484
#     4  12  24  45  74 113 159 210 269 338 408 487
#     4  12  27  53  76 114 178 217 275 336 427 520
#     4  11  23  48  79 117 153 198 274 343 402 485
#     4  11  24  46  76 114 158 204 267 342 408 491
#
# _framework density 26.248142000000001
#
# number of rings (size 3 to 8) (size 9 to 14) (size 15 to 20)
#    0.000    0.571    4.286    3.000    4.000    1.143 
#    5.143    0.714    0.000    0.000    0.000    0.000 
#    0.000    0.000    0.000    0.000    0.000    0.000 
#
# Total GULP energy -155906.200709 kJ/mol
# GULP energy per Si atom -5568.078597 kJ/mol
# Density = 2.618840 g / cm^3
# Si number density = 26.248142 Si / 1000 Ang^3
#
#
#
# Elastic Constant Matrix: (Units=GPa)
#
#
# Indices 1 2 3 4 5 6 
#
# 1 45.2920 7.7379 -3.5410 0.0000 0.0000 0.0000
# 2 7.7379 130.4726 36.0731 0.0000 0.0000 0.0000
# 3 -3.5410 36.0731 74.0003 0.0000 0.0000 0.0000
# 4 0.0000 0.0000 0.0000 36.9832 0.0000 0.0000
# 5 0.0000 0.0000 0.0000 0.0000 23.7536 0.0000
# 6 0.0000 0.0000 0.0000 0.0000 0.0000 45.5448
#
#
#
# Elastic Compliance Matrix: (Units=1/GPa)
#
#
# Indices 1 2 3 4 5 6 
#
# 1 0.022559 -0.001891 0.002001 0.000000 0.000000 0.000000
# 2 -0.001891 0.009017 -0.004486 0.000000 0.000000 0.000000
# 3 0.002001 -0.004486 0.015796 0.000000 0.000000 0.000000
# 4 0.000000 0.000000 0.000000 0.027039 0.000000 0.000000
# 5 0.000000 0.000000 0.000000 0.000000 0.042099 0.000000
# 6 0.000000 0.000000 0.000000 0.000000 0.000000 0.021956
#
#
# Mechanical properties :
#
#
# Convention : Reuss Voigt Hill
#
# Bulk Modulus (GPa) = 25.89347 36.70054 31.29701
# Shear Modulus (GPa) = 31.23223 35.22264 33.22743
#
# Velocity S-wave (km/s) = 3.45321 3.66718 3.56180
# Velocity P-wave (km/s) = 5.07798 5.65186 5.37258
#
# Compressibility (1/GPa) = 0.03861978
#
# Stress axis : x y z
#
# Youngs Moduli (GPa) = 44.32912 110.90295 63.30707
#
# Poissons Ratio (x) = 0.20974 -0.12670
# Poissons Ratio (y) = 0.08384 0.28399
# Poissons Ratio (z) = -0.08872 0.49751
#
# Static dielectric constant tensor:
#      x y z
#    x 2.207650 0.000000 0.000000 
#    y 0.000000 2.121530 0.000000 
#    z 0.000000 0.000000 2.167920 
# 
# From -- ./inp_files/10176.got.cif
#   From: 2010.05.17/outbox.cif.g08.bks.cpg/sg43_6_cif.got.tgz:10176.got - 2010.06.03 19:21:55.
