data_PCOD9372605
_publ_section_title
;
Structure prediction by ZEFSAII (Michael W. Deem and Ramdas Pophale) SiO2 
 PCOD9372605
Probable space group: F D D 2
;
_chemical_formula_sum "Si O2"
_cell_formula_units_Z 88
_cell_length_a 5.368041
_cell_length_b 30.715024
_cell_length_c 23.740139
_cell_angle_alpha 90.000000
_cell_angle_beta 90.000000
_cell_angle_gamma 90.000000
_cell_volume 3914.262442
_symmetry_space_group_name_H-M "F D D 2"
_symmetry_group_IT_number 43
_symmetry_cell_setting 'orthorhombic'
loop_
_space_group_symop_operation_xyz
x,y,z
-x,-y,z
1/4-x,1/4+y,1/4+z
1/4+x,1/4-y,1/4+z
x,1/2+y,1/2+z
-x,1/2-y,1/2+z
1/4-x,3/4+y,3/4+z
1/4+x,3/4-y,3/4+z
1/2+x,y,1/2+z
1/2-x,-y,1/2+z
3/4-x,1/4+y,3/4+z
3/4+x,1/4-y,3/4+z
1/2+x,1/2+y,z
1/2-x,1/2-y,z
3/4-x,3/4+y,1/4+z
3/4+x,3/4-y,1/4+z
loop_
_atom_site_type_symbol
_atom_site_label
_atom_site_fract_x
_atom_site_fract_y
_atom_site_fract_z
Si Si1 0.500000 0.000000 0.574311
Si Si2 0.250000 0.250000 0.124375
Si Si3 0.269194 0.652882 0.980879
Si Si4 0.763646 0.411723 0.611544
Si Si5 0.500000 0.500000 0.447412
Si Si6 0.255731 0.673881 0.535551
Si Si7 0.120466 0.063437 0.532162
O O1 0.404257 0.957861 0.606596
O O2 0.710090 0.978737 0.536717
O O3 0.501044 0.258162 0.160308
O O4 0.303350 0.208871 0.083871
O O5 0.374655 0.643410 0.918774
O O6 0.488693 0.682534 0.006897
O O7 0.253833 0.606525 0.012034
O O8 0.990991 0.671680 0.992404
O O9 0.776776 0.373537 0.564874
O O10 0.486178 0.427772 0.594719
O O11 0.445246 0.545580 0.482084
#
# Coordination Sequence:
#
# PCOD9372605 Si02
#       7
#     8   8  16  16   8  16  16
#     4  12  21  44  69 104 144 189 228 321 340 440
#     4  12  27  46  73 102 143 190 250 299 362 438
#     4  11  26  45  72 101 143 196 231 296 373 429
#     4  11  25  42  71 103 145 185 239 298 366 428
#     4  12  24  42  76 106 133 191 240 302 370 422
#     4  11  26  47  68 102 144 186 244 299 353 443
#     4  11  24  43  71 107 146 180 247 302 358 438
#
# _framework density 22.481885999999999
#
# number of rings (size 3 to 8) (size 9 to 14) (size 15 to 20)
#    0.000    0.727    3.636    2.727    2.545    4.364 
#    0.000    0.000    0.000    0.000    0.000    0.000 
#    0.000    0.000    0.000    0.000    0.000    0.000 
#
# Total GULP energy -122513.540113 kJ/mol
# GULP energy per Si atom -5568.797278 kJ/mol
# Density = 2.243072 g / cm^3
# Si number density = 22.481886 Si / 1000 Ang^3
#
#
#
# Elastic Constant Matrix: (Units=GPa)
#
#
# Indices 1 2 3 4 5 6 
#
# 1 125.2644 33.2276 65.3325 0.0000 0.0000 0.0000
# 2 33.2276 55.7952 -6.7150 0.0000 0.0000 0.0000
# 3 65.3325 -6.7150 84.3977 0.0000 0.0000 0.0000
# 4 0.0000 0.0000 0.0000 111.1581 0.0000 0.0000
# 5 0.0000 0.0000 0.0000 0.0000 -42.3754 0.0000
# 6 0.0000 0.0000 0.0000 0.0000 0.0000 22.1058
#
#
#
# Elastic Compliance Matrix: (Units=1/GPa)
#
#
# Indices 1 2 3 4 5 6 
#
# 1 0.020846 -0.014495 -0.017290 0.000000 0.000000 0.000000
# 2 -0.014495 0.028175 0.013463 0.000000 0.000000 0.000000
# 3 -0.017290 0.013463 0.026304 0.000000 0.000000 0.000000
# 4 0.000000 0.000000 0.000000 0.008996 0.000000 0.000000
# 5 0.000000 0.000000 0.000000 0.000000 -0.023599 0.000000
# 6 0.000000 0.000000 0.000000 0.000000 0.000000 0.045237
#
#
# Mechanical properties :
#
#
# Convention : Reuss Voigt Hill
#
# Bulk Modulus (GPa) = 25.85343 49.90526 37.87934
# Shear Modulus (GPa) = 32.15456 29.75185 30.95321
#
# Velocity S-wave (km/s) = 3.78596 3.64176 3.71456
# Velocity P-wave (km/s) = 5.53497 6.31897 5.93992
#
# Compressibility (1/GPa) = 0.03867959
#
# Stress axis : x y z
#
# Youngs Moduli (GPa) = 47.97102 35.49215 38.01677
#
# Poissons Ratio (x) = 0.51447 0.65732
# Poissons Ratio (y) = 0.69535 -0.51180
# Poissons Ratio (z) = 0.82943 -0.47781
#
# Static dielectric constant tensor:
#      x y z
#    x 2.116190 0.000000 0.000000 
#    y 0.000000 1.813500 0.000000 
#    z 0.000000 0.000000 1.969320 
# 
# From -- ./inp_files/19590.got.cif
#   From: 2010.05.17/outbox.cif.g08.bks.cpg/sg43_10_cif.got.tgz:19590.got - 2010.06.03 19:21:55.
