data_PCOD9372730
_publ_section_title
;
Structure prediction by ZEFSAII (Michael W. Deem and Ramdas Pophale) SiO2 
 PCOD9372730
Probable space group: F D D 2
;
_chemical_formula_sum "Si O2"
_cell_formula_units_Z 48
_cell_length_a 27.064143
_cell_length_b 9.492070
_cell_length_c 6.941812
_cell_angle_alpha 90.000000
_cell_angle_beta 90.000000
_cell_angle_gamma 90.000000
_cell_volume 1783.314988
_symmetry_space_group_name_H-M "F D D 2"
_symmetry_group_IT_number 43
_symmetry_cell_setting 'orthorhombic'
loop_
_space_group_symop_operation_xyz
x,y,z
-x,-y,z
1/4-x,1/4+y,1/4+z
1/4+x,1/4-y,1/4+z
x,1/2+y,1/2+z
-x,1/2-y,1/2+z
1/4-x,3/4+y,3/4+z
1/4+x,3/4-y,3/4+z
1/2+x,y,1/2+z
1/2-x,-y,1/2+z
3/4-x,1/4+y,3/4+z
3/4+x,1/4-y,3/4+z
1/2+x,1/2+y,z
1/2-x,1/2-y,z
3/4-x,3/4+y,1/4+z
3/4+x,3/4-y,1/4+z
loop_
_atom_site_type_symbol
_atom_site_label
_atom_site_fract_x
_atom_site_fract_y
_atom_site_fract_z
Si Si1 0.132963 0.965750 0.661940
Si Si2 0.265571 0.103867 0.233937
Si Si3 0.954208 0.901425 0.418583
O O1 0.126247 0.798468 0.614340
O O2 0.191264 0.982090 0.628915
O O3 0.096062 0.041046 0.510982
O O4 0.250000 0.250000 0.140384
O O5 0.290914 0.144166 0.437120
O O6 0.218350 0.004870 0.236304
O O7 0.000000 0.000000 0.479604
#
# Coordination Sequence:
#
# PCOD9372730 Si02
#       3
#    16  16  16
#     4  12  28  49  80 122 165 226 287 358 449 532
#     4  11  27  50  81 119 169 228 289 372 447 537
#     4  11  25  52  77 116 169 216 290 362 445 536
#
# _framework density 26.916164999999999
#
# number of rings (size 3 to 8) (size 9 to 14) (size 15 to 20)
#    0.000    0.667    3.333    2.000    9.333    5.333 
#    0.000    0.000    0.000    0.000    0.000    0.000 
#    0.000    0.000    0.000    0.000    0.000    0.000 
#
# Total GULP energy -67093.396716 kJ/mol
# GULP energy per Si atom -5591.116393 kJ/mol
# Density = 2.685490 g / cm^3
# Si number density = 26.916165 Si / 1000 Ang^3
#
#
#
# Elastic Constant Matrix: (Units=GPa)
#
#
# Indices 1 2 3 4 5 6 
#
# 1 157.7132 48.2522 47.9860 0.0000 0.0000 0.0000
# 2 48.2522 165.2494 41.2476 0.0000 0.0000 0.0000
# 3 47.9860 41.2476 143.0579 0.0000 0.0000 0.0000
# 4 0.0000 0.0000 0.0000 -72.7051 0.0000 0.0000
# 5 0.0000 0.0000 0.0000 0.0000 29.9530 0.0000
# 6 0.0000 0.0000 0.0000 0.0000 0.0000 65.4353
#
#
#
# Elastic Compliance Matrix: (Units=1/GPa)
#
#
# Indices 1 2 3 4 5 6 
#
# 1 0.007469 -0.001676 -0.002022 0.000000 0.000000 0.000000
# 2 -0.001676 0.006897 -0.001426 0.000000 0.000000 0.000000
# 3 -0.002022 -0.001426 0.008080 0.000000 0.000000 0.000000
# 4 0.000000 0.000000 0.000000 -0.013754 0.000000 0.000000
# 5 0.000000 0.000000 0.000000 0.000000 0.033386 0.000000
# 6 0.000000 0.000000 0.000000 0.000000 0.000000 0.015282
#
#
# Mechanical properties :
#
#
# Convention : Reuss Voigt Hill
#
# Bulk Modulus (GPa) = 81.99155 82.33246 82.16201
# Shear Modulus (GPa) = 69.76116 26.43896 48.10006
#
# Velocity S-wave (km/s) = 5.09649 3.13752 4.23192
# Velocity P-wave (km/s) = 8.07219 6.61667 7.38040
#
# Compressibility (1/GPa) = 0.01219638
#
# Stress axis : x y z
#
# Youngs Moduli (GPa) = 133.89348 144.99254 123.76769
#
# Poissons Ratio (x) = 0.24302 0.25025
# Poissons Ratio (y) = 0.22442 0.17654
# Poissons Ratio (z) = 0.27072 0.20681
#
# Static dielectric constant tensor:
#      x y z
#    x 2.091370 0.000000 0.000000 
#    y 0.000000 2.262660 0.000000 
#    z 0.000000 0.000000 2.175540 
# 
# From -- ./inp_files/1694.got.cif
#   From: 2010.05.17/outbox.cif.g08.bks.cpg/sg43_1_cif.got.tgz:1694.got - 2010.06.03 19:21:55.
