data_PCOD9372339
_publ_section_title
;
Structure prediction by ZEFSAII (Michael W. Deem and Ramdas Pophale) SiO2 
 PCOD9372339
Probable space group: F D D 2
;
_chemical_formula_sum "Si O2"
_cell_formula_units_Z 104
_cell_length_a 26.441336
_cell_length_b 11.079152
_cell_length_c 17.414416
_cell_angle_alpha 90.000000
_cell_angle_beta 90.000000
_cell_angle_gamma 90.000000
_cell_volume 5101.511035
_symmetry_space_group_name_H-M "F D D 2"
_symmetry_group_IT_number 43
_symmetry_cell_setting 'orthorhombic'
loop_
_space_group_symop_operation_xyz
x,y,z
-x,-y,z
1/4-x,1/4+y,1/4+z
1/4+x,1/4-y,1/4+z
x,1/2+y,1/2+z
-x,1/2-y,1/2+z
1/4-x,3/4+y,3/4+z
1/4+x,3/4-y,3/4+z
1/2+x,y,1/2+z
1/2-x,-y,1/2+z
3/4-x,1/4+y,3/4+z
3/4+x,1/4-y,3/4+z
1/2+x,1/2+y,z
1/2-x,1/2-y,z
3/4-x,3/4+y,1/4+z
3/4+x,3/4-y,1/4+z
loop_
_atom_site_type_symbol
_atom_site_label
_atom_site_fract_x
_atom_site_fract_y
_atom_site_fract_z
Si Si1 0.922119 0.843527 0.167630
Si Si2 0.007959 0.853195 0.062820
Si Si3 0.157170 0.999582 0.073642
Si Si4 0.889615 0.724577 0.649131
Si Si5 0.668366 0.565941 0.575478
Si Si6 0.005365 0.143092 0.886655
Si Si7 0.250000 0.250000 0.520222
O O1 0.961648 0.789435 0.107187
O O2 0.895548 0.764992 0.233434
O O3 0.958591 0.932347 0.217212
O O4 0.881036 0.914434 0.118681
O O5 0.059140 0.815274 0.105321
O O6 0.000000 0.000000 0.065692
O O7 0.008090 0.820084 0.973700
O O8 0.151018 0.871291 0.116319
O O9 0.212991 0.051272 0.081540
O O10 0.897958 0.709443 0.739780
O O11 0.871904 0.857383 0.624121
O O12 0.690069 0.445155 0.613869
O O13 0.717419 0.653229 0.566689
O O14 0.000000 0.000000 0.881598
#
# Coordination Sequence:
#
# PCOD9372339 Si02
#       7
#    16  16  16  16  16  16   8
#     4  12  21  36  65 101 131 166 222 276 337 393
#     4  11  20  38  63  98 132 169 217 279 335 399
#     4  12  21  37  66 102 127 170 224 290 337 402
#     4  12  21  38  72 100 131 166 229 280 342 404
#     4  12  23  42  64  98 133 180 220 282 337 403
#     4  11  26  43  61  91 136 182 226 277 340 409
#     4  12  18  36  68  96 126 160 216 278 332 382
#
# _framework density 20.386116000000001
#
# number of rings (size 3 to 8) (size 9 to 14) (size 15 to 20)
#    0.000    0.308    8.462    1.846    2.154    0.000 
#    2.769    0.000    3.385    0.000    0.000    0.000 
#    0.000    0.000    0.000    0.000    0.000    0.000 
#
# Total GULP energy -145295.356772 kJ/mol
# GULP energy per Si atom -5588.282953 kJ/mol
# Density = 2.033972 g / cm^3
# Si number density = 20.386116 Si / 1000 Ang^3
#
#
#
# Elastic Constant Matrix: (Units=GPa)
#
#
# Indices 1 2 3 4 5 6 
#
# 1 73.7930 39.1452 22.7882 0.0000 0.0000 0.0000
# 2 39.1452 73.9428 45.8605 0.0000 0.0000 0.0000
# 3 22.7882 45.8605 106.1949 0.0000 0.0000 0.0000
# 4 0.0000 0.0000 0.0000 29.6179 0.0000 0.0000
# 5 0.0000 0.0000 0.0000 0.0000 35.9645 0.0000
# 6 0.0000 0.0000 0.0000 0.0000 0.0000 33.8563
#
#
#
# Elastic Compliance Matrix: (Units=1/GPa)
#
#
# Indices 1 2 3 4 5 6 
#
# 1 0.018853 -0.010205 0.000361 0.000000 0.000000 0.000000
# 2 -0.010205 0.023995 -0.008173 0.000000 0.000000 0.000000
# 3 0.000361 -0.008173 0.012868 0.000000 0.000000 0.000000
# 4 0.000000 0.000000 0.000000 0.033763 0.000000 0.000000
# 5 0.000000 0.000000 0.000000 0.000000 0.027805 0.000000
# 6 0.000000 0.000000 0.000000 0.000000 0.000000 0.029537
#
#
# Mechanical properties :
#
#
# Convention : Reuss Voigt Hill
#
# Bulk Modulus (GPa) = 50.80113 52.16871 51.48492
# Shear Modulus (GPa) = 26.39693 29.63022 28.01358
#
# Velocity S-wave (km/s) = 3.60230 3.81655 3.71097
# Velocity P-wave (km/s) = 6.50198 6.71322 6.60844
#
# Compressibility (1/GPa) = 0.01968460
#
# Stress axis : x y z
#
# Youngs Moduli (GPa) = 53.04100 41.67495 77.70965
#
# Poissons Ratio (x) = 0.42530 -0.02808
# Poissons Ratio (y) = 0.54129 0.63508
# Poissons Ratio (z) = -0.01917 0.34059
#
# Static dielectric constant tensor:
#      x y z
#    x 1.758930 0.000000 0.000000 
#    y 0.000000 1.760410 0.000000 
#    z 0.000000 0.000000 1.730300 
# 
# From -- ./inp_files/13419.got.cif
#   From: 2010.05.17/outbox.cif.g08.bks.cpg/sg43_7_cif.got.tgz:13419.got - 2010.06.03 19:21:55.
