data_PCOD9372151
_publ_section_title
;
Structure prediction by ZEFSAII (Michael W. Deem and Ramdas Pophale) SiO2 
 PCOD9372151
Probable space group: F D D 2
;
_chemical_formula_sum "Si O2"
_cell_formula_units_Z 64
_cell_length_a 13.069583
_cell_length_b 13.681356
_cell_length_c 12.844300
_cell_angle_alpha 90.000000
_cell_angle_beta 90.000000
_cell_angle_gamma 90.000000
_cell_volume 2296.684374
_symmetry_space_group_name_H-M "F D D 2"
_symmetry_group_IT_number 43
_symmetry_cell_setting 'orthorhombic'
loop_
_space_group_symop_operation_xyz
x,y,z
-x,-y,z
1/4-x,1/4+y,1/4+z
1/4+x,1/4-y,1/4+z
x,1/2+y,1/2+z
-x,1/2-y,1/2+z
1/4-x,3/4+y,3/4+z
1/4+x,3/4-y,3/4+z
1/2+x,y,1/2+z
1/2-x,-y,1/2+z
3/4-x,1/4+y,3/4+z
3/4+x,1/4-y,3/4+z
1/2+x,1/2+y,z
1/2-x,1/2-y,z
3/4-x,3/4+y,1/4+z
3/4+x,3/4-y,1/4+z
loop_
_atom_site_type_symbol
_atom_site_label
_atom_site_fract_x
_atom_site_fract_y
_atom_site_fract_z
Si Si1 0.822594 0.155056 0.475020
Si Si2 0.762020 0.133967 0.711673
Si Si3 0.498705 0.698431 0.171257
Si Si4 0.694380 0.938670 0.655499
O O1 0.750000 0.250000 0.456955
O O2 0.815760 0.129771 0.598468
O O3 0.940062 0.164010 0.440061
O O4 0.779738 0.062062 0.412491
O O5 0.750000 0.250000 0.726939
O O6 0.808756 0.091979 0.820071
O O7 0.677786 0.047019 0.700263
O O8 0.395144 0.635388 0.184119
O O9 0.554919 0.692568 0.280872
#
# Coordination Sequence:
#
# PCOD9372151 Si02
#       4
#    16  16  16  16
#     4  10  24  47  75 106 145 196 252 311 380 459
#     4  10  25  45  71 104 147 197 251 309 378 457
#     4  11  25  45  74 110 149 195 253 315 382 458
#     4  11  25  45  74 110 149 196 251 315 383 454
#
# _framework density 27.866257000000001
#
# number of rings (size 3 to 8) (size 9 to 14) (size 15 to 20)
#    0.000    1.500    0.000    2.250    0.000   22.000 
#    0.000    0.000    0.000   10.500    0.000    0.000 
#    0.000    0.000    0.000    0.000    0.000    0.000 
#
# Total GULP energy -89645.821818 kJ/mol
# GULP energy per Si atom -5602.863864 kJ/mol
# Density = 2.780283 g / cm^3
# Si number density = 27.866257 Si / 1000 Ang^3
#
#
#
# Elastic Constant Matrix: (Units=GPa)
#
#
# Indices 1 2 3 4 5 6 
#
# 1 152.3687 79.7828 23.4741 0.0000 0.0000 0.0000
# 2 79.7828 237.6492 71.5491 0.0000 0.0000 0.0000
# 3 23.4741 71.5491 158.0839 0.0000 0.0000 0.0000
# 4 0.0000 0.0000 0.0000 73.3935 0.0000 0.0000
# 5 0.0000 0.0000 0.0000 0.0000 51.4988 0.0000
# 6 0.0000 0.0000 0.0000 0.0000 0.0000 68.1741
#
#
#
# Elastic Compliance Matrix: (Units=1/GPa)
#
#
# Indices 1 2 3 4 5 6 
#
# 1 0.007963 -0.002683 0.000032 0.000000 0.000000 0.000000
# 2 -0.002683 0.005776 -0.002216 0.000000 0.000000 0.000000
# 3 0.000032 -0.002216 0.007324 0.000000 0.000000 0.000000
# 4 0.000000 0.000000 0.000000 0.013625 0.000000 0.000000
# 5 0.000000 0.000000 0.000000 0.000000 0.019418 0.000000
# 6 0.000000 0.000000 0.000000 0.000000 0.000000 0.014668
#
#
# Mechanical properties :
#
#
# Convention : Reuss Voigt Hill
#
# Bulk Modulus (GPa) = 88.26910 99.74600 94.00755
# Shear Modulus (GPa) = 60.76546 63.49968 62.13257
#
# Velocity S-wave (km/s) = 4.67477 4.77878 4.72706
# Velocity P-wave (km/s) = 7.80274 8.14379 7.97508
#
# Compressibility (1/GPa) = 0.01132899
#
# Stress axis : x y z
#
# Youngs Moduli (GPa) = 125.58209 173.14082 136.54019
#
# Poissons Ratio (x) = 0.46451 -0.00435
# Poissons Ratio (y) = 0.33692 0.30253
# Poissons Ratio (z) = -0.00400 0.38363
#
# Static dielectric constant tensor:
#      x y z
#    x 2.281310 0.000000 0.000000 
#    y 0.000000 2.135370 0.000000 
#    z 0.000000 0.000000 2.178970 
# 
# From -- ./inp_files/6477.got.cif
#   From: 2010.05.17/outbox.cif.g08.bks.cpg/sg43_4_cif.got.tgz:6477.got - 2010.06.03 19:21:55.
