data_PCOD9372576
_publ_section_title
;
Structure prediction by ZEFSAII (Michael W. Deem and Ramdas Pophale) SiO2 
 PCOD9372576
Probable space group: F D D 2
;
_chemical_formula_sum "Si O2"
_cell_formula_units_Z 112
_cell_length_a 27.748424
_cell_length_b 15.496313
_cell_length_c 11.277619
_cell_angle_alpha 90.000000
_cell_angle_beta 90.000000
_cell_angle_gamma 90.000000
_cell_volume 4849.356587
_symmetry_space_group_name_H-M "F D D 2"
_symmetry_group_IT_number 43
_symmetry_cell_setting 'orthorhombic'
loop_
_space_group_symop_operation_xyz
x,y,z
-x,-y,z
1/4-x,1/4+y,1/4+z
1/4+x,1/4-y,1/4+z
x,1/2+y,1/2+z
-x,1/2-y,1/2+z
1/4-x,3/4+y,3/4+z
1/4+x,3/4-y,3/4+z
1/2+x,y,1/2+z
1/2-x,-y,1/2+z
3/4-x,1/4+y,3/4+z
3/4+x,1/4-y,3/4+z
1/2+x,1/2+y,z
1/2-x,1/2-y,z
3/4-x,3/4+y,1/4+z
3/4+x,3/4-y,1/4+z
loop_
_atom_site_type_symbol
_atom_site_label
_atom_site_fract_x
_atom_site_fract_y
_atom_site_fract_z
Si Si1 0.000000 0.000000 0.876880
Si Si2 0.410826 0.403849 0.516474
Si Si3 0.250000 0.250000 0.673199
Si Si4 0.148265 0.315275 0.191808
Si Si5 0.598626 0.757945 0.961375
Si Si6 0.920636 0.207719 0.096218
Si Si7 0.692081 0.587373 0.098221
Si Si8 0.235361 0.564489 0.076870
O O1 0.026122 0.920431 0.805387
O O2 0.954221 0.961062 0.948548
O O3 0.456442 0.466554 0.504888
O O4 0.380242 0.430147 0.630693
O O5 0.380065 0.423815 0.397856
O O6 0.420046 0.303199 0.539341
O O7 0.242007 0.166300 0.591080
O O8 0.148895 0.414722 0.151562
O O9 0.112232 0.321210 0.302652
O O10 0.120481 0.260543 0.091920
O O11 0.543953 0.788364 0.946391
O O12 0.954415 0.204546 0.210479
O O13 0.939172 0.149150 0.989388
O O14 0.719964 0.499410 0.069007
#
# Coordination Sequence:
#
# PCOD9372576 Si02
#       8
#     8  16   8  16  16  16  16  16
#     4  12  28  50  74 114 150 210 256 324 400 476
#     4  11  24  44  75 106 149 198 256 324 393 474
#     4  12  24  46  74 116 148 208 254 320 402 478
#     4  12  26  47  76 109 157 200 260 327 396 479
#     4  11  23  46  72 109 150 199 258 322 390 470
#     4  11  26  48  71 107 152 198 261 324 390 482
#     4  12  28  48  76 111 151 204 260 329 407 474
#     4  11  25  47  74 110 154 201 264 324 395 479
#
# _framework density 23.095846000000002
#
# number of rings (size 3 to 8) (size 9 to 14) (size 15 to 20)
#    0.000    0.571    4.286    4.286    4.000    2.286 
#    2.571    0.000    0.000    0.000    0.000    0.000 
#    0.000    0.000    0.000    0.000    0.000    0.000 
#
# Total GULP energy -156389.945497 kJ/mol
# GULP energy per Si atom -5585.355196 kJ/mol
# Density = 2.304328 g / cm^3
# Si number density = 23.095846 Si / 1000 Ang^3
#
#
#
# Elastic Constant Matrix: (Units=GPa)
#
#
# Indices 1 2 3 4 5 6 
#
# 1 110.2094 17.4971 18.5264 0.0000 0.0000 0.0000
# 2 17.4971 111.0495 -0.3047 0.0000 0.0000 0.0000
# 3 18.5264 -0.3047 61.4791 0.0000 0.0000 0.0000
# 4 0.0000 0.0000 0.0000 38.7190 0.0000 0.0000
# 5 0.0000 0.0000 0.0000 0.0000 9.9413 0.0000
# 6 0.0000 0.0000 0.0000 0.0000 0.0000 40.5405
#
#
#
# Elastic Compliance Matrix: (Units=1/GPa)
#
#
# Indices 1 2 3 4 5 6 
#
# 1 0.009819 -0.001555 -0.002967 0.000000 0.000000 0.000000
# 2 -0.001555 0.009251 0.000515 0.000000 0.000000 0.000000
# 3 -0.002967 0.000515 0.017162 0.000000 0.000000 0.000000
# 4 0.000000 0.000000 0.000000 0.025827 0.000000 0.000000
# 5 0.000000 0.000000 0.000000 0.000000 0.100591 0.000000
# 6 0.000000 0.000000 0.000000 0.000000 0.000000 0.024667
#
#
# Mechanical properties :
#
#
# Convention : Reuss Voigt Hill
#
# Bulk Modulus (GPa) = 35.43830 39.35286 37.39558
# Shear Modulus (GPa) = 24.42141 34.30811 29.36476
#
# Velocity S-wave (km/s) = 3.25529 3.85836 3.56958
# Velocity P-wave (km/s) = 5.43199 6.07661 5.76332
#
# Compressibility (1/GPa) = 0.02821806
#
# Stress axis : x y z
#
# Youngs Moduli (GPa) = 101.84063 108.09109 58.26748
#
# Poissons Ratio (x) = 0.16811 0.17286
# Poissons Ratio (y) = 0.15839 -0.02998
# Poissons Ratio (z) = 0.30213 -0.05562
#
# Static dielectric constant tensor:
#      x y z
#    x 1.943300 0.000000 0.000000 
#    y 0.000000 1.878220 0.000000 
#    z 0.000000 0.000000 1.837880 
# 
# From -- ./inp_files/8309.got.cif
#   From: 2010.05.17/outbox.cif.g08.bks.cpg/sg43_5_cif.got.tgz:8309.got - 2010.06.03 19:21:55.
