data_PCOD9372949
_publ_section_title
;
Structure prediction by ZEFSAII (Michael W. Deem and Ramdas Pophale) SiO2 
 PCOD9372949
Probable space group: F D D 2
;
_chemical_formula_sum "Si O2"
_cell_formula_units_Z 96
_cell_length_a 31.780775
_cell_length_b 13.765022
_cell_length_c 7.697032
_cell_angle_alpha 90.000000
_cell_angle_beta 90.000000
_cell_angle_gamma 90.000000
_cell_volume 3367.167226
_symmetry_space_group_name_H-M "F D D 2"
_symmetry_group_IT_number 43
_symmetry_cell_setting 'orthorhombic'
loop_
_space_group_symop_operation_xyz
x,y,z
-x,-y,z
1/4-x,1/4+y,1/4+z
1/4+x,1/4-y,1/4+z
x,1/2+y,1/2+z
-x,1/2-y,1/2+z
1/4-x,3/4+y,3/4+z
1/4+x,3/4-y,3/4+z
1/2+x,y,1/2+z
1/2-x,-y,1/2+z
3/4-x,1/4+y,3/4+z
3/4+x,1/4-y,3/4+z
1/2+x,1/2+y,z
1/2-x,1/2-y,z
3/4-x,3/4+y,1/4+z
3/4+x,3/4-y,1/4+z
loop_
_atom_site_type_symbol
_atom_site_label
_atom_site_fract_x
_atom_site_fract_y
_atom_site_fract_z
Si Si1 0.597779 0.693081 0.780070
Si Si2 0.722703 0.880773 0.837755
Si Si3 0.812533 0.622569 0.459750
Si Si4 0.222703 0.119227 0.349818
Si Si5 0.562533 0.872569 0.977822
Si Si6 0.097779 0.306919 0.407503
O O1 0.562802 0.613091 0.731035
O O2 0.576647 0.763147 0.920275
O O3 0.645327 0.663178 0.812734
O O4 0.603432 0.750000 0.593786
O O5 0.702235 0.847568 0.655975
O O6 0.771286 0.852256 0.839428
O O7 0.728029 0.000000 0.843786
O O8 0.771286 0.647744 0.348145
O O9 0.854673 0.663178 0.374839
O O10 0.826647 0.513147 0.517297
O O11 0.202235 0.152432 0.531598
O O12 0.187198 0.136909 0.206538
#
# Coordination Sequence:
#
# PCOD9372949 Si02
#       6
#    16  16  16  16  16  16
#     4   9  16  28  45  67  93 121 156 201 241 284
#     4   8  15  28  45  63  88 125 161 191 237 295
#     4   9  16  28  45  67  92 122 159 201 240 285
#     4   8  15  28  45  63  88 125 161 191 237 295
#     4   9  16  28  45  67  92 122 159 201 240 285
#     4   9  16  28  45  67  93 121 156 201 241 284
#
# _framework density 28.510612999999999
#
# number of rings (size 3 to 8) (size 9 to 14) (size 15 to 20)
#    0.000    4.000    0.000    4.000    0.000    0.000 
#    0.000   13.333    0.000    0.000    0.000    0.000 
#    0.000    0.000    0.000    0.000    0.000    0.000 
#
# Total GULP energy -134003.456187 kJ/mol
# GULP energy per Si atom -5583.477341 kJ/mol
# Density = 2.844572 g / cm^3
# Si number density = 28.510613 Si / 1000 Ang^3
#
#
#
# Elastic Constant Matrix: (Units=GPa)
#
#
# Indices 1 2 3 4 5 6 
#
# 1 396.5037 53.4043 74.8581 0.0000 0.0000 0.0000
# 2 53.4043 77.8559 32.0327 0.0000 0.0000 0.0000
# 3 74.8581 32.0327 118.8181 0.0000 0.0000 0.0000
# 4 0.0000 0.0000 0.0000 31.0022 0.0000 0.0000
# 5 0.0000 0.0000 0.0000 0.0000 41.4281 0.0000
# 6 0.0000 0.0000 0.0000 0.0000 0.0000 42.5279
#
#
#
# Elastic Compliance Matrix: (Units=1/GPa)
#
#
# Indices 1 2 3 4 5 6 
#
# 1 0.002999 -0.001440 -0.001502 0.000000 0.000000 0.000000
# 2 -0.001440 0.015138 -0.003174 0.000000 0.000000 0.000000
# 3 -0.001502 -0.003174 0.010218 0.000000 0.000000 0.000000
# 4 0.000000 0.000000 0.000000 0.032256 0.000000 0.000000
# 5 0.000000 0.000000 0.000000 0.000000 0.024138 0.000000
# 6 0.000000 0.000000 0.000000 0.000000 0.000000 0.023514
#
#
# Mechanical properties :
#
#
# Convention : Reuss Voigt Hill
#
# Bulk Modulus (GPa) = 62.01724 101.52975 81.77350
# Shear Modulus (GPa) = 39.72405 51.85048 45.78726
#
# Velocity S-wave (km/s) = 3.73675 4.26918 4.01181
# Velocity P-wave (km/s) = 6.35746 7.74530 7.08544
#
# Compressibility (1/GPa) = 0.01612455
#
# Stress axis : x y z
#
# Youngs Moduli (GPa) = 333.39563 66.06056 97.86682
#
# Poissons Ratio (x) = 0.09510 0.14696
# Poissons Ratio (y) = 0.47996 0.31063
# Poissons Ratio (z) = 0.50063 0.20968
#
# Static dielectric constant tensor:
#      x y z
#    x 2.235960 0.000000 0.000000 
#    y 0.000000 2.577890 0.000000 
#    z 0.000000 0.000000 2.265780 
# 
# From -- ./inp_files/7996.got.cif
#   From: 2010.05.17/outbox.cif.g08.bks.cpg/sg43_4_cif.got.tgz:7996.got - 2010.06.03 19:21:55.
