data_PCOD9372147
_publ_section_title
;
Structure prediction by ZEFSAII (Michael W. Deem and Ramdas Pophale) SiO2 
 PCOD9372147
Probable space group: F D D 2
;
_chemical_formula_sum "Si O2"
_cell_formula_units_Z 88
_cell_length_a 15.535255
_cell_length_b 9.758012
_cell_length_c 24.556845
_cell_angle_alpha 90.000000
_cell_angle_beta 90.000000
_cell_angle_gamma 90.000000
_cell_volume 3722.650831
_symmetry_space_group_name_H-M "F D D 2"
_symmetry_group_IT_number 43
_symmetry_cell_setting 'orthorhombic'
loop_
_space_group_symop_operation_xyz
x,y,z
-x,-y,z
1/4-x,1/4+y,1/4+z
1/4+x,1/4-y,1/4+z
x,1/2+y,1/2+z
-x,1/2-y,1/2+z
1/4-x,3/4+y,3/4+z
1/4+x,3/4-y,3/4+z
1/2+x,y,1/2+z
1/2-x,-y,1/2+z
3/4-x,1/4+y,3/4+z
3/4+x,1/4-y,3/4+z
1/2+x,1/2+y,z
1/2-x,1/2-y,z
3/4-x,3/4+y,1/4+z
3/4+x,3/4-y,1/4+z
loop_
_atom_site_type_symbol
_atom_site_label
_atom_site_fract_x
_atom_site_fract_y
_atom_site_fract_z
Si Si1 0.052089 0.356669 0.278410
Si Si2 0.197417 0.393070 0.189242
Si Si3 0.075390 0.233437 0.518991
Si Si4 0.750000 0.250000 0.951439
Si Si5 0.202049 0.922082 0.848957
Si Si6 0.116161 0.719267 0.324889
O O1 0.114788 0.354274 0.226477
O O2 0.116083 0.342675 0.329870
O O3 0.000000 0.500000 0.278956
O O4 0.968400 0.265399 0.286278
O O5 0.250000 0.250000 0.178570
O O6 0.255700 0.500253 0.221677
O O7 0.168990 0.473593 0.135940
O O8 0.166220 0.254629 0.489734
O O9 0.036050 0.344870 0.560989
O O10 0.078852 0.093605 0.552736
O O11 0.767176 0.123478 0.908600
O O12 0.166753 0.074321 0.831871
#
# Coordination Sequence:
#
# PCOD9372147 Si02
#       6
#    16  16  16   8  16  16
#     4   9  21  41  72 103 139 192 242 306 362 449
#     4  11  24  45  78 108 147 200 254 300 382 460
#     4  11  27  44  71 113 150 186 254 318 368 446
#     4  12  26  46  80 108 148 208 246 300 392 446
#     4  10  24  47  72 106 151 192 250 305 370 453
#     4  11  23  46  73 108 151 188 249 312 384 438
#
# _framework density 23.639068999999999
#
# number of rings (size 3 to 8) (size 9 to 14) (size 15 to 20)
#    0.000    1.455    0.000    4.364   10.182    2.909 
#    9.818    0.000    0.000    0.000    0.000    0.000 
#    0.000    0.000    0.000    0.000    0.000    0.000 
#
# Total GULP energy -122583.928772 kJ/mol
# GULP energy per Si atom -5571.996762 kJ/mol
# Density = 2.358527 g / cm^3
# Si number density = 23.639069 Si / 1000 Ang^3
#
#
#
# Elastic Constant Matrix: (Units=GPa)
#
#
# Indices 1 2 3 4 5 6 
#
# 1 184.6982 65.2076 70.3384 0.0000 0.0000 0.0000
# 2 65.2076 83.5823 27.2534 0.0000 0.0000 0.0000
# 3 70.3384 27.2534 101.0492 0.0000 0.0000 0.0000
# 4 0.0000 0.0000 0.0000 43.2522 0.0000 0.0000
# 5 0.0000 0.0000 0.0000 0.0000 30.8142 0.0000
# 6 0.0000 0.0000 0.0000 0.0000 0.0000 48.5595
#
#
#
# Elastic Compliance Matrix: (Units=1/GPa)
#
#
# Indices 1 2 3 4 5 6 
#
# 1 0.009286 -0.005632 -0.004945 0.000000 0.000000 0.000000
# 2 -0.005632 0.016534 -0.000539 0.000000 0.000000 0.000000
# 3 -0.004945 -0.000539 0.013483 0.000000 0.000000 0.000000
# 4 0.000000 0.000000 0.000000 0.023120 0.000000 0.000000
# 5 0.000000 0.000000 0.000000 0.000000 0.032453 0.000000
# 6 0.000000 0.000000 0.000000 0.000000 0.000000 0.020593
#
#
# Mechanical properties :
#
#
# Convention : Reuss Voigt Hill
#
# Bulk Modulus (GPa) = 58.57606 77.21429 67.89517
# Shear Modulus (GPa) = 34.86979 38.29387 36.58183
#
# Velocity S-wave (km/s) = 3.84486 4.02921 3.93812
# Velocity P-wave (km/s) = 6.67411 7.37434 7.03294
#
# Compressibility (1/GPa) = 0.01707182
#
# Stress axis : x y z
#
# Youngs Moduli (GPa) = 107.69284 60.48195 74.16556
#
# Poissons Ratio (x) = 0.34064 0.36672
# Poissons Ratio (y) = 0.60653 0.03997
# Poissons Ratio (z) = 0.53250 0.03259
#
# Static dielectric constant tensor:
#      x y z
#    x 1.921120 0.000000 0.000000 
#    y 0.000000 2.012430 0.000000 
#    z 0.000000 0.000000 1.940160 
# 
# From -- ./inp_files/21653.got.cif
#   From: 2010.05.17/outbox.cif.g08.bks.cpg/sg43_11_cif.got.tgz:21653.got - 2010.06.03 19:21:55.
