data_PCOD9372391
_publ_section_title
;
Structure prediction by ZEFSAII (Michael W. Deem and Ramdas Pophale) SiO2 
 PCOD9372391
Probable space group: F D D 2
;
_chemical_formula_sum "Si O2"
_cell_formula_units_Z 120
_cell_length_a 11.777465
_cell_length_b 25.229328
_cell_length_c 16.017439
_cell_angle_alpha 90.000000
_cell_angle_beta 90.000000
_cell_angle_gamma 90.000000
_cell_volume 4759.382221
_symmetry_space_group_name_H-M "F D D 2"
_symmetry_group_IT_number 43
_symmetry_cell_setting 'orthorhombic'
loop_
_space_group_symop_operation_xyz
x,y,z
-x,-y,z
1/4-x,1/4+y,1/4+z
1/4+x,1/4-y,1/4+z
x,1/2+y,1/2+z
-x,1/2-y,1/2+z
1/4-x,3/4+y,3/4+z
1/4+x,3/4-y,3/4+z
1/2+x,y,1/2+z
1/2-x,-y,1/2+z
3/4-x,1/4+y,3/4+z
3/4+x,1/4-y,3/4+z
1/2+x,1/2+y,z
1/2-x,1/2-y,z
3/4-x,3/4+y,1/4+z
3/4+x,3/4-y,1/4+z
loop_
_atom_site_type_symbol
_atom_site_label
_atom_site_fract_x
_atom_site_fract_y
_atom_site_fract_z
Si Si1 0.111812 0.607238 0.817580
Si Si2 0.436385 0.049642 0.462002
Si Si3 0.815300 0.306007 0.950253
Si Si4 0.161161 0.957098 0.785903
Si Si5 0.500000 0.500000 0.523163
Si Si6 0.094731 0.864990 0.665554
Si Si7 0.885520 0.097336 0.473236
Si Si8 0.425689 0.709557 0.408695
O O1 0.108030 0.662550 0.765769
O O2 0.169512 0.636432 0.899968
O O3 0.211107 0.566775 0.787140
O O4 0.996765 0.576409 0.785945
O O5 0.371170 0.033082 0.380301
O O6 0.538068 0.086479 0.430931
O O7 0.500000 0.000000 0.503348
O O8 0.750000 0.250000 0.931707
O O9 0.941985 0.285212 0.929653
O O10 0.092844 0.913486 0.731532
O O11 0.130401 0.011077 0.739999
O O12 0.473892 0.550231 0.466603
O O13 0.609691 0.513547 0.581424
O O14 0.096600 0.884520 0.569837
O O15 0.989683 0.829268 0.695991
O O16 0.903854 0.147378 0.413744
#
# Coordination Sequence:
#
# PCOD9372391 Si02
#       8
#    16  16  16  16   8  16  16  16
#     4  11  25  46  70 109 153 204 266 325 393 486
#     4  11  23  39  68 110 145 190 253 327 387 462
#     4  12  27  50  78 111 157 219 267 328 415 483
#     4  11  21  41  71 107 145 199 250 322 392 464
#     4  12  28  48  76 116 154 212 264 336 406 480
#     4  11  23  40  73 103 151 190 254 315 396 466
#     4  12  24  46  70 111 148 204 256 321 400 479
#     4  12  26  46  78 106 159 203 266 329 406 484
#
# _framework density 25.213356000000001
#
# number of rings (size 3 to 8) (size 9 to 14) (size 15 to 20)
#    0.000    0.533    6.667    1.200    2.800    3.200 
#    0.000    0.000    2.933    0.000    0.000    0.000 
#    0.000    0.000    0.000    0.000    0.000    0.000 
#
# Total GULP energy -167131.335273 kJ/mol
# GULP energy per Si atom -5571.044509 kJ/mol
# Density = 2.515597 g / cm^3
# Si number density = 25.213356 Si / 1000 Ang^3
#
#
#
# Elastic Constant Matrix: (Units=GPa)
#
#
# Indices 1 2 3 4 5 6 
#
# 1 116.7333 20.0734 29.0872 0.0000 0.0000 0.0000
# 2 20.0734 116.6065 30.9897 0.0000 0.0000 0.0000
# 3 29.0872 30.9897 119.5948 0.0000 0.0000 0.0000
# 4 0.0000 0.0000 0.0000 24.1111 0.0000 0.0000
# 5 0.0000 0.0000 0.0000 0.0000 115.0594 0.0000
# 6 0.0000 0.0000 0.0000 0.0000 0.0000 30.5032
#
#
#
# Elastic Compliance Matrix: (Units=1/GPa)
#
#
# Indices 1 2 3 4 5 6 
#
# 1 0.009241 -0.001067 -0.001971 0.000000 0.000000 0.000000
# 2 -0.001067 0.009333 -0.002159 0.000000 0.000000 0.000000
# 3 -0.001971 -0.002159 0.009400 0.000000 0.000000 0.000000
# 4 0.000000 0.000000 0.000000 0.041475 0.000000 0.000000
# 5 0.000000 0.000000 0.000000 0.000000 0.008691 0.000000
# 6 0.000000 0.000000 0.000000 0.000000 0.000000 0.032783
#
#
# Mechanical properties :
#
#
# Convention : Reuss Voigt Hill
#
# Bulk Modulus (GPa) = 56.88034 57.02612 56.95323
# Shear Modulus (GPa) = 39.31482 52.12036 45.71759
#
# Velocity S-wave (km/s) = 3.95306 4.55155 4.26282
# Velocity P-wave (km/s) = 6.59122 7.09145 6.84591
#
# Compressibility (1/GPa) = 0.01758077
#
# Stress axis : x y z
#
# Youngs Moduli (GPa) = 108.21142 107.14323 106.37839
#
# Poissons Ratio (x) = 0.11432 0.20968
# Poissons Ratio (y) = 0.11546 0.22967
# Poissons Ratio (z) = 0.21330 0.23132
#
# Static dielectric constant tensor:
#      x y z
#    x 2.315000 0.000000 0.000000 
#    y 0.000000 2.036630 0.000000 
#    z 0.000000 0.000000 2.011860 
# 
# From -- ./inp_files/13474.got.cif
#   From: 2010.05.17/outbox.cif.g08.bks.cpg/sg43_7_cif.got.tgz:13474.got - 2010.06.03 19:21:55.
