data_PCOD9372242
_publ_section_title
;
Structure prediction by ZEFSAII (Michael W. Deem and Ramdas Pophale) SiO2 
 PCOD9372242
Probable space group: F D D 2
;
_chemical_formula_sum "Si O2"
_cell_formula_units_Z 64
_cell_length_a 13.364296
_cell_length_b 12.297311
_cell_length_c 14.744148
_cell_angle_alpha 90.000000
_cell_angle_beta 90.000000
_cell_angle_gamma 90.000000
_cell_volume 2423.125591
_symmetry_space_group_name_H-M "F D D 2"
_symmetry_group_IT_number 43
_symmetry_cell_setting 'orthorhombic'
loop_
_space_group_symop_operation_xyz
x,y,z
-x,-y,z
1/4-x,1/4+y,1/4+z
1/4+x,1/4-y,1/4+z
x,1/2+y,1/2+z
-x,1/2-y,1/2+z
1/4-x,3/4+y,3/4+z
1/4+x,3/4-y,3/4+z
1/2+x,y,1/2+z
1/2-x,-y,1/2+z
3/4-x,1/4+y,3/4+z
3/4+x,1/4-y,3/4+z
1/2+x,1/2+y,z
1/2-x,1/2-y,z
3/4-x,3/4+y,1/4+z
3/4+x,3/4-y,1/4+z
loop_
_atom_site_type_symbol
_atom_site_label
_atom_site_fract_x
_atom_site_fract_y
_atom_site_fract_z
Si Si1 0.139345 0.274454 0.677440
Si Si2 0.051627 0.164745 0.843042
Si Si3 0.425753 0.744456 0.991126
Si Si4 0.888178 0.500148 0.484147
O O1 0.250000 0.250000 0.641203
O O2 0.128367 0.213374 0.772153
O O3 0.065513 0.237692 0.598315
O O4 0.125468 0.400969 0.697524
O O5 0.091304 0.053068 0.885636
O O6 0.028858 0.230729 0.935718
O O7 0.946475 0.184105 0.788396
O O8 0.367740 0.629406 0.979619
O O9 0.000000 0.500000 0.527734
#
# Coordination Sequence:
#
# PCOD9372242 Si02
#       4
#    16  16  16  16
#     4  12  28  51  83 116 166 215 275 331 406 485
#     4  11  26  53  79 122 155 215 273 339 401 486
#     4  11  25  53  77 113 157 219 263 331 405 487
#     4  10  25  50  81 111 164 204 269 333 410 475
#
# _framework density 26.412168999999999
#
# number of rings (size 3 to 8) (size 9 to 14) (size 15 to 20)
#    0.000    1.000    2.500    1.500    3.500    9.000 
#   22.500    0.000    0.000    0.000    0.000    0.000 
#    0.000    0.000    0.000    0.000    0.000    0.000 
#
# Total GULP energy -89474.015414 kJ/mol
# GULP energy per Si atom -5592.125963 kJ/mol
# Density = 2.635205 g / cm^3
# Si number density = 26.412169 Si / 1000 Ang^3
#
#
#
# Elastic Constant Matrix: (Units=GPa)
#
#
# Indices 1 2 3 4 5 6 
#
# 1 115.2427 39.3951 23.3425 0.0000 0.0000 0.0000
# 2 39.3951 122.5082 68.9728 0.0000 0.0000 0.0000
# 3 23.3425 68.9728 174.3271 0.0000 0.0000 0.0000
# 4 0.0000 0.0000 0.0000 48.4166 0.0000 0.0000
# 5 0.0000 0.0000 0.0000 0.0000 46.7512 0.0000
# 6 0.0000 0.0000 0.0000 0.0000 0.0000 18.2232
#
#
#
# Elastic Compliance Matrix: (Units=1/GPa)
#
#
# Indices 1 2 3 4 5 6 
#
# 1 0.009750 -0.003088 -0.000084 0.000000 0.000000 0.000000
# 2 -0.003088 0.011480 -0.004129 0.000000 0.000000 0.000000
# 3 -0.000084 -0.004129 0.007381 0.000000 0.000000 0.000000
# 4 0.000000 0.000000 0.000000 0.020654 0.000000 0.000000
# 5 0.000000 0.000000 0.000000 0.000000 0.021390 0.000000
# 6 0.000000 0.000000 0.000000 0.000000 0.000000 0.054875
#
#
# Mechanical properties :
#
#
# Convention : Reuss Voigt Hill
#
# Bulk Modulus (GPa) = 71.37655 75.05541 73.21598
# Shear Modulus (GPa) = 34.53005 41.36937 37.94971
#
# Velocity S-wave (km/s) = 3.61966 3.96194 3.79466
# Velocity P-wave (km/s) = 6.67473 7.02908 6.85420
#
# Compressibility (1/GPa) = 0.01401020
#
# Stress axis : x y z
#
# Youngs Moduli (GPa) = 102.56436 87.10598 135.48184
#
# Poissons Ratio (x) = 0.26900 0.01134
# Poissons Ratio (y) = 0.31674 0.55936
# Poissons Ratio (z) = 0.00858 0.35963
#
# Static dielectric constant tensor:
#      x y z
#    x 2.057670 0.000000 0.000000 
#    y 0.000000 2.128520 0.000000 
#    z 0.000000 0.000000 2.077660 
# 
# From -- ./inp_files/10482.got.cif
#   From: 2010.05.17/outbox.cif.g08.bks.cpg/sg43_6_cif.got.tgz:10482.got - 2010.06.03 19:21:55.
