data_PCOD9372546
_publ_section_title
;
Structure prediction by ZEFSAII (Michael W. Deem and Ramdas Pophale) SiO2 
 PCOD9372546
Probable space group: F D D 2
;
_chemical_formula_sum "Si O2"
_cell_formula_units_Z 56
_cell_length_a 14.882566
_cell_length_b 10.385945
_cell_length_c 13.631192
_cell_angle_alpha 90.000000
_cell_angle_beta 90.000000
_cell_angle_gamma 90.000000
_cell_volume 2106.966695
_symmetry_space_group_name_H-M "F D D 2"
_symmetry_group_IT_number 43
_symmetry_cell_setting 'orthorhombic'
loop_
_space_group_symop_operation_xyz
x,y,z
-x,-y,z
1/4-x,1/4+y,1/4+z
1/4+x,1/4-y,1/4+z
x,1/2+y,1/2+z
-x,1/2-y,1/2+z
1/4-x,3/4+y,3/4+z
1/4+x,3/4-y,3/4+z
1/2+x,y,1/2+z
1/2-x,-y,1/2+z
3/4-x,1/4+y,3/4+z
3/4+x,1/4-y,3/4+z
1/2+x,1/2+y,z
1/2-x,1/2-y,z
3/4-x,3/4+y,1/4+z
3/4+x,3/4-y,1/4+z
loop_
_atom_site_type_symbol
_atom_site_label
_atom_site_fract_x
_atom_site_fract_y
_atom_site_fract_z
Si Si1 0.000000 0.500000 0.060310
Si Si2 0.216937 0.966792 0.846935
Si Si3 0.218429 0.617893 0.643153
Si Si4 0.574588 0.095403 0.865251
O O1 0.959127 0.627608 0.109937
O O2 0.065250 0.571362 0.983339
O O3 0.138543 0.896844 0.908141
O O4 0.213605 0.914063 0.733268
O O5 0.320611 0.927857 0.857419
O O6 0.250000 0.750000 0.593759
O O7 0.212568 0.484850 0.587815
O O8 0.500000 0.000000 0.822059
#
# Coordination Sequence:
#
# PCOD9372546 Si02
#       4
#     8  16  16  16
#     4   8  22  38  64 100 132 166 234 276 342 394
#     4  11  23  44  69  99 136 183 227 284 345 413
#     4  11  24  43  65 101 134 174 232 282 342 408
#     4   9  21  42  63  98 131 180 221 281 340 408
#
# _framework density 26.578495
#
# number of rings (size 3 to 8) (size 9 to 14) (size 15 to 20)
#    0.857    1.143    0.000    2.571    4.000    4.571 
#    5.143    0.000    0.000    0.000    0.000    0.000 
#    0.000    0.000    0.000    0.000    0.000    0.000 
#
# Total GULP energy -77957.148858 kJ/mol
# GULP energy per Si atom -5568.367776 kJ/mol
# Density = 2.651800 g / cm^3
# Si number density = 26.578495 Si / 1000 Ang^3
#
#
#
# Elastic Constant Matrix: (Units=GPa)
#
#
# Indices 1 2 3 4 5 6 
#
# 1 134.2124 48.0103 21.3448 0.0000 0.0000 0.0000
# 2 48.0103 254.8923 12.1536 0.0000 0.0000 0.0000
# 3 21.3448 12.1536 40.2310 0.0000 0.0000 0.0000
# 4 0.0000 0.0000 0.0000 13.2527 0.0000 0.0000
# 5 0.0000 0.0000 0.0000 0.0000 44.7600 0.0000
# 6 0.0000 0.0000 0.0000 0.0000 0.0000 34.5380
#
#
#
# Elastic Compliance Matrix: (Units=1/GPa)
#
#
# Indices 1 2 3 4 5 6 
#
# 1 0.008620 -0.001426 -0.004142 0.000000 0.000000 0.000000
# 2 -0.001426 0.004216 -0.000517 0.000000 0.000000 0.000000
# 3 -0.004142 -0.000517 0.027211 0.000000 0.000000 0.000000
# 4 0.000000 0.000000 0.000000 0.075456 0.000000 0.000000
# 5 0.000000 0.000000 0.000000 0.000000 0.022341 0.000000
# 6 0.000000 0.000000 0.000000 0.000000 0.000000 0.028954
#
#
# Mechanical properties :
#
#
# Convention : Reuss Voigt Hill
#
# Bulk Modulus (GPa) = 35.87397 65.81701 50.84549
# Shear Modulus (GPa) = 26.55880 41.69860 34.12870
#
# Velocity S-wave (km/s) = 3.16454 3.96521 3.58728
# Velocity P-wave (km/s) = 5.18450 6.76616 6.02743
#
# Compressibility (1/GPa) = 0.02787537
#
# Stress axis : x y z
#
# Youngs Moduli (GPa) = 116.01177 237.16396 36.75051
#
# Poissons Ratio (x) = 0.33821 0.15224
# Poissons Ratio (y) = 0.16544 0.01901
# Poissons Ratio (z) = 0.48058 0.12265
#
# Static dielectric constant tensor:
#      x y z
#    x 2.078660 0.000000 0.000000 
#    y 0.000000 2.043560 0.000000 
#    z 0.000000 0.000000 2.312930 
# 
# From -- ./inp_files/15971.got.cif
#   From: 2010.05.17/outbox.cif.g08.bks.cpg/sg43_8_cif.got.tgz:15971.got - 2010.06.03 19:21:55.
