data_PCOD9372080
_publ_section_title
;
Structure prediction by ZEFSAII (Michael W. Deem and Ramdas Pophale) SiO2 
 PCOD9372080
Probable space group: F D D 2
;
_chemical_formula_sum "Si O2"
_cell_formula_units_Z 104
_cell_length_a 22.143808
_cell_length_b 7.828157
_cell_length_c 25.856420
_cell_angle_alpha 90.000000
_cell_angle_beta 90.000000
_cell_angle_gamma 90.000000
_cell_volume 4482.086441
_symmetry_space_group_name_H-M "F D D 2"
_symmetry_group_IT_number 43
_symmetry_cell_setting 'orthorhombic'
loop_
_space_group_symop_operation_xyz
x,y,z
-x,-y,z
1/4-x,1/4+y,1/4+z
1/4+x,1/4-y,1/4+z
x,1/2+y,1/2+z
-x,1/2-y,1/2+z
1/4-x,3/4+y,3/4+z
1/4+x,3/4-y,3/4+z
1/2+x,y,1/2+z
1/2-x,-y,1/2+z
3/4-x,1/4+y,3/4+z
3/4+x,1/4-y,3/4+z
1/2+x,1/2+y,z
1/2-x,1/2-y,z
3/4-x,3/4+y,1/4+z
3/4+x,3/4-y,1/4+z
loop_
_atom_site_type_symbol
_atom_site_label
_atom_site_fract_x
_atom_site_fract_y
_atom_site_fract_z
Si Si1 0.932910 0.621797 0.639000
Si Si2 0.750000 0.250000 0.571916
Si Si3 0.056676 0.369025 0.991947
Si Si4 0.840666 0.624058 0.152131
Si Si5 0.707105 0.510896 0.859240
Si Si6 0.563457 0.293486 0.252579
Si Si7 0.930880 0.020945 0.349398
O O1 0.946103 0.440684 0.613972
O O2 0.956268 0.639968 0.697127
O O3 0.862492 0.644911 0.628740
O O4 0.970640 0.777984 0.613970
O O5 0.804995 0.258732 0.614563
O O6 0.730471 0.408759 0.533798
O O7 0.059834 0.198828 0.954832
O O8 0.122485 0.456728 0.988124
O O9 0.000000 0.500000 0.981549
O O10 0.056330 0.320076 0.051929
O O11 0.911536 0.669292 0.153064
O O12 0.839046 0.455354 0.117860
O O13 0.573899 0.461025 0.287993
O O14 0.000000 0.000000 0.363122
#
# Coordination Sequence:
#
# PCOD9372080 Si02
#       7
#    16   8  16  16  16  16  16
#     4  11  27  46  70 106 145 187 241 314 364 451
#     4  10  24  44  70 112 142 188 256 302 376 444
#     4  12  25  46  75 108 150 200 251 310 385 442
#     4  11  25  44  74 109 142 202 246 309 371 452
#     4  11  27  46  70 109 146 191 248 305 380 435
#     4  11  25  44  72 107 138 201 238 307 382 438
#     4  11  24  43  73 103 143 188 243 308 366 445
#
# _framework density 23.203479999999999
#
# number of rings (size 3 to 8) (size 9 to 14) (size 15 to 20)
#    0.000    0.923    4.615    1.385    8.615    2.462 
#    0.000    0.000    0.000    0.000    0.000    0.000 
#    0.000    0.000    0.000    0.000    0.000    0.000 
#
# Total GULP energy -144751.912208 kJ/mol
# GULP energy per Si atom -5567.381239 kJ/mol
# Density = 2.315067 g / cm^3
# Si number density = 23.203480 Si / 1000 Ang^3
#
#
#
# Elastic Constant Matrix: (Units=GPa)
#
#
# Indices 1 2 3 4 5 6 
#
# 1 133.1251 48.7006 -0.9698 0.0003 0.0000 0.0003
# 2 48.7006 60.7023 24.0759 0.0004 -0.0001 0.0003
# 3 -0.9698 24.0759 104.0610 0.0001 0.0000 0.0001
# 4 0.0003 0.0004 0.0001 -19.4175 0.0000 -0.0002
# 5 0.0000 -0.0001 0.0000 0.0000 13.4435 0.0000
# 6 0.0003 0.0003 0.0001 -0.0002 0.0000 30.4660
#
#
#
# Elastic Compliance Matrix: (Units=1/GPa)
#
#
# Indices 1 2 3 4 5 6 
#
# 1 0.011148 -0.009893 0.002393 0.000000 0.000000 0.000000
# 2 -0.009893 0.026918 -0.006320 0.000000 0.000000 0.000000
# 3 0.002393 -0.006320 0.011094 0.000000 0.000000 0.000000
# 4 0.000000 0.000000 0.000000 -0.051500 0.000000 0.000000
# 5 0.000000 0.000000 0.000000 0.000000 0.074385 0.000000
# 6 0.000000 0.000000 0.000000 0.000000 0.000000 0.032824
#
#
# Mechanical properties :
#
#
# Convention : Reuss Voigt Hill
#
# Bulk Modulus (GPa) = 46.46935 49.05578 47.76257
# Shear Modulus (GPa) = 35.79534 19.97051 27.88293
#
# Velocity S-wave (km/s) = 3.93195 2.93690 3.47027
# Velocity P-wave (km/s) = 6.37840 5.71734 6.05689
#
# Compressibility (1/GPa) = 0.02151956
#
# Stress axis : x y z
#
# Youngs Moduli (GPa) = 89.69924 37.15028 90.13673
#
# Poissons Ratio (x) = 0.36754 -0.21568
# Poissons Ratio (y) = 0.88742 0.56966
# Poissons Ratio (z) = -0.21463 0.23479
#
# Static dielectric constant tensor:
#      x y z
#    x 2.232320 0.000000 0.000000 
#    y 0.000000 1.838730 0.000000 
#    z 0.000000 0.000000 1.930580 
# 
# From -- ./inp_files/26354.got.cif
#   From: 2010.05.17/outbox.cif.g08.bks.cpg/sg43_14_cif.got.tgz:26354.got - 2010.06.03 19:21:55.
