data_PCOD9372453
_publ_section_title
;
Structure prediction by ZEFSAII (Michael W. Deem and Ramdas Pophale) SiO2 
 PCOD9372453
Probable space group: F D D 2
;
_chemical_formula_sum "Si O2"
_cell_formula_units_Z 112
_cell_length_a 12.812304
_cell_length_b 28.381602
_cell_length_c 14.699746
_cell_angle_alpha 90.000000
_cell_angle_beta 90.000000
_cell_angle_gamma 90.000000
_cell_volume 5345.323216
_symmetry_space_group_name_H-M "F D D 2"
_symmetry_group_IT_number 43
_symmetry_cell_setting 'orthorhombic'
loop_
_space_group_symop_operation_xyz
x,y,z
-x,-y,z
1/4-x,1/4+y,1/4+z
1/4+x,1/4-y,1/4+z
x,1/2+y,1/2+z
-x,1/2-y,1/2+z
1/4-x,3/4+y,3/4+z
1/4+x,3/4-y,3/4+z
1/2+x,y,1/2+z
1/2-x,-y,1/2+z
3/4-x,1/4+y,3/4+z
3/4+x,1/4-y,3/4+z
1/2+x,1/2+y,z
1/2-x,1/2-y,z
3/4-x,3/4+y,1/4+z
3/4+x,3/4-y,1/4+z
loop_
_atom_site_type_symbol
_atom_site_label
_atom_site_fract_x
_atom_site_fract_y
_atom_site_fract_z
Si Si1 0.878989 0.675981 0.793690
Si Si2 0.167438 0.945042 0.744589
Si Si3 0.000000 0.000000 0.650772
Si Si4 0.000000 0.000000 0.266247
Si Si5 0.892021 0.720571 0.370660
Si Si6 0.331792 0.534059 0.947136
Si Si7 0.268452 0.350569 0.296882
Si Si8 0.727545 0.848657 0.623166
O O1 0.837986 0.721976 0.845124
O O2 0.785626 0.658911 0.729983
O O3 0.975539 0.691173 0.729764
O O4 0.926817 0.633163 0.851135
O O5 0.250813 0.954790 0.665061
O O6 0.181283 0.973543 0.839785
O O7 0.189464 0.890938 0.766438
O O8 0.055436 0.959886 0.709429
O O9 0.097437 0.994008 0.197274
O O10 0.014021 0.047377 0.325398
O O11 0.902935 0.742165 0.270173
O O12 0.802396 0.680885 0.363584
O O13 0.430708 0.568140 0.968101
O O14 0.370540 0.375530 0.340081
#
# Coordination Sequence:
#
# PCOD9372453 Si02
#       8
#    16  16   8   8  16  16  16  16
#     4  11  24  48  69 104 144 184 238 294 352 427
#     4  12  26  45  67  99 140 186 226 289 355 414
#     4  12  29  49  66 100 156 190 222 294 368 428
#     4  12  21  39  72 112 134 180 240 302 356 412
#     4  12  23  42  71 103 137 183 237 292 345 423
#     4  11  23  42  74 103 134 180 233 290 351 417
#     4  11  22  42  71 105 131 175 241 295 337 412
#     4  11  24  41  76 104 139 186 239 298 353 417
#
# _framework density 20.952895999999999
#
# number of rings (size 3 to 8) (size 9 to 14) (size 15 to 20)
#    0.000    0.571    5.714    2.143    4.000    0.000 
#    5.143    0.000    0.000    0.000    0.000    0.000 
#    0.000    0.000    0.000    0.000    0.000    0.000 
#
# Total GULP energy -156299.504166 kJ/mol
# GULP energy per Si atom -5582.125149 kJ/mol
# Density = 2.090521 g / cm^3
# Si number density = 20.952896 Si / 1000 Ang^3
#
#
#
# Elastic Constant Matrix: (Units=GPa)
#
#
# Indices 1 2 3 4 5 6 
#
# 1 72.3550 37.0957 33.7557 0.0000 0.0000 0.0000
# 2 37.0957 97.1126 45.8045 0.0000 0.0000 0.0000
# 3 33.7557 45.8045 88.4307 0.0000 0.0000 0.0000
# 4 0.0000 0.0000 0.0000 -25.3535 0.0000 0.0000
# 5 0.0000 0.0000 0.0000 0.0000 26.2125 0.0000
# 6 0.0000 0.0000 0.0000 0.0000 0.0000 -5.3633
#
#
#
# Elastic Compliance Matrix: (Units=1/GPa)
#
#
# Indices 1 2 3 4 5 6 
#
# 1 0.018440 -0.004928 -0.004487 0.000000 0.000000 0.000000
# 2 -0.004928 0.014943 -0.005859 0.000000 0.000000 0.000000
# 3 -0.004487 -0.005859 0.016056 0.000000 0.000000 0.000000
# 4 0.000000 0.000000 0.000000 -0.039442 0.000000 0.000000
# 5 0.000000 0.000000 0.000000 0.000000 0.038150 0.000000
# 6 0.000000 0.000000 0.000000 0.000000 0.000000 -0.186451
#
#
# Mechanical properties :
#
#
# Convention : Reuss Voigt Hill
#
# Bulk Modulus (GPa) = 52.93158 54.57890 53.75524
# Shear Modulus (GPa) = -49.28055 8.51527 -20.38264
#
# Velocity S-wave (km/s) = -4.85497 2.01813 -3.12233
# Velocity P-wave (km/s) = 2.47197 5.61564 3.56544
#
# Compressibility (1/GPa) = 0.01889231
#
# Stress axis : x y z
#
# Youngs Moduli (GPa) = 54.22903 66.91995 62.28295
#
# Poissons Ratio (x) = 0.32977 0.27944
# Poissons Ratio (y) = 0.26723 0.36492
# Poissons Ratio (z) = 0.24330 0.39209
#
# Static dielectric constant tensor:
#      x y z
#    x 1.763910 0.000000 0.000000 
#    y 0.000000 2.020720 0.000000 
#    z 0.000000 0.000000 1.786210 
# 
# From -- ./inp_files/9802.got.cif
#   From: 2010.05.17/outbox.cif.g08.bks.cpg/sg43_5_cif.got.tgz:9802.got - 2010.06.03 19:21:55.
