data_PCOD9372043
_publ_section_title
;
Structure prediction by ZEFSAII (Michael W. Deem and Ramdas Pophale) SiO2 
 PCOD9372043
Probable space group: F D D 2
;
_chemical_formula_sum "Si O2"
_cell_formula_units_Z 88
_cell_length_a 12.189225
_cell_length_b 26.454490
_cell_length_c 12.030262
_cell_angle_alpha 90.000000
_cell_angle_beta 90.000000
_cell_angle_gamma 90.000000
_cell_volume 3879.275047
_symmetry_space_group_name_H-M "F D D 2"
_symmetry_group_IT_number 43
_symmetry_cell_setting 'orthorhombic'
loop_
_space_group_symop_operation_xyz
x,y,z
-x,-y,z
1/4-x,1/4+y,1/4+z
1/4+x,1/4-y,1/4+z
x,1/2+y,1/2+z
-x,1/2-y,1/2+z
1/4-x,3/4+y,3/4+z
1/4+x,3/4-y,3/4+z
1/2+x,y,1/2+z
1/2-x,-y,1/2+z
3/4-x,1/4+y,3/4+z
3/4+x,1/4-y,3/4+z
1/2+x,1/2+y,z
1/2-x,1/2-y,z
3/4-x,3/4+y,1/4+z
3/4+x,3/4-y,1/4+z
loop_
_atom_site_type_symbol
_atom_site_label
_atom_site_fract_x
_atom_site_fract_y
_atom_site_fract_z
Si Si1 0.143033 0.285265 0.134990
Si Si2 0.000000 0.500000 0.012711
Si Si3 0.633294 0.081753 0.155422
Si Si4 0.422919 0.225458 0.603541
Si Si5 0.073602 0.548489 0.625818
Si Si6 0.878525 0.863684 0.448284
O O1 0.250000 0.250000 0.124696
O O2 0.132698 0.312543 0.254703
O O3 0.043220 0.245833 0.124354
O O4 0.142515 0.325477 0.034697
O O5 0.933324 0.463283 0.095195
O O6 0.906366 0.513945 0.921393
O O7 0.767065 0.084171 0.147680
O O8 0.599512 0.129273 0.079625
O O9 0.405541 0.219121 0.471906
O O10 0.387883 0.170310 0.650063
O O11 0.000000 0.500000 0.602676
O O12 0.987265 0.587987 0.674852
#
# Coordination Sequence:
#
# PCOD9372043 Si02
#       6
#    16   8  16  16  16  16
#     4  11  27  44  75 111 150 199 249 321 384 453
#     4  10  24  42  78 100 144 202 248 314 364 462
#     4  11  24  48  71 110 152 195 259 304 380 455
#     4  11  24  46  75 107 147 199 259 306 384 460
#     4  11  24  44  72 107 145 199 249 306 387 449
#     4  11  25  46  75 108 148 201 254 320 368 456
#
# _framework density 22.684650999999999
#
# number of rings (size 3 to 8) (size 9 to 14) (size 15 to 20)
#    0.000    1.091    3.636    1.091   15.273    0.000 
#    6.545    0.000    0.000    0.000    0.000    0.000 
#    0.000    0.000    0.000    0.000    0.000    0.000 
#
# Total GULP energy -122645.958171 kJ/mol
# GULP energy per Si atom -5574.816281 kJ/mol
# Density = 2.263302 g / cm^3
# Si number density = 22.684651 Si / 1000 Ang^3
#
#
#
# Elastic Constant Matrix: (Units=GPa)
#
#
# Indices 1 2 3 4 5 6 
#
# 1 170.6861 30.5482 55.6398 0.0000 0.0000 0.0000
# 2 30.5482 75.6079 44.2251 0.0000 0.0000 0.0000
# 3 55.6398 44.2251 210.6582 0.0000 0.0000 0.0000
# 4 0.0000 0.0000 0.0000 -29.0359 0.0000 0.0000
# 5 0.0000 0.0000 0.0000 0.0000 85.8495 0.0000
# 6 0.0000 0.0000 0.0000 0.0000 0.0000 31.6229
#
#
#
# Elastic Compliance Matrix: (Units=1/GPa)
#
#
# Indices 1 2 3 4 5 6 
#
# 1 0.006639 -0.001889 -0.001357 0.000000 0.000000 0.000000
# 2 -0.001889 0.015615 -0.002779 0.000000 0.000000 0.000000
# 3 -0.001357 -0.002779 0.005689 0.000000 0.000000 0.000000
# 4 0.000000 0.000000 0.000000 -0.034440 0.000000 0.000000
# 5 0.000000 0.000000 0.000000 0.000000 0.011648 0.000000
# 6 0.000000 0.000000 0.000000 0.000000 0.000000 0.031623
#
#
# Mechanical properties :
#
#
# Convention : Reuss Voigt Hill
#
# Bulk Modulus (GPa) = 62.92113 79.75316 71.33714
# Shear Modulus (GPa) = 92.38485 39.45657 65.92071
#
# Velocity S-wave (km/s) = 6.38859 4.17508 5.39654
# Velocity P-wave (km/s) = 9.06732 7.64692 8.38724
#
# Compressibility (1/GPa) = 0.01589291
#
# Stress axis : x y z
#
# Youngs Moduli (GPa) = 150.62299 64.04133 175.77966
#
# Poissons Ratio (x) = 0.12095 0.23854
# Poissons Ratio (y) = 0.28447 0.48855
# Poissons Ratio (z) = 0.20440 0.17799
#
# Static dielectric constant tensor:
#      x y z
#    x 1.834840 0.000000 0.000000 
#    y 0.000000 1.940750 0.000000 
#    z 0.000000 0.000000 1.976380 
# 
# From -- ./inp_files/5737.got.cif
#   From: 2010.05.17/outbox.cif.g08.bks.cpg/sg43_3_cif.got.tgz:5737.got - 2010.06.03 19:21:55.
