data_PCOD9372482
_publ_section_title
;
Structure prediction by ZEFSAII (Michael W. Deem and Ramdas Pophale) SiO2 
 PCOD9372482
Probable space group: F D D 2
;
_chemical_formula_sum "Si O2"
_cell_formula_units_Z 80
_cell_length_a 22.638444
_cell_length_b 13.995945
_cell_length_c 10.226471
_cell_angle_alpha 90.000000
_cell_angle_beta 90.000000
_cell_angle_gamma 90.000000
_cell_volume 3240.220696
_symmetry_space_group_name_H-M "F D D 2"
_symmetry_group_IT_number 43
_symmetry_cell_setting 'orthorhombic'
loop_
_space_group_symop_operation_xyz
x,y,z
-x,-y,z
1/4-x,1/4+y,1/4+z
1/4+x,1/4-y,1/4+z
x,1/2+y,1/2+z
-x,1/2-y,1/2+z
1/4-x,3/4+y,3/4+z
1/4+x,3/4-y,3/4+z
1/2+x,y,1/2+z
1/2-x,-y,1/2+z
3/4-x,1/4+y,3/4+z
3/4+x,1/4-y,3/4+z
1/2+x,1/2+y,z
1/2-x,1/2-y,z
3/4-x,3/4+y,1/4+z
3/4+x,3/4-y,1/4+z
loop_
_atom_site_type_symbol
_atom_site_label
_atom_site_fract_x
_atom_site_fract_y
_atom_site_fract_z
Si Si1 0.567372 0.266584 0.032190
Si Si2 0.500000 0.500000 0.868866
Si Si3 0.000000 0.000000 0.324818
Si Si4 0.301293 0.937354 0.214161
Si Si5 0.582201 0.148142 0.265780
Si Si6 0.090336 0.976726 0.102211
O O1 0.591289 0.178299 0.115729
O O2 0.586409 0.362701 0.103229
O O3 0.497350 0.253393 0.033896
O O4 0.594066 0.261765 0.886111
O O5 0.522267 0.586996 0.780425
O O6 0.555540 0.495958 0.968391
O O7 0.981659 0.092472 0.409304
O O8 0.946846 0.979510 0.223100
O O9 0.357201 0.906012 0.299673
O O10 0.325136 0.007020 0.100901
#
# Coordination Sequence:
#
# PCOD9372482 Si02
#       6
#    16   8   8  16  16  16
#     4  12  24  47  75 108 150 199 253 311 382 460
#     4  11  28  49  74 108 166 195 256 315 394 452
#     4  11  22  45  72 106 140 189 246 311 372 454
#     4  12  28  45  76 107 152 193 253 311 382 453
#     4  12  27  50  71 118 146 201 252 316 381 457
#     4  11  24  47  76 110 146 198 253 317 384 457
#
# _framework density 24.689677
#
# number of rings (size 3 to 8) (size 9 to 14) (size 15 to 20)
#    0.000    0.400    6.000    1.200    5.600    3.200 
#    0.000    0.000    0.000    0.000    0.000    0.000 
#    0.000    0.000    0.000    0.000    0.000    0.000 
#
# Total GULP energy -111796.346975 kJ/mol
# GULP energy per Si atom -5589.817349 kJ/mol
# Density = 2.463348 g / cm^3
# Si number density = 24.689677 Si / 1000 Ang^3
#
#
#
# Elastic Constant Matrix: (Units=GPa)
#
#
# Indices 1 2 3 4 5 6 
#
# 1 121.5502 46.3978 33.0345 0.0000 0.0000 0.0000
# 2 46.3978 114.9818 34.3153 0.0000 0.0000 0.0000
# 3 33.0345 34.3153 51.4654 0.0000 0.0000 0.0000
# 4 0.0000 0.0000 0.0000 15.1889 0.0000 0.0000
# 5 0.0000 0.0000 0.0000 0.0000 29.7955 0.0000
# 6 0.0000 0.0000 0.0000 0.0000 0.0000 40.5432
#
#
#
# Elastic Compliance Matrix: (Units=1/GPa)
#
#
# Indices 1 2 3 4 5 6 
#
# 1 0.010650 -0.002818 -0.004957 0.000000 0.000000 0.000000
# 2 -0.002818 0.011603 -0.005928 0.000000 0.000000 0.000000
# 3 -0.004957 -0.005928 0.026565 0.000000 0.000000 0.000000
# 4 0.000000 0.000000 0.000000 0.065838 0.000000 0.000000
# 5 0.000000 0.000000 0.000000 0.000000 0.033562 0.000000
# 6 0.000000 0.000000 0.000000 0.000000 0.000000 0.024665
#
#
# Mechanical properties :
#
#
# Convention : Reuss Voigt Hill
#
# Bulk Modulus (GPa) = 46.70220 57.27696 51.98958
# Shear Modulus (GPa) = 24.10500 28.72217 26.41359
#
# Velocity S-wave (km/s) = 3.12800 3.41446 3.27436
# Velocity P-wave (km/s) = 5.65708 6.22847 5.94964
#
# Compressibility (1/GPa) = 0.02141227
#
# Stress axis : x y z
#
# Youngs Moduli (GPa) = 93.89695 86.18237 37.64395
#
# Poissons Ratio (x) = 0.24287 0.18660
# Poissons Ratio (y) = 0.26462 0.22314
# Poissons Ratio (z) = 0.46544 0.51087
#
# Static dielectric constant tensor:
#      x y z
#    x 2.037010 0.000000 0.000000 
#    y 0.000000 1.962010 0.000000 
#    z 0.000000 0.000000 1.996910 
# 
# From -- ./inp_files/6094.got.cif
#   From: 2010.05.17/outbox.cif.g08.bks.cpg/sg43_4_cif.got.tgz:6094.got - 2010.06.03 19:21:55.
