data_PCOD9372792
_publ_section_title
;
Structure prediction by ZEFSAII (Michael W. Deem and Ramdas Pophale) SiO2 
 PCOD9372792
Probable space group: F D D 2
;
_chemical_formula_sum "Si O2"
_cell_formula_units_Z 120
_cell_length_a 22.730074
_cell_length_b 8.756442
_cell_length_c 27.475307
_cell_angle_alpha 90.000000
_cell_angle_beta 90.000000
_cell_angle_gamma 90.000000
_cell_volume 5468.536042
_symmetry_space_group_name_H-M "F D D 2"
_symmetry_group_IT_number 43
_symmetry_cell_setting 'orthorhombic'
loop_
_space_group_symop_operation_xyz
x,y,z
-x,-y,z
1/4-x,1/4+y,1/4+z
1/4+x,1/4-y,1/4+z
x,1/2+y,1/2+z
-x,1/2-y,1/2+z
1/4-x,3/4+y,3/4+z
1/4+x,3/4-y,3/4+z
1/2+x,y,1/2+z
1/2-x,-y,1/2+z
3/4-x,1/4+y,3/4+z
3/4+x,1/4-y,3/4+z
1/2+x,1/2+y,z
1/2-x,1/2-y,z
3/4-x,3/4+y,1/4+z
3/4+x,3/4-y,1/4+z
loop_
_atom_site_type_symbol
_atom_site_label
_atom_site_fract_x
_atom_site_fract_y
_atom_site_fract_z
Si Si1 0.825877 0.071292 0.697730
Si Si2 0.117664 0.698566 0.241569
Si Si3 0.196287 0.429579 0.697077
Si Si4 0.628819 0.443637 0.599315
Si Si5 0.500000 0.000000 0.133820
Si Si6 0.995858 0.180110 0.194651
Si Si7 0.868132 0.075338 0.998242
Si Si8 0.933446 0.972782 0.341500
O O1 0.874471 0.939570 0.704421
O O2 0.841726 0.143055 0.645078
O O3 0.761210 0.000447 0.699446
O O4 0.838623 0.182257 0.742523
O O5 0.109046 0.633635 0.295370
O O6 0.063007 0.804461 0.227085
O O7 0.177844 0.794722 0.234360
O O8 0.149843 0.556124 0.712564
O O9 0.187116 0.365340 0.642754
O O10 0.559590 0.467251 0.604776
O O11 0.657832 0.610570 0.600417
O O12 0.492201 0.833503 0.161015
O O13 0.054166 0.208491 0.226282
O O14 0.000000 0.000000 0.176638
O O15 0.856675 0.138158 0.051988
O O16 0.000000 0.000000 0.323036
#
# Coordination Sequence:
#
# PCOD9372792 Si02
#       8
#    16  16  16  16   8  16  16  16
#     4  12  26  47  67 104 149 185 237 306 367 439
#     4  12  24  44  75 102 134 191 244 291 362 437
#     4  12  24  44  73 102 141 191 242 294 365 442
#     4  12  24  43  71 104 137 184 245 295 359 435
#     4  12  26  46  70 104 148 186 240 304 370 432
#     4  12  22  45  74 101 141 187 239 304 359 424
#     4  12  26  44  70 109 147 180 240 309 369 426
#     4  12  23  46  78 106 135 199 257 291 354 467
#
# _framework density 21.943716999999999
#
# number of rings (size 3 to 8) (size 9 to 14) (size 15 to 20)
#    0.000    0.000    8.000    2.000    1.867    1.067 
#    0.000    0.000    2.933    0.000    0.000    0.000 
#    0.000    0.000    0.000    0.000    0.000    0.000 
#
# Total GULP energy -167456.407144 kJ/mol
# GULP energy per Si atom -5581.880238 kJ/mol
# Density = 2.189377 g / cm^3
# Si number density = 21.943717 Si / 1000 Ang^3
#
#
#
# Elastic Constant Matrix: (Units=GPa)
#
#
# Indices 1 2 3 4 5 6 
#
# 1 105.8645 -8.3242 29.2848 0.0000 0.0000 -0.0001
# 2 -8.3242 41.8699 24.3243 0.0000 0.0000 -0.0001
# 3 29.2848 24.3243 107.6412 0.0000 0.0000 0.0000
# 4 0.0000 0.0000 0.0000 17.1968 0.0000 0.0000
# 5 0.0000 0.0000 0.0000 0.0000 27.8870 0.0000
# 6 -0.0001 -0.0001 0.0000 0.0000 0.0000 36.2954
#
#
#
# Elastic Compliance Matrix: (Units=1/GPa)
#
#
# Indices 1 2 3 4 5 6 
#
# 1 0.010898 0.004477 -0.003977 0.000000 0.000000 0.000000
# 2 0.004477 0.029332 -0.007846 0.000000 0.000000 0.000000
# 3 -0.003977 -0.007846 0.012145 0.000000 0.000000 0.000000
# 4 0.000000 0.000000 0.000000 0.058150 0.000000 0.000000
# 5 0.000000 0.000000 0.000000 0.000000 0.035859 0.000000
# 6 0.000000 0.000000 0.000000 0.000000 0.000000 0.027552
#
#
# Mechanical properties :
#
#
# Convention : Reuss Voigt Hill
#
# Bulk Modulus (GPa) = 26.53719 38.43837 32.48778
# Shear Modulus (GPa) = 24.85229 30.28190 27.56710
#
# Velocity S-wave (km/s) = 3.36898 3.71884 3.54823
# Velocity P-wave (km/s) = 5.22044 5.99954 5.62350
#
# Compressibility (1/GPa) = 0.03768297
#
# Stress axis : x y z
#
# Youngs Moduli (GPa) = 91.75933 34.09273 82.33817
#
# Poissons Ratio (x) = -0.15263 0.32742
# Poissons Ratio (y) = -0.41079 0.64604
# Poissons Ratio (z) = 0.36489 0.26750
#
# Static dielectric constant tensor:
#      x y z
#    x 1.808210 0.000000 0.000000 
#    y 0.000000 1.893870 0.000000 
#    z 0.000000 0.000000 1.804800 
# 
# From -- ./inp_files/26604.got.cif
#   From: 2010.05.17/outbox.cif.g08.bks.cpg/sg43_14_cif.got.tgz:26604.got - 2010.06.03 19:21:55.
