data_PCOD9372849
_publ_section_title
;
Structure prediction by ZEFSAII (Michael W. Deem and Ramdas Pophale) SiO2 
 PCOD9372849
Probable space group: F D D 2
;
_chemical_formula_sum "Si O2"
_cell_formula_units_Z 88
_cell_length_a 12.831870
_cell_length_b 26.101326
_cell_length_c 10.805211
_cell_angle_alpha 90.000000
_cell_angle_beta 90.000000
_cell_angle_gamma 90.000000
_cell_volume 3618.976592
_symmetry_space_group_name_H-M "F D D 2"
_symmetry_group_IT_number 43
_symmetry_cell_setting 'orthorhombic'
loop_
_space_group_symop_operation_xyz
x,y,z
-x,-y,z
1/4-x,1/4+y,1/4+z
1/4+x,1/4-y,1/4+z
x,1/2+y,1/2+z
-x,1/2-y,1/2+z
1/4-x,3/4+y,3/4+z
1/4+x,3/4-y,3/4+z
1/2+x,y,1/2+z
1/2-x,-y,1/2+z
3/4-x,1/4+y,3/4+z
3/4+x,1/4-y,3/4+z
1/2+x,1/2+y,z
1/2-x,1/2-y,z
3/4-x,3/4+y,1/4+z
3/4+x,3/4-y,1/4+z
loop_
_atom_site_type_symbol
_atom_site_label
_atom_site_fract_x
_atom_site_fract_y
_atom_site_fract_z
Si Si1 0.178414 0.407089 0.210030
Si Si2 0.750000 0.250000 0.794145
Si Si3 0.394607 0.600098 0.105724
Si Si4 0.355085 0.487440 0.813559
Si Si5 0.407148 0.664931 0.341923
Si Si6 0.271298 0.582431 0.447004
O O1 0.280199 0.377141 0.256169
O O2 0.145587 0.452219 0.300526
O O3 0.078021 0.370953 0.190474
O O4 0.214142 0.435682 0.085660
O O5 0.791930 0.296937 0.877043
O O6 0.832053 0.228000 0.691579
O O7 0.372230 0.644856 0.206900
O O8 0.280123 0.580520 0.072399
O O9 0.386136 0.460069 0.683060
O O10 0.245189 0.461671 0.847299
O O11 0.373290 0.615198 0.419507
#
# Coordination Sequence:
#
# PCOD9372849 Si02
#       6
#    16   8  16  16  16  16
#     4  12  26  46  78 104 145 199 255 307 378 462
#     4  12  26  50  78 108 146 206 266 302 384 482
#     4  12  26  45  75 111 148 194 248 321 376 452
#     4  12  26  45  77 107 143 198 254 305 382 462
#     4  12  25  46  69 107 155 183 244 317 379 445
#     4  12  24  50  70 106 147 197 247 308 379 467
#
# _framework density 24.316268000000001
#
# number of rings (size 3 to 8) (size 9 to 14) (size 15 to 20)
#    0.000    0.000    5.455    4.364    5.091    0.000 
#    0.000    0.000    0.000    0.000    0.000    0.000 
#    0.000    0.000    0.000    0.000    0.000    0.000 
#
# Total GULP energy -122669.133510 kJ/mol
# GULP energy per Si atom -5575.869705 kJ/mol
# Density = 2.426092 g / cm^3
# Si number density = 24.316268 Si / 1000 Ang^3
#
#
#
# Elastic Constant Matrix: (Units=GPa)
#
#
# Indices 1 2 3 4 5 6 
#
# 1 77.0628 -2.6161 4.5062 0.0000 0.0000 0.0000
# 2 -2.6161 15.1025 -6.9451 0.0000 0.0000 0.0000
# 3 4.5062 -6.9451 81.8299 0.0000 0.0000 0.0000
# 4 0.0000 0.0000 0.0000 41.0925 0.0000 0.0000
# 5 0.0000 0.0000 0.0000 0.0000 31.1344 0.0000
# 6 0.0000 0.0000 0.0000 0.0000 0.0000 31.9420
#
#
#
# Elastic Compliance Matrix: (Units=1/GPa)
#
#
# Indices 1 2 3 4 5 6 
#
# 1 0.013077 0.002013 -0.000549 0.000000 0.000000 0.000000
# 2 0.002013 0.069213 0.005764 0.000000 0.000000 0.000000
# 3 -0.000549 0.005764 0.012740 0.000000 0.000000 0.000000
# 4 0.000000 0.000000 0.000000 0.024335 0.000000 0.000000
# 5 0.000000 0.000000 0.000000 0.000000 0.032119 0.000000
# 6 0.000000 0.000000 0.000000 0.000000 0.000000 0.031307
#
#
# Mechanical properties :
#
#
# Convention : Reuss Voigt Hill
#
# Bulk Modulus (GPa) = 9.13377 18.20946 13.67162
# Shear Modulus (GPa) = 24.41023 32.77046 28.59035
#
# Velocity S-wave (km/s) = 3.17182 3.67505 3.43267
# Velocity P-wave (km/s) = 4.14467 5.05103 4.62013
#
# Compressibility (1/GPa) = 0.10948382
#
# Stress axis : x y z
#
# Youngs Moduli (GPa) = 76.47089 14.44805 78.49358
#
# Poissons Ratio (x) = -0.02908 0.04312
# Poissons Ratio (y) = -0.15390 -0.45240
# Poissons Ratio (z) = 0.04201 -0.08327
#
# Static dielectric constant tensor:
#      x y z
#    x 1.978730 0.000000 0.000000 
#    y 0.000000 1.977010 0.000000 
#    z 0.000000 0.000000 2.067880 
# 
# From -- ./inp_files/6198.got.cif
#   From: 2010.05.17/outbox.cif.g08.bks.cpg/sg43_4_cif.got.tgz:6198.got - 2010.06.03 19:21:55.
