data_PCOD9372091
_publ_section_title
;
Structure prediction by ZEFSAII (Michael W. Deem and Ramdas Pophale) SiO2 
 PCOD9372091
Probable space group: F D D 2
;
_chemical_formula_sum "Si O2"
_cell_formula_units_Z 120
_cell_length_a 15.397780
_cell_length_b 15.329456
_cell_length_c 23.956855
_cell_angle_alpha 90.000000
_cell_angle_beta 90.000000
_cell_angle_gamma 90.000000
_cell_volume 5654.766256
_symmetry_space_group_name_H-M "F D D 2"
_symmetry_group_IT_number 43
_symmetry_cell_setting 'orthorhombic'
loop_
_space_group_symop_operation_xyz
x,y,z
-x,-y,z
1/4-x,1/4+y,1/4+z
1/4+x,1/4-y,1/4+z
x,1/2+y,1/2+z
-x,1/2-y,1/2+z
1/4-x,3/4+y,3/4+z
1/4+x,3/4-y,3/4+z
1/2+x,y,1/2+z
1/2-x,-y,1/2+z
3/4-x,1/4+y,3/4+z
3/4+x,1/4-y,3/4+z
1/2+x,1/2+y,z
1/2-x,1/2-y,z
3/4-x,3/4+y,1/4+z
3/4+x,3/4-y,1/4+z
loop_
_atom_site_type_symbol
_atom_site_label
_atom_site_fract_x
_atom_site_fract_y
_atom_site_fract_z
Si Si1 0.720646 0.591782 0.383280
Si Si2 0.559821 0.765593 0.282843
Si Si3 0.500000 0.000000 0.560374
Si Si4 0.904341 0.806749 0.467512
Si Si5 0.429557 0.932382 0.793685
Si Si6 0.309608 0.418524 0.916778
Si Si7 0.292070 0.533402 0.638448
Si Si8 0.690036 0.826004 0.825349
O O1 0.765653 0.670319 0.351595
O O2 0.658422 0.631193 0.431308
O O3 0.650197 0.563560 0.336465
O O4 0.791008 0.519210 0.399401
O O5 0.662740 0.748642 0.275357
O O6 0.531684 0.663856 0.285996
O O7 0.531994 0.825913 0.231629
O O8 0.528636 0.806769 0.340911
O O9 0.852598 0.719675 0.484775
O O10 0.923069 0.856961 0.525345
O O11 0.989702 0.773128 0.434622
O O12 0.500000 0.000000 0.815688
O O13 0.098717 0.133522 0.910146
O O14 0.244347 0.368436 0.875780
O O15 0.359567 0.471027 0.605483
O O16 0.750000 0.750000 0.799884
#
# Coordination Sequence:
#
# PCOD9372091 Si02
#       8
#    16  16   8  16  16  16  16  16
#     4  11  24  42  68 103 140 189 232 303 358 431
#     4  11  25  45  70  98 143 190 232 307 357 441
#     4  10  24  46  62  98 142 174 250 282 356 436
#     4  12  24  41  74 103 146 192 244 309 367 431
#     4  11  23  41  70 104 138 178 249 299 361 433
#     4  11  25  43  71 101 147 188 237 302 375 433
#     4  11  25  46  69 108 145 193 248 299 370 447
#     4  10  24  45  66 104 147 188 245 301 358 446
#
# _framework density 21.221036000000002
#
# number of rings (size 3 to 8) (size 9 to 14) (size 15 to 20)
#    0.000    1.067    4.000    2.400    6.533    3.733 
#    0.000    1.333    0.000    0.000    0.000    0.000 
#    0.000    0.000    0.000    0.000    0.000    0.000 
#
# Total GULP energy -167278.755057 kJ/mol
# GULP energy per Si atom -5575.958502 kJ/mol
# Density = 2.117274 g / cm^3
# Si number density = 21.221036 Si / 1000 Ang^3
#
#
#
# Elastic Constant Matrix: (Units=GPa)
#
#
# Indices 1 2 3 4 5 6 
#
# 1 69.7048 40.1607 20.4502 0.0000 0.0000 0.0000
# 2 40.1607 104.5936 41.4330 0.0000 0.0000 0.0000
# 3 20.4502 41.4330 98.5035 0.0000 0.0000 0.0000
# 4 0.0000 0.0000 0.0000 32.1009 0.0000 0.0000
# 5 0.0000 0.0000 0.0000 0.0000 30.4199 0.0000
# 6 0.0000 0.0000 0.0000 0.0000 0.0000 32.7343
#
#
#
# Elastic Compliance Matrix: (Units=1/GPa)
#
#
# Indices 1 2 3 4 5 6 
#
# 1 0.018507 -0.006701 -0.001024 0.000000 0.000000 0.000000
# 2 -0.006701 0.013898 -0.004455 0.000000 0.000000 0.000000
# 3 -0.001024 -0.004455 0.012238 0.000000 0.000000 0.000000
# 4 0.000000 0.000000 0.000000 0.031152 0.000000 0.000000
# 5 0.000000 0.000000 0.000000 0.000000 0.032873 0.000000
# 6 0.000000 0.000000 0.000000 0.000000 0.000000 0.030549
#
#
# Mechanical properties :
#
#
# Convention : Reuss Voigt Hill
#
# Bulk Modulus (GPa) = 49.29695 52.98775 51.14235
# Shear Modulus (GPa) = 29.35335 30.43488 29.89412
#
# Velocity S-wave (km/s) = 3.72320 3.79117 3.75734
# Velocity P-wave (km/s) = 6.46248 6.64738 6.55558
#
# Compressibility (1/GPa) = 0.02028523
#
# Stress axis : x y z
#
# Youngs Moduli (GPa) = 54.03309 71.95081 81.71062
#
# Poissons Ratio (x) = 0.48212 0.08366
# Poissons Ratio (y) = 0.36206 0.36401
# Poissons Ratio (z) = 0.05532 0.32053
#
# Static dielectric constant tensor:
#      x y z
#    x 1.809610 0.000000 0.000000 
#    y 0.000000 1.801420 0.000000 
#    z 0.000000 0.000000 1.776360 
# 
# From -- ./inp_files/22143.got.cif
#   From: 2010.05.17/outbox.cif.g08.bks.cpg/sg43_12_cif.got.tgz:22143.got - 2010.06.03 19:21:55.
