data_PCOD9372551
_publ_section_title
;
Structure prediction by ZEFSAII (Michael W. Deem and Ramdas Pophale) SiO2 
 PCOD9372551
Probable space group: F D D 2
;
_chemical_formula_sum "Si O2"
_cell_formula_units_Z 88
_cell_length_a 20.046694
_cell_length_b 33.088248
_cell_length_c 5.102352
_cell_angle_alpha 90.000000
_cell_angle_beta 90.000000
_cell_angle_gamma 90.000000
_cell_volume 3384.441017
_symmetry_space_group_name_H-M "F D D 2"
_symmetry_group_IT_number 43
_symmetry_cell_setting 'orthorhombic'
loop_
_space_group_symop_operation_xyz
x,y,z
-x,-y,z
1/4-x,1/4+y,1/4+z
1/4+x,1/4-y,1/4+z
x,1/2+y,1/2+z
-x,1/2-y,1/2+z
1/4-x,3/4+y,3/4+z
1/4+x,3/4-y,3/4+z
1/2+x,y,1/2+z
1/2-x,-y,1/2+z
3/4-x,1/4+y,3/4+z
3/4+x,1/4-y,3/4+z
1/2+x,1/2+y,z
1/2-x,1/2-y,z
3/4-x,3/4+y,1/4+z
3/4+x,3/4-y,1/4+z
loop_
_atom_site_type_symbol
_atom_site_label
_atom_site_fract_x
_atom_site_fract_y
_atom_site_fract_z
Si Si1 0.894395 0.233730 0.865590
Si Si2 0.414020 0.661580 0.263759
Si Si3 0.520810 0.413616 0.340383
Si Si4 0.500000 0.000000 0.627095
Si Si5 0.226900 0.447791 0.849756
Si Si6 0.202645 0.864235 0.600199
O O1 0.821093 0.240243 0.738315
O O2 0.960534 0.225078 0.695024
O O3 0.892563 0.195903 0.064411
O O4 0.916093 0.273880 0.023507
O O5 0.420431 0.613412 0.207964
O O6 0.487180 0.674901 0.360478
O O7 0.363271 0.658570 0.503940
O O8 0.518658 0.461073 0.299486
O O9 0.508609 0.402686 0.643997
O O10 0.462783 0.397266 0.148818
O O11 0.205120 0.412315 0.048711
#
# Coordination Sequence:
#
# PCOD9372551 Si02
#       6
#    16  16  16   8  16  16
#     4  12  23  46  70 110 148 194 249 311 374 452
#     4  11  23  44  71 102 148 194 247 304 372 449
#     4  11  25  44  69 103 142 195 240 303 368 437
#     4  12  26  46  72 110 154 188 256 316 380 438
#     4  11  24  44  74 105 145 195 252 303 376 449
#     4  11  24  45  72 101 146 193 246 301 370 442
#
# _framework density 26.001341
#
# number of rings (size 3 to 8) (size 9 to 14) (size 15 to 20)
#    0.000    0.727    5.455    2.182    0.000    0.727 
#    3.273    1.818    0.000    0.000    0.000    0.000 
#    0.000    0.000    0.000    0.000    0.000    0.000 
#
# Total GULP energy -122865.990895 kJ/mol
# GULP energy per Si atom -5584.817768 kJ/mol
# Density = 2.594216 g / cm^3
# Si number density = 26.001341 Si / 1000 Ang^3
#
#
#
# Elastic Constant Matrix: (Units=GPa)
#
#
# Indices 1 2 3 4 5 6 
#
# 1 153.5079 32.0760 18.0832 0.0494 0.0600 -0.0230
# 2 32.0760 180.5808 16.9765 0.0017 -0.0091 -0.0186
# 3 18.0832 16.9765 50.6354 0.0568 -0.0164 -0.0278
# 4 0.0494 0.0017 0.0568 25.0093 -0.0171 -0.0086
# 5 0.0600 -0.0091 -0.0164 -0.0171 24.1847 0.0315
# 6 -0.0230 -0.0186 -0.0278 -0.0086 0.0315 49.9647
#
#
#
# Elastic Compliance Matrix: (Units=1/GPa)
#
#
# Indices 1 2 3 4 5 6 
#
# 1 0.006984 -0.001039 -0.002146 -0.000009 -0.000019 0.000002
# 2 -0.001039 0.005872 -0.001598 0.000005 0.000004 0.000001
# 3 -0.002146 -0.001598 0.021051 -0.000043 0.000019 0.000010
# 4 -0.000009 0.000005 -0.000043 0.039985 0.000028 0.000007
# 5 -0.000019 0.000004 0.000019 0.000028 0.041348 -0.000026
# 6 0.000002 0.000001 0.000010 0.000007 -0.000026 0.020014
#
#
# Mechanical properties :
#
#
# Convention : Reuss Voigt Hill
#
# Bulk Modulus (GPa) = 41.08035 57.66617 49.37326
# Shear Modulus (GPa) = 32.69360 41.00432 36.84896
#
# Velocity S-wave (km/s) = 3.54980 3.97546 3.76865
# Velocity P-wave (km/s) = 5.71271 6.58018 6.16173
#
# Compressibility (1/GPa) = 0.02434254
#
# Stress axis : x y z
#
# Youngs Moduli (GPa) = 143.18048 170.28733 47.50326
#
# Poissons Ratio (x) = 0.17690 0.10194
# Poissons Ratio (y) = 0.14874 0.07590
# Poissons Ratio (z) = 0.30726 0.27210
#
# Static dielectric constant tensor:
#      x y z
#    x 2.153570 0.000000 0.000020 
#    y 0.000000 2.096100 -0.000020 
#    z 0.000020 -0.000020 2.056530 
# 
# From -- ./inp_files/1045.got.cif
#   From: 2010.05.17/outbox.cif.g08.bks.cpg/sg43_1_cif.got.tgz:1045.got - 2010.06.03 19:21:55.
