data_PCOD9372083
_publ_section_title
;
Structure prediction by ZEFSAII (Michael W. Deem and Ramdas Pophale) SiO2 
 PCOD9372083
Probable space group: F D D 2
;
_chemical_formula_sum "Si O2"
_cell_formula_units_Z 64
_cell_length_a 18.367893
_cell_length_b 14.684065
_cell_length_c 11.216321
_cell_angle_alpha 90.000000
_cell_angle_beta 90.000000
_cell_angle_gamma 90.000000
_cell_volume 3025.213773
_symmetry_space_group_name_H-M "F D D 2"
_symmetry_group_IT_number 43
_symmetry_cell_setting 'orthorhombic'
loop_
_space_group_symop_operation_xyz
x,y,z
-x,-y,z
1/4-x,1/4+y,1/4+z
1/4+x,1/4-y,1/4+z
x,1/2+y,1/2+z
-x,1/2-y,1/2+z
1/4-x,3/4+y,3/4+z
1/4+x,3/4-y,3/4+z
1/2+x,y,1/2+z
1/2-x,-y,1/2+z
3/4-x,1/4+y,3/4+z
3/4+x,1/4-y,3/4+z
1/2+x,1/2+y,z
1/2-x,1/2-y,z
3/4-x,3/4+y,1/4+z
3/4+x,3/4-y,1/4+z
loop_
_atom_site_type_symbol
_atom_site_label
_atom_site_fract_x
_atom_site_fract_y
_atom_site_fract_z
Si Si1 0.953856 0.218776 0.230130
Si Si2 0.505656 0.901733 0.353589
Si Si3 0.422717 0.033964 0.815426
Si Si4 0.173987 0.847765 0.857270
O O1 0.972732 0.314653 0.287671
O O2 0.894577 0.237397 0.129000
O O3 0.920932 0.142791 0.318764
O O4 0.025567 0.169216 0.179048
O O5 0.460254 0.910239 0.477369
O O6 0.591509 0.882177 0.362685
O O7 0.500000 0.000000 0.291247
O O8 0.500000 0.000000 0.867050
O O9 0.422708 0.998059 0.678735
#
# Coordination Sequence:
#
# PCOD9372083 Si02
#       4
#    16  16  16  16
#     4  11  25  44  71 105 141 185 240 303 354 432
#     4  12  26  44  72 107 144 190 244 302 361 427
#     4  10  24  44  71  98 139 190 233 291 363 436
#     4  11  24  48  75 101 144 196 246 288 364 452
#
# _framework density 21.155529999999999
#
# number of rings (size 3 to 8) (size 9 to 14) (size 15 to 20)
#    0.000    1.000    2.500    3.750   10.500    0.000 
#    4.500    0.000    0.000    0.000    0.000    0.000 
#    0.000    0.000    0.000    0.000    0.000    0.000 
#
# Total GULP energy -89420.182329 kJ/mol
# GULP energy per Si atom -5588.761396 kJ/mol
# Density = 2.110738 g / cm^3
# Si number density = 21.155530 Si / 1000 Ang^3
#
#
#
# Elastic Constant Matrix: (Units=GPa)
#
#
# Indices 1 2 3 4 5 6 
#
# 1 140.2367 30.5068 31.4688 0.0000 0.0000 0.0000
# 2 30.5068 177.5281 28.6088 0.0000 0.0000 0.0000
# 3 31.4688 28.6088 50.8074 0.0000 0.0000 0.0000
# 4 0.0000 0.0000 0.0000 146.6383 0.0000 0.0000
# 5 0.0000 0.0000 0.0000 0.0000 15.3511 0.0000
# 6 0.0000 0.0000 0.0000 0.0000 0.0000 38.3247
#
#
#
# Elastic Compliance Matrix: (Units=1/GPa)
#
#
# Indices 1 2 3 4 5 6 
#
# 1 0.008352 -0.000662 -0.004800 0.000000 0.000000 0.000000
# 2 -0.000662 0.006247 -0.003108 0.000000 0.000000 0.000000
# 3 -0.004800 -0.003108 0.024406 0.000000 0.000000 0.000000
# 4 0.000000 0.000000 0.000000 0.006820 0.000000 0.000000
# 5 0.000000 0.000000 0.000000 0.000000 0.065142 0.000000
# 6 0.000000 0.000000 0.000000 0.000000 0.000000 0.026093
#
#
# Mechanical properties :
#
#
# Convention : Reuss Voigt Hill
#
# Bulk Modulus (GPa) = 45.73578 61.08232 53.40905
# Shear Modulus (GPa) = 30.96211 58.59534 44.77872
#
# Velocity S-wave (km/s) = 3.82978 5.26854 4.60569
# Velocity P-wave (km/s) = 6.42044 8.12070 7.32010
#
# Compressibility (1/GPa) = 0.02186472
#
# Stress axis : x y z
#
# Youngs Moduli (GPa) = 119.73278 160.06483 40.97436
#
# Poissons Ratio (x) = 0.10590 0.19669
# Poissons Ratio (y) = 0.07922 0.12735
# Poissons Ratio (z) = 0.57477 0.49749
#
# Static dielectric constant tensor:
#      x y z
#    x 1.766230 0.000000 0.000000 
#    y 0.000000 1.773660 0.000000 
#    z 0.000000 0.000000 1.777860 
# 
# From -- ./inp_files/5478.got.cif
#   From: 2010.05.17/outbox.cif.g08.bks.cpg/sg43_3_cif.got.tgz:5478.got - 2010.06.03 19:21:55.
