data_PCOD9372124
_publ_section_title
;
Structure prediction by ZEFSAII (Michael W. Deem and Ramdas Pophale) SiO2 
 PCOD9372124
Probable space group: F D D 2
;
_chemical_formula_sum "Si O2"
_cell_formula_units_Z 56
_cell_length_a 7.760451
_cell_length_b 18.176385
_cell_length_c 18.374793
_cell_angle_alpha 90.000000
_cell_angle_beta 90.000000
_cell_angle_gamma 90.000000
_cell_volume 2591.892168
_symmetry_space_group_name_H-M "F D D 2"
_symmetry_group_IT_number 43
_symmetry_cell_setting 'orthorhombic'
loop_
_space_group_symop_operation_xyz
x,y,z
-x,-y,z
1/4-x,1/4+y,1/4+z
1/4+x,1/4-y,1/4+z
x,1/2+y,1/2+z
-x,1/2-y,1/2+z
1/4-x,3/4+y,3/4+z
1/4+x,3/4-y,3/4+z
1/2+x,y,1/2+z
1/2-x,-y,1/2+z
3/4-x,1/4+y,3/4+z
3/4+x,1/4-y,3/4+z
1/2+x,1/2+y,z
1/2-x,1/2-y,z
3/4-x,3/4+y,1/4+z
3/4+x,3/4-y,1/4+z
loop_
_atom_site_type_symbol
_atom_site_label
_atom_site_fract_x
_atom_site_fract_y
_atom_site_fract_z
Si Si1 0.061702 0.728577 0.040160
Si Si2 0.843395 0.102147 0.687700
Si Si3 0.178274 0.169976 0.768928
Si Si4 0.250000 0.250000 0.151117
O O1 0.250000 0.750000 0.065849
O O2 0.068821 0.644546 0.013671
O O3 0.916633 0.734761 0.101979
O O4 0.990044 0.784123 0.979439
O O5 0.873621 0.077554 0.604329
O O6 0.721957 0.174072 0.692595
O O7 0.018564 0.133660 0.724681
O O8 0.250000 0.250000 0.747377
#
# Coordination Sequence:
#
# PCOD9372124 Si02
#       4
#    16  16  16   8
#     4  11  23  46  68  99 138 184 227 291 352 416
#     4  11  22  47  69  97 149 181 229 298 354 407
#     4  11  24  43  73 103 140 185 236 290 351 422
#     4  10  24  46  70  98 146 174 236 296 346 408
#
# _framework density 21.605837999999999
#
# number of rings (size 3 to 8) (size 9 to 14) (size 15 to 20)
#    0.000    1.143    5.714    1.714    4.000    4.571 
#    7.714    0.000    0.000    0.000    0.000    0.000 
#    0.000    0.000    0.000    0.000    0.000    0.000 
#
# Total GULP energy -78160.450715 kJ/mol
# GULP energy per Si atom -5582.889337 kJ/mol
# Density = 2.155666 g / cm^3
# Si number density = 21.605838 Si / 1000 Ang^3
#
#
#
# Elastic Constant Matrix: (Units=GPa)
#
#
# Indices 1 2 3 4 5 6 
#
# 1 117.9125 32.3384 13.0732 0.0000 0.0000 0.0000
# 2 32.3384 186.3431 5.4398 0.0000 0.0000 0.0000
# 3 13.0732 5.4398 81.2400 0.0000 0.0000 0.0000
# 4 0.0000 0.0000 0.0000 35.6798 0.0000 0.0000
# 5 0.0000 0.0000 0.0000 0.0000 4.7468 0.0000
# 6 0.0000 0.0000 0.0000 0.0000 0.0000 37.7142
#
#
#
# Elastic Compliance Matrix: (Units=1/GPa)
#
#
# Indices 1 2 3 4 5 6 
#
# 1 0.009051 -0.001531 -0.001354 0.000000 0.000000 0.000000
# 2 -0.001531 0.005636 -0.000131 0.000000 0.000000 0.000000
# 3 -0.001354 -0.000131 0.012536 0.000000 0.000000 0.000000
# 4 0.000000 0.000000 0.000000 0.028027 0.000000 0.000000
# 5 0.000000 0.000000 0.000000 0.000000 0.210667 0.000000
# 6 0.000000 0.000000 0.000000 0.000000 0.000000 0.026515
#
#
# Mechanical properties :
#
#
# Convention : Reuss Voigt Hill
#
# Bulk Modulus (GPa) = 47.19092 54.13316 50.66204
# Shear Modulus (GPa) = 16.36514 37.93777 27.15145
#
# Velocity S-wave (km/s) = 2.75515 4.19490 3.54880
# Velocity P-wave (km/s) = 5.65776 6.96937 6.34754
#
# Compressibility (1/GPa) = 0.02119052
#
# Stress axis : x y z
#
# Youngs Moduli (GPa) = 110.48599 177.43093 79.77112
#
# Poissons Ratio (x) = 0.27168 0.10801
# Poissons Ratio (y) = 0.16918 0.01045
# Poissons Ratio (z) = 0.14959 0.02324
#
# Static dielectric constant tensor:
#      x y z
#    x 1.782520 0.000000 0.000000 
#    y 0.000000 1.900090 0.000000 
#    z 0.000000 0.000000 1.826480 
# 
# From -- ./inp_files/12381.got.cif
#   From: 2010.05.17/outbox.cif.g08.bks.cpg/sg43_7_cif.got.tgz:12381.got - 2010.06.03 19:21:55.
