data_PCOD9372659
_publ_section_title
;
Structure prediction by ZEFSAII (Michael W. Deem and Ramdas Pophale) SiO2 
 PCOD9372659
Probable space group: F D D 2
;
_chemical_formula_sum "Si O2"
_cell_formula_units_Z 112
_cell_length_a 29.349148
_cell_length_b 11.151539
_cell_length_c 13.880096
_cell_angle_alpha 90.000000
_cell_angle_beta 90.000000
_cell_angle_gamma 90.000000
_cell_volume 4542.791199
_symmetry_space_group_name_H-M "F D D 2"
_symmetry_group_IT_number 43
_symmetry_cell_setting 'orthorhombic'
loop_
_space_group_symop_operation_xyz
x,y,z
-x,-y,z
1/4-x,1/4+y,1/4+z
1/4+x,1/4-y,1/4+z
x,1/2+y,1/2+z
-x,1/2-y,1/2+z
1/4-x,3/4+y,3/4+z
1/4+x,3/4-y,3/4+z
1/2+x,y,1/2+z
1/2-x,-y,1/2+z
3/4-x,1/4+y,3/4+z
3/4+x,1/4-y,3/4+z
1/2+x,1/2+y,z
1/2-x,1/2-y,z
3/4-x,3/4+y,1/4+z
3/4+x,3/4-y,1/4+z
loop_
_atom_site_type_symbol
_atom_site_label
_atom_site_fract_x
_atom_site_fract_y
_atom_site_fract_z
Si Si1 0.434156 0.331997 0.344850
Si Si2 0.506456 0.208696 0.451205
Si Si3 0.814325 0.831155 0.688429
Si Si4 0.205142 0.689452 0.863343
Si Si5 0.655531 0.011684 0.009416
Si Si6 0.628713 0.856757 0.402579
Si Si7 0.051938 0.034575 0.818857
O O1 0.479605 0.252701 0.354257
O O2 0.402083 0.261852 0.421821
O O3 0.403979 0.340400 0.247498
O O4 0.406953 0.057914 0.345417
O O5 0.528104 0.332129 0.490727
O O6 0.474222 0.136653 0.523886
O O7 0.542279 0.111455 0.415217
O O8 0.852935 0.775074 0.754901
O O9 0.800931 0.713633 0.627388
O O10 0.835253 0.921059 0.609311
O O11 0.250000 0.750000 0.910112
O O12 0.177521 0.597953 0.929758
O O13 0.170908 0.799867 0.844639
O O14 0.679752 0.883640 0.996603
O O15 0.000000 0.000000 0.790911
#
# Coordination Sequence:
#
# PCOD9372659 Si02
#       7
#    16  16  16  16  16  16  16
#     4  12  23  45  75 112 149 204 260 318 390 472
#     4  11  27  47  77 109 160 192 265 331 396 458
#     4  11  24  47  73 109 154 203 251 327 392 470
#     4  12  28  47  80 115 149 205 273 325 388 485
#     4  11  27  48  73 108 154 197 262 315 394 476
#     4  12  27  43  83 108 150 206 262 320 396 477
#     4  11  26  50  71 110 156 199 249 333 395 465
#
# _framework density 24.654444000000002
#
# number of rings (size 3 to 8) (size 9 to 14) (size 15 to 20)
#    0.000    0.571    4.286    1.714   10.000    1.143 
#    2.571    0.000    0.000    0.000    0.000    0.000 
#    0.000    0.000    0.000    0.000    0.000    0.000 
#
# Total GULP energy -156160.657373 kJ/mol
# GULP energy per Si atom -5577.166335 kJ/mol
# Density = 2.459833 g / cm^3
# Si number density = 24.654444 Si / 1000 Ang^3
#
#
#
# Elastic Constant Matrix: (Units=GPa)
#
#
# Indices 1 2 3 4 5 6 
#
# 1 141.1022 79.0762 18.3168 0.0000 0.0000 0.0000
# 2 79.0762 146.3155 25.7564 0.0000 0.0000 0.0000
# 3 18.3168 25.7564 42.4674 0.0000 0.0000 0.0000
# 4 0.0000 0.0000 0.0000 33.1122 0.0000 0.0000
# 5 0.0000 0.0000 0.0000 0.0000 29.0910 0.0000
# 6 0.0000 0.0000 0.0000 0.0000 0.0000 74.7287
#
#
#
# Elastic Compliance Matrix: (Units=1/GPa)
#
#
# Indices 1 2 3 4 5 6 
#
# 1 0.010219 -0.005314 -0.001184 0.000000 0.000000 0.000000
# 2 -0.005314 0.010415 -0.004025 0.000000 0.000000 0.000000
# 3 -0.001184 -0.004025 0.026499 0.000000 0.000000 0.000000
# 4 0.000000 0.000000 0.000000 0.030200 0.000000 0.000000
# 5 0.000000 0.000000 0.000000 0.000000 0.034375 0.000000
# 6 0.000000 0.000000 0.000000 0.000000 0.000000 0.013382
#
#
# Mechanical properties :
#
#
# Convention : Reuss Voigt Hill
#
# Bulk Modulus (GPa) = 38.33391 64.02045 51.17718
# Shear Modulus (GPa) = 32.29285 41.16875 36.73080
#
# Velocity S-wave (km/s) = 3.62307 4.09079 3.86401
# Velocity P-wave (km/s) = 5.75190 6.95243 6.38046
#
# Compressibility (1/GPa) = 0.02608656
#
# Stress axis : x y z
#
# Youngs Moduli (GPa) = 97.85583 96.01367 37.73692
#
# Poissons Ratio (x) = 0.51026 0.04470
# Poissons Ratio (y) = 0.52005 0.15188
# Poissons Ratio (z) = 0.11591 0.38642
#
# Static dielectric constant tensor:
#      x y z
#    x 2.088900 0.000000 0.000000 
#    y 0.000000 2.025190 0.000000 
#    z 0.000000 0.000000 1.974470 
# 
# From -- ./inp_files/11673.got.cif
#   From: 2010.05.17/outbox.cif.g08.bks.cpg/sg43_6_cif.got.tgz:11673.got - 2010.06.03 19:21:55.
