data_PCOD9372601
_publ_section_title
;
Structure prediction by ZEFSAII (Michael W. Deem and Ramdas Pophale) SiO2 
 PCOD9372601
Probable space group: F D D 2
;
_chemical_formula_sum "Si O2"
_cell_formula_units_Z 64
_cell_length_a 11.020167
_cell_length_b 12.773388
_cell_length_c 16.728159
_cell_angle_alpha 90.000000
_cell_angle_beta 90.000000
_cell_angle_gamma 90.000000
_cell_volume 2354.737109
_symmetry_space_group_name_H-M "F D D 2"
_symmetry_group_IT_number 43
_symmetry_cell_setting 'orthorhombic'
loop_
_space_group_symop_operation_xyz
x,y,z
-x,-y,z
1/4-x,1/4+y,1/4+z
1/4+x,1/4-y,1/4+z
x,1/2+y,1/2+z
-x,1/2-y,1/2+z
1/4-x,3/4+y,3/4+z
1/4+x,3/4-y,3/4+z
1/2+x,y,1/2+z
1/2-x,-y,1/2+z
3/4-x,1/4+y,3/4+z
3/4+x,1/4-y,3/4+z
1/2+x,1/2+y,z
1/2-x,1/2-y,z
3/4-x,3/4+y,1/4+z
3/4+x,3/4-y,1/4+z
loop_
_atom_site_type_symbol
_atom_site_label
_atom_site_fract_x
_atom_site_fract_y
_atom_site_fract_z
Si Si1 0.000000 0.000000 0.168240
Si Si2 0.817615 0.862140 0.991465
Si Si3 0.833471 0.845375 0.818025
Si Si4 0.589794 0.341696 0.051651
Si Si5 0.000000 0.000000 0.422476
O O1 0.092154 0.941722 0.109201
O O2 0.926918 0.919998 0.225427
O O3 0.750000 0.750000 0.000856
O O4 0.719057 0.931253 0.038908
O O5 0.950311 0.839818 0.026296
O O6 0.841905 0.905641 0.901922
O O7 0.750000 0.750000 0.847964
O O8 0.765432 0.851317 0.730867
O O9 0.637155 0.252407 0.112298
#
# Coordination Sequence:
#
# PCOD9372601 Si02
#       5
#     8  16  16  16   8
#     4  11  28  52  78 111 160 208 262 325 396 472
#     4  11  24  42  70 106 144 188 250 318 380 454
#     4   9  23  44  67 101 143 194 247 306 385 459
#     4  11  26  48  76 112 156 204 262 322 395 467
#     4   9  24  46  74 101 150 210 250 309 394 476
#
# _framework density 27.179255999999999
#
# number of rings (size 3 to 8) (size 9 to 14) (size 15 to 20)
#    0.750    1.000    0.000    1.500    7.000    6.000 
#    4.500    0.000    0.000    0.000    0.000    0.000 
#    0.000    0.000    0.000    0.000    0.000    0.000 
#
# Total GULP energy -89098.680837 kJ/mol
# GULP energy per Si atom -5568.667552 kJ/mol
# Density = 2.711739 g / cm^3
# Si number density = 27.179256 Si / 1000 Ang^3
#
#
#
# Elastic Constant Matrix: (Units=GPa)
#
#
# Indices 1 2 3 4 5 6 
#
# 1 213.8669 22.4123 121.6107 0.0000 0.0000 0.0000
# 2 22.4123 49.0840 44.7514 0.0000 0.0000 0.0000
# 3 121.6107 44.7514 187.9444 0.0000 0.0000 0.0000
# 4 0.0000 0.0000 0.0000 21.2578 0.0000 0.0000
# 5 0.0000 0.0000 0.0000 0.0000 151.6436 0.0000
# 6 0.0000 0.0000 0.0000 0.0000 0.0000 39.4202
#
#
#
# Elastic Compliance Matrix: (Units=1/GPa)
#
#
# Indices 1 2 3 4 5 6 
#
# 1 0.007459 0.001270 -0.005129 0.000000 0.000000 0.000000
# 2 0.001270 0.026239 -0.007070 0.000000 0.000000 0.000000
# 3 -0.005129 -0.007070 0.010323 0.000000 0.000000 0.000000
# 4 0.000000 0.000000 0.000000 0.047042 0.000000 0.000000
# 5 0.000000 0.000000 0.000000 0.000000 0.006594 0.000000
# 6 0.000000 0.000000 0.000000 0.000000 0.000000 0.025368
#
#
# Mechanical properties :
#
#
# Convention : Reuss Voigt Hill
#
# Bulk Modulus (GPa) = 45.11796 92.04933 68.58365
# Shear Modulus (GPa) = 32.83657 59.93905 46.38781
#
# Velocity S-wave (km/s) = 3.47961 4.70118 4.13575
# Velocity P-wave (km/s) = 5.72536 7.96299 6.93502
#
# Compressibility (1/GPa) = 0.02216412
#
# Stress axis : x y z
#
# Youngs Moduli (GPa) = 134.06334 38.11144 96.87273
#
# Poissons Ratio (x) = -0.04841 0.49686
# Poissons Ratio (y) = -0.17030 0.68486
# Poissons Ratio (z) = 0.68761 0.26944
#
# Static dielectric constant tensor:
#      x y z
#    x 1.857970 0.000000 0.000000 
#    y 0.000000 2.307130 0.000000 
#    z 0.000000 0.000000 2.097860 
# 
# From -- ./inp_files/9419.got.cif
#   From: 2010.05.17/outbox.cif.g08.bks.cpg/sg43_5_cif.got.tgz:9419.got - 2010.06.03 19:21:55.
