data_PCOD9372749
_publ_section_title
;
Structure prediction by ZEFSAII (Michael W. Deem and Ramdas Pophale) SiO2 
 PCOD9372749
Probable space group: F D D 2
;
_chemical_formula_sum "Si O2"
_cell_formula_units_Z 88
_cell_length_a 19.465796
_cell_length_b 22.691691
_cell_length_c 7.938356
_cell_angle_alpha 90.000000
_cell_angle_beta 90.000000
_cell_angle_gamma 90.000000
_cell_volume 3506.465739
_symmetry_space_group_name_H-M "F D D 2"
_symmetry_group_IT_number 43
_symmetry_cell_setting 'orthorhombic'
loop_
_space_group_symop_operation_xyz
x,y,z
-x,-y,z
1/4-x,1/4+y,1/4+z
1/4+x,1/4-y,1/4+z
x,1/2+y,1/2+z
-x,1/2-y,1/2+z
1/4-x,3/4+y,3/4+z
1/4+x,3/4-y,3/4+z
1/2+x,y,1/2+z
1/2-x,-y,1/2+z
3/4-x,1/4+y,3/4+z
3/4+x,1/4-y,3/4+z
1/2+x,1/2+y,z
1/2-x,1/2-y,z
3/4-x,3/4+y,1/4+z
3/4+x,3/4-y,1/4+z
loop_
_atom_site_type_symbol
_atom_site_label
_atom_site_fract_x
_atom_site_fract_y
_atom_site_fract_z
Si Si1 0.097333 0.282589 0.853770
Si Si2 0.682546 0.674165 0.899743
Si Si3 0.437117 0.871557 0.973425
Si Si4 0.887563 0.918806 0.110903
Si Si5 0.274856 0.490854 0.276208
Si Si6 0.500000 0.500000 0.941498
O O1 0.135778 0.343873 0.848141
O O2 0.039832 0.283861 0.710161
O O3 0.152411 0.232317 0.811649
O O4 0.054884 0.257241 0.009225
O O5 0.624272 0.630199 0.968432
O O6 0.719043 0.700209 0.067772
O O7 0.737814 0.643099 0.780847
O O8 0.435399 0.802231 0.999817
O O9 0.416605 0.891410 0.785228
O O10 0.940268 0.968879 0.049174
O O11 0.811611 0.944873 0.151896
#
# Coordination Sequence:
#
# PCOD9372749 Si02
#       6
#    16  16  16  16  16   8
#     4  11  27  46  72 108 145 196 245 305 379 452
#     4  12  27  49  74 110 150 201 248 315 386 456
#     4  11  26  48  77 106 153 198 246 318 383 457
#     4  11  29  47  76 112 150 200 256 314 382 461
#     4  11  27  46  73 106 147 190 251 303 374 455
#     4  12  28  48  76 108 154 192 260 318 378 470
#
# _framework density 25.096495000000001
#
# number of rings (size 3 to 8) (size 9 to 14) (size 15 to 20)
#    0.000    0.727    1.818    2.182   20.364    1.455 
#    0.000    0.000    0.000    0.000    0.000    0.000 
#    0.000    0.000    0.000    0.000    0.000    0.000 
#
# Total GULP energy -123312.909334 kJ/mol
# GULP energy per Si atom -5605.132242 kJ/mol
# Density = 2.503937 g / cm^3
# Si number density = 25.096495 Si / 1000 Ang^3
#
#
#
# Elastic Constant Matrix: (Units=GPa)
#
#
# Indices 1 2 3 4 5 6 
#
# 1 90.6610 16.6078 21.2141 -0.0004 0.0003 0.0002
# 2 16.6078 108.1923 2.1191 -0.0006 0.0005 0.0004
# 3 21.2141 2.1191 87.2929 -0.0013 0.0005 0.0007
# 4 -0.0004 -0.0006 -0.0013 32.4849 0.0005 0.0005
# 5 0.0003 0.0005 0.0005 0.0005 46.5803 -0.0002
# 6 0.0002 0.0004 0.0007 0.0005 -0.0002 61.1099
#
#
#
# Elastic Compliance Matrix: (Units=1/GPa)
#
#
# Indices 1 2 3 4 5 6 
#
# 1 0.012032 -0.001791 -0.002881 0.000000 0.000000 0.000000
# 2 -0.001791 0.009514 0.000204 0.000000 0.000000 0.000000
# 3 -0.002881 0.000204 0.012151 0.000000 0.000000 0.000000
# 4 0.000000 0.000000 0.000000 0.030784 0.000000 0.000000
# 5 0.000000 0.000000 0.000000 0.000000 0.021468 0.000000
# 6 0.000000 0.000000 0.000000 0.000000 0.000000 0.016364
#
#
# Mechanical properties :
#
#
# Convention : Reuss Voigt Hill
#
# Bulk Modulus (GPa) = 40.38338 40.66978 40.52658
# Shear Modulus (GPa) = 41.84082 44.44870 43.14476
#
# Velocity S-wave (km/s) = 4.08756 4.21302 4.15077
# Velocity P-wave (km/s) = 6.19707 6.31717 6.25741
#
# Compressibility (1/GPa) = 0.02476266
#
# Stress axis : x y z
#
# Youngs Moduli (GPa) = 83.11067 105.11204 82.29924
#
# Poissons Ratio (x) = 0.18821 0.23707
# Poissons Ratio (y) = 0.14881 -0.01680
# Poissons Ratio (z) = 0.23941 -0.02146
#
# Static dielectric constant tensor:
#      x y z
#    x 2.035720 0.000000 0.000000 
#    y 0.000000 1.929400 0.000000 
#    z 0.000000 0.000000 2.041890 
# 
# From -- ./inp_files/3202.got.cif
#   From: 2010.05.17/outbox.cif.g08.bks.cpg/sg43_2_cif.got.tgz:3202.got - 2010.06.03 19:21:55.
