data_PCOD9372396
_publ_section_title
;
Structure prediction by ZEFSAII (Michael W. Deem and Ramdas Pophale) SiO2 
 PCOD9372396
Probable space group: F D D 2
;
_chemical_formula_sum "Si O2"
_cell_formula_units_Z 120
_cell_length_a 11.639907
_cell_length_b 23.283643
_cell_length_c 20.244029
_cell_angle_alpha 90.000000
_cell_angle_beta 90.000000
_cell_angle_gamma 90.000000
_cell_volume 5486.525386
_symmetry_space_group_name_H-M "F D D 2"
_symmetry_group_IT_number 43
_symmetry_cell_setting 'orthorhombic'
loop_
_space_group_symop_operation_xyz
x,y,z
-x,-y,z
1/4-x,1/4+y,1/4+z
1/4+x,1/4-y,1/4+z
x,1/2+y,1/2+z
-x,1/2-y,1/2+z
1/4-x,3/4+y,3/4+z
1/4+x,3/4-y,3/4+z
1/2+x,y,1/2+z
1/2-x,-y,1/2+z
3/4-x,1/4+y,3/4+z
3/4+x,1/4-y,3/4+z
1/2+x,1/2+y,z
1/2-x,1/2-y,z
3/4-x,3/4+y,1/4+z
3/4+x,3/4-y,1/4+z
loop_
_atom_site_type_symbol
_atom_site_label
_atom_site_fract_x
_atom_site_fract_y
_atom_site_fract_z
Si Si1 0.434812 0.103836 0.255420
Si Si2 0.906667 0.282413 0.389830
Si Si3 0.997584 0.285590 0.569561
Si Si4 0.860536 0.906811 0.450939
Si Si5 0.000000 0.000000 0.528009
Si Si6 0.405903 0.456048 0.083986
Si Si7 0.688031 0.570634 0.736442
Si Si8 0.046954 0.064514 0.230172
O O1 0.381074 0.084864 0.185906
O O2 0.381037 0.059052 0.308690
O O3 0.572290 0.103724 0.256683
O O4 0.258681 0.967979 0.297246
O O5 0.828200 0.286580 0.326510
O O6 0.888285 0.226485 0.435161
O O7 0.036429 0.273557 0.365458
O O8 0.052906 0.312274 0.636291
O O9 0.078349 0.313466 0.512341
O O10 0.868941 0.413241 0.527702
O O11 0.918340 0.960231 0.486345
O O12 0.771472 0.872077 0.498324
O O13 0.965688 0.859534 0.449644
O O14 0.500000 0.500000 0.058856
O O15 0.462210 0.430003 0.150681
O O16 0.000000 0.000000 0.246178
#
# Coordination Sequence:
#
# PCOD9372396 Si02
#       8
#    16  16  16  16   8  16  16  16
#     4  11  22  41  73 106 142 194 248 301 380 467
#     4  11  22  46  70  93 145 198 244 292 382 461
#     4  11  23  41  73 103 143 192 253 305 382 460
#     4  12  27  43  70 111 149 189 256 328 375 462
#     4  12  28  46  66 106 148 194 250 310 380 458
#     4  11  22  40  70 110 140 181 247 302 370 450
#     4  11  22  46  73 103 147 206 244 316 384 468
#     4  11  21  42  70 101 140 195 238 303 383 450
#
# _framework density 21.871765
#
# number of rings (size 3 to 8) (size 9 to 14) (size 15 to 20)
#    0.000    0.800    6.667    2.800    2.800    0.000 
#    0.000    1.333    0.000    3.200    0.000    0.000 
#    0.000    0.000    0.000    0.000    0.000    0.000 
#
# Total GULP energy -167120.114902 kJ/mol
# GULP energy per Si atom -5570.670497 kJ/mol
# Density = 2.182198 g / cm^3
# Si number density = 21.871765 Si / 1000 Ang^3
#
#
#
# Elastic Constant Matrix: (Units=GPa)
#
#
# Indices 1 2 3 4 5 6 
#
# 1 112.2315 34.9116 24.3755 0.0000 0.0000 0.0000
# 2 34.9116 90.5261 46.3480 0.0000 0.0000 0.0000
# 3 24.3755 46.3480 64.2516 0.0000 0.0000 0.0000
# 4 0.0000 0.0000 0.0000 12.2140 0.0000 0.0000
# 5 0.0000 0.0000 0.0000 0.0000 65.3205 0.0000
# 6 0.0000 0.0000 0.0000 0.0000 0.0000 63.1298
#
#
#
# Elastic Compliance Matrix: (Units=1/GPa)
#
#
# Indices 1 2 3 4 5 6 
#
# 1 0.010233 -0.003106 -0.001642 0.000000 0.000000 0.000000
# 2 -0.003106 0.018458 -0.012136 0.000000 0.000000 0.000000
# 3 -0.001642 -0.012136 0.024941 0.000000 0.000000 0.000000
# 4 0.000000 0.000000 0.000000 0.081873 0.000000 0.000000
# 5 0.000000 0.000000 0.000000 0.000000 0.015309 0.000000
# 6 0.000000 0.000000 0.000000 0.000000 0.000000 0.015840
#
#
# Mechanical properties :
#
#
# Convention : Reuss Voigt Hill
#
# Bulk Modulus (GPa) = 50.34183 53.14218 51.74201
# Shear Modulus (GPa) = 24.14944 38.89112 31.52028
#
# Velocity S-wave (km/s) = 3.32646 4.22138 3.80035
# Velocity P-wave (km/s) = 6.14984 6.93613 6.55479
#
# Compressibility (1/GPa) = 0.01986420
#
# Stress axis : x y z
#
# Youngs Moduli (GPa) = 97.72471 54.17714 40.09412
#
# Poissons Ratio (x) = 0.16826 0.06582
# Poissons Ratio (y) = 0.30351 0.48660
# Poissons Ratio (z) = 0.16044 0.65752
#
# Static dielectric constant tensor:
#      x y z
#    x 1.505390 0.000000 0.000000 
#    y 0.000000 1.896120 0.000000 
#    z 0.000000 0.000000 1.814410 
# 
# From -- ./inp_files/17355.got.cif
#   From: 2010.05.17/outbox.cif.g08.bks.cpg/sg43_9_cif.got.tgz:17355.got - 2010.06.03 19:21:55.
