data_PCOD9372875
_publ_section_title
;
Structure prediction by ZEFSAII (Michael W. Deem and Ramdas Pophale) SiO2 
 PCOD9372875
Probable space group: F D D 2
;
_chemical_formula_sum "Si O2"
_cell_formula_units_Z 72
_cell_length_a 15.651197
_cell_length_b 21.959816
_cell_length_c 8.952303
_cell_angle_alpha 90.000000
_cell_angle_beta 90.000000
_cell_angle_gamma 90.000000
_cell_volume 3076.883322
_symmetry_space_group_name_H-M "F D D 2"
_symmetry_group_IT_number 43
_symmetry_cell_setting 'orthorhombic'
loop_
_space_group_symop_operation_xyz
x,y,z
-x,-y,z
1/4-x,1/4+y,1/4+z
1/4+x,1/4-y,1/4+z
x,1/2+y,1/2+z
-x,1/2-y,1/2+z
1/4-x,3/4+y,3/4+z
1/4+x,3/4-y,3/4+z
1/2+x,y,1/2+z
1/2-x,-y,1/2+z
3/4-x,1/4+y,3/4+z
3/4+x,1/4-y,3/4+z
1/2+x,1/2+y,z
1/2-x,1/2-y,z
3/4-x,3/4+y,1/4+z
3/4+x,3/4-y,1/4+z
loop_
_atom_site_type_symbol
_atom_site_label
_atom_site_fract_x
_atom_site_fract_y
_atom_site_fract_z
Si Si1 0.131109 0.172531 0.683620
Si Si2 0.517372 0.891883 0.330342
Si Si3 0.500000 0.000000 0.132131
Si Si4 0.790112 0.067386 0.826779
Si Si5 0.737439 0.939744 0.679042
O O1 0.037514 0.161454 0.754988
O O2 0.176222 0.228127 0.769063
O O3 0.198019 0.117109 0.706664
O O4 0.103911 0.180217 0.512062
O O5 0.470921 0.948460 0.249317
O O6 0.515271 0.871393 0.501872
O O7 0.614612 0.907478 0.295797
O O8 0.771957 0.002693 0.748827
O O9 0.775326 0.058541 0.001665
#
# Coordination Sequence:
#
# PCOD9372875 Si02
#       5
#    16  16   8  16  16
#     4  12  26  50  83 110 161 212 268 329 406 474
#     4  12  25  49  79 115 156 213 261 330 392 485
#     4  12  26  46  86 120 154 212 270 328 414 474
#     4  12  28  48  79 121 162 210 273 327 405 478
#     4  12  28  49  81 121 162 213 267 334 402 484
#
# _framework density 23.400302
#
# number of rings (size 3 to 8) (size 9 to 14) (size 15 to 20)
#    0.000    0.000    4.444    4.000    3.111    3.556 
#    0.000    4.444    0.000    0.000    0.000    0.000 
#    0.000    0.000    0.000    0.000    0.000    0.000 
#
# Total GULP energy -100479.489616 kJ/mol
# GULP energy per Si atom -5582.193868 kJ/mol
# Density = 2.334704 g / cm^3
# Si number density = 23.400302 Si / 1000 Ang^3
#
#
#
# Elastic Constant Matrix: (Units=GPa)
#
#
# Indices 1 2 3 4 5 6 
#
# 1 97.4359 56.6558 37.7244 0.0000 0.0000 0.0000
# 2 56.6558 104.1183 62.3184 0.0000 0.0000 0.0000
# 3 37.7244 62.3184 193.6424 0.0000 0.0000 0.0000
# 4 0.0000 0.0000 0.0000 49.2307 0.0000 0.0000
# 5 0.0000 0.0000 0.0000 0.0000 42.4530 0.0000
# 6 0.0000 0.0000 0.0000 0.0000 0.0000 42.8260
#
#
#
# Elastic Compliance Matrix: (Units=1/GPa)
#
#
# Indices 1 2 3 4 5 6 
#
# 1 0.015034 -0.007961 -0.000367 0.000000 0.000000 0.000000
# 2 -0.007961 0.016112 -0.003634 0.000000 0.000000 0.000000
# 3 -0.000367 -0.003634 0.006405 0.000000 0.000000 0.000000
# 4 0.000000 0.000000 0.000000 0.020313 0.000000 0.000000
# 5 0.000000 0.000000 0.000000 0.000000 0.023555 0.000000
# 6 0.000000 0.000000 0.000000 0.000000 0.000000 0.023350
#
#
# Mechanical properties :
#
#
# Convention : Reuss Voigt Hill
#
# Bulk Modulus (GPa) = 73.38511 78.73266 76.05888
# Shear Modulus (GPa) = 37.52719 42.80182 40.16451
#
# Velocity S-wave (km/s) = 4.00897 4.28145 4.14745
# Velocity P-wave (km/s) = 7.27035 7.62628 7.45044
#
# Compressibility (1/GPa) = 0.01362674
#
# Stress axis : x y z
#
# Youngs Moduli (GPa) = 66.51376 62.06618 156.12428
#
# Poissons Ratio (x) = 0.49414 0.05726
# Poissons Ratio (y) = 0.52955 0.56738
# Poissons Ratio (z) = 0.02440 0.22556
#
# Static dielectric constant tensor:
#      x y z
#    x 1.914640 0.000000 0.000000 
#    y 0.000000 1.960330 0.000000 
#    z 0.000000 0.000000 2.017160 
# 
# From -- ./inp_files/2663.got.cif
#   From: 2010.05.17/outbox.cif.g08.bks.cpg/sg43_2_cif.got.tgz:2663.got - 2010.06.03 19:21:55.
