data_PCOD9372771
_publ_section_title
;
Structure prediction by ZEFSAII (Michael W. Deem and Ramdas Pophale) SiO2 
 PCOD9372771
Probable space group: F D D 2
;
_chemical_formula_sum "Si O2"
_cell_formula_units_Z 80
_cell_length_a 17.410206
_cell_length_b 33.659674
_cell_length_c 5.371772
_cell_angle_alpha 90.000000
_cell_angle_beta 90.000000
_cell_angle_gamma 90.000000
_cell_volume 3147.975809
_symmetry_space_group_name_H-M "F D D 2"
_symmetry_group_IT_number 43
_symmetry_cell_setting 'orthorhombic'
loop_
_space_group_symop_operation_xyz
x,y,z
-x,-y,z
1/4-x,1/4+y,1/4+z
1/4+x,1/4-y,1/4+z
x,1/2+y,1/2+z
-x,1/2-y,1/2+z
1/4-x,3/4+y,3/4+z
1/4+x,3/4-y,3/4+z
1/2+x,y,1/2+z
1/2-x,-y,1/2+z
3/4-x,1/4+y,3/4+z
3/4+x,1/4-y,3/4+z
1/2+x,1/2+y,z
1/2-x,1/2-y,z
3/4-x,3/4+y,1/4+z
3/4+x,3/4-y,1/4+z
loop_
_atom_site_type_symbol
_atom_site_label
_atom_site_fract_x
_atom_site_fract_y
_atom_site_fract_z
Si Si1 0.137891 0.312270 0.764280
Si Si2 0.682199 0.681553 0.060797
Si Si3 0.959487 0.792596 0.271933
Si Si4 0.849866 0.347326 0.045350
Si Si5 0.409112 0.481734 0.009191
O O1 0.162427 0.434387 0.304836
O O2 0.172658 0.289271 0.524283
O O3 0.048407 0.299555 0.764392
O O4 0.136705 0.359528 0.788492
O O5 0.700811 0.653117 0.291239
O O6 0.694904 0.725263 0.184236
O O7 0.698480 0.665463 0.787345
O O8 0.171024 0.796586 0.524528
O O9 0.915549 0.814024 0.501578
O O10 0.930804 0.747055 0.266354
#
# Coordination Sequence:
#
# PCOD9372771 Si02
#       5
#    16  16  16  16  16
#     4  12  18  29  51  77  91 126 169 193 237 304
#     4   8  18  34  44  62 108 128 146 190 260 281
#     4   8  21  30  48  66 109 123 149 202 251 283
#     4   9  19  31  44  69  99 133 155 190 241 301
#     4   9  20  28  49  74  97 121 156 200 252 289
#
# _framework density 25.413157000000002
#
# number of rings (size 3 to 8) (size 9 to 14) (size 15 to 20)
#    2.400    0.000    0.000    4.800    2.800    0.000 
#    0.000    0.000    0.000    0.000    0.000   18.200 
#    0.000    0.000    0.000    0.000    0.000    0.000 
#
# Total GULP energy -111401.416715 kJ/mol
# GULP energy per Si atom -5570.070836 kJ/mol
# Density = 2.535532 g / cm^3
# Si number density = 25.413157 Si / 1000 Ang^3
#
#
#
# Elastic Constant Matrix: (Units=GPa)
#
#
# Indices 1 2 3 4 5 6 
#
# 1 58.9658 16.5335 30.1570 -0.0218 0.0198 0.0021
# 2 16.5335 161.0709 98.5563 0.0026 -0.0009 -0.0002
# 3 30.1570 98.5563 253.1136 -0.0372 0.0196 0.0060
# 4 -0.0218 0.0026 -0.0372 4.4977 -0.0022 -0.0068
# 5 0.0198 -0.0009 0.0196 -0.0022 23.3340 0.0000
# 6 0.0021 -0.0002 0.0060 -0.0068 0.0000 20.8667
#
#
#
# Elastic Compliance Matrix: (Units=1/GPa)
#
#
# Indices 1 2 3 4 5 6 
#
# 1 0.018121 -0.000708 -0.001883 0.000073 -0.000014 -0.000001
# 2 -0.000708 0.008178 -0.003100 -0.000034 0.000004 0.000001
# 3 -0.001883 -0.003100 0.005382 0.000037 -0.000003 -0.000001
# 4 0.000073 -0.000034 0.000037 0.222335 0.000021 0.000073
# 5 -0.000014 0.000004 -0.000003 0.000021 0.042856 0.000000
# 6 -0.000001 0.000001 -0.000001 0.000073 0.000000 0.047923
#
#
# Mechanical properties :
#
#
# Convention : Reuss Voigt Hill
#
# Bulk Modulus (GPa) = 49.26399 84.84932 67.05666
# Shear Modulus (GPa) = 13.77625 31.59993 22.68809
#
# Velocity S-wave (km/s) = 2.33081 3.53008 2.99117
# Velocity P-wave (km/s) = 5.16439 7.07642 6.19462
#
# Compressibility (1/GPa) = 0.02029880
#
# Stress axis : x y z
#
# Youngs Moduli (GPa) = 55.18558 122.28085 185.79579
#
# Poissons Ratio (x) = 0.08653 0.34993
# Poissons Ratio (y) = 0.03905 0.57596
# Poissons Ratio (z) = 0.10394 0.37907
#
# Static dielectric constant tensor:
#      x y z
#    x 2.387990 0.000000 0.000000 
#    y 0.000000 1.944070 0.000000 
#    z 0.000000 0.000000 2.019020 
# 
# From -- ./inp_files/958.got.cif
#   From: 2010.05.17/outbox.cif.g08.bks.cpg/sg43_1_cif.got.tgz:958.got - 2010.06.03 19:21:55.
