data_PCOD9372210
_publ_section_title
;
Structure prediction by ZEFSAII (Michael W. Deem and Ramdas Pophale) SiO2 
 PCOD9372210
Probable space group: F D D 2
;
_chemical_formula_sum "Si O2"
_cell_formula_units_Z 112
_cell_length_a 10.680835
_cell_length_b 15.158944
_cell_length_c 28.656605
_cell_angle_alpha 90.000000
_cell_angle_beta 90.000000
_cell_angle_gamma 90.000000
_cell_volume 4639.796063
_symmetry_space_group_name_H-M "F D D 2"
_symmetry_group_IT_number 43
_symmetry_cell_setting 'orthorhombic'
loop_
_space_group_symop_operation_xyz
x,y,z
-x,-y,z
1/4-x,1/4+y,1/4+z
1/4+x,1/4-y,1/4+z
x,1/2+y,1/2+z
-x,1/2-y,1/2+z
1/4-x,3/4+y,3/4+z
1/4+x,3/4-y,3/4+z
1/2+x,y,1/2+z
1/2-x,-y,1/2+z
3/4-x,1/4+y,3/4+z
3/4+x,1/4-y,3/4+z
1/2+x,1/2+y,z
1/2-x,1/2-y,z
3/4-x,3/4+y,1/4+z
3/4+x,3/4-y,1/4+z
loop_
_atom_site_type_symbol
_atom_site_label
_atom_site_fract_x
_atom_site_fract_y
_atom_site_fract_z
Si Si1 0.305289 0.898008 0.216980
Si Si2 0.778872 0.849276 0.446063
Si Si3 0.436210 0.674493 0.740433
Si Si4 0.183049 0.519772 0.395231
Si Si5 0.059382 0.220539 0.047875
Si Si6 0.178884 0.900439 0.045557
Si Si7 0.355565 0.680624 0.371616
O O1 0.172963 0.869812 0.196090
O O2 0.414182 0.828608 0.230188
O O3 0.357156 0.958463 0.174438
O O4 0.272107 0.950128 0.263922
O O5 0.750000 0.750000 0.428795
O O6 0.734973 0.852834 0.499808
O O7 0.710034 0.923814 0.416441
O O8 0.371788 0.681328 0.689575
O O9 0.402343 0.586586 0.766801
O O10 0.397266 0.754337 0.773538
O O11 0.128439 0.504614 0.344699
O O12 0.298282 0.583670 0.380716
O O13 0.940343 0.158078 0.060096
O O14 0.279257 0.918722 0.086287
O O15 0.250000 0.750000 0.354475
#
# Coordination Sequence:
#
# PCOD9372210 Si02
#       7
#    16  16  16  16  16  16  16
#     4  11  23  43  72 101 148 190 246 308 373 447
#     4  11  23  44  71 108 145 188 249 311 382 448
#     4  10  25  46  65 107 143 196 249 309 375 466
#     4  10  25  44  75 104 146 196 247 313 381 457
#     4  12  23  45  71 103 149 197 245 311 383 452
#     4  11  25  41  71 103 144 189 248 314 377 445
#     4  11  25  45  71 108 146 192 256 310 371 451
#
# _framework density 24.138991999999998
#
# number of rings (size 3 to 8) (size 9 to 14) (size 15 to 20)
#    0.000    1.143    1.429    4.286    4.000    9.143 
#    0.000    2.857    0.000    0.000    0.000    0.000 
#    0.000    0.000    0.000    0.000    0.000    0.000 
#
# Total GULP energy -156448.365017 kJ/mol
# GULP energy per Si atom -5587.441608 kJ/mol
# Density = 2.408405 g / cm^3
# Si number density = 24.138992 Si / 1000 Ang^3
#
#
#
# Elastic Constant Matrix: (Units=GPa)
#
#
# Indices 1 2 3 4 5 6 
#
# 1 74.1329 -10.8164 8.2341 0.0000 0.0000 0.0000
# 2 -10.8164 80.9480 22.1967 0.0000 0.0000 0.0000
# 3 8.2341 22.1967 176.5966 0.0000 0.0000 0.0000
# 4 0.0000 0.0000 0.0000 17.3972 0.0000 0.0000
# 5 0.0000 0.0000 0.0000 0.0000 13.3916 0.0000
# 6 0.0000 0.0000 0.0000 0.0000 0.0000 2.0376
#
#
#
# Elastic Compliance Matrix: (Units=1/GPa)
#
#
# Indices 1 2 3 4 5 6 
#
# 1 0.013898 0.002107 -0.000913 0.000000 0.000000 0.000000
# 2 0.002107 0.013114 -0.001747 0.000000 0.000000 0.000000
# 3 -0.000913 -0.001747 0.005925 0.000000 0.000000 0.000000
# 4 0.000000 0.000000 0.000000 0.057481 0.000000 0.000000
# 5 0.000000 0.000000 0.000000 0.000000 0.074674 0.000000
# 6 0.000000 0.000000 0.000000 0.000000 0.000000 0.490784
#
#
# Mechanical properties :
#
#
# Convention : Reuss Voigt Hill
#
# Bulk Modulus (GPa) = 31.41406 41.21181 36.31293
# Shear Modulus (GPa) = 7.48962 27.36946 17.42954
#
# Velocity S-wave (km/s) = 1.76336 3.37089 2.69001
# Velocity P-wave (km/s) = 4.14584 5.67982 4.97234
#
# Compressibility (1/GPa) = 0.03183288
#
# Stress axis : x y z
#
# Youngs Moduli (GPa) = 71.95189 76.25352 168.78424
#
# Poissons Ratio (x) = -0.16070 0.15409
# Poissons Ratio (y) = -0.15163 0.29480
# Poissons Ratio (z) = 0.06569 0.13318
#
# Static dielectric constant tensor:
#      x y z
#    x 2.016800 0.000000 0.000000 
#    y 0.000000 1.912550 0.000000 
#    z 0.000000 0.000000 1.903970 
# 
# From -- ./inp_files/28605.got.cif
#   From: 2010.05.17/outbox.cif.g08.bks.cpg/sg43_15_cif.got.tgz:28605.got - 2010.06.03 19:21:55.
