data_PCOD9372908
_publ_section_title
;
Structure prediction by ZEFSAII (Michael W. Deem and Ramdas Pophale) SiO2 
 PCOD9372908
Probable space group: F D D 2
;
_chemical_formula_sum "Si O2"
_cell_formula_units_Z 64
_cell_length_a 12.035417
_cell_length_b 16.282968
_cell_length_c 12.627521
_cell_angle_alpha 90.000000
_cell_angle_beta 90.000000
_cell_angle_gamma 90.000000
_cell_volume 2474.644458
_symmetry_space_group_name_H-M "F D D 2"
_symmetry_group_IT_number 43
_symmetry_cell_setting 'orthorhombic'
loop_
_space_group_symop_operation_xyz
x,y,z
-x,-y,z
1/4-x,1/4+y,1/4+z
1/4+x,1/4-y,1/4+z
x,1/2+y,1/2+z
-x,1/2-y,1/2+z
1/4-x,3/4+y,3/4+z
1/4+x,3/4-y,3/4+z
1/2+x,y,1/2+z
1/2-x,-y,1/2+z
3/4-x,1/4+y,3/4+z
3/4+x,1/4-y,3/4+z
1/2+x,1/2+y,z
1/2-x,1/2-y,z
3/4-x,3/4+y,1/4+z
3/4+x,3/4-y,1/4+z
loop_
_atom_site_type_symbol
_atom_site_label
_atom_site_fract_x
_atom_site_fract_y
_atom_site_fract_z
Si Si1 0.540777 0.387251 0.286120
Si Si2 0.822875 0.830202 0.990522
Si Si3 0.042813 0.413465 0.558081
Si Si4 0.134793 0.952864 0.508015
O O1 0.409299 0.373174 0.270999
O O2 0.574322 0.434029 0.180116
O O3 0.597605 0.298904 0.271798
O O4 0.578200 0.426410 0.397375
O O5 0.750000 0.750000 0.022623
O O6 0.753914 0.910426 0.018003
O O7 0.825160 0.828314 0.863259
O O8 0.946261 0.845267 0.037041
O O9 0.000000 0.500000 0.510897
#
# Coordination Sequence:
#
# PCOD9372908 Si02
#       4
#    16  16  16  16
#     4  12  29  49  82 118 167 212 286 348 434 510
#     4  12  27  50  81 116 167 221 281 343 434 516
#     4  12  29  50  78 120 162 217 275 356 421 514
#     4  12  27  50  78 120 159 223 273 352 427 515
#
# _framework density 25.862300999999999
#
# number of rings (size 3 to 8) (size 9 to 14) (size 15 to 20)
#    0.000    0.000    5.000    3.000    7.000    2.000 
#    0.000    0.000    0.000    0.000    0.000    0.000 
#    0.000    0.000    0.000    0.000    0.000    0.000 
#
# Total GULP energy -89595.353059 kJ/mol
# GULP energy per Si atom -5599.709566 kJ/mol
# Density = 2.580344 g / cm^3
# Si number density = 25.862301 Si / 1000 Ang^3
#
#
#
# Elastic Constant Matrix: (Units=GPa)
#
#
# Indices 1 2 3 4 5 6 
#
# 1 156.7834 20.4322 33.1258 0.0000 0.0000 0.0000
# 2 20.4322 125.6109 33.5918 0.0000 0.0000 0.0000
# 3 33.1258 33.5918 186.8807 0.0000 0.0000 0.0000
# 4 0.0000 0.0000 0.0000 26.8011 0.0000 0.0000
# 5 0.0000 0.0000 0.0000 0.0000 48.0302 0.0000
# 6 0.0000 0.0000 0.0000 0.0000 0.0000 52.1684
#
#
#
# Elastic Compliance Matrix: (Units=1/GPa)
#
#
# Indices 1 2 3 4 5 6 
#
# 1 0.006704 -0.000812 -0.001042 0.000000 0.000000 0.000000
# 2 -0.000812 0.008461 -0.001377 0.000000 0.000000 0.000000
# 3 -0.001042 -0.001377 0.005783 0.000000 0.000000 0.000000
# 4 0.000000 0.000000 0.000000 0.037312 0.000000 0.000000
# 5 0.000000 0.000000 0.000000 0.000000 0.020820 0.000000
# 6 0.000000 0.000000 0.000000 0.000000 0.000000 0.019169
#
#
# Mechanical properties :
#
#
# Convention : Reuss Voigt Hill
#
# Bulk Modulus (GPa) = 69.02999 71.50829 70.26914
# Shear Modulus (GPa) = 45.64493 50.87495 48.25994
#
# Velocity S-wave (km/s) = 4.20565 4.44006 4.32445
# Velocity P-wave (km/s) = 7.09455 7.34814 7.22246
#
# Compressibility (1/GPa) = 0.01448646
#
# Stress axis : x y z
#
# Youngs Moduli (GPa) = 149.15869 118.18381 172.91116
#
# Poissons Ratio (x) = 0.09594 0.18025
# Poissons Ratio (y) = 0.12108 0.23811
# Poissons Ratio (z) = 0.15549 0.16274
#
# Static dielectric constant tensor:
#      x y z
#    x 1.930630 0.000000 0.000000 
#    y 0.000000 2.096910 0.000000 
#    z 0.000000 0.000000 2.015600 
# 
# From -- ./inp_files/5952.got.cif
#   From: 2010.05.17/outbox.cif.g08.bks.cpg/sg43_3_cif.got.tgz:5952.got - 2010.06.03 19:21:55.
