data_PCOD9372741
_publ_section_title
;
Structure prediction by ZEFSAII (Michael W. Deem and Ramdas Pophale) SiO2 
 PCOD9372741
Probable space group: F D D 2
;
_chemical_formula_sum "Si O2"
_cell_formula_units_Z 48
_cell_length_a 26.754650
_cell_length_b 4.896424
_cell_length_c 14.583511
_cell_angle_alpha 90.000000
_cell_angle_beta 90.000000
_cell_angle_gamma 90.000000
_cell_volume 1910.470718
_symmetry_space_group_name_H-M "F D D 2"
_symmetry_group_IT_number 43
_symmetry_cell_setting 'orthorhombic'
loop_
_space_group_symop_operation_xyz
x,y,z
-x,-y,z
1/4-x,1/4+y,1/4+z
1/4+x,1/4-y,1/4+z
x,1/2+y,1/2+z
-x,1/2-y,1/2+z
1/4-x,3/4+y,3/4+z
1/4+x,3/4-y,3/4+z
1/2+x,y,1/2+z
1/2-x,-y,1/2+z
3/4-x,1/4+y,3/4+z
3/4+x,1/4-y,3/4+z
1/2+x,1/2+y,z
1/2-x,1/2-y,z
3/4-x,3/4+y,1/4+z
3/4+x,3/4-y,1/4+z
loop_
_atom_site_type_symbol
_atom_site_label
_atom_site_fract_x
_atom_site_fract_y
_atom_site_fract_z
Si Si1 0.057105 0.402822 0.896380
Si Si2 0.158102 0.050109 0.445733
Si Si3 0.048357 0.303922 0.098546
O O1 0.074316 0.276587 0.800292
O O2 0.100168 0.625496 0.924109
O O3 0.000000 0.500000 0.883311
O O4 0.056047 0.236869 0.991644
O O5 0.194468 0.272984 0.401330
O O6 0.162927 0.758305 0.397189
O O7 0.000000 0.500000 0.104076
#
# Coordination Sequence:
#
# PCOD9372741 Si02
#       3
#    16  16  16
#     4  11  26  47  76 110 148 197 246 302 373 439
#     4  12  26  47  74 107 148 193 247 305 363 438
#     4  11  26  48  74 107 146 192 247 305 367 435
#
# _framework density 25.124697000000001
#
# number of rings (size 3 to 8) (size 9 to 14) (size 15 to 20)
#    0.000    0.667    3.333    3.000    4.667    2.667 
#    0.000    5.000    0.000    0.000    0.000    0.000 
#    0.000    0.000    0.000    0.000    0.000    0.000 
#
# Total GULP energy -66993.534445 kJ/mol
# GULP energy per Si atom -5582.794537 kJ/mol
# Density = 2.506751 g / cm^3
# Si number density = 25.124697 Si / 1000 Ang^3
#
#
#
# Elastic Constant Matrix: (Units=GPa)
#
#
# Indices 1 2 3 4 5 6 
#
# 1 155.9221 -1.2782 36.7984 0.0021 -0.0067 -0.0016
# 2 -1.2782 94.9870 26.8562 0.0042 -0.0100 -0.0016
# 3 36.7984 26.8562 195.3985 0.0016 -0.0062 -0.0009
# 4 0.0021 0.0042 0.0016 -4.3120 -0.0048 -0.0007
# 5 -0.0067 -0.0100 -0.0062 -0.0048 -80.0400 0.0015
# 6 -0.0016 -0.0016 -0.0009 -0.0007 0.0015 23.7230
#
#
#
# Elastic Compliance Matrix: (Units=1/GPa)
#
#
# Indices 1 2 3 4 5 6 
#
# 1 0.006732 0.000467 -0.001332 0.000003 -0.000001 0.000000
# 2 0.000467 0.010986 -0.001598 0.000010 -0.000001 0.000001
# 3 -0.001332 -0.001598 0.005588 0.000000 0.000000 0.000000
# 4 0.000003 0.000010 0.000000 -0.231911 0.000014 -0.000006
# 5 -0.000001 -0.000001 0.000000 0.000014 -0.012494 0.000001
# 6 0.000000 0.000001 0.000000 -0.000006 0.000001 0.042153
#
#
# Mechanical properties :
#
#
# Convention : Reuss Voigt Hill
#
# Bulk Modulus (GPa) = 54.40606 63.45116 58.92861
# Shear Modulus (GPa) = -29.78074 13.46960 -8.15557
#
# Velocity S-wave (km/s) = -3.44658 2.31792 -1.80363
# Velocity P-wave (km/s) = 2.42134 5.69851 4.37812
#
# Compressibility (1/GPa) = 0.01838031
#
# Stress axis : x y z
#
# Youngs Moduli (GPa) = 148.55237 91.02637 178.94830
#
# Poissons Ratio (x) = -0.04252 0.23835
# Poissons Ratio (y) = -0.06940 0.28594
# Poissons Ratio (z) = 0.19786 0.14545
#
# Static dielectric constant tensor:
#      x y z
#    x 2.615790 0.000000 0.000000 
#    y 0.000000 1.883860 0.000000 
#    z 0.000000 0.000000 1.937260 
# 
# From -- ./inp_files/8555.got.cif
#   From: 2010.05.17/outbox.cif.g08.bks.cpg/sg43_5_cif.got.tgz:8555.got - 2010.06.03 19:21:55.
