data_PCOD9372485
_publ_section_title
;
Structure prediction by ZEFSAII (Michael W. Deem and Ramdas Pophale) SiO2 
 PCOD9372485
Probable space group: F D D 2
;
_chemical_formula_sum "Si O2"
_cell_formula_units_Z 112
_cell_length_a 27.118373
_cell_length_b 13.578344
_cell_length_c 12.182345
_cell_angle_alpha 90.000000
_cell_angle_beta 90.000000
_cell_angle_gamma 90.000000
_cell_volume 4485.814717
_symmetry_space_group_name_H-M "F D D 2"
_symmetry_group_IT_number 43
_symmetry_cell_setting 'orthorhombic'
loop_
_space_group_symop_operation_xyz
x,y,z
-x,-y,z
1/4-x,1/4+y,1/4+z
1/4+x,1/4-y,1/4+z
x,1/2+y,1/2+z
-x,1/2-y,1/2+z
1/4-x,3/4+y,3/4+z
1/4+x,3/4-y,3/4+z
1/2+x,y,1/2+z
1/2-x,-y,1/2+z
3/4-x,1/4+y,3/4+z
3/4+x,1/4-y,3/4+z
1/2+x,1/2+y,z
1/2-x,1/2-y,z
3/4-x,3/4+y,1/4+z
3/4+x,3/4-y,1/4+z
loop_
_atom_site_type_symbol
_atom_site_label
_atom_site_fract_x
_atom_site_fract_y
_atom_site_fract_z
Si Si1 0.715020 0.985140 0.389000
Si Si2 0.805735 0.292114 0.363990
Si Si3 0.120149 0.902394 0.982407
Si Si4 0.795644 0.000000 0.236132
Si Si5 0.215020 0.014860 0.583264
Si Si6 0.805735 0.207886 0.608274
Si Si7 0.370149 0.152394 0.739858
O O1 0.692346 0.089446 0.352850
O O2 0.750000 0.020498 0.486132
O O3 0.673569 0.911145 0.428794
O O4 0.756791 0.940779 0.309438
O O5 0.750000 0.250000 0.348900
O O6 0.820662 0.250000 0.486132
O O7 0.841476 0.251240 0.269816
O O8 0.125000 0.875000 0.111132
O O9 0.083259 0.822828 0.927248
O O10 0.091476 0.001240 0.952449
O O11 0.756791 0.059221 0.162827
O O12 0.833259 0.072828 0.295016
O O13 0.192346 0.910554 0.619415
O O14 0.173569 0.088855 0.543471
O O15 0.750000 0.250000 0.623364
#
# Coordination Sequence:
#
# PCOD9372485 Si02
#       7
#    16  16  16  16  16  16  16
#     4  12  24  47  76 109 155 209 262 328 396 477
#     4  11  22  45  78 109 147 202 271 330 386 478
#     4  12  27  45  74 112 159 203 256 339 417 474
#     4  12  26  48  71 110 161 204 270 322 392 500
#     4  12  24  47  76 109 155 209 262 328 396 477
#     4  11  22  45  78 109 147 202 271 330 386 478
#     4  12  27  45  74 112 159 203 256 339 417 474
#
# _framework density 24.967593999999998
#
# number of rings (size 3 to 8) (size 9 to 14) (size 15 to 20)
#    0.000    0.286    8.571    0.857    2.000    2.286 
#    0.000    0.714    0.000    0.000    0.000    0.000 
#    0.000    0.000    0.000    0.000    0.000    0.000 
#
# Total GULP energy -156401.350501 kJ/mol
# GULP energy per Si atom -5585.762518 kJ/mol
# Density = 2.491077 g / cm^3
# Si number density = 24.967594 Si / 1000 Ang^3
#
#
#
# Elastic Constant Matrix: (Units=GPa)
#
#
# Indices 1 2 3 4 5 6 
#
# 1 195.7795 60.6624 64.6825 0.0000 0.0000 0.0000
# 2 60.6624 75.5778 29.7503 0.0000 0.0000 0.0000
# 3 64.6825 29.7503 89.4013 0.0000 0.0000 0.0000
# 4 0.0000 0.0000 0.0000 35.2533 0.0000 0.0000
# 5 0.0000 0.0000 0.0000 0.0000 35.9933 0.0000
# 6 0.0000 0.0000 0.0000 0.0000 0.0000 29.1391
#
#
#
# Elastic Compliance Matrix: (Units=1/GPa)
#
#
# Indices 1 2 3 4 5 6 
#
# 1 0.007958 -0.004742 -0.004180 0.000000 0.000000 0.000000
# 2 -0.004742 0.018052 -0.002576 0.000000 0.000000 0.000000
# 3 -0.004180 -0.002576 0.015067 0.000000 0.000000 0.000000
# 4 0.000000 0.000000 0.000000 0.028366 0.000000 0.000000
# 5 0.000000 0.000000 0.000000 0.000000 0.027783 0.000000
# 6 0.000000 0.000000 0.000000 0.000000 0.000000 0.034318
#
#
# Mechanical properties :
#
#
# Convention : Reuss Voigt Hill
#
# Bulk Modulus (GPa) = 55.30761 74.54987 64.92874
# Shear Modulus (GPa) = 31.13970 33.78803 32.46387
#
# Velocity S-wave (km/s) = 3.53541 3.68268 3.60980
# Velocity P-wave (km/s) = 6.23421 6.92866 6.59059
#
# Compressibility (1/GPa) = 0.01808069
#
# Stress axis : x y z
#
# Youngs Moduli (GPa) = 125.65882 55.39610 66.37129
#
# Poissons Ratio (x) = 0.26270 0.27741
# Poissons Ratio (y) = 0.59591 0.17098
# Poissons Ratio (z) = 0.52521 0.14271
#
# Static dielectric constant tensor:
#      x y z
#    x 1.933560 0.000000 0.000000 
#    y 0.000000 2.062440 0.000000 
#    z 0.000000 0.000000 2.195300 
# 
# From -- ./inp_files/11254.got.cif
#   From: 2010.05.17/outbox.cif.g08.bks.cpg/sg43_6_cif.got.tgz:11254.got - 2010.06.03 19:21:55.
