data_PCOD9372504
_publ_section_title
;
Structure prediction by ZEFSAII (Michael W. Deem and Ramdas Pophale) SiO2 
 PCOD9372504
Probable space group: F D D 2
;
_chemical_formula_sum "Si O2"
_cell_formula_units_Z 72
_cell_length_a 9.707329
_cell_length_b 10.913034
_cell_length_c 35.794696
_cell_angle_alpha 90.000000
_cell_angle_beta 90.000000
_cell_angle_gamma 90.000000
_cell_volume 3791.961642
_symmetry_space_group_name_H-M "F D D 2"
_symmetry_group_IT_number 43
_symmetry_cell_setting 'orthorhombic'
loop_
_space_group_symop_operation_xyz
x,y,z
-x,-y,z
1/4-x,1/4+y,1/4+z
1/4+x,1/4-y,1/4+z
x,1/2+y,1/2+z
-x,1/2-y,1/2+z
1/4-x,3/4+y,3/4+z
1/4+x,3/4-y,3/4+z
1/2+x,y,1/2+z
1/2-x,-y,1/2+z
3/4-x,1/4+y,3/4+z
3/4+x,1/4-y,3/4+z
1/2+x,1/2+y,z
1/2-x,1/2-y,z
3/4-x,3/4+y,1/4+z
3/4+x,3/4-y,1/4+z
loop_
_atom_site_type_symbol
_atom_site_label
_atom_site_fract_x
_atom_site_fract_y
_atom_site_fract_z
Si Si1 0.474239 0.269934 0.450080
Si Si2 0.786094 0.044760 0.949463
Si Si3 0.628873 0.907500 0.887297
Si Si4 0.430279 0.379804 0.762282
Si Si5 0.000000 0.500000 0.072434
O O1 0.343191 0.360832 0.451297
O O2 0.419437 0.131359 0.449835
O O3 0.564752 0.301238 0.413668
O O4 0.563569 0.313233 0.485196
O O5 0.749642 0.970686 0.911793
O O6 0.773145 0.953113 0.984584
O O7 0.688115 0.853731 0.849372
O O8 0.500000 0.000000 0.881461
O O9 0.500000 0.500000 0.778749
O O10 0.366927 0.299872 0.794930
#
# Coordination Sequence:
#
# PCOD9372504 Si02
#       5
#    16  16  16  16   8
#     4   9  18  38  65  88 114 152 201 253 301 354
#     4   9  18  38  65  88 114 152 201 253 301 354
#     4   9  21  38  58  86 118 154 198 248 300 360
#     4  11  23  38  56  86 122 158 200 244 298 364
#     4  12  24  40  56  84 132 168 192 248 316 356
#
# _framework density 18.987532999999999
#
# number of rings (size 3 to 8) (size 9 to 14) (size 15 to 20)
#    0.000    2.222    2.222    1.333    6.222    4.444 
#    0.000    0.000    0.000    0.000    0.000    0.000 
#    0.000    0.000    0.000    0.000    0.000    0.000 
#
# Total GULP energy -100477.314082 kJ/mol
# GULP energy per Si atom -5582.073005 kJ/mol
# Density = 1.894432 g / cm^3
# Si number density = 18.987533 Si / 1000 Ang^3
#
#
#
# Elastic Constant Matrix: (Units=GPa)
#
#
# Indices 1 2 3 4 5 6 
#
# 1 38.5681 31.3352 22.9367 0.0000 0.0000 0.0000
# 2 31.3352 123.9952 51.3678 0.0000 0.0000 0.0000
# 3 22.9367 51.3678 114.1229 0.0000 0.0000 0.0000
# 4 0.0000 0.0000 0.0000 26.4523 0.0000 0.0000
# 5 0.0000 0.0000 0.0000 0.0000 38.2163 0.0000
# 6 0.0000 0.0000 0.0000 0.0000 0.0000 44.8241
#
#
#
# Elastic Compliance Matrix: (Units=1/GPa)
#
#
# Indices 1 2 3 4 5 6 
#
# 1 0.033805 -0.007041 -0.003625 0.000000 0.000000 0.000000
# 2 -0.007041 0.011380 -0.003707 0.000000 0.000000 0.000000
# 3 -0.003625 -0.003707 0.011160 0.000000 0.000000 0.000000
# 4 0.000000 0.000000 0.000000 0.037804 0.000000 0.000000
# 5 0.000000 0.000000 0.000000 0.000000 0.026167 0.000000
# 6 0.000000 0.000000 0.000000 0.000000 0.000000 0.022309
#
#
# Mechanical properties :
#
#
# Convention : Reuss Voigt Hill
#
# Bulk Modulus (GPa) = 36.23457 54.21840 45.22648
# Shear Modulus (GPa) = 27.69013 33.30165 30.49589
#
# Velocity S-wave (km/s) = 3.82295 4.19247 4.01197
# Velocity P-wave (km/s) = 6.21381 7.21474 6.73290
#
# Compressibility (1/GPa) = 0.02759796
#
# Stress axis : x y z
#
# Youngs Moduli (GPa) = 29.58184 87.87363 89.60898
#
# Poissons Ratio (x) = 0.61874 0.32481
# Poissons Ratio (y) = 0.20829 0.33219
# Poissons Ratio (z) = 0.10723 0.32576
#
# Static dielectric constant tensor:
#      x y z
#    x 1.692540 0.000000 0.000000 
#    y 0.000000 1.689480 0.000000 
#    z 0.000000 0.000000 1.599850 
# 
# From -- ./inp_files/24864.got.cif
#   From: 2010.05.17/outbox.cif.g08.bks.cpg/sg43_13_cif.got.tgz:24864.got - 2010.06.03 19:21:55.
