data_PCOD9372113
_publ_section_title
;
Structure prediction by ZEFSAII (Michael W. Deem and Ramdas Pophale) SiO2 
 PCOD9372113
Probable space group: F D D 2
;
_chemical_formula_sum "Si O2"
_cell_formula_units_Z 72
_cell_length_a 23.956844
_cell_length_b 19.497875
_cell_length_c 5.768576
_cell_angle_alpha 90.000000
_cell_angle_beta 90.000000
_cell_angle_gamma 90.000000
_cell_volume 2694.545401
_symmetry_space_group_name_H-M "F D D 2"
_symmetry_group_IT_number 43
_symmetry_cell_setting 'orthorhombic'
loop_
_space_group_symop_operation_xyz
x,y,z
-x,-y,z
1/4-x,1/4+y,1/4+z
1/4+x,1/4-y,1/4+z
x,1/2+y,1/2+z
-x,1/2-y,1/2+z
1/4-x,3/4+y,3/4+z
1/4+x,3/4-y,3/4+z
1/2+x,y,1/2+z
1/2-x,-y,1/2+z
3/4-x,1/4+y,3/4+z
3/4+x,1/4-y,3/4+z
1/2+x,1/2+y,z
1/2-x,1/2-y,z
3/4-x,3/4+y,1/4+z
3/4+x,3/4-y,1/4+z
loop_
_atom_site_type_symbol
_atom_site_label
_atom_site_fract_x
_atom_site_fract_y
_atom_site_fract_z
Si Si1 0.000000 0.500000 0.481540
Si Si2 0.826153 0.390945 0.382881
Si Si3 0.782173 0.151410 0.109769
Si Si4 0.531701 0.248304 0.901897
Si Si5 0.854351 0.749263 0.889393
O O1 0.996522 0.430132 0.630006
O O2 0.942914 0.499504 0.338241
O O3 0.768123 0.358219 0.294885
O O4 0.818664 0.433514 0.618534
O O5 0.869637 0.328726 0.366765
O O6 0.846214 0.450040 0.210885
O O7 0.823216 0.212647 0.178375
O O8 0.809778 0.076330 0.112312
O O9 0.493846 0.251805 0.662447
#
# Coordination Sequence:
#
# PCOD9372113 Si02
#       5
#     8  16  16  16  16
#     4  12  22  46  76  98 154 198 244 316 396 438
#     4  11  25  48  70 111 142 198 256 310 379 471
#     4  11  24  48  73 106 149 202 242 327 377 458
#     4  10  24  45  76 108 154 194 251 314 381 445
#     4  12  26  46  75 103 150 192 256 310 391 448
#
# _framework density 26.720647
#
# number of rings (size 3 to 8) (size 9 to 14) (size 15 to 20)
#    0.000    0.889    4.444    1.333    6.222    5.333 
#    8.000    0.000    0.000    0.000    0.000    0.000 
#    0.000    0.000    0.000    0.000    0.000    0.000 
#
# Total GULP energy -100664.825301 kJ/mol
# GULP energy per Si atom -5592.490295 kJ/mol
# Density = 2.665983 g / cm^3
# Si number density = 26.720647 Si / 1000 Ang^3
#
#
#
# Elastic Constant Matrix: (Units=GPa)
#
#
# Indices 1 2 3 4 5 6 
#
# 1 57.3118 21.1444 37.1373 0.0025 0.0006 0.0010
# 2 21.1444 223.8511 37.2178 -0.0118 0.0039 -0.0011
# 3 37.1373 37.2178 112.2088 -0.0347 0.0072 -0.0045
# 4 0.0025 -0.0118 -0.0347 41.3492 0.0059 -0.0032
# 5 0.0006 0.0039 0.0072 0.0059 49.6096 0.0013
# 6 0.0010 -0.0011 -0.0045 -0.0032 0.0013 10.7469
#
#
#
# Elastic Compliance Matrix: (Units=1/GPa)
#
#
# Indices 1 2 3 4 5 6 
#
# 1 0.022395 -0.000935 -0.007102 -0.000008 0.000001 -0.000005
# 2 -0.000935 0.004767 -0.001272 0.000000 0.000000 0.000000
# 3 -0.007102 -0.001272 0.011684 0.000010 -0.000002 0.000005
# 4 -0.000008 0.000000 0.000010 0.024184 -0.000003 0.000007
# 5 0.000001 0.000000 -0.000002 -0.000003 0.020157 -0.000002
# 6 -0.000005 0.000000 0.000005 0.000007 -0.000002 0.093051
#
#
# Mechanical properties :
#
#
# Convention : Reuss Voigt Hill
#
# Bulk Modulus (GPa) = 49.43243 64.93005 57.18124
# Shear Modulus (GPa) = 24.80171 40.19927 32.50049
#
# Velocity S-wave (km/s) = 3.04992 3.88290 3.49134
# Velocity P-wave (km/s) = 5.56260 6.66745 6.13993
#
# Compressibility (1/GPa) = 0.02022963
#
# Stress axis : x y z
#
# Youngs Moduli (GPa) = 44.65228 209.77609 85.58460
#
# Poissons Ratio (x) = 0.19606 0.60783
# Poissons Ratio (y) = 0.04173 0.10885
# Poissons Ratio (z) = 0.31712 0.26680
#
# Static dielectric constant tensor:
#      x y z
#    x 2.208200 0.000000 0.000000 
#    y 0.000000 2.141230 0.000000 
#    z 0.000000 0.000000 2.124420 
# 
# From -- ./inp_files/705.got.cif
#   From: 2010.05.17/outbox.cif.g08.bks.cpg/sg43_1_cif.got.tgz:705.got - 2010.06.03 19:21:55.
