data_PCOD9372774
_publ_section_title
;
Structure prediction by ZEFSAII (Michael W. Deem and Ramdas Pophale) SiO2 
 PCOD9372774
Probable space group: F D D 2
;
_chemical_formula_sum "Si O2"
_cell_formula_units_Z 112
_cell_length_a 22.589833
_cell_length_b 13.083318
_cell_length_c 16.553201
_cell_angle_alpha 90.000000
_cell_angle_beta 90.000000
_cell_angle_gamma 90.000000
_cell_volume 4892.298038
_symmetry_space_group_name_H-M "F D D 2"
_symmetry_group_IT_number 43
_symmetry_cell_setting 'orthorhombic'
loop_
_space_group_symop_operation_xyz
x,y,z
-x,-y,z
1/4-x,1/4+y,1/4+z
1/4+x,1/4-y,1/4+z
x,1/2+y,1/2+z
-x,1/2-y,1/2+z
1/4-x,3/4+y,3/4+z
1/4+x,3/4-y,3/4+z
1/2+x,y,1/2+z
1/2-x,-y,1/2+z
3/4-x,1/4+y,3/4+z
3/4+x,1/4-y,3/4+z
1/2+x,1/2+y,z
1/2-x,1/2-y,z
3/4-x,3/4+y,1/4+z
3/4+x,3/4-y,1/4+z
loop_
_atom_site_type_symbol
_atom_site_label
_atom_site_fract_x
_atom_site_fract_y
_atom_site_fract_z
Si Si1 0.337477 0.635433 0.337960
Si Si2 0.500000 0.500000 0.990192
Si Si3 0.471576 0.659826 0.492839
Si Si4 0.642491 0.782779 0.339545
Si Si5 0.603344 0.150827 0.277431
Si Si6 0.267384 0.414516 0.121901
Si Si7 0.250000 0.250000 0.620071
Si Si8 0.354474 0.678167 0.027073
O O1 0.270957 0.629767 0.304053
O O2 0.370644 0.739365 0.309123
O O3 0.336958 0.614854 0.433452
O O4 0.369310 0.538949 0.297072
O O5 0.535203 0.426670 0.930813
O O6 0.548583 0.562476 0.040976
O O7 0.409040 0.677193 0.536895
O O8 0.499530 0.746028 0.435227
O O9 0.460159 0.567842 0.429075
O O10 0.574916 0.813251 0.317118
O O11 0.640170 0.659700 0.324716
O O12 0.649648 0.821633 0.430696
O O13 0.542405 0.136044 0.325321
O O14 0.289063 0.177450 0.564944
#
# Coordination Sequence:
#
# PCOD9372774 Si02
#       8
#    16   8  16  16  16  16   8  16
#     4  12  22  41  71 107 148 194 243 306 377 443
#     4  12  29  54  75 100 150 200 252 318 383 462
#     4  12  22  43  69 105 151 189 248 311 368 443
#     4  12  25  49  71 110 143 197 250 309 380 457
#     4  12  25  44  71 108 147 197 248 302 376 451
#     4  12  27  50  74 104 148 198 256 315 378 458
#     4  12  19  36  69 108 146 186 234 310 371 436
#     4  12  22  40  74 106 149 189 246 306 380 443
#
# _framework density 22.893127
#
# number of rings (size 3 to 8) (size 9 to 14) (size 15 to 20)
#    0.000    0.000    8.571    1.286    0.000    2.286 
#    7.714    0.000    0.000    0.000    0.000    0.000 
#    0.000    0.000    0.000    0.000    0.000    0.000 
#
# Total GULP energy -156305.788717 kJ/mol
# GULP energy per Si atom -5582.349597 kJ/mol
# Density = 2.284102 g / cm^3
# Si number density = 22.893127 Si / 1000 Ang^3
#
#
#
# Elastic Constant Matrix: (Units=GPa)
#
#
# Indices 1 2 3 4 5 6 
#
# 1 162.1097 -4.2521 58.6963 0.0000 0.0000 0.0000
# 2 -4.2521 37.0770 22.4454 0.0000 0.0000 0.0000
# 3 58.6963 22.4454 127.0015 0.0000 0.0000 0.0000
# 4 0.0000 0.0000 0.0000 21.5823 0.0000 0.0000
# 5 0.0000 0.0000 0.0000 0.0000 51.2999 0.0000
# 6 0.0000 0.0000 0.0000 0.0000 0.0000 27.3982
#
#
#
# Elastic Compliance Matrix: (Units=1/GPa)
#
#
# Indices 1 2 3 4 5 6 
#
# 1 0.007781 0.003437 -0.004203 0.000000 0.000000 0.000000
# 2 0.003437 0.031720 -0.007195 0.000000 0.000000 0.000000
# 3 -0.004203 -0.007195 0.011088 0.000000 0.000000 0.000000
# 4 0.000000 0.000000 0.000000 0.046334 0.000000 0.000000
# 5 0.000000 0.000000 0.000000 0.000000 0.019493 0.000000
# 6 0.000000 0.000000 0.000000 0.000000 0.000000 0.036499
#
#
# Mechanical properties :
#
#
# Convention : Reuss Voigt Hill
#
# Bulk Modulus (GPa) = 28.84557 53.32973 41.08765
# Shear Modulus (GPa) = 27.71716 36.67598 32.19657
#
# Velocity S-wave (km/s) = 3.48331 4.00691 3.75425
# Velocity P-wave (km/s) = 5.36707 6.68975 6.06458
#
# Compressibility (1/GPa) = 0.03466737
#
# Stress axis : x y z
#
# Youngs Moduli (GPa) = 128.52141 31.52539 90.18622
#
# Poissons Ratio (x) = -0.10835 0.37910
# Poissons Ratio (y) = -0.44173 0.64885
# Poissons Ratio (z) = 0.54024 0.22681
#
# Static dielectric constant tensor:
#      x y z
#    x 1.985630 0.000000 0.000000 
#    y 0.000000 1.921350 0.000000 
#    z 0.000000 0.000000 1.821290 
# 
# From -- ./inp_files/11283.got.cif
#   From: 2010.05.17/outbox.cif.g08.bks.cpg/sg43_6_cif.got.tgz:11283.got - 2010.06.03 19:21:55.
