data_PCOD9372218
_publ_section_title
;
Structure prediction by ZEFSAII (Michael W. Deem and Ramdas Pophale) SiO2 
 PCOD9372218
Probable space group: F D D 2
;
_chemical_formula_sum "Si O2"
_cell_formula_units_Z 88
_cell_length_a 10.558806
_cell_length_b 20.751115
_cell_length_c 15.345930
_cell_angle_alpha 90.000000
_cell_angle_beta 90.000000
_cell_angle_gamma 90.000000
_cell_volume 3362.400647
_symmetry_space_group_name_H-M "F D D 2"
_symmetry_group_IT_number 43
_symmetry_cell_setting 'orthorhombic'
loop_
_space_group_symop_operation_xyz
x,y,z
-x,-y,z
1/4-x,1/4+y,1/4+z
1/4+x,1/4-y,1/4+z
x,1/2+y,1/2+z
-x,1/2-y,1/2+z
1/4-x,3/4+y,3/4+z
1/4+x,3/4-y,3/4+z
1/2+x,y,1/2+z
1/2-x,-y,1/2+z
3/4-x,1/4+y,3/4+z
3/4+x,1/4-y,3/4+z
1/2+x,1/2+y,z
1/2-x,1/2-y,z
3/4-x,3/4+y,1/4+z
3/4+x,3/4-y,1/4+z
loop_
_atom_site_type_symbol
_atom_site_label
_atom_site_fract_x
_atom_site_fract_y
_atom_site_fract_z
Si Si1 0.132705 0.344424 0.317270
Si Si2 0.286367 0.654443 0.416290
Si Si3 0.497925 0.714840 0.133641
Si Si4 0.523112 0.095537 0.968466
Si Si5 0.250000 0.750000 0.707068
Si Si6 0.480355 0.761349 0.942799
O O1 0.181841 0.396194 0.384438
O O2 0.250961 0.311652 0.269216
O O3 0.053604 0.384822 0.245316
O O4 0.059676 0.286446 0.365868
O O5 0.394277 0.597885 0.413062
O O6 0.232774 0.657363 0.319396
O O7 0.371893 0.717700 0.434832
O O8 0.377956 0.707035 0.196226
O O9 0.617564 0.759791 0.157264
O O10 0.456097 0.728437 0.035334
O O11 0.579558 0.167060 0.947317
#
# Coordination Sequence:
#
# PCOD9372218 Si02
#       6
#    16  16  16  16   8  16
#     4  12  25  44  74 102 144 188 237 300 361 445
#     4  10  25  48  71 104 148 186 248 308 364 439
#     4  12  25  44  74 102 144 188 237 300 361 445
#     4  10  25  48  71 104 148 186 248 308 364 439
#     4  12  26  44  70 104 136 186 238 282 368 430
#     4  10  25  46  70 108 140 188 247 296 374 436
#
# _framework density 26.171778
#
# number of rings (size 3 to 8) (size 9 to 14) (size 15 to 20)
#    1.091    0.000    0.000    5.455   10.182    0.000 
#    0.000    6.364    0.000    0.000    0.000    0.000 
#    0.000    0.000    0.000    0.000    0.000    0.000 
#
# Total GULP energy -123059.162330 kJ/mol
# GULP energy per Si atom -5593.598288 kJ/mol
# Density = 2.611221 g / cm^3
# Si number density = 26.171778 Si / 1000 Ang^3
#
#
#
# Elastic Constant Matrix: (Units=GPa)
#
#
# Indices 1 2 3 4 5 6 
#
# 1 86.4302 -4.3305 35.4232 0.0000 0.0000 0.0000
# 2 -4.3305 80.6910 1.3167 0.0000 0.0000 0.0000
# 3 35.4232 1.3167 117.0167 0.0000 0.0000 0.0000
# 4 0.0000 0.0000 0.0000 49.1659 0.0000 0.0000
# 5 0.0000 0.0000 0.0000 0.0000 40.8246 0.0000
# 6 0.0000 0.0000 0.0000 0.0000 0.0000 47.1274
#
#
#
# Elastic Compliance Matrix: (Units=1/GPa)
#
#
# Indices 1 2 3 4 5 6 
#
# 1 0.013257 0.000777 -0.004022 0.000000 0.000000 0.000000
# 2 0.000777 0.012441 -0.000375 0.000000 0.000000 0.000000
# 3 -0.004022 -0.000375 0.009768 0.000000 0.000000 0.000000
# 4 0.000000 0.000000 0.000000 0.020339 0.000000 0.000000
# 5 0.000000 0.000000 0.000000 0.000000 0.024495 0.000000
# 6 0.000000 0.000000 0.000000 0.000000 0.000000 0.021219
#
#
# Mechanical properties :
#
#
# Convention : Reuss Voigt Hill
#
# Bulk Modulus (GPa) = 35.42898 38.77295 37.10096
# Shear Modulus (GPa) = 42.31269 44.20548 43.25909
#
# Velocity S-wave (km/s) = 4.02522 4.11427 4.06999
# Velocity P-wave (km/s) = 5.93040 6.11691 6.02438
#
# Compressibility (1/GPa) = 0.02822548
#
# Stress axis : x y z
#
# Youngs Moduli (GPa) = 75.42971 80.38075 102.37990
#
# Poissons Ratio (x) = -0.06247 0.41177
# Poissons Ratio (y) = -0.05862 0.03842
# Poissons Ratio (z) = 0.30338 0.03016
#
# Static dielectric constant tensor:
#      x y z
#    x 2.068540 0.000000 0.000000 
#    y 0.000000 2.186230 0.000000 
#    z 0.000000 0.000000 1.973010 
# 
# From -- ./inp_files/9595.got.cif
#   From: 2010.05.17/outbox.cif.g08.bks.cpg/sg43_5_cif.got.tgz:9595.got - 2010.06.03 19:21:55.
