data_PCOD9372739
_publ_section_title
;
Structure prediction by ZEFSAII (Michael W. Deem and Ramdas Pophale) SiO2 
 PCOD9372739
Probable space group: F D D 2
;
_chemical_formula_sum "Si O2"
_cell_formula_units_Z 48
_cell_length_a 28.046586
_cell_length_b 14.160395
_cell_length_c 4.973128
_cell_angle_alpha 90.000000
_cell_angle_beta 90.000000
_cell_angle_gamma 90.000000
_cell_volume 1975.081446
_symmetry_space_group_name_H-M "F D D 2"
_symmetry_group_IT_number 43
_symmetry_cell_setting 'orthorhombic'
loop_
_space_group_symop_operation_xyz
x,y,z
-x,-y,z
1/4-x,1/4+y,1/4+z
1/4+x,1/4-y,1/4+z
x,1/2+y,1/2+z
-x,1/2-y,1/2+z
1/4-x,3/4+y,3/4+z
1/4+x,3/4-y,3/4+z
1/2+x,y,1/2+z
1/2-x,-y,1/2+z
3/4-x,1/4+y,3/4+z
3/4+x,1/4-y,3/4+z
1/2+x,1/2+y,z
1/2-x,1/2-y,z
3/4-x,3/4+y,1/4+z
3/4+x,3/4-y,1/4+z
loop_
_atom_site_type_symbol
_atom_site_label
_atom_site_fract_x
_atom_site_fract_y
_atom_site_fract_z
Si Si1 0.063385 0.407728 0.105540
Si Si2 0.654963 0.956817 0.337123
Si Si3 0.798613 0.134332 0.330049
O O1 0.085745 0.313099 0.983185
O O2 0.099384 0.428207 0.354680
O O3 0.062986 0.511447 0.971399
O O4 0.007808 0.384973 0.137270
O O5 0.683192 0.940441 0.612087
O O6 0.677520 0.889992 0.111931
#
# Coordination Sequence:
#
# PCOD9372739 Si02
#       3
#    16  16  16
#     4  11  26  47  74 104 146 187 239 296 360 419
#     4  12  26  45  74 103 144 187 241 288 362 425
#     4  11  28  47  71 107 142 188 240 298 351 430
#
# _framework density 24.302797000000002
#
# number of rings (size 3 to 8) (size 9 to 14) (size 15 to 20)
#    0.000    0.667    3.333    2.000    4.667   10.667 
#    0.000    0.000    0.000    0.000    0.000    0.000 
#    0.000    0.000    0.000    0.000    0.000    0.000 
#
# Total GULP energy -66980.345030 kJ/mol
# GULP energy per Si atom -5581.695419 kJ/mol
# Density = 2.424748 g / cm^3
# Si number density = 24.302797 Si / 1000 Ang^3
#
#
#
# Elastic Constant Matrix: (Units=GPa)
#
#
# Indices 1 2 3 4 5 6 
#
# 1 190.5098 54.3570 41.2209 0.0001 0.0000 0.0000
# 2 54.3570 99.4202 -6.0348 0.0001 0.0000 0.0000
# 3 41.2209 -6.0348 79.9666 0.0005 -0.0002 -0.0002
# 4 0.0001 0.0001 0.0005 26.6752 -0.0001 -0.0001
# 5 0.0000 0.0000 -0.0002 -0.0001 0.3651 0.0001
# 6 0.0000 0.0000 -0.0002 -0.0001 0.0001 41.8008
#
#
#
# Elastic Compliance Matrix: (Units=1/GPa)
#
#
# Indices 1 2 3 4 5 6 
#
# 1 0.007359 -0.004273 -0.004116 0.000000 -0.000002 0.000000
# 2 -0.004273 0.012586 0.003153 0.000000 0.000002 0.000000
# 3 -0.004116 0.003153 0.014865 0.000000 0.000007 0.000000
# 4 0.000000 0.000000 0.000000 0.037488 0.000015 0.000000
# 5 -0.000002 0.000002 0.000007 0.000015 2.738757 -0.000008
# 6 0.000000 0.000000 0.000000 0.000000 -0.000008 0.023923
#
#
# Mechanical properties :
#
#
# Convention : Reuss Voigt Hill
#
# Bulk Modulus (GPa) = 41.09019 60.99810 51.04414
# Shear Modulus (GPa) = 1.75220 32.45846 17.10533
#
# Velocity S-wave (km/s) = 0.85003 3.65853 2.65588
# Velocity P-wave (km/s) = 4.23175 6.55745 5.51851
#
# Compressibility (1/GPa) = 0.02433671
#
# Stress axis : x y z
#
# Youngs Moduli (GPa) = 135.89046 79.45325 67.27328
#
# Poissons Ratio (x) = 0.33952 0.27688
# Poissons Ratio (y) = 0.58069 -0.21208
# Poissons Ratio (z) = 0.55930 -0.25048
#
# Static dielectric constant tensor:
#      x y z
#    x 2.055400 0.000000 0.000000 
#    y 0.000000 1.935840 0.000000 
#    z 0.000000 0.000000 1.859100 
# 
# From -- ./inp_files/1075.got.cif
#   From: 2010.05.17/outbox.cif.g08.bks.cpg/sg43_1_cif.got.tgz:1075.got - 2010.06.03 19:21:55.
