data_PCOD9372654
_publ_section_title
;
Structure prediction by ZEFSAII (Michael W. Deem and Ramdas Pophale) SiO2 
 PCOD9372654
Probable space group: F D D 2
;
_chemical_formula_sum "Si O2"
_cell_formula_units_Z 88
_cell_length_a 10.817358
_cell_length_b 26.729442
_cell_length_c 13.517097
_cell_angle_alpha 90.000000
_cell_angle_beta 90.000000
_cell_angle_gamma 90.000000
_cell_volume 3908.359694
_symmetry_space_group_name_H-M "F D D 2"
_symmetry_group_IT_number 43
_symmetry_cell_setting 'orthorhombic'
loop_
_space_group_symop_operation_xyz
x,y,z
-x,-y,z
1/4-x,1/4+y,1/4+z
1/4+x,1/4-y,1/4+z
x,1/2+y,1/2+z
-x,1/2-y,1/2+z
1/4-x,3/4+y,3/4+z
1/4+x,3/4-y,3/4+z
1/2+x,y,1/2+z
1/2-x,-y,1/2+z
3/4-x,1/4+y,3/4+z
3/4+x,1/4-y,3/4+z
1/2+x,1/2+y,z
1/2-x,1/2-y,z
3/4-x,3/4+y,1/4+z
3/4+x,3/4-y,1/4+z
loop_
_atom_site_type_symbol
_atom_site_label
_atom_site_fract_x
_atom_site_fract_y
_atom_site_fract_z
Si Si1 0.013920 0.577367 0.786850
Si Si2 0.805122 0.201005 0.241062
Si Si3 0.001116 0.940193 0.797892
Si Si4 0.000000 0.000000 0.114823
Si Si5 0.335056 0.567297 0.988267
Si Si6 0.491122 0.135863 0.107782
O O1 0.024576 0.547004 0.685945
O O2 0.871223 0.588862 0.820910
O O3 0.066234 0.544119 0.874207
O O4 0.099832 0.626547 0.780269
O O5 0.750000 0.250000 0.287364
O O6 0.721247 0.154519 0.270131
O O7 0.943444 0.190309 0.268789
O O8 0.872451 0.924682 0.853932
O O9 0.008986 0.900872 0.704956
O O10 0.000000 0.000000 0.772603
O O11 0.113354 0.932387 0.876301
O O12 0.897520 0.021117 0.042470
#
# Coordination Sequence:
#
# PCOD9372654 Si02
#       6
#    16  16  16   8  16  16
#     4  11  25  48  77 103 144 206 252 306 373 460
#     4  11  24  47  72 104 142 199 251 298 379 453
#     4  12  28  47  77 112 154 197 251 318 391 447
#     4  12  26  48  76 110 154 202 252 324 374 462
#     4  11  27  46  69 110 152 190 256 312 381 442
#     4  11  26  50  72 106 151 193 252 316 370 460
#
# _framework density 22.515837999999999
#
# number of rings (size 3 to 8) (size 9 to 14) (size 15 to 20)
#    0.000    0.727    3.636    2.727   10.182    1.455 
#    0.000    0.000    0.000    0.000    0.000    0.000 
#    0.000    0.000    0.000    0.000    0.000    0.000 
#
# Total GULP energy -122551.009337 kJ/mol
# GULP energy per Si atom -5570.500424 kJ/mol
# Density = 2.246459 g / cm^3
# Si number density = 22.515838 Si / 1000 Ang^3
#
#
#
# Elastic Constant Matrix: (Units=GPa)
#
#
# Indices 1 2 3 4 5 6 
#
# 1 60.1827 55.7285 7.9233 0.0000 0.0000 0.0000
# 2 55.7285 124.1798 26.8645 0.0000 0.0000 0.0000
# 3 7.9233 26.8645 86.8208 0.0000 0.0000 0.0000
# 4 0.0000 0.0000 0.0000 56.3020 0.0000 0.0000
# 5 0.0000 0.0000 0.0000 0.0000 12.1877 0.0000
# 6 0.0000 0.0000 0.0000 0.0000 0.0000 41.3466
#
#
#
# Elastic Compliance Matrix: (Units=1/GPa)
#
#
# Indices 1 2 3 4 5 6 
#
# 1 0.028602 -0.013152 0.001459 0.000000 0.000000 0.000000
# 2 -0.013152 0.014678 -0.003341 0.000000 0.000000 0.000000
# 3 0.001459 -0.003341 0.012419 0.000000 0.000000 0.000000
# 4 0.000000 0.000000 0.000000 0.017761 0.000000 0.000000
# 5 0.000000 0.000000 0.000000 0.000000 0.082050 0.000000
# 6 0.000000 0.000000 0.000000 0.000000 0.000000 0.024186
#
#
# Mechanical properties :
#
#
# Convention : Reuss Voigt Hill
#
# Bulk Modulus (GPa) = 39.01521 50.24623 44.63072
# Shear Modulus (GPa) = 22.90352 34.01173 28.45762
#
# Velocity S-wave (km/s) = 3.19285 3.89082 3.55898
# Velocity P-wave (km/s) = 5.56398 6.52296 6.06246
#
# Compressibility (1/GPa) = 0.02563103
#
# Stress axis : x y z
#
# Youngs Moduli (GPa) = 34.96241 68.13023 80.52343
#
# Poissons Ratio (x) = 0.89602 -0.11750
# Poissons Ratio (y) = 0.45981 0.26907
# Poissons Ratio (z) = -0.05102 0.22765
#
# Static dielectric constant tensor:
#      x y z
#    x 1.678310 0.000000 0.000000 
#    y 0.000000 1.667060 0.000000 
#    z 0.000000 0.000000 1.860540 
# 
# From -- ./inp_files/9665.got.cif
#   From: 2010.05.17/outbox.cif.g08.bks.cpg/sg43_5_cif.got.tgz:9665.got - 2010.06.03 19:21:55.
