data_PCOD9372927
_publ_section_title
;
Structure prediction by ZEFSAII (Michael W. Deem and Ramdas Pophale) SiO2 
 PCOD9372927
Probable space group: F D D 2
;
_chemical_formula_sum "Si O2"
_cell_formula_units_Z 72
_cell_length_a 7.872895
_cell_length_b 19.013915
_cell_length_c 17.655104
_cell_angle_alpha 90.000000
_cell_angle_beta 90.000000
_cell_angle_gamma 90.000000
_cell_volume 2642.872960
_symmetry_space_group_name_H-M "F D D 2"
_symmetry_group_IT_number 43
_symmetry_cell_setting 'orthorhombic'
loop_
_space_group_symop_operation_xyz
x,y,z
-x,-y,z
1/4-x,1/4+y,1/4+z
1/4+x,1/4-y,1/4+z
x,1/2+y,1/2+z
-x,1/2-y,1/2+z
1/4-x,3/4+y,3/4+z
1/4+x,3/4-y,3/4+z
1/2+x,y,1/2+z
1/2-x,-y,1/2+z
3/4-x,1/4+y,3/4+z
3/4+x,1/4-y,3/4+z
1/2+x,1/2+y,z
1/2-x,1/2-y,z
3/4-x,3/4+y,1/4+z
3/4+x,3/4-y,1/4+z
loop_
_atom_site_type_symbol
_atom_site_label
_atom_site_fract_x
_atom_site_fract_y
_atom_site_fract_z
Si Si1 0.500000 0.500000 0.669291
Si Si2 0.819850 0.343961 0.294052
Si Si3 0.207357 0.502800 0.784061
Si Si4 0.335745 0.894687 0.918711
Si Si5 0.414207 0.280879 0.301095
O O1 0.550193 0.561693 0.610287
O O2 0.339446 0.526191 0.718049
O O3 0.792919 0.426637 0.301281
O O4 0.763126 0.331267 0.207192
O O5 0.978541 0.292483 0.306002
O O6 0.227995 0.553374 0.855017
O O7 0.000000 0.500000 0.771808
O O8 0.353461 0.819306 0.878807
O O9 0.225829 0.906978 0.994394
O O10 0.250000 0.250000 0.260704
#
# Coordination Sequence:
#
# PCOD9372927 Si02
#       5
#     8  16  16  16  16
#     4  12  30  54  88 132 172 242 320 374 468 568
#     4  12  28  56  87 126 179 241 306 393 468 567
#     4  12  31  54  89 127 183 240 309 389 469 559
#     4  12  29  56  84 130 181 239 312 389 475 561
#     4  12  30  54  93 134 186 250 316 396 482 575
#
# _framework density 27.243079999999999
#
# number of rings (size 3 to 8) (size 9 to 14) (size 15 to 20)
#    0.000    0.000    2.222    4.000   10.889    7.111 
#    0.000    0.000    0.000    0.000    0.000    0.000 
#    0.000    0.000    0.000    0.000    0.000    0.000 
#
# Total GULP energy -100435.447583 kJ/mol
# GULP energy per Si atom -5579.747088 kJ/mol
# Density = 2.718107 g / cm^3
# Si number density = 27.243080 Si / 1000 Ang^3
#
#
#
# Elastic Constant Matrix: (Units=GPa)
#
#
# Indices 1 2 3 4 5 6 
#
# 1 101.5389 45.8123 37.9605 0.0000 0.0000 0.0000
# 2 45.8123 199.6929 65.6212 0.0000 0.0000 0.0000
# 3 37.9605 65.6212 191.6647 0.0000 0.0000 0.0000
# 4 0.0000 0.0000 0.0000 74.1271 0.0000 0.0000
# 5 0.0000 0.0000 0.0000 0.0000 4.9718 0.0000
# 6 0.0000 0.0000 0.0000 0.0000 0.0000 36.1404
#
#
#
# Elastic Compliance Matrix: (Units=1/GPa)
#
#
# Indices 1 2 3 4 5 6 
#
# 1 0.011371 -0.002105 -0.001531 0.000000 0.000000 0.000000
# 2 -0.002105 0.006032 -0.001648 0.000000 0.000000 0.000000
# 3 -0.001531 -0.001648 0.006085 0.000000 0.000000 0.000000
# 4 0.000000 0.000000 0.000000 0.013490 0.000000 0.000000
# 5 0.000000 0.000000 0.000000 0.000000 0.201136 0.000000
# 6 0.000000 0.000000 0.000000 0.000000 0.000000 0.027670
#
#
# Mechanical properties :
#
#
# Convention : Reuss Voigt Hill
#
# Bulk Modulus (GPa) = 77.40981 87.96493 82.68737
# Shear Modulus (GPa) = 17.81513 45.94801 31.88157
#
# Velocity S-wave (km/s) = 2.55998 4.11127 3.42462
# Velocity P-wave (km/s) = 6.10034 7.40917 6.78638
#
# Compressibility (1/GPa) = 0.01291826
#
# Stress axis : x y z
#
# Youngs Moduli (GPa) = 87.94438 165.77237 164.33685
#
# Poissons Ratio (x) = 0.34903 0.25163
# Poissons Ratio (y) = 0.18516 0.27088
# Poissons Ratio (z) = 0.13466 0.27325
#
# Static dielectric constant tensor:
#      x y z
#    x 5.856940 0.000000 0.000000 
#    y 0.000000 2.118460 0.000000 
#    z 0.000000 0.000000 2.059200 
# 
# From -- ./inp_files/16263.got.cif
#   From: 2010.05.17/outbox.cif.g08.bks.cpg/sg43_9_cif.got.tgz:16263.got - 2010.06.03 19:21:55.
