data_PCOD9372114
_publ_section_title
;
Structure prediction by ZEFSAII (Michael W. Deem and Ramdas Pophale) SiO2 
 PCOD9372114
Probable space group: F D D 2
;
_chemical_formula_sum "Si O2"
_cell_formula_units_Z 72
_cell_length_a 18.103945
_cell_length_b 7.795174
_cell_length_c 19.900250
_cell_angle_alpha 90.000000
_cell_angle_beta 90.000000
_cell_angle_gamma 90.000000
_cell_volume 2808.390968
_symmetry_space_group_name_H-M "F D D 2"
_symmetry_group_IT_number 43
_symmetry_cell_setting 'orthorhombic'
loop_
_space_group_symop_operation_xyz
x,y,z
-x,-y,z
1/4-x,1/4+y,1/4+z
1/4+x,1/4-y,1/4+z
x,1/2+y,1/2+z
-x,1/2-y,1/2+z
1/4-x,3/4+y,3/4+z
1/4+x,3/4-y,3/4+z
1/2+x,y,1/2+z
1/2-x,-y,1/2+z
3/4-x,1/4+y,3/4+z
3/4+x,1/4-y,3/4+z
1/2+x,1/2+y,z
1/2-x,1/2-y,z
3/4-x,3/4+y,1/4+z
3/4+x,3/4-y,1/4+z
loop_
_atom_site_type_symbol
_atom_site_label
_atom_site_fract_x
_atom_site_fract_y
_atom_site_fract_z
Si Si1 0.976193 0.312021 0.317900
Si Si2 0.000000 0.000000 0.408454
Si Si3 0.339863 0.131417 0.770618
Si Si4 0.596026 0.728487 0.220000
Si Si5 0.452449 0.330675 0.072648
O O1 0.009969 0.170344 0.366399
O O2 0.892051 0.251330 0.314328
O O3 0.015060 0.282209 0.246032
O O4 0.000000 0.500000 0.340243
O O5 0.070756 0.005091 0.455894
O O6 0.383148 0.959632 0.748480
O O7 0.263909 0.060525 0.802715
O O8 0.592800 0.715812 0.139806
O O9 0.652053 0.859530 0.258647
O O10 0.500000 0.500000 0.090391
#
# Coordination Sequence:
#
# PCOD9372114 Si02
#       5
#    16   8  16  16  16
#     4  12  28  51  85 122 165 228 284 350 430 526
#     4  12  28  54  80 120 172 214 280 356 436 510
#     4  11  26  50  80 119 168 227 275 359 430 518
#     4  11  23  49  83 124 166 225 287 360 429 526
#     4  10  24  45  82 125 172 226 293 358 446 524
#
# _framework density 25.637457000000001
#
# number of rings (size 3 to 8) (size 9 to 14) (size 15 to 20)
#    0.000    0.889    2.222    2.667    9.333    4.444 
#    2.000    0.000    0.000    0.000    0.000    0.000 
#    0.000    0.000    0.000    0.000    0.000    0.000 
#
# Total GULP energy -100835.523707 kJ/mol
# GULP energy per Si atom -5601.973539 kJ/mol
# Density = 2.557911 g / cm^3
# Si number density = 25.637457 Si / 1000 Ang^3
#
#
#
# Elastic Constant Matrix: (Units=GPa)
#
#
# Indices 1 2 3 4 5 6 
#
# 1 147.6508 62.7730 67.4452 0.0000 0.0000 0.0000
# 2 62.7730 225.3275 81.3878 0.0000 0.0000 0.0000
# 3 67.4452 81.3878 136.2568 0.0000 0.0000 0.0000
# 4 0.0000 0.0000 0.0000 -26.3967 0.0000 0.0000
# 5 0.0000 0.0000 0.0000 0.0000 89.7663 0.0000
# 6 0.0000 0.0000 0.0000 0.0000 0.0000 43.6074
#
#
#
# Elastic Compliance Matrix: (Units=1/GPa)
#
#
# Indices 1 2 3 4 5 6 
#
# 1 0.008976 -0.001142 -0.003761 0.000000 0.000000 0.000000
# 2 -0.001142 0.005804 -0.002902 0.000000 0.000000 0.000000
# 3 -0.003761 -0.002902 0.010934 0.000000 0.000000 0.000000
# 4 0.000000 0.000000 0.000000 -0.037883 0.000000 0.000000
# 5 0.000000 0.000000 0.000000 0.000000 0.011140 0.000000
# 6 0.000000 0.000000 0.000000 0.000000 0.000000 0.022932
#
#
# Mechanical properties :
#
#
# Convention : Reuss Voigt Hill
#
# Bulk Modulus (GPa) = 98.96090 103.60525 101.28307
# Shear Modulus (GPa) = 122.30829 41.23733 81.77281
#
# Velocity S-wave (km/s) = 6.91451 4.01494 5.65377
# Velocity P-wave (km/s) = 10.12083 7.87352 9.06707
#
# Compressibility (1/GPa) = 0.01010500
#
# Stress axis : x y z
#
# Youngs Moduli (GPa) = 111.40491 172.28821 91.45977
#
# Poissons Ratio (x) = 0.19680 0.34397
# Poissons Ratio (y) = 0.12725 0.26537
# Poissons Ratio (z) = 0.41898 0.49990
#
# Static dielectric constant tensor:
#      x y z
#    x 2.025460 0.000000 0.000000 
#    y 0.000000 2.232550 0.000000 
#    z 0.000000 0.000000 2.000490 
# 
# From -- ./inp_files/18514.got.cif
#   From: 2010.05.17/outbox.cif.g08.bks.cpg/sg43_10_cif.got.tgz:18514.got - 2010.06.03 19:21:55.
