data_PCOD9372013
_publ_section_title
;
Structure prediction by ZEFSAII (Michael W. Deem and Ramdas Pophale) SiO2 
 PCOD9372013
Probable space group: F D D 2
;
_chemical_formula_sum "Si O2"
_cell_formula_units_Z 88
_cell_length_a 33.362010
_cell_length_b 11.019291
_cell_length_c 9.576878
_cell_angle_alpha 90.000000
_cell_angle_beta 90.000000
_cell_angle_gamma 90.000000
_cell_volume 3520.706445
_symmetry_space_group_name_H-M "F D D 2"
_symmetry_group_IT_number 43
_symmetry_cell_setting 'orthorhombic'
loop_
_space_group_symop_operation_xyz
x,y,z
-x,-y,z
1/4-x,1/4+y,1/4+z
1/4+x,1/4-y,1/4+z
x,1/2+y,1/2+z
-x,1/2-y,1/2+z
1/4-x,3/4+y,3/4+z
1/4+x,3/4-y,3/4+z
1/2+x,y,1/2+z
1/2-x,-y,1/2+z
3/4-x,1/4+y,3/4+z
3/4+x,1/4-y,3/4+z
1/2+x,1/2+y,z
1/2-x,1/2-y,z
3/4-x,3/4+y,1/4+z
3/4+x,3/4-y,1/4+z
loop_
_atom_site_type_symbol
_atom_site_label
_atom_site_fract_x
_atom_site_fract_y
_atom_site_fract_z
Si Si1 0.421593 0.622629 0.806850
Si Si2 0.750000 0.750000 0.071720
Si Si3 0.417010 0.646532 0.195219
Si Si4 0.308600 0.850105 0.242289
Si Si5 0.526338 0.656836 0.564371
Si Si6 0.154385 0.365633 0.499720
O O1 0.458879 0.554840 0.879996
O O2 0.419937 0.592572 0.642167
O O3 0.380206 0.598684 0.886699
O O4 0.445279 0.732282 0.103935
O O5 0.734038 0.853323 0.967292
O O6 0.418951 0.659800 0.362191
O O7 0.425617 0.501768 0.186337
O O8 0.373177 0.669307 0.132736
O O9 0.267781 0.930175 0.253858
O O10 0.293681 0.709331 0.228517
O O11 0.571083 0.732556 0.296183
#
# Coordination Sequence:
#
# PCOD9372013 Si02
#       6
#    16   8  16  16  16  16
#     4   9  20  45  67  95 145 182 242 300 371 436
#     4   8  18  44  68  90 132 186 228 304 348 438
#     4  11  23  42  67  99 140 188 230 297 372 434
#     4   9  21  43  71  95 132 186 235 300 357 448
#     4   8  19  41  64  98 134 171 243 288 357 437
#     4  10  24  41  64 107 145 184 239 311 369 462
#
# _framework density 24.994983000000001
#
# number of rings (size 3 to 8) (size 9 to 14) (size 15 to 20)
#    0.000    3.273    0.000    0.000    5.091    4.364 
#   22.909    1.818    0.000    0.000    0.000    0.000 
#    0.000    0.000    0.000    0.000    0.000    0.000 
#
# Total GULP energy -122742.079289 kJ/mol
# GULP energy per Si atom -5579.185422 kJ/mol
# Density = 2.493809 g / cm^3
# Si number density = 24.994983 Si / 1000 Ang^3
#
#
#
# Elastic Constant Matrix: (Units=GPa)
#
#
# Indices 1 2 3 4 5 6 
#
# 1 78.0927 40.7997 45.2646 0.0000 0.0000 0.0000
# 2 40.7997 103.2984 18.7560 0.0000 0.0000 0.0000
# 3 45.2646 18.7560 139.3423 0.0000 0.0000 0.0000
# 4 0.0000 0.0000 0.0000 38.2480 0.0000 0.0000
# 5 0.0000 0.0000 0.0000 0.0000 25.5762 0.0000
# 6 0.0000 0.0000 0.0000 0.0000 0.0000 51.1303
#
#
#
# Elastic Compliance Matrix: (Units=1/GPa)
#
#
# Indices 1 2 3 4 5 6 
#
# 1 0.019442 -0.006696 -0.005414 0.000000 0.000000 0.000000
# 2 -0.006696 0.012229 0.000529 0.000000 0.000000 0.000000
# 3 -0.005414 0.000529 0.008864 0.000000 0.000000 0.000000
# 4 0.000000 0.000000 0.000000 0.026145 0.000000 0.000000
# 5 0.000000 0.000000 0.000000 0.000000 0.039099 0.000000
# 6 0.000000 0.000000 0.000000 0.000000 0.000000 0.019558
#
#
# Mechanical properties :
#
#
# Convention : Reuss Voigt Hill
#
# Bulk Modulus (GPa) = 57.56050 58.93043 58.24546
# Shear Modulus (GPa) = 32.40641 37.38509 34.89575
#
# Velocity S-wave (km/s) = 3.60462 3.87163 3.74051
# Velocity P-wave (km/s) = 6.35635 6.60410 6.48141
#
# Compressibility (1/GPa) = 0.01737303
#
# Stress axis : x y z
#
# Youngs Moduli (GPa) = 51.43556 81.77084 112.81378
#
# Poissons Ratio (x) = 0.54752 0.61080
# Poissons Ratio (y) = 0.34440 -0.05968
# Poissons Ratio (z) = 0.27849 -0.04326
#
# Static dielectric constant tensor:
#      x y z
#    x 2.062760 0.000000 0.000000 
#    y 0.000000 2.078100 0.000000 
#    z 0.000000 0.000000 2.048850 
# 
# From -- ./inp_files/4790.got.cif
#   From: 2010.05.17/outbox.cif.g08.bks.cpg/sg43_3_cif.got.tgz:4790.got - 2010.06.03 19:21:55.
