data_PCOD9372769
_publ_section_title
;
Structure prediction by ZEFSAII (Michael W. Deem and Ramdas Pophale) SiO2 
 PCOD9372769
Probable space group: F D D 2
;
_chemical_formula_sum "Si O2"
_cell_formula_units_Z 48
_cell_length_a 15.775467
_cell_length_b 13.759558
_cell_length_c 8.079989
_cell_angle_alpha 90.000000
_cell_angle_beta 90.000000
_cell_angle_gamma 90.000000
_cell_volume 1753.870314
_symmetry_space_group_name_H-M "F D D 2"
_symmetry_group_IT_number 43
_symmetry_cell_setting 'orthorhombic'
loop_
_space_group_symop_operation_xyz
x,y,z
-x,-y,z
1/4-x,1/4+y,1/4+z
1/4+x,1/4-y,1/4+z
x,1/2+y,1/2+z
-x,1/2-y,1/2+z
1/4-x,3/4+y,3/4+z
1/4+x,3/4-y,3/4+z
1/2+x,y,1/2+z
1/2-x,-y,1/2+z
3/4-x,1/4+y,3/4+z
3/4+x,1/4-y,3/4+z
1/2+x,1/2+y,z
1/2-x,1/2-y,z
3/4-x,3/4+y,1/4+z
3/4+x,3/4-y,1/4+z
loop_
_atom_site_type_symbol
_atom_site_label
_atom_site_fract_x
_atom_site_fract_y
_atom_site_fract_z
Si Si1 0.925587 0.937425 0.644920
Si Si2 0.431794 0.561949 0.985085
Si Si3 0.515328 0.718662 0.427314
O O1 0.826191 0.939210 0.607156
O O2 0.963624 0.831851 0.604829
O O3 0.919347 0.992214 0.823522
O O4 0.000000 0.000000 0.555984
O O5 0.500000 0.500000 0.089320
O O6 0.470550 0.666211 0.943560
O O7 0.341046 0.571888 0.065488
#
# Coordination Sequence:
#
# PCOD9372769 Si02
#       3
#    16  16  16
#     4  11  31  51  85 123 169 225 289 360 429 523
#     4  11  29  52  81 122 170 223 291 362 419 525
#     4  12  30  51  86 121 169 228 286 356 446 502
#
# _framework density 27.368046
#
# number of rings (size 3 to 8) (size 9 to 14) (size 15 to 20)
#    0.000    0.667    0.000    2.000   32.667    0.000 
#    0.000    0.000    0.000    0.000    0.000    0.000 
#    0.000    0.000    0.000    0.000    0.000    0.000 
#
# Total GULP energy -67096.055086 kJ/mol
# GULP energy per Si atom -5591.337924 kJ/mol
# Density = 2.730576 g / cm^3
# Si number density = 27.368046 Si / 1000 Ang^3
#
#
#
# Elastic Constant Matrix: (Units=GPa)
#
#
# Indices 1 2 3 4 5 6 
#
# 1 297.1534 69.1175 33.3261 0.0000 0.0000 0.0000
# 2 69.1175 198.4671 58.9488 0.0000 0.0000 0.0000
# 3 33.3261 58.9488 71.2298 0.0000 0.0000 0.0000
# 4 0.0000 0.0000 0.0000 23.7187 0.0000 0.0000
# 5 0.0000 0.0000 0.0000 0.0000 26.5411 0.0000
# 6 0.0000 0.0000 0.0000 0.0000 0.0000 36.8431
#
#
#
# Elastic Compliance Matrix: (Units=1/GPa)
#
#
# Indices 1 2 3 4 5 6 
#
# 1 0.003703 -0.001028 -0.000882 0.000000 0.000000 0.000000
# 2 -0.001028 0.006966 -0.005284 0.000000 0.000000 0.000000
# 3 -0.000882 -0.005284 0.018825 0.000000 0.000000 0.000000
# 4 0.000000 0.000000 0.000000 0.042161 0.000000 0.000000
# 5 0.000000 0.000000 0.000000 0.000000 0.037677 0.000000
# 6 0.000000 0.000000 0.000000 0.000000 0.000000 0.027142
#
#
# Mechanical properties :
#
#
# Convention : Reuss Voigt Hill
#
# Bulk Modulus (GPa) = 66.19796 98.84835 82.52316
# Shear Modulus (GPa) = 32.07229 44.45112 38.26170
#
# Velocity S-wave (km/s) = 3.42700 4.03451 3.74310
# Velocity P-wave (km/s) = 6.31662 7.60918 6.99283
#
# Compressibility (1/GPa) = 0.01510620
#
# Stress axis : x y z
#
# Youngs Moduli (GPa) = 270.03445 143.55402 53.12107
#
# Poissons Ratio (x) = 0.14752 0.04686
# Poissons Ratio (y) = 0.27750 0.28070
# Poissons Ratio (z) = 0.23821 0.75857
#
# Static dielectric constant tensor:
#      x y z
#    x 2.240780 0.000000 0.000000 
#    y 0.000000 2.111000 0.000000 
#    z 0.000000 0.000000 2.324470 
# 
# From -- ./inp_files/2086.got.cif
#   From: 2010.05.17/outbox.cif.g08.bks.cpg/sg43_2_cif.got.tgz:2086.got - 2010.06.03 19:21:55.
