data_PCOD9372818
_publ_section_title
;
Structure prediction by ZEFSAII (Michael W. Deem and Ramdas Pophale) SiO2 
 PCOD9372818
Probable space group: F D D 2
;
_chemical_formula_sum "Si O2"
_cell_formula_units_Z 48
_cell_length_a 12.495620
_cell_length_b 16.263499
_cell_length_c 8.969427
_cell_angle_alpha 90.000000
_cell_angle_beta 90.000000
_cell_angle_gamma 90.000000
_cell_volume 1822.789409
_symmetry_space_group_name_H-M "F D D 2"
_symmetry_group_IT_number 43
_symmetry_cell_setting 'orthorhombic'
loop_
_space_group_symop_operation_xyz
x,y,z
-x,-y,z
1/4-x,1/4+y,1/4+z
1/4+x,1/4-y,1/4+z
x,1/2+y,1/2+z
-x,1/2-y,1/2+z
1/4-x,3/4+y,3/4+z
1/4+x,3/4-y,3/4+z
1/2+x,y,1/2+z
1/2-x,-y,1/2+z
3/4-x,1/4+y,3/4+z
3/4+x,1/4-y,3/4+z
1/2+x,1/2+y,z
1/2-x,1/2-y,z
3/4-x,3/4+y,1/4+z
3/4+x,3/4-y,1/4+z
loop_
_atom_site_type_symbol
_atom_site_label
_atom_site_fract_x
_atom_site_fract_y
_atom_site_fract_z
Si Si1 0.950618 0.078430 0.828800
Si Si2 0.076626 0.571541 0.817803
Si Si3 0.849362 0.949855 0.637770
O O1 0.047841 0.096786 0.713829
O O2 0.858602 0.035068 0.728014
O O3 0.899002 0.143486 0.936591
O O4 0.000000 0.000000 0.917220
O O5 0.000000 0.500000 0.760627
O O6 0.006750 0.646199 0.887932
O O7 0.133572 0.535359 0.963048
#
# Coordination Sequence:
#
# PCOD9372818 Si02
#       3
#    16  16  16
#     4   8  22  53  76 111 172 213 271 346 417 506
#     4  12  23  48  86 119 155 226 279 345 438 489
#     4   9  24  48  73 118 171 206 279 349 412 525
#
# _framework density 26.333266999999999
#
# number of rings (size 3 to 8) (size 9 to 14) (size 15 to 20)
#    2.000    0.000    3.333    0.000    0.000    6.667 
#   12.000    0.000    0.000    0.000    0.000    0.000 
#    0.000    0.000    0.000    0.000    0.000    0.000 
#
# Total GULP energy -67068.889369 kJ/mol
# GULP energy per Si atom -5589.074114 kJ/mol
# Density = 2.627333 g / cm^3
# Si number density = 26.333267 Si / 1000 Ang^3
#
#
#
# Elastic Constant Matrix: (Units=GPa)
#
#
# Indices 1 2 3 4 5 6 
#
# 1 92.4937 47.5064 49.1406 0.0000 0.0000 0.0000
# 2 47.5064 87.2427 66.0234 0.0000 0.0000 0.0000
# 3 49.1406 66.0234 198.2822 0.0000 0.0000 0.0000
# 4 0.0000 0.0000 0.0000 38.1224 0.0000 0.0000
# 5 0.0000 0.0000 0.0000 0.0000 57.1980 0.0000
# 6 0.0000 0.0000 0.0000 0.0000 0.0000 60.8184
#
#
#
# Elastic Compliance Matrix: (Units=1/GPa)
#
#
# Indices 1 2 3 4 5 6 
#
# 1 0.015278 -0.007291 -0.001359 0.000000 0.000000 0.000000
# 2 -0.007291 0.018803 -0.004454 0.000000 0.000000 0.000000
# 3 -0.001359 -0.004454 0.006863 0.000000 0.000000 0.000000
# 4 0.000000 0.000000 0.000000 0.026231 0.000000 0.000000
# 5 0.000000 0.000000 0.000000 0.000000 0.017483 0.000000
# 6 0.000000 0.000000 0.000000 0.000000 0.000000 0.016442
#
#
# Mechanical properties :
#
#
# Convention : Reuss Voigt Hill
#
# Bulk Modulus (GPa) = 67.85742 78.15104 73.00423
# Shear Modulus (GPa) = 37.81518 45.58430 41.69974
#
# Velocity S-wave (km/s) = 3.79360 4.16511 3.98369
# Velocity P-wave (km/s) = 6.70919 7.27138 6.99593
#
# Compressibility (1/GPa) = 0.01473678
#
# Stress axis : x y z
#
# Youngs Moduli (GPa) = 65.45214 53.18182 145.70630
#
# Poissons Ratio (x) = 0.38777 0.19796
# Poissons Ratio (y) = 0.47724 0.64899
# Poissons Ratio (z) = 0.08892 0.23688
#
# Static dielectric constant tensor:
#      x y z
#    x 2.105940 0.000000 0.000000 
#    y 0.000000 2.122520 0.000000 
#    z 0.000000 0.000000 2.009860 
# 
# From -- ./inp_files/2107.got.cif
#   From: 2010.05.17/outbox.cif.g08.bks.cpg/sg43_2_cif.got.tgz:2107.got - 2010.06.03 19:21:55.
