data_PCOD9372005
_publ_section_title
;
Structure prediction by ZEFSAII (Michael W. Deem and Ramdas Pophale) SiO2 
 PCOD9372005
Probable space group: F D D 2
;
_chemical_formula_sum "Si O2"
_cell_formula_units_Z 64
_cell_length_a 25.730857
_cell_length_b 12.984237
_cell_length_c 7.549484
_cell_angle_alpha 90.000000
_cell_angle_beta 90.000000
_cell_angle_gamma 90.000000
_cell_volume 2522.248975
_symmetry_space_group_name_H-M "F D D 2"
_symmetry_group_IT_number 43
_symmetry_cell_setting 'orthorhombic'
loop_
_space_group_symop_operation_xyz
x,y,z
-x,-y,z
1/4-x,1/4+y,1/4+z
1/4+x,1/4-y,1/4+z
x,1/2+y,1/2+z
-x,1/2-y,1/2+z
1/4-x,3/4+y,3/4+z
1/4+x,3/4-y,3/4+z
1/2+x,y,1/2+z
1/2-x,-y,1/2+z
3/4-x,1/4+y,3/4+z
3/4+x,1/4-y,3/4+z
1/2+x,1/2+y,z
1/2-x,1/2-y,z
3/4-x,3/4+y,1/4+z
3/4+x,3/4-y,1/4+z
loop_
_atom_site_type_symbol
_atom_site_label
_atom_site_fract_x
_atom_site_fract_y
_atom_site_fract_z
Si Si1 0.395390 0.911243 0.979410
Si Si2 0.451952 0.702053 0.055920
Si Si3 0.940846 0.030677 0.774451
Si Si4 0.703382 0.833667 0.363021
O O1 0.333842 0.897813 0.955788
O O2 0.416683 0.919017 0.779796
O O3 0.428794 0.815802 0.052238
O O4 0.406946 0.008416 0.103624
O O5 0.512999 0.688133 0.093102
O O6 0.441822 0.640572 0.872025
O O7 0.925626 0.951065 0.932574
O O8 0.000000 0.000000 0.727066
O O9 0.750000 0.750000 0.382248
#
# Coordination Sequence:
#
# PCOD9372005 Si02
#       4
#    16  16  16  16
#     4  12  23  41  67  92 128 179 209 271 340 379
#     4  10  24  40  63  98 129 166 226 266 321 406
#     4   9  22  44  63  92 130 167 216 277 320 384
#     4   9  21  43  61  89 129 159 221 276 311 396
#
# _framework density 25.374181
#
# number of rings (size 3 to 8) (size 9 to 14) (size 15 to 20)
#    0.000    2.500    0.000    3.750    7.000    4.000 
#    0.000    2.500    0.000    0.000    0.000    0.000 
#    0.000    0.000    0.000    0.000    0.000    0.000 
#
# Total GULP energy -89483.380233 kJ/mol
# GULP energy per Si atom -5592.711265 kJ/mol
# Density = 2.531643 g / cm^3
# Si number density = 25.374181 Si / 1000 Ang^3
#
#
#
# Elastic Constant Matrix: (Units=GPa)
#
#
# Indices 1 2 3 4 5 6 
#
# 1 48.5934 -2.1044 39.4609 0.0000 0.0000 0.0000
# 2 -2.1044 67.2714 6.1478 0.0000 0.0000 0.0000
# 3 39.4609 6.1478 122.9697 0.0000 0.0000 0.0000
# 4 0.0000 0.0000 0.0000 36.6791 0.0000 0.0000
# 5 0.0000 0.0000 0.0000 0.0000 29.6194 0.0000
# 6 0.0000 0.0000 0.0000 0.0000 0.0000 32.7193
#
#
#
# Elastic Compliance Matrix: (Units=1/GPa)
#
#
# Indices 1 2 3 4 5 6 
#
# 1 0.028025 0.001706 -0.009079 0.000000 0.000000 0.000000
# 2 0.001706 0.015037 -0.001299 0.000000 0.000000 0.000000
# 3 -0.009079 -0.001299 0.011110 0.000000 0.000000 0.000000
# 4 0.000000 0.000000 0.000000 0.027263 0.000000 0.000000
# 5 0.000000 0.000000 0.000000 0.000000 0.033762 0.000000
# 6 0.000000 0.000000 0.000000 0.000000 0.000000 0.030563
#
#
# Mechanical properties :
#
#
# Convention : Reuss Voigt Hill
#
# Bulk Modulus (GPa) = 27.15200 36.20480 31.67840
# Shear Modulus (GPa) = 28.50940 32.82556 30.66748
#
# Velocity S-wave (km/s) = 3.35559 3.60065 3.48028
# Velocity P-wave (km/s) = 5.07318 5.62011 5.35363
#
# Compressibility (1/GPa) = 0.03682970
#
# Stress axis : x y z
#
# Youngs Moduli (GPa) = 35.68215 66.50137 90.00611
#
# Poissons Ratio (x) = -0.11348 0.81713
# Poissons Ratio (y) = -0.06089 0.11695
# Poissons Ratio (z) = 0.32394 0.08641
#
# Static dielectric constant tensor:
#      x y z
#    x 2.029870 0.000000 0.000000 
#    y 0.000000 2.127170 0.000000 
#    z 0.000000 0.000000 1.953600 
# 
# From -- ./inp_files/1954.got.cif
#   From: 2010.05.17/outbox.cif.g08.bks.cpg/sg43_1_cif.got.tgz:1954.got - 2010.06.03 19:21:55.
