data_PCOD9372246
_publ_section_title
;
Structure prediction by ZEFSAII (Michael W. Deem and Ramdas Pophale) SiO2 
 PCOD9372246
Probable space group: F D D 2
;
_chemical_formula_sum "Si O2"
_cell_formula_units_Z 88
_cell_length_a 15.994266
_cell_length_b 11.653425
_cell_length_c 24.527580
_cell_angle_alpha 90.000000
_cell_angle_beta 90.000000
_cell_angle_gamma 90.000000
_cell_volume 4571.646072
_symmetry_space_group_name_H-M "F D D 2"
_symmetry_group_IT_number 43
_symmetry_cell_setting 'orthorhombic'
loop_
_space_group_symop_operation_xyz
x,y,z
-x,-y,z
1/4-x,1/4+y,1/4+z
1/4+x,1/4-y,1/4+z
x,1/2+y,1/2+z
-x,1/2-y,1/2+z
1/4-x,3/4+y,3/4+z
1/4+x,3/4-y,3/4+z
1/2+x,y,1/2+z
1/2-x,-y,1/2+z
3/4-x,1/4+y,3/4+z
3/4+x,1/4-y,3/4+z
1/2+x,1/2+y,z
1/2-x,1/2-y,z
3/4-x,3/4+y,1/4+z
3/4+x,3/4-y,1/4+z
loop_
_atom_site_type_symbol
_atom_site_label
_atom_site_fract_x
_atom_site_fract_y
_atom_site_fract_z
Si Si1 0.909981 0.290305 0.304770
Si Si2 0.553372 0.881494 0.239562
Si Si3 0.239684 0.378227 0.625012
Si Si4 0.096529 0.520587 0.393804
Si Si5 0.000000 0.000000 0.482487
Si Si6 0.593421 0.548604 0.091136
O O1 0.933504 0.200766 0.351820
O O2 0.909521 0.410936 0.336704
O O3 0.827589 0.265397 0.271829
O O4 0.983250 0.292168 0.260019
O O5 0.598800 0.847617 0.184112
O O6 0.624206 0.861170 0.285945
O O7 0.500000 0.000000 0.235722
O O8 0.250000 0.250000 0.601813
O O9 0.241600 0.356560 0.690116
O O10 0.156951 0.445377 0.606441
O O11 0.141496 0.398557 0.385588
O O12 0.000000 0.500000 0.411591
O O13 0.500000 0.500000 0.087525
#
# Coordination Sequence:
#
# PCOD9372246 Si02
#       6
#    16  16  16  16   8  16
#     4  11  23  45  66  99 136 176 232 291 331 424
#     4  11  24  44  70  98 133 179 231 283 349 408
#     4   9  23  46  62  95 144 172 233 281 327 418
#     4  12  24  44  71 102 138 180 230 291 342 412
#     4  10  26  40  66 100 130 186 226 274 354 396
#     4  11  23  46  66  99 141 179 228 285 343 409
#
# _framework density 19.249084
#
# number of rings (size 3 to 8) (size 9 to 14) (size 15 to 20)
#    0.545    0.727    5.455    0.545    6.364    1.455 
#    9.818    0.000    0.000    0.000    0.000    0.000 
#    0.000    0.000    0.000    0.000    0.000    0.000 
#
# Total GULP energy -122579.079399 kJ/mol
# GULP energy per Si atom -5571.776336 kJ/mol
# Density = 1.920527 g / cm^3
# Si number density = 19.249084 Si / 1000 Ang^3
#
#
#
# Elastic Constant Matrix: (Units=GPa)
#
#
# Indices 1 2 3 4 5 6 
#
# 1 154.5932 62.8358 71.1481 0.0000 0.0000 0.0000
# 2 62.8358 133.1834 36.1414 0.0000 0.0000 0.0000
# 3 71.1481 36.1414 81.2093 0.0000 0.0000 0.0000
# 4 0.0000 0.0000 0.0000 -3.6415 0.0000 0.0000
# 5 0.0000 0.0000 0.0000 0.0000 40.3955 0.0000
# 6 0.0000 0.0000 0.0000 0.0000 0.0000 29.1826
#
#
#
# Elastic Compliance Matrix: (Units=1/GPa)
#
#
# Indices 1 2 3 4 5 6 
#
# 1 0.011910 -0.003171 -0.009024 0.000000 0.000000 0.000000
# 2 -0.003171 0.009384 -0.001398 0.000000 0.000000 0.000000
# 3 -0.009024 -0.001398 0.020842 0.000000 0.000000 0.000000
# 4 0.000000 0.000000 0.000000 -0.274609 0.000000 0.000000
# 5 0.000000 0.000000 0.000000 0.000000 0.024755 0.000000
# 6 0.000000 0.000000 0.000000 0.000000 0.000000 0.034267
#
#
# Mechanical properties :
#
#
# Convention : Reuss Voigt Hill
#
# Bulk Modulus (GPa) = 66.88644 78.80406 72.84525
# Shear Modulus (GPa) = -35.39012 26.44468 -4.47272
#
# Velocity S-wave (km/s) = -4.29247 3.71052 -1.52599
# Velocity P-wave (km/s) = 3.20254 7.70619 5.90091
#
# Compressibility (1/GPa) = 0.01495071
#
# Stress axis : x y z
#
# Youngs Moduli (GPa) = 83.96174 106.56686 47.98038
#
# Poissons Ratio (x) = 0.33787 0.43296
# Poissons Ratio (y) = 0.26620 0.06710
# Poissons Ratio (z) = 0.75764 0.14903
#
# Static dielectric constant tensor:
#      x y z
#    x 1.641350 0.000000 0.000000 
#    y 0.000000 1.722890 0.000000 
#    z 0.000000 0.000000 1.683730 
# 
# From -- ./inp_files/21666.got.cif
#   From: 2010.05.17/outbox.cif.g08.bks.cpg/sg43_11_cif.got.tgz:21666.got - 2010.06.03 19:21:55.
