data_PCOD9372030
_publ_section_title
;
Structure prediction by ZEFSAII (Michael W. Deem and Ramdas Pophale) SiO2 
 PCOD9372030
Probable space group: F D D 2
;
_chemical_formula_sum "Si O2"
_cell_formula_units_Z 112
_cell_length_a 5.491900
_cell_length_b 30.993008
_cell_length_c 29.900723
_cell_angle_alpha 90.000000
_cell_angle_beta 90.000000
_cell_angle_gamma 90.000000
_cell_volume 5089.417031
_symmetry_space_group_name_H-M "F D D 2"
_symmetry_group_IT_number 43
_symmetry_cell_setting 'orthorhombic'
loop_
_space_group_symop_operation_xyz
x,y,z
-x,-y,z
1/4-x,1/4+y,1/4+z
1/4+x,1/4-y,1/4+z
x,1/2+y,1/2+z
-x,1/2-y,1/2+z
1/4-x,3/4+y,3/4+z
1/4+x,3/4-y,3/4+z
1/2+x,y,1/2+z
1/2-x,-y,1/2+z
3/4-x,1/4+y,3/4+z
3/4+x,1/4-y,3/4+z
1/2+x,1/2+y,z
1/2-x,1/2-y,z
3/4-x,3/4+y,1/4+z
3/4+x,3/4-y,1/4+z
loop_
_atom_site_type_symbol
_atom_site_label
_atom_site_fract_x
_atom_site_fract_y
_atom_site_fract_z
Si Si1 0.439734 0.572906 0.402570
Si Si2 0.557404 0.128533 0.452666
Si Si3 0.197508 0.460681 0.469192
Si Si4 0.358985 0.201908 0.976544
Si Si5 0.749131 0.473566 0.321636
Si Si6 0.241075 0.024600 0.570093
Si Si7 0.342341 0.340215 0.393338
O O1 0.288388 0.600130 0.438524
O O2 0.614216 0.540002 0.428249
O O3 0.257220 0.555822 0.365460
O O4 0.602167 0.610238 0.381549
O O5 0.389883 0.089598 0.469678
O O6 0.644300 0.166990 0.484260
O O7 0.433903 0.154704 0.411337
O O8 0.310795 0.466113 0.518135
O O9 0.000000 0.500000 0.463268
O O10 0.250000 0.250000 0.967929
O O11 0.517572 0.183324 0.935163
O O12 0.508842 0.202777 0.022468
O O13 0.500000 0.500000 0.326116
O O14 0.000000 0.500000 0.322325
O O15 0.311748 0.064497 0.600951
O O16 0.500000 0.000000 0.570264
O O17 0.000000 0.000000 0.587758
#
# Coordination Sequence:
#
# PCOD9372030 Si02
#       7
#    16  16  16  16  16  16  16
#     4  10  25  44  68 103 145 186 245 297 369 429
#     4  10  24  42  70 105 136 201 235 301 372 428
#     4  10  25  46  72 102 146 194 244 305 371 439
#     4  10  24  45  71 102 145 186 244 296 370 433
#     4  11  28  45  71 107 139 191 241 293 364 433
#     4  11  27  45  72 110 140 191 247 298 367 435
#     4  10  24  43  72 102 143 189 238 300 364 435
#
# _framework density 22.006450000000001
#
# number of rings (size 3 to 8) (size 9 to 14) (size 15 to 20)
#    0.000    1.714    0.000    0.429   20.000    4.571 
#    0.000    0.000    0.000    0.000    0.000    0.000 
#    0.000    0.000    0.000    0.000    0.000    0.000 
#
# Total GULP energy -156021.238963 kJ/mol
# GULP energy per Si atom -5572.187106 kJ/mol
# Density = 2.195636 g / cm^3
# Si number density = 22.006450 Si / 1000 Ang^3
#
#
#
# Elastic Constant Matrix: (Units=GPa)
#
#
# Indices 1 2 3 4 5 6 
#
# 1 73.2606 32.9079 17.2670 0.0000 0.0000 0.0000
# 2 32.9079 126.2525 51.3167 0.0000 0.0000 0.0000
# 3 17.2670 51.3167 98.9247 0.0000 0.0000 0.0000
# 4 0.0000 0.0000 0.0000 9.9996 0.0000 0.0000
# 5 0.0000 0.0000 0.0000 0.0000 12.5493 0.0000
# 6 0.0000 0.0000 0.0000 0.0000 0.0000 20.6719
#
#
#
# Elastic Compliance Matrix: (Units=1/GPa)
#
#
# Indices 1 2 3 4 5 6 
#
# 1 0.015506 -0.003728 -0.000773 0.000000 0.000000 0.000000
# 2 -0.003728 0.010933 -0.005021 0.000000 0.000000 0.000000
# 3 -0.000773 -0.005021 0.012848 0.000000 0.000000 0.000000
# 4 0.000000 0.000000 0.000000 0.100004 0.000000 0.000000
# 5 0.000000 0.000000 0.000000 0.000000 0.079685 0.000000
# 6 0.000000 0.000000 0.000000 0.000000 0.000000 0.048375
#
#
# Mechanical properties :
#
#
# Convention : Reuss Voigt Hill
#
# Bulk Modulus (GPa) = 49.39512 55.71347 52.55429
# Shear Modulus (GPa) = 17.05650 21.77390 19.41520
#
# Velocity S-wave (km/s) = 2.78703 3.14894 2.97349
# Velocity P-wave (km/s) = 5.73159 6.21232 5.97679
#
# Compressibility (1/GPa) = 0.02024491
#
# Stress axis : x y z
#
# Youngs Moduli (GPa) = 64.48915 91.46612 77.83239
#
# Poissons Ratio (x) = 0.34095 0.06016
# Poissons Ratio (y) = 0.24039 0.39078
# Poissons Ratio (z) = 0.04985 0.45923
#
# Static dielectric constant tensor:
#      x y z
#    x 1.694140 0.000000 0.000000 
#    y 0.000000 1.874400 0.000000 
#    z 0.000000 0.000000 1.811920 
# 
# From -- ./inp_files/27419.got.cif
#   From: 2010.05.17/outbox.cif.g08.bks.cpg/sg43_14_cif.got.tgz:27419.got - 2010.06.03 19:21:55.
