data_PCOD9372758
_publ_section_title
;
Structure prediction by ZEFSAII (Michael W. Deem and Ramdas Pophale) SiO2 
 PCOD9372758
Probable space group: F D D 2
;
_chemical_formula_sum "Si O2"
_cell_formula_units_Z 96
_cell_length_a 16.495012
_cell_length_b 21.722217
_cell_length_c 11.038912
_cell_angle_alpha 90.000000
_cell_angle_beta 90.000000
_cell_angle_gamma 90.000000
_cell_volume 3955.333021
_symmetry_space_group_name_H-M "F D D 2"
_symmetry_group_IT_number 43
_symmetry_cell_setting 'orthorhombic'
loop_
_space_group_symop_operation_xyz
x,y,z
-x,-y,z
1/4-x,1/4+y,1/4+z
1/4+x,1/4-y,1/4+z
x,1/2+y,1/2+z
-x,1/2-y,1/2+z
1/4-x,3/4+y,3/4+z
1/4+x,3/4-y,3/4+z
1/2+x,y,1/2+z
1/2-x,-y,1/2+z
3/4-x,1/4+y,3/4+z
3/4+x,1/4-y,3/4+z
1/2+x,1/2+y,z
1/2-x,1/2-y,z
3/4-x,3/4+y,1/4+z
3/4+x,3/4-y,1/4+z
loop_
_atom_site_type_symbol
_atom_site_label
_atom_site_fract_x
_atom_site_fract_y
_atom_site_fract_z
Si Si1 0.009072 0.740484 0.685880
Si Si2 0.893833 0.669156 0.532378
Si Si3 0.063805 0.143897 0.633632
Si Si4 0.238252 0.120653 0.631093
Si Si5 0.581843 0.038101 0.315063
Si Si6 0.468851 0.929834 0.556971
O O1 0.002484 0.688442 0.790891
O O2 0.096217 0.745969 0.620184
O O3 0.948076 0.725219 0.575443
O O4 0.975164 0.806996 0.726658
O O5 0.814101 0.665287 0.612837
O O6 0.854184 0.669534 0.400450
O O7 0.952058 0.612243 0.565110
O O8 0.156743 0.157196 0.596879
O O9 0.999599 0.144215 0.523440
O O10 0.083718 0.077405 0.692961
O O11 0.567420 0.084520 0.425796
O O12 0.500000 0.000000 0.304798
O O13 0.500000 0.000000 0.567008
#
# Coordination Sequence:
#
# PCOD9372758 Si02
#       6
#    16  16  16  16  16  16
#     4  12  28  47  81 113 162 214 274 340 415 496
#     4  12  26  47  79 112 152 207 265 337 397 498
#     4  12  28  49  78 118 165 212 279 338 423 493
#     4  12  25  52  74 117 158 214 272 336 411 495
#     4  11  28  50  75 114 157 210 270 343 414 500
#     4  11  27  46  77 112 156 201 271 329 411 481
#
# _framework density 24.271028999999999
#
# number of rings (size 3 to 8) (size 9 to 14) (size 15 to 20)
#    0.000    0.333    5.000    2.000    9.333    1.333 
#    0.000    0.000    0.000    0.000    0.000    0.000 
#    0.000    0.000    0.000    0.000    0.000    0.000 
#
# Total GULP energy -133981.971390 kJ/mol
# GULP energy per Si atom -5582.582141 kJ/mol
# Density = 2.421579 g / cm^3
# Si number density = 24.271029 Si / 1000 Ang^3
#
#
#
# Elastic Constant Matrix: (Units=GPa)
#
#
# Indices 1 2 3 4 5 6 
#
# 1 169.4389 44.0352 28.1270 0.0000 0.0000 0.0000
# 2 44.0352 75.5332 22.1361 0.0000 0.0000 0.0000
# 3 28.1270 22.1361 97.5374 0.0000 0.0000 0.0000
# 4 0.0000 0.0000 0.0000 33.9203 0.0000 0.0000
# 5 0.0000 0.0000 0.0000 0.0000 40.7666 0.0000
# 6 0.0000 0.0000 0.0000 0.0000 0.0000 32.4226
#
#
#
# Elastic Compliance Matrix: (Units=1/GPa)
#
#
# Indices 1 2 3 4 5 6 
#
# 1 0.007081 -0.003781 -0.001184 0.000000 0.000000 0.000000
# 2 -0.003781 0.016202 -0.002587 0.000000 0.000000 0.000000
# 3 -0.001184 -0.002587 0.011181 0.000000 0.000000 0.000000
# 4 0.000000 0.000000 0.000000 0.029481 0.000000 0.000000
# 5 0.000000 0.000000 0.000000 0.000000 0.024530 0.000000
# 6 0.000000 0.000000 0.000000 0.000000 0.000000 0.030843
#
#
# Mechanical properties :
#
#
# Convention : Reuss Voigt Hill
#
# Bulk Modulus (GPa) = 51.65198 59.01178 55.33188
# Shear Modulus (GPa) = 35.49276 37.96930 36.73103
#
# Velocity S-wave (km/s) = 3.82822 3.95953 3.89443
# Velocity P-wave (km/s) = 6.39280 6.72832 6.56270
#
# Compressibility (1/GPa) = 0.01936034
#
# Stress axis : x y z
#
# Youngs Moduli (GPa) = 141.22192 61.72199 89.43843
#
# Poissons Ratio (x) = 0.23339 0.10588
# Poissons Ratio (y) = 0.53400 0.23134
# Poissons Ratio (z) = 0.16718 0.15965
#
# Static dielectric constant tensor:
#      x y z
#    x 2.069090 0.000000 0.000000 
#    y 0.000000 2.040430 0.000000 
#    z 0.000000 0.000000 2.095460 
# 
# From -- ./inp_files/6694.got.cif
#   From: 2010.05.17/outbox.cif.g08.bks.cpg/sg43_4_cif.got.tgz:6694.got - 2010.06.03 19:21:55.
