data_PCOD9372338
_publ_section_title
;
Structure prediction by ZEFSAII (Michael W. Deem and Ramdas Pophale) SiO2 
 PCOD9372338
Probable space group: F D D 2
;
_chemical_formula_sum "Si O2"
_cell_formula_units_Z 120
_cell_length_a 10.369611
_cell_length_b 21.614846
_cell_length_c 26.272060
_cell_angle_alpha 90.000000
_cell_angle_beta 90.000000
_cell_angle_gamma 90.000000
_cell_volume 5888.555026
_symmetry_space_group_name_H-M "F D D 2"
_symmetry_group_IT_number 43
_symmetry_cell_setting 'orthorhombic'
loop_
_space_group_symop_operation_xyz
x,y,z
-x,-y,z
1/4-x,1/4+y,1/4+z
1/4+x,1/4-y,1/4+z
x,1/2+y,1/2+z
-x,1/2-y,1/2+z
1/4-x,3/4+y,3/4+z
1/4+x,3/4-y,3/4+z
1/2+x,y,1/2+z
1/2-x,-y,1/2+z
3/4-x,1/4+y,3/4+z
3/4+x,1/4-y,3/4+z
1/2+x,1/2+y,z
1/2-x,1/2-y,z
3/4-x,3/4+y,1/4+z
3/4+x,3/4-y,1/4+z
loop_
_atom_site_type_symbol
_atom_site_label
_atom_site_fract_x
_atom_site_fract_y
_atom_site_fract_z
Si Si1 0.250000 0.750000 0.103560
Si Si2 0.200706 0.073970 0.469792
Si Si3 0.784085 0.056475 0.424458
Si Si4 0.421190 0.395086 0.122685
Si Si5 0.069547 0.064509 0.839141
Si Si6 0.602121 0.764709 0.454089
Si Si7 0.892206 0.145081 0.038954
Si Si8 0.943275 0.645344 0.983845
O O1 0.347214 0.789281 0.137631
O O2 0.166330 0.798793 0.071900
O O3 0.253926 0.107935 0.418264
O O4 0.281367 0.102635 0.515773
O O5 0.052823 0.092343 0.479611
O O6 0.223550 0.001462 0.462747
O O7 0.660405 0.057729 0.388342
O O8 0.820368 0.119284 0.453417
O O9 0.294913 0.359677 0.104642
O O10 0.374392 0.458695 0.147955
O O11 0.514676 0.394442 0.074412
O O12 0.152267 0.088032 0.791140
O O13 0.000000 0.000000 0.825917
O O14 0.750000 0.750000 0.471778
O O15 0.547453 0.819124 0.490321
O O16 0.513103 0.705156 0.459522
#
# Coordination Sequence:
#
# PCOD9372338 Si02
#       8
#     8  16  16  16  16  16  16  16
#     4  12  18  38  68  98 130 182 236 282 366 428
#     4  11  21  42  69 104 137 176 242 296 346 428
#     4  12  24  42  72  96 143 190 234 298 361 423
#     4  11  23  43  65 101 141 179 237 290 356 426
#     4  12  26  46  70 101 139 191 243 288 363 442
#     4  11  22  41  68 100 136 177 233 290 350 430
#     4  11  20  37  72 102 130 184 238 290 354 432
#     4  12  24  44  68 107 139 183 244 298 350 437
#
# _framework density 20.378515
#
# number of rings (size 3 to 8) (size 9 to 14) (size 15 to 20)
#    0.000    0.533    7.333    2.400    0.000    3.200 
#    2.400    1.333    0.000    0.000    0.000    0.000 
#    0.000    0.000    0.000    0.000    0.000    0.000 
#
# Total GULP energy -167689.995166 kJ/mol
# GULP energy per Si atom -5589.666506 kJ/mol
# Density = 2.033213 g / cm^3
# Si number density = 20.378515 Si / 1000 Ang^3
#
#
#
# Elastic Constant Matrix: (Units=GPa)
#
#
# Indices 1 2 3 4 5 6 
#
# 1 77.9003 21.2278 44.6424 0.0000 0.0000 0.0000
# 2 21.2278 66.8337 53.6473 0.0000 0.0000 0.0000
# 3 44.6424 53.6473 96.3768 0.0000 0.0000 0.0000
# 4 0.0000 0.0000 0.0000 13.9076 0.0000 0.0000
# 5 0.0000 0.0000 0.0000 0.0000 -738.8384 0.0000
# 6 0.0000 0.0000 0.0000 0.0000 0.0000 35.3618
#
#
#
# Elastic Compliance Matrix: (Units=1/GPa)
#
#
# Indices 1 2 3 4 5 6 
#
# 1 0.017585 0.001723 -0.009104 0.000000 0.000000 0.000000
# 2 0.001723 0.027217 -0.015948 0.000000 0.000000 0.000000
# 3 -0.009104 -0.015948 0.023470 0.000000 0.000000 0.000000
# 4 0.000000 0.000000 0.000000 0.071903 0.000000 0.000000
# 5 0.000000 0.000000 0.000000 0.000000 -0.001353 0.000000
# 6 0.000000 0.000000 0.000000 0.000000 0.000000 0.028279
#
#
# Mechanical properties :
#
#
# Convention : Reuss Voigt Hill
#
# Bulk Modulus (GPa) = 46.26867 53.34953 49.80910
# Shear Modulus (GPa) = 22.62811 -129.80756 -53.58973
#
# Velocity S-wave (km/s) = 3.33587 -7.98978 -5.13364
# Velocity P-wave (km/s) = 6.13117 7.67328 3.26251
#
# Compressibility (1/GPa) = 0.02161290
#
# Stress axis : x y z
#
# Youngs Moduli (GPa) = 56.86681 36.74222 42.60680
#
# Poissons Ratio (x) = -0.06330 0.38791
# Poissons Ratio (y) = -0.09797 0.67949
# Poissons Ratio (z) = 0.51774 0.58596
#
# Static dielectric constant tensor:
#      x y z
#    x 1.846830 0.000000 0.000000 
#    y 0.000000 1.809530 0.000000 
#    z 0.000000 0.000000 1.738450 
# 
# From -- ./inp_files/24474.got.cif
#   From: 2010.05.17/outbox.cif.g08.bks.cpg/sg43_13_cif.got.tgz:24474.got - 2010.06.03 19:21:55.
