data_PCOD9372335
_publ_section_title
;
Structure prediction by ZEFSAII (Michael W. Deem and Ramdas Pophale) SiO2 
 PCOD9372335
Probable space group: F D D 2
;
_chemical_formula_sum "Si O2"
_cell_formula_units_Z 112
_cell_length_a 16.263035
_cell_length_b 10.989366
_cell_length_c 29.241764
_cell_angle_alpha 90.000000
_cell_angle_beta 90.000000
_cell_angle_gamma 90.000000
_cell_volume 5226.101042
_symmetry_space_group_name_H-M "F D D 2"
_symmetry_group_IT_number 43
_symmetry_cell_setting 'orthorhombic'
loop_
_space_group_symop_operation_xyz
x,y,z
-x,-y,z
1/4-x,1/4+y,1/4+z
1/4+x,1/4-y,1/4+z
x,1/2+y,1/2+z
-x,1/2-y,1/2+z
1/4-x,3/4+y,3/4+z
1/4+x,3/4-y,3/4+z
1/2+x,y,1/2+z
1/2-x,-y,1/2+z
3/4-x,1/4+y,3/4+z
3/4+x,1/4-y,3/4+z
1/2+x,1/2+y,z
1/2-x,1/2-y,z
3/4-x,3/4+y,1/4+z
3/4+x,3/4-y,1/4+z
loop_
_atom_site_type_symbol
_atom_site_label
_atom_site_fract_x
_atom_site_fract_y
_atom_site_fract_z
Si Si1 0.857100 0.909896 0.467530
Si Si2 0.869462 0.172293 0.515042
Si Si3 0.806184 0.054344 0.294711
Si Si4 0.412687 0.954463 0.370234
Si Si5 0.000000 0.000000 0.696195
Si Si6 0.249343 0.610029 0.877811
Si Si7 0.614593 0.066555 0.124728
Si Si8 0.250000 0.750000 0.156096
O O1 0.874153 0.805983 0.505582
O O2 0.789548 0.890992 0.428621
O O3 0.848837 0.040063 0.493441
O O4 0.940689 0.922042 0.438232
O O5 0.833514 0.188062 0.565399
O O6 0.825527 0.268973 0.481196
O O7 0.967179 0.189664 0.520993
O O8 0.826859 0.174498 0.324544
O O9 0.800248 0.957813 0.336447
O O10 0.391631 0.819128 0.386967
O O11 0.500000 0.000000 0.387891
O O12 0.338899 0.047923 0.379498
O O13 0.959204 0.905195 0.660303
O O14 0.250000 0.750000 0.863656
O O15 0.690545 0.158440 0.129066
#
# Coordination Sequence:
#
# PCOD9372335 Si02
#       8
#    16  16  16  16   8  16  16   8
#     4  12  21  43  72 105 139 183 248 313 371 449
#     4  11  20  36  66 106 135 173 241 306 359 440
#     4  11  22  42  75 104 142 188 244 311 371 449
#     4  11  25  43  68 102 142 197 241 301 378 465
#     4  12  20  37  66 106 136 178 242 308 371 428
#     4  11  27  48  70 102 154 199 245 320 395 448
#     4  12  24  40  71 103 141 189 247 306 383 450
#     4  12  24  39  70 108 140 184 240 324 357 450
#
# _framework density 21.430890000000002
#
# number of rings (size 3 to 8) (size 9 to 14) (size 15 to 20)
#    0.000    0.571    6.429    2.571    4.000    0.000 
#    1.286    1.429    9.429    0.000    0.000    0.000 
#    0.000    0.000    0.000    0.000    0.000    0.000 
#
# Total GULP energy -156155.420892 kJ/mol
# GULP energy per Si atom -5576.979318 kJ/mol
# Density = 2.138211 g / cm^3
# Si number density = 21.430890 Si / 1000 Ang^3
#
#
#
# Elastic Constant Matrix: (Units=GPa)
#
#
# Indices 1 2 3 4 5 6 
#
# 1 131.9467 62.5437 55.4104 0.0000 0.0000 0.0000
# 2 62.5437 113.1853 29.4487 0.0000 0.0000 0.0000
# 3 55.4104 29.4487 133.5777 0.0000 0.0000 0.0000
# 4 0.0000 0.0000 0.0000 20.3182 0.0000 0.0000
# 5 0.0000 0.0000 0.0000 0.0000 40.0018 0.0000
# 6 0.0000 0.0000 0.0000 0.0000 0.0000 34.2745
#
#
#
# Elastic Compliance Matrix: (Units=1/GPa)
#
#
# Indices 1 2 3 4 5 6 
#
# 1 0.011734 -0.005535 -0.003647 0.000000 0.000000 0.000000
# 2 -0.005535 0.011984 -0.000346 0.000000 0.000000 0.000000
# 3 -0.003647 -0.000346 0.009075 0.000000 0.000000 0.000000
# 4 0.000000 0.000000 0.000000 0.049217 0.000000 0.000000
# 5 0.000000 0.000000 0.000000 0.000000 0.024999 0.000000
# 6 0.000000 0.000000 0.000000 0.000000 0.000000 0.029176
#
#
# Mechanical properties :
#
#
# Convention : Reuss Voigt Hill
#
# Bulk Modulus (GPa) = 72.79707 74.83503 73.81605
# Shear Modulus (GPa) = 31.28506 34.33936 32.81221
#
# Velocity S-wave (km/s) = 3.82489 4.00725 3.91713
# Velocity P-wave (km/s) = 7.31768 7.51038 7.41466
#
# Compressibility (1/GPa) = 0.01373682
#
# Stress axis : x y z
#
# Youngs Moduli (GPa) = 85.22148 83.44723 110.18703
#
# Poissons Ratio (x) = 0.46189 0.40188
# Poissons Ratio (y) = 0.47171 0.03811
# Poissons Ratio (z) = 0.31082 0.02886
#
# Static dielectric constant tensor:
#      x y z
#    x 1.847200 0.000000 0.000000 
#    y 0.000000 1.874030 0.000000 
#    z 0.000000 0.000000 1.799960 
# 
# From -- ./inp_files/29123.got.cif
#   From: 2010.05.17/outbox.cif.g08.bks.cpg/sg43_15_cif.got.tgz:29123.got - 2010.06.03 19:21:55.
