data_PCOD9372976
_publ_section_title
;
Structure prediction by ZEFSAII (Michael W. Deem and Ramdas Pophale) SiO2 
 PCOD9372976
Probable space group: F D D 2
;
_chemical_formula_sum "Si O2"
_cell_formula_units_Z 30
_cell_length_a 15.000000
_cell_length_b 18.000000
_cell_length_c 24.000000
_cell_angle_alpha 90.000000
_cell_angle_beta 90.000000
_cell_angle_gamma 90.000000
_cell_volume 6480.000000
_symmetry_space_group_name_H-M "F D D 2"
_symmetry_group_IT_number 43
_symmetry_cell_setting 'orthorhombic'
loop_
_space_group_symop_operation_xyz
x,y,z
-x,-y,z
1/4-x,1/4+y,1/4+z
1/4+x,1/4-y,1/4+z
x,1/2+y,1/2+z
-x,1/2-y,1/2+z
1/4-x,3/4+y,3/4+z
1/4+x,3/4-y,3/4+z
1/2+x,y,1/2+z
1/2-x,-y,1/2+z
3/4-x,1/4+y,3/4+z
3/4+x,1/4-y,3/4+z
1/2+x,1/2+y,z
1/2-x,1/2-y,z
3/4-x,3/4+y,1/4+z
3/4+x,3/4-y,1/4+z
loop_
_atom_site_type_symbol
_atom_site_label
_atom_site_fract_x
_atom_site_fract_y
_atom_site_fract_z
Si Si1 0.106634 0.507053 0.342400
Si Si2 0.393798 0.309995 0.325899
Si Si3 0.750000 0.250000 0.367087
Si Si4 0.384879 0.875749 0.244287
Si Si5 0.851437 0.462644 0.035625
Si Si6 0.423018 0.128835 0.186331
Si Si7 0.538864 0.083134 0.927075
Si Si8 0.813059 0.647216 0.301118
O O1 0.115881 0.553196 0.284589
O O2 0.149736 0.556503 0.391864
O O3 0.153563 0.426593 0.334264
O O4 0.000000 0.500000 0.352735
O O5 0.495928 0.307141 0.297352
O O6 0.418067 0.362781 0.379742
O O7 0.296708 0.343709 0.302515
O O8 0.361608 0.222214 0.326698
O O9 0.818296 0.197332 0.330844
O O10 0.817709 0.299908 0.404299
O O11 0.387306 0.801616 0.281741
O O12 0.476914 0.867064 0.210762
O O13 0.297874 0.872059 0.205037
O O14 0.888484 0.431275 0.976453
O O15 0.353640 0.136296 0.238224
O O16 0.500000 0.000000 0.909312
#
# Coordination Sequence:
#
# PCOD9372976 Si02
#       8
#    16  16   8  16  16  16  16  16
#     4  12  24  43  70 101 138 177 230 287 341 408
#     4  11  25  47  66  92 147 189 217 283 334 418
#     4  12  22  42  74 108 126 168 230 300 362 386
#     4  11  21  44  67 105 133 165 230 295 339 407
#     4  11  20  43  71 101 135 165 229 285 344 408
#     4  12  24  40  73  98 136 180 218 292 351 393
#     4  10  23  43  75  99 129 179 229 286 355 397
#     4  11  27  46  63 101 141 183 239 262 331 434
#
# _framework density 4.6296299999999997
#
# number of rings (size 3 to 8) (size 9 to 14) (size 15 to 20)
#    0.000    0.800    6.000    1.600    5.600    0.000 
#    0.000    1.333    0.000    0.000    0.000    0.000 
#    0.000    0.000    0.000    0.000    0.000    0.000 
#
# Total GULP energy -167121.854258 kJ/mol
# GULP energy per Si atom -5570.728475 kJ/mol
# Density = 0.461909 g / cm^3
# Si number density = 4.629630 Si / 1000 Ang^3
#
#
#
# Elastic Constant Matrix: (Units=GPa)
#
#
# Indices 1 2 3 4 5 6 
#
# 1 186.4963 43.7866 60.6871 0.0000 0.0000 0.0000
# 2 43.7866 124.5136 63.0624 0.0000 0.0000 0.0000
# 3 60.6871 63.0624 111.6042 0.0000 0.0000 0.0000
# 4 0.0000 0.0000 0.0000 39.7548 0.0000 0.0000
# 5 0.0000 0.0000 0.0000 0.0000 38.3865 0.0000
# 6 0.0000 0.0000 0.0000 0.0000 0.0000 37.7598
#
#
#
# Elastic Compliance Matrix: (Units=1/GPa)
#
#
# Indices 1 2 3 4 5 6 
#
# 1 0.006558 -0.000701 -0.003170 0.000000 0.000000 0.000000
# 2 -0.000701 0.011326 -0.006019 0.000000 0.000000 0.000000
# 3 -0.003170 -0.006019 0.014085 0.000000 0.000000 0.000000
# 4 0.000000 0.000000 0.000000 0.025154 0.000000 0.000000
# 5 0.000000 0.000000 0.000000 0.000000 0.026051 0.000000
# 6 0.000000 0.000000 0.000000 0.000000 0.000000 0.026483
#
#
# Mechanical properties :
#
#
# Convention : Reuss Voigt Hill
#
# Bulk Modulus (GPa) = 82.03541 84.18737 83.11139
# Shear Modulus (GPa) = 37.45318 40.18543 38.81930
#
# Velocity S-wave (km/s) = 4.50207 4.66339 4.58344
# Velocity P-wave (km/s) = 8.45104 8.63459 8.54331
#
# Compressibility (1/GPa) = 0.01218986
#
# Stress axis : x y z
#
# Youngs Moduli (GPa) = 152.48208 88.29257 70.99711
#
# Poissons Ratio (x) = 0.06186 0.22508
# Poissons Ratio (y) = 0.10683 0.42732
# Poissons Ratio (z) = 0.48341 0.53142
#
# Static dielectric constant tensor:
#      x y z
#    x 1.651350 0.000000 0.000000 
#    y 0.000000 1.679580 0.000000 
#    z 0.000000 0.000000 1.715800 
# 
# From -- ./inp_files/21831.got.cif
#   From: 2010.05.17/outbox.ucp.g08.bks.cvg/sg43_11_cif.got.tgz:21831.got - 2010.06.11 16:31:01.
