data_PCOD9372607
_publ_section_title
;
Structure prediction by ZEFSAII (Michael W. Deem and Ramdas Pophale) SiO2 
 PCOD9372607
Probable space group: F D D 2
;
_chemical_formula_sum "Si O2"
_cell_formula_units_Z 120
_cell_length_a 17.523930
_cell_length_b 25.544397
_cell_length_c 11.037505
_cell_angle_alpha 90.000000
_cell_angle_beta 90.000000
_cell_angle_gamma 90.000000
_cell_volume 4940.809146
_symmetry_space_group_name_H-M "F D D 2"
_symmetry_group_IT_number 43
_symmetry_cell_setting 'orthorhombic'
loop_
_space_group_symop_operation_xyz
x,y,z
-x,-y,z
1/4-x,1/4+y,1/4+z
1/4+x,1/4-y,1/4+z
x,1/2+y,1/2+z
-x,1/2-y,1/2+z
1/4-x,3/4+y,3/4+z
1/4+x,3/4-y,3/4+z
1/2+x,y,1/2+z
1/2-x,-y,1/2+z
3/4-x,1/4+y,3/4+z
3/4+x,1/4-y,3/4+z
1/2+x,1/2+y,z
1/2-x,1/2-y,z
3/4-x,3/4+y,1/4+z
3/4+x,3/4-y,1/4+z
loop_
_atom_site_type_symbol
_atom_site_label
_atom_site_fract_x
_atom_site_fract_y
_atom_site_fract_z
Si Si1 0.346051 0.312723 0.160180
Si Si2 0.390187 0.921973 0.758516
Si Si3 0.227017 0.132626 0.656106
Si Si4 0.000000 0.500000 0.609630
Si Si5 0.851476 0.473912 0.093979
Si Si6 0.495125 0.410853 0.678805
Si Si7 0.160317 0.942153 0.399966
Si Si8 0.986552 0.269788 0.545752
O O1 0.379458 0.370579 0.177816
O O2 0.295177 0.290105 0.269663
O O3 0.421558 0.276936 0.146092
O O4 0.296604 0.317675 0.036946
O O5 0.438903 0.901329 0.872644
O O6 0.438648 0.966903 0.689294
O O7 0.304548 0.939247 0.790506
O O8 0.203210 0.076661 0.601660
O O9 0.215600 0.145203 0.799868
O O10 0.166023 0.170575 0.591011
O O11 0.810555 0.518076 0.173448
O O12 0.930744 0.453644 0.147380
O O13 0.861869 0.505482 0.971433
O O14 0.449902 0.357500 0.714914
O O15 0.223309 0.963693 0.309161
#
# Coordination Sequence:
#
# PCOD9372607 Si02
#       8
#    16  16  16   8  16  16  16  16
#     4  12  28  48  77 112 158 208 261 326 399 485
#     4  12  28  48  77 112 158 208 261 326 399 485
#     4  11  25  48  74 108 150 196 262 323 380 458
#     4  12  30  52  78 112 168 210 264 324 420 486
#     4  11  24  43  73 105 144 193 249 315 382 455
#     4  11  25  48  74 108 150 196 262 323 380 458
#     4  11  24  43  73 105 144 193 249 315 382 455
#     4  12  25  44  70 105 145 196 254 307 392 454
#
# _framework density 24.287519
#
# number of rings (size 3 to 8) (size 9 to 14) (size 15 to 20)
#    0.000    0.533    1.333    5.600    5.600    9.067 
#    0.000    0.000    0.000    0.000    0.000    0.000 
#    0.000    0.000    0.000    0.000    0.000    0.000 
#
# Total GULP energy -167761.661439 kJ/mol
# GULP energy per Si atom -5592.055381 kJ/mol
# Density = 2.423224 g / cm^3
# Si number density = 24.287519 Si / 1000 Ang^3
#
#
#
# Elastic Constant Matrix: (Units=GPa)
#
#
# Indices 1 2 3 4 5 6 
#
# 1 101.7559 18.2593 19.4219 0.0000 0.0000 0.0000
# 2 18.2593 80.9222 16.9751 0.0000 0.0000 0.0000
# 3 19.4219 16.9751 69.3122 0.0000 0.0000 0.0000
# 4 0.0000 0.0000 0.0000 20.9676 0.0000 0.0000
# 5 0.0000 0.0000 0.0000 0.0000 27.2157 0.0000
# 6 0.0000 0.0000 0.0000 0.0000 0.0000 54.3548
#
#
#
# Elastic Compliance Matrix: (Units=1/GPa)
#
#
# Indices 1 2 3 4 5 6 
#
# 1 0.010645 -0.001872 -0.002524 0.000000 0.000000 0.000000
# 2 -0.001872 0.013356 -0.002746 0.000000 0.000000 0.000000
# 3 -0.002524 -0.002746 0.015807 0.000000 0.000000 0.000000
# 4 0.000000 0.000000 0.000000 0.047693 0.000000 0.000000
# 5 0.000000 0.000000 0.000000 0.000000 0.036743 0.000000
# 6 0.000000 0.000000 0.000000 0.000000 0.000000 0.018398
#
#
# Mechanical properties :
#
#
# Convention : Reuss Voigt Hill
#
# Bulk Modulus (GPa) = 39.18102 40.14478 39.66290
# Shear Modulus (GPa) = 30.22309 33.66321 31.94315
#
# Velocity S-wave (km/s) = 3.53141 3.72698 3.63051
# Velocity P-wave (km/s) = 5.72670 5.92329 5.82582
#
# Compressibility (1/GPa) = 0.02552256
#
# Stress axis : x y z
#
# Youngs Moduli (GPa) = 93.93860 74.87185 63.26143
#
# Poissons Ratio (x) = 0.14020 0.15969
# Poissons Ratio (y) = 0.17590 0.17374
# Poissons Ratio (z) = 0.23713 0.20562
#
# Static dielectric constant tensor:
#      x y z
#    x 2.022060 0.000000 0.000000 
#    y 0.000000 2.013930 0.000000 
#    z 0.000000 0.000000 1.984730 
# 
# From -- ./inp_files/6806.got.cif
#   From: 2010.05.17/outbox.cif.g08.bks.cpg/sg43_4_cif.got.tgz:6806.got - 2010.06.03 19:21:55.
