data_PCOD9372557
_publ_section_title
;
Structure prediction by ZEFSAII (Michael W. Deem and Ramdas Pophale) SiO2 
 PCOD9372557
Probable space group: F D D 2
;
_chemical_formula_sum "Si O2"
_cell_formula_units_Z 120
_cell_length_a 25.363368
_cell_length_b 17.467573
_cell_length_c 12.014924
_cell_angle_alpha 90.000000
_cell_angle_beta 90.000000
_cell_angle_gamma 90.000000
_cell_volume 5323.049661
_symmetry_space_group_name_H-M "F D D 2"
_symmetry_group_IT_number 43
_symmetry_cell_setting 'orthorhombic'
loop_
_space_group_symop_operation_xyz
x,y,z
-x,-y,z
1/4-x,1/4+y,1/4+z
1/4+x,1/4-y,1/4+z
x,1/2+y,1/2+z
-x,1/2-y,1/2+z
1/4-x,3/4+y,3/4+z
1/4+x,3/4-y,3/4+z
1/2+x,y,1/2+z
1/2-x,-y,1/2+z
3/4-x,1/4+y,3/4+z
3/4+x,1/4-y,3/4+z
1/2+x,1/2+y,z
1/2-x,1/2-y,z
3/4-x,3/4+y,1/4+z
3/4+x,3/4-y,1/4+z
loop_
_atom_site_type_symbol
_atom_site_label
_atom_site_fract_x
_atom_site_fract_y
_atom_site_fract_z
Si Si1 0.080530 0.665616 0.937200
Si Si2 0.213747 0.151822 0.723835
Si Si3 0.691696 0.144961 0.465363
Si Si4 0.686313 0.514325 0.596093
Si Si5 0.883383 0.497902 0.892171
Si Si6 0.433670 0.868980 0.502421
Si Si7 0.787382 0.028830 0.971189
Si Si8 0.000000 0.000000 0.896525
O O1 0.115105 0.593517 0.898043
O O2 0.074746 0.717123 0.828439
O O3 0.022689 0.630890 0.964913
O O4 0.102551 0.713046 0.041003
O O5 0.204844 0.183260 0.847503
O O6 0.175105 0.080408 0.687039
O O7 0.192420 0.218151 0.643219
O O8 0.629177 0.135160 0.483820
O O9 0.717493 0.192445 0.565636
O O10 0.714876 0.060285 0.442600
O O11 0.643165 0.483098 0.511150
O O12 0.707807 0.443297 0.666350
O O13 0.729875 0.550824 0.515532
O O14 0.445571 0.835356 0.624069
O O15 0.460169 0.949402 0.471333
#
# Coordination Sequence:
#
# PCOD9372557 Si02
#       8
#    16  16  16  16  16  16  16   8
#     4  11  28  45  72 108 144 200 245 309 372 455
#     4  11  24  44  71 106 145 187 247 306 368 440
#     4  12  25  44  78 108 149 194 252 317 384 454
#     4  11  23  44  73  99 142 197 238 306 378 435
#     4  12  24  46  72 106 143 187 253 302 372 450
#     4  12  26  49  73 110 151 196 249 319 388 459
#     4  11  26  50  70  98 153 199 243 303 379 459
#     4  12  30  46  78 122 152 200 264 328 386 462
#
# _framework density 22.543468000000001
#
# number of rings (size 3 to 8) (size 9 to 14) (size 15 to 20)
#    0.000    0.533    5.333    2.000    5.600    0.000 
#    7.200    0.000    0.000    0.000    0.000    0.000 
#    0.000    0.000    0.000    0.000    0.000    0.000 
#
# Total GULP energy -167541.445851 kJ/mol
# GULP energy per Si atom -5584.714862 kJ/mol
# Density = 2.249216 g / cm^3
# Si number density = 22.543468 Si / 1000 Ang^3
#
#
#
# Elastic Constant Matrix: (Units=GPa)
#
#
# Indices 1 2 3 4 5 6 
#
# 1 98.0001 22.5202 55.9982 0.0000 0.0000 0.0000
# 2 22.5202 94.0792 39.5770 0.0000 0.0000 0.0000
# 3 55.9982 39.5770 106.5904 0.0000 0.0000 0.0000
# 4 0.0000 0.0000 0.0000 41.5145 0.0000 0.0000
# 5 0.0000 0.0000 0.0000 0.0000 24.2313 0.0000
# 6 0.0000 0.0000 0.0000 0.0000 0.0000 37.3000
#
#
#
# Elastic Compliance Matrix: (Units=1/GPa)
#
#
# Indices 1 2 3 4 5 6 
#
# 1 0.014589 -0.000318 -0.007547 0.000000 0.000000 0.000000
# 2 -0.000318 0.012604 -0.004513 0.000000 0.000000 0.000000
# 3 -0.007547 -0.004513 0.015022 0.000000 0.000000 0.000000
# 4 0.000000 0.000000 0.000000 0.024088 0.000000 0.000000
# 5 0.000000 0.000000 0.000000 0.000000 0.041269 0.000000
# 6 0.000000 0.000000 0.000000 0.000000 0.000000 0.026810
#
#
# Mechanical properties :
#
#
# Convention : Reuss Voigt Hill
#
# Bulk Modulus (GPa) = 57.27128 59.42896 58.35012
# Shear Modulus (GPa) = 30.31102 32.64746 31.47924
#
# Velocity S-wave (km/s) = 3.67080 3.80965 3.74087
# Velocity P-wave (km/s) = 6.58987 6.76538 6.67820
#
# Compressibility (1/GPa) = 0.01746076
#
# Stress axis : x y z
#
# Youngs Moduli (GPa) = 68.54337 79.34070 66.56863
#
# Poissons Ratio (x) = 0.02520 0.50237
# Poissons Ratio (y) = 0.02177 0.30042
# Poissons Ratio (z) = 0.51728 0.35806
#
# Static dielectric constant tensor:
#      x y z
#    x 1.890840 0.000000 0.000000 
#    y 0.000000 1.915130 0.000000 
#    z 0.000000 0.000000 1.861340 
# 
# From -- ./inp_files/7981.got.cif
#   From: 2010.05.17/outbox.cif.g08.bks.cpg/sg43_4_cif.got.tgz:7981.got - 2010.06.03 19:21:55.
