data_PCOD9372136
_publ_section_title
;
Structure prediction by ZEFSAII (Michael W. Deem and Ramdas Pophale) SiO2 
 PCOD9372136
Probable space group: F D D 2
;
_chemical_formula_sum "Si O2"
_cell_formula_units_Z 32
_cell_length_a 6.593700
_cell_length_b 12.342275
_cell_length_c 14.825410
_cell_angle_alpha 90.000000
_cell_angle_beta 90.000000
_cell_angle_gamma 90.000000
_cell_volume 1206.510526
_symmetry_space_group_name_H-M "F D D 2"
_symmetry_group_IT_number 43
_symmetry_cell_setting 'orthorhombic'
loop_
_space_group_symop_operation_xyz
x,y,z
-x,-y,z
1/4-x,1/4+y,1/4+z
1/4+x,1/4-y,1/4+z
x,1/2+y,1/2+z
-x,1/2-y,1/2+z
1/4-x,3/4+y,3/4+z
1/4+x,3/4-y,3/4+z
1/2+x,y,1/2+z
1/2-x,-y,1/2+z
3/4-x,1/4+y,3/4+z
3/4+x,1/4-y,3/4+z
1/2+x,1/2+y,z
1/2-x,1/2-y,z
3/4-x,3/4+y,1/4+z
3/4+x,3/4-y,1/4+z
loop_
_atom_site_type_symbol
_atom_site_label
_atom_site_fract_x
_atom_site_fract_y
_atom_site_fract_z
Si Si1 0.443007 0.820139 0.523350
Si Si2 0.016333 0.273122 0.827233
O O1 0.250000 0.750000 0.561304
O O2 0.507395 0.765239 0.430501
O O3 0.651042 0.861972 0.570732
O O4 0.335728 0.936139 0.511149
O O5 0.250000 0.250000 0.808862
#
# Coordination Sequence:
#
# PCOD9372136 Si02
#       2
#    16  16
#     4  10  24  46  75 117 157 206 266 331 401 481
#     4  10  24  46  77 116 158 210 265 335 404 477
#
# _framework density 26.522769
#
# number of rings (size 3 to 8) (size 9 to 14) (size 15 to 20)
#    0.000    2.000    0.000    0.000    7.000   18.000 
#    0.000    0.000   11.000    0.000    0.000    0.000 
#    0.000    0.000    0.000    0.000    0.000    0.000 
#
# Total GULP energy -44556.519674 kJ/mol
# GULP energy per Si atom -5569.564959 kJ/mol
# Density = 2.646240 g / cm^3
# Si number density = 26.522769 Si / 1000 Ang^3
#
#
#
# Elastic Constant Matrix: (Units=GPa)
#
#
# Indices 1 2 3 4 5 6 
#
# 1 261.2515 117.9661 55.0868 0.0000 0.0000 0.0000
# 2 117.9661 175.6910 57.4049 0.0000 0.0000 0.0000
# 3 55.0868 57.4049 127.0640 0.0000 0.0000 0.0000
# 4 0.0000 0.0000 0.0000 91.1994 0.0000 0.0000
# 5 0.0000 0.0000 0.0000 0.0000 25.5974 0.0000
# 6 0.0000 0.0000 0.0000 0.0000 0.0000 102.6170
#
#
#
# Elastic Compliance Matrix: (Units=1/GPa)
#
#
# Indices 1 2 3 4 5 6 
#
# 1 0.005570 -0.003462 -0.000851 0.000000 0.000000 0.000000
# 2 -0.003462 0.008829 -0.002488 0.000000 0.000000 0.000000
# 3 -0.000851 -0.002488 0.009363 0.000000 0.000000 0.000000
# 4 0.000000 0.000000 0.000000 0.010965 0.000000 0.000000
# 5 0.000000 0.000000 0.000000 0.000000 0.039066 0.000000
# 6 0.000000 0.000000 0.000000 0.000000 0.000000 0.009745
#
#
# Mechanical properties :
#
#
# Convention : Reuss Voigt Hill
#
# Bulk Modulus (GPa) = 98.41768 113.88023 106.14896
# Shear Modulus (GPa) = 49.73730 66.11933 57.92831
#
# Velocity S-wave (km/s) = 4.33513 4.99834 4.67850
# Velocity P-wave (km/s) = 7.88957 8.73734 8.32426
#
# Compressibility (1/GPa) = 0.01016078
#
# Stress axis : x y z
#
# Youngs Moduli (GPa) = 179.51749 113.25779 106.80433
#
# Poissons Ratio (x) = 0.39213 0.09087
# Poissons Ratio (y) = 0.62154 0.26572
# Poissons Ratio (z) = 0.15274 0.28178
#
# Static dielectric constant tensor:
#      x y z
#    x 2.320910 0.000000 0.000000 
#    y 0.000000 2.076660 0.000000 
#    z 0.000000 0.000000 2.082110 
# 
# From -- ./inp_files/8658.got.cif
#   From: 2010.05.17/outbox.cif.g08.bks.cpg/sg43_5_cif.got.tgz:8658.got - 2010.06.03 19:21:55.
