data_PCOD9372068
_publ_section_title
;
Structure prediction by ZEFSAII (Michael W. Deem and Ramdas Pophale) SiO2 
 PCOD9372068
Probable space group: F D D 2
;
_chemical_formula_sum "Si O2"
_cell_formula_units_Z 112
_cell_length_a 11.920735
_cell_length_b 36.859752
_cell_length_c 10.973207
_cell_angle_alpha 90.000000
_cell_angle_beta 90.000000
_cell_angle_gamma 90.000000
_cell_volume 4821.575974
_symmetry_space_group_name_H-M "F D D 2"
_symmetry_group_IT_number 43
_symmetry_cell_setting 'orthorhombic'
loop_
_space_group_symop_operation_xyz
x,y,z
-x,-y,z
1/4-x,1/4+y,1/4+z
1/4+x,1/4-y,1/4+z
x,1/2+y,1/2+z
-x,1/2-y,1/2+z
1/4-x,3/4+y,3/4+z
1/4+x,3/4-y,3/4+z
1/2+x,y,1/2+z
1/2-x,-y,1/2+z
3/4-x,1/4+y,3/4+z
3/4+x,1/4-y,3/4+z
1/2+x,1/2+y,z
1/2-x,1/2-y,z
3/4-x,3/4+y,1/4+z
3/4+x,3/4-y,1/4+z
loop_
_atom_site_type_symbol
_atom_site_label
_atom_site_fract_x
_atom_site_fract_y
_atom_site_fract_z
Si Si1 0.718124 0.150655 0.155100
Si Si2 0.606393 0.022170 0.235455
Si Si3 0.233411 0.396767 0.084731
Si Si4 0.553569 0.827320 0.787297
Si Si5 0.209152 0.823582 0.709268
Si Si6 0.488206 0.299129 0.036236
Si Si7 0.003676 0.543078 0.714517
O O1 0.614418 0.139699 0.238763
O O2 0.750337 0.114583 0.082316
O O3 0.822946 0.162724 0.235673
O O4 0.685515 0.183078 0.062199
O O5 0.671001 0.048359 0.142551
O O6 0.560101 0.044919 0.350644
O O7 0.500000 0.000000 0.180108
O O8 0.692233 0.991131 0.276248
O O9 0.263712 0.359796 0.154171
O O10 0.184000 0.424533 0.185829
O O11 0.338026 0.413327 0.011544
O O12 0.483822 0.811663 0.674740
O O13 0.268095 0.805862 0.826860
O O14 0.617991 0.302069 0.998163
O O15 0.000000 0.500000 0.726213
#
# Coordination Sequence:
#
# PCOD9372068 Si02
#       7
#    16  16  16  16  16  16  16
#     4  11  23  43  72 101 135 181 234 288 348 428
#     4  12  27  46  69 101 140 191 235 294 362 434
#     4  11  23  43  70  97 138 179 231 291 350 424
#     4  11  25  45  69 104 138 184 238 289 360 425
#     4  11  25  44  66 100 136 182 234 286 358 413
#     4  10  26  43  68 103 138 183 229 291 358 421
#     4  10  24  44  68 102 139 182 230 290 350 416
#
# _framework density 23.228919000000001
#
# number of rings (size 3 to 8) (size 9 to 14) (size 15 to 20)
#    0.000    1.143    1.429    3.000    8.000    3.429 
#    2.571    0.000    0.000    0.000    0.000    0.000 
#    0.000    0.000    0.000    0.000    0.000    0.000 
#
# Total GULP energy -156849.996097 kJ/mol
# GULP energy per Si atom -5601.785575 kJ/mol
# Density = 2.317605 g / cm^3
# Si number density = 23.228919 Si / 1000 Ang^3
#
#
#
# Elastic Constant Matrix: (Units=GPa)
#
#
# Indices 1 2 3 4 5 6 
#
# 1 33.1578 -4.7667 11.7751 0.0000 0.0000 0.0000
# 2 -4.7667 160.3911 76.0324 0.0000 0.0000 0.0000
# 3 11.7751 76.0324 133.8466 0.0000 0.0000 0.0000
# 4 0.0000 0.0000 0.0000 37.2261 0.0000 0.0000
# 5 0.0000 0.0000 0.0000 0.0000 21.6095 0.0000
# 6 0.0000 0.0000 0.0000 0.0000 0.0000 37.0209
#
#
#
# Elastic Compliance Matrix: (Units=1/GPa)
#
#
# Indices 1 2 3 4 5 6 
#
# 1 0.032256 0.003153 -0.004629 0.000000 0.000000 0.000000
# 2 0.003153 0.008841 -0.005299 0.000000 0.000000 0.000000
# 3 -0.004629 -0.005299 0.010889 0.000000 0.000000 0.000000
# 4 0.000000 0.000000 0.000000 0.026863 0.000000 0.000000
# 5 0.000000 0.000000 0.000000 0.000000 0.046276 0.000000
# 6 0.000000 0.000000 0.000000 0.000000 0.000000 0.027012
#
#
# Mechanical properties :
#
#
# Convention : Reuss Voigt Hill
#
# Bulk Modulus (GPa) = 26.01809 54.83079 40.42444
# Shear Modulus (GPa) = 28.01160 35.46162 31.73661
#
# Velocity S-wave (km/s) = 3.47636 3.91143 3.70030
# Velocity P-wave (km/s) = 5.22863 6.63738 5.97467
#
# Compressibility (1/GPa) = 0.03843479
#
# Stress axis : x y z
#
# Youngs Moduli (GPa) = 31.00216 113.11500 91.83795
#
# Poissons Ratio (x) = -0.35663 0.42509
# Poissons Ratio (y) = -0.09774 0.48668
# Poissons Ratio (z) = 0.14350 0.59943
#
# Static dielectric constant tensor:
#      x y z
#    x 1.891380 0.000000 0.000000 
#    y 0.000000 1.878350 0.000000 
#    z 0.000000 0.000000 1.866790 
# 
# From -- ./inp_files/6322.got.cif
#   From: 2010.05.17/outbox.cif.g08.bks.cpg/sg43_4_cif.got.tgz:6322.got - 2010.06.03 19:21:55.
