data_PCOD9372540
_publ_section_title
;
Structure prediction by ZEFSAII (Michael W. Deem and Ramdas Pophale) SiO2 
 PCOD9372540
Probable space group: F D D 2
;
_chemical_formula_sum "Si O2"
_cell_formula_units_Z 96
_cell_length_a 18.367331
_cell_length_b 19.237759
_cell_length_c 10.715045
_cell_angle_alpha 90.000000
_cell_angle_beta 90.000000
_cell_angle_gamma 90.000000
_cell_volume 3786.121368
_symmetry_space_group_name_H-M "F D D 2"
_symmetry_group_IT_number 43
_symmetry_cell_setting 'orthorhombic'
loop_
_space_group_symop_operation_xyz
x,y,z
-x,-y,z
1/4-x,1/4+y,1/4+z
1/4+x,1/4-y,1/4+z
x,1/2+y,1/2+z
-x,1/2-y,1/2+z
1/4-x,3/4+y,3/4+z
1/4+x,3/4-y,3/4+z
1/2+x,y,1/2+z
1/2-x,-y,1/2+z
3/4-x,1/4+y,3/4+z
3/4+x,1/4-y,3/4+z
1/2+x,1/2+y,z
1/2-x,1/2-y,z
3/4-x,3/4+y,1/4+z
3/4+x,3/4-y,1/4+z
loop_
_atom_site_type_symbol
_atom_site_label
_atom_site_fract_x
_atom_site_fract_y
_atom_site_fract_z
Si Si1 0.651028 0.006799 0.044580
Si Si2 0.077388 0.379615 0.437860
Si Si3 0.233146 0.585489 0.197118
Si Si4 0.040533 0.926723 0.681389
Si Si5 0.686428 0.797054 0.556461
Si Si6 0.476741 0.799126 0.611261
O O1 0.655295 0.078217 0.126201
O O2 0.622163 0.945751 0.132899
O O3 0.595758 0.010116 0.928806
O O4 0.728582 0.014040 0.975681
O O5 0.033191 0.388391 0.311991
O O6 0.126670 0.311242 0.453211
O O7 0.143338 0.436518 0.407072
O O8 0.021981 0.367409 0.556639
O O9 0.237479 0.630188 0.320578
O O10 0.286142 0.627984 0.105526
O O11 0.237570 0.507080 0.249717
O O12 0.000000 0.000000 0.688519
O O13 0.750000 0.750000 0.507337
#
# Coordination Sequence:
#
# PCOD9372540 Si02
#       6
#    16  16  16  16  16  16
#     4  11  23  43  73 105 145 195 253 299 382 447
#     4  11  27  51  71 110 158 191 257 313 400 451
#     4  12  24  42  77 107 144 193 258 304 379 464
#     4  12  26  48  76 115 149 200 252 324 386 464
#     4  11  23  48  72 106 144 201 254 315 379 469
#     4  11  27  48  75 110 150 202 249 318 385 464
#
# _framework density 25.355764000000001
#
# number of rings (size 3 to 8) (size 9 to 14) (size 15 to 20)
#    0.000    0.667    6.667    0.000    4.667    1.333 
#    6.000    0.000    0.000    0.000    0.000    0.000 
#    0.000    0.000    0.000    0.000    0.000    0.000 
#
# Total GULP energy -133660.324065 kJ/mol
# GULP energy per Si atom -5569.180169 kJ/mol
# Density = 2.529805 g / cm^3
# Si number density = 25.355764 Si / 1000 Ang^3
#
#
#
# Elastic Constant Matrix: (Units=GPa)
#
#
# Indices 1 2 3 4 5 6 
#
# 1 71.2619 28.4957 1.4249 0.0000 0.0000 0.0000
# 2 28.4957 83.3374 38.8708 0.0000 0.0000 0.0000
# 3 1.4249 38.8708 92.7413 0.0000 0.0000 0.0000
# 4 0.0000 0.0000 0.0000 43.2525 0.0000 0.0000
# 5 0.0000 0.0000 0.0000 0.0000 28.2985 0.0000
# 6 0.0000 0.0000 0.0000 0.0000 0.0000 34.8590
#
#
#
# Elastic Compliance Matrix: (Units=1/GPa)
#
#
# Indices 1 2 3 4 5 6 
#
# 1 0.016770 -0.006978 0.002667 0.000000 0.000000 0.000000
# 2 -0.006978 0.017819 -0.007361 0.000000 0.000000 0.000000
# 3 0.002667 -0.007361 0.013827 0.000000 0.000000 0.000000
# 4 0.000000 0.000000 0.000000 0.023120 0.000000 0.000000
# 5 0.000000 0.000000 0.000000 0.000000 0.035338 0.000000
# 6 0.000000 0.000000 0.000000 0.000000 0.000000 0.028687
#
#
# Mechanical properties :
#
#
# Convention : Reuss Voigt Hill
#
# Bulk Modulus (GPa) = 39.88644 42.76927 41.32785
# Shear Modulus (GPa) = 29.89320 33.18527 31.53923
#
# Velocity S-wave (km/s) = 3.43731 3.62164 3.53068
# Velocity P-wave (km/s) = 5.61412 5.86452 5.74069
#
# Compressibility (1/GPa) = 0.02507118
#
# Stress axis : x y z
#
# Youngs Moduli (GPa) = 59.63106 56.11997 72.32199
#
# Poissons Ratio (x) = 0.39161 -0.19289
# Poissons Ratio (y) = 0.41611 0.53238
# Poissons Ratio (z) = -0.15904 0.41312
#
# Static dielectric constant tensor:
#      x y z
#    x 2.162850 0.000000 0.000000 
#    y 0.000000 2.045780 0.000000 
#    z 0.000000 0.000000 2.065860 
# 
# From -- ./inp_files/7077.got.cif
#   From: 2010.05.17/outbox.cif.g08.bks.cpg/sg43_4_cif.got.tgz:7077.got - 2010.06.03 19:21:55.
