data_PCOD9372994
_publ_section_title
;
Structure prediction by ZEFSAII (Michael W. Deem and Ramdas Pophale) SiO2 
 PCOD9372994
Probable space group: I M M 2
;
_chemical_formula_sum "Si O2"
_cell_formula_units_Z 40
_cell_length_a 26.414477
_cell_length_b 9.341867
_cell_length_c 7.175016
_cell_angle_alpha 90.000000
_cell_angle_beta 90.000000
_cell_angle_gamma 90.000000
_cell_volume 1770.510758
_symmetry_space_group_name_H-M "I M M 2"
_symmetry_group_IT_number 44
_symmetry_cell_setting 'orthorhombic'
loop_
_space_group_symop_operation_xyz
x,y,z
-x,-y,z
-x,y,z
x,-y,z
1/2+x,1/2+y,1/2+z
1/2-x,1/2-y,1/2+z
1/2-x,1/2+y,1/2+z
1/2+x,1/2-y,1/2+z
loop_
_atom_site_type_symbol
_atom_site_label
_atom_site_fract_x
_atom_site_fract_y
_atom_site_fract_z
Si Si1 0.888040 0.838003 0.608660
Si Si2 0.000000 0.330383 0.202867
Si Si3 0.306768 0.161524 0.604795
Si Si4 0.206130 0.339810 0.546280
Si Si5 0.402051 0.336681 0.655102
Si Si6 0.500000 0.329705 0.094448
O O1 0.843048 0.727091 0.645643
O O2 0.894824 0.838359 0.381511
O O3 0.944661 0.807684 0.685561
O O4 0.872959 0.000000 0.660713
O O5 0.949924 0.262296 0.116941
O O6 0.000000 0.500000 0.194528
O O7 0.000000 0.274230 0.416354
O O8 0.253459 0.233376 0.556813
O O9 0.352682 0.268364 0.562919
O O10 0.312362 0.000000 0.531230
O O11 0.307161 0.149728 0.828902
O O12 0.219156 0.500000 0.612536
O O13 0.410686 0.500000 0.598275
O O14 0.500000 0.500000 0.038066
#
# Coordination Sequence:
#
# PCOD9372994 Si02
#       6
#     8   4   8   8   8   4
#     4   8  14  25  41  61  87 118 150 186 228 274
#     4  10  16  22  36  60  89 118 149 186 229 276
#     4  10  20  33  49  70  95 124 159 196 234 279
#     4  10  20  32  47  69  95 124 158 193 232 279
#     4   9  16  27  42  61  88 120 152 188 232 278
#     4   8  14  24  38  58  85 118 151 184 231 280
#
# _framework density 22.592351000000001
#
# number of rings (size 3 to 8) (size 9 to 14) (size 15 to 20)
#    0.000    2.800    0.000    3.900    0.000    7.200 
#    0.000    0.000    0.000    0.000    0.000    1.400 
#    0.000    9.600    0.000    0.000    0.000    0.000 
#
# Total GULP energy -111705.635294 kJ/mol
# GULP energy per Si atom -5585.281765 kJ/mol
# Density = 2.254093 g / cm^3
# Si number density = 22.592351 Si / 1000 Ang^3
#
#
#
# Elastic Constant Matrix: (Units=GPa)
#
#
# Indices 1 2 3 4 5 6 
#
# 1 137.4210 87.0338 -38.1627 0.0000 0.0000 0.0000
# 2 87.0338 191.3626 -3.8579 0.0000 0.0000 0.0000
# 3 -38.1627 -3.8579 55.4902 0.0000 0.0000 0.0000
# 4 0.0000 0.0000 0.0000 11.0550 0.0000 0.0000
# 5 0.0000 0.0000 0.0000 0.0000 9.0190 0.0000
# 6 0.0000 0.0000 0.0000 0.0000 0.0000 44.6679
#
#
#
# Elastic Compliance Matrix: (Units=1/GPa)
#
#
# Indices 1 2 3 4 5 6 
#
# 1 0.013529 -0.005974 0.008889 0.000000 0.000000 0.000000
# 2 -0.005974 0.007871 -0.003561 0.000000 0.000000 0.000000
# 3 0.008889 -0.003561 0.023887 0.000000 0.000000 0.000000
# 4 0.000000 0.000000 0.000000 0.090457 0.000000 0.000000
# 5 0.000000 0.000000 0.000000 0.000000 0.110877 0.000000
# 6 0.000000 0.000000 0.000000 0.000000 0.000000 0.022387
#
#
# Mechanical properties :
#
#
# Convention : Reuss Voigt Hill
#
# Bulk Modulus (GPa) = 22.73010 52.70001 37.71505
# Shear Modulus (GPa) = 17.54600 35.56574 26.55587
#
# Velocity S-wave (km/s) = 2.78984 3.97197 3.43218
# Velocity P-wave (km/s) = 4.52332 6.66427 5.69530
#
# Compressibility (1/GPa) = 0.04399454
#
# Stress axis : x y z
#
# Youngs Moduli (GPa) = 73.91553 127.05051 41.86384
#
# Poissons Ratio (x) = 0.75899 -0.37213
# Poissons Ratio (y) = 0.44156 0.14909
# Poissons Ratio (z) = -0.65704 0.45246
#
# Static dielectric constant tensor:
#      x y z
#    x 1.825390 0.000000 0.000000 
#    y 0.000000 1.767120 0.000000 
#    z 0.000000 0.000000 1.935990 
# 
# From -- ./inp_files/4645.got.cif
#   From: 2010.05.17/outbox.cif.g08.bks.cpg/sg44_3_cif.got.tgz:4645.got - 2010.06.03 19:37:08.
