data_PCOD9372288
_publ_section_title
;
Structure prediction by ZEFSAII (Michael W. Deem and Ramdas Pophale) SiO2 
 PCOD9372288
Probable space group: F D D 2
;
_chemical_formula_sum "Si O2"
_cell_formula_units_Z 80
_cell_length_a 17.637069
_cell_length_b 10.749301
_cell_length_c 18.704040
_cell_angle_alpha 90.000000
_cell_angle_beta 90.000000
_cell_angle_gamma 90.000000
_cell_volume 3546.027184
_symmetry_space_group_name_H-M "F D D 2"
_symmetry_group_IT_number 43
_symmetry_cell_setting 'orthorhombic'
loop_
_space_group_symop_operation_xyz
x,y,z
-x,-y,z
1/4-x,1/4+y,1/4+z
1/4+x,1/4-y,1/4+z
x,1/2+y,1/2+z
-x,1/2-y,1/2+z
1/4-x,3/4+y,3/4+z
1/4+x,3/4-y,3/4+z
1/2+x,y,1/2+z
1/2-x,-y,1/2+z
3/4-x,1/4+y,3/4+z
3/4+x,1/4-y,3/4+z
1/2+x,1/2+y,z
1/2-x,1/2-y,z
3/4-x,3/4+y,1/4+z
3/4+x,3/4-y,1/4+z
loop_
_atom_site_type_symbol
_atom_site_label
_atom_site_fract_x
_atom_site_fract_y
_atom_site_fract_z
Si Si1 0.500000 0.000000 0.545920
Si Si2 0.521732 0.866732 0.889077
Si Si3 0.587238 0.966051 0.154027
Si Si4 0.661938 0.576247 0.196682
Si Si5 0.750000 0.750000 0.501474
Si Si6 0.360477 0.539846 0.818253
O O1 0.432035 0.063900 0.501283
O O2 0.535754 0.123861 0.580553
O O3 0.608942 0.830617 0.882372
O O4 0.479046 0.772607 0.941017
O O5 0.500000 0.000000 0.920381
O O6 0.495842 0.882922 0.806498
O O7 0.601532 0.847564 0.102153
O O8 0.611849 0.949258 0.237054
O O9 0.500000 0.000000 0.150665
O O10 0.580717 0.509881 0.211055
O O11 0.668385 0.640552 0.119756
#
# Coordination Sequence:
#
# PCOD9372288 Si02
#       6
#     8  16  16  16   8  16
#     4  12  25  48  76 110 149 204 266 326 404 475
#     4  10  26  49  72 113 156 202 258 340 393 493
#     4  12  30  47  82 117 158 213 270 337 410 493
#     4  12  23  48  73 107 151 205 260 324 400 476
#     4  10  27  44  76 106 149 204 248 326 402 483
#     4  12  27  48  78 113 153 209 260 332 401 490
#
# _framework density 22.560459000000002
#
# number of rings (size 3 to 8) (size 9 to 14) (size 15 to 20)
#    0.600    0.000    4.000    1.800    7.000    4.000 
#    0.000    0.000    0.000    0.000    0.000    0.000 
#    0.000    0.000    0.000    0.000    0.000    0.000 
#
# Total GULP energy -111429.202157 kJ/mol
# GULP energy per Si atom -5571.460108 kJ/mol
# Density = 2.250911 g / cm^3
# Si number density = 22.560459 Si / 1000 Ang^3
#
#
#
# Elastic Constant Matrix: (Units=GPa)
#
#
# Indices 1 2 3 4 5 6 
#
# 1 144.8195 58.6069 4.6401 0.0000 0.0000 0.0000
# 2 58.6069 134.4422 21.9073 0.0000 0.0000 0.0000
# 3 4.6401 21.9073 56.3272 0.0000 0.0000 0.0000
# 4 0.0000 0.0000 0.0000 9.4699 0.0000 0.0000
# 5 0.0000 0.0000 0.0000 0.0000 -4.8658 0.0000
# 6 0.0000 0.0000 0.0000 0.0000 0.0000 41.7906
#
#
#
# Elastic Compliance Matrix: (Units=1/GPa)
#
#
# Indices 1 2 3 4 5 6 
#
# 1 0.008416 -0.003797 0.000783 0.000000 0.000000 0.000000
# 2 -0.003797 0.009654 -0.003442 0.000000 0.000000 0.000000
# 3 0.000783 -0.003442 0.019028 0.000000 0.000000 0.000000
# 4 0.000000 0.000000 0.000000 0.105598 0.000000 0.000000
# 5 0.000000 0.000000 0.000000 0.000000 -0.205517 0.000000
# 6 0.000000 0.000000 0.000000 0.000000 0.000000 0.023929
#
#
# Mechanical properties :
#
#
# Convention : Reuss Voigt Hill
#
# Bulk Modulus (GPa) = 41.34368 56.21082 48.77725
# Shear Modulus (GPa) = -279.03519 25.97459 -126.53030
#
# Velocity S-wave (km/s) = -11.13336 3.39681 -7.49712
# Velocity P-wave (km/s) = 12.12038 6.35249 7.29895
#
# Compressibility (1/GPa) = 0.02418750
#
# Stress axis : x y z
#
# Youngs Moduli (GPa) = 118.81434 103.58345 52.55533
#
# Poissons Ratio (x) = 0.39327 -0.04117
# Poissons Ratio (y) = 0.45109 0.18089
# Poissons Ratio (z) = -0.09307 0.35653
#
# Static dielectric constant tensor:
#      x y z
#    x 2.186570 0.000000 0.000000 
#    y 0.000000 1.906430 0.000000 
#    z 0.000000 0.000000 1.937460 
# 
# From -- ./inp_files/17953.got.cif
#   From: 2010.05.17/outbox.cif.g08.bks.cpg/sg43_9_cif.got.tgz:17953.got - 2010.06.03 19:21:55.
