data_PCOD9372373
_publ_section_title
;
Structure prediction by ZEFSAII (Michael W. Deem and Ramdas Pophale) SiO2 
 PCOD9372373
Probable space group: F D D 2
;
_chemical_formula_sum "Si O2"
_cell_formula_units_Z 72
_cell_length_a 5.880101
_cell_length_b 18.780601
_cell_length_c 31.155543
_cell_angle_alpha 90.000000
_cell_angle_beta 90.000000
_cell_angle_gamma 90.000000
_cell_volume 3440.563651
_symmetry_space_group_name_H-M "F D D 2"
_symmetry_group_IT_number 43
_symmetry_cell_setting 'orthorhombic'
loop_
_space_group_symop_operation_xyz
x,y,z
-x,-y,z
1/4-x,1/4+y,1/4+z
1/4+x,1/4-y,1/4+z
x,1/2+y,1/2+z
-x,1/2-y,1/2+z
1/4-x,3/4+y,3/4+z
1/4+x,3/4-y,3/4+z
1/2+x,y,1/2+z
1/2-x,-y,1/2+z
3/4-x,1/4+y,3/4+z
3/4+x,1/4-y,3/4+z
1/2+x,1/2+y,z
1/2-x,1/2-y,z
3/4-x,3/4+y,1/4+z
3/4+x,3/4-y,1/4+z
loop_
_atom_site_type_symbol
_atom_site_label
_atom_site_fract_x
_atom_site_fract_y
_atom_site_fract_z
Si Si1 0.101318 0.425452 0.176130
Si Si2 0.500000 0.500000 0.533088
Si Si3 0.452541 0.419186 0.380861
Si Si4 0.638941 0.066959 0.590410
Si Si5 0.157967 0.932160 0.966637
O O1 0.278838 0.446189 0.138925
O O2 0.232325 0.383887 0.214020
O O3 0.000000 0.500000 0.191608
O O4 0.920106 0.375535 0.149495
O O5 0.362945 0.558615 0.561369
O O6 0.333315 0.451761 0.503986
O O7 0.500000 0.500000 0.366657
O O8 0.294231 0.380091 0.345430
O O9 0.301160 0.426120 0.423371
O O10 0.500000 0.000000 0.574243
O O11 0.000000 0.000000 0.962852
#
# Coordination Sequence:
#
# PCOD9372373 Si02
#       5
#    16   8  16  16  16
#     4  11  21  39  64 106 128 166 222 288 329 396
#     4  12  22  40  60 106 128 188 226 282 352 418
#     4  11  21  39  64 106 128 166 222 288 329 396
#     4  11  22  37  65 101 130 174 225 281 335 411
#     4  11  22  37  65 101 130 174 225 281 335 411
#
# _framework density 20.926805000000002
#
# number of rings (size 3 to 8) (size 9 to 14) (size 15 to 20)
#    0.000    0.889    6.667    0.667    0.000    0.000 
#    0.000    0.000    0.000    0.000  161.778    0.000 
#    0.000    0.000    0.000    0.000    0.000    0.000 
#
# Total GULP energy -100278.326865 kJ/mol
# GULP energy per Si atom -5571.018159 kJ/mol
# Density = 2.087918 g / cm^3
# Si number density = 20.926805 Si / 1000 Ang^3
#
#
#
# Elastic Constant Matrix: (Units=GPa)
#
#
# Indices 1 2 3 4 5 6 
#
# 1 111.2712 61.5229 41.0273 0.0000 0.0000 0.0000
# 2 61.5229 152.9112 38.8097 0.0000 0.0000 0.0000
# 3 41.0273 38.8097 72.1960 0.0000 0.0000 0.0000
# 4 0.0000 0.0000 0.0000 6.4506 0.0000 0.0000
# 5 0.0000 0.0000 0.0000 0.0000 -217.2408 0.0000
# 6 0.0000 0.0000 0.0000 0.0000 0.0000 44.2869
#
#
#
# Elastic Compliance Matrix: (Units=1/GPa)
#
#
# Indices 1 2 3 4 5 6 
#
# 1 0.013130 -0.003925 -0.005352 0.000000 0.000000 0.000000
# 2 -0.003925 0.008746 -0.002471 0.000000 0.000000 0.000000
# 3 -0.005352 -0.002471 0.018221 0.000000 0.000000 0.000000
# 4 0.000000 0.000000 0.000000 0.155024 0.000000 0.000000
# 5 0.000000 0.000000 0.000000 0.000000 -0.004603 0.000000
# 6 0.000000 0.000000 0.000000 0.000000 0.000000 0.022580
#
#
# Mechanical properties :
#
#
# Convention : Reuss Voigt Hill
#
# Bulk Modulus (GPa) = 60.23455 68.78867 64.51161
# Shear Modulus (GPa) = 20.65024 -20.29943 0.17541
#
# Velocity S-wave (km/s) = 3.14472 -3.11789 0.28983
# Velocity P-wave (km/s) = 6.48318 4.46998 5.56832
#
# Compressibility (1/GPa) = 0.01660177
#
# Stress axis : x y z
#
# Youngs Moduli (GPa) = 76.15957 114.33829 54.88165
#
# Poissons Ratio (x) = 0.44873 0.29373
# Poissons Ratio (y) = 0.29889 0.13563
# Poissons Ratio (z) = 0.40760 0.28256
#
# Static dielectric constant tensor:
#      x y z
#    x 2.942660 0.000000 0.000000 
#    y 0.000000 1.795050 0.000000 
#    z 0.000000 0.000000 1.723820 
# 
# From -- ./inp_files/721.got.cif
#   From: 2010.05.17/outbox.cif.g08.bks.cpg/sg43_1_cif.got.tgz:721.got - 2010.06.03 19:21:55.
