data_PCOD9372597
_publ_section_title
;
Structure prediction by ZEFSAII (Michael W. Deem and Ramdas Pophale) SiO2 
 PCOD9372597
Probable space group: F D D 2
;
_chemical_formula_sum "Si O2"
_cell_formula_units_Z 64
_cell_length_a 12.843489
_cell_length_b 16.748653
_cell_length_c 11.172369
_cell_angle_alpha 90.000000
_cell_angle_beta 90.000000
_cell_angle_gamma 90.000000
_cell_volume 2403.301038
_symmetry_space_group_name_H-M "F D D 2"
_symmetry_group_IT_number 43
_symmetry_cell_setting 'orthorhombic'
loop_
_space_group_symop_operation_xyz
x,y,z
-x,-y,z
1/4-x,1/4+y,1/4+z
1/4+x,1/4-y,1/4+z
x,1/2+y,1/2+z
-x,1/2-y,1/2+z
1/4-x,3/4+y,3/4+z
1/4+x,3/4-y,3/4+z
1/2+x,y,1/2+z
1/2-x,-y,1/2+z
3/4-x,1/4+y,3/4+z
3/4+x,1/4-y,3/4+z
1/2+x,1/2+y,z
1/2-x,1/2-y,z
3/4-x,3/4+y,1/4+z
3/4+x,3/4-y,1/4+z
loop_
_atom_site_type_symbol
_atom_site_label
_atom_site_fract_x
_atom_site_fract_y
_atom_site_fract_z
Si Si1 0.092374 0.411046 0.669290
Si Si2 0.409134 0.283934 0.916508
Si Si3 0.694190 0.156118 0.173599
Si Si4 0.893062 0.099101 0.914835
O O1 0.232123 0.583384 0.670011
O O2 0.104248 0.444726 0.803510
O O3 0.102985 0.451756 0.538643
O O4 0.026290 0.617260 0.667997
O O5 0.349732 0.313620 0.798544
O O6 0.424914 0.189300 0.913951
O O7 0.349118 0.304409 0.039144
O O8 0.819519 0.157496 0.169480
#
# Coordination Sequence:
#
# PCOD9372597 Si02
#       4
#    16  16  16  16
#     4   9  21  41  63  94 132 176 224 278 335 404
#     4  11  24  42  66  98 134 177 226 281 343 406
#     4  11  24  42  66  98 134 177 226 281 343 406
#     4   9  21  41  63  94 132 176 224 278 335 404
#
# _framework density 26.630039
#
# number of rings (size 3 to 8) (size 9 to 14) (size 15 to 20)
#    0.000    2.000    0.000    1.500    0.000   17.000 
#    0.000   15.000    0.000    0.000    0.000    0.000 
#    0.000    0.000    0.000    0.000    0.000    0.000 
#
# Total GULP energy -89536.164425 kJ/mol
# GULP energy per Si atom -5596.010277 kJ/mol
# Density = 2.656943 g / cm^3
# Si number density = 26.630039 Si / 1000 Ang^3
#
#
#
# Elastic Constant Matrix: (Units=GPa)
#
#
# Indices 1 2 3 4 5 6 
#
# 1 139.3219 36.8091 79.9420 0.0000 0.0000 0.0000
# 2 36.8091 148.5926 97.2770 0.0000 0.0000 0.0000
# 3 79.9420 97.2770 345.8439 0.0000 0.0000 0.0000
# 4 0.0000 0.0000 0.0000 25.5080 0.0000 0.0000
# 5 0.0000 0.0000 0.0000 0.0000 47.5953 0.0000
# 6 0.0000 0.0000 0.0000 0.0000 0.0000 31.8622
#
#
#
# Elastic Compliance Matrix: (Units=1/GPa)
#
#
# Indices 1 2 3 4 5 6 
#
# 1 0.008393 -0.000992 -0.001661 0.000000 0.000000 0.000000
# 2 -0.000992 0.008366 -0.002124 0.000000 0.000000 0.000000
# 3 -0.001661 -0.002124 0.003873 0.000000 0.000000 0.000000
# 4 0.000000 0.000000 0.000000 0.039203 0.000000 0.000000
# 5 0.000000 0.000000 0.000000 0.000000 0.021010 0.000000
# 6 0.000000 0.000000 0.000000 0.000000 0.000000 0.031385
#
#
# Mechanical properties :
#
#
# Convention : Reuss Voigt Hill
#
# Bulk Modulus (GPa) = 90.26668 117.97941 104.12305
# Shear Modulus (GPa) = 39.84814 48.97510 44.41162
#
# Velocity S-wave (km/s) = 3.87248 4.29312 4.08821
# Velocity P-wave (km/s) = 7.34608 8.30505 7.84024
#
# Compressibility (1/GPa) = 0.01107828
#
# Stress axis : x y z
#
# Youngs Moduli (GPa) = 119.15094 119.53328 258.20894
#
# Poissons Ratio (x) = 0.11853 0.42890
# Poissons Ratio (y) = 0.11815 0.54841
# Poissons Ratio (z) = 0.19792 0.25388
#
# Static dielectric constant tensor:
#      x y z
#    x 2.084330 0.000000 0.000000 
#    y 0.000000 2.080290 0.000000 
#    z 0.000000 0.000000 2.076430 
# 
# From -- ./inp_files/1972.got.cif
#   From: 2010.05.17/outbox.cif.g08.bks.cpg/sg43_1_cif.got.tgz:1972.got - 2010.06.03 19:21:55.
