data_PCOD9372985
_publ_section_title
;
Structure prediction by ZEFSAII (Michael W. Deem and Ramdas Pophale) SiO2 
 PCOD9372985
Probable space group: F D D 2
;
_chemical_formula_sum "Si O2"
_cell_formula_units_Z 28
_cell_length_a 24.000000
_cell_length_b 15.000000
_cell_length_c 15.000000
_cell_angle_alpha 90.000000
_cell_angle_beta 90.000000
_cell_angle_gamma 90.000000
_cell_volume 5400.000000
_symmetry_space_group_name_H-M "F D D 2"
_symmetry_group_IT_number 43
_symmetry_cell_setting 'orthorhombic'
loop_
_space_group_symop_operation_xyz
x,y,z
-x,-y,z
1/4-x,1/4+y,1/4+z
1/4+x,1/4-y,1/4+z
x,1/2+y,1/2+z
-x,1/2-y,1/2+z
1/4-x,3/4+y,3/4+z
1/4+x,3/4-y,3/4+z
1/2+x,y,1/2+z
1/2-x,-y,1/2+z
3/4-x,1/4+y,3/4+z
3/4+x,1/4-y,3/4+z
1/2+x,1/2+y,z
1/2-x,1/2-y,z
3/4-x,3/4+y,1/4+z
3/4+x,3/4-y,1/4+z
loop_
_atom_site_type_symbol
_atom_site_label
_atom_site_fract_x
_atom_site_fract_y
_atom_site_fract_z
Si Si1 0.526999 0.905941 0.525850
Si Si2 0.848297 0.387434 0.322052
Si Si3 0.128229 0.936188 0.390354
Si Si4 0.364069 0.854504 0.928623
Si Si5 0.823503 0.437211 0.608950
Si Si6 0.590965 0.670068 0.997326
Si Si7 0.497790 0.391707 0.707028
O O1 0.557316 0.916265 0.621716
O O2 0.568663 0.871109 0.449230
O O3 0.474396 0.838487 0.519343
O O4 0.500000 0.000000 0.499853
O O5 0.840514 0.343798 0.224609
O O6 0.862499 0.488782 0.293385
O O7 0.893077 0.342678 0.391937
O O8 0.792192 0.380076 0.379451
O O9 0.113318 0.907812 0.287674
O O10 0.188082 0.893318 0.421148
O O11 0.127597 0.042957 0.400093
O O12 0.412160 0.787744 0.890734
O O13 0.875808 0.407314 0.548709
O O14 0.770714 0.411230 0.545169
O O15 0.500000 0.500000 0.722339
#
# Coordination Sequence:
#
# PCOD9372985 Si02
#       7
#    16  16  16  16  16  16  16
#     4  12  23  44  69 101 137 183 232 291 365 419
#     4  11  24  43  74 103 135 187 237 295 359 422
#     4  12  25  49  68 100 153 189 236 291 362 430
#     4  12  26  45  65 101 147 192 228 291 354 442
#     4  11  24  43  71 105 138 175 240 297 358 424
#     4  11  23  43  72 106 136 177 239 301 357 419
#     4  11  24  46  76 107 133 180 243 303 357 419
#
# _framework density 5.1851849999999997
#
# number of rings (size 3 to 8) (size 9 to 14) (size 15 to 20)
#    0.000    0.571    2.857    6.429    2.000    0.000 
#    2.571    0.714    0.000    0.000    0.000    0.000 
#    0.000    0.000    0.000    0.000    0.000    0.000 
#
# Total GULP energy -156345.428252 kJ/mol
# GULP energy per Si atom -5583.765295 kJ/mol
# Density = 0.517338 g / cm^3
# Si number density = 5.185185 Si / 1000 Ang^3
#
#
#
# Elastic Constant Matrix: (Units=GPa)
#
#
# Indices 1 2 3 4 5 6 
#
# 1 59.3438 9.4527 44.2664 0.0000 0.0000 0.0000
# 2 9.4527 129.3690 35.0497 0.0000 0.0000 0.0000
# 3 44.2664 35.0497 186.4995 0.0000 0.0000 0.0000
# 4 0.0000 0.0000 0.0000 43.8533 0.0000 0.0000
# 5 0.0000 0.0000 0.0000 0.0000 42.4377 0.0000
# 6 0.0000 0.0000 0.0000 0.0000 0.0000 33.4588
#
#
#
# Elastic Compliance Matrix: (Units=1/GPa)
#
#
# Indices 1 2 3 4 5 6 
#
# 1 0.020481 -0.000189 -0.004826 0.000000 0.000000 0.000000
# 2 -0.000189 0.008146 -0.001486 0.000000 0.000000 0.000000
# 3 -0.004826 -0.001486 0.006787 0.000000 0.000000 0.000000
# 4 0.000000 0.000000 0.000000 0.022803 0.000000 0.000000
# 5 0.000000 0.000000 0.000000 0.000000 0.023564 0.000000
# 6 0.000000 0.000000 0.000000 0.000000 0.000000 0.029888
#
#
# Mechanical properties :
#
#
# Convention : Reuss Voigt Hill
#
# Bulk Modulus (GPa) = 44.61901 61.41664 53.01783
# Shear Modulus (GPa) = 37.83847 43.04617 40.44232
#
# Velocity S-wave (km/s) = 4.27588 4.56064 4.42056
# Velocity P-wave (km/s) = 6.77768 7.57684 7.18838
#
# Compressibility (1/GPa) = 0.02241197
#
# Stress axis : x y z
#
# Youngs Moduli (GPa) = 48.82648 122.75561 147.34878
#
# Poissons Ratio (x) = 0.02321 0.71105
# Poissons Ratio (y) = 0.00923 0.21897
# Poissons Ratio (z) = 0.23562 0.18243
#
# Static dielectric constant tensor:
#      x y z
#    x 1.787120 0.000000 0.000000 
#    y 0.000000 1.796120 0.000000 
#    z 0.000000 0.000000 1.729030 
# 
# From -- ./inp_files/11275.got.cif
#   From: 2010.05.17/outbox.ucp.g08.bks.cvg/sg43_6_cif.got.tgz:11275.got - 2010.06.11 16:31:01.
