data_PCOD9372146
_publ_section_title
;
Structure prediction by ZEFSAII (Michael W. Deem and Ramdas Pophale) SiO2 
 PCOD9372146
Probable space group: F D D 2
;
_chemical_formula_sum "Si O2"
_cell_formula_units_Z 96
_cell_length_a 20.639256
_cell_length_b 16.777703
_cell_length_c 11.950054
_cell_angle_alpha 90.000000
_cell_angle_beta 90.000000
_cell_angle_gamma 90.000000
_cell_volume 4138.056421
_symmetry_space_group_name_H-M "F D D 2"
_symmetry_group_IT_number 43
_symmetry_cell_setting 'orthorhombic'
loop_
_space_group_symop_operation_xyz
x,y,z
-x,-y,z
1/4-x,1/4+y,1/4+z
1/4+x,1/4-y,1/4+z
x,1/2+y,1/2+z
-x,1/2-y,1/2+z
1/4-x,3/4+y,3/4+z
1/4+x,3/4-y,3/4+z
1/2+x,y,1/2+z
1/2-x,-y,1/2+z
3/4-x,1/4+y,3/4+z
3/4+x,1/4-y,3/4+z
1/2+x,1/2+y,z
1/2-x,1/2-y,z
3/4-x,3/4+y,1/4+z
3/4+x,3/4-y,1/4+z
loop_
_atom_site_type_symbol
_atom_site_label
_atom_site_fract_x
_atom_site_fract_y
_atom_site_fract_z
Si Si1 0.500000 0.000000 0.201231
Si Si2 0.750000 0.250000 0.841041
Si Si3 0.070723 0.419605 0.402347
Si Si4 0.614991 0.737395 0.625389
Si Si5 0.449236 0.877609 0.751802
Si Si6 0.508693 0.248017 0.943677
Si Si7 0.367288 0.442650 0.617522
O O1 0.543576 0.947894 0.284734
O O2 0.444334 0.954700 0.133424
O O3 0.692889 0.233334 0.752295
O O4 0.750226 0.173674 0.922611
O O5 0.146105 0.403438 0.413991
O O6 0.030089 0.338857 0.423856
O O7 0.661627 0.802384 0.568701
O O8 0.550260 0.726350 0.552554
O O9 0.647273 0.650809 0.628090
O O10 0.600718 0.769394 0.748178
O O11 0.469931 0.810358 0.840545
O O12 0.431851 0.235624 0.952745
#
# Coordination Sequence:
#
# PCOD9372146 Si02
#       7
#     8   8  16  16  16  16  16
#     4  11  28  49  66 106 146 203 230 309 368 450
#     4  11  24  41  76 104 138 197 242 295 358 424
#     4  10  24  47  68 106 145 184 247 290 373 436
#     4  11  25  47  69 110 140 192 242 302 371 438
#     4  11  23  43  75 105 144 178 242 309 356 430
#     4  11  25  43  74 109 140 191 238 310 357 444
#     4  12  27  46  73 100 153 191 246 298 372 445
#
# _framework density 23.199297000000001
#
# number of rings (size 3 to 8) (size 9 to 14) (size 15 to 20)
#    0.000    1.000    1.667    4.000   11.667    0.667 
#    3.000    0.000    0.000    0.000    0.000    0.000 
#    0.000    0.000    0.000    0.000    0.000    0.000 
#
# Total GULP energy -134162.449228 kJ/mol
# GULP energy per Si atom -5590.102051 kJ/mol
# Density = 2.314649 g / cm^3
# Si number density = 23.199297 Si / 1000 Ang^3
#
#
#
# Elastic Constant Matrix: (Units=GPa)
#
#
# Indices 1 2 3 4 5 6 
#
# 1 80.2087 7.9673 18.9666 0.0000 0.0000 0.0000
# 2 7.9673 102.6040 44.0238 0.0000 0.0000 0.0000
# 3 18.9666 44.0238 101.2680 0.0000 0.0000 0.0000
# 4 0.0000 0.0000 0.0000 23.8594 0.0000 0.0000
# 5 0.0000 0.0000 0.0000 0.0000 12.7619 0.0000
# 6 0.0000 0.0000 0.0000 0.0000 0.0000 29.6672
#
#
#
# Elastic Compliance Matrix: (Units=1/GPa)
#
#
# Indices 1 2 3 4 5 6 
#
# 1 0.013045 0.000043 -0.002462 0.000000 0.000000 0.000000
# 2 0.000043 0.011981 -0.005217 0.000000 0.000000 0.000000
# 3 -0.002462 -0.005217 0.012604 0.000000 0.000000 0.000000
# 4 0.000000 0.000000 0.000000 0.041912 0.000000 0.000000
# 5 0.000000 0.000000 0.000000 0.000000 0.078358 0.000000
# 6 0.000000 0.000000 0.000000 0.000000 0.000000 0.033707
#
#
# Mechanical properties :
#
#
# Convention : Reuss Voigt Hill
#
# Bulk Modulus (GPa) = 44.72370 47.33290 46.02830
# Shear Modulus (GPa) = 23.32830 27.46589 25.39709
#
# Velocity S-wave (km/s) = 3.17450 3.44453 3.31227
# Velocity P-wave (km/s) = 5.72333 6.02219 5.87466
#
# Compressibility (1/GPa) = 0.02235951
#
# Stress axis : x y z
#
# Youngs Moduli (GPa) = 76.65543 83.46467 79.34153
#
# Poissons Ratio (x) = -0.00363 0.19535
# Poissons Ratio (y) = -0.00333 0.41390
# Poissons Ratio (z) = 0.18874 0.43541
#
# Static dielectric constant tensor:
#      x y z
#    x 1.945500 0.000000 0.000000 
#    y 0.000000 1.914710 0.000000 
#    z 0.000000 0.000000 1.859030 
# 
# From -- ./inp_files/6714.got.cif
#   From: 2010.05.17/outbox.cif.g08.bks.cpg/sg43_4_cif.got.tgz:6714.got - 2010.06.03 19:21:55.
