data_PCOD9372755
_publ_section_title
;
Structure prediction by ZEFSAII (Michael W. Deem and Ramdas Pophale) SiO2 
 PCOD9372755
Probable space group: F D D 2
;
_chemical_formula_sum "Si O2"
_cell_formula_units_Z 64
_cell_length_a 13.657428
_cell_length_b 12.719557
_cell_length_c 14.212899
_cell_angle_alpha 90.000000
_cell_angle_beta 90.000000
_cell_angle_gamma 90.000000
_cell_volume 2469.014130
_symmetry_space_group_name_H-M "F D D 2"
_symmetry_group_IT_number 43
_symmetry_cell_setting 'orthorhombic'
loop_
_space_group_symop_operation_xyz
x,y,z
-x,-y,z
1/4-x,1/4+y,1/4+z
1/4+x,1/4-y,1/4+z
x,1/2+y,1/2+z
-x,1/2-y,1/2+z
1/4-x,3/4+y,3/4+z
1/4+x,3/4-y,3/4+z
1/2+x,y,1/2+z
1/2-x,-y,1/2+z
3/4-x,1/4+y,3/4+z
3/4+x,1/4-y,3/4+z
1/2+x,1/2+y,z
1/2-x,1/2-y,z
3/4-x,3/4+y,1/4+z
3/4+x,3/4-y,1/4+z
loop_
_atom_site_type_symbol
_atom_site_label
_atom_site_fract_x
_atom_site_fract_y
_atom_site_fract_z
Si Si1 0.914605 0.754471 0.006130
Si Si2 0.511790 0.610877 0.273386
Si Si3 0.687466 0.853886 0.842346
Si Si4 0.672920 0.571097 0.120854
O O1 0.835952 0.831747 0.050609
O O2 0.989642 0.701419 0.079676
O O3 0.867442 0.663548 0.941676
O O4 0.982326 0.824985 0.937468
O O5 0.500000 0.500000 0.329039
O O6 0.398523 0.643013 0.264771
O O7 0.575537 0.580803 0.183324
O O8 0.566792 0.708462 0.320911
O O9 0.750000 0.750000 0.829941
#
# Coordination Sequence:
#
# PCOD9372755 Si02
#       4
#    16  16  16  16
#     4  11  28  52  81 116 164 215 279 338 407 493
#     4  11  26  52  80 117 161 213 276 342 416 496
#     4  11  28  50  78 117 164 219 269 339 416 489
#     4  11  28  50  84 117 160 215 276 340 408 491
#
# _framework density 25.921277
#
# number of rings (size 3 to 8) (size 9 to 14) (size 15 to 20)
#    0.000    1.000    2.500    0.000   10.500    6.000 
#    4.500    0.000    0.000    0.000    0.000    0.000 
#    0.000    0.000    0.000    0.000    0.000    0.000 
#
# Total GULP energy -89668.828877 kJ/mol
# GULP energy per Si atom -5604.301805 kJ/mol
# Density = 2.586228 g / cm^3
# Si number density = 25.921277 Si / 1000 Ang^3
#
#
#
# Elastic Constant Matrix: (Units=GPa)
#
#
# Indices 1 2 3 4 5 6 
#
# 1 127.9841 62.6827 35.6494 0.0000 0.0000 0.0000
# 2 62.6827 166.1414 61.2674 0.0000 0.0000 0.0000
# 3 35.6494 61.2674 67.3183 0.0000 0.0000 0.0000
# 4 0.0000 0.0000 0.0000 36.4806 0.0000 0.0000
# 5 0.0000 0.0000 0.0000 0.0000 29.2881 0.0000
# 6 0.0000 0.0000 0.0000 0.0000 0.0000 67.8232
#
#
#
# Elastic Compliance Matrix: (Units=1/GPa)
#
#
# Indices 1 2 3 4 5 6 
#
# 1 0.009918 -0.002717 -0.002780 0.000000 0.000000 0.000000
# 2 -0.002717 0.009804 -0.007484 0.000000 0.000000 0.000000
# 3 -0.002780 -0.007484 0.023138 0.000000 0.000000 0.000000
# 4 0.000000 0.000000 0.000000 0.027412 0.000000 0.000000
# 5 0.000000 0.000000 0.000000 0.000000 0.034144 0.000000
# 6 0.000000 0.000000 0.000000 0.000000 0.000000 0.014744
#
#
# Mechanical properties :
#
#
# Convention : Reuss Voigt Hill
#
# Bulk Modulus (GPa) = 59.17415 75.62696 67.40056
# Shear Modulus (GPa) = 33.16667 40.17465 36.67066
#
# Velocity S-wave (km/s) = 3.58091 3.94111 3.76532
# Velocity P-wave (km/s) = 6.32259 7.06745 6.70537
#
# Compressibility (1/GPa) = 0.01689927
#
# Stress axis : x y z
#
# Youngs Moduli (GPa) = 100.82213 102.00099 43.21920
#
# Poissons Ratio (x) = 0.27714 0.12013
# Poissons Ratio (y) = 0.27394 0.32344
# Poissons Ratio (z) = 0.28025 0.76335
#
# Static dielectric constant tensor:
#      x y z
#    x 2.051470 0.000000 0.000000 
#    y 0.000000 2.012210 0.000000 
#    z 0.000000 0.000000 2.127870 
# 
# From -- ./inp_files/13691.got.cif
#   From: 2010.05.17/outbox.cif.g08.bks.cpg/sg43_7_cif.got.tgz:13691.got - 2010.06.03 19:21:55.
