data_PCOD9372742
_publ_section_title
;
Structure prediction by ZEFSAII (Michael W. Deem and Ramdas Pophale) SiO2 
 PCOD9372742
Probable space group: F D D 2
;
_chemical_formula_sum "Si O2"
_cell_formula_units_Z 112
_cell_length_a 11.355420
_cell_length_b 27.877855
_cell_length_c 14.571034
_cell_angle_alpha 90.000000
_cell_angle_beta 90.000000
_cell_angle_gamma 90.000000
_cell_volume 4612.675768
_symmetry_space_group_name_H-M "F D D 2"
_symmetry_group_IT_number 43
_symmetry_cell_setting 'orthorhombic'
loop_
_space_group_symop_operation_xyz
x,y,z
-x,-y,z
1/4-x,1/4+y,1/4+z
1/4+x,1/4-y,1/4+z
x,1/2+y,1/2+z
-x,1/2-y,1/2+z
1/4-x,3/4+y,3/4+z
1/4+x,3/4-y,3/4+z
1/2+x,y,1/2+z
1/2-x,-y,1/2+z
3/4-x,1/4+y,3/4+z
3/4+x,1/4-y,3/4+z
1/2+x,1/2+y,z
1/2-x,1/2-y,z
3/4-x,3/4+y,1/4+z
3/4+x,3/4-y,1/4+z
loop_
_atom_site_type_symbol
_atom_site_label
_atom_site_fract_x
_atom_site_fract_y
_atom_site_fract_z
Si Si1 0.890593 0.863897 0.111280
Si Si2 0.276733 0.305326 0.660063
Si Si3 0.519907 0.255958 0.417599
Si Si4 0.136956 0.409457 0.094494
Si Si5 0.880181 0.268042 0.731596
Si Si6 0.855327 0.923981 0.265455
Si Si7 0.273418 0.438593 0.840912
O O1 0.771742 0.891383 0.082496
O O2 0.867394 0.814245 0.165371
O O3 0.937161 0.898629 0.191272
O O4 0.982141 0.854253 0.030334
O O5 0.250000 0.250000 0.678363
O O6 0.321410 0.330230 0.750111
O O7 0.160585 0.325991 0.614935
O O8 0.382764 0.311824 0.588789
O O9 0.608242 0.211772 0.393161
O O10 0.461344 0.274252 0.322596
O O11 0.423412 0.226383 0.477409
O O12 0.568054 0.295327 0.489317
O O13 0.069875 0.362085 0.126786
O O14 0.750000 0.250000 0.759140
O O15 0.938699 0.228225 0.665681
#
# Coordination Sequence:
#
# PCOD9372742 Si02
#       7
#    16  16  16  16  16  16  16
#     4  11  26  48  75 111 149 200 258 324 389 482
#     4  12  26  50  74 111 161 201 261 335 394 475
#     4  11  26  47  77 111 154 208 260 326 399 470
#     4  11  28  48  78 113 158 204 269 326 401 476
#     4  12  25  46  77 108 150 202 257 316 393 471
#     4  11  27  46  75 108 154 198 263 318 394 475
#     4  12  26  52  77 113 157 207 266 330 401 475
#
# _framework density 24.280916999999999
#
# number of rings (size 3 to 8) (size 9 to 14) (size 15 to 20)
#    0.000    0.571    5.714    0.000   14.000    0.000 
#    2.571    0.000    0.000    0.000    0.000    0.000 
#    0.000    0.000    0.000    0.000    0.000    0.000 
#
# Total GULP energy -156573.117664 kJ/mol
# GULP energy per Si atom -5591.897059 kJ/mol
# Density = 2.422565 g / cm^3
# Si number density = 24.280917 Si / 1000 Ang^3
#
#
#
# Elastic Constant Matrix: (Units=GPa)
#
#
# Indices 1 2 3 4 5 6 
#
# 1 47.0822 19.6128 15.7762 0.0000 0.0000 0.0000
# 2 19.6128 57.4442 9.3961 0.0000 0.0000 0.0000
# 3 15.7762 9.3961 125.7102 0.0000 0.0000 0.0000
# 4 0.0000 0.0000 0.0000 24.4361 0.0000 0.0000
# 5 0.0000 0.0000 0.0000 0.0000 44.9707 0.0000
# 6 0.0000 0.0000 0.0000 0.0000 0.0000 21.0038
#
#
#
# Elastic Compliance Matrix: (Units=1/GPa)
#
#
# Indices 1 2 3 4 5 6 
#
# 1 0.025566 -0.008306 -0.002588 0.000000 0.000000 0.000000
# 2 -0.008306 0.020322 -0.000477 0.000000 0.000000 0.000000
# 3 -0.002588 -0.000477 0.008315 0.000000 0.000000 0.000000
# 4 0.000000 0.000000 0.000000 0.040923 0.000000 0.000000
# 5 0.000000 0.000000 0.000000 0.000000 0.022237 0.000000
# 6 0.000000 0.000000 0.000000 0.000000 0.000000 0.047611
#
#
# Mechanical properties :
#
#
# Convention : Reuss Voigt Hill
#
# Bulk Modulus (GPa) = 31.78288 35.53410 33.65849
# Shear Modulus (GPa) = 25.22684 30.44555 27.83620
#
# Velocity S-wave (km/s) = 3.22678 3.54487 3.38956
# Velocity P-wave (km/s) = 5.19624 5.60546 5.40472
#
# Compressibility (1/GPa) = 0.03146348
#
# Stress axis : x y z
#
# Youngs Moduli (GPa) = 39.11380 49.20795 120.26206
#
# Poissons Ratio (x) = 0.40871 0.31120
# Poissons Ratio (y) = 0.32487 0.05732
# Poissons Ratio (z) = 0.10121 0.02345
#
# Static dielectric constant tensor:
#      x y z
#    x 1.945310 0.000000 0.000000 
#    y 0.000000 1.960240 0.000000 
#    z 0.000000 0.000000 1.953410 
# 
# From -- ./inp_files/9784.got.cif
#   From: 2010.05.17/outbox.cif.g08.bks.cpg/sg43_5_cif.got.tgz:9784.got - 2010.06.03 19:21:55.
