data_PCOD9372122
_publ_section_title
;
Structure prediction by ZEFSAII (Michael W. Deem and Ramdas Pophale) SiO2 
 PCOD9372122
Probable space group: F D D 2
;
_chemical_formula_sum "Si O2"
_cell_formula_units_Z 88
_cell_length_a 5.028886
_cell_length_b 24.456440
_cell_length_c 27.046754
_cell_angle_alpha 90.000000
_cell_angle_beta 90.000000
_cell_angle_gamma 90.000000
_cell_volume 3326.443727
_symmetry_space_group_name_H-M "F D D 2"
_symmetry_group_IT_number 43
_symmetry_cell_setting 'orthorhombic'
loop_
_space_group_symop_operation_xyz
x,y,z
-x,-y,z
1/4-x,1/4+y,1/4+z
1/4+x,1/4-y,1/4+z
x,1/2+y,1/2+z
-x,1/2-y,1/2+z
1/4-x,3/4+y,3/4+z
1/4+x,3/4-y,3/4+z
1/2+x,y,1/2+z
1/2-x,-y,1/2+z
3/4-x,1/4+y,3/4+z
3/4+x,1/4-y,3/4+z
1/2+x,1/2+y,z
1/2-x,1/2-y,z
3/4-x,3/4+y,1/4+z
3/4+x,3/4-y,1/4+z
loop_
_atom_site_type_symbol
_atom_site_label
_atom_site_fract_x
_atom_site_fract_y
_atom_site_fract_z
Si Si1 0.902787 0.804522 0.968860
Si Si2 0.681849 0.839273 0.065688
Si Si3 0.732847 0.964603 0.068479
Si Si4 0.058065 0.646090 0.659869
Si Si5 0.000000 0.000000 0.303129
Si Si6 0.679072 0.950141 0.950892
O O1 0.750000 0.750000 0.951974
O O2 0.066208 0.837986 0.928016
O O3 0.712797 0.838474 0.006429
O O4 0.097712 0.787425 0.013234
O O5 0.634364 0.902455 0.079620
O O6 0.938322 0.835612 0.102387
O O7 0.474376 0.790273 0.077297
O O8 0.500000 0.000000 0.089996
O O9 0.719570 0.962408 0.008695
O O10 0.000000 0.000000 0.080665
O O11 0.277042 0.687257 0.682345
O O12 0.767870 0.651844 0.682658
O O13 0.500000 0.000000 0.930976
#
# Coordination Sequence:
#
# PCOD9372122 Si02
#       6
#    16  16  16  16   8  16
#     4  10  24  46  69 101 142 194 242 305 377 455
#     4  11  26  44  72 108 144 196 256 312 384 455
#     4  11  24  44  74 103 143 193 241 307 383 458
#     4  12  26  43  71 104 142 186 242 308 363 458
#     4  10  24  46  76 100 152 200 254 314 388 462
#     4  11  24  42  68 101 138 178 231 294 374 434
#
# _framework density 26.454677
#
# number of rings (size 3 to 8) (size 9 to 14) (size 15 to 20)
#    0.000    1.091    1.818    3.818    8.909    3.636 
#    1.636    0.000    0.000    0.000    0.000    0.000 
#    0.000    0.000    0.000    0.000    0.000    0.000 
#
# Total GULP energy -122537.974932 kJ/mol
# GULP energy per Si atom -5569.907951 kJ/mol
# Density = 2.639447 g / cm^3
# Si number density = 26.454677 Si / 1000 Ang^3
#
#
#
# Elastic Constant Matrix: (Units=GPa)
#
#
# Indices 1 2 3 4 5 6 
#
# 1 113.7544 27.0375 19.0119 0.0000 0.0000 0.0000
# 2 27.0375 153.5840 18.5106 0.0000 0.0000 0.0000
# 3 19.0119 18.5106 136.5310 0.0000 0.0000 0.0000
# 4 0.0000 0.0000 0.0000 -10.1065 0.0000 0.0000
# 5 0.0000 0.0000 0.0000 0.0000 -76.2500 0.0000
# 6 0.0000 0.0000 0.0000 0.0000 0.0000 36.4370
#
#
#
# Elastic Compliance Matrix: (Units=1/GPa)
#
#
# Indices 1 2 3 4 5 6 
#
# 1 0.009333 -0.001511 -0.001095 0.000000 0.000000 0.000000
# 2 -0.001511 0.006864 -0.000720 0.000000 0.000000 0.000000
# 3 -0.001095 -0.000720 0.007574 0.000000 0.000000 0.000000
# 4 0.000000 0.000000 0.000000 -0.098946 0.000000 0.000000
# 5 0.000000 0.000000 0.000000 0.000000 -0.013115 0.000000
# 6 0.000000 0.000000 0.000000 0.000000 0.000000 0.027445
#
#
# Mechanical properties :
#
#
# Convention : Reuss Voigt Hill
#
# Bulk Modulus (GPa) = 58.41351 59.22105 58.81728
# Shear Modulus (GPa) = -103.12168 12.63673 -45.24248
#
# Velocity S-wave (km/s) = -6.25021 2.18795 -4.13993
# Velocity P-wave (km/s) = 5.47342 5.36817 0.75533
#
# Compressibility (1/GPa) = 0.01711933
#
# Stress axis : x y z
#
# Youngs Moduli (GPa) = 107.14680 145.68962 132.02319
#
# Poissons Ratio (x) = 0.22015 0.14453
# Poissons Ratio (y) = 0.16191 0.09508
# Poissons Ratio (z) = 0.11730 0.10492
#
# Static dielectric constant tensor:
#      x y z
#    x 2.321190 0.000000 0.000000 
#    y 0.000000 3.645270 0.000000 
#    z 0.000000 0.000000 2.092300 
# 
# From -- ./inp_files/27243.got.cif
#   From: 2010.05.17/outbox.cif.g08.bks.cpg/sg43_14_cif.got.tgz:27243.got - 2010.06.03 19:21:55.
