data_PCOD9372797
_publ_section_title
;
Structure prediction by ZEFSAII (Michael W. Deem and Ramdas Pophale) SiO2 
 PCOD9372797
Probable space group: F D D 2
;
_chemical_formula_sum "Si O2"
_cell_formula_units_Z 72
_cell_length_a 22.264345
_cell_length_b 7.810101
_cell_length_c 20.214542
_cell_angle_alpha 90.000000
_cell_angle_beta 90.000000
_cell_angle_gamma 90.000000
_cell_volume 3515.041681
_symmetry_space_group_name_H-M "F D D 2"
_symmetry_group_IT_number 43
_symmetry_cell_setting 'orthorhombic'
loop_
_space_group_symop_operation_xyz
x,y,z
-x,-y,z
1/4-x,1/4+y,1/4+z
1/4+x,1/4-y,1/4+z
x,1/2+y,1/2+z
-x,1/2-y,1/2+z
1/4-x,3/4+y,3/4+z
1/4+x,3/4-y,3/4+z
1/2+x,y,1/2+z
1/2-x,-y,1/2+z
3/4-x,1/4+y,3/4+z
3/4+x,1/4-y,3/4+z
1/2+x,1/2+y,z
1/2-x,1/2-y,z
3/4-x,3/4+y,1/4+z
3/4+x,3/4-y,1/4+z
loop_
_atom_site_type_symbol
_atom_site_label
_atom_site_fract_x
_atom_site_fract_y
_atom_site_fract_z
Si Si1 0.639510 0.548372 0.333490
Si Si2 0.461461 0.171191 0.801699
Si Si3 0.750000 0.250000 0.628484
Si Si4 0.501643 0.704473 0.660992
Si Si5 0.626952 0.122217 0.678892
O O1 0.600741 0.373521 0.338616
O O2 0.708956 0.509330 0.347980
O O3 0.625943 0.593769 0.257563
O O4 0.620479 0.699884 0.383759
O O5 0.492618 0.332469 0.834325
O O6 0.462291 0.216191 0.723860
O O7 0.500000 0.000000 0.810445
O O8 0.687847 0.227178 0.666914
O O9 0.500000 0.500000 0.666937
O O10 0.434865 0.781651 0.660350
#
# Coordination Sequence:
#
# PCOD9372797 Si02
#       5
#    16  16   8  16  16
#     4  12  25  48  76 108 148 201 255 317 385 464
#     4  12  22  47  73 101 147 194 244 307 382 444
#     4  12  26  44  74 108 142 192 252 308 376 462
#     4  12  25  48  75 107 154 204 251 316 393 466
#     4  12  26  46  75 109 152 198 254 321 386 460
#
# _framework density 20.483398000000001
#
# number of rings (size 3 to 8) (size 9 to 14) (size 15 to 20)
#    0.000    0.000    7.778    2.000    3.111    0.000 
#    4.000    0.000    0.000    0.000    0.000    0.000 
#    0.000    0.000    0.000    0.000    0.000    0.000 
#
# Total GULP energy -100540.208031 kJ/mol
# GULP energy per Si atom -5585.567113 kJ/mol
# Density = 2.043678 g / cm^3
# Si number density = 20.483398 Si / 1000 Ang^3
#
#
#
# Elastic Constant Matrix: (Units=GPa)
#
#
# Indices 1 2 3 4 5 6 
#
# 1 165.7544 46.8935 46.7774 0.0000 0.0000 0.0000
# 2 46.8935 125.5007 35.6960 0.0000 0.0000 0.0000
# 3 46.7774 35.6960 79.0897 0.0000 0.0000 0.0000
# 4 0.0000 0.0000 0.0000 22.4103 0.0000 0.0000
# 5 0.0000 0.0000 0.0000 0.0000 33.4519 0.0000
# 6 0.0000 0.0000 0.0000 0.0000 0.0000 39.9187
#
#
#
# Elastic Compliance Matrix: (Units=1/GPa)
#
#
# Indices 1 2 3 4 5 6 
#
# 1 0.007575 -0.001785 -0.003674 0.000000 0.000000 0.000000
# 2 -0.001785 0.009562 -0.003260 0.000000 0.000000 0.000000
# 3 -0.003674 -0.003260 0.016288 0.000000 0.000000 0.000000
# 4 0.000000 0.000000 0.000000 0.044622 0.000000 0.000000
# 5 0.000000 0.000000 0.000000 0.000000 0.029894 0.000000
# 6 0.000000 0.000000 0.000000 0.000000 0.000000 0.025051
#
#
# Mechanical properties :
#
#
# Convention : Reuss Voigt Hill
#
# Bulk Modulus (GPa) = 62.55291 69.89764 66.22527
# Shear Modulus (GPa) = 32.10045 35.22138 33.66092
#
# Velocity S-wave (km/s) = 3.96301 4.15119 4.05819
# Velocity P-wave (km/s) = 7.17950 7.56139 7.37292
#
# Compressibility (1/GPa) = 0.01598647
#
# Stress axis : x y z
#
# Youngs Moduli (GPa) = 132.01191 104.57643 61.39317
#
# Poissons Ratio (x) = 0.18670 0.22559
# Poissons Ratio (y) = 0.23568 0.20014
# Poissons Ratio (z) = 0.48508 0.34091
#
# Static dielectric constant tensor:
#      x y z
#    x 1.808700 0.000000 0.000000 
#    y 0.000000 1.741990 0.000000 
#    z 0.000000 0.000000 1.742730 
# 
# From -- ./inp_files/12550.got.cif
#   From: 2010.05.17/outbox.cif.g08.bks.cpg/sg43_7_cif.got.tgz:12550.got - 2010.06.03 19:21:55.
