data_PCOD9372728
_publ_section_title
;
Structure prediction by ZEFSAII (Michael W. Deem and Ramdas Pophale) SiO2 
 PCOD9372728
Probable space group: F D D 2
;
_chemical_formula_sum "Si O2"
_cell_formula_units_Z 88
_cell_length_a 29.056993
_cell_length_b 22.246409
_cell_length_c 5.185382
_cell_angle_alpha 90.000000
_cell_angle_beta 90.000000
_cell_angle_gamma 90.000000
_cell_volume 3351.902227
_symmetry_space_group_name_H-M "F D D 2"
_symmetry_group_IT_number 43
_symmetry_cell_setting 'orthorhombic'
loop_
_space_group_symop_operation_xyz
x,y,z
-x,-y,z
1/4-x,1/4+y,1/4+z
1/4+x,1/4-y,1/4+z
x,1/2+y,1/2+z
-x,1/2-y,1/2+z
1/4-x,3/4+y,3/4+z
1/4+x,3/4-y,3/4+z
1/2+x,y,1/2+z
1/2-x,-y,1/2+z
3/4-x,1/4+y,3/4+z
3/4+x,1/4-y,3/4+z
1/2+x,1/2+y,z
1/2-x,1/2-y,z
3/4-x,3/4+y,1/4+z
3/4+x,3/4-y,1/4+z
loop_
_atom_site_type_symbol
_atom_site_label
_atom_site_fract_x
_atom_site_fract_y
_atom_site_fract_z
Si Si1 0.247988 0.621451 0.465760
Si Si2 0.416679 0.714198 0.824767
Si Si3 0.606904 0.540243 0.579389
Si Si4 0.684918 0.686170 0.610559
Si Si5 0.418686 0.837185 0.962417
Si Si6 0.500000 0.500000 0.979459
O O1 0.208123 0.582358 0.598923
O O2 0.222117 0.637560 0.195905
O O3 0.292838 0.580428 0.433668
O O4 0.259504 0.686557 0.586134
O O5 0.380818 0.693996 0.601550
O O6 0.394674 0.721372 0.107605
O O7 0.429069 0.784039 0.763213
O O8 0.578978 0.477983 0.604542
O O9 0.575832 0.590976 0.439968
O O10 0.636225 0.662840 0.510203
O O11 0.707686 0.731055 0.410366
#
# Coordination Sequence:
#
# PCOD9372728 Si02
#       6
#    16  16  16  16  16   8
#     4  12  27  50  79 120 166 215 275 347 414 502
#     4  11  28  49  77 116 164 207 267 338 414 490
#     4  11  25  49  81 112 155 214 269 340 402 491
#     4  11  26  48  75 118 155 210 286 334 411 493
#     4  11  26  48  77 112 159 213 262 336 417 485
#     4  12  26  48  86 114 160 222 286 348 406 496
#
# _framework density 26.25375
#
# number of rings (size 3 to 8) (size 9 to 14) (size 15 to 20)
#    0.000    0.727    1.818    3.818   12.727    2.909 
#    9.818    0.000    0.000    0.000    0.000    0.000 
#    0.000    0.000    0.000    0.000    0.000    0.000 
#
# Total GULP energy -122827.634020 kJ/mol
# GULP energy per Si atom -5583.074274 kJ/mol
# Density = 2.619399 g / cm^3
# Si number density = 26.253750 Si / 1000 Ang^3
#
#
#
# Elastic Constant Matrix: (Units=GPa)
#
#
# Indices 1 2 3 4 5 6 
#
# 1 137.9030 29.8081 45.8668 -0.0529 0.0007 -0.0074
# 2 29.8081 117.8928 20.9828 -0.4419 0.0395 0.0566
# 3 45.8668 20.9828 92.8124 -0.4823 0.0593 0.0485
# 4 -0.0529 -0.4419 -0.4823 43.4354 0.0465 0.0487
# 5 0.0007 0.0395 0.0593 0.0465 23.3855 -0.0226
# 6 -0.0074 0.0566 0.0485 0.0487 -0.0226 60.0864
#
#
#
# Elastic Compliance Matrix: (Units=1/GPa)
#
#
# Indices 1 2 3 4 5 6 
#
# 1 0.008937 -0.001535 -0.004070 -0.000050 0.000013 0.000006
# 2 -0.001535 0.009102 -0.001299 0.000076 -0.000012 -0.000008
# 3 -0.004070 -0.001299 0.013080 0.000127 -0.000031 -0.000010
# 4 -0.000050 0.000076 0.000127 0.023025 -0.000046 -0.000019
# 5 0.000013 -0.000012 -0.000031 -0.000046 0.042762 0.000016
# 6 0.000006 -0.000008 -0.000010 -0.000019 0.000016 0.016643
#
#
# Mechanical properties :
#
#
# Convention : Reuss Voigt Hill
#
# Bulk Modulus (GPa) = 57.76545 60.21374 58.98959
# Shear Modulus (GPa) = 37.55845 42.17816 39.86830
#
# Velocity S-wave (km/s) = 3.78642 4.01254 3.90112
# Velocity P-wave (km/s) = 6.41611 6.66726 6.54289
#
# Compressibility (1/GPa) = 0.01731139
#
# Stress axis : x y z
#
# Youngs Moduli (GPa) = 111.89522 109.86691 76.45347
#
# Poissons Ratio (x) = 0.16870 0.31114
# Poissons Ratio (y) = 0.17181 0.09928
# Poissons Ratio (z) = 0.45538 0.14266
#
# Static dielectric constant tensor:
#      x y z
#    x 2.118800 -0.000020 -0.000020 
#    y -0.000020 2.191490 -0.000030 
#    z -0.000020 -0.000030 2.095800 
# 
# From -- ./inp_files/1383.got.cif
#   From: 2010.05.17/outbox.cif.g08.bks.cpg/sg43_1_cif.got.tgz:1383.got - 2010.06.03 19:21:55.
