data_PCOD9372528
_publ_section_title
;
Structure prediction by ZEFSAII (Michael W. Deem and Ramdas Pophale) SiO2 
 PCOD9372528
Probable space group: F D D 2
;
_chemical_formula_sum "Si O2"
_cell_formula_units_Z 120
_cell_length_a 23.296537
_cell_length_b 8.818069
_cell_length_c 25.502370
_cell_angle_alpha 90.000000
_cell_angle_beta 90.000000
_cell_angle_gamma 90.000000
_cell_volume 5238.963874
_symmetry_space_group_name_H-M "F D D 2"
_symmetry_group_IT_number 43
_symmetry_cell_setting 'orthorhombic'
loop_
_space_group_symop_operation_xyz
x,y,z
-x,-y,z
1/4-x,1/4+y,1/4+z
1/4+x,1/4-y,1/4+z
x,1/2+y,1/2+z
-x,1/2-y,1/2+z
1/4-x,3/4+y,3/4+z
1/4+x,3/4-y,3/4+z
1/2+x,y,1/2+z
1/2-x,-y,1/2+z
3/4-x,1/4+y,3/4+z
3/4+x,1/4-y,3/4+z
1/2+x,1/2+y,z
1/2-x,1/2-y,z
3/4-x,3/4+y,1/4+z
3/4+x,3/4-y,1/4+z
loop_
_atom_site_type_symbol
_atom_site_label
_atom_site_fract_x
_atom_site_fract_y
_atom_site_fract_z
Si Si1 0.442038 0.092342 0.162930
Si Si2 0.846900 0.603943 0.089007
Si Si3 0.883486 0.304793 0.041084
Si Si4 0.189992 0.332783 0.448086
Si Si5 0.510712 0.165912 0.966355
Si Si6 0.889909 0.773130 0.000839
Si Si7 0.930844 0.511991 0.584054
Si Si8 0.500000 0.000000 0.412138
O O1 0.412536 0.133813 0.108079
O O2 0.453036 0.240088 0.197361
O O3 0.387338 0.022905 0.193096
O O4 0.500000 0.000000 0.157038
O O5 0.847567 0.427346 0.074112
O O6 0.801777 0.681460 0.127616
O O7 0.842109 0.687333 0.033942
O O8 0.911398 0.184714 0.080310
O O9 0.844354 0.223049 0.997943
O O10 0.936816 0.363324 0.006012
O O11 0.250000 0.250000 0.447473
O O12 0.161676 0.297039 0.391304
O O13 0.451138 0.195298 0.995688
O O14 0.519966 0.340266 0.941474
O O15 0.500000 0.000000 0.937350
O O16 0.903509 0.925310 0.034081
O O17 0.000000 0.500000 0.580144
#
# Coordination Sequence:
#
# PCOD9372528 Si02
#       8
#    16  16  16  16  16  16  16   8
#     4  12  28  47  74 108 155 201 254 322 396 480
#     4  12  29  47  77 110 156 203 266 325 404 474
#     4  12  26  46  74 111 154 198 266 326 390 484
#     4  11  27  46  68 106 146 198 252 321 393 470
#     4  12  25  46  82 112 154 203 271 328 391 481
#     4  12  24  47  73 112 145 202 248 319 401 461
#     4  11  23  42  77 107 144 200 256 322 394 466
#     4  12  28  56  76 114 164 214 268 338 410 470
#
# _framework density 22.905294000000001
#
# number of rings (size 3 to 8) (size 9 to 14) (size 15 to 20)
#    0.000    0.267    6.667    1.600    8.400    1.067 
#    0.000    0.000    0.000    0.000    0.000    0.000 
#    0.000    0.000    0.000    0.000    0.000    0.000 
#
# Total GULP energy -167291.638619 kJ/mol
# GULP energy per Si atom -5576.387954 kJ/mol
# Density = 2.285316 g / cm^3
# Si number density = 22.905294 Si / 1000 Ang^3
#
#
#
# Elastic Constant Matrix: (Units=GPa)
#
#
# Indices 1 2 3 4 5 6 
#
# 1 95.4921 40.0236 35.5183 0.0000 0.0000 0.0000
# 2 40.0236 158.0063 41.5019 0.0000 0.0000 0.0000
# 3 35.5183 41.5019 68.0598 0.0000 0.0000 0.0000
# 4 0.0000 0.0000 0.0000 30.6593 0.0000 0.0000
# 5 0.0000 0.0000 0.0000 0.0000 27.2855 0.0000
# 6 0.0000 0.0000 0.0000 0.0000 0.0000 24.9634
#
#
#
# Elastic Compliance Matrix: (Units=1/GPa)
#
#
# Indices 1 2 3 4 5 6 
#
# 1 0.013438 -0.001860 -0.005879 0.000000 0.000000 0.000000
# 2 -0.001860 0.007793 -0.003782 0.000000 0.000000 0.000000
# 3 -0.005879 -0.003782 0.020067 0.000000 0.000000 0.000000
# 4 0.000000 0.000000 0.000000 0.032617 0.000000 0.000000
# 5 0.000000 0.000000 0.000000 0.000000 0.036650 0.000000
# 6 0.000000 0.000000 0.000000 0.000000 0.000000 0.040059
#
#
# Mechanical properties :
#
#
# Convention : Reuss Voigt Hill
#
# Bulk Modulus (GPa) = 54.77128 61.73841 58.25484
# Shear Modulus (GPa) = 27.81643 30.21592 29.01617
#
# Velocity S-wave (km/s) = 3.48862 3.63597 3.56306
# Velocity P-wave (km/s) = 6.33966 6.68127 6.51270
#
# Compressibility (1/GPa) = 0.01825775
#
# Stress axis : x y z
#
# Youngs Moduli (GPa) = 74.41456 128.31637 49.83312
#
# Poissons Ratio (x) = 0.23864 0.29296
# Poissons Ratio (y) = 0.13840 0.18845
# Poissons Ratio (z) = 0.43748 0.48525
#
# Static dielectric constant tensor:
#      x y z
#    x 1.797090 0.000000 0.000000 
#    y 0.000000 1.965200 0.000000 
#    z 0.000000 0.000000 1.860600 
# 
# From -- ./inp_files/26579.got.cif
#   From: 2010.05.17/outbox.cif.g08.bks.cpg/sg43_14_cif.got.tgz:26579.got - 2010.06.03 19:21:55.
