data_PCOD9372271
_publ_section_title
;
Structure prediction by ZEFSAII (Michael W. Deem and Ramdas Pophale) SiO2 
 PCOD9372271
Probable space group: F D D 2
;
_chemical_formula_sum "Si O2"
_cell_formula_units_Z 56
_cell_length_a 14.653542
_cell_length_b 9.886523
_cell_length_c 16.754443
_cell_angle_alpha 90.000000
_cell_angle_beta 90.000000
_cell_angle_gamma 90.000000
_cell_volume 2427.259384
_symmetry_space_group_name_H-M "F D D 2"
_symmetry_group_IT_number 43
_symmetry_cell_setting 'orthorhombic'
loop_
_space_group_symop_operation_xyz
x,y,z
-x,-y,z
1/4-x,1/4+y,1/4+z
1/4+x,1/4-y,1/4+z
x,1/2+y,1/2+z
-x,1/2-y,1/2+z
1/4-x,3/4+y,3/4+z
1/4+x,3/4-y,3/4+z
1/2+x,y,1/2+z
1/2-x,-y,1/2+z
3/4-x,1/4+y,3/4+z
3/4+x,1/4-y,3/4+z
1/2+x,1/2+y,z
1/2-x,1/2-y,z
3/4-x,3/4+y,1/4+z
3/4+x,3/4-y,1/4+z
loop_
_atom_site_type_symbol
_atom_site_label
_atom_site_fract_x
_atom_site_fract_y
_atom_site_fract_z
Si Si1 0.000000 0.000000 0.299911
Si Si2 0.928829 0.393191 0.645945
Si Si3 0.025652 0.231653 0.886413
Si Si4 0.197524 0.605865 0.308359
O O1 0.929331 0.931044 0.239524
O O2 0.038297 0.882112 0.352570
O O3 0.825277 0.422351 0.621745
O O4 0.972819 0.246992 0.630102
O O5 0.000000 0.500000 0.608738
O O6 0.095985 0.143689 0.836033
O O7 0.045541 0.260022 0.980192
O O8 0.250000 0.750000 0.300344
#
# Coordination Sequence:
#
# PCOD9372271 Si02
#       4
#     8  16  16  16
#     4  10  26  46  78 104 152 196 252 310 372 448
#     4  10  28  47  79 105 154 200 254 309 378 450
#     4  12  27  50  76 113 151 204 254 317 376 459
#     4  12  29  46  79 114 156 193 259 309 388 449
#
# _framework density 23.071290000000001
#
# number of rings (size 3 to 8) (size 9 to 14) (size 15 to 20)
#    0.857    0.000    1.429    2.571   16.000    0.000 
#    0.000    0.000    0.000    0.000    0.000    0.000 
#    0.000    0.000    0.000    0.000    0.000    0.000 
#
# Total GULP energy -78052.984417 kJ/mol
# GULP energy per Si atom -5575.213173 kJ/mol
# Density = 2.301878 g / cm^3
# Si number density = 23.071290 Si / 1000 Ang^3
#
#
#
# Elastic Constant Matrix: (Units=GPa)
#
#
# Indices 1 2 3 4 5 6 
#
# 1 139.2094 15.6720 29.2442 0.0000 0.0000 0.0000
# 2 15.6720 96.5522 21.9964 0.0000 0.0000 0.0000
# 3 29.2442 21.9964 57.0040 0.0000 0.0000 0.0000
# 4 0.0000 0.0000 0.0000 -25.9909 0.0000 0.0000
# 5 0.0000 0.0000 0.0000 0.0000 23.5068 0.0000
# 6 0.0000 0.0000 0.0000 0.0000 0.0000 25.3115
#
#
#
# Elastic Compliance Matrix: (Units=1/GPa)
#
#
# Indices 1 2 3 4 5 6 
#
# 1 0.008065 -0.000402 -0.003983 0.000000 0.000000 0.000000
# 2 -0.000402 0.011375 -0.004183 0.000000 0.000000 0.000000
# 3 -0.003983 -0.004183 0.021200 0.000000 0.000000 0.000000
# 4 0.000000 0.000000 0.000000 -0.038475 0.000000 0.000000
# 5 0.000000 0.000000 0.000000 0.000000 0.042541 0.000000
# 6 0.000000 0.000000 0.000000 0.000000 0.000000 0.039508
#
#
# Mechanical properties :
#
#
# Convention : Reuss Voigt Hill
#
# Bulk Modulus (GPa) = 42.54380 47.39898 44.97139
# Shear Modulus (GPa) = 45.79389 19.62234 32.70811
#
# Velocity S-wave (km/s) = 4.46004 2.91951 3.76932
# Velocity P-wave (km/s) = 6.70841 5.65278 6.20309
#
# Compressibility (1/GPa) = 0.02350519
#
# Stress axis : x y z
#
# Youngs Moduli (GPa) = 123.98786 87.90935 47.16973
#
# Poissons Ratio (x) = 0.03532 0.18786
# Poissons Ratio (y) = 0.04982 0.19733
# Poissons Ratio (z) = 0.49380 0.36775
#
# Static dielectric constant tensor:
#      x y z
#    x 1.884580 0.000000 0.000000 
#    y 0.000000 2.074500 0.000000 
#    z 0.000000 0.000000 1.905080 
# 
# From -- ./inp_files/12380.got.cif
#   From: 2010.05.17/outbox.cif.g08.bks.cpg/sg43_7_cif.got.tgz:12380.got - 2010.06.03 19:21:55.
