data_PCOD9372709
_publ_section_title
;
Structure prediction by ZEFSAII (Michael W. Deem and Ramdas Pophale) SiO2 
 PCOD9372709
Probable space group: F D D 2
;
_chemical_formula_sum "Si O2"
_cell_formula_units_Z 72
_cell_length_a 15.760860
_cell_length_b 7.690607
_cell_length_c 24.008052
_cell_angle_alpha 90.000000
_cell_angle_beta 90.000000
_cell_angle_gamma 90.000000
_cell_volume 2910.029913
_symmetry_space_group_name_H-M "F D D 2"
_symmetry_group_IT_number 43
_symmetry_cell_setting 'orthorhombic'
loop_
_space_group_symop_operation_xyz
x,y,z
-x,-y,z
1/4-x,1/4+y,1/4+z
1/4+x,1/4-y,1/4+z
x,1/2+y,1/2+z
-x,1/2-y,1/2+z
1/4-x,3/4+y,3/4+z
1/4+x,3/4-y,3/4+z
1/2+x,y,1/2+z
1/2-x,-y,1/2+z
3/4-x,1/4+y,3/4+z
3/4+x,1/4-y,3/4+z
1/2+x,1/2+y,z
1/2-x,1/2-y,z
3/4-x,3/4+y,1/4+z
3/4+x,3/4-y,1/4+z
loop_
_atom_site_type_symbol
_atom_site_label
_atom_site_fract_x
_atom_site_fract_y
_atom_site_fract_z
Si Si1 0.266871 0.492035 0.069770
Si Si2 0.643041 0.940304 0.795952
Si Si3 0.500000 0.500000 0.728922
Si Si4 0.992549 0.286790 0.645088
Si Si5 0.815122 0.874885 0.189065
O O1 0.168607 0.527471 0.055053
O O2 0.328575 0.655056 0.062894
O O3 0.270751 0.441629 0.133567
O O4 0.304194 0.356425 0.024896
O O5 0.723796 0.967395 0.835949
O O6 0.661793 0.972506 0.731341
O O7 0.536483 0.652459 0.688971
O O8 0.895685 0.270897 0.665040
O O9 0.000000 0.500000 0.647946
O O10 0.750000 0.750000 0.220284
#
# Coordination Sequence:
#
# PCOD9372709 Si02
#       5
#    16  16   8  16  16
#     4  11  25  46  76 118 158 205 262 329 393 481
#     4  11  26  49  79 113 160 208 263 328 405 463
#     4  12  26  44  78 114 168 204 260 316 410 478
#     4  12  26  50  81 114 159 214 258 334 398 473
#     4  12  26  47  77 114 157 207 264 328 398 470
#
# _framework density 24.742014999999999
#
# number of rings (size 3 to 8) (size 9 to 14) (size 15 to 20)
#    0.000    0.444    5.556    2.000    3.111    0.000 
#    0.000    2.222    0.000    0.000    0.000    0.000 
#    0.000    0.000    0.000    0.000    0.000    0.000 
#
# Total GULP energy -100421.970368 kJ/mol
# GULP energy per Si atom -5578.998354 kJ/mol
# Density = 2.468570 g / cm^3
# Si number density = 24.742015 Si / 1000 Ang^3
#
#
#
# Elastic Constant Matrix: (Units=GPa)
#
#
# Indices 1 2 3 4 5 6 
#
# 1 112.4737 23.4328 50.9219 0.0000 0.0000 0.0000
# 2 23.4328 105.1400 41.0933 0.0000 0.0000 0.0000
# 3 50.9219 41.0933 202.6704 0.0000 0.0000 0.0000
# 4 0.0000 0.0000 0.0000 84.3687 0.0000 0.0000
# 5 0.0000 0.0000 0.0000 0.0000 41.1960 0.0000
# 6 0.0000 0.0000 0.0000 0.0000 0.0000 29.3795
#
#
#
# Elastic Compliance Matrix: (Units=1/GPa)
#
#
# Indices 1 2 3 4 5 6 
#
# 1 0.010214 -0.001383 -0.002286 0.000000 0.000000 0.000000
# 2 -0.001383 0.010517 -0.001785 0.000000 0.000000 0.000000
# 3 -0.002286 -0.001785 0.005870 0.000000 0.000000 0.000000
# 4 0.000000 0.000000 0.000000 0.011853 0.000000 0.000000
# 5 0.000000 0.000000 0.000000 0.000000 0.024274 0.000000
# 6 0.000000 0.000000 0.000000 0.000000 0.000000 0.034037
#
#
# Mechanical properties :
#
#
# Convention : Reuss Voigt Hill
#
# Bulk Modulus (GPa) = 63.71971 72.35333 68.03652
# Shear Modulus (GPa) = 44.28520 51.31126 47.79823
#
# Velocity S-wave (km/s) = 4.23529 4.55890 4.40007
# Velocity P-wave (km/s) = 7.05170 7.55102 7.30563
#
# Compressibility (1/GPa) = 0.01569373
#
# Stress axis : x y z
#
# Youngs Moduli (GPa) = 97.90448 95.08420 170.34679
#
# Poissons Ratio (x) = 0.13150 0.38940
# Poissons Ratio (y) = 0.13540 0.30406
# Poissons Ratio (z) = 0.22380 0.16972
#
# Static dielectric constant tensor:
#      x y z
#    x 2.017760 0.000000 0.000000 
#    y 0.000000 2.065640 0.000000 
#    z 0.000000 0.000000 1.922790 
# 
# From -- ./inp_files/17912.got.cif
#   From: 2010.05.17/outbox.cif.g08.bks.cpg/sg43_9_cif.got.tgz:17912.got - 2010.06.03 19:21:55.
