data_PCOD9372868
_publ_section_title
;
Structure prediction by ZEFSAII (Michael W. Deem and Ramdas Pophale) SiO2 
 PCOD9372868
Probable space group: F D D 2
;
_chemical_formula_sum "Si O2"
_cell_formula_units_Z 88
_cell_length_a 17.740503
_cell_length_b 26.391490
_cell_length_c 7.150907
_cell_angle_alpha 90.000000
_cell_angle_beta 90.000000
_cell_angle_gamma 90.000000
_cell_volume 3348.042555
_symmetry_space_group_name_H-M "F D D 2"
_symmetry_group_IT_number 43
_symmetry_cell_setting 'orthorhombic'
loop_
_space_group_symop_operation_xyz
x,y,z
-x,-y,z
1/4-x,1/4+y,1/4+z
1/4+x,1/4-y,1/4+z
x,1/2+y,1/2+z
-x,1/2-y,1/2+z
1/4-x,3/4+y,3/4+z
1/4+x,3/4-y,3/4+z
1/2+x,y,1/2+z
1/2-x,-y,1/2+z
3/4-x,1/4+y,3/4+z
3/4+x,1/4-y,3/4+z
1/2+x,1/2+y,z
1/2-x,1/2-y,z
3/4-x,3/4+y,1/4+z
3/4+x,3/4-y,1/4+z
loop_
_atom_site_type_symbol
_atom_site_label
_atom_site_fract_x
_atom_site_fract_y
_atom_site_fract_z
Si Si1 0.739032 0.129572 0.203830
Si Si2 0.402545 0.934548 0.206947
Si Si3 0.338901 0.503471 0.148683
Si Si4 0.738276 0.929907 0.339372
Si Si5 0.750000 0.750000 0.223901
Si Si6 0.617591 0.706988 0.773192
O O1 0.676045 0.089510 0.279370
O O2 0.814601 0.142626 0.316359
O O3 0.696873 0.182903 0.225869
O O4 0.751344 0.114931 0.986711
O O5 0.468739 0.953029 0.347673
O O6 0.379283 0.986582 0.103775
O O7 0.310995 0.449038 0.223576
O O8 0.291635 0.525095 0.976185
O O9 0.425612 0.509322 0.094169
O O10 0.824806 0.038278 0.328011
O O11 0.675109 0.924759 0.180868
#
# Coordination Sequence:
#
# PCOD9372868 Si02
#       6
#    16  16  16  16   8  16
#     4  12  27  46  85 122 167 224 295 353 441 529
#     4  12  25  55  80 126 177 228 291 370 443 529
#     4  12  25  47  84 116 161 227 287 347 446 514
#     4  12  25  50  82 126 162 227 298 359 429 539
#     4  12  28  48  86 124 172 240 282 362 452 524
#     4  12  26  52  84 117 180 225 288 370 445 517
#
# _framework density 26.284015
#
# number of rings (size 3 to 8) (size 9 to 14) (size 15 to 20)
#    0.000    0.000    7.273    1.091    2.545    2.909 
#    0.000    5.455    0.000    0.000    0.000    0.000 
#    0.000    0.000    0.000    0.000    0.000    0.000 
#
# Total GULP energy -123162.326813 kJ/mol
# GULP energy per Si atom -5598.287582 kJ/mol
# Density = 2.622419 g / cm^3
# Si number density = 26.284015 Si / 1000 Ang^3
#
#
#
# Elastic Constant Matrix: (Units=GPa)
#
#
# Indices 1 2 3 4 5 6 
#
# 1 170.6284 33.0568 64.6007 0.0003 -0.0002 -0.0001
# 2 33.0568 111.8086 32.0776 0.0002 -0.0002 -0.0001
# 3 64.6007 32.0776 177.3537 0.0010 -0.0007 -0.0004
# 4 0.0003 0.0002 0.0010 51.6631 -0.0004 -0.0003
# 5 -0.0002 -0.0002 -0.0007 -0.0004 59.9288 0.0002
# 6 -0.0001 -0.0001 -0.0004 -0.0003 0.0002 48.1225
#
#
#
# Elastic Compliance Matrix: (Units=1/GPa)
#
#
# Indices 1 2 3 4 5 6 
#
# 1 0.007003 -0.001412 -0.002296 0.000000 0.000000 0.000000
# 2 -0.001412 0.009718 -0.001243 0.000000 0.000000 0.000000
# 3 -0.002296 -0.001243 0.006699 0.000000 0.000000 0.000000
# 4 0.000000 0.000000 0.000000 0.019356 0.000000 0.000000
# 5 0.000000 0.000000 0.000000 0.000000 0.016686 0.000000
# 6 0.000000 0.000000 0.000000 0.000000 0.000000 0.020780
#
#
# Mechanical properties :
#
#
# Convention : Reuss Voigt Hill
#
# Bulk Modulus (GPa) = 73.96981 79.91787 76.94384
# Shear Modulus (GPa) = 52.82507 53.94658 53.38583
#
# Velocity S-wave (km/s) = 4.48792 4.53531 4.51168
# Velocity P-wave (km/s) = 7.42016 7.60900 7.51518
#
# Compressibility (1/GPa) = 0.01351903
#
# Stress axis : x y z
#
# Youngs Moduli (GPa) = 142.78865 102.90147 149.26507
#
# Poissons Ratio (x) = 0.14530 0.34265
# Poissons Ratio (y) = 0.20162 0.18559
# Poissons Ratio (z) = 0.32778 0.12794
#
# Static dielectric constant tensor:
#      x y z
#    x 2.049300 0.000000 0.000000 
#    y 0.000000 2.128190 0.000000 
#    z 0.000000 0.000000 2.085510 
# 
# From -- ./inp_files/2899.got.cif
#   From: 2010.05.17/outbox.cif.g08.bks.cpg/sg43_2_cif.got.tgz:2899.got - 2010.06.03 19:21:55.
