data_PCOD9372436
_publ_section_title
;
Structure prediction by ZEFSAII (Michael W. Deem and Ramdas Pophale) SiO2 
 PCOD9372436
Probable space group: F D D 2
;
_chemical_formula_sum "Si O2"
_cell_formula_units_Z 80
_cell_length_a 12.524064
_cell_length_b 22.131232
_cell_length_c 12.129701
_cell_angle_alpha 90.000000
_cell_angle_beta 90.000000
_cell_angle_gamma 90.000000
_cell_volume 3362.025202
_symmetry_space_group_name_H-M "F D D 2"
_symmetry_group_IT_number 43
_symmetry_cell_setting 'orthorhombic'
loop_
_space_group_symop_operation_xyz
x,y,z
-x,-y,z
1/4-x,1/4+y,1/4+z
1/4+x,1/4-y,1/4+z
x,1/2+y,1/2+z
-x,1/2-y,1/2+z
1/4-x,3/4+y,3/4+z
1/4+x,3/4-y,3/4+z
1/2+x,y,1/2+z
1/2-x,-y,1/2+z
3/4-x,1/4+y,3/4+z
3/4+x,1/4-y,3/4+z
1/2+x,1/2+y,z
1/2-x,1/2-y,z
3/4-x,3/4+y,1/4+z
3/4+x,3/4-y,1/4+z
loop_
_atom_site_type_symbol
_atom_site_label
_atom_site_fract_x
_atom_site_fract_y
_atom_site_fract_z
Si Si1 0.591066 0.649372 0.862140
Si Si2 0.045892 0.738799 0.804331
Si Si3 0.038925 0.924633 0.188920
Si Si4 0.742364 0.629295 0.661212
Si Si5 0.363243 0.833024 0.609946
O O1 0.514721 0.698769 0.804974
O O2 0.685816 0.635362 0.777967
O O3 0.510986 0.593853 0.886252
O O4 0.626995 0.674572 0.979728
O O5 0.150371 0.731146 0.883021
O O6 0.086107 0.719045 0.684397
O O7 0.969604 0.686850 0.857334
O O8 0.129751 0.873330 0.164550
O O9 0.038413 0.929033 0.321003
O O10 0.931578 0.892397 0.146991
#
# Coordination Sequence:
#
# PCOD9372436 Si02
#       5
#    16  16  16  16  16
#     4  12  23  39  69  91 131 167 213 277 321 375
#     4   9  23  40  63  89 130 169 209 253 335 386
#     4   9  18  42  58  82 131 160 203 262 301 392
#     4   9  20  38  60  87 125 163 208 260 310 378
#     4  11  22  41  61  96 126 164 220 271 314 381
#
# _framework density 23.795182
#
# number of rings (size 3 to 8) (size 9 to 14) (size 15 to 20)
#    1.200    0.800    2.000    1.200    2.800    0.800 
#    0.000   11.000    4.400    0.000    0.000    0.000 
#    0.000    0.000    0.000    0.000    0.000    0.000 
#
# Total GULP energy -111605.677777 kJ/mol
# GULP energy per Si atom -5580.283889 kJ/mol
# Density = 2.374102 g / cm^3
# Si number density = 23.795182 Si / 1000 Ang^3
#
#
#
# Elastic Constant Matrix: (Units=GPa)
#
#
# Indices 1 2 3 4 5 6 
#
# 1 47.3631 0.9077 -5.5259 0.0000 0.0000 0.0000
# 2 0.9077 55.5573 -1.3240 0.0000 0.0000 0.0000
# 3 -5.5259 -1.3240 130.8539 0.0000 0.0000 0.0000
# 4 0.0000 0.0000 0.0000 -2.6887 0.0000 0.0000
# 5 0.0000 0.0000 0.0000 0.0000 183.8980 0.0000
# 6 0.0000 0.0000 0.0000 0.0000 0.0000 25.0999
#
#
#
# Elastic Compliance Matrix: (Units=1/GPa)
#
#
# Indices 1 2 3 4 5 6 
#
# 1 0.021224 -0.000325 0.000893 0.000000 0.000000 0.000000
# 2 -0.000325 0.018009 0.000168 0.000000 0.000000 0.000000
# 3 0.000893 0.000168 0.007682 0.000000 0.000000 0.000000
# 4 0.000000 0.000000 0.000000 -0.371926 0.000000 0.000000
# 5 0.000000 0.000000 0.000000 0.000000 0.005438 0.000000
# 6 0.000000 0.000000 0.000000 0.000000 0.000000 0.039841
#
#
# Mechanical properties :
#
#
# Convention : Reuss Voigt Hill
#
# Bulk Modulus (GPa) = 20.66706 24.65443 22.66075
# Shear Modulus (GPa) = -18.86252 57.24294 19.19021
#
# Velocity S-wave (km/s) = -2.81855 4.91007 2.84293
# Velocity P-wave (km/s) = 1.37407 6.52139 4.50780
#
# Compressibility (1/GPa) = 0.04838616
#
# Stress axis : x y z
#
# Youngs Moduli (GPa) = 47.11669 55.52847 130.18245
#
# Poissons Ratio (x) = 0.01807 -0.11625
# Poissons Ratio (y) = 0.01534 -0.02193
# Poissons Ratio (z) = -0.04207 -0.00936
#
# Static dielectric constant tensor:
#      x y z
#    x 1.719920 0.000000 0.000000 
#    y 0.000000 2.023430 0.000000 
#    z 0.000000 0.000000 1.916230 
# 
# From -- ./inp_files/6048.got.cif
#   From: 2010.05.17/outbox.cif.g08.bks.cpg/sg43_4_cif.got.tgz:6048.got - 2010.06.03 19:21:55.
