data_PCOD9372325
_publ_section_title
;
Structure prediction by ZEFSAII (Michael W. Deem and Ramdas Pophale) SiO2 
 PCOD9372325
Probable space group: F D D 2
;
_chemical_formula_sum "Si O2"
_cell_formula_units_Z 96
_cell_length_a 23.769385
_cell_length_b 7.217959
_cell_length_c 20.398409
_cell_angle_alpha 90.000000
_cell_angle_beta 90.000000
_cell_angle_gamma 90.000000
_cell_volume 3499.682544
_symmetry_space_group_name_H-M "F D D 2"
_symmetry_group_IT_number 43
_symmetry_cell_setting 'orthorhombic'
loop_
_space_group_symop_operation_xyz
x,y,z
-x,-y,z
1/4-x,1/4+y,1/4+z
1/4+x,1/4-y,1/4+z
x,1/2+y,1/2+z
-x,1/2-y,1/2+z
1/4-x,3/4+y,3/4+z
1/4+x,3/4-y,3/4+z
1/2+x,y,1/2+z
1/2-x,-y,1/2+z
3/4-x,1/4+y,3/4+z
3/4+x,1/4-y,3/4+z
1/2+x,1/2+y,z
1/2-x,1/2-y,z
3/4-x,3/4+y,1/4+z
3/4+x,3/4-y,1/4+z
loop_
_atom_site_type_symbol
_atom_site_label
_atom_site_fract_x
_atom_site_fract_y
_atom_site_fract_z
Si Si1 0.338784 0.010782 0.255140
Si Si2 0.420884 0.322781 0.465235
Si Si3 0.758816 0.467947 0.374465
Si Si4 0.966267 0.222018 0.385637
Si Si5 0.038958 0.334295 0.259560
Si Si6 0.384074 0.686146 0.099315
O O1 0.341413 0.785582 0.240991
O O2 0.294702 0.046229 0.313393
O O3 0.321637 0.097790 0.184038
O O4 0.400452 0.080649 0.273977
O O5 0.485453 0.318346 0.441053
O O6 0.400306 0.190596 0.523161
O O7 0.388675 0.282088 0.398147
O O8 0.750000 0.250000 0.357035
O O9 0.788580 0.528864 0.442206
O O10 0.694068 0.521556 0.380512
O O11 0.004287 0.266242 0.322607
O O12 0.918402 0.082091 0.357316
O O13 0.000000 0.500000 0.235407
#
# Coordination Sequence:
#
# PCOD9372325 Si02
#       6
#    16  16  16  16  16  16
#     4  11  21  39  65  90 126 172 223 269 319 406
#     4  11  22  39  67  96 125 175 221 279 330 399
#     4  11  19  37  62  92 119 165 218 274 318 386
#     4  11  22  42  63  97 130 170 218 278 336 393
#     4  11  25  37  62  97 132 169 213 276 343 398
#     4  11  20  36  65  94 128 160 224 277 328 389
#
# _framework density 27.431061
#
# number of rings (size 3 to 8) (size 9 to 14) (size 15 to 20)
#    0.000    1.000    3.333    8.000    2.333    0.000 
#    3.000    0.000    0.000    0.000    0.000    0.000 
#    0.000    0.000    0.000    0.000    0.000    0.000 
#
# Total GULP energy -133850.390210 kJ/mol
# GULP energy per Si atom -5577.099592 kJ/mol
# Density = 2.736863 g / cm^3
# Si number density = 27.431061 Si / 1000 Ang^3
#
#
#
# Elastic Constant Matrix: (Units=GPa)
#
#
# Indices 1 2 3 4 5 6 
#
# 1 204.7244 36.1536 64.4571 0.0000 0.0000 0.0000
# 2 36.1536 52.4196 21.6836 0.0000 0.0000 0.0000
# 3 64.4571 21.6836 223.3887 0.0000 0.0000 0.0000
# 4 0.0000 0.0000 0.0000 26.5318 0.0000 0.0000
# 5 0.0000 0.0000 0.0000 0.0000 66.7510 0.0000
# 6 0.0000 0.0000 0.0000 0.0000 0.0000 45.7087
#
#
#
# Elastic Compliance Matrix: (Units=1/GPa)
#
#
# Indices 1 2 3 4 5 6 
#
# 1 0.005940 -0.003529 -0.001371 0.000000 0.000000 0.000000
# 2 -0.003529 0.021972 -0.001114 0.000000 0.000000 0.000000
# 3 -0.001371 -0.001114 0.004980 0.000000 0.000000 0.000000
# 4 0.000000 0.000000 0.000000 0.037691 0.000000 0.000000
# 5 0.000000 0.000000 0.000000 0.000000 0.014981 0.000000
# 6 0.000000 0.000000 0.000000 0.000000 0.000000 0.021878
#
#
# Mechanical properties :
#
#
# Convention : Reuss Voigt Hill
#
# Bulk Modulus (GPa) = 47.93403 80.56904 64.25154
# Shear Modulus (GPa) = 39.54909 51.68085 45.61497
#
# Velocity S-wave (km/s) = 3.80117 4.34525 4.08228
# Velocity P-wave (km/s) = 6.06445 7.38987 6.75972
#
# Compressibility (1/GPa) = 0.02086200
#
# Stress axis : x y z
#
# Youngs Moduli (GPa) = 168.36116 45.51258 200.78964
#
# Poissons Ratio (x) = 0.16063 0.27533
# Poissons Ratio (y) = 0.59420 0.22376
# Poissons Ratio (z) = 0.23087 0.05072
#
# Static dielectric constant tensor:
#      x y z
#    x 2.121010 0.000000 0.000000 
#    y 0.000000 2.392210 0.000000 
#    z 0.000000 0.000000 2.324160 
# 
# From -- ./inp_files/18317.got.cif
#   From: 2010.05.17/outbox.cif.g08.bks.cpg/sg43_10_cif.got.tgz:18317.got - 2010.06.03 19:21:55.
