data_PCOD9372852
_publ_section_title
;
Structure prediction by ZEFSAII (Michael W. Deem and Ramdas Pophale) SiO2 
 PCOD9372852
Probable space group: F D D 2
;
_chemical_formula_sum "Si O2"
_cell_formula_units_Z 72
_cell_length_a 18.644530
_cell_length_b 26.369933
_cell_length_c 5.951471
_cell_angle_alpha 90.000000
_cell_angle_beta 90.000000
_cell_angle_gamma 90.000000
_cell_volume 2926.070516
_symmetry_space_group_name_H-M "F D D 2"
_symmetry_group_IT_number 43
_symmetry_cell_setting 'orthorhombic'
loop_
_space_group_symop_operation_xyz
x,y,z
-x,-y,z
1/4-x,1/4+y,1/4+z
1/4+x,1/4-y,1/4+z
x,1/2+y,1/2+z
-x,1/2-y,1/2+z
1/4-x,3/4+y,3/4+z
1/4+x,3/4-y,3/4+z
1/2+x,y,1/2+z
1/2-x,-y,1/2+z
3/4-x,1/4+y,3/4+z
3/4+x,1/4-y,3/4+z
1/2+x,1/2+y,z
1/2-x,1/2-y,z
3/4-x,3/4+y,1/4+z
3/4+x,3/4-y,1/4+z
loop_
_atom_site_type_symbol
_atom_site_label
_atom_site_fract_x
_atom_site_fract_y
_atom_site_fract_z
Si Si1 0.250000 0.750000 0.339980
Si Si2 0.545388 0.342430 0.579798
Si Si3 0.540231 0.921602 0.724321
Si Si4 0.388698 0.766454 0.652664
Si Si5 0.561826 0.138127 0.432177
O O1 0.248320 0.702003 0.173908
O O2 0.321181 0.755281 0.488803
O O3 0.557103 0.366268 0.332644
O O4 0.567077 0.285490 0.641158
O O5 0.605261 0.374847 0.711147
O O6 0.467455 0.353129 0.681865
O O7 0.602240 0.958155 0.624574
O O8 0.483569 0.907854 0.532463
O O9 0.442863 0.808932 0.560165
#
# Coordination Sequence:
#
# PCOD9372852 Si02
#       5
#     8  16  16  16  16
#     4  12  24  50  80 110 152 200 264 322 410 476
#     4  12  28  48  77 109 160 200 266 323 398 474
#     4  12  26  48  81 108 156 209 251 324 408 470
#     4  12  28  47  77 116 151 203 269 327 397 484
#     4  12  27  50  71 117 154 202 266 326 392 484
#
# _framework density 24.606377999999999
#
# number of rings (size 3 to 8) (size 9 to 14) (size 15 to 20)
#    0.000    0.000    4.444    4.667    9.333    1.778 
#    0.000    0.000    0.000    0.000    0.000    0.000 
#    0.000    0.000    0.000    0.000    0.000    0.000 
#
# Total GULP energy -100589.300717 kJ/mol
# GULP energy per Si atom -5588.294484 kJ/mol
# Density = 2.455037 g / cm^3
# Si number density = 24.606378 Si / 1000 Ang^3
#
#
#
# Elastic Constant Matrix: (Units=GPa)
#
#
# Indices 1 2 3 4 5 6 
#
# 1 66.0109 29.5662 22.1374 -0.0110 0.0115 0.0090
# 2 29.5662 160.7390 41.4510 -0.0009 -0.0019 0.0008
# 3 22.1374 41.4510 80.8494 -0.0116 0.0153 0.0107
# 4 -0.0110 -0.0009 -0.0116 49.9941 0.0095 0.0051
# 5 0.0115 -0.0019 0.0153 0.0095 40.7400 -0.0072
# 6 0.0090 0.0008 0.0107 0.0051 -0.0072 45.4615
#
#
#
# Elastic Compliance Matrix: (Units=1/GPa)
#
#
# Indices 1 2 3 4 5 6 
#
# 1 0.017370 -0.002268 -0.003593 0.000003 -0.000004 -0.000003
# 2 -0.002268 0.007465 -0.003206 -0.000001 0.000002 0.000001
# 3 -0.003593 -0.003206 0.014996 0.000003 -0.000005 -0.000003
# 4 0.000003 -0.000001 0.000003 0.020002 -0.000005 -0.000002
# 5 -0.000004 0.000002 -0.000005 -0.000005 0.024546 0.000004
# 6 -0.000003 0.000001 -0.000003 -0.000002 0.000004 0.021997
#
#
# Mechanical properties :
#
#
# Convention : Reuss Voigt Hill
#
# Bulk Modulus (GPa) = 46.09131 54.87871 50.48501
# Shear Modulus (GPa) = 37.95230 41.53544 39.74387
#
# Velocity S-wave (km/s) = 3.93157 4.11298 4.02330
# Velocity P-wave (km/s) = 6.27549 6.70123 6.49185
#
# Compressibility (1/GPa) = 0.02169606
#
# Stress axis : x y z
#
# Youngs Moduli (GPa) = 57.57045 133.95206 66.68289
#
# Poissons Ratio (x) = 0.30386 0.23960
# Poissons Ratio (y) = 0.13060 0.21381
# Poissons Ratio (z) = 0.20685 0.42949
#
# Static dielectric constant tensor:
#      x y z
#    x 1.902610 0.000000 0.000010 
#    y 0.000000 1.987810 0.000000 
#    z 0.000010 0.000000 2.006770 
# 
# From -- ./inp_files/712.got.cif
#   From: 2010.05.17/outbox.cif.g08.bks.cpg/sg43_1_cif.got.tgz:712.got - 2010.06.03 19:21:55.
