data_PCOD9372683
_publ_section_title
;
Structure prediction by ZEFSAII (Michael W. Deem and Ramdas Pophale) SiO2 
 PCOD9372683
Probable space group: F D D 2
;
_chemical_formula_sum "Si O2"
_cell_formula_units_Z 72
_cell_length_a 20.797376
_cell_length_b 18.665035
_cell_length_c 7.535410
_cell_angle_alpha 90.000000
_cell_angle_beta 90.000000
_cell_angle_gamma 90.000000
_cell_volume 2925.123719
_symmetry_space_group_name_H-M "F D D 2"
_symmetry_group_IT_number 43
_symmetry_cell_setting 'orthorhombic'
loop_
_space_group_symop_operation_xyz
x,y,z
-x,-y,z
1/4-x,1/4+y,1/4+z
1/4+x,1/4-y,1/4+z
x,1/2+y,1/2+z
-x,1/2-y,1/2+z
1/4-x,3/4+y,3/4+z
1/4+x,3/4-y,3/4+z
1/2+x,y,1/2+z
1/2-x,-y,1/2+z
3/4-x,1/4+y,3/4+z
3/4+x,1/4-y,3/4+z
1/2+x,1/2+y,z
1/2-x,1/2-y,z
3/4-x,3/4+y,1/4+z
3/4+x,3/4-y,1/4+z
loop_
_atom_site_type_symbol
_atom_site_label
_atom_site_fract_x
_atom_site_fract_y
_atom_site_fract_z
Si Si1 0.248572 0.015661 0.355830
Si Si2 0.145235 0.612510 0.703174
Si Si3 0.893362 0.476975 0.374915
Si Si4 0.500000 0.000000 0.095563
Si Si5 0.470606 0.365908 0.438800
O O1 0.208515 0.065280 0.222815
O O2 0.321224 0.992954 0.309510
O O3 0.255152 0.064496 0.529966
O O4 0.211958 0.939499 0.350956
O O5 0.111298 0.585337 0.521606
O O6 0.162492 0.696072 0.709187
O O7 0.095127 0.600575 0.862804
O O8 0.943543 0.468740 0.217773
O O9 0.518513 0.930727 0.981320
#
# Coordination Sequence:
#
# PCOD9372683 Si02
#       5
#    16  16  16   8  16
#     4  11  24  52  74 106 154 206 252 305 405 447
#     4  11  24  49  75 111 143 211 252 313 385 465
#     4  11  27  47  76 106 158 198 256 324 377 463
#     4  12  30  46  72 126 150 196 270 320 384 456
#     4  11  28  45  78 111 154 204 249 325 379 468
#
# _framework density 24.614343999999999
#
# number of rings (size 3 to 8) (size 9 to 14) (size 15 to 20)
#    0.000    0.889    4.444    1.333   12.444    0.000 
#    0.000    0.000    0.000    0.000    0.000    0.000 
#    0.000    0.000    0.000    0.000    0.000    0.000 
#
# Total GULP energy -100609.089479 kJ/mol
# GULP energy per Si atom -5589.393860 kJ/mol
# Density = 2.455832 g / cm^3
# Si number density = 24.614344 Si / 1000 Ang^3
#
#
#
# Elastic Constant Matrix: (Units=GPa)
#
#
# Indices 1 2 3 4 5 6 
#
# 1 82.7956 -1.5359 43.6878 -0.0001 0.0001 0.0001
# 2 -1.5359 88.5081 22.0266 -0.0009 0.0006 0.0005
# 3 43.6878 22.0266 79.1816 -0.0008 0.0006 0.0005
# 4 -0.0001 -0.0009 -0.0008 51.7115 0.0006 0.0005
# 5 0.0001 0.0006 0.0006 0.0006 41.1637 -0.0004
# 6 0.0001 0.0005 0.0005 0.0005 -0.0004 24.2386
#
#
#
# Elastic Compliance Matrix: (Units=1/GPa)
#
#
# Indices 1 2 3 4 5 6 
#
# 1 0.017725 0.002945 -0.010599 0.000000 0.000000 0.000000
# 2 0.002945 0.012628 -0.005138 0.000000 0.000000 0.000000
# 3 -0.010599 -0.005138 0.019906 0.000000 0.000000 0.000000
# 4 0.000000 0.000000 0.000000 0.019338 0.000000 0.000000
# 5 0.000000 0.000000 0.000000 0.000000 0.024293 0.000000
# 6 0.000000 0.000000 0.000000 0.000000 0.000000 0.041256
#
#
# Mechanical properties :
#
#
# Convention : Reuss Voigt Hill
#
# Bulk Modulus (GPa) = 40.52447 42.09359 41.30903
# Shear Modulus (GPa) = 29.59340 35.84323 32.71832
#
# Velocity S-wave (km/s) = 3.47116 3.82015 3.64983
# Velocity P-wave (km/s) = 5.70655 6.04950 5.88053
#
# Compressibility (1/GPa) = 0.02467645
#
# Stress axis : x y z
#
# Youngs Moduli (GPa) = 56.41657 79.18807 50.23500
#
# Poissons Ratio (x) = -0.23323 0.53245
# Poissons Ratio (y) = -0.16617 0.25810
# Poissons Ratio (z) = 0.59797 0.40686
#
# Static dielectric constant tensor:
#      x y z
#    x 1.972360 0.000000 0.000000 
#    y 0.000000 2.016820 0.000000 
#    z 0.000000 0.000000 2.090380 
# 
# From -- ./inp_files/2669.got.cif
#   From: 2010.05.17/outbox.cif.g08.bks.cpg/sg43_2_cif.got.tgz:2669.got - 2010.06.03 19:21:55.
