data_PCOD9372753
_publ_section_title
;
Structure prediction by ZEFSAII (Michael W. Deem and Ramdas Pophale) SiO2 
 PCOD9372753
Probable space group: F D D 2
;
_chemical_formula_sum "Si O2"
_cell_formula_units_Z 48
_cell_length_a 20.604872
_cell_length_b 4.898888
_cell_length_c 17.705698
_cell_angle_alpha 90.000000
_cell_angle_beta 90.000000
_cell_angle_gamma 90.000000
_cell_volume 1787.230157
_symmetry_space_group_name_H-M "F D D 2"
_symmetry_group_IT_number 43
_symmetry_cell_setting 'orthorhombic'
loop_
_space_group_symop_operation_xyz
x,y,z
-x,-y,z
1/4-x,1/4+y,1/4+z
1/4+x,1/4-y,1/4+z
x,1/2+y,1/2+z
-x,1/2-y,1/2+z
1/4-x,3/4+y,3/4+z
1/4+x,3/4-y,3/4+z
1/2+x,y,1/2+z
1/2-x,-y,1/2+z
3/4-x,1/4+y,3/4+z
3/4+x,1/4-y,3/4+z
1/2+x,1/2+y,z
1/2-x,1/2-y,z
3/4-x,3/4+y,1/4+z
3/4+x,3/4-y,1/4+z
loop_
_atom_site_type_symbol
_atom_site_label
_atom_site_fract_x
_atom_site_fract_y
_atom_site_fract_z
Si Si1 0.928398 0.125792 0.283790
Si Si2 0.000000 0.000000 0.505407
Si Si3 0.250000 0.250000 0.143775
Si Si4 0.817081 0.932109 0.361028
O O1 0.914153 0.214407 0.197945
O O2 0.943433 0.368336 0.342782
O O3 0.882409 0.880702 0.313933
O O4 0.000000 0.000000 0.276813
O O5 0.943487 0.974536 0.567903
O O6 0.986650 0.747712 0.451501
O O7 0.750000 0.750000 0.354272
#
# Coordination Sequence:
#
# PCOD9372753 Si02
#       4
#    16   8   8  16
#     4  11  26  50  83 125 176 230 302 372 453 540
#     4  12  25  50  81 120 170 228 292 366 445 538
#     4  12  25  50  79 122 168 226 290 368 449 530
#     4  11  26  52  87 125 178 237 306 374 453 548
#
# _framework density 26.857199000000001
#
# number of rings (size 3 to 8) (size 9 to 14) (size 15 to 20)
#    0.000    0.667    3.333    3.000    0.000    2.667 
#   12.000    0.000    0.000    0.000    0.000    0.000 
#    0.000    0.000    0.000    0.000    0.000    0.000 
#
# Total GULP energy -66804.659930 kJ/mol
# GULP energy per Si atom -5567.054994 kJ/mol
# Density = 2.679607 g / cm^3
# Si number density = 26.857199 Si / 1000 Ang^3
#
#
#
# Elastic Constant Matrix: (Units=GPa)
#
#
# Indices 1 2 3 4 5 6 
#
# 1 129.6757 40.0038 80.5440 0.0014 0.0004 -0.0014
# 2 40.0038 139.0849 78.6617 0.0057 0.0009 -0.0044
# 3 80.5440 78.6617 281.6831 0.0011 -0.0002 -0.0005
# 4 0.0014 0.0057 0.0011 4.7911 0.0000 -0.0021
# 5 0.0004 0.0009 -0.0002 0.0000 -19.7935 0.0000
# 6 -0.0014 -0.0044 -0.0005 -0.0021 0.0000 50.0291
#
#
#
# Elastic Compliance Matrix: (Units=1/GPa)
#
#
# Indices 1 2 3 4 5 6 
#
# 1 0.009613 -0.001437 -0.002347 -0.000001 0.000000 0.000000
# 2 -0.001437 0.008753 -0.002033 -0.000010 0.000000 0.000001
# 3 -0.002347 -0.002033 0.004789 0.000002 0.000000 0.000000
# 4 -0.000001 -0.000010 0.000002 0.208721 0.000000 0.000009
# 5 0.000000 0.000000 0.000000 0.000000 -0.050522 0.000000
# 6 0.000000 0.000001 0.000000 0.000009 0.000000 0.019988
#
#
# Mechanical properties :
#
#
# Convention : Reuss Voigt Hill
#
# Bulk Modulus (GPa) = 86.81158 105.42920 96.12039
# Shear Modulus (GPa) = 23.06074 30.42095 26.74085
#
# Velocity S-wave (km/s) = 2.93344 3.36920 3.15884
# Velocity P-wave (km/s) = 6.62322 7.38079 7.01224
#
# Compressibility (1/GPa) = 0.01151920
#
# Stress axis : x y z
#
# Youngs Moduli (GPa) = 104.02682 114.24273 208.80644
#
# Poissons Ratio (x) = 0.16420 0.49014
# Poissons Ratio (y) = 0.14952 0.42459
# Poissons Ratio (z) = 0.24418 0.23230
#
# Static dielectric constant tensor:
#      x y z
#    x 3.667970 0.000000 0.000000 
#    y 0.000000 2.431650 0.000000 
#    z 0.000000 0.000000 2.063400 
# 
# From -- ./inp_files/12022.got.cif
#   From: 2010.05.17/outbox.cif.g08.bks.cpg/sg43_7_cif.got.tgz:12022.got - 2010.06.03 19:21:55.
