data_PCOD9372548
_publ_section_title
;
Structure prediction by ZEFSAII (Michael W. Deem and Ramdas Pophale) SiO2 
 PCOD9372548
Probable space group: F D D 2
;
_chemical_formula_sum "Si O2"
_cell_formula_units_Z 72
_cell_length_a 15.408194
_cell_length_b 14.513638
_cell_length_c 13.014098
_cell_angle_alpha 90.000000
_cell_angle_beta 90.000000
_cell_angle_gamma 90.000000
_cell_volume 2910.329070
_symmetry_space_group_name_H-M "F D D 2"
_symmetry_group_IT_number 43
_symmetry_cell_setting 'orthorhombic'
loop_
_space_group_symop_operation_xyz
x,y,z
-x,-y,z
1/4-x,1/4+y,1/4+z
1/4+x,1/4-y,1/4+z
x,1/2+y,1/2+z
-x,1/2-y,1/2+z
1/4-x,3/4+y,3/4+z
1/4+x,3/4-y,3/4+z
1/2+x,y,1/2+z
1/2-x,-y,1/2+z
3/4-x,1/4+y,3/4+z
3/4+x,1/4-y,3/4+z
1/2+x,1/2+y,z
1/2-x,1/2-y,z
3/4-x,3/4+y,1/4+z
3/4+x,3/4-y,1/4+z
loop_
_atom_site_type_symbol
_atom_site_label
_atom_site_fract_x
_atom_site_fract_y
_atom_site_fract_z
Si Si1 0.146676 0.453574 0.672300
Si Si2 0.601695 0.644937 0.075446
Si Si3 0.668349 0.486133 0.623313
Si Si4 0.689935 0.509376 0.395100
Si Si5 0.500000 0.000000 0.240434
O O1 0.102275 0.545720 0.627118
O O2 0.246215 0.451861 0.634403
O O3 0.153495 0.459780 0.795071
O O4 0.097094 0.362954 0.639923
O O5 0.543756 0.721831 0.134378
O O6 0.700858 0.676857 0.061136
O O7 0.569285 0.654202 0.957326
O O8 0.661859 0.466831 0.503141
O O9 0.578515 0.529049 0.665247
#
# Coordination Sequence:
#
# PCOD9372548 Si02
#       5
#    16  16  16  16   8
#     4  11  23  44  70 105 147 187 248 300 377 434
#     4   9  21  45  70 104 141 193 235 305 366 440
#     4   9  22  46  67 104 139 194 242 300 365 439
#     4  11  23  45  68 109 143 191 243 307 365 441
#     4   8  20  48  68 102 140 188 248 292 366 440
#
# _framework density 24.739470000000001
#
# number of rings (size 3 to 8) (size 9 to 14) (size 15 to 20)
#    1.333    0.889    0.000    2.000    0.000    1.778 
#   28.000    0.000    0.000    0.000    0.000    0.000 
#    0.000    0.000    0.000    0.000    0.000    0.000 
#
# Total GULP energy -100576.167355 kJ/mol
# GULP energy per Si atom -5587.564853 kJ/mol
# Density = 2.468316 g / cm^3
# Si number density = 24.739470 Si / 1000 Ang^3
#
#
#
# Elastic Constant Matrix: (Units=GPa)
#
#
# Indices 1 2 3 4 5 6 
#
# 1 101.4842 0.5222 22.9493 0.0000 0.0000 0.0000
# 2 0.5222 49.8186 30.5448 0.0000 0.0000 0.0000
# 3 22.9493 30.5448 119.0529 0.0000 0.0000 0.0000
# 4 0.0000 0.0000 0.0000 30.0719 0.0000 0.0000
# 5 0.0000 0.0000 0.0000 0.0000 28.7747 0.0000
# 6 0.0000 0.0000 0.0000 0.0000 0.0000 25.3607
#
#
#
# Elastic Compliance Matrix: (Units=1/GPa)
#
#
# Indices 1 2 3 4 5 6 
#
# 1 0.010376 0.001326 -0.002340 0.000000 0.000000 0.000000
# 2 0.001326 0.023989 -0.006410 0.000000 0.000000 0.000000
# 3 -0.002340 -0.006410 0.010495 0.000000 0.000000 0.000000
# 4 0.000000 0.000000 0.000000 0.033254 0.000000 0.000000
# 5 0.000000 0.000000 0.000000 0.000000 0.034753 0.000000
# 6 0.000000 0.000000 0.000000 0.000000 0.000000 0.039431
#
#
# Mechanical properties :
#
#
# Convention : Reuss Voigt Hill
#
# Bulk Modulus (GPa) = 33.32044 42.04312 37.68178
# Shear Modulus (GPa) = 28.22441 31.26410 29.74425
#
# Velocity S-wave (km/s) = 3.38133 3.55876 3.47118
# Velocity P-wave (km/s) = 5.36119 5.82388 5.59732
#
# Compressibility (1/GPa) = 0.03001161
#
# Stress axis : x y z
#
# Youngs Moduli (GPa) = 96.37452 41.68524 95.27908
#
# Poissons Ratio (x) = -0.05528 0.22299
# Poissons Ratio (y) = -0.12781 0.61078
# Poissons Ratio (z) = 0.22556 0.26722
#
# Static dielectric constant tensor:
#      x y z
#    x 1.976200 0.000000 0.000000 
#    y 0.000000 1.987710 0.000000 
#    z 0.000000 0.000000 1.936990 
# 
# From -- ./inp_files/6542.got.cif
#   From: 2010.05.17/outbox.cif.g08.bks.cpg/sg43_4_cif.got.tgz:6542.got - 2010.06.03 19:21:55.
