data_PCOD9372965
_publ_section_title
;
Structure prediction by ZEFSAII (Michael W. Deem and Ramdas Pophale) SiO2 
 PCOD9372965
Probable space group: F D D 2
;
_chemical_formula_sum "Si O2"
_cell_formula_units_Z 30
_cell_length_a 27.000000
_cell_length_b 24.000000
_cell_length_c 9.000000
_cell_angle_alpha 90.000000
_cell_angle_beta 90.000000
_cell_angle_gamma 90.000000
_cell_volume 5832.000000
_symmetry_space_group_name_H-M "F D D 2"
_symmetry_group_IT_number 43
_symmetry_cell_setting 'orthorhombic'
loop_
_space_group_symop_operation_xyz
x,y,z
-x,-y,z
1/4-x,1/4+y,1/4+z
1/4+x,1/4-y,1/4+z
x,1/2+y,1/2+z
-x,1/2-y,1/2+z
1/4-x,3/4+y,3/4+z
1/4+x,3/4-y,3/4+z
1/2+x,y,1/2+z
1/2-x,-y,1/2+z
3/4-x,1/4+y,3/4+z
3/4+x,1/4-y,3/4+z
1/2+x,1/2+y,z
1/2-x,1/2-y,z
3/4-x,3/4+y,1/4+z
3/4+x,3/4-y,1/4+z
loop_
_atom_site_type_symbol
_atom_site_label
_atom_site_fract_x
_atom_site_fract_y
_atom_site_fract_z
Si Si1 0.670017 0.300230 0.868070
Si Si2 0.367307 0.868479 0.176506
Si Si3 0.000000 0.000000 0.346035
Si Si4 0.466843 0.072208 0.121126
Si Si5 0.257613 0.621018 0.668730
Si Si6 0.068875 0.229029 0.807231
Si Si7 0.602541 0.016126 0.289366
Si Si8 0.414631 0.162919 0.609666
O O1 0.702298 0.348042 0.778567
O O2 0.650873 0.266038 0.719938
O O3 0.705552 0.265595 0.981811
O O4 0.627067 0.322252 0.982570
O O5 0.321952 0.865365 0.295317
O O6 0.396377 0.811952 0.210191
O O7 0.399689 0.920668 0.230213
O O8 0.354687 0.876739 0.002153
O O9 0.007755 0.950493 0.468230
O O10 0.495571 0.098153 0.261832
O O11 0.438368 0.021082 0.203995
O O12 0.274218 0.559456 0.614345
O O13 0.208306 0.616578 0.768574
O O14 0.064010 0.282811 0.700244
O O15 0.096981 0.245551 0.960138
#
# Coordination Sequence:
#
# PCOD9372965 Si02
#       8
#    16  16   8  16  16  16  16  16
#     4  12  24  44  70 105 143 184 243 298 359 428
#     4  10  20  45  69  98 136 188 235 285 357 426
#     4  12  24  40  64 110 138 186 240 304 354 420
#     4  11  24  41  70 100 140 187 236 296 357 421
#     4  12  26  45  71 108 139 191 244 296 365 439
#     4  10  24  45  71  98 140 189 236 282 367 429
#     4  10  21  42  71  98 136 184 229 296 351 424
#     4  11  27  45  68 106 146 183 240 301 362 432
#
# _framework density 5.1440330000000003
#
# number of rings (size 3 to 8) (size 9 to 14) (size 15 to 20)
#    0.000    1.067    1.333    5.600    3.733    4.267 
#    2.400    0.000    0.000    0.000    0.000    0.000 
#    0.000    0.000    0.000    0.000    0.000    0.000 
#
# Total GULP energy -167297.314683 kJ/mol
# GULP energy per Si atom -5576.577156 kJ/mol
# Density = 0.513232 g / cm^3
# Si number density = 5.144033 Si / 1000 Ang^3
#
#
#
# Elastic Constant Matrix: (Units=GPa)
#
#
# Indices 1 2 3 4 5 6 
#
# 1 85.8397 24.4632 62.9645 -0.0007 0.0005 0.0002
# 2 24.4632 70.0972 37.1020 -0.0013 0.0010 0.0006
# 3 62.9645 37.1020 230.6745 -0.0030 0.0021 0.0012
# 4 -0.0007 -0.0013 -0.0030 48.8083 0.0015 0.0009
# 5 0.0005 0.0010 0.0021 0.0015 37.9592 -0.0007
# 6 0.0002 0.0006 0.0012 0.0009 -0.0007 36.3122
#
#
#
# Elastic Compliance Matrix: (Units=1/GPa)
#
#
# Indices 1 2 3 4 5 6 
#
# 1 0.015279 -0.003416 -0.003621 0.000000 0.000000 0.000000
# 2 -0.003416 0.016357 -0.001699 0.000000 0.000000 0.000000
# 3 -0.003621 -0.001699 0.005597 0.000000 0.000000 0.000000
# 4 0.000000 0.000000 0.000000 0.020488 -0.000001 -0.000001
# 5 0.000000 0.000000 0.000000 -0.000001 0.026344 0.000000
# 6 0.000000 0.000000 0.000000 -0.000001 0.000000 0.027539
#
#
# Mechanical properties :
#
#
# Convention : Reuss Voigt Hill
#
# Bulk Modulus (GPa) = 50.60174 70.63010 60.61592
# Shear Modulus (GPa) = 36.85617 42.08804 39.47210
#
# Velocity S-wave (km/s) = 4.23686 4.52760 4.38464
# Velocity P-wave (km/s) = 6.96997 7.85704 7.42676
#
# Compressibility (1/GPa) = 0.01976217
#
# Stress axis : x y z
#
# Youngs Moduli (GPa) = 65.44830 61.13606 178.67493
#
# Poissons Ratio (x) = 0.20882 0.64702
# Poissons Ratio (y) = 0.22355 0.30349
# Poissons Ratio (z) = 0.23700 0.10384
#
# Static dielectric constant tensor:
#      x y z
#    x 1.823120 0.000000 0.000000 
#    y 0.000000 1.810370 0.000000 
#    z 0.000000 0.000000 1.665650 
# 
# From -- ./inp_files/4354.got.cif
#   From: 2010.05.17/outbox.ucp.g08.bks.cvg/sg43_3_cif.got.tgz:4354.got - 2010.06.11 16:31:01.
