data_PCOD9372997
_publ_section_title
;
Structure prediction by ZEFSAII (Michael W. Deem and Ramdas Pophale) SiO2 
 PCOD9372997
Probable space group: I M M 2
;
_chemical_formula_sum "Si O2"
_cell_formula_units_Z 40
_cell_length_a 7.774269
_cell_length_b 11.232582
_cell_length_c 22.532249
_cell_angle_alpha 90.000000
_cell_angle_beta 90.000000
_cell_angle_gamma 90.000000
_cell_volume 1967.631213
_symmetry_space_group_name_H-M "I M M 2"
_symmetry_group_IT_number 44
_symmetry_cell_setting 'orthorhombic'
loop_
_space_group_symop_operation_xyz
x,y,z
-x,-y,z
-x,y,z
x,-y,z
1/2+x,1/2+y,1/2+z
1/2-x,1/2-y,1/2+z
1/2-x,1/2+y,1/2+z
1/2+x,1/2-y,1/2+z
loop_
_atom_site_type_symbol
_atom_site_label
_atom_site_fract_x
_atom_site_fract_y
_atom_site_fract_z
Si Si1 0.696007 0.301762 0.204230
Si Si2 0.701711 0.000000 0.932417
Si Si3 0.208922 0.363600 0.800512
Si Si4 0.192464 0.500000 0.112897
Si Si5 0.794388 0.240075 0.426784
Si Si6 0.803257 0.000000 0.483890
Si Si7 0.202511 0.500000 0.290703
O O1 0.500000 0.280060 0.185470
O O2 0.769721 0.184281 0.235935
O O3 0.780002 0.382341 0.153212
O O4 0.704421 0.389039 0.261002
O O5 0.775861 0.869210 0.947401
O O6 0.500000 0.000000 0.950807
O O7 0.706711 0.000000 0.860806
O O8 0.261929 0.500000 0.810190
O O9 0.269098 0.286697 0.856924
O O10 0.000000 0.358940 0.799456
O O11 0.000000 0.500000 0.090170
O O12 0.307045 0.500000 0.054752
O O13 0.000000 0.246973 0.436986
O O14 0.724114 0.123216 0.460139
O O15 0.000000 0.000000 0.460998
O O16 0.000000 0.500000 0.272601
#
# Coordination Sequence:
#
# PCOD9372997 Si02
#       7
#     8   4   8   4   8   4   4
#     4  10  19  32  51  76 106 136 174 220 268 321
#     4   9  17  28  47  78 112 140 171 216 264 312
#     4  10  20  32  49  78 114 146 176 219 276 328
#     4  11  23  38  59  79 101 138 185 233 276 320
#     4  10  19  33  54  81 112 147 183 221 266 323
#     4  10  21  37  58  80 106 146 192 229 267 320
#     4  10  16  25  46  73 105 134 164 208 255 308
#
# _framework density 20.329013
#
# number of rings (size 3 to 8) (size 9 to 14) (size 15 to 20)
#    0.000    2.000    3.000    3.000    0.000    1.600 
#    0.000    0.500    2.200    0.000    0.000    0.000 
#    0.000    0.000    0.000    0.000    0.000    0.000 
#
# Total GULP energy -111384.701444 kJ/mol
# GULP energy per Si atom -5569.235072 kJ/mol
# Density = 2.028274 g / cm^3
# Si number density = 20.329013 Si / 1000 Ang^3
#
#
#
# Elastic Constant Matrix: (Units=GPa)
#
#
# Indices 1 2 3 4 5 6 
#
# 1 39.1956 3.5019 -4.5195 0.0000 0.0000 0.0000
# 2 3.5019 171.5916 33.3747 0.0000 0.0000 0.0000
# 3 -4.5195 33.3747 61.7664 0.0000 0.0000 0.0000
# 4 0.0000 0.0000 0.0000 22.5947 0.0000 0.0000
# 5 0.0000 0.0000 0.0000 0.0000 18.2857 0.0000
# 6 0.0000 0.0000 0.0000 0.0000 0.0000 6.6478
#
#
#
# Elastic Compliance Matrix: (Units=1/GPa)
#
#
# Indices 1 2 3 4 5 6 
#
# 1 0.025883 -0.001002 0.002435 0.000000 0.000000 0.000000
# 2 -0.001002 0.006551 -0.003613 0.000000 0.000000 0.000000
# 3 0.002435 -0.003613 0.018320 0.000000 0.000000 0.000000
# 4 0.000000 0.000000 0.000000 0.044258 0.000000 0.000000
# 5 0.000000 0.000000 0.000000 0.000000 0.054688 0.000000
# 6 0.000000 0.000000 0.000000 0.000000 0.000000 0.150426
#
#
# Mechanical properties :
#
#
# Convention : Reuss Voigt Hill
#
# Bulk Modulus (GPa) = 21.55384 37.47420 29.51402
# Shear Modulus (GPa) = 15.62737 25.51873 20.57305
#
# Velocity S-wave (km/s) = 2.77559 3.54685 3.18465
# Velocity P-wave (km/s) = 4.57137 5.93695 5.29834
#
# Compressibility (1/GPa) = 0.04639545
#
# Stress axis : x y z
#
# Youngs Moduli (GPa) = 38.63486 152.64891 54.58367
#
# Poissons Ratio (x) = 0.15294 -0.13292
# Poissons Ratio (y) = 0.03871 0.19721
# Poissons Ratio (z) = -0.09409 0.55153
#
# Static dielectric constant tensor:
#      x y z
#    x 1.737430 0.000000 0.000000 
#    y 0.000000 1.847490 0.000000 
#    z 0.000000 0.000000 1.681760 
# 
# From -- ./inp_files/22830.got.cif
#   From: 2010.05.17/outbox.cif.g08.bks.cpg/sg44_12_cif.got.tgz:22830.got - 2010.06.03 19:37:08.
