data_PCOD9372790
_publ_section_title
;
Structure prediction by ZEFSAII (Michael W. Deem and Ramdas Pophale) SiO2 
 PCOD9372790
Probable space group: F D D 2
;
_chemical_formula_sum "Si O2"
_cell_formula_units_Z 72
_cell_length_a 19.220060
_cell_length_b 9.109145
_cell_length_c 17.337842
_cell_angle_alpha 90.000000
_cell_angle_beta 90.000000
_cell_angle_gamma 90.000000
_cell_volume 3035.480136
_symmetry_space_group_name_H-M "F D D 2"
_symmetry_group_IT_number 43
_symmetry_cell_setting 'orthorhombic'
loop_
_space_group_symop_operation_xyz
x,y,z
-x,-y,z
1/4-x,1/4+y,1/4+z
1/4+x,1/4-y,1/4+z
x,1/2+y,1/2+z
-x,1/2-y,1/2+z
1/4-x,3/4+y,3/4+z
1/4+x,3/4-y,3/4+z
1/2+x,y,1/2+z
1/2-x,-y,1/2+z
3/4-x,1/4+y,3/4+z
3/4+x,1/4-y,3/4+z
1/2+x,1/2+y,z
1/2-x,1/2-y,z
3/4-x,3/4+y,1/4+z
3/4+x,3/4-y,1/4+z
loop_
_atom_site_type_symbol
_atom_site_label
_atom_site_fract_x
_atom_site_fract_y
_atom_site_fract_z
Si Si1 0.430457 0.959492 0.953850
Si Si2 0.500000 0.000000 0.291339
Si Si3 0.169419 0.277536 0.461600
Si Si4 0.613541 0.070993 0.531754
Si Si5 0.458858 0.253903 0.905391
O O1 0.365772 0.876132 0.985525
O O2 0.467726 0.833603 0.901754
O O3 0.500000 0.000000 0.003905
O O4 0.410230 0.109814 0.911683
O O5 0.564811 0.907460 0.258300
O O6 0.459030 0.876546 0.340987
O O7 0.250000 0.250000 0.478110
O O8 0.159018 0.317534 0.370995
O O9 0.128734 0.405899 0.505196
O O10 0.554005 0.153879 0.483149
#
# Coordination Sequence:
#
# PCOD9372790 Si02
#       5
#    16   8  16  16  16
#     4   8  20  43  67  96 133 189 230 295 372 429
#     4  12  22  44  74 104 144 192 246 306 388 438
#     4  12  28  43  71 110 146 193 255 312 368 456
#     4  12  25  45  71 105 144 193 247 308 374 453
#     4   9  20  42  69  96 133 189 234 297 373 439
#
# _framework density 23.719476
#
# number of rings (size 3 to 8) (size 9 to 14) (size 15 to 20)
#    1.333    0.000    4.444    0.000    7.778    2.667 
#    0.000    2.222    0.000    0.000    0.000    0.000 
#    0.000    0.000    0.000    0.000    0.000    0.000 
#
# Total GULP energy -100219.933030 kJ/mol
# GULP energy per Si atom -5567.774057 kJ/mol
# Density = 2.366549 g / cm^3
# Si number density = 23.719476 Si / 1000 Ang^3
#
#
#
# Elastic Constant Matrix: (Units=GPa)
#
#
# Indices 1 2 3 4 5 6 
#
# 1 89.0767 47.6871 1.7873 0.0000 0.0000 0.0000
# 2 47.6871 176.5916 13.3854 0.0000 0.0000 0.0000
# 3 1.7873 13.3854 67.7567 0.0000 0.0000 0.0000
# 4 0.0000 0.0000 0.0000-9643.7604 0.0000 0.0000
# 5 0.0000 0.0000 0.0000 0.0000 5.4297 0.0000
# 6 0.0000 0.0000 0.0000 0.0000 0.0000 56.5561
#
#
#
# Elastic Compliance Matrix: (Units=1/GPa)
#
#
# Indices 1 2 3 4 5 6 
#
# 1 0.013132 -0.003573 0.000360 0.000000 0.000000 0.000000
# 2 -0.003573 0.006721 -0.001234 0.000000 0.000000 0.000000
# 3 0.000360 -0.001234 0.014993 0.000000 0.000000 0.000000
# 4 0.000000 0.000000 0.000000 -0.000104 0.000000 0.000000
# 5 0.000000 0.000000 0.000000 0.000000 0.184171 0.000000
# 6 0.000000 0.000000 0.000000 0.000000 0.000000 0.017682
#
#
# Mechanical properties :
#
#
# Convention : Reuss Voigt Hill
#
# Bulk Modulus (GPa) = 38.53361 51.01606 44.77484
# Shear Modulus (GPa) = 19.67415 -1898.31723 -939.32154
#
# Velocity S-wave (km/s) = 2.88314 -28.32062 -19.92166
# Velocity P-wave (km/s) = 5.23108 32.37059 22.58861
#
# Compressibility (1/GPa) = 0.02595137
#
# Stress axis : x y z
#
# Youngs Moduli (GPa) = 76.14909 148.78131 66.69826
#
# Poissons Ratio (x) = 0.53167 -0.02398
# Poissons Ratio (y) = 0.27212 0.08227
# Poissons Ratio (z) = -0.02738 0.18353
#
# Static dielectric constant tensor:
#      x y z
#    x 1.990850 0.000000 0.000000 
#    y 0.000000 3.273620 0.000000 
#    z 0.000000 0.000000 1.945610 
# 
# From -- ./inp_files/12562.got.cif
#   From: 2010.05.17/outbox.cif.g08.bks.cpg/sg43_7_cif.got.tgz:12562.got - 2010.06.03 19:21:55.
