data_PCOD9372116
_publ_section_title
;
Structure prediction by ZEFSAII (Michael W. Deem and Ramdas Pophale) SiO2 
 PCOD9372116
Probable space group: F D D 2
;
_chemical_formula_sum "Si O2"
_cell_formula_units_Z 88
_cell_length_a 28.136442
_cell_length_b 23.090517
_cell_length_c 6.053968
_cell_angle_alpha 90.000000
_cell_angle_beta 90.000000
_cell_angle_gamma 90.000000
_cell_volume 3933.172154
_symmetry_space_group_name_H-M "F D D 2"
_symmetry_group_IT_number 43
_symmetry_cell_setting 'orthorhombic'
loop_
_space_group_symop_operation_xyz
x,y,z
-x,-y,z
1/4-x,1/4+y,1/4+z
1/4+x,1/4-y,1/4+z
x,1/2+y,1/2+z
-x,1/2-y,1/2+z
1/4-x,3/4+y,3/4+z
1/4+x,3/4-y,3/4+z
1/2+x,y,1/2+z
1/2-x,-y,1/2+z
3/4-x,1/4+y,3/4+z
3/4+x,1/4-y,3/4+z
1/2+x,1/2+y,z
1/2-x,1/2-y,z
3/4-x,3/4+y,1/4+z
3/4+x,3/4-y,1/4+z
loop_
_atom_site_type_symbol
_atom_site_label
_atom_site_fract_x
_atom_site_fract_y
_atom_site_fract_z
Si Si1 0.813851 0.458410 0.040870
Si Si2 0.414891 0.429427 0.335425
Si Si3 0.000000 0.500000 0.748607
Si Si4 0.022911 0.886272 0.977338
Si Si5 0.688614 0.409733 0.425491
Si Si6 0.606702 0.352212 0.681446
O O1 0.801230 0.522867 0.965038
O O2 0.821694 0.441407 0.297684
O O3 0.867303 0.447179 0.958348
O O4 0.779978 0.413705 0.912425
O O5 0.455243 0.476348 0.381756
O O6 0.433956 0.368069 0.430782
O O7 0.397297 0.427690 0.082277
O O8 0.985025 0.553922 0.599982
O O9 0.072044 0.886666 0.843215
O O10 0.979832 0.872743 0.811723
O O11 0.636800 0.394981 0.527611
#
# Coordination Sequence:
#
# PCOD9372116 Si02
#       6
#    16  16   8  16  16  16
#     4  10  26  45  70 103 143 192 231 306 361 447
#     4  10  25  45  68 105 137 192 237 301 363 434
#     4  12  26  46  72 100 148 180 248 298 354 448
#     4  11  27  43  69 106 141 191 236 298 370 431
#     4  11  25  44  72 104 140 183 250 292 371 441
#     4  10  24  46  67 103 140 187 241 288 375 423
#
# _framework density 22.373798000000001
#
# number of rings (size 3 to 8) (size 9 to 14) (size 15 to 20)
#    0.000    1.455    1.818    0.000   15.273    2.182 
#    0.000    0.000    0.000    0.000    0.000    0.000 
#    0.000    0.000    0.000    0.000    0.000    0.000 
#
# Total GULP energy -122868.754602 kJ/mol
# GULP energy per Si atom -5584.943391 kJ/mol
# Density = 2.232287 g / cm^3
# Si number density = 22.373798 Si / 1000 Ang^3
#
#
#
# Elastic Constant Matrix: (Units=GPa)
#
#
# Indices 1 2 3 4 5 6 
#
# 1 86.9889 6.5452 6.3119 -0.0125 0.0053 0.0038
# 2 6.5452 127.2703 16.8917 -0.0428 0.0369 0.0049
# 3 6.3119 16.8917 58.6128 -0.0719 0.0596 0.0183
# 4 -0.0125 -0.0428 -0.0719 25.2072 0.0346 0.0122
# 5 0.0053 0.0369 0.0596 0.0346 25.1619 -0.0253
# 6 0.0038 0.0049 0.0183 0.0122 -0.0253 42.4430
#
#
#
# Elastic Compliance Matrix: (Units=1/GPa)
#
#
# Indices 1 2 3 4 5 6 
#
# 1 0.011611 -0.000448 -0.001121 0.000002 0.000001 -0.000001
# 2 -0.000448 0.008187 -0.002311 0.000007 -0.000006 0.000000
# 3 -0.001121 -0.002311 0.017848 0.000046 -0.000039 -0.000007
# 4 0.000002 0.000007 0.000046 0.039671 -0.000055 -0.000011
# 5 0.000001 -0.000006 -0.000039 -0.000055 0.039743 0.000024
# 6 -0.000001 0.000000 -0.000007 -0.000011 0.000024 0.023561
#
#
# Mechanical properties :
#
#
# Convention : Reuss Voigt Hill
#
# Bulk Modulus (GPa) = 33.46198 36.92997 35.19597
# Shear Modulus (GPa) = 31.57683 34.77064 33.17373
#
# Velocity S-wave (km/s) = 3.76084 3.94646 3.85477
# Velocity P-wave (km/s) = 5.81781 6.10801 5.96468
#
# Compressibility (1/GPa) = 0.02988467
#
# Stress axis : x y z
#
# Youngs Moduli (GPa) = 86.12670 122.14343 56.02870
#
# Poissons Ratio (x) = 0.05476 0.06282
# Poissons Ratio (y) = 0.03861 0.12949
# Poissons Ratio (z) = 0.09656 0.28229
#
# Static dielectric constant tensor:
#      x y z
#    x 1.823360 0.000000 0.000000 
#    y 0.000000 1.794870 -0.000020 
#    z 0.000000 -0.000020 1.932820 
# 
# From -- ./inp_files/1000.got.cif
#   From: 2010.05.17/outbox.cif.g08.bks.cpg/sg43_1_cif.got.tgz:1000.got - 2010.06.03 19:21:55.
