data_PCOD9372213
_publ_section_title
;
Structure prediction by ZEFSAII (Michael W. Deem and Ramdas Pophale) SiO2 
 PCOD9372213
Probable space group: F D D 2
;
_chemical_formula_sum "Si O2"
_cell_formula_units_Z 80
_cell_length_a 13.183343
_cell_length_b 17.320850
_cell_length_c 17.322429
_cell_angle_alpha 90.000000
_cell_angle_beta 90.000000
_cell_angle_gamma 90.000000
_cell_volume 3955.519612
_symmetry_space_group_name_H-M "F D D 2"
_symmetry_group_IT_number 43
_symmetry_cell_setting 'orthorhombic'
loop_
_space_group_symop_operation_xyz
x,y,z
-x,-y,z
1/4-x,1/4+y,1/4+z
1/4+x,1/4-y,1/4+z
x,1/2+y,1/2+z
-x,1/2-y,1/2+z
1/4-x,3/4+y,3/4+z
1/4+x,3/4-y,3/4+z
1/2+x,y,1/2+z
1/2-x,-y,1/2+z
3/4-x,1/4+y,3/4+z
3/4+x,1/4-y,3/4+z
1/2+x,1/2+y,z
1/2-x,1/2-y,z
3/4-x,3/4+y,1/4+z
3/4+x,3/4-y,1/4+z
loop_
_atom_site_type_symbol
_atom_site_label
_atom_site_fract_x
_atom_site_fract_y
_atom_site_fract_z
Si Si1 0.446613 0.625158 0.252660
Si Si2 0.224066 0.835223 0.480233
Si Si3 0.736875 0.159699 0.180226
Si Si4 0.913875 0.737149 0.247368
Si Si5 0.750000 0.250000 0.628648
Si Si6 0.000000 0.000000 0.130558
O O1 0.327941 0.620509 0.229406
O O2 0.485294 0.597616 0.336627
O O3 0.484039 0.713487 0.249609
O O4 0.497604 0.573820 0.186150
O O5 0.250000 0.750000 0.445939
O O6 0.119251 0.870349 0.452018
O O7 0.310883 0.899590 0.473638
O O8 0.216124 0.817322 0.571317
O O9 0.750000 0.250000 0.197714
O O10 0.842004 0.773657 0.182465
O O11 0.848678 0.744228 0.325546
#
# Coordination Sequence:
#
# PCOD9372213 Si02
#       6
#    16  16  16  16   8   8
#     4  12  25  44  70 104 136 188 234 299 357 434
#     4  10  25  45  67 105 136 188 229 292 353 436
#     4  12  26  45  72 103 145 184 240 296 364 427
#     4  11  22  45  73  96 141 182 237 295 356 425
#     4   9  24  44  66 101 130 184 234 289 340 438
#     4  11  24  44  68 103 132 186 236 289 360 424
#
# _framework density 20.224903000000001
#
# number of rings (size 3 to 8) (size 9 to 14) (size 15 to 20)
#    0.600    0.400    5.000    1.200    2.800    2.400 
#    7.200    0.000    0.000    0.000    0.000    0.000 
#    0.000    0.000    0.000    0.000    0.000    0.000 
#
# Total GULP energy -111476.087176 kJ/mol
# GULP energy per Si atom -5573.804359 kJ/mol
# Density = 2.017887 g / cm^3
# Si number density = 20.224903 Si / 1000 Ang^3
#
#
#
# Elastic Constant Matrix: (Units=GPa)
#
#
# Indices 1 2 3 4 5 6 
#
# 1 96.0484 29.1592 27.2093 0.0000 0.0000 0.0000
# 2 29.1592 116.8663 14.0675 0.0000 0.0000 0.0000
# 3 27.2093 14.0675 59.3511 0.0000 0.0000 0.0000
# 4 0.0000 0.0000 0.0000 18.4402 0.0000 0.0000
# 5 0.0000 0.0000 0.0000 0.0000 5.1719 0.0000
# 6 0.0000 0.0000 0.0000 0.0000 0.0000 31.6329
#
#
#
# Elastic Compliance Matrix: (Units=1/GPa)
#
#
# Indices 1 2 3 4 5 6 
#
# 1 0.012653 -0.002531 -0.005201 0.000000 0.000000 0.000000
# 2 -0.002531 0.009314 -0.001047 0.000000 0.000000 0.000000
# 3 -0.005201 -0.001047 0.019481 0.000000 0.000000 0.000000
# 4 0.000000 0.000000 0.000000 0.054229 0.000000 0.000000
# 5 0.000000 0.000000 0.000000 0.000000 0.193353 0.000000
# 6 0.000000 0.000000 0.000000 0.000000 0.000000 0.031613
#
#
# Mechanical properties :
#
#
# Convention : Reuss Voigt Hill
#
# Bulk Modulus (GPa) = 41.85778 45.90420 43.88099
# Shear Modulus (GPa) = 14.44396 24.50433 19.47415
#
# Velocity S-wave (km/s) = 2.67529 3.48457 3.10640
# Velocity P-wave (km/s) = 5.50309 6.23985 5.88302
#
# Compressibility (1/GPa) = 0.02389042
#
# Stress axis : x y z
#
# Youngs Moduli (GPa) = 79.03169 107.36089 51.33088
#
# Poissons Ratio (x) = 0.27173 0.26697
# Poissons Ratio (y) = 0.20003 0.05376
# Poissons Ratio (z) = 0.41103 0.11245
#
# Static dielectric constant tensor:
#      x y z
#    x 1.746920 0.000000 0.000000 
#    y 0.000000 1.735820 0.000000 
#    z 0.000000 0.000000 1.707370 
# 
# From -- ./inp_files/13803.got.cif
#   From: 2010.05.17/outbox.cif.g08.bks.cpg/sg43_7_cif.got.tgz:13803.got - 2010.06.03 19:21:55.
