data_PCOD9372604
_publ_section_title
;
Structure prediction by ZEFSAII (Michael W. Deem and Ramdas Pophale) SiO2 
 PCOD9372604
Probable space group: F D D 2
;
_chemical_formula_sum "Si O2"
_cell_formula_units_Z 112
_cell_length_a 26.803804
_cell_length_b 14.076218
_cell_length_c 11.905055
_cell_angle_alpha 90.000000
_cell_angle_beta 90.000000
_cell_angle_gamma 90.000000
_cell_volume 4491.731873
_symmetry_space_group_name_H-M "F D D 2"
_symmetry_group_IT_number 43
_symmetry_cell_setting 'orthorhombic'
loop_
_space_group_symop_operation_xyz
x,y,z
-x,-y,z
1/4-x,1/4+y,1/4+z
1/4+x,1/4-y,1/4+z
x,1/2+y,1/2+z
-x,1/2-y,1/2+z
1/4-x,3/4+y,3/4+z
1/4+x,3/4-y,3/4+z
1/2+x,y,1/2+z
1/2-x,-y,1/2+z
3/4-x,1/4+y,3/4+z
3/4+x,1/4-y,3/4+z
1/2+x,1/2+y,z
1/2-x,1/2-y,z
3/4-x,3/4+y,1/4+z
3/4+x,3/4-y,1/4+z
loop_
_atom_site_type_symbol
_atom_site_label
_atom_site_fract_x
_atom_site_fract_y
_atom_site_fract_z
Si Si1 0.257194 0.059432 0.660250
Si Si2 0.419040 0.582095 0.168985
Si Si3 0.662927 0.981033 0.049860
Si Si4 0.000000 0.000000 0.510729
Si Si5 0.000000 0.500000 0.382895
Si Si6 0.484238 0.846607 0.570980
Si Si7 0.343775 0.619284 0.998614
Si Si8 0.079571 0.525932 0.201501
O O1 0.233336 0.161199 0.687058
O O2 0.308603 0.081839 0.599556
O O3 0.220246 0.000352 0.581518
O O4 0.259124 0.999728 0.775259
O O5 0.397367 0.674958 0.230877
O O6 0.477885 0.601541 0.156342
O O7 0.407499 0.482976 0.229399
O O8 0.397306 0.584244 0.041493
O O9 0.629843 0.975727 0.161990
O O10 0.657928 0.882958 0.986178
O O11 0.044668 0.029118 0.591919
O O12 0.018294 0.583177 0.465085
O O13 0.046283 0.477734 0.299179
O O14 0.432700 0.830116 0.636383
#
# Coordination Sequence:
#
# PCOD9372604 Si02
#       8
#    16  16  16   8   8  16  16  16
#     4  12  25  44  75 106 147 196 251 309 379 447
#     4  12  24  45  75 109 152 192 258 316 377 458
#     4  12  23  43  71 107 147 195 250 312 378 454
#     4  11  24  43  70 106 140 193 250 305 374 450
#     4  11  24  49  68 100 152 197 246 305 368 452
#     4  12  25  48  74 106 151 197 251 310 377 451
#     4  12  26  46  75 111 149 201 253 316 384 448
#     4  11  25  44  69 104 149 197 246 312 377 446
#
# _framework density 24.934705000000001
#
# number of rings (size 3 to 8) (size 9 to 14) (size 15 to 20)
#    0.000    0.286    4.286    5.143    0.000    1.143 
#    0.000    0.000    0.000    0.000    0.000    0.000 
#    0.000    0.000    0.000    0.000    0.000    0.000 
#
# Total GULP energy -156855.126203 kJ/mol
# GULP energy per Si atom -5601.968793 kJ/mol
# Density = 2.487795 g / cm^3
# Si number density = 24.934705 Si / 1000 Ang^3
#
#
#
# Elastic Constant Matrix: (Units=GPa)
#
#
# Indices 1 2 3 4 5 6 
#
# 1 60.6737 -5.4715 9.8119 0.0000 0.0000 0.0000
# 2 -5.4715 101.2563 20.5396 0.0000 0.0000 0.0000
# 3 9.8119 20.5396 84.6892 0.0000 0.0000 0.0000
# 4 0.0000 0.0000 0.0000 92.5326 0.0000 0.0000
# 5 0.0000 0.0000 0.0000 0.0000 56.1819 0.0000
# 6 0.0000 0.0000 0.0000 0.0000 0.0000 22.2457
#
#
#
# Elastic Compliance Matrix: (Units=1/GPa)
#
#
# Indices 1 2 3 4 5 6 
#
# 1 0.016979 0.001385 -0.002303 0.000000 0.000000 0.000000
# 2 0.001385 0.010500 -0.002707 0.000000 0.000000 0.000000
# 3 -0.002303 -0.002707 0.012731 0.000000 0.000000 0.000000
# 4 0.000000 0.000000 0.000000 0.010807 0.000000 0.000000
# 5 0.000000 0.000000 0.000000 0.000000 0.017799 0.000000
# 6 0.000000 0.000000 0.000000 0.000000 0.000000 0.044953
#
#
# Mechanical properties :
#
#
# Convention : Reuss Voigt Hill
#
# Bulk Modulus (GPa) = 30.34033 32.93101 31.63567
# Shear Modulus (GPa) = 37.87711 48.97465 43.42588
#
# Velocity S-wave (km/s) = 3.90173 4.43664 4.17776
# Velocity P-wave (km/s) = 5.70020 6.28336 5.99887
#
# Compressibility (1/GPa) = 0.03295943
#
# Stress axis : x y z
#
# Youngs Moduli (GPa) = 58.89664 95.23952 78.54718
#
# Poissons Ratio (x) = -0.13187 0.18089
# Poissons Ratio (y) = -0.08155 0.21262
# Poissons Ratio (z) = 0.13564 0.25781
#
# Static dielectric constant tensor:
#      x y z
#    x 2.004140 0.000000 0.000000 
#    y 0.000000 1.938830 0.000000 
#    z 0.000000 0.000000 2.011180 
# 
# From -- ./inp_files/6349.got.cif
#   From: 2010.05.17/outbox.cif.g08.bks.cpg/sg43_4_cif.got.tgz:6349.got - 2010.06.03 19:21:55.
