data_PCOD9372688
_publ_section_title
;
Structure prediction by ZEFSAII (Michael W. Deem and Ramdas Pophale) SiO2 
 PCOD9372688
Probable space group: F D D 2
;
_chemical_formula_sum "Si O2"
_cell_formula_units_Z 104
_cell_length_a 25.606134
_cell_length_b 8.157763
_cell_length_c 20.948634
_cell_angle_alpha 90.000000
_cell_angle_beta 90.000000
_cell_angle_gamma 90.000000
_cell_volume 4375.934442
_symmetry_space_group_name_H-M "F D D 2"
_symmetry_group_IT_number 43
_symmetry_cell_setting 'orthorhombic'
loop_
_space_group_symop_operation_xyz
x,y,z
-x,-y,z
1/4-x,1/4+y,1/4+z
1/4+x,1/4-y,1/4+z
x,1/2+y,1/2+z
-x,1/2-y,1/2+z
1/4-x,3/4+y,3/4+z
1/4+x,3/4-y,3/4+z
1/2+x,y,1/2+z
1/2-x,-y,1/2+z
3/4-x,1/4+y,3/4+z
3/4+x,1/4-y,3/4+z
1/2+x,1/2+y,z
1/2-x,1/2-y,z
3/4-x,3/4+y,1/4+z
3/4+x,3/4-y,1/4+z
loop_
_atom_site_type_symbol
_atom_site_label
_atom_site_fract_x
_atom_site_fract_y
_atom_site_fract_z
Si Si1 0.156795 0.377093 0.945630
Si Si2 0.250000 0.250000 0.125990
Si Si3 0.804090 0.484424 0.437926
Si Si4 0.782732 0.445971 0.039829
Si Si5 0.692350 0.250098 0.155648
Si Si6 0.664628 0.094735 0.708146
Si Si7 0.476946 0.184127 0.592203
O O1 0.184141 0.203370 0.955443
O O2 0.095953 0.361736 0.931470
O O3 0.184237 0.480387 0.888900
O O4 0.164994 0.481290 0.009267
O O5 0.241351 0.414905 0.085685
O O6 0.300244 0.277842 0.169185
O O7 0.758130 0.560319 0.481654
O O8 0.855742 0.588244 0.453825
O O9 0.780719 0.475057 0.365536
O O10 0.700579 0.209498 0.081344
O O11 0.750000 0.250000 0.185150
O O12 0.666787 0.422722 0.170779
O O13 0.696013 0.068440 0.774801
O O14 0.500000 0.000000 0.601792
#
# Coordination Sequence:
#
# PCOD9372688 Si02
#       7
#    16   8  16  16  16  16  16
#     4  11  26  51  81 117 151 215 266 337 399 477
#     4  12  22  52  72 108 150 196 256 322 392 466
#     4  11  26  52  84 113 158 211 271 331 405 482
#     4  11  24  50  81 110 151 205 265 329 393 483
#     4  12  28  45  72 115 160 199 261 325 400 477
#     4  12  28  49  76 115 165 207 256 333 402 483
#     4  11  25  49  80 119 159 204 268 329 404 485
#
# _framework density 23.766352000000001
#
# number of rings (size 3 to 8) (size 9 to 14) (size 15 to 20)
#    0.000    0.615    3.846    3.231    4.308    4.923 
#    5.538    0.000    0.000    0.000    0.000    0.000 
#    0.000    0.000    0.000    0.000    0.000    0.000 
#
# Total GULP energy -145196.702563 kJ/mol
# GULP energy per Si atom -5584.488560 kJ/mol
# Density = 2.371226 g / cm^3
# Si number density = 23.766352 Si / 1000 Ang^3
#
#
#
# Elastic Constant Matrix: (Units=GPa)
#
#
# Indices 1 2 3 4 5 6 
#
# 1 149.9895 28.6821 55.5624 0.0000 0.0000 0.0000
# 2 28.6821 119.1010 43.7839 0.0000 0.0000 0.0000
# 3 55.5624 43.7839 117.9699 0.0000 0.0000 0.0000
# 4 0.0000 0.0000 0.0000 30.4561 0.0000 0.0000
# 5 0.0000 0.0000 0.0000 0.0000 20.3927 0.0000
# 6 0.0000 0.0000 0.0000 0.0000 0.0000 37.7561
#
#
#
# Elastic Compliance Matrix: (Units=1/GPa)
#
#
# Indices 1 2 3 4 5 6 
#
# 1 0.008118 -0.000636 -0.003587 0.000000 0.000000 0.000000
# 2 -0.000636 0.009773 -0.003327 0.000000 0.000000 0.000000
# 3 -0.003587 -0.003327 0.011401 0.000000 0.000000 0.000000
# 4 0.000000 0.000000 0.000000 0.032834 0.000000 0.000000
# 5 0.000000 0.000000 0.000000 0.000000 0.049037 0.000000
# 6 0.000000 0.000000 0.000000 0.000000 0.000000 0.026486
#
#
# Mechanical properties :
#
#
# Convention : Reuss Voigt Hill
#
# Bulk Modulus (GPa) = 70.47264 71.45747 70.96505
# Shear Modulus (GPa) = 31.75002 34.98978 33.36990
#
# Velocity S-wave (km/s) = 3.65899 3.84114 3.75117
# Velocity P-wave (km/s) = 6.89693 7.05722 6.97754
#
# Compressibility (1/GPa) = 0.01418990
#
# Stress axis : x y z
#
# Youngs Moduli (GPa) = 123.18855 102.32613 87.70991
#
# Poissons Ratio (x) = 0.06510 0.31463
# Poissons Ratio (y) = 0.07837 0.29185
# Poissons Ratio (z) = 0.44190 0.34048
#
# Static dielectric constant tensor:
#      x y z
#    x 1.985490 0.000000 0.000000 
#    y 0.000000 1.950600 0.000000 
#    z 0.000000 0.000000 1.941770 
# 
# From -- ./inp_files/18862.got.cif
#   From: 2010.05.17/outbox.cif.g08.bks.cpg/sg43_10_cif.got.tgz:18862.got - 2010.06.03 19:21:55.
