data_PCOD9372212
_publ_section_title
;
Structure prediction by ZEFSAII (Michael W. Deem and Ramdas Pophale) SiO2 
 PCOD9372212
Probable space group: F D D 2
;
_chemical_formula_sum "Si O2"
_cell_formula_units_Z 112
_cell_length_a 11.285855
_cell_length_b 24.218628
_cell_length_c 19.195123
_cell_angle_alpha 90.000000
_cell_angle_beta 90.000000
_cell_angle_gamma 90.000000
_cell_volume 5246.563119
_symmetry_space_group_name_H-M "F D D 2"
_symmetry_group_IT_number 43
_symmetry_cell_setting 'orthorhombic'
loop_
_space_group_symop_operation_xyz
x,y,z
-x,-y,z
1/4-x,1/4+y,1/4+z
1/4+x,1/4-y,1/4+z
x,1/2+y,1/2+z
-x,1/2-y,1/2+z
1/4-x,3/4+y,3/4+z
1/4+x,3/4-y,3/4+z
1/2+x,y,1/2+z
1/2-x,-y,1/2+z
3/4-x,1/4+y,3/4+z
3/4+x,1/4-y,3/4+z
1/2+x,1/2+y,z
1/2-x,1/2-y,z
3/4-x,3/4+y,1/4+z
3/4+x,3/4-y,1/4+z
loop_
_atom_site_type_symbol
_atom_site_label
_atom_site_fract_x
_atom_site_fract_y
_atom_site_fract_z
Si Si1 0.186825 0.889554 0.459430
Si Si2 0.949808 0.209872 0.402879
Si Si3 0.798123 0.811076 0.429368
Si Si4 0.885575 0.745288 0.756016
Si Si5 0.462325 0.063917 0.836087
Si Si6 0.977273 0.672300 0.631699
Si Si7 0.856175 0.794766 0.005697
O O1 0.092151 0.839652 0.453252
O O2 0.178396 0.941108 0.512027
O O3 0.146589 0.920695 0.387245
O O4 0.302424 0.852780 0.477135
O O5 0.881335 0.214489 0.330172
O O6 0.930789 0.266045 0.444625
O O7 0.084346 0.199423 0.385578
O O8 0.750000 0.750000 0.434588
O O9 0.825253 0.829803 0.508406
O O10 0.723488 0.861383 0.399020
O O11 0.750000 0.750000 0.730917
O O12 0.962033 0.711023 0.699830
O O13 0.590972 0.087928 0.857076
O O14 0.500000 0.000000 0.834717
O O15 0.059214 0.698047 0.572143
O O16 0.750000 0.750000 0.019640
#
# Coordination Sequence:
#
# PCOD9372212 Si02
#       7
#    16  16  16  16  16  16  16
#     4  11  21  42  68 103 129 179 226 290 353 409
#     4  11  24  44  66 100 138 179 230 293 353 415
#     4  11  25  40  68  95 136 184 231 286 353 410
#     4  12  23  42  72 106 130 171 242 298 339 420
#     4  11  20  42  70  99 128 174 242 291 340 413
#     4  12  23  45  67 101 137 179 240 286 344 430
#     4  10  25  45  65  98 148 182 221 282 371 426
#
# _framework density 21.347307000000001
#
# number of rings (size 3 to 8) (size 9 to 14) (size 15 to 20)
#    0.000    0.857    4.286    3.857    2.000    1.143 
#    5.143    0.714    0.000    0.000    0.000    0.000 
#    0.000    0.000    0.000    0.000    0.000    0.000 
#
# Total GULP energy -155931.200466 kJ/mol
# GULP energy per Si atom -5568.971445 kJ/mol
# Density = 2.129872 g / cm^3
# Si number density = 21.347307 Si / 1000 Ang^3
#
#
#
# Elastic Constant Matrix: (Units=GPa)
#
#
# Indices 1 2 3 4 5 6 
#
# 1 34.7269 33.6102 21.7826 0.0000 0.0000 0.0000
# 2 33.6102 153.4105 31.5273 0.0000 0.0000 0.0000
# 3 21.7826 31.5273 78.7258 0.0000 0.0000 0.0000
# 4 0.0000 0.0000 0.0000-1276.3912 0.0000 0.0000
# 5 0.0000 0.0000 0.0000 0.0000 30.6962 0.0000
# 6 0.0000 0.0000 0.0000 0.0000 0.0000 12.5204
#
#
#
# Elastic Compliance Matrix: (Units=1/GPa)
#
#
# Indices 1 2 3 4 5 6 
#
# 1 0.041151 -0.007274 -0.008473 0.000000 0.000000 0.000000
# 2 -0.007274 0.008389 -0.001347 0.000000 0.000000 0.000000
# 3 -0.008473 -0.001347 0.015586 0.000000 0.000000 0.000000
# 4 0.000000 0.000000 0.000000 -0.000783 0.000000 0.000000
# 5 0.000000 0.000000 0.000000 0.000000 0.032577 0.000000
# 6 0.000000 0.000000 0.000000 0.000000 0.000000 0.079869
#
#
# Mechanical properties :
#
#
# Convention : Reuss Voigt Hill
#
# Bulk Modulus (GPa) = 32.32268 48.96705 40.64487
# Shear Modulus (GPa) = 22.59473 -234.63871 -106.02199
#
# Velocity S-wave (km/s) = 3.25689 -10.49540 -7.05500
# Velocity P-wave (km/s) = 5.41455 11.13029 6.87626
#
# Compressibility (1/GPa) = 0.03093803
#
# Stress axis : x y z
#
# Youngs Moduli (GPa) = 24.30055 119.20425 64.16004
#
# Poissons Ratio (x) = 0.86714 0.54362
# Poissons Ratio (y) = 0.17677 0.08641
# Poissons Ratio (z) = 0.20590 0.16054
#
# Static dielectric constant tensor:
#      x y z
#    x 1.789620 0.000000 0.000000 
#    y 0.000000 2.090840 0.000000 
#    z 0.000000 0.000000 1.776350 
# 
# From -- ./inp_files/17239.got.cif
#   From: 2010.05.17/outbox.cif.g08.bks.cpg/sg43_9_cif.got.tgz:17239.got - 2010.06.03 19:21:55.
