data_PCOD9372046
_publ_section_title
;
Structure prediction by ZEFSAII (Michael W. Deem and Ramdas Pophale) SiO2 
 PCOD9372046
Probable space group: F D D 2
;
_chemical_formula_sum "Si O2"
_cell_formula_units_Z 80
_cell_length_a 25.138721
_cell_length_b 14.993268
_cell_length_c 8.052660
_cell_angle_alpha 90.000000
_cell_angle_beta 90.000000
_cell_angle_gamma 90.000000
_cell_volume 3035.140813
_symmetry_space_group_name_H-M "F D D 2"
_symmetry_group_IT_number 43
_symmetry_cell_setting 'orthorhombic'
loop_
_space_group_symop_operation_xyz
x,y,z
-x,-y,z
1/4-x,1/4+y,1/4+z
1/4+x,1/4-y,1/4+z
x,1/2+y,1/2+z
-x,1/2-y,1/2+z
1/4-x,3/4+y,3/4+z
1/4+x,3/4-y,3/4+z
1/2+x,y,1/2+z
1/2-x,-y,1/2+z
3/4-x,1/4+y,3/4+z
3/4+x,1/4-y,3/4+z
1/2+x,1/2+y,z
1/2-x,1/2-y,z
3/4-x,3/4+y,1/4+z
3/4+x,3/4-y,1/4+z
loop_
_atom_site_type_symbol
_atom_site_label
_atom_site_fract_x
_atom_site_fract_y
_atom_site_fract_z
Si Si1 0.689623 0.993864 0.378540
Si Si2 0.658407 0.877835 0.694925
Si Si3 0.708854 0.602323 0.355119
Si Si4 0.649652 0.873699 0.069155
Si Si5 0.000000 0.000000 0.362506
Si Si6 0.750000 0.250000 0.610163
O O1 0.675559 0.950251 0.556470
O O2 0.753345 0.984401 0.365551
O O3 0.667831 0.937541 0.219666
O O4 0.658687 0.085864 0.364446
O O5 0.603349 0.841833 0.619831
O O6 0.702932 0.801001 0.703318
O O7 0.647116 0.908067 0.881696
O O8 0.725487 0.671255 0.500911
O O9 0.726001 0.661744 0.199540
O O10 0.693733 0.794785 0.056758
#
# Coordination Sequence:
#
# PCOD9372046 Si02
#       6
#    16  16  16  16   8   8
#     4  10  24  43  63  97 136 173 225 283 337 406
#     4  11  22  40  68  92 134 174 224 277 331 402
#     4   9  19  40  64  91 132 177 212 279 344 391
#     4  11  23  40  67  98 127 180 230 273 342 411
#     4   9  21  38  66  95 125 176 227 265 340 403
#     4   9  17  40  66  89 131 176 221 269 342 399
#
# _framework density 26.357921000000001
#
# number of rings (size 3 to 8) (size 9 to 14) (size 15 to 20)
#    0.000    2.000    2.000    1.800    2.800    0.000 
#    3.600    0.000    0.000    0.000    0.000    0.000 
#    0.000    0.000    0.000    0.000    0.000    0.000 
#
# Total GULP energy -111852.429993 kJ/mol
# GULP energy per Si atom -5592.621500 kJ/mol
# Density = 2.629793 g / cm^3
# Si number density = 26.357921 Si / 1000 Ang^3
#
#
#
# Elastic Constant Matrix: (Units=GPa)
#
#
# Indices 1 2 3 4 5 6 
#
# 1 132.3391 29.6481 -0.3712 0.0000 0.0000 0.0000
# 2 29.6481 67.8448 11.3591 0.0000 0.0000 0.0000
# 3 -0.3712 11.3591 121.4398 0.0000 0.0000 0.0000
# 4 0.0000 0.0000 0.0000 7.3585 0.0000 0.0000
# 5 0.0000 0.0000 0.0000 0.0000 25.2586 0.0000
# 6 0.0000 0.0000 0.0000 0.0000 0.0000 35.4936
#
#
#
# Elastic Compliance Matrix: (Units=1/GPa)
#
#
# Indices 1 2 3 4 5 6 
#
# 1 0.008393 -0.003731 0.000375 0.000000 0.000000 0.000000
# 2 -0.003731 0.016632 -0.001567 0.000000 0.000000 0.000000
# 3 0.000375 -0.001567 0.008382 0.000000 0.000000 0.000000
# 4 0.000000 0.000000 0.000000 0.135897 0.000000 0.000000
# 5 0.000000 0.000000 0.000000 0.000000 0.039591 0.000000
# 6 0.000000 0.000000 0.000000 0.000000 0.000000 0.028174
#
#
# Mechanical properties :
#
#
# Convention : Reuss Voigt Hill
#
# Bulk Modulus (GPa) = 42.44220 44.76620 43.60420
# Shear Modulus (GPa) = 19.62559 32.35465 25.99012
#
# Velocity S-wave (km/s) = 2.73166 3.50739 3.14354
# Velocity P-wave (km/s) = 5.10749 5.78128 5.45480
#
# Compressibility (1/GPa) = 0.02356145
#
# Stress axis : x y z
#
# Youngs Moduli (GPa) = 119.14482 60.12461 119.29952
#
# Poissons Ratio (x) = 0.22430 -0.04469
# Poissons Ratio (y) = 0.44447 0.18696
# Poissons Ratio (z) = -0.04463 0.09422
#
# Static dielectric constant tensor:
#      x y z
#    x 2.012650 0.000000 0.000000 
#    y 0.000000 2.055930 0.000000 
#    z 0.000000 0.000000 2.059010 
# 
# From -- ./inp_files/2823.got.cif
#   From: 2010.05.17/outbox.cif.g08.bks.cpg/sg43_2_cif.got.tgz:2823.got - 2010.06.03 19:21:55.
