data_PCOD9372998
_publ_section_title
;
Structure prediction by ZEFSAII (Michael W. Deem and Ramdas Pophale) SiO2 
 PCOD9372998
Probable space group: I M M 2
;
_chemical_formula_sum "Si O2"
_cell_formula_units_Z 36
_cell_length_a 9.629691
_cell_length_b 22.485208
_cell_length_c 6.990259
_cell_angle_alpha 90.000000
_cell_angle_beta 90.000000
_cell_angle_gamma 90.000000
_cell_volume 1513.570060
_symmetry_space_group_name_H-M "I M M 2"
_symmetry_group_IT_number 44
_symmetry_cell_setting 'orthorhombic'
loop_
_space_group_symop_operation_xyz
x,y,z
-x,-y,z
-x,y,z
x,-y,z
1/2+x,1/2+y,1/2+z
1/2-x,1/2-y,1/2+z
1/2-x,1/2+y,1/2+z
1/2+x,1/2-y,1/2+z
loop_
_atom_site_type_symbol
_atom_site_label
_atom_site_fract_x
_atom_site_fract_y
_atom_site_fract_z
Si Si1 0.657189 0.676391 0.919470
Si Si2 0.265208 0.086016 0.950836
Si Si3 0.163430 0.568369 0.002165
Si Si4 0.158110 0.208925 0.864549
Si Si5 0.000000 0.000000 0.974949
Si Si6 0.500000 0.000000 0.094203
O O1 0.500000 0.675410 0.844592
O O2 0.737343 0.614465 0.896855
O O3 0.748546 0.732375 0.856567
O O4 0.647406 0.684819 0.148959
O O5 0.318425 0.077535 0.730751
O O6 0.234981 0.156083 0.979268
O O7 0.121095 0.051558 0.967854
O O8 0.379358 0.052135 0.074426
O O9 0.200802 0.500000 0.962244
O O10 0.000000 0.575696 0.961074
O O11 0.000000 0.221444 0.930404
#
# Coordination Sequence:
#
# PCOD9372998 Si02
#       6
#     8   8   8   8   2   2
#     4  10  23  35  55  81 107 143 181 218 265 318
#     4  10  17  27  47  75 108 136 169 218 273 315
#     4  10  17  29  48  76 104 135 171 218 267 313
#     4  10  21  37  52  79 110 146 179 217 266 317
#     4  10  16  26  44  74 108 136 166 222 272 310
#     4  10  16  26  44  78 104 136 170 218 268 318
#
# _framework density 23.784824
#
# number of rings (size 3 to 8) (size 9 to 14) (size 15 to 20)
#    0.000    2.000    4.444    0.667    3.111    2.222 
#    0.000    0.000    0.000    0.000    5.778    0.000 
#    0.000    0.000    0.000    0.000    0.000    0.000 
#
# Total GULP energy -100280.536046 kJ/mol
# GULP energy per Si atom -5571.140891 kJ/mol
# Density = 2.373069 g / cm^3
# Si number density = 23.784824 Si / 1000 Ang^3
#
#
#
# Elastic Constant Matrix: (Units=GPa)
#
#
# Indices 1 2 3 4 5 6 
#
# 1 134.1967 206.5833 10.4441 0.0013 0.0074 -0.0004
# 2 206.5833 215.3039 34.8900 -0.0013 -0.0194 0.0000
# 3 10.4441 34.8900 68.1723 0.0079 0.0078 0.0011
# 4 0.0013 -0.0013 0.0079 18.5792 0.0084 0.0005
# 5 0.0074 -0.0194 0.0078 0.0084 -205.1976 0.0067
# 6 -0.0004 0.0000 0.0011 0.0005 0.0067 41.0315
#
#
#
# Elastic Compliance Matrix: (Units=1/GPa)
#
#
# Indices 1 2 3 4 5 6 
#
# 1 -0.013792 0.014057 -0.005081 0.000004 -0.000002 0.000000
# 2 0.014057 -0.009262 0.002587 -0.000003 0.000001 0.000000
# 3 -0.005081 0.002587 0.014123 -0.000006 0.000000 0.000000
# 4 0.000004 -0.000003 -0.000006 0.053824 0.000002 -0.000001
# 5 -0.000002 0.000001 0.000000 0.000002 -0.004873 0.000001
# 6 0.000000 0.000000 0.000000 -0.000001 0.000001 0.024372
#
#
# Mechanical properties :
#
#
# Convention : Reuss Voigt Hill
#
# Bulk Modulus (GPa) = 70.45298 102.38974 86.42136
# Shear Modulus (GPa) = 108.70227 -18.06702 45.31763
#
# Velocity S-wave (km/s) = 6.76769 -2.75908 4.36973
# Velocity P-wave (km/s) = 9.52649 5.74385 7.86593
#
# Compressibility (1/GPa) = 0.01419386
#
# Stress axis : x y z
#
# Youngs Moduli (GPa) = -72.50488 -107.96587 70.80504
#
# Poissons Ratio (x) = 1.51767 0.35978
# Poissons Ratio (y) = 1.01920 -0.18316
# Poissons Ratio (z) = -0.36842 0.27928
#
# Static dielectric constant tensor:
#      x y z
#    x 2.132350 0.000000 0.000030 
#    y 0.000000 1.851640 0.000000 
#    z 0.000030 0.000000 2.059870 
# 
# From -- ./inp_files/10964.got.cif
#   From: 2010.05.17/outbox.cif.g08.bks.cpg/sg44_6_cif.got.tgz:10964.got - 2010.06.03 19:37:08.
