data_PCOD9372867
_publ_section_title
;
Structure prediction by ZEFSAII (Michael W. Deem and Ramdas Pophale) SiO2 
 PCOD9372867
Probable space group: F D D 2
;
_chemical_formula_sum "Si O2"
_cell_formula_units_Z 56
_cell_length_a 32.696000
_cell_length_b 14.284860
_cell_length_c 4.823576
_cell_angle_alpha 90.000000
_cell_angle_beta 90.000000
_cell_angle_gamma 90.000000
_cell_volume 2252.888711
_symmetry_space_group_name_H-M "F D D 2"
_symmetry_group_IT_number 43
_symmetry_cell_setting 'orthorhombic'
loop_
_space_group_symop_operation_xyz
x,y,z
-x,-y,z
1/4-x,1/4+y,1/4+z
1/4+x,1/4-y,1/4+z
x,1/2+y,1/2+z
-x,1/2-y,1/2+z
1/4-x,3/4+y,3/4+z
1/4+x,3/4-y,3/4+z
1/2+x,y,1/2+z
1/2-x,-y,1/2+z
3/4-x,1/4+y,3/4+z
3/4+x,1/4-y,3/4+z
1/2+x,1/2+y,z
1/2-x,1/2-y,z
3/4-x,3/4+y,1/4+z
3/4+x,3/4-y,1/4+z
loop_
_atom_site_type_symbol
_atom_site_label
_atom_site_fract_x
_atom_site_fract_y
_atom_site_fract_z
Si Si1 0.250000 0.250000 0.631460
Si Si2 0.479409 0.797786 0.681999
Si Si3 0.915562 0.066273 0.430980
Si Si4 0.653326 0.557907 0.173000
O O1 0.264205 0.158405 0.462627
O O2 0.290808 0.280845 0.793267
O O3 0.489311 0.760637 0.377479
O O4 0.434860 0.766422 0.791957
O O5 0.893114 0.121987 0.673486
O O6 0.886247 0.987785 0.308551
O O7 0.923916 0.133389 0.169512
#
# Coordination Sequence:
#
# PCOD9372867 Si02
#       4
#     8  16  16  16
#     4  12  26  48  78 114 148 210 244 326 386 468
#     4  12  25  47  74 107 154 191 257 315 375 465
#     4  12  27  46  78 109 160 200 266 318 404 458
#     4  12  25  50  71 115 154 206 257 331 382 479
#
# _framework density 24.856974000000001
#
# number of rings (size 3 to 8) (size 9 to 14) (size 15 to 20)
#    0.000    0.000    5.714    3.429    0.000    6.857 
#    0.000    0.000    0.000    0.000    0.000    0.000 
#    0.000    0.000    0.000    0.000    0.000    0.000 
#
# Total GULP energy -78493.582490 kJ/mol
# GULP energy per Si atom -5606.684464 kJ/mol
# Density = 2.480040 g / cm^3
# Si number density = 24.856974 Si / 1000 Ang^3
#
#
#
# Elastic Constant Matrix: (Units=GPa)
#
#
# Indices 1 2 3 4 5 6 
#
# 1 147.3963 35.9122 17.6862 0.0002 0.0000 0.0000
# 2 35.9122 131.0724 22.0932 0.0003 0.0000 0.0000
# 3 17.6862 22.0932 96.1440 0.0008 -0.0002 -0.0001
# 4 0.0002 0.0003 0.0008 36.4343 -0.0001 0.0001
# 5 0.0000 0.0000 -0.0002 -0.0001 34.0028 0.0001
# 6 0.0000 0.0000 -0.0001 0.0001 0.0001 26.8562
#
#
#
# Elastic Compliance Matrix: (Units=1/GPa)
#
#
# Indices 1 2 3 4 5 6 
#
# 1 0.007348 -0.001857 -0.000925 0.000000 0.000000 0.000000
# 2 -0.001857 0.008406 -0.001590 0.000000 0.000000 0.000000
# 3 -0.000925 -0.001590 0.010937 0.000000 0.000000 0.000000
# 4 0.000000 0.000000 0.000000 0.027447 0.000000 0.000000
# 5 0.000000 0.000000 0.000000 0.000000 0.029409 0.000000
# 6 0.000000 0.000000 0.000000 0.000000 0.000000 0.037235
#
#
# Mechanical properties :
#
#
# Convention : Reuss Voigt Hill
#
# Bulk Modulus (GPa) = 55.72192 58.44399 57.08295
# Shear Modulus (GPa) = 36.89798 39.38674 38.14236
#
# Velocity S-wave (km/s) = 3.85699 3.98494 3.92148
# Velocity P-wave (km/s) = 6.50391 6.68851 6.59685
#
# Compressibility (1/GPa) = 0.01794626
#
# Stress axis : x y z
#
# Youngs Moduli (GPa) = 136.09260 118.95884 91.43629
#
# Poissons Ratio (x) = 0.22095 0.08457
# Poissons Ratio (y) = 0.25277 0.14539
# Poissons Ratio (z) = 0.12587 0.18915
#
# Static dielectric constant tensor:
#      x y z
#    x 1.999720 0.000000 0.000000 
#    y 0.000000 1.983050 0.000000 
#    z 0.000000 0.000000 1.874720 
# 
# From -- ./inp_files/319.got.cif
#   From: 2010.05.17/outbox.cif.g08.bks.cpg/sg43_1_cif.got.tgz:319.got - 2010.06.03 19:21:55.
