data_PCOD9372099
_publ_section_title
;
Structure prediction by ZEFSAII (Michael W. Deem and Ramdas Pophale) SiO2 
 PCOD9372099
Probable space group: F D D 2
;
_chemical_formula_sum "Si O2"
_cell_formula_units_Z 120
_cell_length_a 23.938309
_cell_length_b 7.703629
_cell_length_c 25.357971
_cell_angle_alpha 90.000000
_cell_angle_beta 90.000000
_cell_angle_gamma 90.000000
_cell_volume 4676.310380
_symmetry_space_group_name_H-M "F D D 2"
_symmetry_group_IT_number 43
_symmetry_cell_setting 'orthorhombic'
loop_
_space_group_symop_operation_xyz
x,y,z
-x,-y,z
1/4-x,1/4+y,1/4+z
1/4+x,1/4-y,1/4+z
x,1/2+y,1/2+z
-x,1/2-y,1/2+z
1/4-x,3/4+y,3/4+z
1/4+x,3/4-y,3/4+z
1/2+x,y,1/2+z
1/2-x,-y,1/2+z
3/4-x,1/4+y,3/4+z
3/4+x,1/4-y,3/4+z
1/2+x,1/2+y,z
1/2-x,1/2-y,z
3/4-x,3/4+y,1/4+z
3/4+x,3/4-y,1/4+z
loop_
_atom_site_type_symbol
_atom_site_label
_atom_site_fract_x
_atom_site_fract_y
_atom_site_fract_z
Si Si1 0.000000 0.500000 0.617040
Si Si2 0.664359 0.346166 0.952068
Si Si3 0.075044 0.189143 0.720767
Si Si4 0.770786 0.557027 0.551538
Si Si5 0.464744 0.754177 0.036170
Si Si6 0.007151 0.796937 0.916789
Si Si7 0.116985 0.179281 0.911159
Si Si8 0.338370 0.854444 0.302286
O O1 0.964642 0.381650 0.658523
O O2 0.042132 0.408182 0.575486
O O3 0.659885 0.135636 0.952643
O O4 0.619359 0.493223 0.939887
O O5 0.680349 0.404562 0.010758
O O6 0.024737 0.208064 0.763359
O O7 0.125951 0.098884 0.751793
O O8 0.078140 0.051631 0.672860
O O9 0.750000 0.750000 0.563449
O O10 0.783502 0.483042 0.609141
O O11 0.420810 0.898674 0.050998
O O12 0.527930 0.810990 0.051009
O O13 0.465616 0.756281 0.972362
O O14 0.943054 0.725926 0.914287
O O15 0.000000 0.000000 0.922063
O O16 0.123867 0.113150 0.851773
#
# Coordination Sequence:
#
# PCOD9372099 Si02
#       8
#     8  16  16  16  16  16  16  16
#     4  12  20  46  66 100 138 170 234 296 354 412
#     4  11  25  44  72 106 137 178 238 301 355 416
#     4  11  23  45  68 101 141 178 228 295 353 414
#     4  10  24  45  70 100 137 182 232 293 361 418
#     4  11  25  42  69  96 142 185 227 291 355 421
#     4  12  27  46  65 103 147 191 234 286 356 435
#     4  12  26  44  74 104 138 182 240 293 348 426
#     4  11  24  43  68 102 133 183 235 282 354 423
#
# _framework density 25.661256999999999
#
# number of rings (size 3 to 8) (size 9 to 14) (size 15 to 20)
#    0.000    0.800    6.667    0.800    5.600    0.000 
#    0.000    1.333    0.000    0.000    0.000    0.000 
#    0.000    0.000    0.000    0.000    0.000    0.000 
#
# Total GULP energy -167407.679834 kJ/mol
# GULP energy per Si atom -5580.255994 kJ/mol
# Density = 2.560285 g / cm^3
# Si number density = 25.661257 Si / 1000 Ang^3
#
#
#
# Elastic Constant Matrix: (Units=GPa)
#
#
# Indices 1 2 3 4 5 6 
#
# 1 18.9594 21.4499 30.6332 0.0000 0.0000 -0.0001
# 2 21.4499 64.4500 22.7627 0.0001 0.0000 -0.0001
# 3 30.6332 22.7627 141.7200 0.0000 0.0000 0.0000
# 4 0.0000 0.0001 0.0000 31.2591 0.0000 0.0000
# 5 0.0000 0.0000 0.0000 0.0000 9.1003 0.0000
# 6 -0.0001 -0.0001 0.0000 0.0000 0.0000 16.8902
#
#
#
# Elastic Compliance Matrix: (Units=1/GPa)
#
#
# Indices 1 2 3 4 5 6 
#
# 1 0.127493 -0.034665 -0.021990 0.000000 0.000000 0.000000
# 2 -0.034665 0.025874 0.003337 0.000000 0.000000 0.000000
# 3 -0.021990 0.003337 0.011273 0.000000 0.000000 0.000000
# 4 0.000000 0.000000 0.000000 0.031991 0.000000 0.000000
# 5 0.000000 0.000000 0.000000 0.000000 0.109887 0.000000
# 6 0.000000 0.000000 0.000000 0.000000 0.000000 0.059206
#
#
# Mechanical properties :
#
#
# Convention : Reuss Voigt Hill
#
# Bulk Modulus (GPa) = 17.23997 41.64677 29.44337
# Shear Modulus (GPa) = 10.16889 21.46883 15.81886
#
# Velocity S-wave (km/s) = 1.99282 2.89558 2.48553
# Velocity P-wave (km/s) = 3.46814 5.23869 4.44251
#
# Compressibility (1/GPa) = 0.05800474
#
# Stress axis : x y z
#
# Youngs Moduli (GPa) = 7.84354 38.64839 88.70411
#
# Poissons Ratio (x) = 1.33975 1.95063
# Poissons Ratio (y) = 0.27190 -0.29601
# Poissons Ratio (z) = 0.17248 -0.12897
#
# Static dielectric constant tensor:
#      x y z
#    x 2.101200 0.000000 0.000000 
#    y 0.000000 2.023640 0.000000 
#    z 0.000000 0.000000 2.147020 
# 
# From -- ./inp_files/20523.got.cif
#   From: 2010.05.17/outbox.cif.g08.bks.cpg/sg43_11_cif.got.tgz:20523.got - 2010.06.03 19:21:55.
