data_PCOD9372412
_publ_section_title
;
Structure prediction by ZEFSAII (Michael W. Deem and Ramdas Pophale) SiO2 
 PCOD9372412
Probable space group: F D D 2
;
_chemical_formula_sum "Si O2"
_cell_formula_units_Z 80
_cell_length_a 10.864490
_cell_length_b 25.683782
_cell_length_c 11.567765
_cell_angle_alpha 90.000000
_cell_angle_beta 90.000000
_cell_angle_gamma 90.000000
_cell_volume 3227.882942
_symmetry_space_group_name_H-M "F D D 2"
_symmetry_group_IT_number 43
_symmetry_cell_setting 'orthorhombic'
loop_
_space_group_symop_operation_xyz
x,y,z
-x,-y,z
1/4-x,1/4+y,1/4+z
1/4+x,1/4-y,1/4+z
x,1/2+y,1/2+z
-x,1/2-y,1/2+z
1/4-x,3/4+y,3/4+z
1/4+x,3/4-y,3/4+z
1/2+x,y,1/2+z
1/2-x,-y,1/2+z
3/4-x,1/4+y,3/4+z
3/4+x,1/4-y,3/4+z
1/2+x,1/2+y,z
1/2-x,1/2-y,z
3/4-x,3/4+y,1/4+z
3/4+x,3/4-y,1/4+z
loop_
_atom_site_type_symbol
_atom_site_label
_atom_site_fract_x
_atom_site_fract_y
_atom_site_fract_z
Si Si1 0.284753 0.320905 0.697760
Si Si2 0.551098 0.731626 0.508913
Si Si3 0.984321 0.672135 0.793580
Si Si4 0.062855 0.661534 0.533754
Si Si5 0.579034 0.592511 0.834424
O O1 0.351134 0.280500 0.610701
O O2 0.158952 0.310081 0.770366
O O3 0.257606 0.368001 0.610406
O O4 0.380595 0.350907 0.782423
O O5 0.560804 0.709749 0.378411
O O6 0.525107 0.792271 0.492987
O O7 0.433971 0.699194 0.558939
O O8 0.035926 0.660773 0.668638
O O9 0.052903 0.607245 0.466899
O O10 0.205799 0.676594 0.524156
#
# Coordination Sequence:
#
# PCOD9372412 Si02
#       5
#    16  16  16  16  16
#     4  11  21  45  71  97 135 192 232 292 351 438
#     4  11  25  45  70 106 135 188 248 285 358 451
#     4  11  23  43  71  99 143 181 240 293 364 422
#     4  12  26  42  70 103 140 186 230 304 362 427
#     4  11  22  45  69  93 142 181 233 291 361 418
#
# _framework density 24.784046
#
# number of rings (size 3 to 8) (size 9 to 14) (size 15 to 20)
#    0.000    0.800    6.000    3.000    2.800    0.800 
#    3.600    0.000    0.000    0.000    0.000    0.000 
#    0.000    0.000    0.000    0.000    0.000    0.000 
#
# Total GULP energy -111715.446176 kJ/mol
# GULP energy per Si atom -5585.772309 kJ/mol
# Density = 2.472764 g / cm^3
# Si number density = 24.784046 Si / 1000 Ang^3
#
#
#
# Elastic Constant Matrix: (Units=GPa)
#
#
# Indices 1 2 3 4 5 6 
#
# 1 88.4462 -15.8030 2.7253 0.0000 0.0000 0.0000
# 2 -15.8030 29.7307 19.2435 0.0000 0.0000 0.0000
# 3 2.7253 19.2435 133.7444 0.0000 0.0000 0.0000
# 4 0.0000 0.0000 0.0000 7.0382 0.0000 0.0000
# 5 0.0000 0.0000 0.0000 0.0000 33.5619 0.0000
# 6 0.0000 0.0000 0.0000 0.0000 0.0000 31.0245
#
#
#
# Elastic Compliance Matrix: (Units=1/GPa)
#
#
# Indices 1 2 3 4 5 6 
#
# 1 0.012712 0.007636 -0.001358 0.000000 0.000000 0.000000
# 2 0.007636 0.041676 -0.006152 0.000000 0.000000 0.000000
# 3 -0.001358 -0.006152 0.008390 0.000000 0.000000 0.000000
# 4 0.000000 0.000000 0.000000 0.142081 0.000000 0.000000
# 5 0.000000 0.000000 0.000000 0.000000 0.029796 0.000000
# 6 0.000000 0.000000 0.000000 0.000000 0.000000 0.032233
#
#
# Mechanical properties :
#
#
# Convention : Reuss Voigt Hill
#
# Bulk Modulus (GPa) = 15.86527 29.36141 22.61334
# Shear Modulus (GPa) = 17.38252 30.70864 24.04558
#
# Velocity S-wave (km/s) = 2.65119 3.52383 3.11819
# Velocity P-wave (km/s) = 3.97329 5.33190 4.70192
#
# Compressibility (1/GPa) = 0.06303074
#
# Stress axis : x y z
#
# Youngs Moduli (GPa) = 78.66274 23.99462 119.19262
#
# Poissons Ratio (x) = -0.18322 0.16183
# Poissons Ratio (y) = -0.60067 0.73328
# Poissons Ratio (z) = 0.10680 0.14762
#
# Static dielectric constant tensor:
#      x y z
#    x 2.058700 0.000000 0.000000 
#    y 0.000000 2.019920 0.000000 
#    z 0.000000 0.000000 2.150570 
# 
# From -- ./inp_files/5676.got.cif
#   From: 2010.05.17/outbox.cif.g08.bks.cpg/sg43_3_cif.got.tgz:5676.got - 2010.06.03 19:21:55.
