data_PCOD9372204
_publ_section_title
;
Structure prediction by ZEFSAII (Michael W. Deem and Ramdas Pophale) SiO2 
 PCOD9372204
Probable space group: F D D 2
;
_chemical_formula_sum "Si O2"
_cell_formula_units_Z 64
_cell_length_a 17.561226
_cell_length_b 26.856716
_cell_length_c 5.072644
_cell_angle_alpha 90.000000
_cell_angle_beta 90.000000
_cell_angle_gamma 90.000000
_cell_volume 2392.445884
_symmetry_space_group_name_H-M "F D D 2"
_symmetry_group_IT_number 43
_symmetry_cell_setting 'orthorhombic'
loop_
_space_group_symop_operation_xyz
x,y,z
-x,-y,z
1/4-x,1/4+y,1/4+z
1/4+x,1/4-y,1/4+z
x,1/2+y,1/2+z
-x,1/2-y,1/2+z
1/4-x,3/4+y,3/4+z
1/4+x,3/4-y,3/4+z
1/2+x,y,1/2+z
1/2-x,-y,1/2+z
3/4-x,1/4+y,3/4+z
3/4+x,1/4-y,3/4+z
1/2+x,1/2+y,z
1/2-x,1/2-y,z
3/4-x,3/4+y,1/4+z
3/4+x,3/4-y,1/4+z
loop_
_atom_site_type_symbol
_atom_site_label
_atom_site_fract_x
_atom_site_fract_y
_atom_site_fract_z
Si Si1 0.986841 0.935299 0.108200
Si Si2 0.401595 0.132474 0.270649
Si Si3 0.385036 0.300448 0.637261
Si Si4 0.094881 0.761208 0.645029
O O1 0.043719 0.953529 0.331907
O O2 0.919118 0.898767 0.206868
O O3 0.042310 0.904385 0.917311
O O4 0.066822 0.026448 0.950343
O O5 0.441836 0.184421 0.190401
O O6 0.363397 0.104589 0.022684
O O7 0.422131 0.280423 0.366015
O O8 0.410963 0.261452 0.858810
#
# Coordination Sequence:
#
# PCOD9372204 Si02
#       4
#    16  16  16  16
#     4  10  25  43  72 105 140 190 239 305 351 439
#     4  10  26  43  71 109 145 183 243 307 364 421
#     4  12  23  46  72 104 140 188 248 291 352 446
#     4  10  27  40  75 100 139 191 246 287 356 440
#
# _framework density 26.750865000000001
#
# number of rings (size 3 to 8) (size 9 to 14) (size 15 to 20)
#    1.500    0.000    2.500    0.750   10.500    2.000 
#    0.000    2.500    0.000    0.000    0.000    0.000 
#    0.000    0.000    0.000    0.000    0.000    0.000 
#
# Total GULP energy -89370.776473 kJ/mol
# GULP energy per Si atom -5585.673530 kJ/mol
# Density = 2.668998 g / cm^3
# Si number density = 26.750865 Si / 1000 Ang^3
#
#
#
# Elastic Constant Matrix: (Units=GPa)
#
#
# Indices 1 2 3 4 5 6 
#
# 1 101.6157 16.8532 20.9226 -0.0113 -0.0405 0.0077
# 2 16.8532 130.8801 30.9835 0.0077 0.0033 -0.0011
# 3 20.9226 30.9835 110.3828 -0.0172 -0.0356 -0.0078
# 4 -0.0113 0.0077 -0.0172 26.6840 0.0111 -0.0005
# 5 -0.0405 0.0033 -0.0356 0.0111 29.2809 -0.0185
# 6 0.0077 -0.0011 -0.0078 -0.0005 -0.0185 65.7235
#
#
#
# Elastic Compliance Matrix: (Units=1/GPa)
#
#
# Indices 1 2 3 4 5 6 
#
# 1 0.010345 -0.000930 -0.001700 0.000004 0.000012 -0.000001
# 2 -0.000930 0.008268 -0.002145 -0.000004 -0.000005 0.000000
# 3 -0.001700 -0.002145 0.009984 0.000006 0.000010 0.000001
# 4 0.000004 -0.000004 0.000006 0.037476 -0.000014 0.000000
# 5 0.000012 -0.000005 0.000010 -0.000014 0.034152 0.000010
# 6 -0.000001 0.000000 0.000001 0.000000 0.000010 0.015215
#
#
# Mechanical properties :
#
#
# Convention : Reuss Voigt Hill
#
# Bulk Modulus (GPa) = 52.49781 53.37746 52.93764
# Shear Modulus (GPa) = 38.06987 42.61231 40.34109
#
# Velocity S-wave (km/s) = 3.77653 3.99548 3.88755
# Velocity P-wave (km/s) = 6.21961 6.42511 6.32320
#
# Compressibility (1/GPa) = 0.01904841
#
# Stress axis : x y z
#
# Youngs Moduli (GPa) = 96.66304 120.94864 100.16478
#
# Poissons Ratio (x) = 0.11245 0.17027
# Poissons Ratio (y) = 0.08987 0.21481
# Poissons Ratio (z) = 0.16432 0.25938
#
# Static dielectric constant tensor:
#      x y z
#    x 2.210990 0.000000 0.000020 
#    y 0.000000 2.302760 0.000000 
#    z 0.000020 0.000000 2.033120 
# 
# From -- ./inp_files/519.got.cif
#   From: 2010.05.17/outbox.cif.g08.bks.cpg/sg43_1_cif.got.tgz:519.got - 2010.06.03 19:21:55.
