data_PCOD9372748
_publ_section_title
;
Structure prediction by ZEFSAII (Michael W. Deem and Ramdas Pophale) SiO2 
 PCOD9372748
Probable space group: F D D 2
;
_chemical_formula_sum "Si O2"
_cell_formula_units_Z 40
_cell_length_a 7.640611
_cell_length_b 11.259527
_cell_length_c 18.364580
_cell_angle_alpha 90.000000
_cell_angle_beta 90.000000
_cell_angle_gamma 90.000000
_cell_volume 1579.898681
_symmetry_space_group_name_H-M "F D D 2"
_symmetry_group_IT_number 43
_symmetry_cell_setting 'orthorhombic'
loop_
_space_group_symop_operation_xyz
x,y,z
-x,-y,z
1/4-x,1/4+y,1/4+z
1/4+x,1/4-y,1/4+z
x,1/2+y,1/2+z
-x,1/2-y,1/2+z
1/4-x,3/4+y,3/4+z
1/4+x,3/4-y,3/4+z
1/2+x,y,1/2+z
1/2-x,-y,1/2+z
3/4-x,1/4+y,3/4+z
3/4+x,1/4-y,3/4+z
1/2+x,1/2+y,z
1/2-x,1/2-y,z
3/4-x,3/4+y,1/4+z
3/4+x,3/4-y,1/4+z
loop_
_atom_site_type_symbol
_atom_site_label
_atom_site_fract_x
_atom_site_fract_y
_atom_site_fract_z
Si Si1 0.302914 0.993439 0.190600
Si Si2 0.500000 0.000000 0.450491
Si Si3 0.585203 0.839011 0.789080
O O1 0.271122 0.125826 0.159032
O O2 0.500000 0.000000 0.219810
O O3 0.166265 0.955802 0.251711
O O4 0.289894 0.901473 0.124242
O O5 0.671295 0.971585 0.498858
O O6 0.750000 0.750000 0.785610
#
# Coordination Sequence:
#
# PCOD9372748 Si02
#       3
#    16   8  16
#     4  11  26  51  76 112 155 203 258 318 384 461
#     4  12  26  46  80 106 156 206 248 322 388 456
#     4  11  26  48  76 113 153 202 259 318 382 463
#
# _framework density 25.318080999999999
#
# number of rings (size 3 to 8) (size 9 to 14) (size 15 to 20)
#    0.000    0.800    4.000    1.200    5.600    9.600 
#    0.000    0.000    0.000    0.000    0.000    0.000 
#    0.000    0.000    0.000    0.000    0.000    0.000 
#
# Total GULP energy -55959.768090 kJ/mol
# GULP energy per Si atom -5595.976809 kJ/mol
# Density = 2.526046 g / cm^3
# Si number density = 25.318081 Si / 1000 Ang^3
#
#
#
# Elastic Constant Matrix: (Units=GPa)
#
#
# Indices 1 2 3 4 5 6 
#
# 1 156.6068 10.0275 46.0382 0.0000 0.0000 0.0000
# 2 10.0275 150.3055 41.0962 0.0000 0.0000 0.0000
# 3 46.0382 41.0962 110.0547 0.0000 0.0000 0.0000
# 4 0.0000 0.0000 0.0000 25.2704 0.0000 0.0000
# 5 0.0000 0.0000 0.0000 0.0000 9.4730 0.0000
# 6 0.0000 0.0000 0.0000 0.0000 0.0000 33.0179
#
#
#
# Elastic Compliance Matrix: (Units=1/GPa)
#
#
# Indices 1 2 3 4 5 6 
#
# 1 0.007301 0.000388 -0.003199 0.000000 0.000000 0.000000
# 2 0.000388 0.007430 -0.002937 0.000000 0.000000 0.000000
# 3 -0.003199 -0.002937 0.011521 0.000000 0.000000 0.000000
# 4 0.000000 0.000000 0.000000 0.039572 0.000000 0.000000
# 5 0.000000 0.000000 0.000000 0.000000 0.105564 0.000000
# 6 0.000000 0.000000 0.000000 0.000000 0.000000 0.030287
#
#
# Mechanical properties :
#
#
# Convention : Reuss Voigt Hill
#
# Bulk Modulus (GPa) = 67.76752 67.92121 67.84437
# Shear Modulus (GPa) = 22.92639 34.87260 28.89949
#
# Velocity S-wave (km/s) = 3.01247 3.71533 3.38221
# Velocity P-wave (km/s) = 6.23895 6.72981 6.48902
#
# Compressibility (1/GPa) = 0.01475633
#
# Stress axis : x y z
#
# Youngs Moduli (GPa) = 136.96772 134.58584 86.79690
#
# Poissons Ratio (x) = -0.05216 0.27765
# Poissons Ratio (y) = -0.05308 0.25489
# Poissons Ratio (z) = 0.43814 0.39524
#
# Static dielectric constant tensor:
#      x y z
#    x 1.970390 0.000000 0.000000 
#    y 0.000000 2.055100 0.000000 
#    z 0.000000 0.000000 1.953990 
# 
# From -- ./inp_files/8752.got.cif
#   From: 2010.05.17/outbox.cif.g08.bks.cpg/sg43_5_cif.got.tgz:8752.got - 2010.06.03 19:21:55.
