data_PCOD9372237
_publ_section_title
;
Structure prediction by ZEFSAII (Michael W. Deem and Ramdas Pophale) SiO2 
 PCOD9372237
Probable space group: F D D 2
;
_chemical_formula_sum "Si O2"
_cell_formula_units_Z 104
_cell_length_a 15.451370
_cell_length_b 25.592776
_cell_length_c 10.905090
_cell_angle_alpha 90.000000
_cell_angle_beta 90.000000
_cell_angle_gamma 90.000000
_cell_volume 4312.346426
_symmetry_space_group_name_H-M "F D D 2"
_symmetry_group_IT_number 43
_symmetry_cell_setting 'orthorhombic'
loop_
_space_group_symop_operation_xyz
x,y,z
-x,-y,z
1/4-x,1/4+y,1/4+z
1/4+x,1/4-y,1/4+z
x,1/2+y,1/2+z
-x,1/2-y,1/2+z
1/4-x,3/4+y,3/4+z
1/4+x,3/4-y,3/4+z
1/2+x,y,1/2+z
1/2-x,-y,1/2+z
3/4-x,1/4+y,3/4+z
3/4+x,1/4-y,3/4+z
1/2+x,1/2+y,z
1/2-x,1/2-y,z
3/4-x,3/4+y,1/4+z
3/4+x,3/4-y,1/4+z
loop_
_atom_site_type_symbol
_atom_site_label
_atom_site_fract_x
_atom_site_fract_y
_atom_site_fract_z
Si Si1 0.500000 0.000000 0.966270
Si Si2 0.106964 0.918628 0.099931
Si Si3 0.649721 0.077271 0.301773
Si Si4 0.382858 0.771733 0.420192
Si Si5 0.317520 0.471734 0.047502
Si Si6 0.424781 0.874727 0.525864
Si Si7 0.233462 0.647448 0.093584
O O1 0.470913 0.951432 0.883375
O O2 0.572923 0.973786 0.051328
O O3 0.092669 0.911220 0.247396
O O4 0.191944 0.891089 0.045223
O O5 0.117866 0.979293 0.064196
O O6 0.022324 0.888422 0.055583
O O7 0.585507 0.112102 0.380558
O O8 0.699328 0.114299 0.208988
O O9 0.601999 0.032797 0.226556
O O10 0.702687 0.044337 0.405544
O O11 0.481335 0.766252 0.372438
O O12 0.386368 0.816623 0.523528
O O13 0.366186 0.419140 0.088925
#
# Coordination Sequence:
#
# PCOD9372237 Si02
#       7
#     8  16  16  16  16  16  16
#     4  12  28  44  76 114 146 204 256 332 394 480
#     4  12  28  49  77 116 158 211 264 337 407 482
#     4  10  25  49  75 107 152 203 256 326 386 491
#     4  12  25  47  78 108 150 206 260 319 403 472
#     4  10  26  48  74 109 156 203 263 328 398 470
#     4  10  27  47  72 111 149 204 256 325 389 476
#     4  12  28  49  79 112 158 200 274 328 407 478
#
# _framework density 24.116800000000001
#
# number of rings (size 3 to 8) (size 9 to 14) (size 15 to 20)
#    0.923    0.000    3.077    1.385    8.615    3.692 
#    0.000    0.000    0.000    0.000    0.000    0.000 
#    0.000    0.000    0.000    0.000    0.000    0.000 
#
# Total GULP energy -145186.796004 kJ/mol
# GULP energy per Si atom -5584.107539 kJ/mol
# Density = 2.406191 g / cm^3
# Si number density = 24.116800 Si / 1000 Ang^3
#
#
#
# Elastic Constant Matrix: (Units=GPa)
#
#
# Indices 1 2 3 4 5 6 
#
# 1 60.4270 19.6745 19.4876 0.0000 0.0000 0.0000
# 2 19.6745 148.5477 17.0662 0.0000 0.0000 0.0000
# 3 19.4876 17.0662 66.4530 0.0000 0.0000 0.0000
# 4 0.0000 0.0000 0.0000 47.3751 0.0000 0.0000
# 5 0.0000 0.0000 0.0000 0.0000 32.9589 0.0000
# 6 0.0000 0.0000 0.0000 0.0000 0.0000 30.0837
#
#
#
# Elastic Compliance Matrix: (Units=1/GPa)
#
#
# Indices 1 2 3 4 5 6 
#
# 1 0.018790 -0.001912 -0.005019 0.000000 0.000000 0.000000
# 2 -0.001912 0.007131 -0.001271 0.000000 0.000000 0.000000
# 3 -0.005019 -0.001271 0.016846 0.000000 0.000000 0.000000
# 4 0.000000 0.000000 0.000000 0.021108 0.000000 0.000000
# 5 0.000000 0.000000 0.000000 0.000000 0.030341 0.000000
# 6 0.000000 0.000000 0.000000 0.000000 0.000000 0.033241
#
#
# Mechanical properties :
#
#
# Convention : Reuss Voigt Hill
#
# Bulk Modulus (GPa) = 37.93080 43.09826 40.51453
# Shear Modulus (GPa) = 32.75488 36.69683 34.72586
#
# Velocity S-wave (km/s) = 3.68934 3.90504 3.79872
# Velocity P-wave (km/s) = 5.82327 6.18400 6.00634
#
# Compressibility (1/GPa) = 0.02636380
#
# Stress axis : x y z
#
# Youngs Moduli (GPa) = 53.21948 140.23150 59.35962
#
# Poissons Ratio (x) = 0.26813 0.29794
# Poissons Ratio (y) = 0.10176 0.07543
# Poissons Ratio (z) = 0.26712 0.17819
#
# Static dielectric constant tensor:
#      x y z
#    x 1.892170 0.000000 0.000000 
#    y 0.000000 1.913840 0.000000 
#    z 0.000000 0.000000 2.057930 
# 
# From -- ./inp_files/6777.got.cif
#   From: 2010.05.17/outbox.cif.g08.bks.cpg/sg43_4_cif.got.tgz:6777.got - 2010.06.03 19:21:55.
