data_PCOD9372193
_publ_section_title
;
Structure prediction by ZEFSAII (Michael W. Deem and Ramdas Pophale) SiO2 
 PCOD9372193
Probable space group: F D D 2
;
_chemical_formula_sum "Si O2"
_cell_formula_units_Z 72
_cell_length_a 12.104442
_cell_length_b 14.077020
_cell_length_c 13.640429
_cell_angle_alpha 90.000000
_cell_angle_beta 90.000000
_cell_angle_gamma 90.000000
_cell_volume 2324.253699
_symmetry_space_group_name_H-M "F D D 2"
_symmetry_group_IT_number 43
_symmetry_cell_setting 'orthorhombic'
loop_
_space_group_symop_operation_xyz
x,y,z
-x,-y,z
1/4-x,1/4+y,1/4+z
1/4+x,1/4-y,1/4+z
x,1/2+y,1/2+z
-x,1/2-y,1/2+z
1/4-x,3/4+y,3/4+z
1/4+x,3/4-y,3/4+z
1/2+x,y,1/2+z
1/2-x,-y,1/2+z
3/4-x,1/4+y,3/4+z
3/4+x,1/4-y,3/4+z
1/2+x,1/2+y,z
1/2-x,1/2-y,z
3/4-x,3/4+y,1/4+z
3/4+x,3/4-y,1/4+z
loop_
_atom_site_type_symbol
_atom_site_label
_atom_site_fract_x
_atom_site_fract_y
_atom_site_fract_z
Si Si1 0.000000 0.000000 0.274030
Si Si2 0.312353 0.151038 0.013050
Si Si3 0.960275 0.148800 0.967423
Si Si4 0.703569 0.845968 0.727199
Si Si5 0.984712 0.290891 0.678809
O O1 0.055251 0.064552 0.364656
O O2 0.110657 0.022094 0.205717
O O3 0.250000 0.250000 0.002506
O O4 0.362409 0.302165 0.218928
O O5 0.285042 0.108686 0.120505
O O6 0.442737 0.163656 0.991472
O O7 0.020401 0.165338 0.070227
O O8 0.750000 0.750000 0.779755
O O9 0.974529 0.817362 0.688190
O O10 0.572063 0.852637 0.746482
#
# Coordination Sequence:
#
# PCOD9372193 Si02
#       5
#     8  16  16  16  16
#     4   8  18  44  78 116 152 228 280 334 408 544
#     4  11  24  48  84 131 180 218 282 379 442 501
#     4  11  24  46  83 126 167 215 296 359 429 512
#     4   7  16  45  79 113 163 221 287 330 427 519
#     4  10  24  51  85 124 169 234 294 343 438 549
#
# _framework density 30.977687
#
# number of rings (size 3 to 8) (size 9 to 14) (size 15 to 20)
#    0.667    1.778    2.222    0.000    3.111    1.778 
#    8.000    8.889    0.000   30.667    0.000    0.000 
#    0.000    0.000    0.000    0.000    0.000    0.000 
#
# Total GULP energy -100592.092861 kJ/mol
# GULP energy per Si atom -5588.449603 kJ/mol
# Density = 3.090718 g / cm^3
# Si number density = 30.977687 Si / 1000 Ang^3
#
#
#
# Elastic Constant Matrix: (Units=GPa)
#
#
# Indices 1 2 3 4 5 6 
#
# 1 138.1353 -11.7803 19.2941 0.0000 0.0000 0.0000
# 2 -11.7803 86.4153 10.5541 0.0000 0.0000 0.0000
# 3 19.2941 10.5541 177.1465 0.0000 0.0000 0.0000
# 4 0.0000 0.0000 0.0000 55.6246 0.0000 0.0000
# 5 0.0000 0.0000 0.0000 0.0000 61.1514 0.0000
# 6 0.0000 0.0000 0.0000 0.0000 0.0000 48.7311
#
#
#
# Elastic Compliance Matrix: (Units=1/GPa)
#
#
# Indices 1 2 3 4 5 6 
#
# 1 0.007458 0.001124 -0.000879 0.000000 0.000000 0.000000
# 2 0.001124 0.011826 -0.000827 0.000000 0.000000 0.000000
# 3 -0.000879 -0.000827 0.005790 0.000000 0.000000 0.000000
# 4 0.000000 0.000000 0.000000 0.017978 0.000000 0.000000
# 5 0.000000 0.000000 0.000000 0.000000 0.016353 0.000000
# 6 0.000000 0.000000 0.000000 0.000000 0.000000 0.020521
#
#
# Mechanical properties :
#
#
# Convention : Reuss Voigt Hill
#
# Bulk Modulus (GPa) = 41.82372 48.64810 45.23591
# Shear Modulus (GPa) = 56.14192 58.67668 57.40930
#
# Velocity S-wave (km/s) = 4.26177 4.35692 4.30961
# Velocity P-wave (km/s) = 6.14390 6.40692 6.27679
#
# Compressibility (1/GPa) = 0.02390987
#
# Stress axis : x y z
#
# Youngs Moduli (GPa) = 134.08503 84.55758 172.70912
#
# Poissons Ratio (x) = -0.09505 0.15186
# Poissons Ratio (y) = -0.15072 0.14283
# Poissons Ratio (z) = 0.11790 0.06993
#
# Static dielectric constant tensor:
#      x y z
#    x 2.550550 0.000000 0.000000 
#    y 0.000000 2.560580 0.000000 
#    z 0.000000 0.000000 2.313880 
# 
# From -- ./inp_files/17104.got.cif
#   From: 2010.05.17/outbox.cif.g08.bks.cpg/sg43_9_cif.got.tgz:17104.got - 2010.06.03 19:21:55.
