data_PCOD9372407
_publ_section_title
;
Structure prediction by ZEFSAII (Michael W. Deem and Ramdas Pophale) SiO2 
 PCOD9372407
Probable space group: F D D 2
;
_chemical_formula_sum "Si O2"
_cell_formula_units_Z 88
_cell_length_a 11.176089
_cell_length_b 25.428893
_cell_length_c 12.296382
_cell_angle_alpha 90.000000
_cell_angle_beta 90.000000
_cell_angle_gamma 90.000000
_cell_volume 3494.577308
_symmetry_space_group_name_H-M "F D D 2"
_symmetry_group_IT_number 43
_symmetry_cell_setting 'orthorhombic'
loop_
_space_group_symop_operation_xyz
x,y,z
-x,-y,z
1/4-x,1/4+y,1/4+z
1/4+x,1/4-y,1/4+z
x,1/2+y,1/2+z
-x,1/2-y,1/2+z
1/4-x,3/4+y,3/4+z
1/4+x,3/4-y,3/4+z
1/2+x,y,1/2+z
1/2-x,-y,1/2+z
3/4-x,1/4+y,3/4+z
3/4+x,1/4-y,3/4+z
1/2+x,1/2+y,z
1/2-x,1/2-y,z
3/4-x,3/4+y,1/4+z
3/4+x,3/4-y,1/4+z
loop_
_atom_site_type_symbol
_atom_site_label
_atom_site_fract_x
_atom_site_fract_y
_atom_site_fract_z
Si Si1 0.534641 0.734876 0.045640
Si Si2 0.715215 0.149972 0.245034
Si Si3 0.900568 0.568184 0.761776
Si Si4 0.856084 0.171990 0.681073
Si Si5 0.500000 0.000000 0.126793
Si Si6 0.852974 0.120037 0.896034
O O1 0.594341 0.772924 0.137256
O O2 0.523011 0.676461 0.092064
O O3 0.409844 0.760774 0.005407
O O4 0.635444 0.736335 0.951053
O O5 0.806877 0.106404 0.203229
O O6 0.644010 0.119128 0.337845
O O7 0.776761 0.199780 0.302001
O O8 0.644937 0.169615 0.140639
O O9 0.025520 0.590144 0.717967
O O10 0.904662 0.155133 0.797444
O O11 0.713346 0.163700 0.693701
#
# Coordination Sequence:
#
# PCOD9372407 Si02
#       6
#    16  16  16  16   8  16
#     4  11  23  47  73 109 139 197 253 300 378 462
#     4  11  23  44  71 100 143 196 240 308 357 458
#     4  11  26  44  68 107 153 181 250 305 386 448
#     4  11  21  44  72 105 139 187 252 297 353 455
#     4  12  22  44  80 100 134 196 256 294 370 456
#     4  12  24  45  72 104 151 190 236 319 374 436
#
# _framework density 25.181871999999998
#
# number of rings (size 3 to 8) (size 9 to 14) (size 15 to 20)
#    0.000    0.727    3.636    5.455    2.545    0.000 
#    0.000    1.818    0.000    0.000    0.000    0.000 
#    0.000    0.000    0.000    0.000    0.000    0.000 
#
# Total GULP energy -123081.154059 kJ/mol
# GULP energy per Si atom -5594.597912 kJ/mol
# Density = 2.512456 g / cm^3
# Si number density = 25.181872 Si / 1000 Ang^3
#
#
#
# Elastic Constant Matrix: (Units=GPa)
#
#
# Indices 1 2 3 4 5 6 
#
# 1 108.2892 37.7843 15.7538 0.0000 0.0000 0.0000
# 2 37.7843 171.9032 20.5080 0.0000 0.0000 0.0000
# 3 15.7538 20.5080 66.4742 0.0000 0.0000 0.0000
# 4 0.0000 0.0000 0.0000 30.0355 0.0000 0.0000
# 5 0.0000 0.0000 0.0000 0.0000 39.1338 0.0000
# 6 0.0000 0.0000 0.0000 0.0000 0.0000 40.9213
#
#
#
# Elastic Compliance Matrix: (Units=1/GPa)
#
#
# Indices 1 2 3 4 5 6 
#
# 1 0.010203 -0.002029 -0.001792 0.000000 0.000000 0.000000
# 2 -0.002029 0.006443 -0.001507 0.000000 0.000000 0.000000
# 3 -0.001792 -0.001507 0.015933 0.000000 0.000000 0.000000
# 4 0.000000 0.000000 0.000000 0.033294 0.000000 0.000000
# 5 0.000000 0.000000 0.000000 0.000000 0.025553 0.000000
# 6 0.000000 0.000000 0.000000 0.000000 0.000000 0.024437
#
#
# Mechanical properties :
#
#
# Convention : Reuss Voigt Hill
#
# Bulk Modulus (GPa) = 45.61343 54.97320 50.29332
# Shear Modulus (GPa) = 37.36162 40.19281 38.77721
#
# Velocity S-wave (km/s) = 3.85602 3.99946 3.92840
# Velocity P-wave (km/s) = 6.16264 6.57308 6.37117
#
# Compressibility (1/GPa) = 0.02192337
#
# Stress axis : x y z
#
# Youngs Moduli (GPa) = 98.00885 155.20869 62.76267
#
# Poissons Ratio (x) = 0.31489 0.11248
# Poissons Ratio (y) = 0.19885 0.09458
# Poissons Ratio (z) = 0.17565 0.23388
#
# Static dielectric constant tensor:
#      x y z
#    x 2.108290 0.000000 0.000000 
#    y 0.000000 1.933350 0.000000 
#    z 0.000000 0.000000 1.987950 
# 
# From -- ./inp_files/5733.got.cif
#   From: 2010.05.17/outbox.cif.g08.bks.cpg/sg43_3_cif.got.tgz:5733.got - 2010.06.03 19:21:55.
