data_PCOD9372932
_publ_section_title
;
Structure prediction by ZEFSAII (Michael W. Deem and Ramdas Pophale) SiO2 
 PCOD9372932
Probable space group: F D D 2
;
_chemical_formula_sum "Si O2"
_cell_formula_units_Z 64
_cell_length_a 16.099818
_cell_length_b 10.552095
_cell_length_c 13.413010
_cell_angle_alpha 90.000000
_cell_angle_beta 90.000000
_cell_angle_gamma 90.000000
_cell_volume 2278.693468
_symmetry_space_group_name_H-M "F D D 2"
_symmetry_group_IT_number 43
_symmetry_cell_setting 'orthorhombic'
loop_
_space_group_symop_operation_xyz
x,y,z
-x,-y,z
1/4-x,1/4+y,1/4+z
1/4+x,1/4-y,1/4+z
x,1/2+y,1/2+z
-x,1/2-y,1/2+z
1/4-x,3/4+y,3/4+z
1/4+x,3/4-y,3/4+z
1/2+x,y,1/2+z
1/2-x,-y,1/2+z
3/4-x,1/4+y,3/4+z
3/4+x,1/4-y,3/4+z
1/2+x,1/2+y,z
1/2-x,1/2-y,z
3/4-x,3/4+y,1/4+z
3/4+x,3/4-y,1/4+z
loop_
_atom_site_type_symbol
_atom_site_label
_atom_site_fract_x
_atom_site_fract_y
_atom_site_fract_z
Si Si1 0.231422 0.618605 0.660130
Si Si2 0.372654 0.980606 0.248625
Si Si3 0.477133 0.257513 0.647330
Si Si4 0.187842 0.864469 0.082258
O O1 0.250000 0.750000 0.720855
O O2 0.325458 0.561270 0.663161
O O3 0.180935 0.680840 0.566711
O O4 0.186958 0.481945 0.657303
O O5 0.425151 0.869338 0.198971
O O6 0.295783 0.944569 0.320338
O O7 0.407313 0.179508 0.586796
O O8 0.525077 0.170643 0.728808
O O9 0.250000 0.750000 0.111005
#
# Coordination Sequence:
#
# PCOD9372932 Si02
#       4
#    16  16  16  16
#     4  12  29  53  88 128 173 223 290 358 435 511
#     4  12  30  57  88 126 176 226 292 356 439 519
#     4  12  30  57  88 126 176 226 292 356 439 519
#     4  12  29  53  88 128 173 223 290 358 435 511
#
# _framework density 28.086268
#
# number of rings (size 3 to 8) (size 9 to 14) (size 15 to 20)
#    0.000    0.000    5.000    1.500   14.000    0.000 
#    9.000    0.000    0.000    0.000    0.000    0.000 
#    0.000    0.000    0.000    0.000    0.000    0.000 
#
# Total GULP energy -89365.208085 kJ/mol
# GULP energy per Si atom -5585.325505 kJ/mol
# Density = 2.802234 g / cm^3
# Si number density = 28.086268 Si / 1000 Ang^3
#
#
#
# Elastic Constant Matrix: (Units=GPa)
#
#
# Indices 1 2 3 4 5 6 
#
# 1 215.4737 81.9733 85.3590 0.0000 0.0000 0.0000
# 2 81.9733 218.7088 76.5397 0.0000 0.0000 0.0000
# 3 85.3590 76.5397 142.7728 0.0000 0.0000 0.0000
# 4 0.0000 0.0000 0.0000 -29.0560 0.0000 0.0000
# 5 0.0000 0.0000 0.0000 0.0000 78.9084 0.0000
# 6 0.0000 0.0000 0.0000 0.0000 0.0000 91.2087
#
#
#
# Elastic Compliance Matrix: (Units=1/GPa)
#
#
# Indices 1 2 3 4 5 6 
#
# 1 0.006367 -0.001298 -0.003111 0.000000 0.000000 0.000000
# 2 -0.001298 0.005893 -0.002383 0.000000 0.000000 0.000000
# 3 -0.003111 -0.002383 0.010142 0.000000 0.000000 0.000000
# 4 0.000000 0.000000 0.000000 -0.034416 0.000000 0.000000
# 5 0.000000 0.000000 0.000000 0.000000 0.012673 0.000000
# 6 0.000000 0.000000 0.000000 0.000000 0.000000 0.010964
#
#
# Mechanical properties :
#
#
# Convention : Reuss Voigt Hill
#
# Bulk Modulus (GPa) = 113.40773 118.29992 115.85382
# Shear Modulus (GPa) = 177.65330 50.41780 114.03555
#
# Velocity S-wave (km/s) = 7.96179 4.24146 6.37887
# Velocity P-wave (km/s) = 11.17972 8.13624 9.77713
#
# Compressibility (1/GPa) = 0.00881774
#
# Stress axis : x y z
#
# Youngs Moduli (GPa) = 157.05975 169.70162 98.60303
#
# Poissons Ratio (x) = 0.22022 0.30675
# Poissons Ratio (y) = 0.20381 0.23499
# Poissons Ratio (z) = 0.48860 0.40443
#
# Static dielectric constant tensor:
#      x y z
#    x 2.452920 0.000000 0.000000 
#    y 0.000000 2.286810 0.000000 
#    z 0.000000 0.000000 2.601180 
# 
# From -- ./inp_files/10480.got.cif
#   From: 2010.05.17/outbox.cif.g08.bks.cpg/sg43_6_cif.got.tgz:10480.got - 2010.06.03 19:21:55.
