data_PCOD9372853
_publ_section_title
;
Structure prediction by ZEFSAII (Michael W. Deem and Ramdas Pophale) SiO2 
 PCOD9372853
Probable space group: F D D 2
;
_chemical_formula_sum "Si O2"
_cell_formula_units_Z 48
_cell_length_a 13.109503
_cell_length_b 5.786730
_cell_length_c 25.591361
_cell_angle_alpha 90.000000
_cell_angle_beta 90.000000
_cell_angle_gamma 90.000000
_cell_volume 1941.390185
_symmetry_space_group_name_H-M "F D D 2"
_symmetry_group_IT_number 43
_symmetry_cell_setting 'orthorhombic'
loop_
_space_group_symop_operation_xyz
x,y,z
-x,-y,z
1/4-x,1/4+y,1/4+z
1/4+x,1/4-y,1/4+z
x,1/2+y,1/2+z
-x,1/2-y,1/2+z
1/4-x,3/4+y,3/4+z
1/4+x,3/4-y,3/4+z
1/2+x,y,1/2+z
1/2-x,-y,1/2+z
3/4-x,1/4+y,3/4+z
3/4+x,1/4-y,3/4+z
1/2+x,1/2+y,z
1/2-x,1/2-y,z
3/4-x,3/4+y,1/4+z
3/4+x,3/4-y,1/4+z
loop_
_atom_site_type_symbol
_atom_site_label
_atom_site_fract_x
_atom_site_fract_y
_atom_site_fract_z
Si Si1 0.631812 0.791330 0.846830
Si Si2 0.750000 0.250000 0.183600
Si Si3 0.000000 0.000000 0.770117
Si Si4 0.394178 0.634574 0.003526
O O1 0.750000 0.750000 0.858357
O O2 0.587681 0.594810 0.808786
O O3 0.562674 0.824543 0.897290
O O4 0.622721 0.022626 0.811713
O O5 0.669327 0.394154 0.217793
O O6 0.947479 0.211134 0.739300
O O7 0.500000 0.500000 0.003222
#
# Coordination Sequence:
#
# PCOD9372853 Si02
#       4
#    16   8   8  16
#     4  12  26  53  80 115 157 214 275 347 406 491
#     4  12  28  50  82 125 170 217 278 338 434 484
#     4  12  24  50  84 107 170 215 268 350 408 486
#     4  12  25  52  79 120 163 216 279 343 407 499
#
# _framework density 24.724549
#
# number of rings (size 3 to 8) (size 9 to 14) (size 15 to 20)
#    0.000    0.000    8.333    0.000    2.333    0.000 
#   18.000    3.333    0.000    0.000    0.000    0.000 
#    0.000    0.000    0.000    0.000    0.000    0.000 
#
# Total GULP energy -67288.892519 kJ/mol
# GULP energy per Si atom -5607.407710 kJ/mol
# Density = 2.466827 g / cm^3
# Si number density = 24.724549 Si / 1000 Ang^3
#
#
#
# Elastic Constant Matrix: (Units=GPa)
#
#
# Indices 1 2 3 4 5 6 
#
# 1 185.8475 46.4492 47.0418 0.0000 0.0000 0.0000
# 2 46.4492 108.7418 37.2949 0.0000 0.0000 0.0000
# 3 47.0418 37.2949 95.2769 0.0000 0.0000 0.0000
# 4 0.0000 0.0000 0.0000 26.9693 0.0000 0.0000
# 5 0.0000 0.0000 0.0000 0.0000 36.7512 0.0000
# 6 0.0000 0.0000 0.0000 0.0000 0.0000 70.5379
#
#
#
# Elastic Compliance Matrix: (Units=1/GPa)
#
#
# Indices 1 2 3 4 5 6 
#
# 1 0.006482 -0.001930 -0.002445 0.000000 0.000000 0.000000
# 2 -0.001930 0.011197 -0.003430 0.000000 0.000000 0.000000
# 3 -0.002445 -0.003430 0.013045 0.000000 0.000000 0.000000
# 4 0.000000 0.000000 0.000000 0.037079 0.000000 0.000000
# 5 0.000000 0.000000 0.000000 0.000000 0.027210 0.000000
# 6 0.000000 0.000000 0.000000 0.000000 0.000000 0.014177
#
#
# Mechanical properties :
#
#
# Convention : Reuss Voigt Hill
#
# Bulk Modulus (GPa) = 66.16196 72.38201 69.27198
# Shear Modulus (GPa) = 38.50940 44.12370 41.31655
#
# Velocity S-wave (km/s) = 3.95085 4.22905 4.09231
# Velocity P-wave (km/s) = 6.90145 7.29283 7.09984
#
# Compressibility (1/GPa) = 0.01511443
#
# Stress axis : x y z
#
# Youngs Moduli (GPa) = 154.27242 89.31003 76.65543
#
# Poissons Ratio (x) = 0.17240 0.18741
# Poissons Ratio (y) = 0.29779 0.26292
# Poissons Ratio (z) = 0.37717 0.30632
#
# Static dielectric constant tensor:
#      x y z
#    x 1.921960 0.000000 0.000000 
#    y 0.000000 2.015530 0.000000 
#    z 0.000000 0.000000 1.906430 
# 
# From -- ./inp_files/23147.got.cif
#   From: 2010.05.17/outbox.cif.g08.bks.cpg/sg43_12_cif.got.tgz:23147.got - 2010.06.03 19:21:55.
