data_PCOD9372071
_publ_section_title
;
Structure prediction by ZEFSAII (Michael W. Deem and Ramdas Pophale) SiO2 
 PCOD9372071
Probable space group: F D D 2
;
_chemical_formula_sum "Si O2"
_cell_formula_units_Z 104
_cell_length_a 11.996657
_cell_length_b 15.481974
_cell_length_c 25.395682
_cell_angle_alpha 90.000000
_cell_angle_beta 90.000000
_cell_angle_gamma 90.000000
_cell_volume 4716.789076
_symmetry_space_group_name_H-M "F D D 2"
_symmetry_group_IT_number 43
_symmetry_cell_setting 'orthorhombic'
loop_
_space_group_symop_operation_xyz
x,y,z
-x,-y,z
1/4-x,1/4+y,1/4+z
1/4+x,1/4-y,1/4+z
x,1/2+y,1/2+z
-x,1/2-y,1/2+z
1/4-x,3/4+y,3/4+z
1/4+x,3/4-y,3/4+z
1/2+x,y,1/2+z
1/2-x,-y,1/2+z
3/4-x,1/4+y,3/4+z
3/4+x,1/4-y,3/4+z
1/2+x,1/2+y,z
1/2-x,1/2-y,z
3/4-x,3/4+y,1/4+z
3/4+x,3/4-y,1/4+z
loop_
_atom_site_type_symbol
_atom_site_label
_atom_site_fract_x
_atom_site_fract_y
_atom_site_fract_z
Si Si1 0.348050 0.369193 0.963470
Si Si2 0.000000 0.500000 0.616439
Si Si3 0.547837 0.233855 0.946139
Si Si4 0.750000 0.250000 0.260791
Si Si5 0.196518 0.434419 0.809388
Si Si6 0.864786 0.585202 0.327801
Si Si7 0.869544 0.335142 0.171890
Si Si8 0.250000 0.750000 0.664960
O O1 0.447733 0.303163 0.950314
O O2 0.234966 0.363758 0.930906
O O3 0.402203 0.461491 0.950346
O O4 0.320249 0.356913 0.024565
O O5 0.892230 0.503313 0.653453
O O6 0.976956 0.411180 0.584775
O O7 0.484027 0.147067 0.930627
O O8 0.598885 0.222537 0.004503
O O9 0.773046 0.165304 0.296208
O O10 0.852902 0.267764 0.219988
O O11 0.305382 0.492680 0.820757
O O12 0.123890 0.445445 0.861838
O O13 0.946439 0.571909 0.376787
#
# Coordination Sequence:
#
# PCOD9372071 Si02
#       8
#    16   8  16   8  16  16  16   8
#     4  11  24  44  69 104 141 182 243 298 350 432
#     4  12  25  51  70 100 154 187 247 300 372 448
#     4  10  25  44  68 104 137 191 240 293 363 434
#     4  10  26  43  65 114 141 185 240 292 364 444
#     4  10  24  44  69 103 143 184 239 289 371 424
#     4  11  26  43  73 102 144 192 238 302 364 434
#     4  11  24  42  72  99 147 180 241 301 357 426
#     4  12  23  42  71 106 137 188 243 290 360 430
#
# _framework density 22.048897
#
# number of rings (size 3 to 8) (size 9 to 14) (size 15 to 20)
#    0.000    1.231    3.077    0.923   12.923    1.846 
#    2.769    0.000    0.000    0.000    0.000    0.000 
#    0.000    0.000    0.000    0.000    0.000    0.000 
#
# Total GULP energy -145178.348357 kJ/mol
# GULP energy per Si atom -5583.782629 kJ/mol
# Density = 2.199871 g / cm^3
# Si number density = 22.048897 Si / 1000 Ang^3
#
#
#
# Elastic Constant Matrix: (Units=GPa)
#
#
# Indices 1 2 3 4 5 6 
#
# 1 65.6916 28.1443 16.9357 0.0000 0.0000 0.0000
# 2 28.1443 95.7510 29.3180 0.0000 0.0000 0.0000
# 3 16.9357 29.3180 88.5763 0.0000 0.0000 0.0000
# 4 0.0000 0.0000 0.0000 -32.4254 0.0000 0.0000
# 5 0.0000 0.0000 0.0000 0.0000 27.5639 0.0000
# 6 0.0000 0.0000 0.0000 0.0000 0.0000 31.7481
#
#
#
# Elastic Compliance Matrix: (Units=1/GPa)
#
#
# Indices 1 2 3 4 5 6 
#
# 1 0.017684 -0.004632 -0.001848 0.000000 0.000000 0.000000
# 2 -0.004632 0.012835 -0.003363 0.000000 0.000000 0.000000
# 3 -0.001848 -0.003363 0.012756 0.000000 0.000000 0.000000
# 4 0.000000 0.000000 0.000000 -0.030840 0.000000 0.000000
# 5 0.000000 0.000000 0.000000 0.000000 0.036279 0.000000
# 6 0.000000 0.000000 0.000000 0.000000 0.000000 0.031498
#
#
# Mechanical properties :
#
#
# Convention : Reuss Voigt Hill
#
# Bulk Modulus (GPa) = 42.39189 44.31276 43.35233
# Shear Modulus (GPa) = 46.39952 17.08538 31.74245
#
# Velocity S-wave (km/s) = 4.59234 2.78670 3.79837
# Velocity P-wave (km/s) = 6.88386 5.52226 6.24031
#
# Compressibility (1/GPa) = 0.02358942
#
# Stress axis : x y z
#
# Youngs Moduli (GPa) = 56.54980 77.91299 78.39442
#
# Poissons Ratio (x) = 0.36089 0.14487
# Poissons Ratio (y) = 0.26194 0.26361
# Poissons Ratio (z) = 0.10450 0.26199
#
# Static dielectric constant tensor:
#      x y z
#    x 1.763860 0.000000 0.000000 
#    y 0.000000 2.113110 0.000000 
#    z 0.000000 0.000000 1.827080 
# 
# From -- ./inp_files/25161.got.cif
#   From: 2010.05.17/outbox.cif.g08.bks.cpg/sg43_13_cif.got.tgz:25161.got - 2010.06.03 19:21:55.
