data_PCOD9372660
_publ_section_title
;
Structure prediction by ZEFSAII (Michael W. Deem and Ramdas Pophale) SiO2 
 PCOD9372660
Probable space group: F D D 2
;
_chemical_formula_sum "Si O2"
_cell_formula_units_Z 88
_cell_length_a 14.735188
_cell_length_b 21.170342
_cell_length_c 11.882498
_cell_angle_alpha 90.000000
_cell_angle_beta 90.000000
_cell_angle_gamma 90.000000
_cell_volume 3706.733005
_symmetry_space_group_name_H-M "F D D 2"
_symmetry_group_IT_number 43
_symmetry_cell_setting 'orthorhombic'
loop_
_space_group_symop_operation_xyz
x,y,z
-x,-y,z
1/4-x,1/4+y,1/4+z
1/4+x,1/4-y,1/4+z
x,1/2+y,1/2+z
-x,1/2-y,1/2+z
1/4-x,3/4+y,3/4+z
1/4+x,3/4-y,3/4+z
1/2+x,y,1/2+z
1/2-x,-y,1/2+z
3/4-x,1/4+y,3/4+z
3/4+x,1/4-y,3/4+z
1/2+x,1/2+y,z
1/2-x,1/2-y,z
3/4-x,3/4+y,1/4+z
3/4+x,3/4-y,1/4+z
loop_
_atom_site_type_symbol
_atom_site_label
_atom_site_fract_x
_atom_site_fract_y
_atom_site_fract_z
Si Si1 0.817160 0.613634 0.001670
Si Si2 0.810921 0.898242 0.388325
Si Si3 0.500000 0.000000 0.291835
Si Si4 0.984792 0.350491 0.013477
Si Si5 0.788271 0.967460 0.167073
Si Si6 0.627511 0.958196 0.487181
O O1 0.785523 0.686303 0.984223
O O2 0.780918 0.583941 0.117761
O O3 0.924919 0.609314 0.002452
O O4 0.778878 0.579217 0.891984
O O5 0.829361 0.946485 0.285554
O O6 0.719168 0.919326 0.452190
O O7 0.811731 0.833373 0.316455
O O8 0.895460 0.887547 0.471851
O O9 0.580922 0.976622 0.371785
O O10 0.999133 0.287471 0.940054
O O11 0.853615 0.980088 0.061902
#
# Coordination Sequence:
#
# PCOD9372660 Si02
#       6
#    16  16   8  16  16  16
#     4  12  26  46  74 106 152 198 256 311 384 461
#     4  11  24  48  74 103 156 189 252 317 377 463
#     4  12  26  44  78 108 152 200 258 312 384 464
#     4  11  27  48  72 112 147 199 249 317 386 452
#     4  11  24  47  74 104 152 195 254 315 384 458
#     4  11  26  45  73 112 142 200 252 315 382 458
#
# _framework density 23.740583000000001
#
# number of rings (size 3 to 8) (size 9 to 14) (size 15 to 20)
#    0.000    0.727    1.818    5.455    7.636    0.000 
#    0.000    3.636    0.000    0.000    0.000    0.000 
#    0.000    0.000    0.000    0.000    0.000    0.000 
#
# Total GULP energy -122973.957439 kJ/mol
# GULP energy per Si atom -5589.725338 kJ/mol
# Density = 2.368655 g / cm^3
# Si number density = 23.740583 Si / 1000 Ang^3
#
#
#
# Elastic Constant Matrix: (Units=GPa)
#
#
# Indices 1 2 3 4 5 6 
#
# 1 90.0647 49.7701 29.7357 0.0000 0.0000 0.0000
# 2 49.7701 73.9863 20.2331 0.0000 0.0000 0.0000
# 3 29.7357 20.2331 111.7787 0.0000 0.0000 0.0000
# 4 0.0000 0.0000 0.0000 54.6120 0.0000 0.0000
# 5 0.0000 0.0000 0.0000 0.0000 33.6081 0.0000
# 6 0.0000 0.0000 0.0000 0.0000 0.0000 28.1904
#
#
#
# Elastic Compliance Matrix: (Units=1/GPa)
#
#
# Indices 1 2 3 4 5 6 
#
# 1 0.018472 -0.011659 -0.002803 0.000000 0.000000 0.000000
# 2 -0.011659 0.021579 -0.000804 0.000000 0.000000 0.000000
# 3 -0.002803 -0.000804 0.009838 0.000000 0.000000 0.000000
# 4 0.000000 0.000000 0.000000 0.018311 0.000000 0.000000
# 5 0.000000 0.000000 0.000000 0.000000 0.029755 0.000000
# 6 0.000000 0.000000 0.000000 0.000000 0.000000 0.035473
#
#
# Mechanical properties :
#
#
# Convention : Reuss Voigt Hill
#
# Bulk Modulus (GPa) = 51.66807 52.81193 52.24000
# Shear Modulus (GPa) = 29.34062 35.02148 32.18105
#
# Velocity S-wave (km/s) = 3.51933 3.84497 3.68575
# Velocity P-wave (km/s) = 6.19073 6.48116 6.33761
#
# Compressibility (1/GPa) = 0.01935431
#
# Stress axis : x y z
#
# Youngs Moduli (GPa) = 54.13735 46.34143 101.65041
#
# Poissons Ratio (x) = 0.54030 0.28497
# Poissons Ratio (y) = 0.63119 0.08177
# Poissons Ratio (z) = 0.15177 0.03728
#
# Static dielectric constant tensor:
#      x y z
#    x 1.928100 0.000000 0.000000 
#    y 0.000000 1.936700 0.000000 
#    z 0.000000 0.000000 1.894050 
# 
# From -- ./inp_files/6145.got.cif
#   From: 2010.05.17/outbox.cif.g08.bks.cpg/sg43_4_cif.got.tgz:6145.got - 2010.06.03 19:21:55.
