data_PCOD9372141
_publ_section_title
;
Structure prediction by ZEFSAII (Michael W. Deem and Ramdas Pophale) SiO2 
 PCOD9372141
Probable space group: F D D 2
;
_chemical_formula_sum "Si O2"
_cell_formula_units_Z 56
_cell_length_a 11.200096
_cell_length_b 10.838350
_cell_length_c 17.534559
_cell_angle_alpha 90.000000
_cell_angle_beta 90.000000
_cell_angle_gamma 90.000000
_cell_volume 2128.529945
_symmetry_space_group_name_H-M "F D D 2"
_symmetry_group_IT_number 43
_symmetry_cell_setting 'orthorhombic'
loop_
_space_group_symop_operation_xyz
x,y,z
-x,-y,z
1/4-x,1/4+y,1/4+z
1/4+x,1/4-y,1/4+z
x,1/2+y,1/2+z
-x,1/2-y,1/2+z
1/4-x,3/4+y,3/4+z
1/4+x,3/4-y,3/4+z
1/2+x,y,1/2+z
1/2-x,-y,1/2+z
3/4-x,1/4+y,3/4+z
3/4+x,1/4-y,3/4+z
1/2+x,1/2+y,z
1/2-x,1/2-y,z
3/4-x,3/4+y,1/4+z
3/4+x,3/4-y,1/4+z
loop_
_atom_site_type_symbol
_atom_site_label
_atom_site_fract_x
_atom_site_fract_y
_atom_site_fract_z
Si Si1 0.466451 0.672948 0.956020
Si Si2 0.339890 0.867436 0.875188
Si Si3 0.250000 0.250000 0.080842
Si Si4 0.494853 0.129167 0.192609
O O1 0.451365 0.810641 0.922686
O O2 0.426116 0.586265 0.885880
O O3 0.603643 0.626177 0.965864
O O4 0.398163 0.645011 0.034611
O O5 0.250000 0.750000 0.884652
O O6 0.299059 0.998474 0.909003
O O7 0.189575 0.345367 0.022745
O O8 0.500000 0.000000 0.145413
#
# Coordination Sequence:
#
# PCOD9372141 Si02
#       4
#    16  16   8  16
#     4  12  24  49  78 113 159 200 261 326 387 472
#     4  12  28  47  79 117 151 209 266 319 399 467
#     4  10  24  46  78 102 160 210 248 320 396 460
#     4  10  26  50  79 108 156 211 262 321 398 463
#
# _framework density 26.309237
#
# number of rings (size 3 to 8) (size 9 to 14) (size 15 to 20)
#    0.857    0.000    1.429    5.143    4.000    3.429 
#    0.000    0.000    0.000    0.000    0.000    0.000 
#    0.000    0.000    0.000    0.000    0.000    0.000 
#
# Total GULP energy -77954.653579 kJ/mol
# GULP energy per Si atom -5568.189541 kJ/mol
# Density = 2.624936 g / cm^3
# Si number density = 26.309237 Si / 1000 Ang^3
#
#
#
# Elastic Constant Matrix: (Units=GPa)
#
#
# Indices 1 2 3 4 5 6 
#
# 1 57.1367 59.7271 36.9743 0.0000 0.0000 0.0000
# 2 59.7271 259.2440 133.7938 0.0000 0.0000 0.0000
# 3 36.9743 133.7938 208.1602 0.0000 0.0000 0.0000
# 4 0.0000 0.0000 0.0000 44.3916 0.0000 0.0000
# 5 0.0000 0.0000 0.0000 0.0000 17.4880 0.0000
# 6 0.0000 0.0000 0.0000 0.0000 0.0000 51.6266
#
#
#
# Elastic Compliance Matrix: (Units=1/GPa)
#
#
# Indices 1 2 3 4 5 6 
#
# 1 0.023199 -0.004816 -0.001026 0.000000 0.000000 0.000000
# 2 -0.004816 0.006772 -0.003497 0.000000 0.000000 0.000000
# 3 -0.001026 -0.003497 0.007234 0.000000 0.000000 0.000000
# 4 0.000000 0.000000 0.000000 0.022527 0.000000 0.000000
# 5 0.000000 0.000000 0.000000 0.000000 0.057182 0.000000
# 6 0.000000 0.000000 0.000000 0.000000 0.000000 0.019370
#
#
# Mechanical properties :
#
#
# Convention : Reuss Voigt Hill
#
# Bulk Modulus (GPa) = 53.97097 109.50350 81.73723
# Shear Modulus (GPa) = 31.02961 42.30428 36.66695
#
# Velocity S-wave (km/s) = 3.43799 4.01429 3.73727
# Velocity P-wave (km/s) = 6.02647 7.94972 7.05395
#
# Compressibility (1/GPa) = 0.01852848
#
# Stress axis : x y z
#
# Youngs Moduli (GPa) = 43.10438 147.67443 138.23838
#
# Poissons Ratio (x) = 0.71115 0.14177
# Poissons Ratio (y) = 0.20757 0.48343
# Poissons Ratio (z) = 0.04421 0.51643
#
# Static dielectric constant tensor:
#      x y z
#    x 2.379090 0.000000 0.000000 
#    y 0.000000 2.223480 0.000000 
#    z 0.000000 0.000000 2.129180 
# 
# From -- ./inp_files/16859.got.cif
#   From: 2010.05.17/outbox.cif.g08.bks.cpg/sg43_9_cif.got.tgz:16859.got - 2010.06.03 19:21:55.
