data_PCOD9372725
_publ_section_title
;
Structure prediction by ZEFSAII (Michael W. Deem and Ramdas Pophale) SiO2 
 PCOD9372725
Probable space group: F D D 2
;
_chemical_formula_sum "Si O2"
_cell_formula_units_Z 88
_cell_length_a 27.391098
_cell_length_b 15.823921
_cell_length_c 7.802599
_cell_angle_alpha 90.000000
_cell_angle_beta 90.000000
_cell_angle_gamma 90.000000
_cell_volume 3381.916149
_symmetry_space_group_name_H-M "F D D 2"
_symmetry_group_IT_number 43
_symmetry_cell_setting 'orthorhombic'
loop_
_space_group_symop_operation_xyz
x,y,z
-x,-y,z
1/4-x,1/4+y,1/4+z
1/4+x,1/4-y,1/4+z
x,1/2+y,1/2+z
-x,1/2-y,1/2+z
1/4-x,3/4+y,3/4+z
1/4+x,3/4-y,3/4+z
1/2+x,y,1/2+z
1/2-x,-y,1/2+z
3/4-x,1/4+y,3/4+z
3/4+x,1/4-y,3/4+z
1/2+x,1/2+y,z
1/2-x,1/2-y,z
3/4-x,3/4+y,1/4+z
3/4+x,3/4-y,1/4+z
loop_
_atom_site_type_symbol
_atom_site_label
_atom_site_fract_x
_atom_site_fract_y
_atom_site_fract_z
Si Si1 0.155285 0.535077 0.054270
Si Si2 0.591406 0.896826 0.456889
Si Si3 0.250000 0.750000 0.834595
Si Si4 0.210868 0.585349 0.386217
Si Si5 0.797806 0.586749 0.500885
Si Si6 0.810428 0.131776 0.390047
O O1 0.188434 0.580996 0.197549
O O2 0.099316 0.544146 0.118592
O O3 0.157865 0.587009 0.876033
O O4 0.169276 0.438344 0.020356
O O5 0.577808 0.848161 0.285212
O O6 0.647221 0.924517 0.431735
O O7 0.548713 0.965201 0.489882
O O8 0.228114 0.827348 0.944618
O O9 0.232149 0.491783 0.426819
O O10 0.254221 0.650639 0.423384
O O11 0.804909 0.587868 0.703767
#
# Coordination Sequence:
#
# PCOD9372725 Si02
#       6
#    16  16   8  16  16  16
#     4  11  27  47  73 111 148 199 251 320 370 465
#     4  11  26  49  74 112 151 205 256 319 383 463
#     4  12  26  46  80 114 156 198 270 318 384 458
#     4  12  25  48  76 107 151 202 249 313 389 452
#     4  11  26  48  78 108 154 208 250 319 388 460
#     4  11  25  49  72 108 151 192 254 309 388 450
#
# _framework density 26.020752000000002
#
# number of rings (size 3 to 8) (size 9 to 14) (size 15 to 20)
#    0.000    0.727    1.818    4.364   12.727    1.455 
#    0.000    0.000    0.000    0.000    0.000    0.000 
#    0.000    0.000    0.000    0.000    0.000    0.000 
#
# Total GULP energy -123321.446265 kJ/mol
# GULP energy per Si atom -5605.520285 kJ/mol
# Density = 2.596153 g / cm^3
# Si number density = 26.020752 Si / 1000 Ang^3
#
#
#
# Elastic Constant Matrix: (Units=GPa)
#
#
# Indices 1 2 3 4 5 6 
#
# 1 158.2648 39.0632 45.9419 0.0000 0.0000 0.0000
# 2 39.0632 97.1153 45.9439 0.0000 0.0000 0.0000
# 3 45.9419 45.9439 129.2056 0.0000 0.0000 0.0000
# 4 0.0000 0.0000 0.0000 34.6705 0.0000 0.0000
# 5 0.0000 0.0000 0.0000 0.0000 43.8536 0.0000
# 6 0.0000 0.0000 0.0000 0.0000 0.0000 44.8875
#
#
#
# Elastic Compliance Matrix: (Units=1/GPa)
#
#
# Indices 1 2 3 4 5 6 
#
# 1 0.007378 -0.002076 -0.001885 0.000000 0.000000 0.000000
# 2 -0.002076 0.012964 -0.003872 0.000000 0.000000 0.000000
# 3 -0.001885 -0.003872 0.009787 0.000000 0.000000 0.000000
# 4 0.000000 0.000000 0.000000 0.028843 0.000000 0.000000
# 5 0.000000 0.000000 0.000000 0.000000 0.022803 0.000000
# 6 0.000000 0.000000 0.000000 0.000000 0.000000 0.022278
#
#
# Mechanical properties :
#
#
# Convention : Reuss Voigt Hill
#
# Bulk Modulus (GPa) = 69.14230 71.83154 70.48692
# Shear Modulus (GPa) = 40.14810 41.59144 40.86977
#
# Velocity S-wave (km/s) = 3.93227 4.00233 3.96746
# Velocity P-wave (km/s) = 6.87362 7.00169 6.93795
#
# Compressibility (1/GPa) = 0.01446293
#
# Stress axis : x y z
#
# Youngs Moduli (GPa) = 135.53495 77.13906 102.17993
#
# Poissons Ratio (x) = 0.16013 0.19264
# Poissons Ratio (y) = 0.28135 0.39560
# Poissons Ratio (z) = 0.25553 0.29865
#
# Static dielectric constant tensor:
#      x y z
#    x 2.097370 0.000000 0.000000 
#    y 0.000000 2.042170 0.000000 
#    z 0.000000 0.000000 2.002290 
# 
# From -- ./inp_files/4691.got.cif
#   From: 2010.05.17/outbox.cif.g08.bks.cpg/sg43_3_cif.got.tgz:4691.got - 2010.06.03 19:21:55.
