data_PCOD9372313
_publ_section_title
;
Structure prediction by ZEFSAII (Michael W. Deem and Ramdas Pophale) SiO2 
 PCOD9372313
Probable space group: F D D 2
;
_chemical_formula_sum "Si O2"
_cell_formula_units_Z 72
_cell_length_a 25.352615
_cell_length_b 14.152694
_cell_length_c 8.225419
_cell_angle_alpha 90.000000
_cell_angle_beta 90.000000
_cell_angle_gamma 90.000000
_cell_volume 2951.344514
_symmetry_space_group_name_H-M "F D D 2"
_symmetry_group_IT_number 43
_symmetry_cell_setting 'orthorhombic'
loop_
_space_group_symop_operation_xyz
x,y,z
-x,-y,z
1/4-x,1/4+y,1/4+z
1/4+x,1/4-y,1/4+z
x,1/2+y,1/2+z
-x,1/2-y,1/2+z
1/4-x,3/4+y,3/4+z
1/4+x,3/4-y,3/4+z
1/2+x,y,1/2+z
1/2-x,-y,1/2+z
3/4-x,1/4+y,3/4+z
3/4+x,1/4-y,3/4+z
1/2+x,1/2+y,z
1/2-x,1/2-y,z
3/4-x,3/4+y,1/4+z
3/4+x,3/4-y,1/4+z
loop_
_atom_site_type_symbol
_atom_site_label
_atom_site_fract_x
_atom_site_fract_y
_atom_site_fract_z
Si Si1 0.000000 0.500000 0.637960
Si Si2 0.078999 0.769067 0.624352
Si Si3 0.349941 0.167632 0.563996
Si Si4 0.754675 0.421193 0.653499
Si Si5 0.590480 0.651046 0.668553
O O1 0.947795 0.476739 0.737604
O O2 0.015280 0.412074 0.527392
O O3 0.106687 0.670487 0.686778
O O4 0.028588 0.747137 0.508968
O O5 0.115509 0.841890 0.522873
O O6 0.054619 0.803968 0.794222
O O7 0.394801 0.240132 0.626744
O O8 0.330349 0.134277 0.738573
O O9 0.710895 0.389050 0.525061
#
# Coordination Sequence:
#
# PCOD9372313 Si02
#       5
#     8  16  16  16  16
#     4  10  28  48  78 108 150 206 254 324 392 464
#     4  11  27  50  77 112 157 202 257 326 390 475
#     4  11  28  47  78 111 154 201 256 325 386 472
#     4  11  26  50  75 112 153 202 254 321 390 472
#     4  12  27  48  78 114 154 204 261 318 395 474
#
# _framework density 24.395658999999998
#
# number of rings (size 3 to 8) (size 9 to 14) (size 15 to 20)
#    0.000    0.889    2.222    1.333   18.667    1.778 
#    0.000    0.000    0.000    0.000    0.000    0.000 
#    0.000    0.000    0.000    0.000    0.000    0.000 
#
# Total GULP energy -100646.037809 kJ/mol
# GULP energy per Si atom -5591.446545 kJ/mol
# Density = 2.434013 g / cm^3
# Si number density = 24.395659 Si / 1000 Ang^3
#
#
#
# Elastic Constant Matrix: (Units=GPa)
#
#
# Indices 1 2 3 4 5 6 
#
# 1 79.8837 47.6572 27.6743 0.0000 0.0000 0.0000
# 2 47.6572 96.1227 42.7743 0.0000 0.0000 0.0000
# 3 27.6743 42.7743 155.8680 0.0000 0.0000 0.0000
# 4 0.0000 0.0000 0.0000 43.5474 0.0000 0.0000
# 5 0.0000 0.0000 0.0000 0.0000 75.8549 0.0000
# 6 0.0000 0.0000 0.0000 0.0000 0.0000 24.0981
#
#
#
# Elastic Compliance Matrix: (Units=1/GPa)
#
#
# Indices 1 2 3 4 5 6 
#
# 1 0.017873 -0.008486 -0.000845 0.000000 0.000000 0.000000
# 2 -0.008486 0.015879 -0.002851 0.000000 0.000000 0.000000
# 3 -0.000845 -0.002851 0.007348 0.000000 0.000000 0.000000
# 4 0.000000 0.000000 0.000000 0.022963 0.000000 0.000000
# 5 0.000000 0.000000 0.000000 0.000000 0.013183 0.000000
# 6 0.000000 0.000000 0.000000 0.000000 0.000000 0.041497
#
#
# Mechanical properties :
#
#
# Convention : Reuss Voigt Hill
#
# Bulk Modulus (GPa) = 59.74511 63.12067 61.43289
# Shear Modulus (GPa) = 33.62793 42.95132 38.28962
#
# Velocity S-wave (km/s) = 3.71676 4.20052 3.96602
# Velocity P-wave (km/s) = 6.55456 7.03247 6.79772
#
# Compressibility (1/GPa) = 0.01673777
#
# Stress axis : x y z
#
# Youngs Moduli (GPa) = 55.94980 62.97560 136.09023
#
# Poissons Ratio (x) = 0.53438 0.11496
# Poissons Ratio (y) = 0.47476 0.38800
# Poissons Ratio (z) = 0.04726 0.17955
#
# Static dielectric constant tensor:
#      x y z
#    x 1.972870 0.000000 0.000000 
#    y 0.000000 2.008670 0.000000 
#    z 0.000000 0.000000 1.912770 
# 
# From -- ./inp_files/2339.got.cif
#   From: 2010.05.17/outbox.cif.g08.bks.cpg/sg43_2_cif.got.tgz:2339.got - 2010.06.03 19:21:55.
