data_PCOD9372417
_publ_section_title
;
Structure prediction by ZEFSAII (Michael W. Deem and Ramdas Pophale) SiO2 
 PCOD9372417
Probable space group: F D D 2
;
_chemical_formula_sum "Si O2"
_cell_formula_units_Z 80
_cell_length_a 13.692044
_cell_length_b 22.424199
_cell_length_c 11.053795
_cell_angle_alpha 90.000000
_cell_angle_beta 90.000000
_cell_angle_gamma 90.000000
_cell_volume 3393.881160
_symmetry_space_group_name_H-M "F D D 2"
_symmetry_group_IT_number 43
_symmetry_cell_setting 'orthorhombic'
loop_
_space_group_symop_operation_xyz
x,y,z
-x,-y,z
1/4-x,1/4+y,1/4+z
1/4+x,1/4-y,1/4+z
x,1/2+y,1/2+z
-x,1/2-y,1/2+z
1/4-x,3/4+y,3/4+z
1/4+x,3/4-y,3/4+z
1/2+x,y,1/2+z
1/2-x,-y,1/2+z
3/4-x,1/4+y,3/4+z
3/4+x,1/4-y,3/4+z
1/2+x,1/2+y,z
1/2-x,1/2-y,z
3/4-x,3/4+y,1/4+z
3/4+x,3/4-y,1/4+z
loop_
_atom_site_type_symbol
_atom_site_label
_atom_site_fract_x
_atom_site_fract_y
_atom_site_fract_z
Si Si1 0.500000 0.000000 0.629071
Si Si2 0.606963 0.055017 0.407050
Si Si3 0.750000 0.250000 0.462435
Si Si4 0.691633 0.915277 0.005869
Si Si5 0.493738 0.092423 0.833486
Si Si6 0.610786 0.798337 0.780054
O O1 0.574364 0.032280 0.537947
O O2 0.465031 0.051191 0.720665
O O3 0.548411 0.112412 0.353700
O O4 0.716270 0.077323 0.418771
O O5 0.587697 0.001200 0.312179
O O6 0.704788 0.299847 0.372421
O O7 0.595192 0.906549 0.927130
O O8 0.674224 0.981514 0.056128
O O9 0.485282 0.160838 0.792757
O O10 0.587999 0.065689 0.902098
#
# Coordination Sequence:
#
# PCOD9372417 Si02
#       6
#     8  16   8  16  16  16
#     4  11  27  52  66 114 159 187 254 314 378 445
#     4  11  27  44  77 109 152 192 246 315 382 444
#     4  11  21  46  70 108 139 181 246 314 370 451
#     4  12  23  48  72 108 142 205 243 303 376 452
#     4  12  25  48  74 107 147 201 249 311 371 448
#     4  12  25  45  77 104 149 191 260 305 370 453
#
# _framework density 23.571833000000002
#
# number of rings (size 3 to 8) (size 9 to 14) (size 15 to 20)
#    0.000    0.400    6.000    2.400    2.800    1.600 
#    7.200    0.000    0.000    0.000    0.000    0.000 
#    0.000    0.000    0.000    0.000    0.000    0.000 
#
# Total GULP energy -111387.833302 kJ/mol
# GULP energy per Si atom -5569.391665 kJ/mol
# Density = 2.351818 g / cm^3
# Si number density = 23.571833 Si / 1000 Ang^3
#
#
#
# Elastic Constant Matrix: (Units=GPa)
#
#
# Indices 1 2 3 4 5 6 
#
# 1 52.0326 13.0696 18.6968 0.0000 0.0000 0.0000
# 2 13.0696 128.3077 37.8545 0.0000 0.0000 0.0000
# 3 18.6968 37.8545 122.0231 0.0000 0.0000 0.0000
# 4 0.0000 0.0000 0.0000 46.9077 0.0000 0.0000
# 5 0.0000 0.0000 0.0000 0.0000 13.2984 0.0000
# 6 0.0000 0.0000 0.0000 0.0000 0.0000 32.8249
#
#
#
# Elastic Compliance Matrix: (Units=1/GPa)
#
#
# Indices 1 2 3 4 5 6 
#
# 1 0.020528 -0.001280 -0.002748 0.000000 0.000000 0.000000
# 2 -0.001280 0.008659 -0.002490 0.000000 0.000000 0.000000
# 3 -0.002748 -0.002490 0.009389 0.000000 0.000000 0.000000
# 4 0.000000 0.000000 0.000000 0.021318 0.000000 0.000000
# 5 0.000000 0.000000 0.000000 0.000000 0.075197 0.000000
# 6 0.000000 0.000000 0.000000 0.000000 0.000000 0.030465
#
#
# Mechanical properties :
#
#
# Convention : Reuss Voigt Hill
#
# Bulk Modulus (GPa) = 39.15656 49.06725 44.11191
# Shear Modulus (GPa) = 26.72294 34.12236 30.42265
#
# Velocity S-wave (km/s) = 3.37067 3.80885 3.59644
# Velocity P-wave (km/s) = 5.63881 6.34069 6.00002
#
# Compressibility (1/GPa) = 0.02553851
#
# Stress axis : x y z
#
# Youngs Moduli (GPa) = 48.71446 115.48956 106.51080
#
# Poissons Ratio (x) = 0.14785 0.29271
# Poissons Ratio (y) = 0.06236 0.26521
# Poissons Ratio (z) = 0.13388 0.28757
#
# Static dielectric constant tensor:
#      x y z
#    x 1.900960 0.000000 0.000000 
#    y 0.000000 2.076920 0.000000 
#    z 0.000000 0.000000 1.969120 
# 
# From -- ./inp_files/6123.got.cif
#   From: 2010.05.17/outbox.cif.g08.bks.cpg/sg43_4_cif.got.tgz:6123.got - 2010.06.03 19:21:55.
