data_PCOD9372073
_publ_section_title
;
Structure prediction by ZEFSAII (Michael W. Deem and Ramdas Pophale) SiO2 
 PCOD9372073
Probable space group: F D D 2
;
_chemical_formula_sum "Si O2"
_cell_formula_units_Z 88
_cell_length_a 19.547056
_cell_length_b 7.823840
_cell_length_c 27.273605
_cell_angle_alpha 90.000000
_cell_angle_beta 90.000000
_cell_angle_gamma 90.000000
_cell_volume 4171.035287
_symmetry_space_group_name_H-M "F D D 2"
_symmetry_group_IT_number 43
_symmetry_cell_setting 'orthorhombic'
loop_
_space_group_symop_operation_xyz
x,y,z
-x,-y,z
1/4-x,1/4+y,1/4+z
1/4+x,1/4-y,1/4+z
x,1/2+y,1/2+z
-x,1/2-y,1/2+z
1/4-x,3/4+y,3/4+z
1/4+x,3/4-y,3/4+z
1/2+x,y,1/2+z
1/2-x,-y,1/2+z
3/4-x,1/4+y,3/4+z
3/4+x,1/4-y,3/4+z
1/2+x,1/2+y,z
1/2-x,1/2-y,z
3/4-x,3/4+y,1/4+z
3/4+x,3/4-y,1/4+z
loop_
_atom_site_type_symbol
_atom_site_label
_atom_site_fract_x
_atom_site_fract_y
_atom_site_fract_z
Si Si1 0.055944 0.681140 0.662260
Si Si2 0.333412 0.034674 0.188165
Si Si3 0.067022 0.341960 0.602396
Si Si4 0.805581 0.393669 0.088452
Si Si5 0.954127 0.330560 0.237525
Si Si6 0.250000 0.250000 0.262818
O O1 0.117999 0.806961 0.672330
O O2 0.078984 0.494911 0.642160
O O3 0.005418 0.739861 0.618312
O O4 0.004172 0.699175 0.708555
O O5 0.283004 0.102959 0.229891
O O6 0.290604 0.983755 0.140162
O O7 0.385162 0.887564 0.208576
O O8 0.123983 0.202245 0.599113
O O9 0.057489 0.427450 0.549468
O O10 0.750000 0.250000 0.077486
O O11 0.811920 0.514021 0.041563
O O12 0.000000 0.500000 0.241005
#
# Coordination Sequence:
#
# PCOD9372073 Si02
#       6
#    16  16  16  16  16   8
#     4   9  21  45  73  88 132 178 228 268 333 409
#     4  11  25  45  69 100 134 179 223 282 337 404
#     4  10  24  44  70 100 130 181 224 276 340 409
#     4  12  29  39  67 105 136 175 223 286 340 404
#     4  10  24  44  69  98 132 182 227 273 340 409
#     4  10  26  42  70 100 134 178 216 286 344 384
#
# _framework density 21.097878999999999
#
# number of rings (size 3 to 8) (size 9 to 14) (size 15 to 20)
#    0.000    1.818    1.818    0.000   16.545    1.455 
#    0.000    0.000    0.000    0.000    0.000    0.000 
#    0.000    0.000    0.000    0.000    0.000    0.000 
#
# Total GULP energy -122779.459594 kJ/mol
# GULP energy per Si atom -5580.884527 kJ/mol
# Density = 2.104986 g / cm^3
# Si number density = 21.097879 Si / 1000 Ang^3
#
#
#
# Elastic Constant Matrix: (Units=GPa)
#
#
# Indices 1 2 3 4 5 6 
#
# 1 14.2638 7.2380 3.7467 0.0000 0.0000 0.0000
# 2 7.2380 64.9925 54.2087 0.0000 0.0000 0.0000
# 3 3.7467 54.2087 153.6960 0.0000 0.0000 0.0000
# 4 0.0000 0.0000 0.0000 63.8577 0.0000 0.0000
# 5 0.0000 0.0000 0.0000 0.0000 26.1409 0.0000
# 6 0.0000 0.0000 0.0000 0.0000 0.0000 27.3588
#
#
#
# Elastic Compliance Matrix: (Units=1/GPa)
#
#
# Indices 1 2 3 4 5 6 
#
# 1 0.074575 -0.009618 0.001574 0.000000 0.000000 0.000000
# 2 -0.009618 0.023040 -0.007892 0.000000 0.000000 0.000000
# 3 0.001574 -0.007892 0.009251 0.000000 0.000000 0.000000
# 4 0.000000 0.000000 0.000000 0.015660 0.000000 0.000000
# 5 0.000000 0.000000 0.000000 0.000000 0.038254 0.000000
# 6 0.000000 0.000000 0.000000 0.000000 0.000000 0.036551
#
#
# Mechanical properties :
#
#
# Convention : Reuss Voigt Hill
#
# Bulk Modulus (GPa) = 13.33430 40.37104 26.85267
# Shear Modulus (GPa) = 19.66951 34.65540 27.16245
#
# Velocity S-wave (km/s) = 3.05667 4.05730 3.59200
# Velocity P-wave (km/s) = 4.33492 6.41292 5.47344
#
# Compressibility (1/GPa) = 0.07499455
#
# Stress axis : x y z
#
# Youngs Moduli (GPa) = 13.40940 43.40306 108.09200
#
# Poissons Ratio (x) = 0.41747 -0.17019
# Poissons Ratio (y) = 0.12898 0.85303
# Poissons Ratio (z) = -0.02111 0.34252
#
# Static dielectric constant tensor:
#      x y z
#    x 1.736330 0.000000 0.000000 
#    y 0.000000 1.684110 0.000000 
#    z 0.000000 0.000000 1.780340 
# 
# From -- ./inp_files/22348.got.cif
#   From: 2010.05.17/outbox.cif.g08.bks.cpg/sg43_12_cif.got.tgz:22348.got - 2010.06.03 19:21:55.
