data_PCOD9372035
_publ_section_title
;
Structure prediction by ZEFSAII (Michael W. Deem and Ramdas Pophale) SiO2 
 PCOD9372035
Probable space group: F D D 2
;
_chemical_formula_sum "Si O2"
_cell_formula_units_Z 96
_cell_length_a 21.298051
_cell_length_b 8.641152
_cell_length_c 22.947397
_cell_angle_alpha 90.000000
_cell_angle_beta 90.000000
_cell_angle_gamma 90.000000
_cell_volume 4223.231968
_symmetry_space_group_name_H-M "F D D 2"
_symmetry_group_IT_number 43
_symmetry_cell_setting 'orthorhombic'
loop_
_space_group_symop_operation_xyz
x,y,z
-x,-y,z
1/4-x,1/4+y,1/4+z
1/4+x,1/4-y,1/4+z
x,1/2+y,1/2+z
-x,1/2-y,1/2+z
1/4-x,3/4+y,3/4+z
1/4+x,3/4-y,3/4+z
1/2+x,y,1/2+z
1/2-x,-y,1/2+z
3/4-x,1/4+y,3/4+z
3/4+x,1/4-y,3/4+z
1/2+x,1/2+y,z
1/2-x,1/2-y,z
3/4-x,3/4+y,1/4+z
3/4+x,3/4-y,1/4+z
loop_
_atom_site_type_symbol
_atom_site_label
_atom_site_fract_x
_atom_site_fract_y
_atom_site_fract_z
Si Si1 0.562385 0.329572 0.870130
Si Si2 0.218829 0.086101 0.542622
Si Si3 0.025427 0.322694 0.966201
Si Si4 0.138503 0.420812 0.135103
Si Si5 0.812485 0.349355 0.908212
Si Si6 0.010405 0.326122 0.093409
O O1 0.526314 0.280233 0.810335
O O2 0.519412 0.269984 0.922846
O O3 0.572722 0.511554 0.876751
O O4 0.627725 0.239511 0.882931
O O5 0.250000 0.250000 0.561556
O O6 0.193782 0.113257 0.477016
O O7 0.159784 0.024392 0.579773
O O8 0.093295 0.279671 0.939379
O O9 0.000000 0.500000 0.961005
O O10 0.024822 0.252336 0.031039
O O11 0.069031 0.348840 0.136135
O O12 0.750000 0.250000 0.894477
O O13 0.799695 0.505874 0.873538
O O14 0.000000 0.500000 0.075129
#
# Coordination Sequence:
#
# PCOD9372035 Si02
#       6
#    16  16  16  16  16  16
#     4  11  23  44  72  97 141 182 234 281 342 420
#     4  10  24  42  72  97 134 186 226 280 348 411
#     4  10  24  44  71 100 132 185 226 275 348 408
#     4  11  23  45  68 102 132 178 236 282 339 414
#     4  11  25  45  64 105 142 181 228 287 355 410
#     4  11  27  41  65 103 137 178 226 285 347 401
#
# _framework density 22.731404999999999
#
# number of rings (size 3 to 8) (size 9 to 14) (size 15 to 20)
#    0.000    1.333    1.667    4.000    9.333    5.333 
#    0.000    0.000    0.000    0.000    0.000    0.000 
#    0.000    0.000    0.000    0.000    0.000    0.000 
#
# Total GULP energy -133783.028638 kJ/mol
# GULP energy per Si atom -5574.292860 kJ/mol
# Density = 2.267967 g / cm^3
# Si number density = 22.731405 Si / 1000 Ang^3
#
#
#
# Elastic Constant Matrix: (Units=GPa)
#
#
# Indices 1 2 3 4 5 6 
#
# 1 104.8041 21.3006 8.6680 0.0000 0.0000 0.0000
# 2 21.3006 104.8577 26.0911 0.0000 0.0000 0.0000
# 3 8.6680 26.0911 57.8586 0.0000 0.0000 0.0000
# 4 0.0000 0.0000 0.0000 8.6757 0.0000 0.0000
# 5 0.0000 0.0000 0.0000 0.0000 18.2219 0.0000
# 6 0.0000 0.0000 0.0000 0.0000 0.0000 44.1841
#
#
#
# Elastic Compliance Matrix: (Units=1/GPa)
#
#
# Indices 1 2 3 4 5 6 
#
# 1 0.009974 -0.001863 -0.000654 0.000000 0.000000 0.000000
# 2 -0.001863 0.011090 -0.004722 0.000000 0.000000 0.000000
# 3 -0.000654 -0.004722 0.019511 0.000000 0.000000 0.000000
# 4 0.000000 0.000000 0.000000 0.115265 0.000000 0.000000
# 5 0.000000 0.000000 0.000000 0.000000 0.054879 0.000000
# 6 0.000000 0.000000 0.000000 0.000000 0.000000 0.022633
#
#
# Mechanical properties :
#
#
# Convention : Reuss Voigt Hill
#
# Bulk Modulus (GPa) = 38.31894 42.18218 40.25056
# Shear Modulus (GPa) = 19.49095 28.31372 23.90234
#
# Velocity S-wave (km/s) = 2.93139 3.53310 3.24622
# Velocity P-wave (km/s) = 5.32459 5.93640 5.63880
#
# Compressibility (1/GPa) = 0.02609676
#
# Stress axis : x y z
#
# Youngs Moduli (GPa) = 100.25628 90.16976 51.25362
#
# Poissons Ratio (x) = 0.16803 0.03352
# Poissons Ratio (y) = 0.18682 0.24201
# Poissons Ratio (z) = 0.06557 0.42577
#
# Static dielectric constant tensor:
#      x y z
#    x 1.988290 0.000000 0.000000 
#    y 0.000000 1.910010 0.000000 
#    z 0.000000 0.000000 1.858120 
# 
# From -- ./inp_files/22588.got.cif
#   From: 2010.05.17/outbox.cif.g08.bks.cpg/sg43_12_cif.got.tgz:22588.got - 2010.06.03 19:21:55.
