data_PCOD9372297
_publ_section_title
;
Structure prediction by ZEFSAII (Michael W. Deem and Ramdas Pophale) SiO2 
 PCOD9372297
Probable space group: F D D 2
;
_chemical_formula_sum "Si O2"
_cell_formula_units_Z 56
_cell_length_a 16.902866
_cell_length_b 23.632136
_cell_length_c 5.104756
_cell_angle_alpha 90.000000
_cell_angle_beta 90.000000
_cell_angle_gamma 90.000000
_cell_volume 2039.099011
_symmetry_space_group_name_H-M "F D D 2"
_symmetry_group_IT_number 43
_symmetry_cell_setting 'orthorhombic'
loop_
_space_group_symop_operation_xyz
x,y,z
-x,-y,z
1/4-x,1/4+y,1/4+z
1/4+x,1/4-y,1/4+z
x,1/2+y,1/2+z
-x,1/2-y,1/2+z
1/4-x,3/4+y,3/4+z
1/4+x,3/4-y,3/4+z
1/2+x,y,1/2+z
1/2-x,-y,1/2+z
3/4-x,1/4+y,3/4+z
3/4+x,1/4-y,3/4+z
1/2+x,1/2+y,z
1/2-x,1/2-y,z
3/4-x,3/4+y,1/4+z
3/4+x,3/4-y,1/4+z
loop_
_atom_site_type_symbol
_atom_site_label
_atom_site_fract_x
_atom_site_fract_y
_atom_site_fract_z
Si Si1 0.250000 0.750000 0.617380
Si Si2 0.386186 0.596920 0.074448
Si Si3 0.782752 0.568659 0.080864
Si Si4 0.410776 0.196410 0.925593
O O1 0.296936 0.799861 0.767300
O O2 0.320703 0.717170 0.467212
O O3 0.452300 0.665580 0.672809
O O4 0.414508 0.658689 0.167608
O O5 0.344867 0.578123 0.344552
O O6 0.823343 0.596638 0.336984
O O7 0.787110 0.502369 0.143199
#
# Coordination Sequence:
#
# PCOD9372297 Si02
#       4
#     8  16  16  16
#     4  10  26  52  82 122 162 214 286 346 414 518
#     4  11  28  51  79 118 162 219 281 350 420 503
#     4  11  27  49  80 116 161 217 278 341 427 512
#     4  11  26  53  80 116 168 219 278 355 426 504
#
# _framework density 27.463111999999999
#
# number of rings (size 3 to 8) (size 9 to 14) (size 15 to 20)
#    0.000    1.143    0.000    3.429    0.000   25.143 
#    0.000    5.714    0.000    0.000    0.000    0.000 
#    0.000    0.000    0.000    0.000    0.000    0.000 
#
# Total GULP energy -78426.824261 kJ/mol
# GULP energy per Si atom -5601.916019 kJ/mol
# Density = 2.740060 g / cm^3
# Si number density = 27.463112 Si / 1000 Ang^3
#
#
#
# Elastic Constant Matrix: (Units=GPa)
#
#
# Indices 1 2 3 4 5 6 
#
# 1 169.1507 41.1694 78.4589 -0.0037 0.0009 0.0004
# 2 41.1694 116.1331 36.2754 -0.0055 0.0067 0.0023
# 3 78.4589 36.2754 243.0563 -0.0035 0.0017 0.0014
# 4 -0.0037 -0.0055 -0.0035 54.5319 0.0045 0.0006
# 5 0.0009 0.0067 0.0017 0.0045 34.6142 0.0008
# 6 0.0004 0.0023 0.0014 0.0006 0.0008 51.5525
#
#
#
# Elastic Compliance Matrix: (Units=1/GPa)
#
#
# Indices 1 2 3 4 5 6 
#
# 1 0.007354 -0.001957 -0.002082 0.000000 0.000000 0.000000
# 2 -0.001957 0.009552 -0.000794 0.000001 -0.000002 0.000000
# 3 -0.002082 -0.000794 0.004905 0.000000 0.000000 0.000000
# 4 0.000000 0.000001 0.000000 0.018338 -0.000002 0.000000
# 5 0.000000 -0.000002 0.000000 -0.000002 0.028890 0.000000
# 6 0.000000 0.000000 0.000000 0.000000 0.000000 0.019398
#
#
# Mechanical properties :
#
#
# Convention : Reuss Voigt Hill
#
# Bulk Modulus (GPa) = 82.33153 93.34974 87.84064
# Shear Modulus (GPa) = 48.94757 52.96880 50.95818
#
# Velocity S-wave (km/s) = 4.22631 4.39649 4.31224
# Velocity P-wave (km/s) = 7.33891 7.73543 7.53978
#
# Compressibility (1/GPa) = 0.01214601
#
# Stress axis : x y z
#
# Youngs Moduli (GPa) = 135.98556 104.68485 203.88261
#
# Poissons Ratio (x) = 0.20483 0.42444
# Poissons Ratio (y) = 0.26608 0.16190
# Poissons Ratio (z) = 0.28309 0.08313
#
# Static dielectric constant tensor:
#      x y z
#    x 2.342280 0.000040 0.000010 
#    y 0.000040 2.415720 -0.000010 
#    z 0.000010 -0.000010 2.190960 
# 
# From -- ./inp_files/616.got.cif
#   From: 2010.05.17/outbox.cif.g08.bks.cpg/sg43_1_cif.got.tgz:616.got - 2010.06.03 19:21:55.
