data_PCOD9372820
_publ_section_title
;
Structure prediction by ZEFSAII (Michael W. Deem and Ramdas Pophale) SiO2 
 PCOD9372820
Probable space group: F D D 2
;
_chemical_formula_sum "Si O2"
_cell_formula_units_Z 96
_cell_length_a 22.318310
_cell_length_b 8.654170
_cell_length_c 23.539679
_cell_angle_alpha 90.000000
_cell_angle_beta 90.000000
_cell_angle_gamma 90.000000
_cell_volume 4546.605406
_symmetry_space_group_name_H-M "F D D 2"
_symmetry_group_IT_number 43
_symmetry_cell_setting 'orthorhombic'
loop_
_space_group_symop_operation_xyz
x,y,z
-x,-y,z
1/4-x,1/4+y,1/4+z
1/4+x,1/4-y,1/4+z
x,1/2+y,1/2+z
-x,1/2-y,1/2+z
1/4-x,3/4+y,3/4+z
1/4+x,3/4-y,3/4+z
1/2+x,y,1/2+z
1/2-x,-y,1/2+z
3/4-x,1/4+y,3/4+z
3/4+x,1/4-y,3/4+z
1/2+x,1/2+y,z
1/2-x,1/2-y,z
3/4-x,3/4+y,1/4+z
3/4+x,3/4-y,1/4+z
loop_
_atom_site_type_symbol
_atom_site_label
_atom_site_fract_x
_atom_site_fract_y
_atom_site_fract_z
Si Si1 0.574743 0.254309 0.902200
Si Si2 0.235280 0.933877 0.553605
Si Si3 0.023995 0.174922 0.988082
Si Si4 0.139899 0.364818 0.148242
Si Si5 0.798301 0.390780 0.936904
Si Si6 0.014785 0.340051 0.100352
O O1 0.540227 0.239018 0.840862
O O2 0.524669 0.232200 0.951043
O O3 0.593438 0.434290 0.901130
O O4 0.634526 0.166892 0.922637
O O5 0.250000 0.750000 0.542815
O O6 0.178583 0.932558 0.596475
O O7 0.216884 0.028379 0.497406
O O8 0.086421 0.189116 0.955747
O O9 0.031906 0.220688 0.052303
O O10 0.000000 0.000000 0.985810
O O11 0.070181 0.376698 0.140496
O O12 0.750000 0.250000 0.930381
O O13 0.785925 0.516784 0.888435
O O14 0.000000 0.500000 0.070428
#
# Coordination Sequence:
#
# PCOD9372820 Si02
#       6
#    16  16  16  16  16  16
#     4   9  20  43  69  96 130 177 224 267 332 405
#     4   9  21  43  71  94 131 183 226 269 332 403
#     4   9  21  43  71  94 125 177 226 266 328 400
#     4   9  20  44  67  91 128 179 219 266 332 403
#     4  12  24  40  64 102 137 173 223 281 337 395
#     4  12  26  40  60 101 132 171 221 276 331 386
#
# _framework density 21.114654000000002
#
# number of rings (size 3 to 8) (size 9 to 14) (size 15 to 20)
#    0.000    2.000    1.667    3.000    2.333    5.333 
#    0.000    1.667    0.000    0.000    0.000    0.000 
#    0.000    0.000    0.000    0.000    0.000    0.000 
#
# Total GULP energy -133873.931872 kJ/mol
# GULP energy per Si atom -5578.080495 kJ/mol
# Density = 2.106660 g / cm^3
# Si number density = 21.114654 Si / 1000 Ang^3
#
#
#
# Elastic Constant Matrix: (Units=GPa)
#
#
# Indices 1 2 3 4 5 6 
#
# 1 112.9755 28.7233 35.9214 0.0000 0.0000 0.0000
# 2 28.7233 49.9001 41.3712 0.0001 0.0000 0.0000
# 3 35.9214 41.3712 120.6013 0.0000 0.0000 0.0000
# 4 0.0000 0.0001 0.0000 -38.5891 0.0000 0.0000
# 5 0.0000 0.0000 0.0000 0.0000 10.4182 0.0000
# 6 0.0000 0.0000 0.0000 0.0000 0.0000 23.5700
#
#
#
# Elastic Compliance Matrix: (Units=1/GPa)
#
#
# Indices 1 2 3 4 5 6 
#
# 1 0.010555 -0.004848 -0.001481 0.000000 0.000000 0.000000
# 2 -0.004848 0.030231 -0.008927 0.000000 0.000000 0.000000
# 3 -0.001481 -0.008927 0.011795 0.000000 0.000000 0.000000
# 4 0.000000 0.000000 0.000000 -0.025914 0.000000 0.000000
# 5 0.000000 0.000000 0.000000 0.000000 0.095986 0.000000
# 6 0.000000 0.000000 0.000000 0.000000 0.000000 0.042427
#
#
# Mechanical properties :
#
#
# Convention : Reuss Voigt Hill
#
# Bulk Modulus (GPa) = 45.30888 55.05653 50.18271
# Shear Modulus (GPa) = 24.63690 10.91056 17.77373
#
# Velocity S-wave (km/s) = 3.41957 2.27563 2.90448
# Velocity P-wave (km/s) = 6.09068 5.74772 5.92169
#
# Compressibility (1/GPa) = 0.02207073
#
# Stress axis : x y z
#
# Youngs Moduli (GPa) = 94.74334 33.07812 84.78125
#
# Poissons Ratio (x) = 0.16036 0.12554
# Poissons Ratio (y) = 0.45930 0.75682
# Poissons Ratio (z) = 0.14029 0.29528
#
# Static dielectric constant tensor:
#      x y z
#    x 1.776360 0.000000 0.000000 
#    y 0.000000 1.781800 0.000000 
#    z 0.000000 0.000000 1.730150 
# 
# From -- ./inp_files/20283.got.cif
#   From: 2010.05.17/outbox.cif.g08.bks.cpg/sg43_11_cif.got.tgz:20283.got - 2010.06.03 19:21:55.
