data_PCOD9372189
_publ_section_title
;
Structure prediction by ZEFSAII (Michael W. Deem and Ramdas Pophale) SiO2 
 PCOD9372189
Probable space group: F D D 2
;
_chemical_formula_sum "Si O2"
_cell_formula_units_Z 56
_cell_length_a 14.646589
_cell_length_b 17.769778
_cell_length_c 7.351089
_cell_angle_alpha 90.000000
_cell_angle_beta 90.000000
_cell_angle_gamma 90.000000
_cell_volume 1913.243198
_symmetry_space_group_name_H-M "F D D 2"
_symmetry_group_IT_number 43
_symmetry_cell_setting 'orthorhombic'
loop_
_space_group_symop_operation_xyz
x,y,z
-x,-y,z
1/4-x,1/4+y,1/4+z
1/4+x,1/4-y,1/4+z
x,1/2+y,1/2+z
-x,1/2-y,1/2+z
1/4-x,3/4+y,3/4+z
1/4+x,3/4-y,3/4+z
1/2+x,y,1/2+z
1/2-x,-y,1/2+z
3/4-x,1/4+y,3/4+z
3/4+x,1/4-y,3/4+z
1/2+x,1/2+y,z
1/2-x,1/2-y,z
3/4-x,3/4+y,1/4+z
3/4+x,3/4-y,1/4+z
loop_
_atom_site_type_symbol
_atom_site_label
_atom_site_fract_x
_atom_site_fract_y
_atom_site_fract_z
Si Si1 0.461425 0.727868 0.680240
Si Si2 0.330148 0.148085 0.937866
Si Si3 0.750000 0.750000 0.625764
Si Si4 0.957603 0.902326 0.080141
O O1 0.425875 0.679166 0.507405
O O2 0.562068 0.691530 0.695417
O O3 0.390757 0.696874 0.834841
O O4 0.451044 0.814685 0.631963
O O5 0.268657 0.167628 0.118871
O O6 0.302745 0.194998 0.764005
O O7 0.722671 0.687531 0.472393
#
# Coordination Sequence:
#
# PCOD9372189 Si02
#       4
#    16  16   8  16
#     4  10  24  51  73 110 159 200 251 331 386 464
#     4  10  25  47  71 111 156 193 259 323 381 472
#     4  12  24  42  74 106 142 210 244 312 398 444
#     4  10  26  45  76 107 157 195 263 321 388 469
#
# _framework density 29.269670999999999
#
# number of rings (size 3 to 8) (size 9 to 14) (size 15 to 20)
#    1.714    0.000    0.000    2.571    8.000    2.286 
#    0.000    0.000    0.000    0.000    0.000    0.000 
#    0.000    0.000    0.000    0.000    0.000    0.000 
#
# Total GULP energy -78035.193408 kJ/mol
# GULP energy per Si atom -5573.942386 kJ/mol
# Density = 2.920305 g / cm^3
# Si number density = 29.269671 Si / 1000 Ang^3
#
#
#
# Elastic Constant Matrix: (Units=GPa)
#
#
# Indices 1 2 3 4 5 6 
#
# 1 60.0244 83.1766 24.1900 0.0000 0.0000 0.0000
# 2 83.1766 310.9112 47.5862 0.0000 0.0000 0.0000
# 3 24.1900 47.5862 172.6092 0.0000 0.0000 0.0000
# 4 0.0000 0.0000 0.0000 45.8774 0.0000 0.0000
# 5 0.0000 0.0000 0.0000 0.0000 34.1894 0.0000
# 6 0.0000 0.0000 0.0000 0.0000 0.0000 46.3875
#
#
#
# Elastic Compliance Matrix: (Units=1/GPa)
#
#
# Indices 1 2 3 4 5 6 
#
# 1 0.027043 -0.006948 -0.001874 0.000000 0.000000 0.000000
# 2 -0.006948 0.005143 -0.000444 0.000000 0.000000 0.000000
# 3 -0.001874 -0.000444 0.006179 0.000000 0.000000 0.000000
# 4 0.000000 0.000000 0.000000 0.021797 0.000000 0.000000
# 5 0.000000 0.000000 0.000000 0.000000 0.029249 0.000000
# 6 0.000000 0.000000 0.000000 0.000000 0.000000 0.021558
#
#
# Mechanical properties :
#
#
# Convention : Reuss Voigt Hill
#
# Bulk Modulus (GPa) = 50.42436 94.82784 72.62610
# Shear Modulus (GPa) = 36.73459 51.19700 43.96580
#
# Velocity S-wave (km/s) = 3.54650 4.18682 3.87989
# Velocity P-wave (km/s) = 5.83396 7.47268 6.70358
#
# Compressibility (1/GPa) = 0.01983169
#
# Stress axis : x y z
#
# Youngs Moduli (GPa) = 36.97829 194.43749 161.84941
#
# Poissons Ratio (x) = 1.35091 0.30338
# Poissons Ratio (y) = 0.25692 0.07189
# Poissons Ratio (z) = 0.06931 0.08637
#
# Static dielectric constant tensor:
#      x y z
#    x 2.469330 0.000000 0.000000 
#    y 0.000000 2.279360 0.000000 
#    z 0.000000 0.000000 2.319150 
# 
# From -- ./inp_files/2554.got.cif
#   From: 2010.05.17/outbox.cif.g08.bks.cpg/sg43_2_cif.got.tgz:2554.got - 2010.06.03 19:21:55.
