data_PCOD9372467
_publ_section_title
;
Structure prediction by ZEFSAII (Michael W. Deem and Ramdas Pophale) SiO2 
 PCOD9372467
Probable space group: F D D 2
;
_chemical_formula_sum "Si O2"
_cell_formula_units_Z 104
_cell_length_a 25.457589
_cell_length_b 10.986579
_cell_length_c 14.341060
_cell_angle_alpha 90.000000
_cell_angle_beta 90.000000
_cell_angle_gamma 90.000000
_cell_volume 4011.077067
_symmetry_space_group_name_H-M "F D D 2"
_symmetry_group_IT_number 43
_symmetry_cell_setting 'orthorhombic'
loop_
_space_group_symop_operation_xyz
x,y,z
-x,-y,z
1/4-x,1/4+y,1/4+z
1/4+x,1/4-y,1/4+z
x,1/2+y,1/2+z
-x,1/2-y,1/2+z
1/4-x,3/4+y,3/4+z
1/4+x,3/4-y,3/4+z
1/2+x,y,1/2+z
1/2-x,-y,1/2+z
3/4-x,1/4+y,3/4+z
3/4+x,1/4-y,3/4+z
1/2+x,1/2+y,z
1/2-x,1/2-y,z
3/4-x,3/4+y,1/4+z
3/4+x,3/4-y,1/4+z
loop_
_atom_site_type_symbol
_atom_site_label
_atom_site_fract_x
_atom_site_fract_y
_atom_site_fract_z
Si Si1 0.250000 0.750000 0.871280
Si Si2 0.708437 0.061412 0.721336
Si Si3 0.130610 0.591916 0.451327
Si Si4 0.694986 0.285111 0.212306
Si Si5 0.995529 0.137059 0.772950
Si Si6 0.661769 0.556710 0.582994
Si Si7 0.398283 0.397305 0.149518
O O1 0.266025 0.869902 0.809159
O O2 0.296743 0.697402 0.933699
O O3 0.731944 0.127452 0.631788
O O4 0.645547 0.066185 0.722410
O O5 0.713801 0.921517 0.687833
O O6 0.192014 0.573208 0.473515
O O7 0.104663 0.714006 0.416252
O O8 0.103148 0.548183 0.545885
O O9 0.127221 0.488175 0.373403
O O10 0.750000 0.250000 0.263708
O O11 0.680458 0.182762 0.133483
O O12 0.642383 0.304786 0.273404
O O13 0.043651 0.233273 0.772466
O O14 0.000000 0.000000 0.735500
#
# Coordination Sequence:
#
# PCOD9372467 Si02
#       7
#     8  16  16  16  16  16  16
#     4  12  24  44  76 104 148 196 256 320 378 446
#     4  11  24  46  70 103 146 191 245 309 382 442
#     4  11  24  44  72 108 144 193 255 307 371 454
#     4  12  29  47  74 106 154 202 250 309 393 456
#     4  11  22  43  75 103 143 195 246 310 375 445
#     4  12  26  49  72 108 156 201 251 320 378 460
#     4  11  24  43  73 107 143 192 250 315 369 454
#
# _framework density 25.928197999999998
#
# number of rings (size 3 to 8) (size 9 to 14) (size 15 to 20)
#    0.000    0.615    3.846    4.615    4.308    3.077 
#    0.000    0.000    0.000    0.000    0.000    0.000 
#    0.000    0.000    0.000    0.000    0.000    0.000 
#
# Total GULP energy -144759.705650 kJ/mol
# GULP energy per Si atom -5567.680987 kJ/mol
# Density = 2.586918 g / cm^3
# Si number density = 25.928198 Si / 1000 Ang^3
#
#
#
# Elastic Constant Matrix: (Units=GPa)
#
#
# Indices 1 2 3 4 5 6 
#
# 1 145.8139 36.2406 24.0210 0.0000 0.0000 0.0000
# 2 36.2406 176.7846 33.3659 0.0000 0.0000 0.0000
# 3 24.0210 33.3659 47.5551 0.0000 0.0000 0.0000
# 4 0.0000 0.0000 0.0000 39.1639 0.0000 0.0000
# 5 0.0000 0.0000 0.0000 0.0000 40.0491 0.0000
# 6 0.0000 0.0000 0.0000 0.0000 0.0000 25.2796
#
#
#
# Elastic Compliance Matrix: (Units=1/GPa)
#
#
# Indices 1 2 3 4 5 6 
#
# 1 0.007620 -0.000963 -0.003173 0.000000 0.000000 0.000000
# 2 -0.000963 0.006642 -0.004173 0.000000 0.000000 0.000000
# 3 -0.003173 -0.004173 0.025559 0.000000 0.000000 0.000000
# 4 0.000000 0.000000 0.000000 0.025534 0.000000 0.000000
# 5 0.000000 0.000000 0.000000 0.000000 0.024969 0.000000
# 6 0.000000 0.000000 0.000000 0.000000 0.000000 0.039558
#
#
# Mechanical properties :
#
#
# Convention : Reuss Voigt Hill
#
# Bulk Modulus (GPa) = 43.10098 61.93429 52.51764
# Shear Modulus (GPa) = 32.41790 39.33360 35.87575
#
# Velocity S-wave (km/s) = 3.53979 3.89912 3.72379
# Velocity P-wave (km/s) = 5.77634 6.64903 6.22799
#
# Compressibility (1/GPa) = 0.02320133
#
# Stress axis : x y z
#
# Youngs Moduli (GPa) = 131.22987 150.56263 39.12457
#
# Poissons Ratio (x) = 0.14502 0.12415
# Poissons Ratio (y) = 0.12640 0.16329
# Poissons Ratio (z) = 0.41643 0.62837
#
# Static dielectric constant tensor:
#      x y z
#    x 2.183360 0.000000 0.000000 
#    y 0.000000 2.700290 0.000000 
#    z 0.000000 0.000000 1.964350 
# 
# From -- ./inp_files/15047.got.cif
#   From: 2010.05.17/outbox.cif.g08.bks.cpg/sg43_8_cif.got.tgz:15047.got - 2010.06.03 19:21:55.
