data_PCOD9372530
_publ_section_title
;
Structure prediction by ZEFSAII (Michael W. Deem and Ramdas Pophale) SiO2 
 PCOD9372530
Probable space group: F D D 2
;
_chemical_formula_sum "Si O2"
_cell_formula_units_Z 96
_cell_length_a 19.286635
_cell_length_b 13.969068
_cell_length_c 14.237825
_cell_angle_alpha 90.000000
_cell_angle_beta 90.000000
_cell_angle_gamma 90.000000
_cell_volume 3835.902357
_symmetry_space_group_name_H-M "F D D 2"
_symmetry_group_IT_number 43
_symmetry_cell_setting 'orthorhombic'
loop_
_space_group_symop_operation_xyz
x,y,z
-x,-y,z
1/4-x,1/4+y,1/4+z
1/4+x,1/4-y,1/4+z
x,1/2+y,1/2+z
-x,1/2-y,1/2+z
1/4-x,3/4+y,3/4+z
1/4+x,3/4-y,3/4+z
1/2+x,y,1/2+z
1/2-x,-y,1/2+z
3/4-x,1/4+y,3/4+z
3/4+x,1/4-y,3/4+z
1/2+x,1/2+y,z
1/2-x,1/2-y,z
3/4-x,3/4+y,1/4+z
3/4+x,3/4-y,1/4+z
loop_
_atom_site_type_symbol
_atom_site_label
_atom_site_fract_x
_atom_site_fract_y
_atom_site_fract_z
Si Si1 0.500000 0.000000 0.380551
Si Si2 0.750000 0.250000 0.953240
Si Si3 0.391858 0.297329 0.563211
Si Si4 0.294091 0.957463 0.311305
Si Si5 0.774541 0.446233 0.534779
Si Si6 0.417400 0.911505 0.547742
Si Si7 0.376688 0.507386 0.526601
O O1 0.483117 0.087430 0.315067
O O2 0.557594 0.038148 0.453031
O O3 0.776725 0.169575 0.880866
O O4 0.681470 0.219471 0.010527
O O5 0.466867 0.267773 0.521127
O O6 0.406429 0.411591 0.572107
O O7 0.380474 0.247912 0.663932
O O8 0.283403 0.955285 0.423509
O O9 0.330167 0.855625 0.288835
O O10 0.340810 0.048248 0.282377
O O11 0.849291 0.470949 0.577282
O O12 0.702345 0.491529 0.564040
#
# Coordination Sequence:
#
# PCOD9372530 Si02
#       7
#     8   8  16  16  16  16  16
#     4  11  26  40  71 106 138 184 243 296 366 421
#     4  11  26  48  71 104 148 194 251 296 366 445
#     4  11  27  47  71 106 143 199 240 300 363 440
#     4  11  26  46  71 106 148 185 243 296 371 438
#     4  11  23  43  69 103 139 187 234 300 358 426
#     4  11  25  47  68 109 144 190 243 301 368 435
#     4  11  26  46  72 107 144 190 244 297 369 435
#
# _framework density 25.026703999999999
#
# number of rings (size 3 to 8) (size 9 to 14) (size 15 to 20)
#    0.000    1.000    0.000    5.500   14.000    0.000 
#    6.000    0.000    0.000    0.000    0.000    0.000 
#    0.000    0.000    0.000    0.000    0.000    0.000 
#
# Total GULP energy -134122.022752 kJ/mol
# GULP energy per Si atom -5588.417615 kJ/mol
# Density = 2.496974 g / cm^3
# Si number density = 25.026704 Si / 1000 Ang^3
#
#
#
# Elastic Constant Matrix: (Units=GPa)
#
#
# Indices 1 2 3 4 5 6 
#
# 1 158.7143 -3.7276 21.0222 0.0000 0.0000 0.0000
# 2 -3.7276 73.4977 11.7751 0.0000 0.0000 0.0000
# 3 21.0222 11.7751 71.1703 0.0000 0.0000 0.0000
# 4 0.0000 0.0000 0.0000 27.7550 0.0000 0.0000
# 5 0.0000 0.0000 0.0000 0.0000 72.1848 0.0000
# 6 0.0000 0.0000 0.0000 0.0000 0.0000 21.5037
#
#
#
# Elastic Compliance Matrix: (Units=1/GPa)
#
#
# Indices 1 2 3 4 5 6 
#
# 1 0.006589 0.000664 -0.002056 0.000000 0.000000 0.000000
# 2 0.000664 0.014043 -0.002519 0.000000 0.000000 0.000000
# 3 -0.002056 -0.002519 0.015075 0.000000 0.000000 0.000000
# 4 0.000000 0.000000 0.000000 0.036029 0.000000 0.000000
# 5 0.000000 0.000000 0.000000 0.000000 0.013853 0.000000
# 6 0.000000 0.000000 0.000000 0.000000 0.000000 0.046504
#
#
# Mechanical properties :
#
#
# Convention : Reuss Voigt Hill
#
# Bulk Modulus (GPa) = 35.86412 40.16906 38.01659
# Shear Modulus (GPa) = 33.50963 42.57623 38.04293
#
# Velocity S-wave (km/s) = 3.66314 4.12907 3.90307
# Velocity P-wave (km/s) = 5.67917 6.23038 5.96115
#
# Compressibility (1/GPa) = 0.02788302
#
# Stress axis : x y z
#
# Youngs Moduli (GPa) = 151.77909 71.20909 66.33542
#
# Poissons Ratio (x) = -0.04725 0.13638
# Poissons Ratio (y) = -0.10071 0.16713
# Poissons Ratio (z) = 0.31204 0.17941
#
# Static dielectric constant tensor:
#      x y z
#    x 2.068660 0.000000 0.000000 
#    y 0.000000 1.921860 0.000000 
#    z 0.000000 0.000000 1.964990 
# 
# From -- ./inp_files/10939.got.cif
#   From: 2010.05.17/outbox.cif.g08.bks.cpg/sg43_6_cif.got.tgz:10939.got - 2010.06.03 19:21:55.
