data_PCOD9372469
_publ_section_title
;
Structure prediction by ZEFSAII (Michael W. Deem and Ramdas Pophale) SiO2 
 PCOD9372469
Probable space group: F D D 2
;
_chemical_formula_sum "Si O2"
_cell_formula_units_Z 120
_cell_length_a 11.750894
_cell_length_b 29.030603
_cell_length_c 16.018875
_cell_angle_alpha 90.000000
_cell_angle_beta 90.000000
_cell_angle_gamma 90.000000
_cell_volume 5464.607551
_symmetry_space_group_name_H-M "F D D 2"
_symmetry_group_IT_number 43
_symmetry_cell_setting 'orthorhombic'
loop_
_space_group_symop_operation_xyz
x,y,z
-x,-y,z
1/4-x,1/4+y,1/4+z
1/4+x,1/4-y,1/4+z
x,1/2+y,1/2+z
-x,1/2-y,1/2+z
1/4-x,3/4+y,3/4+z
1/4+x,3/4-y,3/4+z
1/2+x,y,1/2+z
1/2-x,-y,1/2+z
3/4-x,1/4+y,3/4+z
3/4+x,1/4-y,3/4+z
1/2+x,1/2+y,z
1/2-x,1/2-y,z
3/4-x,3/4+y,1/4+z
3/4+x,3/4-y,1/4+z
loop_
_atom_site_type_symbol
_atom_site_label
_atom_site_fract_x
_atom_site_fract_y
_atom_site_fract_z
Si Si1 0.500000 0.000000 0.937620
Si Si2 0.893520 0.029395 0.929901
Si Si3 0.532655 0.207188 0.115022
Si Si4 0.676058 0.323716 0.309906
Si Si5 0.520926 0.662058 0.446036
Si Si6 0.345702 0.372800 0.084796
Si Si7 0.735588 0.700667 0.365209
Si Si8 0.102975 0.884463 0.649879
O O1 0.585015 0.967854 0.883610
O O2 0.421634 0.969624 0.999615
O O3 0.874573 0.079816 0.892808
O O4 0.788048 0.997157 0.909578
O O5 0.928312 0.037695 0.025770
O O6 0.000000 0.000000 0.892976
O O7 0.483922 0.159053 0.151708
O O8 0.504105 0.201595 0.016651
O O9 0.568353 0.334854 0.369386
O O10 0.718997 0.365102 0.249088
O O11 0.782573 0.321005 0.373148
O O12 0.646270 0.668919 0.410859
O O13 0.398720 0.422005 0.108052
O O14 0.208820 0.375283 0.089508
O O15 0.394797 0.361620 0.993892
O O16 0.750000 0.750000 0.408283
#
# Coordination Sequence:
#
# PCOD9372469 Si02
#       8
#     8  16  16  16  16  16  16  16
#     4  12  26  44  74 108 144 202 240 306 376 438
#     4  11  23  45  71 103 144 185 243 303 365 431
#     4  11  24  46  72  98 144 191 242 308 364 443
#     4  11  25  44  72 102 142 188 236 296 362 434
#     4  11  26  47  69 101 143 189 240 298 358 441
#     4  12  23  41  72 103 139 192 231 302 368 434
#     4  11  26  45  69 104 145 186 238 301 359 442
#     4  11  22  44  68 100 139 182 245 291 364 437
#
# _framework density 21.959492000000001
#
# number of rings (size 3 to 8) (size 9 to 14) (size 15 to 20)
#    0.000    0.800    2.667    5.600    4.667    3.200 
#    0.000    0.000    0.000    0.000    0.000    0.000 
#    0.000    0.000    0.000    0.000    0.000    0.000 
#
# Total GULP energy -167425.872478 kJ/mol
# GULP energy per Si atom -5580.862416 kJ/mol
# Density = 2.190951 g / cm^3
# Si number density = 21.959492 Si / 1000 Ang^3
#
#
#
# Elastic Constant Matrix: (Units=GPa)
#
#
# Indices 1 2 3 4 5 6 
#
# 1 95.6568 25.7809 24.1769 0.0000 0.0000 0.0000
# 2 25.7809 50.2582 15.4929 0.0000 0.0000 0.0000
# 3 24.1769 15.4929 55.8115 0.0000 0.0000 0.0000
# 4 0.0000 0.0000 0.0000 49.9046 0.0000 0.0000
# 5 0.0000 0.0000 0.0000 0.0000 29.6471 0.0000
# 6 0.0000 0.0000 0.0000 0.0000 0.0000 34.1202
#
#
#
# Elastic Compliance Matrix: (Units=1/GPa)
#
#
# Indices 1 2 3 4 5 6 
#
# 1 0.012941 -0.005370 -0.004115 0.000000 0.000000 0.000000
# 2 -0.005370 0.023987 -0.004333 0.000000 0.000000 0.000000
# 3 -0.004115 -0.004333 0.020903 0.000000 0.000000 0.000000
# 4 0.000000 0.000000 0.000000 0.020038 0.000000 0.000000
# 5 0.000000 0.000000 0.000000 0.000000 0.033730 0.000000
# 6 0.000000 0.000000 0.000000 0.000000 0.000000 0.029308
#
#
# Mechanical properties :
#
#
# Convention : Reuss Voigt Hill
#
# Bulk Modulus (GPa) = 33.11701 36.95865 35.03783
# Shear Modulus (GPa) = 27.99403 31.81944 29.90673
#
# Velocity S-wave (km/s) = 3.57431 3.81071 3.69440
# Velocity P-wave (km/s) = 5.66992 6.01905 5.84709
#
# Compressibility (1/GPa) = 0.03019596
#
# Stress axis : x y z
#
# Youngs Moduli (GPa) = 77.27091 41.68843 47.84021
#
# Poissons Ratio (x) = 0.22386 0.19688
# Poissons Ratio (y) = 0.41494 0.20727
# Poissons Ratio (z) = 0.31800 0.18062
#
# Static dielectric constant tensor:
#      x y z
#    x 1.806470 0.000000 0.000000 
#    y 0.000000 1.720600 0.000000 
#    z 0.000000 0.000000 1.840510 
# 
# From -- ./inp_files/13542.got.cif
#   From: 2010.05.17/outbox.cif.g08.bks.cpg/sg43_7_cif.got.tgz:13542.got - 2010.06.03 19:21:55.
