data_PCOD9372435
_publ_section_title
;
Structure prediction by ZEFSAII (Michael W. Deem and Ramdas Pophale) SiO2 
 PCOD9372435
Probable space group: F D D 2
;
_chemical_formula_sum "Si O2"
_cell_formula_units_Z 120
_cell_length_a 29.899873
_cell_length_b 7.652532
_cell_length_c 21.348435
_cell_angle_alpha 90.000000
_cell_angle_beta 90.000000
_cell_angle_gamma 90.000000
_cell_volume 4884.729753
_symmetry_space_group_name_H-M "F D D 2"
_symmetry_group_IT_number 43
_symmetry_cell_setting 'orthorhombic'
loop_
_space_group_symop_operation_xyz
x,y,z
-x,-y,z
1/4-x,1/4+y,1/4+z
1/4+x,1/4-y,1/4+z
x,1/2+y,1/2+z
-x,1/2-y,1/2+z
1/4-x,3/4+y,3/4+z
1/4+x,3/4-y,3/4+z
1/2+x,y,1/2+z
1/2-x,-y,1/2+z
3/4-x,1/4+y,3/4+z
3/4+x,1/4-y,3/4+z
1/2+x,1/2+y,z
1/2-x,1/2-y,z
3/4-x,3/4+y,1/4+z
3/4+x,3/4-y,1/4+z
loop_
_atom_site_type_symbol
_atom_site_label
_atom_site_fract_x
_atom_site_fract_y
_atom_site_fract_z
Si Si1 0.597240 0.295527 0.043240
Si Si2 0.939830 0.201821 0.175962
Si Si3 0.933269 0.333268 0.729095
Si Si4 0.747573 0.536327 0.583857
Si Si5 0.566567 0.772103 0.083027
Si Si6 0.350077 0.561154 0.538913
Si Si7 0.495403 0.787558 0.978046
Si Si8 0.500000 0.500000 0.635793
O O1 0.578690 0.362427 0.109658
O O2 0.625349 0.119507 0.056471
O O3 0.553668 0.259647 0.002521
O O4 0.633228 0.412218 0.006880
O O5 0.903166 0.312837 0.213430
O O6 0.949041 0.034841 0.218968
O O7 0.982522 0.326586 0.169427
O O8 0.964312 0.242815 0.781842
O O9 0.932001 0.277930 0.656471
O O10 0.750000 0.750000 0.586631
O O11 0.700266 0.452397 0.563326
O O12 0.752645 0.477836 0.655948
O O13 0.532759 0.706783 0.027240
O O14 0.617024 0.788550 0.060876
O O15 0.542414 0.959124 0.093338
O O16 0.500000 0.000000 0.975756
#
# Coordination Sequence:
#
# PCOD9372435 Si02
#       8
#    16  16  16  16  16  16  16   8
#     4  11  22  43  68 103 137 188 237 303 360 446
#     4  11  23  43  72 107 137 186 245 308 356 449
#     4  11  28  44  73 105 150 186 248 297 385 434
#     4  11  23  40  66 105 139 191 239 304 361 442
#     4  12  23  45  70 108 136 193 242 303 365 445
#     4  11  23  40  69 102 140 185 249 294 364 436
#     4  11  22  40  73 101 135 183 255 294 353 439
#     4  12  22  42  74  98 138 186 252 298 364 436
#
# _framework density 24.566352999999999
#
# number of rings (size 3 to 8) (size 9 to 14) (size 15 to 20)
#    0.000    0.800    7.333    0.800    5.600    0.000 
#    4.800    1.333    0.000    0.000    0.000    0.000 
#    0.000    0.000    0.000    0.000    0.000    0.000 
#
# Total GULP energy -167379.509103 kJ/mol
# GULP energy per Si atom -5579.316970 kJ/mol
# Density = 2.451044 g / cm^3
# Si number density = 24.566353 Si / 1000 Ang^3
#
#
#
# Elastic Constant Matrix: (Units=GPa)
#
#
# Indices 1 2 3 4 5 6 
#
# 1 218.2266 40.7552 112.5944 0.0000 0.0000 0.0000
# 2 40.7552 46.3995 28.0332 0.0000 0.0000 0.0001
# 3 112.5944 28.0332 246.9559 0.0000 0.0000 0.0000
# 4 0.0000 0.0000 0.0000 40.3797 0.0000 0.0000
# 5 0.0000 0.0000 0.0000 0.0000 40.0547 0.0000
# 6 0.0000 0.0001 0.0000 0.0000 0.0000 23.7723
#
#
#
# Elastic Compliance Matrix: (Units=1/GPa)
#
#
# Indices 1 2 3 4 5 6 
#
# 1 0.006721 -0.004351 -0.002571 0.000000 0.000000 0.000000
# 2 -0.004351 0.025955 -0.000963 0.000000 0.000000 0.000000
# 3 -0.002571 -0.000963 0.005331 0.000000 0.000000 0.000000
# 4 0.000000 0.000000 0.000000 0.024765 0.000000 0.000000
# 5 0.000000 0.000000 0.000000 0.000000 0.024966 0.000000
# 6 0.000000 0.000000 0.000000 0.000000 0.000000 0.042066
#
#
# Mechanical properties :
#
#
# Convention : Reuss Voigt Hill
#
# Bulk Modulus (GPa) = 44.96588 97.14972 71.05780
# Shear Modulus (GPa) = 32.68320 42.85461 37.76890
#
# Velocity S-wave (km/s) = 3.65143 4.18118 3.92525
# Velocity P-wave (km/s) = 6.01006 7.93356 7.03784
#
# Compressibility (1/GPa) = 0.02223908
#
# Stress axis : x y z
#
# Youngs Moduli (GPa) = 148.78417 38.52833 187.59732
#
# Poissons Ratio (x) = 0.16762 0.48222
# Poissons Ratio (y) = 0.64729 0.18061
# Poissons Ratio (z) = 0.38245 0.03709
#
# Static dielectric constant tensor:
#      x y z
#    x 1.970590 0.000000 0.000000 
#    y 0.000000 2.140650 0.000000 
#    z 0.000000 0.000000 2.012220 
# 
# From -- ./inp_files/18921.got.cif
#   From: 2010.05.17/outbox.cif.g08.bks.cpg/sg43_10_cif.got.tgz:18921.got - 2010.06.03 19:21:55.
