data_PCOD9372278
_publ_section_title
;
Structure prediction by ZEFSAII (Michael W. Deem and Ramdas Pophale) SiO2 
 PCOD9372278
Probable space group: F D D 2
;
_chemical_formula_sum "Si O2"
_cell_formula_units_Z 88
_cell_length_a 18.049049
_cell_length_b 13.131896
_cell_length_c 14.831241
_cell_angle_alpha 90.000000
_cell_angle_beta 90.000000
_cell_angle_gamma 90.000000
_cell_volume 3515.274555
_symmetry_space_group_name_H-M "F D D 2"
_symmetry_group_IT_number 43
_symmetry_cell_setting 'orthorhombic'
loop_
_space_group_symop_operation_xyz
x,y,z
-x,-y,z
1/4-x,1/4+y,1/4+z
1/4+x,1/4-y,1/4+z
x,1/2+y,1/2+z
-x,1/2-y,1/2+z
1/4-x,3/4+y,3/4+z
1/4+x,3/4-y,3/4+z
1/2+x,y,1/2+z
1/2-x,-y,1/2+z
3/4-x,1/4+y,3/4+z
3/4+x,1/4-y,3/4+z
1/2+x,1/2+y,z
1/2-x,1/2-y,z
3/4-x,3/4+y,1/4+z
3/4+x,3/4-y,1/4+z
loop_
_atom_site_type_symbol
_atom_site_label
_atom_site_fract_x
_atom_site_fract_y
_atom_site_fract_z
Si Si1 0.605109 0.404498 0.845760
Si Si2 0.750000 0.250000 0.445419
Si Si3 0.487596 0.784411 0.539729
Si Si4 0.838587 0.053353 0.425940
Si Si5 0.000000 0.000000 0.379985
Si Si6 0.000000 0.500000 0.494877
Si Si7 0.759970 0.528764 0.589139
O O1 0.558242 0.440808 0.758435
O O2 0.668460 0.494675 0.851498
O O3 0.556575 0.438078 0.933155
O O4 0.586510 0.282696 0.843556
O O5 0.802731 0.163733 0.400901
O O6 0.562633 0.763157 0.590069
O O7 0.480548 0.740363 0.440944
O O8 0.464395 0.904367 0.546350
O O9 0.926089 0.032823 0.434283
O O10 0.796763 0.015890 0.515852
O O11 0.018233 0.101248 0.323398
#
# Coordination Sequence:
#
# PCOD9372278 Si02
#       7
#    16   8  16  16   8   8  16
#     4   9  20  42  71 100 139 186 252 312 364 437
#     4   9  20  47  70 108 140 192 254 316 362 452
#     4  11  24  42  77 107 140 202 245 312 384 455
#     4  11  27  48  77 115 151 207 254 320 388 462
#     4  12  28  50  73 111 162 204 252 316 401 465
#     4   9  22  39  65 107 140 176 250 304 367 457
#     4  10  26  48  70 109 150 192 252 309 380 457
#
# _framework density 25.033605999999999
#
# number of rings (size 3 to 8) (size 9 to 14) (size 15 to 20)
#    0.000    1.818    0.000    2.182   10.182    2.909 
#    6.545    0.909    0.000    0.000    0.000    0.000 
#    0.000    0.000    0.000    0.000    0.000    0.000 
#
# Total GULP energy -122509.448615 kJ/mol
# GULP energy per Si atom -5568.611301 kJ/mol
# Density = 2.497663 g / cm^3
# Si number density = 25.033606 Si / 1000 Ang^3
#
#
#
# Elastic Constant Matrix: (Units=GPa)
#
#
# Indices 1 2 3 4 5 6 
#
# 1 117.7450 22.8341 19.2998 0.0000 0.0000 0.0000
# 2 22.8341 160.7880 11.2931 0.0000 0.0000 0.0000
# 3 19.2998 11.2931 69.3708 0.0000 0.0000 0.0000
# 4 0.0000 0.0000 0.0000 36.6253 0.0000 0.0000
# 5 0.0000 0.0000 0.0000 0.0000 66.8749 0.0000
# 6 0.0000 0.0000 0.0000 0.0000 0.0000 -20.3597
#
#
#
# Elastic Compliance Matrix: (Units=1/GPa)
#
#
# Indices 1 2 3 4 5 6 
#
# 1 0.009096 -0.001127 -0.002347 0.000000 0.000000 0.000000
# 2 -0.001127 0.006431 -0.000733 0.000000 0.000000 0.000000
# 3 -0.002347 -0.000733 0.015188 0.000000 0.000000 0.000000
# 4 0.000000 0.000000 0.000000 0.027304 0.000000 0.000000
# 5 0.000000 0.000000 0.000000 0.000000 0.014953 0.000000
# 6 0.000000 0.000000 0.000000 0.000000 0.000000 -0.049117
#
#
# Mechanical properties :
#
#
# Convention : Reuss Voigt Hill
#
# Bulk Modulus (GPa) = 44.84352 50.52864 47.68608
# Shear Modulus (GPa) = 125.93365 36.25987 81.09676
#
# Velocity S-wave (km/s) = 7.10036 3.80998 5.69785
# Velocity P-wave (km/s) = 9.22888 6.29148 7.89794
#
# Compressibility (1/GPa) = 0.02229977
#
# Stress axis : x y z
#
# Youngs Moduli (GPa) = 109.93587 155.49881 65.84273
#
# Poissons Ratio (x) = 0.17524 0.15455
# Poissons Ratio (y) = 0.12389 0.04829
# Poissons Ratio (z) = 0.25804 0.11404
#
# Static dielectric constant tensor:
#      x y z
#    x 1.323320 0.000000 0.000000 
#    y 0.000000 2.200810 0.000000 
#    z 0.000000 0.000000 1.964930 
# 
# From -- ./inp_files/10898.got.cif
#   From: 2010.05.17/outbox.cif.g08.bks.cpg/sg43_6_cif.got.tgz:10898.got - 2010.06.03 19:21:55.
