data_PCOD9372021
_publ_section_title
;
Structure prediction by ZEFSAII (Michael W. Deem and Ramdas Pophale) SiO2 
 PCOD9372021
Probable space group: F D D 2
;
_chemical_formula_sum "Si O2"
_cell_formula_units_Z 112
_cell_length_a 15.827056
_cell_length_b 11.668817
_cell_length_c 30.788865
_cell_angle_alpha 90.000000
_cell_angle_beta 90.000000
_cell_angle_gamma 90.000000
_cell_volume 5686.180574
_symmetry_space_group_name_H-M "F D D 2"
_symmetry_group_IT_number 43
_symmetry_cell_setting 'orthorhombic'
loop_
_space_group_symop_operation_xyz
x,y,z
-x,-y,z
1/4-x,1/4+y,1/4+z
1/4+x,1/4-y,1/4+z
x,1/2+y,1/2+z
-x,1/2-y,1/2+z
1/4-x,3/4+y,3/4+z
1/4+x,3/4-y,3/4+z
1/2+x,y,1/2+z
1/2-x,-y,1/2+z
3/4-x,1/4+y,3/4+z
3/4+x,1/4-y,3/4+z
1/2+x,1/2+y,z
1/2-x,1/2-y,z
3/4-x,3/4+y,1/4+z
3/4+x,3/4-y,1/4+z
loop_
_atom_site_type_symbol
_atom_site_label
_atom_site_fract_x
_atom_site_fract_y
_atom_site_fract_z
Si Si1 0.250000 0.750000 0.574860
Si Si2 0.157516 0.804557 0.202641
Si Si3 0.649377 0.360667 0.863796
Si Si4 0.816184 0.503759 0.863147
Si Si5 0.750000 0.750000 0.843163
Si Si6 0.338879 0.099387 0.554257
Si Si7 0.670329 0.471831 0.538639
Si Si8 0.154753 0.296255 0.465093
O O1 0.178348 0.693839 0.604203
O O2 0.288436 0.650839 0.545660
O O3 0.250000 0.750000 0.200706
O O4 0.110187 0.788090 0.157210
O O5 0.101409 0.744709 0.239123
O O6 0.158274 0.937902 0.216367
O O7 0.734743 0.426820 0.852621
O O8 0.634324 0.249376 0.833273
O O9 0.652763 0.335654 0.915151
O O10 0.782126 0.634054 0.866898
O O11 0.883683 0.469918 0.825839
O O12 0.668048 0.722635 0.814130
O O13 0.362667 0.112391 0.503257
O O14 0.240402 0.062617 0.555401
O O15 0.250000 0.250000 0.473453
#
# Coordination Sequence:
#
# PCOD9372021 Si02
#       8
#     8  16  16  16   8  16  16  16
#     4  10  24  41  74  98 142 188 224 287 360 436
#     4  12  26  42  69 105 142 182 234 300 350 418
#     4  11  22  48  70 104 138 186 232 301 353 420
#     4  12  25  44  69 101 140 183 240 288 356 420
#     4  12  26  39  68  96 146 184 220 293 356 418
#     4  11  24  40  77  99 132 185 242 284 355 424
#     4  11  23  45  66 101 137 183 229 285 355 416
#     4  12  22  43  69 101 137 181 235 300 346 414
#
# _framework density 19.696877000000001
#
# number of rings (size 3 to 8) (size 9 to 14) (size 15 to 20)
#    0.000    0.571    6.429    1.286    2.000    0.571 
#    2.571    0.000    0.000    0.000    0.000    0.000 
#    0.000    0.000    0.000    0.000    0.000    0.000 
#
# Total GULP energy -156328.998532 kJ/mol
# GULP energy per Si atom -5583.178519 kJ/mol
# Density = 1.965205 g / cm^3
# Si number density = 19.696877 Si / 1000 Ang^3
#
#
#
# Elastic Constant Matrix: (Units=GPa)
#
#
# Indices 1 2 3 4 5 6 
#
# 1 115.5252 53.0968 14.3049 0.0000 0.0000 0.0000
# 2 53.0968 113.5994 34.9963 0.0000 0.0000 0.0000
# 3 14.3049 34.9963 96.3709 0.0000 0.0000 0.0000
# 4 0.0000 0.0000 0.0000 -50.4033 0.0000 0.0000
# 5 0.0000 0.0000 0.0000 0.0000 23.2309 0.0000
# 6 0.0000 0.0000 0.0000 0.0000 0.0000 37.9427
#
#
#
# Elastic Compliance Matrix: (Units=1/GPa)
#
#
# Indices 1 2 3 4 5 6 
#
# 1 0.011030 -0.005237 0.000265 0.000000 0.000000 0.000000
# 2 -0.005237 0.012398 -0.003725 0.000000 0.000000 0.000000
# 3 0.000265 -0.003725 0.011690 0.000000 0.000000 0.000000
# 4 0.000000 0.000000 0.000000 -0.019840 0.000000 0.000000
# 5 0.000000 0.000000 0.000000 0.000000 0.043046 0.000000
# 6 0.000000 0.000000 0.000000 0.000000 0.000000 0.026356
#
#
# Mechanical properties :
#
#
# Convention : Reuss Voigt Hill
#
# Bulk Modulus (GPa) = 56.42219 58.92128 57.67174
# Shear Modulus (GPa) = 46.30341 17.02722 31.66532
#
# Velocity S-wave (km/s) = 4.85376 2.94336 4.01388
# Velocity P-wave (km/s) = 7.75367 6.44439 7.12915
#
# Compressibility (1/GPa) = 0.01772352
#
# Stress axis : x y z
#
# Youngs Moduli (GPa) = 90.65831 80.65639 85.54321
#
# Poissons Ratio (x) = 0.42241 -0.02263
# Poissons Ratio (y) = 0.47479 0.31864
# Poissons Ratio (z) = -0.02398 0.30044
#
# Static dielectric constant tensor:
#      x y z
#    x 1.685250 0.000000 0.000000 
#    y 0.000000 1.771580 0.000000 
#    z 0.000000 0.000000 1.682470 
# 
# From -- ./inp_files/28660.got.cif
#   From: 2010.05.17/outbox.cif.g08.bks.cpg/sg43_15_cif.got.tgz:28660.got - 2010.06.03 19:21:55.
