data_PCOD9372463
_publ_section_title
;
Structure prediction by ZEFSAII (Michael W. Deem and Ramdas Pophale) SiO2 
 PCOD9372463
Probable space group: F D D 2
;
_chemical_formula_sum "Si O2"
_cell_formula_units_Z 96
_cell_length_a 9.994545
_cell_length_b 22.709353
_cell_length_c 15.927509
_cell_angle_alpha 90.000000
_cell_angle_beta 90.000000
_cell_angle_gamma 90.000000
_cell_volume 3615.061151
_symmetry_space_group_name_H-M "F D D 2"
_symmetry_group_IT_number 43
_symmetry_cell_setting 'orthorhombic'
loop_
_space_group_symop_operation_xyz
x,y,z
-x,-y,z
1/4-x,1/4+y,1/4+z
1/4+x,1/4-y,1/4+z
x,1/2+y,1/2+z
-x,1/2-y,1/2+z
1/4-x,3/4+y,3/4+z
1/4+x,3/4-y,3/4+z
1/2+x,y,1/2+z
1/2-x,-y,1/2+z
3/4-x,1/4+y,3/4+z
3/4+x,1/4-y,3/4+z
1/2+x,1/2+y,z
1/2-x,1/2-y,z
3/4-x,3/4+y,1/4+z
3/4+x,3/4-y,1/4+z
loop_
_atom_site_type_symbol
_atom_site_label
_atom_site_fract_x
_atom_site_fract_y
_atom_site_fract_z
Si Si1 0.774983 0.871744 0.145500
Si Si2 0.774297 0.498000 0.575902
Si Si3 0.750000 0.750000 0.186046
Si Si4 0.423873 0.106740 0.889446
Si Si5 0.779751 0.916021 0.324648
Si Si6 0.494940 0.796428 0.002027
Si Si7 0.750000 0.750000 0.755049
O O1 0.748887 0.928535 0.090568
O O2 0.720156 0.806640 0.128240
O O3 0.730515 0.886283 0.238940
O O4 0.933691 0.860492 0.144633
O O5 0.876589 0.508403 0.500436
O O6 0.827130 0.522022 0.665827
O O7 0.627784 0.523878 0.555594
O O8 0.571438 0.104045 0.846449
O O9 0.398482 0.161579 0.952457
O O10 0.323761 0.092709 0.814264
O O11 0.433959 0.049118 0.947180
O O12 0.753424 0.985347 0.306090
#
# Coordination Sequence:
#
# PCOD9372463 Si02
#       7
#    16  16   8  16  16  16   8
#     4  11  24  44  75 106 152 198 259 321 388 465
#     4  11  27  49  74 116 155 209 260 331 388 478
#     4  12  24  45  81 108 152 204 264 320 390 459
#     4  12  23  43  74 111 153 206 263 324 392 476
#     4  11  22  43  71 112 146 200 261 322 387 465
#     4  11  25  43  75 112 153 201 265 322 396 463
#     4  12  26  51  75 108 170 202 260 322 406 465
#
# _framework density 26.555568999999998
#
# number of rings (size 3 to 8) (size 9 to 14) (size 15 to 20)
#    0.000    0.667    3.333    4.000    4.667    1.333 
#    3.000    3.333    0.000    0.000    0.000    0.000 
#    0.000    0.000    0.000    0.000    0.000    0.000 
#
# Total GULP energy -134116.688074 kJ/mol
# GULP energy per Si atom -5588.195336 kJ/mol
# Density = 2.649513 g / cm^3
# Si number density = 26.555569 Si / 1000 Ang^3
#
#
#
# Elastic Constant Matrix: (Units=GPa)
#
#
# Indices 1 2 3 4 5 6 
#
# 1 82.8402 -13.0278 36.6041 0.0000 0.0000 0.0000
# 2 -13.0278 160.8074 46.5157 0.0000 0.0000 0.0000
# 3 36.6041 46.5157 119.2795 0.0000 0.0000 0.0000
# 4 0.0000 0.0000 0.0000 51.6116 0.0000 0.0000
# 5 0.0000 0.0000 0.0000 0.0000 17.2720 0.0000
# 6 0.0000 0.0000 0.0000 0.0000 0.0000 33.8504
#
#
#
# Elastic Compliance Matrix: (Units=1/GPa)
#
#
# Indices 1 2 3 4 5 6 
#
# 1 0.015064 0.002883 -0.005747 0.000000 0.000000 0.000000
# 2 0.002883 0.007561 -0.003833 0.000000 0.000000 0.000000
# 3 -0.005747 -0.003833 0.011642 0.000000 0.000000 0.000000
# 4 0.000000 0.000000 0.000000 0.019375 0.000000 0.000000
# 5 0.000000 0.000000 0.000000 0.000000 0.057897 0.000000
# 6 0.000000 0.000000 0.000000 0.000000 0.000000 0.029542
#
#
# Mechanical properties :
#
#
# Convention : Reuss Voigt Hill
#
# Bulk Modulus (GPa) = 47.91013 55.90123 51.90568
# Shear Modulus (GPa) = 30.97237 40.06915 35.52076
#
# Velocity S-wave (km/s) = 3.41885 3.88864 3.66129
# Velocity P-wave (km/s) = 5.80219 6.42327 6.12061
#
# Compressibility (1/GPa) = 0.02087241
#
# Stress axis : x y z
#
# Youngs Moduli (GPa) = 66.38239 132.25769 85.89453
#
# Poissons Ratio (x) = -0.38128 0.49364
# Poissons Ratio (y) = -0.19137 0.32926
# Poissons Ratio (z) = 0.38151 0.50698
#
# Static dielectric constant tensor:
#      x y z
#    x 2.097320 0.000000 0.000000 
#    y 0.000000 2.206210 0.000000 
#    z 0.000000 0.000000 2.002460 
# 
# From -- ./inp_files/13344.got.cif
#   From: 2010.05.17/outbox.cif.g08.bks.cpg/sg43_7_cif.got.tgz:13344.got - 2010.06.03 19:21:55.
