data_PCOD9372329
_publ_section_title
;
Structure prediction by ZEFSAII (Michael W. Deem and Ramdas Pophale) SiO2 
 PCOD9372329
Probable space group: F D D 2
;
_chemical_formula_sum "Si O2"
_cell_formula_units_Z 96
_cell_length_a 7.545233
_cell_length_b 16.832318
_cell_length_c 30.502723
_cell_angle_alpha 90.000000
_cell_angle_beta 90.000000
_cell_angle_gamma 90.000000
_cell_volume 3873.960549
_symmetry_space_group_name_H-M "F D D 2"
_symmetry_group_IT_number 43
_symmetry_cell_setting 'orthorhombic'
loop_
_space_group_symop_operation_xyz
x,y,z
-x,-y,z
1/4-x,1/4+y,1/4+z
1/4+x,1/4-y,1/4+z
x,1/2+y,1/2+z
-x,1/2-y,1/2+z
1/4-x,3/4+y,3/4+z
1/4+x,3/4-y,3/4+z
1/2+x,y,1/2+z
1/2-x,-y,1/2+z
3/4-x,1/4+y,3/4+z
3/4+x,1/4-y,3/4+z
1/2+x,1/2+y,z
1/2-x,1/2-y,z
3/4-x,3/4+y,1/4+z
3/4+x,3/4-y,1/4+z
loop_
_atom_site_type_symbol
_atom_site_label
_atom_site_fract_x
_atom_site_fract_y
_atom_site_fract_z
Si Si1 0.636445 0.655564 0.332570
Si Si2 0.750000 0.250000 0.753658
Si Si3 0.469455 0.208821 0.173580
Si Si4 0.500000 0.500000 0.303365
Si Si5 0.782665 0.656992 0.085215
Si Si6 0.682632 0.044052 0.252826
Si Si7 0.094537 0.624701 0.923161
O O1 0.620990 0.703837 0.287503
O O2 0.505659 0.579475 0.331617
O O3 0.597247 0.684467 0.381790
O O4 0.846539 0.636922 0.335093
O O5 0.637241 0.301940 0.718945
O O6 0.376467 0.164733 0.132434
O O7 0.505839 0.304909 0.168734
O O8 0.660174 0.171614 0.176020
O O9 0.317900 0.486223 0.278008
O O10 0.750000 0.750000 0.076492
O O11 0.886114 0.638737 0.039808
O O12 0.822421 0.076433 0.217349
O O13 0.500000 0.000000 0.237105
#
# Coordination Sequence:
#
# PCOD9372329 Si02
#       7
#    16   8  16   8  16  16  16
#     4  12  24  42  68 103 143 188 239 300 367 441
#     4  12  26  43  64 106 152 186 228 313 396 418
#     4  11  22  41  70  97 135 189 242 296 351 445
#     4  12  22  41  76  92 126 186 248 285 334 440
#     4  11  19  41  70 100 128 181 244 295 336 426
#     4  11  23  41  65 103 133 172 236 298 351 409
#     4  11  23  41  65  98 137 184 245 294 359 431
#
# _framework density 24.780842
#
# number of rings (size 3 to 8) (size 9 to 14) (size 15 to 20)
#    0.000    0.667    5.833    4.000    0.000    0.667 
#    3.000    0.000    0.000    0.000    0.000    0.000 
#    0.000    0.000    0.000    0.000    0.000    0.000 
#
# Total GULP energy -133671.066017 kJ/mol
# GULP energy per Si atom -5569.627751 kJ/mol
# Density = 2.472444 g / cm^3
# Si number density = 24.780842 Si / 1000 Ang^3
#
#
#
# Elastic Constant Matrix: (Units=GPa)
#
#
# Indices 1 2 3 4 5 6 
#
# 1 92.0524 -1.3152 11.8729 0.0000 0.0000 0.0000
# 2 -1.3152 35.7077 14.5440 0.0000 0.0000 0.0000
# 3 11.8729 14.5440 167.8009 0.0000 0.0000 0.0000
# 4 0.0000 0.0000 0.0000 27.5068 0.0000 0.0000
# 5 0.0000 0.0000 0.0000 0.0000 54.5547 0.0000
# 6 0.0000 0.0000 0.0000 0.0000 0.0000 31.9540
#
#
#
# Elastic Compliance Matrix: (Units=1/GPa)
#
#
# Indices 1 2 3 4 5 6 
#
# 1 0.010983 0.000747 -0.000842 0.000000 0.000000 0.000000
# 2 0.000747 0.029081 -0.002573 0.000000 0.000000 0.000000
# 3 -0.000842 -0.002573 0.006242 0.000000 0.000000 0.000000
# 4 0.000000 0.000000 0.000000 0.036355 0.000000 0.000000
# 5 0.000000 0.000000 0.000000 0.000000 0.018330 0.000000
# 6 0.000000 0.000000 0.000000 0.000000 0.000000 0.031295
#
#
# Mechanical properties :
#
#
# Convention : Reuss Voigt Hill
#
# Bulk Modulus (GPa) = 24.40822 38.41825 31.41323
# Shear Modulus (GPa) = 33.05177 40.83373 36.94275
#
# Velocity S-wave (km/s) = 3.65603 4.06371 3.86525
# Velocity P-wave (km/s) = 5.26243 6.12823 5.71175
#
# Compressibility (1/GPa) = 0.04096981
#
# Stress axis : x y z
#
# Youngs Moduli (GPa) = 91.05280 34.38681 160.20343
#
# Poissons Ratio (x) = -0.02570 0.13487
# Poissons Ratio (y) = -0.06805 0.41228
# Poissons Ratio (z) = 0.07665 0.08849
#
# Static dielectric constant tensor:
#      x y z
#    x 2.050520 0.000000 0.000000 
#    y 0.000000 2.360630 0.000000 
#    z 0.000000 0.000000 2.207150 
# 
# From -- ./inp_files/20302.got.cif
#   From: 2010.05.17/outbox.cif.g08.bks.cpg/sg43_11_cif.got.tgz:20302.got - 2010.06.03 19:21:55.
