data_PCOD9372315
_publ_section_title
;
Structure prediction by ZEFSAII (Michael W. Deem and Ramdas Pophale) SiO2 
 PCOD9372315
Probable space group: F D D 2
;
_chemical_formula_sum "Si O2"
_cell_formula_units_Z 104
_cell_length_a 18.258940
_cell_length_b 25.492478
_cell_length_c 10.029838
_cell_angle_alpha 90.000000
_cell_angle_beta 90.000000
_cell_angle_gamma 90.000000
_cell_volume 4668.544826
_symmetry_space_group_name_H-M "F D D 2"
_symmetry_group_IT_number 43
_symmetry_cell_setting 'orthorhombic'
loop_
_space_group_symop_operation_xyz
x,y,z
-x,-y,z
1/4-x,1/4+y,1/4+z
1/4+x,1/4-y,1/4+z
x,1/2+y,1/2+z
-x,1/2-y,1/2+z
1/4-x,3/4+y,3/4+z
1/4+x,3/4-y,3/4+z
1/2+x,y,1/2+z
1/2-x,-y,1/2+z
3/4-x,1/4+y,3/4+z
3/4+x,1/4-y,3/4+z
1/2+x,1/2+y,z
1/2-x,1/2-y,z
3/4-x,3/4+y,1/4+z
3/4+x,3/4-y,1/4+z
loop_
_atom_site_type_symbol
_atom_site_label
_atom_site_fract_x
_atom_site_fract_y
_atom_site_fract_z
Si Si1 0.878046 0.673028 0.489120
Si Si2 0.979687 0.132129 0.217361
Si Si3 0.626792 0.945885 0.139448
Si Si4 0.131584 0.824193 0.690746
Si Si5 0.140498 0.714717 0.076432
Si Si6 0.500000 0.000000 0.316632
Si Si7 0.977330 0.211113 0.460735
O O1 0.943649 0.653266 0.581851
O O2 0.816114 0.628575 0.470873
O O3 0.896706 0.688247 0.338224
O O4 0.841707 0.723966 0.558311
O O5 0.941057 0.077088 0.252015
O O6 0.964425 0.173769 0.334129
O O7 0.642626 0.886068 0.174958
O O8 0.557809 0.968450 0.224059
O O9 0.695629 0.982346 0.173670
O O10 0.610558 0.950912 0.982420
O O11 0.204034 0.790771 0.656306
O O12 0.071605 0.808719 0.582596
O O13 0.060082 0.710009 0.010943
#
# Coordination Sequence:
#
# PCOD9372315 Si02
#       7
#    16  16  16  16  16   8  16
#     4  12  30  46  76 111 155 197 253 321 396 462
#     4  12  26  50  73 110 149 197 254 313 382 472
#     4  11  26  44  78 104 149 201 253 318 396 465
#     4  11  28  47  77 108 152 198 256 319 390 457
#     4  12  27  44  77 106 150 195 254 315 393 466
#     4  10  28  50  72 114 150 194 270 318 388 488
#     4  11  26  47  72 110 143 195 262 309 378 478
#
# _framework density 22.276748999999999
#
# number of rings (size 3 to 8) (size 9 to 14) (size 15 to 20)
#    0.000    0.615    4.615    0.462   12.923    1.231 
#    0.000    0.000    0.000    0.000    0.000    0.000 
#    0.000    0.000    0.000    0.000    0.000    0.000 
#
# Total GULP energy -145674.755902 kJ/mol
# GULP energy per Si atom -5602.875227 kJ/mol
# Density = 2.222605 g / cm^3
# Si number density = 22.276749 Si / 1000 Ang^3
#
#
#
# Elastic Constant Matrix: (Units=GPa)
#
#
# Indices 1 2 3 4 5 6 
#
# 1 103.1293 18.7340 42.5660 0.0000 0.0000 0.0000
# 2 18.7340 112.0449 33.2678 0.0000 0.0000 0.0000
# 3 42.5660 33.2678 167.1711 0.0000 0.0000 0.0000
# 4 0.0000 0.0000 0.0000 -61.6502 0.0000 0.0000
# 5 0.0000 0.0000 0.0000 0.0000 30.5233 0.0000
# 6 0.0000 0.0000 0.0000 0.0000 0.0000 35.4902
#
#
#
# Elastic Compliance Matrix: (Units=1/GPa)
#
#
# Indices 1 2 3 4 5 6 
#
# 1 0.010954 -0.001066 -0.002577 0.000000 0.000000 0.000000
# 2 -0.001066 0.009589 -0.001637 0.000000 0.000000 0.000000
# 3 -0.002577 -0.001637 0.006964 0.000000 0.000000 0.000000
# 4 0.000000 0.000000 0.000000 -0.016221 0.000000 0.000000
# 5 0.000000 0.000000 0.000000 0.000000 0.032762 0.000000
# 6 0.000000 0.000000 0.000000 0.000000 0.000000 0.028177
#
#
# Mechanical properties :
#
#
# Convention : Reuss Voigt Hill
#
# Bulk Modulus (GPa) = 59.00826 63.49787 61.25307
# Shear Modulus (GPa) = 56.53922 20.05781 38.29852
#
# Velocity S-wave (km/s) = 5.04336 3.00391 4.15084
# Velocity P-wave (km/s) = 7.77562 6.37160 7.10836
#
# Compressibility (1/GPa) = 0.01694678
#
# Stress axis : x y z
#
# Youngs Moduli (GPa) = 91.29178 104.28319 143.60029
#
# Poissons Ratio (x) = 0.11120 0.37005
# Poissons Ratio (y) = 0.09735 0.23504
# Poissons Ratio (z) = 0.23525 0.17069
#
# Static dielectric constant tensor:
#      x y z
#    x 1.825710 0.000000 0.000000 
#    y 0.000000 2.071010 0.000000 
#    z 0.000000 0.000000 1.782800 
# 
# From -- ./inp_files/3356.got.cif
#   From: 2010.05.17/outbox.cif.g08.bks.cpg/sg43_2_cif.got.tgz:3356.got - 2010.06.03 19:21:55.
