data_PCOD9372132
_publ_section_title
;
Structure prediction by ZEFSAII (Michael W. Deem and Ramdas Pophale) SiO2 
 PCOD9372132
Probable space group: F D D 2
;
_chemical_formula_sum "Si O2"
_cell_formula_units_Z 120
_cell_length_a 7.921020
_cell_length_b 23.366637
_cell_length_c 24.827204
_cell_angle_alpha 90.000000
_cell_angle_beta 90.000000
_cell_angle_gamma 90.000000
_cell_volume 4595.207578
_symmetry_space_group_name_H-M "F D D 2"
_symmetry_group_IT_number 43
_symmetry_cell_setting 'orthorhombic'
loop_
_space_group_symop_operation_xyz
x,y,z
-x,-y,z
1/4-x,1/4+y,1/4+z
1/4+x,1/4-y,1/4+z
x,1/2+y,1/2+z
-x,1/2-y,1/2+z
1/4-x,3/4+y,3/4+z
1/4+x,3/4-y,3/4+z
1/2+x,y,1/2+z
1/2-x,-y,1/2+z
3/4-x,1/4+y,3/4+z
3/4+x,1/4-y,3/4+z
1/2+x,1/2+y,z
1/2-x,1/2-y,z
3/4-x,3/4+y,1/4+z
3/4+x,3/4-y,1/4+z
loop_
_atom_site_type_symbol
_atom_site_label
_atom_site_fract_x
_atom_site_fract_y
_atom_site_fract_z
Si Si1 0.376133 0.617407 0.672850
Si Si2 0.922851 0.312972 0.252219
Si Si3 0.283056 0.185863 0.443144
Si Si4 0.600713 0.080179 0.312441
Si Si5 0.809880 0.412618 0.808805
Si Si6 0.131861 0.324526 0.676228
Si Si7 0.250000 0.250000 0.977355
Si Si8 0.411383 0.789789 0.774631
O O1 0.411498 0.657468 0.724947
O O2 0.186279 0.595715 0.662567
O O3 0.413704 0.660202 0.623037
O O4 0.459478 0.555749 0.690283
O O5 0.804436 0.303789 0.201583
O O6 0.832672 0.362193 0.285467
O O7 0.949117 0.257973 0.289284
O O8 0.250000 0.250000 0.424847
O O9 0.352265 0.186355 0.504681
O O10 0.126967 0.143734 0.433608
O O11 0.394585 0.083760 0.311071
O O12 0.633955 0.027841 0.271138
O O13 0.866468 0.440580 0.864328
O O14 0.876137 0.346631 0.807624
O O15 0.976543 0.304671 0.714267
O O16 0.250000 0.750000 0.775393
#
# Coordination Sequence:
#
# PCOD9372132 Si02
#       8
#    16  16  16  16  16  16   8  16
#     4  11  24  47  72 108 144 198 246 302 384 455
#     4  11  24  46  69 105 150 181 246 316 367 451
#     4  11  24  42  70 101 142 186 243 306 369 446
#     4  11  23  45  74 105 147 199 249 301 385 453
#     4  11  23  46  70 103 136 192 256 289 373 459
#     4  11  26  43  70 107 142 181 245 316 365 441
#     4  10  24  46  74 110 150 178 262 312 358 460
#     4  11  23  46  72  98 144 191 236 299 364 448
#
# _framework density 26.114163000000001
#
# number of rings (size 3 to 8) (size 9 to 14) (size 15 to 20)
#    0.000    1.067    5.333    1.200    3.733    5.867 
#    2.400    0.000    0.000    0.000    0.000    0.000 
#    0.000    0.000    0.000    0.000    0.000    0.000 
#
# Total GULP energy -167400.250956 kJ/mol
# GULP energy per Si atom -5580.008365 kJ/mol
# Density = 2.605473 g / cm^3
# Si number density = 26.114163 Si / 1000 Ang^3
#
#
#
# Elastic Constant Matrix: (Units=GPa)
#
#
# Indices 1 2 3 4 5 6 
#
# 1 70.0017 18.8261 4.4845 0.0000 0.0000 0.0000
# 2 18.8261 120.9392 -21.2080 0.0000 0.0000 0.0000
# 3 4.4845 -21.2080 97.0274 0.0000 0.0000 0.0000
# 4 0.0000 0.0000 0.0000 22.3442 0.0000 0.0000
# 5 0.0000 0.0000 0.0000 0.0000 27.0944 0.0000
# 6 0.0000 0.0000 0.0000 0.0000 0.0000 33.7355
#
#
#
# Elastic Compliance Matrix: (Units=1/GPa)
#
#
# Indices 1 2 3 4 5 6 
#
# 1 0.015055 -0.002564 -0.001256 0.000000 0.000000 0.000000
# 2 -0.002564 0.009035 0.002093 0.000000 0.000000 0.000000
# 3 -0.001256 0.002093 0.010822 0.000000 0.000000 0.000000
# 4 0.000000 0.000000 0.000000 0.044754 0.000000 0.000000
# 5 0.000000 0.000000 0.000000 0.000000 0.036908 0.000000
# 6 0.000000 0.000000 0.000000 0.000000 0.000000 0.029642
#
#
# Mechanical properties :
#
#
# Convention : Reuss Voigt Hill
#
# Bulk Modulus (GPa) = 31.78793 32.46371 32.12582
# Shear Modulus (GPa) = 31.21942 35.69253 33.45598
#
# Velocity S-wave (km/s) = 3.46135 3.70102 3.58319
# Velocity P-wave (km/s) = 5.30789 5.54273 5.42658
#
# Compressibility (1/GPa) = 0.03145848
#
# Stress axis : x y z
#
# Youngs Moduli (GPa) = 66.42147 110.68302 92.40455
#
# Poissons Ratio (x) = 0.28378 0.11608
# Poissons Ratio (y) = 0.17030 -0.19343
# Poissons Ratio (z) = 0.08344 -0.23169
#
# Static dielectric constant tensor:
#      x y z
#    x 2.269640 0.000000 0.000000 
#    y 0.000000 2.149320 0.000000 
#    z 0.000000 0.000000 2.059780 
# 
# From -- ./inp_files/24456.got.cif
#   From: 2010.05.17/outbox.cif.g08.bks.cpg/sg43_13_cif.got.tgz:24456.got - 2010.06.03 19:21:55.
