data_PCOD9372032
_publ_section_title
;
Structure prediction by ZEFSAII (Michael W. Deem and Ramdas Pophale) SiO2 
 PCOD9372032
Probable space group: F D D 2
;
_chemical_formula_sum "Si O2"
_cell_formula_units_Z 112
_cell_length_a 5.270175
_cell_length_b 35.581688
_cell_length_c 26.640636
_cell_angle_alpha 90.000000
_cell_angle_beta 90.000000
_cell_angle_gamma 90.000000
_cell_volume 4995.697953
_symmetry_space_group_name_H-M "F D D 2"
_symmetry_group_IT_number 43
_symmetry_cell_setting 'orthorhombic'
loop_
_space_group_symop_operation_xyz
x,y,z
-x,-y,z
1/4-x,1/4+y,1/4+z
1/4+x,1/4-y,1/4+z
x,1/2+y,1/2+z
-x,1/2-y,1/2+z
1/4-x,3/4+y,3/4+z
1/4+x,3/4-y,3/4+z
1/2+x,y,1/2+z
1/2-x,-y,1/2+z
3/4-x,1/4+y,3/4+z
3/4+x,1/4-y,3/4+z
1/2+x,1/2+y,z
1/2-x,1/2-y,z
3/4-x,3/4+y,1/4+z
3/4+x,3/4-y,1/4+z
loop_
_atom_site_type_symbol
_atom_site_label
_atom_site_fract_x
_atom_site_fract_y
_atom_site_fract_z
Si Si1 0.026747 0.137832 0.457240
Si Si2 0.758084 0.024731 0.809051
Si Si3 0.128214 0.659376 0.631837
Si Si4 0.920672 0.930236 0.523265
Si Si5 0.144445 0.163562 0.876389
Si Si6 0.115918 0.540801 0.702506
Si Si7 0.332833 0.207529 0.218813
O O1 0.011320 0.111961 0.505498
O O2 0.777443 0.148751 0.427039
O O3 0.181011 0.111159 0.418712
O O4 0.170244 0.176513 0.467673
O O5 0.750740 0.061286 0.844221
O O6 0.796621 0.037045 0.751027
O O7 0.500000 0.000000 0.812312
O O8 0.000000 0.000000 0.824182
O O9 0.256268 0.623537 0.605613
O O10 0.318949 0.682850 0.667947
O O11 0.932973 0.930638 0.583202
O O12 0.145661 0.954294 0.496503
O O13 0.642974 0.941484 0.504006
O O14 0.969148 0.195809 0.899023
O O15 0.000000 0.500000 0.696399
O O16 0.250000 0.250000 0.207257
#
# Coordination Sequence:
#
# PCOD9372032 Si02
#       7
#    16  16  16  16  16  16  16
#     4  10  24  44  68 102 133 184 226 294 342 405
#     4  11  27  44  72 108 141 188 229 289 356 416
#     4  10  24  42  71 102 139 175 236 283 351 409
#     4  11  26  44  71 100 140 175 239 275 343 411
#     4  11  25  42  72  98 134 188 227 289 342 411
#     4  10  26  46  67  99 142 182 232 286 349 416
#     4  11  24  47  68 102 140 183 222 287 340 410
#
# _framework density 22.419288999999999
#
# number of rings (size 3 to 8) (size 9 to 14) (size 15 to 20)
#    0.000    1.429    1.429    0.857   14.000    2.857 
#    2.571    0.000    0.000    0.000    0.000    0.000 
#    0.000    0.000    0.000    0.000    0.000    0.000 
#
# Total GULP energy -156464.064139 kJ/mol
# GULP energy per Si atom -5588.002291 kJ/mol
# Density = 2.236826 g / cm^3
# Si number density = 22.419289 Si / 1000 Ang^3
#
#
#
# Elastic Constant Matrix: (Units=GPa)
#
#
# Indices 1 2 3 4 5 6 
#
# 1 59.3707 8.5495 7.2133 0.0000 0.0000 0.0000
# 2 8.5495 126.2492 38.3127 0.0000 0.0000 0.0000
# 3 7.2133 38.3127 75.0132 0.0000 0.0000 0.0000
# 4 0.0000 0.0000 0.0000 -5.4931 0.0000 0.0000
# 5 0.0000 0.0000 0.0000 0.0000 12.4469 0.0000
# 6 0.0000 0.0000 0.0000 0.0000 0.0000 21.1321
#
#
#
# Elastic Compliance Matrix: (Units=1/GPa)
#
#
# Indices 1 2 3 4 5 6 
#
# 1 0.017107 -0.000780 -0.001247 0.000000 0.000000 0.000000
# 2 -0.000780 0.009409 -0.004731 0.000000 0.000000 0.000000
# 3 -0.001247 -0.004731 0.015867 0.000000 0.000000 0.000000
# 4 0.000000 0.000000 0.000000 -0.182047 0.000000 0.000000
# 5 0.000000 0.000000 0.000000 0.000000 0.080341 0.000000
# 6 0.000000 0.000000 0.000000 0.000000 0.000000 0.047321
#
#
# Mechanical properties :
#
#
# Convention : Reuss Voigt Hill
#
# Bulk Modulus (GPa) = 34.63979 40.97600 37.80789
# Shear Modulus (GPa) = 448.98362 19.38770 234.18566
#
# Velocity S-wave (km/s) = 14.16691 2.94390 10.23152
# Velocity P-wave (km/s) = 16.82517 5.46555 12.50917
#
# Compressibility (1/GPa) = 0.02886853
#
# Stress axis : x y z
#
# Youngs Moduli (GPa) = 58.45519 106.27773 63.02360
#
# Poissons Ratio (x) = 0.08292 0.07856
# Poissons Ratio (y) = 0.04561 0.29815
# Poissons Ratio (z) = 0.07287 0.50277
#
# Static dielectric constant tensor:
#      x y z
#    x 1.866190 0.000000 0.000000 
#    y 0.000000 1.830040 0.000000 
#    z 0.000000 0.000000 1.829580 
# 
# From -- ./inp_files/27429.got.cif
#   From: 2010.05.17/outbox.cif.g08.bks.cpg/sg43_14_cif.got.tgz:27429.got - 2010.06.03 19:21:55.
