data_PCOD9372747
_publ_section_title
;
Structure prediction by ZEFSAII (Michael W. Deem and Ramdas Pophale) SiO2 
 PCOD9372747
Probable space group: F D D 2
;
_chemical_formula_sum "Si O2"
_cell_formula_units_Z 56
_cell_length_a 7.680305
_cell_length_b 23.787407
_cell_length_c 12.456568
_cell_angle_alpha 90.000000
_cell_angle_beta 90.000000
_cell_angle_gamma 90.000000
_cell_volume 2275.746972
_symmetry_space_group_name_H-M "F D D 2"
_symmetry_group_IT_number 43
_symmetry_cell_setting 'orthorhombic'
loop_
_space_group_symop_operation_xyz
x,y,z
-x,-y,z
1/4-x,1/4+y,1/4+z
1/4+x,1/4-y,1/4+z
x,1/2+y,1/2+z
-x,1/2-y,1/2+z
1/4-x,3/4+y,3/4+z
1/4+x,3/4-y,3/4+z
1/2+x,y,1/2+z
1/2-x,-y,1/2+z
3/4-x,1/4+y,3/4+z
3/4+x,1/4-y,3/4+z
1/2+x,1/2+y,z
1/2-x,1/2-y,z
3/4-x,3/4+y,1/4+z
3/4+x,3/4-y,1/4+z
loop_
_atom_site_type_symbol
_atom_site_label
_atom_site_fract_x
_atom_site_fract_y
_atom_site_fract_z
Si Si1 0.962529 0.561133 0.639850
Si Si2 0.750000 0.750000 0.704710
Si Si3 0.113251 0.607575 0.059756
Si Si4 0.396145 0.209158 0.158299
O O1 0.993162 0.609915 0.726536
O O2 0.066592 0.557871 0.526399
O O3 0.000000 0.500000 0.688356
O O4 0.755630 0.572077 0.625861
O O5 0.939836 0.748516 0.655293
O O6 0.769672 0.902948 0.858899
O O7 0.991346 0.559329 0.013920
O O8 0.250000 0.250000 0.106627
#
# Coordination Sequence:
#
# PCOD9372747 Si02
#       4
#    16   8  16  16
#     4  11  26  48  75 114 155 198 262 321 381 472
#     4  12  24  48  74 116 152 200 268 310 388 484
#     4  12  26  47  79 112 155 206 254 324 392 461
#     4  11  26  50  76 115 158 203 260 327 384 465
#
# _framework density 24.607305
#
# number of rings (size 3 to 8) (size 9 to 14) (size 15 to 20)
#    0.000    0.571    8.571    0.000    6.000    0.000 
#    2.571    0.000    3.143    0.000    0.000    0.000 
#    0.000    0.000    0.000    0.000    0.000    0.000 
#
# Total GULP energy -77939.923645 kJ/mol
# GULP energy per Si atom -5567.137403 kJ/mol
# Density = 2.455130 g / cm^3
# Si number density = 24.607305 Si / 1000 Ang^3
#
#
#
# Elastic Constant Matrix: (Units=GPa)
#
#
# Indices 1 2 3 4 5 6 
#
# 1 182.9576 57.7704 39.8773 0.0000 0.0000 0.0000
# 2 57.7704 192.6646 41.1031 0.0000 0.0000 0.0000
# 3 39.8773 41.1031 68.8655 0.0000 0.0000 0.0000
# 4 0.0000 0.0000 0.0000 46.9750 0.0000 0.0000
# 5 0.0000 0.0000 0.0000 0.0000 39.5383 0.0000
# 6 0.0000 0.0000 0.0000 0.0000 0.0000 67.3929
#
#
#
# Elastic Compliance Matrix: (Units=1/GPa)
#
#
# Indices 1 2 3 4 5 6 
#
# 1 0.006536 -0.001320 -0.002996 0.000000 0.000000 0.000000
# 2 -0.001320 0.006215 -0.002945 0.000000 0.000000 0.000000
# 3 -0.002996 -0.002945 0.018014 0.000000 0.000000 0.000000
# 4 0.000000 0.000000 0.000000 0.021288 0.000000 0.000000
# 5 0.000000 0.000000 0.000000 0.000000 0.025292 0.000000
# 6 0.000000 0.000000 0.000000 0.000000 0.000000 0.014838
#
#
# Mechanical properties :
#
#
# Convention : Reuss Voigt Hill
#
# Bulk Modulus (GPa) = 61.57274 80.22105 70.89690
# Shear Modulus (GPa) = 44.59551 51.16371 47.87961
#
# Velocity S-wave (km/s) = 4.26172 4.56478 4.41585
# Velocity P-wave (km/s) = 7.02088 7.77523 7.40766
#
# Compressibility (1/GPa) = 0.01624095
#
# Stress axis : x y z
#
# Youngs Moduli (GPa) = 153.00305 160.91381 55.51335
#
# Poissons Ratio (x) = 0.21249 0.16635
# Poissons Ratio (y) = 0.20204 0.16346
# Poissons Ratio (z) = 0.45847 0.47382
#
# Static dielectric constant tensor:
#      x y z
#    x 1.919320 0.000000 0.000000 
#    y 0.000000 1.906080 0.000000 
#    z 0.000000 0.000000 2.251590 
# 
# From -- ./inp_files/5853.got.cif
#   From: 2010.05.17/outbox.cif.g08.bks.cpg/sg43_3_cif.got.tgz:5853.got - 2010.06.03 19:21:55.
