data_PCOD9372072
_publ_section_title
;
Structure prediction by ZEFSAII (Michael W. Deem and Ramdas Pophale) SiO2 
 PCOD9372072
Probable space group: F D D 2
;
_chemical_formula_sum "Si O2"
_cell_formula_units_Z 120
_cell_length_a 21.389781
_cell_length_b 28.494082
_cell_length_c 8.209650
_cell_angle_alpha 90.000000
_cell_angle_beta 90.000000
_cell_angle_gamma 90.000000
_cell_volume 5003.635328
_symmetry_space_group_name_H-M "F D D 2"
_symmetry_group_IT_number 43
_symmetry_cell_setting 'orthorhombic'
loop_
_space_group_symop_operation_xyz
x,y,z
-x,-y,z
1/4-x,1/4+y,1/4+z
1/4+x,1/4-y,1/4+z
x,1/2+y,1/2+z
-x,1/2-y,1/2+z
1/4-x,3/4+y,3/4+z
1/4+x,3/4-y,3/4+z
1/2+x,y,1/2+z
1/2-x,-y,1/2+z
3/4-x,1/4+y,3/4+z
3/4+x,1/4-y,3/4+z
1/2+x,1/2+y,z
1/2-x,1/2-y,z
3/4-x,3/4+y,1/4+z
3/4+x,3/4-y,1/4+z
loop_
_atom_site_type_symbol
_atom_site_label
_atom_site_fract_x
_atom_site_fract_y
_atom_site_fract_z
Si Si1 0.358208 0.071564 0.220430
Si Si2 0.588473 0.536745 0.357438
Si Si3 0.221766 0.429264 0.719305
Si Si4 0.981931 0.584649 0.061163
Si Si5 0.361580 0.863222 0.802018
Si Si6 0.712749 0.496104 0.518557
Si Si7 0.750000 0.250000 0.858097
Si Si8 0.233742 0.847416 0.685484
O O1 0.413606 0.063841 0.090357
O O2 0.381250 0.075579 0.405029
O O3 0.307511 0.032495 0.180100
O O4 0.328755 0.122739 0.195532
O O5 0.532951 0.550652 0.481833
O O6 0.606145 0.586375 0.271578
O O7 0.651377 0.520799 0.444741
O O8 0.559716 0.499583 0.229915
O O9 0.266177 0.383572 0.713458
O O10 0.151608 0.408575 0.699573
O O11 0.237987 0.465219 0.575340
O O12 0.231937 0.457168 0.886713
O O13 0.000676 0.598020 0.245000
O O14 0.287275 0.870982 0.799936
O O15 0.764822 0.205588 0.747456
#
# Coordination Sequence:
#
# PCOD9372072 Si02
#       8
#    16  16  16  16  16  16   8  16
#     4  11  23  46  68  99 141 185 224 293 349 432
#     4  11  25  43  71 106 134 185 227 303 342 428
#     4  11  25  44  66 105 135 191 229 300 342 430
#     4  10  25  46  69  99 147 180 231 279 373 414
#     4  10  24  44  69  97 140 182 232 278 362 411
#     4  12  26  41  72 102 144 178 246 290 356 419
#     4  12  24  44  72 102 136 174 248 284 346 418
#     4  11  24  45  69 101 137 186 225 291 347 426
#
# _framework density 23.982562999999999
#
# number of rings (size 3 to 8) (size 9 to 14) (size 15 to 20)
#    0.000    1.067    2.667    2.400    5.600    2.667 
#    2.400    0.000    0.000    0.000    0.000    0.000 
#    0.000    0.000    0.000    0.000    0.000    0.000 
#
# Total GULP energy -167697.760675 kJ/mol
# GULP energy per Si atom -5589.925356 kJ/mol
# Density = 2.392798 g / cm^3
# Si number density = 23.982563 Si / 1000 Ang^3
#
#
#
# Elastic Constant Matrix: (Units=GPa)
#
#
# Indices 1 2 3 4 5 6 
#
# 1 48.3610 2.7728 -14.2040 0.0000 0.0003 0.0002
# 2 2.7728 68.3640 1.0353 -0.0003 0.0001 0.0001
# 3 -14.2040 1.0353 55.3513 -0.0010 0.0021 0.0009
# 4 0.0000 -0.0003 -0.0010 36.2196 0.0005 0.0003
# 5 0.0003 0.0001 0.0021 0.0005 29.8779 -0.0006
# 6 0.0002 0.0001 0.0009 0.0003 -0.0006 33.8979
#
#
#
# Elastic Compliance Matrix: (Units=1/GPa)
#
#
# Indices 1 2 3 4 5 6 
#
# 1 0.022431 -0.000997 0.005775 0.000000 -0.000001 0.000000
# 2 -0.000997 0.014676 -0.000530 0.000000 0.000000 0.000000
# 3 0.005775 -0.000530 0.019558 0.000001 -0.000001 -0.000001
# 4 0.000000 0.000000 0.000001 0.027609 0.000000 0.000000
# 5 -0.000001 0.000000 -0.000001 0.000000 0.033470 0.000001
# 6 0.000000 0.000000 -0.000001 0.000000 0.000001 0.029500
#
#
# Mechanical properties :
#
#
# Convention : Reuss Voigt Hill
#
# Bulk Modulus (GPa) = 15.34693 16.80942 16.07818
# Shear Modulus (GPa) = 31.15841 32.16388 31.66115
#
# Velocity S-wave (km/s) = 3.60837 3.66613 3.63736
# Velocity P-wave (km/s) = 4.87581 4.99448 4.93550
#
# Compressibility (1/GPa) = 0.06515960
#
# Stress axis : x y z
#
# Youngs Moduli (GPa) = 44.58101 68.13817 51.12935
#
# Poissons Ratio (x) = 0.06795 -0.29526
# Poissons Ratio (y) = 0.04446 0.02712
# Poissons Ratio (z) = -0.25745 0.03614
#
# Static dielectric constant tensor:
#      x y z
#    x 1.954820 0.000000 0.000000 
#    y 0.000000 1.881610 0.000000 
#    z 0.000000 0.000000 1.917150 
# 
# From -- ./inp_files/3875.got.cif
#   From: 2010.05.17/outbox.cif.g08.bks.cpg/sg43_2_cif.got.tgz:3875.got - 2010.06.03 19:21:55.
