data_PCOD9372950
_publ_section_title
;
Structure prediction by ZEFSAII (Michael W. Deem and Ramdas Pophale) SiO2 
 PCOD9372950
Probable space group: F D D 2
;
_chemical_formula_sum "Si O2"
_cell_formula_units_Z 72
_cell_length_a 36.273571
_cell_length_b 13.589678
_cell_length_c 5.396138
_cell_angle_alpha 90.000000
_cell_angle_beta 90.000000
_cell_angle_gamma 90.000000
_cell_volume 2660.005451
_symmetry_space_group_name_H-M "F D D 2"
_symmetry_group_IT_number 43
_symmetry_cell_setting 'orthorhombic'
loop_
_space_group_symop_operation_xyz
x,y,z
-x,-y,z
1/4-x,1/4+y,1/4+z
1/4+x,1/4-y,1/4+z
x,1/2+y,1/2+z
-x,1/2-y,1/2+z
1/4-x,3/4+y,3/4+z
1/4+x,3/4-y,3/4+z
1/2+x,y,1/2+z
1/2-x,-y,1/2+z
3/4-x,1/4+y,3/4+z
3/4+x,1/4-y,3/4+z
1/2+x,1/2+y,z
1/2-x,1/2-y,z
3/4-x,3/4+y,1/4+z
3/4+x,3/4-y,1/4+z
loop_
_atom_site_type_symbol
_atom_site_label
_atom_site_fract_x
_atom_site_fract_y
_atom_site_fract_z
Si Si1 0.957752 0.816657 0.207290
Si Si2 0.564352 0.733107 0.699319
Si Si3 0.500000 0.000000 0.506200
Si Si4 0.824767 0.252082 0.501164
Si Si5 0.643577 0.275543 0.009962
O O1 0.962971 0.760689 0.465600
O O2 0.918883 0.876767 0.239616
O O3 0.952328 0.746929 0.969249
O O4 0.985813 0.906910 0.163036
O O5 0.572366 0.616183 0.725429
O O6 0.602225 0.783112 0.612850
O O7 0.465616 0.032532 0.338392
O O8 0.852111 0.266863 0.732583
O O9 0.837463 0.287648 0.232463
#
# Coordination Sequence:
#
# PCOD9372950 Si02
#       5
#    16  16   8  16  16
#     4   9  18  26  43  62  84 112 131 173 209 253
#     4   9  16  27  39  59  86 109 137 166 206 252
#     4   8  16  30  40  62  92 106 136 166 220 258
#     4   9  18  26  43  62  84 112 131 173 209 253
#     4   9  16  27  39  59  86 109 137 166 206 252
#
# _framework density 27.067613999999999
#
# number of rings (size 3 to 8) (size 9 to 14) (size 15 to 20)
#    0.000    3.556    0.000    1.333    0.000   14.222 
#    0.000    0.000    0.000    0.000    0.000    0.000 
#    0.000  625.778    0.000    0.000    0.000    0.000 
#
# Total GULP energy -100563.351743 kJ/mol
# GULP energy per Si atom -5586.852875 kJ/mol
# Density = 2.700601 g / cm^3
# Si number density = 27.067614 Si / 1000 Ang^3
#
#
#
# Elastic Constant Matrix: (Units=GPa)
#
#
# Indices 1 2 3 4 5 6 
#
# 1 120.9061 23.0303 33.1834 -0.0002 -0.0001 -0.0001
# 2 23.0303 104.8169 4.1411 -0.0001 -0.0001 0.0000
# 3 33.1834 4.1411 265.4265 -0.0001 -0.0001 0.0000
# 4 -0.0002 -0.0001 -0.0001 -8.7132 -0.0001 -0.0001
# 5 -0.0001 -0.0001 -0.0001 -0.0001 32.9574 0.0000
# 6 -0.0001 0.0000 0.0000 -0.0001 0.0000 38.1215
#
#
#
# Elastic Compliance Matrix: (Units=1/GPa)
#
#
# Indices 1 2 3 4 5 6 
#
# 1 0.008935 -0.001920 -0.001087 0.000000 0.000000 0.000000
# 2 -0.001920 0.009959 0.000085 0.000000 0.000000 0.000000
# 3 -0.001087 0.000085 0.003902 0.000000 0.000000 0.000000
# 4 0.000000 0.000000 0.000000 -0.114768 0.000000 0.000000
# 5 0.000000 0.000000 0.000000 0.000000 0.030342 0.000000
# 6 0.000000 0.000000 0.000000 0.000000 0.000000 0.026232
#
#
# Mechanical properties :
#
#
# Convention : Reuss Voigt Hill
#
# Bulk Modulus (GPa) = 58.99412 67.98435 63.48924
# Shear Modulus (GPa) = -209.18132 41.19280 -83.99426
#
# Velocity S-wave (km/s) = -8.80050 3.90532 -5.57662
# Velocity P-wave (km/s) = 9.02345 6.74584 4.23770
#
# Compressibility (1/GPa) = 0.01695084
#
# Stress axis : x y z
#
# Youngs Moduli (GPa) = 111.91936 100.41158 256.27180
#
# Poissons Ratio (x) = 0.19281 0.27859
# Poissons Ratio (y) = 0.21491 -0.02170
# Poissons Ratio (z) = 0.12167 -0.00850
#
# Static dielectric constant tensor:
#      x y z
#    x 2.113190 0.000000 0.000000 
#    y 0.000000 1.953490 0.000000 
#    z 0.000000 0.000000 2.297140 
# 
# From -- ./inp_files/931.got.cif
#   From: 2010.05.17/outbox.cif.g08.bks.cpg/sg43_1_cif.got.tgz:931.got - 2010.06.03 19:21:55.
