data_PCOD9372159
_publ_section_title
;
Structure prediction by ZEFSAII (Michael W. Deem and Ramdas Pophale) SiO2 
 PCOD9372159
Probable space group: F D D 2
;
_chemical_formula_sum "Si O2"
_cell_formula_units_Z 120
_cell_length_a 17.056435
_cell_length_b 17.519238
_cell_length_c 17.183381
_cell_angle_alpha 90.000000
_cell_angle_beta 90.000000
_cell_angle_gamma 90.000000
_cell_volume 5134.664781
_symmetry_space_group_name_H-M "F D D 2"
_symmetry_group_IT_number 43
_symmetry_cell_setting 'orthorhombic'
loop_
_space_group_symop_operation_xyz
x,y,z
-x,-y,z
1/4-x,1/4+y,1/4+z
1/4+x,1/4-y,1/4+z
x,1/2+y,1/2+z
-x,1/2-y,1/2+z
1/4-x,3/4+y,3/4+z
1/4+x,3/4-y,3/4+z
1/2+x,y,1/2+z
1/2-x,-y,1/2+z
3/4-x,1/4+y,3/4+z
3/4+x,1/4-y,3/4+z
1/2+x,1/2+y,z
1/2-x,1/2-y,z
3/4-x,3/4+y,1/4+z
3/4+x,3/4-y,1/4+z
loop_
_atom_site_type_symbol
_atom_site_label
_atom_site_fract_x
_atom_site_fract_y
_atom_site_fract_z
Si Si1 0.855861 0.582553 0.045250
Si Si2 0.492139 0.697916 0.342472
Si Si3 0.360384 0.326842 0.245363
Si Si4 0.339162 0.258406 0.087694
Si Si5 0.606958 0.168367 0.131278
Si Si6 0.500000 0.000000 0.624133
Si Si7 0.206444 0.670940 0.444543
Si Si8 0.593941 0.760035 0.474717
O O1 0.777600 0.531986 0.058165
O O2 0.857371 0.675597 0.049795
O O3 0.901573 0.563974 0.122838
O O4 0.893044 0.555224 0.963968
O O5 0.556548 0.658989 0.287444
O O6 0.413330 0.648253 0.348944
O O7 0.534296 0.708470 0.425493
O O8 0.380945 0.276469 0.169112
O O9 0.302298 0.296267 0.311375
O O10 0.316671 0.403170 0.218879
O O11 0.250000 0.250000 0.116186
O O12 0.342620 0.328944 0.025813
O O13 0.523231 0.137027 0.164290
O O14 0.597602 0.229326 0.062905
O O15 0.428888 0.983546 0.684108
O O16 0.250000 0.750000 0.458880
#
# Coordination Sequence:
#
# PCOD9372159 Si02
#       8
#    16  16  16  16  16   8  16  16
#     4  12  24  42  72 105 141 192 241 305 375 436
#     4  11  26  46  69 108 144 188 254 298 372 452
#     4  11  25  46  73 107 146 197 239 309 373 446
#     4  11  22  43  71 106 146 181 240 306 376 429
#     4  12  25  47  70 102 140 195 244 303 365 445
#     4  10  24  48  70 100 146 190 242 300 366 444
#     4  11  23  45  68 103 147 179 236 312 364 432
#     4  11  26  47  72 101 147 191 250 299 373 445
#
# _framework density 23.370563000000001
#
# number of rings (size 3 to 8) (size 9 to 14) (size 15 to 20)
#    0.000    0.800    4.667    2.400    1.867    4.267 
#    6.000    0.000    0.000    0.000    0.000    0.000 
#    0.000    0.000    0.000    0.000    0.000    0.000 
#
# Total GULP energy -167118.441252 kJ/mol
# GULP energy per Si atom -5570.614708 kJ/mol
# Density = 2.331737 g / cm^3
# Si number density = 23.370563 Si / 1000 Ang^3
#
#
#
# Elastic Constant Matrix: (Units=GPa)
#
#
# Indices 1 2 3 4 5 6 
#
# 1 31.4544 -2.3685 -0.5046 0.0000 0.0000 0.0000
# 2 -2.3685 37.7709 23.0993 0.0000 0.0000 0.0000
# 3 -0.5046 23.0993 147.1032 0.0000 0.0000 0.0000
# 4 0.0000 0.0000 0.0000 20.5188 0.0000 0.0000
# 5 0.0000 0.0000 0.0000 0.0000 19.6951 0.0000
# 6 0.0000 0.0000 0.0000 0.0000 0.0000 14.4667
#
#
#
# Elastic Compliance Matrix: (Units=1/GPa)
#
#
# Indices 1 2 3 4 5 6 
#
# 1 0.031950 0.002142 -0.000227 0.000000 0.000000 0.000000
# 2 0.002142 0.029432 -0.004614 0.000000 0.000000 0.000000
# 3 -0.000227 -0.004614 0.007522 0.000000 0.000000 0.000000
# 4 0.000000 0.000000 0.000000 0.048736 0.000000 0.000000
# 5 0.000000 0.000000 0.000000 0.000000 0.050774 0.000000
# 6 0.000000 0.000000 0.000000 0.000000 0.000000 0.069124
#
#
# Mechanical properties :
#
#
# Convention : Reuss Voigt Hill
#
# Bulk Modulus (GPa) = 15.74669 28.53122 22.13896
# Shear Modulus (GPa) = 18.93200 24.00961 21.47080
#
# Velocity S-wave (km/s) = 2.84928 3.20870 3.03431
# Velocity P-wave (km/s) = 4.19249 5.09533 4.66580
#
# Compressibility (1/GPa) = 0.06350540
#
# Stress axis : x y z
#
# Youngs Moduli (GPa) = 31.29919 33.97705 132.94804
#
# Poissons Ratio (x) = -0.07279 0.03015
# Poissons Ratio (y) = -0.06705 0.61345
# Poissons Ratio (z) = 0.00710 0.15678
#
# Static dielectric constant tensor:
#      x y z
#    x 1.999450 0.000000 0.000000 
#    y 0.000000 1.973260 0.000000 
#    z 0.000000 0.000000 2.004960 
# 
# From -- ./inp_files/14271.got.cif
#   From: 2010.05.17/outbox.cif.g08.bks.cpg/sg43_8_cif.got.tgz:14271.got - 2010.06.03 19:21:55.
