data_PCOD9372348
_publ_section_title
;
Structure prediction by ZEFSAII (Michael W. Deem and Ramdas Pophale) SiO2 
 PCOD9372348
Probable space group: F D D 2
;
_chemical_formula_sum "Si O2"
_cell_formula_units_Z 128
_cell_length_a 11.332436
_cell_length_b 22.571905
_cell_length_c 26.513799
_cell_angle_alpha 90.000000
_cell_angle_beta 90.000000
_cell_angle_gamma 90.000000
_cell_volume 6782.088434
_symmetry_space_group_name_H-M "F D D 2"
_symmetry_group_IT_number 43
_symmetry_cell_setting 'orthorhombic'
loop_
_space_group_symop_operation_xyz
x,y,z
-x,-y,z
1/4-x,1/4+y,1/4+z
1/4+x,1/4-y,1/4+z
x,1/2+y,1/2+z
-x,1/2-y,1/2+z
1/4-x,3/4+y,3/4+z
1/4+x,3/4-y,3/4+z
1/2+x,y,1/2+z
1/2-x,-y,1/2+z
3/4-x,1/4+y,3/4+z
3/4+x,1/4-y,3/4+z
1/2+x,1/2+y,z
1/2-x,1/2-y,z
3/4-x,3/4+y,1/4+z
3/4+x,3/4-y,1/4+z
loop_
_atom_site_type_symbol
_atom_site_label
_atom_site_fract_x
_atom_site_fract_y
_atom_site_fract_z
Si Si1 0.918759 0.717993 0.806630
Si Si2 0.948705 0.086754 0.598558
Si Si3 0.545955 0.162019 0.644658
Si Si4 0.822202 0.309603 0.842282
Si Si5 0.485751 0.070460 0.477116
Si Si6 0.609671 0.742942 0.692469
Si Si7 0.993573 0.429527 0.318023
Si Si8 0.765333 0.870259 0.956347
O O1 0.875976 0.780698 0.829386
O O2 0.819893 0.668535 0.817438
O O3 0.925625 0.728792 0.746773
O O4 0.040728 0.703003 0.833320
O O5 0.870941 0.145720 0.590541
O O6 0.982683 0.080061 0.656923
O O7 0.456512 0.108849 0.633527
O O8 0.626685 0.156317 0.694401
O O9 0.469837 0.222039 0.651685
O O10 0.640897 0.159609 0.599226
O O11 0.750000 0.250000 0.854272
O O12 0.780370 0.329541 0.786500
O O13 0.605634 0.100796 0.460317
O O14 0.500000 0.000000 0.468070
O O15 0.750000 0.750000 0.684851
O O16 0.574930 0.674167 0.696607
O O17 0.993987 0.411561 0.259348
O O18 0.000000 0.500000 0.323448
#
# Coordination Sequence:
#
# PCOD9372348 Si02
#       8
#    16  16  16  16  16  16  16  16
#     4  11  22  44  66  93 126 173 220 261 319 401
#     4  11  24  41  66  93 129 168 212 273 319 387
#     4  12  23  38  65  95 127 167 210 273 319 387
#     4  11  23  40  65  95 129 170 218 269 326 387
#     4  11  20  39  67  91 118 163 223 262 306 386
#     4  12  23  42  67  96 127 170 220 267 327 395
#     4  12  24  41  62  96 129 164 212 274 331 378
#     4  12  23  40  67  93 126 168 215 268 323 387
#
# _framework density 18.873242999999999
#
# number of rings (size 3 to 8) (size 9 to 14) (size 15 to 20)
#    0.000    0.500    7.500    2.625    3.500    0.000 
#    0.000    0.000    0.000    0.750    0.000    0.000 
#    0.000    0.000    0.000    0.000    0.000    0.000 
#
# Total GULP energy -178733.144360 kJ/mol
# GULP energy per Si atom -5585.410761 kJ/mol
# Density = 1.883029 g / cm^3
# Si number density = 18.873243 Si / 1000 Ang^3
#
#
#
# Elastic Constant Matrix: (Units=GPa)
#
#
# Indices 1 2 3 4 5 6 
#
# 1 113.9757 41.5828 2.8817 0.0000 0.0000 0.0000
# 2 41.5828 65.0281 18.3125 0.0000 0.0000 0.0000
# 3 2.8817 18.3125 82.1779 0.0000 0.0000 0.0000
# 4 0.0000 0.0000 0.0000 35.9333 0.0000 0.0000
# 5 0.0000 0.0000 0.0000 0.0000 17.9354 0.0000
# 6 0.0000 0.0000 0.0000 0.0000 0.0000 31.2190
#
#
#
# Elastic Compliance Matrix: (Units=1/GPa)
#
#
# Indices 1 2 3 4 5 6 
#
# 1 0.011578 -0.007777 0.001327 0.000000 0.000000 0.000000
# 2 -0.007777 0.021632 -0.004548 0.000000 0.000000 0.000000
# 3 0.001327 -0.004548 0.013136 0.000000 0.000000 0.000000
# 4 0.000000 0.000000 0.000000 0.027829 0.000000 0.000000
# 5 0.000000 0.000000 0.000000 0.000000 0.055756 0.000000
# 6 0.000000 0.000000 0.000000 0.000000 0.000000 0.032032
#
#
# Mechanical properties :
#
#
# Convention : Reuss Voigt Hill
#
# Bulk Modulus (GPa) = 41.06863 42.97063 42.01963
# Shear Modulus (GPa) = 26.03165 30.24452 28.13808
#
# Velocity S-wave (km/s) = 3.71791 4.00748 3.86540
# Velocity P-wave (km/s) = 6.34334 6.65061 6.49879
#
# Compressibility (1/GPa) = 0.02434948
#
# Stress axis : x y z
#
# Youngs Moduli (GPa) = 86.37320 46.22822 76.12907
#
# Poissons Ratio (x) = 0.35952 -0.10103
# Poissons Ratio (y) = 0.67174 0.34621
# Poissons Ratio (z) = -0.11462 0.21023
#
# Static dielectric constant tensor:
#      x y z
#    x 1.674460 0.000000 0.000000 
#    y 0.000000 1.660560 0.000000 
#    z 0.000000 0.000000 1.657750 
# 
# From -- ./inp_files/21315.got.cif
#   From: 2010.05.17/outbox.cif.g08.bks.cpg/sg43_11_cif.got.tgz:21315.got - 2010.06.03 19:21:55.
