data_PCOD9372835
_publ_section_title
;
Structure prediction by ZEFSAII (Michael W. Deem and Ramdas Pophale) SiO2 
 PCOD9372835
Probable space group: F D D 2
;
_chemical_formula_sum "Si O2"
_cell_formula_units_Z 56
_cell_length_a 18.544086
_cell_length_b 24.584321
_cell_length_c 4.878100
_cell_angle_alpha 90.000000
_cell_angle_beta 90.000000
_cell_angle_gamma 90.000000
_cell_volume 2223.895365
_symmetry_space_group_name_H-M "F D D 2"
_symmetry_group_IT_number 43
_symmetry_cell_setting 'orthorhombic'
loop_
_space_group_symop_operation_xyz
x,y,z
-x,-y,z
1/4-x,1/4+y,1/4+z
1/4+x,1/4-y,1/4+z
x,1/2+y,1/2+z
-x,1/2-y,1/2+z
1/4-x,3/4+y,3/4+z
1/4+x,3/4-y,3/4+z
1/2+x,y,1/2+z
1/2-x,-y,1/2+z
3/4-x,1/4+y,3/4+z
3/4+x,1/4-y,3/4+z
1/2+x,1/2+y,z
1/2-x,1/2-y,z
3/4-x,3/4+y,1/4+z
3/4+x,3/4-y,1/4+z
loop_
_atom_site_type_symbol
_atom_site_label
_atom_site_fract_x
_atom_site_fract_y
_atom_site_fract_z
Si Si1 0.500000 0.500000 0.754230
Si Si2 0.120718 0.912829 0.923538
Si Si3 0.995282 0.283008 0.025689
Si Si4 0.382191 0.909102 0.175818
O O1 0.555285 0.456149 0.892149
O O2 0.442596 0.455824 0.626925
O O3 0.182166 0.942577 0.097086
O O4 0.153814 0.888218 0.641811
O O5 0.104519 0.864138 0.137678
O O6 0.031458 0.243209 0.802291
O O7 0.060984 0.322040 0.086815
#
# Coordination Sequence:
#
# PCOD9372835 Si02
#       4
#     8  16  16  16
#     4  12  28  52  84 114 164 208 258 338 388 456
#     4  12  27  48  77 114 153 203 265 316 392 474
#     4  12  24  47  72 103 152 197 243 316 390 446
#     4  12  27  48  77 114 153 203 265 316 392 474
#
# _framework density 25.181041
#
# number of rings (size 3 to 8) (size 9 to 14) (size 15 to 20)
#    0.000    0.000    2.857    6.857    0.000    2.286 
#    0.000    0.000    0.000    0.000    0.000    0.000 
#    0.000    0.000    0.000    0.000    0.000    0.000 
#
# Total GULP energy -78123.019825 kJ/mol
# GULP energy per Si atom -5580.215702 kJ/mol
# Density = 2.512373 g / cm^3
# Si number density = 25.181041 Si / 1000 Ang^3
#
#
#
# Elastic Constant Matrix: (Units=GPa)
#
#
# Indices 1 2 3 4 5 6 
#
# 1 118.5147 50.6433 -7.6835 -0.1018 0.0956 -0.3120
# 2 50.6433 126.9352 47.0356 -0.0826 0.0517 -0.2219
# 3 -7.6835 47.0356 148.4692 -0.0926 0.1589 -0.3423
# 4 -0.1018 -0.0826 -0.0926 -10.1215 0.0662 0.1083
# 5 0.0956 0.0517 0.1589 0.0662 33.3793 0.1894
# 6 -0.3120 -0.2219 -0.3423 0.1083 0.1894 27.4994
#
#
#
# Elastic Compliance Matrix: (Units=1/GPa)
#
#
# Indices 1 2 3 4 5 6 
#
# 1 0.010756 -0.005096 0.002171 -0.000086 -0.000034 0.000109
# 2 -0.005096 0.011340 -0.003856 -0.000006 0.000015 -0.000014
# 3 0.002171 -0.003856 0.008070 -0.000063 -0.000039 0.000094
# 4 -0.000086 -0.000006 -0.000063 -0.098793 0.000194 0.000386
# 5 -0.000034 0.000015 -0.000039 0.000194 0.029960 -0.000208
# 6 0.000109 -0.000014 0.000094 0.000386 -0.000208 0.036367
#
#
# Mechanical properties :
#
#
# Convention : Reuss Voigt Hill
#
# Bulk Modulus (GPa) = 60.22565 63.76775 61.99670
# Shear Modulus (GPa) = 297.68574 30.41303 164.04938
#
# Velocity S-wave (km/s) = 10.88461 3.47908 8.08019
# Velocity P-wave (km/s) = 13.48834 6.44339 10.57007
#
# Compressibility (1/GPa) = 0.01660422
#
# Stress axis : x y z
#
# Youngs Moduli (GPa) = 92.96855 88.18302 123.92044
#
# Poissons Ratio (x) = 0.44937 -0.26907
# Poissons Ratio (y) = 0.47375 0.47788
# Poissons Ratio (z) = -0.20186 0.34006
#
# Static dielectric constant tensor:
#      x y z
#    x 3.194530 -0.001190 -0.000030 
#    y -0.001190 1.817180 -0.000080 
#    z -0.000030 -0.000080 2.000990 
# 
# From -- ./inp_files/439.got.cif
#   From: 2010.05.17/outbox.cif.g08.bks.cpg/sg43_1_cif.got.tgz:439.got - 2010.06.03 19:21:55.
