data_PCOD9372087
_publ_section_title
;
Structure prediction by ZEFSAII (Michael W. Deem and Ramdas Pophale) SiO2 
 PCOD9372087
Probable space group: F D D 2
;
_chemical_formula_sum "Si O2"
_cell_formula_units_Z 56
_cell_length_a 11.181162
_cell_length_b 14.610654
_cell_length_c 11.837147
_cell_angle_alpha 90.000000
_cell_angle_beta 90.000000
_cell_angle_gamma 90.000000
_cell_volume 1933.764740
_symmetry_space_group_name_H-M "F D D 2"
_symmetry_group_IT_number 43
_symmetry_cell_setting 'orthorhombic'
loop_
_space_group_symop_operation_xyz
x,y,z
-x,-y,z
1/4-x,1/4+y,1/4+z
1/4+x,1/4-y,1/4+z
x,1/2+y,1/2+z
-x,1/2-y,1/2+z
1/4-x,3/4+y,3/4+z
1/4+x,3/4-y,3/4+z
1/2+x,y,1/2+z
1/2-x,-y,1/2+z
3/4-x,1/4+y,3/4+z
3/4+x,1/4-y,3/4+z
1/2+x,1/2+y,z
1/2-x,1/2-y,z
3/4-x,3/4+y,1/4+z
3/4+x,3/4-y,1/4+z
loop_
_atom_site_type_symbol
_atom_site_label
_atom_site_fract_x
_atom_site_fract_y
_atom_site_fract_z
Si Si1 0.610440 0.126887 0.820100
Si Si2 0.004457 0.810137 0.880087
Si Si3 0.590427 0.677643 0.627412
Si Si4 0.250000 0.750000 0.388031
O O1 0.678592 0.137142 0.700635
O O2 0.600015 0.227200 0.873311
O O3 0.472877 0.094277 0.831013
O O4 0.678679 0.035808 0.863753
O O5 0.963091 0.837791 0.754338
O O6 0.882245 0.769895 0.936535
O O7 0.522101 0.593065 0.566540
#
# Coordination Sequence:
#
# PCOD9372087 Si02
#       4
#    16  16  16   8
#     4  10  25  46  84 118 161 219 277 333 427 490
#     4  11  25  49  81 120 163 222 277 345 420 500
#     4  10  24  46  76 111 165 210 268 341 407 498
#     4  10  24  44  74 112 158 216 268 322 418 490
#
# _framework density 28.959053000000001
#
# number of rings (size 3 to 8) (size 9 to 14) (size 15 to 20)
#    0.000    1.714    0.000    1.714   20.000    2.286 
#    0.000    0.000    0.000    0.000    0.000    0.000 
#    0.000    0.000    0.000    0.000    0.000    0.000 
#
# Total GULP energy -78042.642474 kJ/mol
# GULP energy per Si atom -5574.474462 kJ/mol
# Density = 2.889314 g / cm^3
# Si number density = 28.959053 Si / 1000 Ang^3
#
#
#
# Elastic Constant Matrix: (Units=GPa)
#
#
# Indices 1 2 3 4 5 6 
#
# 1 183.6604 62.9033 74.3749 0.0000 0.0000 0.0000
# 2 62.9033 112.2511 9.6174 0.0000 0.0000 0.0000
# 3 74.3749 9.6174 122.7343 0.0000 0.0000 0.0000
# 4 0.0000 0.0000 0.0000 37.4149 0.0000 0.0000
# 5 0.0000 0.0000 0.0000 0.0000 53.7873 0.0000
# 6 0.0000 0.0000 0.0000 0.0000 0.0000 72.8086
#
#
#
# Elastic Compliance Matrix: (Units=1/GPa)
#
#
# Indices 1 2 3 4 5 6 
#
# 1 0.009143 -0.004680 -0.005174 0.000000 0.000000 0.000000
# 2 -0.004680 0.011365 0.001946 0.000000 0.000000 0.000000
# 3 -0.005174 0.001946 0.011130 0.000000 0.000000 0.000000
# 4 0.000000 0.000000 0.000000 0.026727 0.000000 0.000000
# 5 0.000000 0.000000 0.000000 0.000000 0.018592 0.000000
# 6 0.000000 0.000000 0.000000 0.000000 0.000000 0.013735
#
#
# Mechanical properties :
#
#
# Convention : Reuss Voigt Hill
#
# Bulk Modulus (GPa) = 63.20603 79.15968 71.18286
# Shear Modulus (GPa) = 44.72984 50.91884 47.82434
#
# Velocity S-wave (km/s) = 3.93439 4.19776 4.06821
# Velocity P-wave (km/s) = 6.52017 7.13368 6.83381
#
# Compressibility (1/GPa) = 0.01582127
#
# Stress axis : x y z
#
# Youngs Moduli (GPa) = 109.37372 87.99232 89.84384
#
# Poissons Ratio (x) = 0.41183 0.46483
# Poissons Ratio (y) = 0.51190 -0.17480
# Poissons Ratio (z) = 0.56587 -0.17120
#
# Static dielectric constant tensor:
#      x y z
#    x 2.160300 0.000000 0.000000 
#    y 0.000000 2.290190 0.000000 
#    z 0.000000 0.000000 2.540770 
# 
# From -- ./inp_files/9369.got.cif
#   From: 2010.05.17/outbox.cif.g08.bks.cpg/sg43_5_cif.got.tgz:9369.got - 2010.06.03 19:21:55.
