data_PCOD9372360
_publ_section_title
;
Structure prediction by ZEFSAII (Michael W. Deem and Ramdas Pophale) SiO2 
 PCOD9372360
Probable space group: F D D 2
;
_chemical_formula_sum "Si O2"
_cell_formula_units_Z 88
_cell_length_a 26.128161
_cell_length_b 10.998454
_cell_length_c 14.431048
_cell_angle_alpha 90.000000
_cell_angle_beta 90.000000
_cell_angle_gamma 90.000000
_cell_volume 4147.041271
_symmetry_space_group_name_H-M "F D D 2"
_symmetry_group_IT_number 43
_symmetry_cell_setting 'orthorhombic'
loop_
_space_group_symop_operation_xyz
x,y,z
-x,-y,z
1/4-x,1/4+y,1/4+z
1/4+x,1/4-y,1/4+z
x,1/2+y,1/2+z
-x,1/2-y,1/2+z
1/4-x,3/4+y,3/4+z
1/4+x,3/4-y,3/4+z
1/2+x,y,1/2+z
1/2-x,-y,1/2+z
3/4-x,1/4+y,3/4+z
3/4+x,1/4-y,3/4+z
1/2+x,1/2+y,z
1/2-x,1/2-y,z
3/4-x,3/4+y,1/4+z
3/4+x,3/4-y,1/4+z
loop_
_atom_site_type_symbol
_atom_site_label
_atom_site_fract_x
_atom_site_fract_y
_atom_site_fract_z
Si Si1 0.750000 0.250000 0.118300
Si Si2 0.794405 0.847599 0.095566
Si Si3 0.878996 0.165108 0.525633
Si Si4 0.229917 0.610777 0.397793
Si Si5 0.943596 0.801403 0.495955
Si Si6 0.910944 0.163217 0.315243
O O1 0.783564 0.163270 0.185394
O O2 0.787938 0.334458 0.059598
O O3 0.750000 0.750000 0.116801
O O4 0.844349 0.773574 0.063384
O O5 0.804554 0.933998 0.181513
O O6 0.777633 0.923765 0.004575
O O7 0.925852 0.140602 0.594863
O O8 0.902207 0.188612 0.424704
O O9 0.843615 0.045167 0.519005
O O10 0.250000 0.750000 0.400273
O O11 0.269913 0.538066 0.335174
O O12 0.886948 0.836353 0.527716
#
# Coordination Sequence:
#
# PCOD9372360 Si02
#       6
#     8  16  16  16  16  16
#     4  12  24  42  74 106 134 186 244 296 352 424
#     4  11  26  41  69 105 143 187 241 302 370 431
#     4  12  22  43  73 100 136 192 244 292 358 437
#     4  11  20  45  73 102 134 194 247 285 355 449
#     4  12  23  45  71 104 143 181 246 301 354 431
#     4  12  22  43  75  98 138 193 240 294 355 437
#
# _framework density 21.219947999999999
#
# number of rings (size 3 to 8) (size 9 to 14) (size 15 to 20)
#    0.000    0.364    8.182    2.182    0.000    1.455 
#    0.000    0.000    8.000    0.000    0.000    0.000 
#    0.000    0.000    0.000    0.000    0.000    0.000 
#
# Total GULP energy -123205.467606 kJ/mol
# GULP energy per Si atom -5600.248528 kJ/mol
# Density = 2.117165 g / cm^3
# Si number density = 21.219948 Si / 1000 Ang^3
#
#
#
# Elastic Constant Matrix: (Units=GPa)
#
#
# Indices 1 2 3 4 5 6 
#
# 1 128.0498 33.4344 26.9936 0.0000 0.0000 0.0000
# 2 33.4344 73.0233 34.9183 0.0000 0.0000 0.0000
# 3 26.9936 34.9183 85.5282 0.0000 0.0000 0.0000
# 4 0.0000 0.0000 0.0000 45.2789 0.0000 0.0000
# 5 0.0000 0.0000 0.0000 0.0000 28.2481 0.0000
# 6 0.0000 0.0000 0.0000 0.0000 0.0000 32.1626
#
#
#
# Elastic Compliance Matrix: (Units=1/GPa)
#
#
# Indices 1 2 3 4 5 6 
#
# 1 0.009010 -0.003437 -0.001441 0.000000 0.000000 0.000000
# 2 -0.003437 0.018327 -0.006398 0.000000 0.000000 0.000000
# 3 -0.001441 -0.006398 0.014759 0.000000 0.000000 0.000000
# 4 0.000000 0.000000 0.000000 0.022085 0.000000 0.000000
# 5 0.000000 0.000000 0.000000 0.000000 0.035401 0.000000
# 6 0.000000 0.000000 0.000000 0.000000 0.000000 0.031092
#
#
# Mechanical properties :
#
#
# Convention : Reuss Voigt Hill
#
# Bulk Modulus (GPa) = 51.16096 53.03264 52.09680
# Shear Modulus (GPa) = 31.30095 33.88825 32.59460
#
# Velocity S-wave (km/s) = 3.84483 4.00058 3.92348
# Velocity P-wave (km/s) = 6.62363 6.81070 6.71782
#
# Compressibility (1/GPa) = 0.01954615
#
# Stress axis : x y z
#
# Youngs Moduli (GPa) = 110.98173 54.56441 67.75655
#
# Poissons Ratio (x) = 0.18752 0.09762
# Poissons Ratio (y) = 0.38140 0.43348
# Poissons Ratio (z) = 0.15990 0.34908
#
# Static dielectric constant tensor:
#      x y z
#    x 1.786290 0.000000 0.000000 
#    y 0.000000 1.766290 0.000000 
#    z 0.000000 0.000000 1.747360 
# 
# From -- ./inp_files/5769.got.cif
#   From: 2010.05.17/outbox.cif.g08.bks.cpg/sg43_3_cif.got.tgz:5769.got - 2010.06.03 19:21:55.
