data_PCOD9372616
_publ_section_title
;
Structure prediction by ZEFSAII (Michael W. Deem and Ramdas Pophale) SiO2 
 PCOD9372616
Probable space group: F D D 2
;
_chemical_formula_sum "Si O2"
_cell_formula_units_Z 64
_cell_length_a 9.770155
_cell_length_b 29.549485
_cell_length_c 8.963964
_cell_angle_alpha 90.000000
_cell_angle_beta 90.000000
_cell_angle_gamma 90.000000
_cell_volume 2587.923735
_symmetry_space_group_name_H-M "F D D 2"
_symmetry_group_IT_number 43
_symmetry_cell_setting 'orthorhombic'
loop_
_space_group_symop_operation_xyz
x,y,z
-x,-y,z
1/4-x,1/4+y,1/4+z
1/4+x,1/4-y,1/4+z
x,1/2+y,1/2+z
-x,1/2-y,1/2+z
1/4-x,3/4+y,3/4+z
1/4+x,3/4-y,3/4+z
1/2+x,y,1/2+z
1/2-x,-y,1/2+z
3/4-x,1/4+y,3/4+z
3/4+x,1/4-y,3/4+z
1/2+x,1/2+y,z
1/2-x,1/2-y,z
3/4-x,3/4+y,1/4+z
3/4+x,3/4-y,1/4+z
loop_
_atom_site_type_symbol
_atom_site_label
_atom_site_fract_x
_atom_site_fract_y
_atom_site_fract_z
Si Si1 0.694595 0.163526 0.193270
Si Si2 0.734008 0.474958 0.237222
Si Si3 0.760704 0.674454 0.010360
Si Si4 0.487025 0.685906 0.155274
O O1 0.628377 0.193921 0.066994
O O2 0.701344 0.189871 0.350459
O O3 0.601447 0.120091 0.227614
O O4 0.854217 0.153768 0.159130
O O5 0.880045 0.461348 0.312584
O O6 0.705903 0.526259 0.280402
O O7 0.747724 0.461263 0.064530
O O8 0.632598 0.664589 0.114436
#
# Coordination Sequence:
#
# PCOD9372616 Si02
#       4
#    16  16  16  16
#     4  11  24  46  67 103 145 183 243 306 360 442
#     4  11  24  47  70 107 143 188 250 298 371 443
#     4  11  24  45  68 102 144 184 241 306 363 438
#     4  11  26  44  75 104 145 196 243 303 374 439
#
# _framework density 24.730250000000002
#
# number of rings (size 3 to 8) (size 9 to 14) (size 15 to 20)
#    0.000    1.000    2.500    3.000    0.000   14.000 
#    0.000    0.000    0.000    0.000    0.000    0.000 
#    0.000    0.000    0.000    0.000    0.000    0.000 
#
# Total GULP energy -89576.516786 kJ/mol
# GULP energy per Si atom -5598.532299 kJ/mol
# Density = 2.467396 g / cm^3
# Si number density = 24.730250 Si / 1000 Ang^3
#
#
#
# Elastic Constant Matrix: (Units=GPa)
#
#
# Indices 1 2 3 4 5 6 
#
# 1 216.8749 49.6095 61.8070 0.0000 0.0000 0.0000
# 2 49.6095 77.3601 6.6462 0.0000 0.0000 0.0000
# 3 61.8070 6.6462 95.1578 0.0000 0.0000 0.0000
# 4 0.0000 0.0000 0.0000 32.5532 0.0000 0.0000
# 5 0.0000 0.0000 0.0000 0.0000 49.1648 0.0000
# 6 0.0000 0.0000 0.0000 0.0000 0.0000 45.7429
#
#
#
# Elastic Compliance Matrix: (Units=1/GPa)
#
#
# Indices 1 2 3 4 5 6 
#
# 1 0.006664 -0.003925 -0.004054 0.000000 0.000000 0.000000
# 2 -0.003925 0.015317 0.001480 0.000000 0.000000 0.000000
# 3 -0.004054 0.001480 0.013039 0.000000 0.000000 0.000000
# 4 0.000000 0.000000 0.000000 0.030719 0.000000 0.000000
# 5 0.000000 0.000000 0.000000 0.000000 0.020340 0.000000
# 6 0.000000 0.000000 0.000000 0.000000 0.000000 0.021861
#
#
# Mechanical properties :
#
#
# Convention : Reuss Voigt Hill
#
# Bulk Modulus (GPa) = 45.41329 69.50200 57.45765
# Shear Modulus (GPa) = 38.97724 43.58088 41.27906
#
# Velocity S-wave (km/s) = 3.97431 4.20247 4.08998
# Velocity P-wave (km/s) = 6.28200 7.19116 6.75190
#
# Compressibility (1/GPa) = 0.02201999
#
# Stress axis : x y z
#
# Youngs Moduli (GPa) = 150.05215 65.28822 76.69326
#
# Poissons Ratio (x) = 0.25628 0.31095
# Poissons Ratio (y) = 0.58901 -0.11349
# Poissons Ratio (z) = 0.60838 -0.09662
#
# Static dielectric constant tensor:
#      x y z
#    x 1.979300 0.000000 0.000000 
#    y 0.000000 1.976630 0.000000 
#    z 0.000000 0.000000 1.960500 
# 
# From -- ./inp_files/5299.got.cif
#   From: 2010.05.17/outbox.cif.g08.bks.cpg/sg43_3_cif.got.tgz:5299.got - 2010.06.03 19:21:55.
