data_PCOD9372076
_publ_section_title
;
Structure prediction by ZEFSAII (Michael W. Deem and Ramdas Pophale) SiO2 
 PCOD9372076
Probable space group: F D D 2
;
_chemical_formula_sum "Si O2"
_cell_formula_units_Z 104
_cell_length_a 26.254290
_cell_length_b 19.334159
_cell_length_c 9.891580
_cell_angle_alpha 90.000000
_cell_angle_beta 90.000000
_cell_angle_gamma 90.000000
_cell_volume 5021.011680
_symmetry_space_group_name_H-M "F D D 2"
_symmetry_group_IT_number 43
_symmetry_cell_setting 'orthorhombic'
loop_
_space_group_symop_operation_xyz
x,y,z
-x,-y,z
1/4-x,1/4+y,1/4+z
1/4+x,1/4-y,1/4+z
x,1/2+y,1/2+z
-x,1/2-y,1/2+z
1/4-x,3/4+y,3/4+z
1/4+x,3/4-y,3/4+z
1/2+x,y,1/2+z
1/2-x,-y,1/2+z
3/4-x,1/4+y,3/4+z
3/4+x,1/4-y,3/4+z
1/2+x,1/2+y,z
1/2-x,1/2-y,z
3/4-x,3/4+y,1/4+z
3/4+x,3/4-y,1/4+z
loop_
_atom_site_type_symbol
_atom_site_label
_atom_site_fract_x
_atom_site_fract_y
_atom_site_fract_z
Si Si1 0.500000 0.500000 0.507470
Si Si2 0.902863 0.301612 0.904269
Si Si3 0.257436 0.367908 0.981578
Si Si4 0.891534 0.634874 0.398120
Si Si5 0.592157 0.429414 0.423412
Si Si6 0.268301 0.447029 0.730313
Si Si7 0.827648 0.583362 0.153680
O O1 0.502606 0.436448 0.610566
O O2 0.550599 0.491153 0.418484
O O3 0.895793 0.218109 0.905499
O O4 0.874820 0.343240 0.783275
O O5 0.963496 0.315237 0.912003
O O6 0.878190 0.324719 0.045336
O O7 0.262759 0.438475 0.893320
O O8 0.305059 0.359603 0.081398
O O9 0.206164 0.364954 0.066016
O O10 0.849350 0.617080 0.287122
O O11 0.560116 0.358741 0.433581
O O12 0.625781 0.439359 0.557862
O O13 0.290490 0.520965 0.691988
#
# Coordination Sequence:
#
# PCOD9372076 Si02
#       7
#     8  16  16  16  16  16  16
#     4  10  24  44  70 104 140 174 252 294 356 434
#     4  12  29  49  73 109 158 186 254 303 396 428
#     4  11  24  45  71 103 137 189 240 294 364 437
#     4  12  28  48  71 111 147 195 235 319 366 451
#     4  11  27  43  78 103 139 194 243 304 355 444
#     4  11  25  47  74 105 141 196 248 297 366 459
#     4  12  25  43  77  98 142 185 247 286 364 441
#
# _framework density 20.712956999999999
#
# number of rings (size 3 to 8) (size 9 to 14) (size 15 to 20)
#    0.000    0.615    6.154    0.923   10.769    1.231 
#    0.000    0.000    0.000    0.000    0.000    0.000 
#    0.000    0.000    0.000    0.000    0.000    0.000 
#
# Total GULP energy -145260.955535 kJ/mol
# GULP energy per Si atom -5586.959828 kJ/mol
# Density = 2.066581 g / cm^3
# Si number density = 20.712957 Si / 1000 Ang^3
#
#
#
# Elastic Constant Matrix: (Units=GPa)
#
#
# Indices 1 2 3 4 5 6 
#
# 1 93.9152 3.4440 17.2553 0.0000 0.0000 0.0000
# 2 3.4440 34.0948 13.3346 0.0000 0.0000 0.0000
# 3 17.2553 13.3346 90.0911 0.0001 0.0000 0.0000
# 4 0.0000 0.0000 0.0001 24.1794 0.0000 0.0000
# 5 0.0000 0.0000 0.0000 0.0000 42.2388 0.0000
# 6 0.0000 0.0000 0.0000 0.0000 0.0000 29.0439
#
#
#
# Elastic Compliance Matrix: (Units=1/GPa)
#
#
# Indices 1 2 3 4 5 6 
#
# 1 0.011039 -0.000306 -0.002069 0.000000 0.000000 0.000000
# 2 -0.000306 0.031141 -0.004551 0.000000 0.000000 0.000000
# 3 -0.002069 -0.004551 0.012170 0.000000 0.000000 0.000000
# 4 0.000000 0.000000 0.000000 0.041358 0.000000 0.000000
# 5 0.000000 0.000000 0.000000 0.000000 0.023675 0.000000
# 6 0.000000 0.000000 0.000000 0.000000 0.000000 0.034431
#
#
# Mechanical properties :
#
#
# Convention : Reuss Voigt Hill
#
# Bulk Modulus (GPa) = 24.69228 31.79654 28.24441
# Shear Modulus (GPa) = 27.59939 31.36355 29.48147
#
# Velocity S-wave (km/s) = 3.65426 3.89549 3.77680
# Velocity P-wave (km/s) = 5.45453 5.96804 5.71705
#
# Compressibility (1/GPa) = 0.04049848
#
# Stress axis : x y z
#
# Youngs Moduli (GPa) = 90.58562 32.11241 82.17117
#
# Poissons Ratio (x) = 0.00982 0.17002
# Poissons Ratio (y) = 0.02771 0.37393
# Poissons Ratio (z) = 0.18743 0.14613
#
# Static dielectric constant tensor:
#      x y z
#    x 1.754730 0.000000 0.000000 
#    y 0.000000 1.839000 0.000000 
#    z 0.000000 0.000000 1.715710 
# 
# From -- ./inp_files/4301.got.cif
#   From: 2010.05.17/outbox.cif.g08.bks.cpg/sg43_3_cif.got.tgz:4301.got - 2010.06.03 19:21:55.
