data_PCOD9372258
_publ_section_title
;
Structure prediction by ZEFSAII (Michael W. Deem and Ramdas Pophale) SiO2 
 PCOD9372258
Probable space group: F D D 2
;
_chemical_formula_sum "Si O2"
_cell_formula_units_Z 104
_cell_length_a 11.211577
_cell_length_b 27.988570
_cell_length_c 15.820030
_cell_angle_alpha 90.000000
_cell_angle_beta 90.000000
_cell_angle_gamma 90.000000
_cell_volume 4964.262255
_symmetry_space_group_name_H-M "F D D 2"
_symmetry_group_IT_number 43
_symmetry_cell_setting 'orthorhombic'
loop_
_space_group_symop_operation_xyz
x,y,z
-x,-y,z
1/4-x,1/4+y,1/4+z
1/4+x,1/4-y,1/4+z
x,1/2+y,1/2+z
-x,1/2-y,1/2+z
1/4-x,3/4+y,3/4+z
1/4+x,3/4-y,3/4+z
1/2+x,y,1/2+z
1/2-x,-y,1/2+z
3/4-x,1/4+y,3/4+z
3/4+x,1/4-y,3/4+z
1/2+x,1/2+y,z
1/2-x,1/2-y,z
3/4-x,3/4+y,1/4+z
3/4+x,3/4-y,1/4+z
loop_
_atom_site_type_symbol
_atom_site_label
_atom_site_fract_x
_atom_site_fract_y
_atom_site_fract_z
Si Si1 0.115587 0.469342 0.002450
Si Si2 0.460487 0.610613 0.215584
Si Si3 0.500000 0.000000 0.325642
Si Si4 0.365993 0.721765 0.994955
Si Si5 0.084363 0.271382 0.921551
Si Si6 0.948003 0.622226 0.901704
Si Si7 0.468812 0.289556 0.157049
O O1 0.126261 0.482194 0.102038
O O2 0.000000 0.500000 0.973992
O O3 0.228559 0.493624 0.956000
O O4 0.096457 0.414618 0.973680
O O5 0.561470 0.572290 0.191464
O O6 0.337223 0.615943 0.166097
O O7 0.428985 0.597498 0.312007
O O8 0.514369 0.663597 0.212856
O O9 0.597273 0.020412 0.260686
O O10 0.418946 0.033975 0.382456
O O11 0.250000 0.750000 0.025457
O O12 0.449812 0.705004 0.072342
O O13 0.447828 0.757571 0.940831
O O14 0.108281 0.325294 0.892451
#
# Coordination Sequence:
#
# PCOD9372258 Si02
#       7
#    16  16   8  16  16  16  16
#     4  12  22  43  69 100 133 182 237 286 343 427
#     4  12  22  41  68 101 131 175 233 291 346 421
#     4  10  26  46  64  94 144 182 218 292 358 404
#     4  11  22  40  67  97 132 178 228 287 353 412
#     4  11  24  44  67  97 140 183 231 288 349 426
#     4  12  24  40  70 101 134 177 236 290 351 419
#     4  11  23  43  66  97 138 176 229 288 350 422
#
# _framework density 20.949739999999998
#
# number of rings (size 3 to 8) (size 9 to 14) (size 15 to 20)
#    0.000    0.615    6.923    1.385    2.154    1.231 
#    4.154    3.077    0.000    0.000    0.000    0.000 
#    0.000    0.000    0.000    0.000    0.000    0.000 
#
# Total GULP energy -145023.766233 kJ/mol
# GULP energy per Si atom -5577.837163 kJ/mol
# Density = 2.090206 g / cm^3
# Si number density = 20.949740 Si / 1000 Ang^3
#
#
#
# Elastic Constant Matrix: (Units=GPa)
#
#
# Indices 1 2 3 4 5 6 
#
# 1 77.7243 9.9987 1.6830 0.0000 0.0000 0.0000
# 2 9.9987 114.6781 5.7877 0.0000 0.0000 0.0000
# 3 1.6830 5.7877 50.0952 0.0000 0.0000 0.0000
# 4 0.0000 0.0000 0.0000 26.4106 0.0000 0.0000
# 5 0.0000 0.0000 0.0000 0.0000 24.8164 0.0000
# 6 0.0000 0.0000 0.0000 0.0000 0.0000 30.2648
#
#
#
# Elastic Compliance Matrix: (Units=1/GPa)
#
#
# Indices 1 2 3 4 5 6 
#
# 1 0.013017 -0.001119 -0.000308 0.000000 0.000000 0.000000
# 2 -0.001119 0.008867 -0.000987 0.000000 0.000000 0.000000
# 3 -0.000308 -0.000987 0.020086 0.000000 0.000000 0.000000
# 4 0.000000 0.000000 0.000000 0.037864 0.000000 0.000000
# 5 0.000000 0.000000 0.000000 0.000000 0.040296 0.000000
# 6 0.000000 0.000000 0.000000 0.000000 0.000000 0.033042
#
#
# Mechanical properties :
#
#
# Convention : Reuss Voigt Hill
#
# Bulk Modulus (GPa) = 26.92370 30.82626 28.87498
# Shear Modulus (GPa) = 29.34602 31.30024 30.32313
#
# Velocity S-wave (km/s) = 3.74676 3.86950 3.80863
# Velocity P-wave (km/s) = 5.62113 5.89156 5.75793
#
# Compressibility (1/GPa) = 0.03714200
#
# Stress axis : x y z
#
# Youngs Moduli (GPa) = 76.82469 112.77179 49.78500
#
# Poissons Ratio (x) = 0.12623 0.01533
# Poissons Ratio (y) = 0.08599 0.04913
# Poissons Ratio (z) = 0.02366 0.11129
#
# Static dielectric constant tensor:
#      x y z
#    x 1.775040 0.000000 0.000000 
#    y 0.000000 1.797440 0.000000 
#    z 0.000000 0.000000 1.769730 
# 
# From -- ./inp_files/13424.got.cif
#   From: 2010.05.17/outbox.cif.g08.bks.cpg/sg43_7_cif.got.tgz:13424.got - 2010.06.03 19:21:55.
