data_PCOD9372695
_publ_section_title
;
Structure prediction by ZEFSAII (Michael W. Deem and Ramdas Pophale) SiO2 
 PCOD9372695
Probable space group: F D D 2
;
_chemical_formula_sum "Si O2"
_cell_formula_units_Z 112
_cell_length_a 14.140499
_cell_length_b 11.593124
_cell_length_c 28.025877
_cell_angle_alpha 90.000000
_cell_angle_beta 90.000000
_cell_angle_gamma 90.000000
_cell_volume 4594.353716
_symmetry_space_group_name_H-M "F D D 2"
_symmetry_group_IT_number 43
_symmetry_cell_setting 'orthorhombic'
loop_
_space_group_symop_operation_xyz
x,y,z
-x,-y,z
1/4-x,1/4+y,1/4+z
1/4+x,1/4-y,1/4+z
x,1/2+y,1/2+z
-x,1/2-y,1/2+z
1/4-x,3/4+y,3/4+z
1/4+x,3/4-y,3/4+z
1/2+x,y,1/2+z
1/2-x,-y,1/2+z
3/4-x,1/4+y,3/4+z
3/4+x,1/4-y,3/4+z
1/2+x,1/2+y,z
1/2-x,1/2-y,z
3/4-x,3/4+y,1/4+z
3/4+x,3/4-y,1/4+z
loop_
_atom_site_type_symbol
_atom_site_label
_atom_site_fract_x
_atom_site_fract_y
_atom_site_fract_z
Si Si1 0.895127 0.057786 0.573010
Si Si2 0.914459 0.261753 0.502249
Si Si3 0.554808 0.878822 0.173065
Si Si4 0.748053 0.875057 0.437424
Si Si5 0.826676 0.340514 0.758839
Si Si6 0.477947 0.369878 0.330523
Si Si7 0.203189 0.868558 0.192153
O O1 0.875923 0.155610 0.532940
O O2 0.883401 0.118115 0.625007
O O3 0.820769 0.955125 0.573658
O O4 0.000000 0.000000 0.567410
O O5 0.845225 0.353789 0.477020
O O6 0.003604 0.315162 0.530185
O O7 0.970918 0.213174 0.456528
O O8 0.501088 0.756668 0.168070
O O9 0.500000 0.000000 0.168456
O O10 0.750000 0.750000 0.410689
O O11 0.651123 0.874758 0.467912
O O12 0.849205 0.871335 0.464251
O O13 0.750000 0.250000 0.739646
O O14 0.894457 0.308235 0.801886
O O15 0.500000 0.500000 0.313065
O O16 0.446014 0.380609 0.385233
O O17 0.250000 0.750000 0.207648
#
# Coordination Sequence:
#
# PCOD9372695 Si02
#       7
#    16  16  16  16  16  16  16
#     4  11  26  45  78 120 158 212 275 338 405 500
#     4  12  24  47  74 110 156 208 263 329 407 478
#     4  11  26  48  77 116 164 206 268 339 406 490
#     4  12  26  47  79 111 155 212 262 336 411 489
#     4  12  27  48  71 106 153 201 261 339 398 485
#     4  11  26  47  73 112 156 202 268 337 401 494
#     4  11  25  44  75 113 149 206 265 316 404 493
#
# _framework density 24.377749000000001
#
# number of rings (size 3 to 8) (size 9 to 14) (size 15 to 20)
#    0.000    0.571    4.286    2.571   14.000    0.571 
#    0.000    0.000    3.143    0.000    0.000    0.000 
#    0.000    0.000    0.000    0.000    0.000    0.000 
#
# Total GULP energy -156144.000757 kJ/mol
# GULP energy per Si atom -5576.571456 kJ/mol
# Density = 2.432226 g / cm^3
# Si number density = 24.377749 Si / 1000 Ang^3
#
#
#
# Elastic Constant Matrix: (Units=GPa)
#
#
# Indices 1 2 3 4 5 6 
#
# 1 114.2045 49.0391 25.8334 0.0000 0.0000 0.0000
# 2 49.0391 157.0237 22.3298 0.0000 0.0000 0.0000
# 3 25.8334 22.3298 92.4742 0.0000 0.0000 0.0000
# 4 0.0000 0.0000 0.0000 36.4936 0.0000 0.0000
# 5 0.0000 0.0000 0.0000 0.0000 30.0320 0.0000
# 6 0.0000 0.0000 0.0000 0.0000 0.0000 54.2299
#
#
#
# Elastic Compliance Matrix: (Units=1/GPa)
#
#
# Indices 1 2 3 4 5 6 
#
# 1 0.010537 -0.002974 -0.002225 0.000000 0.000000 0.000000
# 2 -0.002974 0.007434 -0.000964 0.000000 0.000000 0.000000
# 3 -0.002225 -0.000964 0.011668 0.000000 0.000000 0.000000
# 4 0.000000 0.000000 0.000000 0.027402 0.000000 0.000000
# 5 0.000000 0.000000 0.000000 0.000000 0.033298 0.000000
# 6 0.000000 0.000000 0.000000 0.000000 0.000000 0.018440
#
#
# Mechanical properties :
#
#
# Convention : Reuss Voigt Hill
#
# Bulk Modulus (GPa) = 57.76412 62.01189 59.88801
# Shear Modulus (GPa) = 39.40800 41.91776 40.66288
#
# Velocity S-wave (km/s) = 4.02500 4.15119 4.08859
# Velocity P-wave (km/s) = 6.73407 6.96202 6.84899
#
# Compressibility (1/GPa) = 0.01731178
#
# Stress axis : x y z
#
# Youngs Moduli (GPa) = 94.90623 134.50887 85.70193
#
# Poissons Ratio (x) = 0.40006 0.19071
# Poissons Ratio (y) = 0.28227 0.08265
# Poissons Ratio (z) = 0.21120 0.12971
#
# Static dielectric constant tensor:
#      x y z
#    x 1.859810 0.000000 0.000000 
#    y 0.000000 1.988980 0.000000 
#    z 0.000000 0.000000 1.955860 
# 
# From -- ./inp_files/29083.got.cif
#   From: 2010.05.17/outbox.cif.g08.bks.cpg/sg43_15_cif.got.tgz:29083.got - 2010.06.03 19:21:55.
