data_PCOD9372724
_publ_section_title
;
Structure prediction by ZEFSAII (Michael W. Deem and Ramdas Pophale) SiO2 
 PCOD9372724
Probable space group: F D D 2
;
_chemical_formula_sum "Si O2"
_cell_formula_units_Z 56
_cell_length_a 17.463030
_cell_length_b 12.892346
_cell_length_c 8.740640
_cell_angle_alpha 90.000000
_cell_angle_beta 90.000000
_cell_angle_gamma 90.000000
_cell_volume 1967.862663
_symmetry_space_group_name_H-M "F D D 2"
_symmetry_group_IT_number 43
_symmetry_cell_setting 'orthorhombic'
loop_
_space_group_symop_operation_xyz
x,y,z
-x,-y,z
1/4-x,1/4+y,1/4+z
1/4+x,1/4-y,1/4+z
x,1/2+y,1/2+z
-x,1/2-y,1/2+z
1/4-x,3/4+y,3/4+z
1/4+x,3/4-y,3/4+z
1/2+x,y,1/2+z
1/2-x,-y,1/2+z
3/4-x,1/4+y,3/4+z
3/4+x,1/4-y,3/4+z
1/2+x,1/2+y,z
1/2-x,1/2-y,z
3/4-x,3/4+y,1/4+z
3/4+x,3/4-y,1/4+z
loop_
_atom_site_type_symbol
_atom_site_label
_atom_site_fract_x
_atom_site_fract_y
_atom_site_fract_z
Si Si1 0.136839 0.886223 0.682840
Si Si2 0.462787 0.157597 0.807795
Si Si3 0.130813 0.309764 0.531457
Si Si4 0.750000 0.750000 0.983184
O O1 0.129427 0.840163 0.853700
O O2 0.186250 0.803721 0.588518
O O3 0.048201 0.914148 0.641662
O O4 0.180384 0.993617 0.645218
O O5 0.446916 0.175612 0.625384
O O6 0.550779 0.135017 0.840856
O O7 0.413138 0.053121 0.824086
#
# Coordination Sequence:
#
# PCOD9372724 Si02
#       4
#    16  16  16   8
#     4  12  27  53  81 124 169 229 285 366 435 537
#     4  11  27  46  79 111 171 214 285 349 444 506
#     4  11  25  48  74 120 156 223 278 358 429 521
#     4  12  30  50  86 122 172 224 296 356 448 520
#
# _framework density 28.457270000000001
#
# number of rings (size 3 to 8) (size 9 to 14) (size 15 to 20)
#    0.000    0.571    0.000    6.857   12.000    4.571 
#    0.000    0.000    0.000    0.000    0.000    0.000 
#    0.000    0.000    0.000    0.000    0.000    0.000 
#
# Total GULP energy -78547.882518 kJ/mol
# GULP energy per Si atom -5610.563037 kJ/mol
# Density = 2.839250 g / cm^3
# Si number density = 28.457270 Si / 1000 Ang^3
#
#
#
# Elastic Constant Matrix: (Units=GPa)
#
#
# Indices 1 2 3 4 5 6 
#
# 1 155.2504 41.7705 60.2204 0.0000 0.0000 0.0000
# 2 41.7705 175.9118 68.2164 0.0000 0.0000 0.0000
# 3 60.2204 68.2164 165.3533 0.0000 0.0000 0.0000
# 4 0.0000 0.0000 0.0000 49.6090 0.0000 0.0000
# 5 0.0000 0.0000 0.0000 0.0000 17.0882 0.0000
# 6 0.0000 0.0000 0.0000 0.0000 0.0000 62.5347
#
#
#
# Elastic Compliance Matrix: (Units=1/GPa)
#
#
# Indices 1 2 3 4 5 6 
#
# 1 0.007612 -0.000872 -0.002412 0.000000 0.000000 0.000000
# 2 -0.000872 0.006867 -0.002516 0.000000 0.000000 0.000000
# 3 -0.002412 -0.002516 0.007964 0.000000 0.000000 0.000000
# 4 0.000000 0.000000 0.000000 0.020158 0.000000 0.000000
# 5 0.000000 0.000000 0.000000 0.000000 0.058520 0.000000
# 6 0.000000 0.000000 0.000000 0.000000 0.000000 0.015991
#
#
# Mechanical properties :
#
#
# Convention : Reuss Voigt Hill
#
# Bulk Modulus (GPa) = 92.22391 92.99222 92.60807
# Shear Modulus (GPa) = 37.78563 47.60026 42.69295
#
# Velocity S-wave (km/s) = 3.64786 4.09429 3.87750
# Velocity P-wave (km/s) = 7.08665 7.42292 7.25674
#
# Compressibility (1/GPa) = 0.01084317
#
# Stress axis : x y z
#
# Youngs Moduli (GPa) = 131.37973 145.62009 125.56511
#
# Poissons Ratio (x) = 0.12696 0.30291
# Poissons Ratio (y) = 0.11455 0.31586
# Poissons Ratio (z) = 0.31694 0.36631
#
# Static dielectric constant tensor:
#      x y z
#    x 2.130090 0.000000 0.000000 
#    y 0.000000 2.267020 0.000000 
#    z 0.000000 0.000000 2.279940 
# 
# From -- ./inp_files/2151.got.cif
#   From: 2010.05.17/outbox.cif.g08.bks.cpg/sg43_2_cif.got.tgz:2151.got - 2010.06.03 19:21:55.
