data_PCOD9372806
_publ_section_title
;
Structure prediction by ZEFSAII (Michael W. Deem and Ramdas Pophale) SiO2 
 PCOD9372806
Probable space group: F D D 2
;
_chemical_formula_sum "Si O2"
_cell_formula_units_Z 72
_cell_length_a 21.524764
_cell_length_b 6.450308
_cell_length_c 21.101385
_cell_angle_alpha 90.000000
_cell_angle_beta 90.000000
_cell_angle_gamma 90.000000
_cell_volume 2929.744937
_symmetry_space_group_name_H-M "F D D 2"
_symmetry_group_IT_number 43
_symmetry_cell_setting 'orthorhombic'
loop_
_space_group_symop_operation_xyz
x,y,z
-x,-y,z
1/4-x,1/4+y,1/4+z
1/4+x,1/4-y,1/4+z
x,1/2+y,1/2+z
-x,1/2-y,1/2+z
1/4-x,3/4+y,3/4+z
1/4+x,3/4-y,3/4+z
1/2+x,y,1/2+z
1/2-x,-y,1/2+z
3/4-x,1/4+y,3/4+z
3/4+x,1/4-y,3/4+z
1/2+x,1/2+y,z
1/2-x,1/2-y,z
3/4-x,3/4+y,1/4+z
3/4+x,3/4-y,1/4+z
loop_
_atom_site_type_symbol
_atom_site_label
_atom_site_fract_x
_atom_site_fract_y
_atom_site_fract_z
Si Si1 0.500000 0.000000 0.739120
Si Si2 0.027954 0.700845 0.024606
Si Si3 0.689060 0.622780 0.064917
Si Si4 0.348262 0.882672 0.886101
Si Si5 0.846526 0.410197 0.216829
O O1 0.464315 0.835928 0.782257
O O2 0.549462 0.894761 0.692306
O O3 0.058428 0.858475 0.071528
O O4 0.080348 0.579514 0.985475
O O5 0.000000 0.500000 0.063155
O O6 0.970364 0.763997 0.979855
O O7 0.750000 0.750000 0.082969
O O8 0.645595 0.554785 0.123010
O O9 0.647476 0.741419 0.012392
O O10 0.380046 0.110702 0.896263
#
# Coordination Sequence:
#
# PCOD9372806 Si02
#       5
#     8  16  16  16  16
#     4  12  28  46  74 112 146 198 250 308 372 452
#     4   8  22  44  69 104 141 184 248 300 349 453
#     4  12  27  48  72 110 154 187 255 311 362 455
#     4  12  23  44  77 105 145 204 236 303 386 431
#     4   9  22  45  67 106 141 189 241 302 357 436
#
# _framework density 24.575517000000001
#
# number of rings (size 3 to 8) (size 9 to 14) (size 15 to 20)
#    1.333    0.000    2.222    2.667    3.111    1.778 
#    8.000    0.000    0.000    0.000    0.000    0.000 
#    0.000    0.000    0.000    0.000    0.000    0.000 
#
# Total GULP energy -100485.786812 kJ/mol
# GULP energy per Si atom -5582.543712 kJ/mol
# Density = 2.451958 g / cm^3
# Si number density = 24.575517 Si / 1000 Ang^3
#
#
#
# Elastic Constant Matrix: (Units=GPa)
#
#
# Indices 1 2 3 4 5 6 
#
# 1 137.3087 30.7420 10.3929 0.0000 0.0000 0.0001
# 2 30.7420 56.0747 18.0620 -0.0003 -0.0001 0.0002
# 3 10.3929 18.0620 42.9715 0.0000 0.0000 0.0000
# 4 0.0000 -0.0003 0.0000 40.4707 0.0000 0.0000
# 5 0.0000 -0.0001 0.0000 0.0000 27.3374 0.0000
# 6 0.0001 0.0002 0.0000 0.0000 0.0000 42.2705
#
#
#
# Elastic Compliance Matrix: (Units=1/GPa)
#
#
# Indices 1 2 3 4 5 6 
#
# 1 0.008302 -0.004516 -0.000110 0.000000 0.000000 0.000000
# 2 -0.004516 0.023083 -0.008610 0.000000 0.000000 0.000000
# 3 -0.000110 -0.008610 0.026917 0.000000 0.000000 0.000000
# 4 0.000000 0.000000 0.000000 0.024709 0.000000 0.000000
# 5 0.000000 0.000000 0.000000 0.000000 0.036580 0.000000
# 6 0.000000 0.000000 0.000000 0.000000 0.000000 0.023657
#
#
# Mechanical properties :
#
#
# Convention : Reuss Voigt Hill
#
# Bulk Modulus (GPa) = 31.41696 39.41652 35.41674
# Shear Modulus (GPa) = 27.72697 33.82624 30.77661
#
# Velocity S-wave (km/s) = 3.36257 3.71404 3.54266
# Velocity P-wave (km/s) = 5.28085 5.87076 5.58360
#
# Compressibility (1/GPa) = 0.03182994
#
# Stress axis : x y z
#
# Youngs Moduli (GPa) = 120.44844 43.32257 37.15159
#
# Poissons Ratio (x) = 0.19566 0.00407
# Poissons Ratio (y) = 0.54398 0.31987
# Poissons Ratio (z) = 0.01321 0.37301
#
# Static dielectric constant tensor:
#      x y z
#    x 2.279740 0.000000 0.000000 
#    y 0.000000 2.054650 0.000000 
#    z 0.000000 0.000000 1.933930 
# 
# From -- ./inp_files/18265.got.cif
#   From: 2010.05.17/outbox.cif.g08.bks.cpg/sg43_10_cif.got.tgz:18265.got - 2010.06.03 19:21:55.
