data_PCOD9372364
_publ_section_title
;
Structure prediction by ZEFSAII (Michael W. Deem and Ramdas Pophale) SiO2 
 PCOD9372364
Probable space group: F D D 2
;
_chemical_formula_sum "Si O2"
_cell_formula_units_Z 64
_cell_length_a 33.021164
_cell_length_b 14.576991
_cell_length_c 4.934014
_cell_angle_alpha 90.000000
_cell_angle_beta 90.000000
_cell_angle_gamma 90.000000
_cell_volume 2374.983743
_symmetry_space_group_name_H-M "F D D 2"
_symmetry_group_IT_number 43
_symmetry_cell_setting 'orthorhombic'
loop_
_space_group_symop_operation_xyz
x,y,z
-x,-y,z
1/4-x,1/4+y,1/4+z
1/4+x,1/4-y,1/4+z
x,1/2+y,1/2+z
-x,1/2-y,1/2+z
1/4-x,3/4+y,3/4+z
1/4+x,3/4-y,3/4+z
1/2+x,y,1/2+z
1/2-x,-y,1/2+z
3/4-x,1/4+y,3/4+z
3/4+x,1/4-y,3/4+z
1/2+x,1/2+y,z
1/2-x,1/2-y,z
3/4-x,3/4+y,1/4+z
3/4+x,3/4-y,1/4+z
loop_
_atom_site_type_symbol
_atom_site_label
_atom_site_fract_x
_atom_site_fract_y
_atom_site_fract_z
Si Si1 0.949016 0.743536 0.931400
Si Si2 0.331113 0.239280 0.315753
Si Si3 0.382653 0.910633 0.044758
Si Si4 0.728992 0.113047 0.689590
O O1 0.904432 0.734997 0.809214
O O2 0.973219 0.670619 0.746957
O O3 0.974293 0.836707 0.889090
O O4 0.953213 0.701886 0.233175
O O5 0.360347 0.324494 0.405530
O O6 0.329872 0.185633 0.599323
O O7 0.291792 0.287954 0.190167
O O8 0.352704 0.174199 0.100737
#
# Coordination Sequence:
#
# PCOD9372364 Si02
#       4
#    16  16  16  16
#     4   9  17  31  52  77 102 134 182 230 264 309
#     4  11  21  35  55  80 109 141 178 224 276 330
#     4  11  21  35  55  80 109 141 178 224 276 330
#     4   9  17  31  52  77 102 134 182 230 264 309
#
# _framework density 26.947552000000002
#
# number of rings (size 3 to 8) (size 9 to 14) (size 15 to 20)
#    0.000    2.000    0.000    7.500    0.000    0.000 
#    0.000    0.000    0.000    9.000    0.000    0.000 
#    0.000    0.000    0.000    0.000    0.000    0.000 
#
# Total GULP energy -89330.478527 kJ/mol
# GULP energy per Si atom -5583.154908 kJ/mol
# Density = 2.688622 g / cm^3
# Si number density = 26.947552 Si / 1000 Ang^3
#
#
#
# Elastic Constant Matrix: (Units=GPa)
#
#
# Indices 1 2 3 4 5 6 
#
# 1 117.6176 11.3728 11.8417 0.0002 0.0000 0.0000
# 2 11.3728 118.8235 22.6788 0.0001 0.0001 0.0001
# 3 11.8417 22.6788 147.8260 -0.0002 0.0002 0.0003
# 4 0.0002 0.0001 -0.0002 26.9671 0.0000 0.0001
# 5 0.0000 0.0001 0.0002 0.0000 24.5914 0.0002
# 6 0.0000 0.0001 0.0003 0.0001 0.0002 30.3422
#
#
#
# Elastic Compliance Matrix: (Units=1/GPa)
#
#
# Indices 1 2 3 4 5 6 
#
# 1 0.008630 -0.000715 -0.000582 0.000000 0.000000 0.000000
# 2 -0.000715 0.008729 -0.001282 0.000000 0.000000 0.000000
# 3 -0.000582 -0.001282 0.007008 0.000000 0.000000 0.000000
# 4 0.000000 0.000000 0.000000 0.037082 0.000000 0.000000
# 5 0.000000 0.000000 0.000000 0.000000 0.040665 0.000000
# 6 0.000000 0.000000 0.000000 0.000000 0.000000 0.032957
#
#
# Mechanical properties :
#
#
# Convention : Reuss Voigt Hill
#
# Bulk Modulus (GPa) = 52.05677 52.89486 52.47582
# Shear Modulus (GPa) = 34.09917 38.93840 36.51878
#
# Velocity S-wave (km/s) = 3.56109 3.80540 3.68527
# Velocity P-wave (km/s) = 6.02231 6.24336 6.13383
#
# Compressibility (1/GPa) = 0.01920980
#
# Stress axis : x y z
#
# Youngs Moduli (GPa) = 115.87735 114.56150 142.69489
#
# Poissons Ratio (x) = 0.08191 0.08299
# Poissons Ratio (y) = 0.08285 0.18292
# Poissons Ratio (z) = 0.06740 0.14685
#
# Static dielectric constant tensor:
#      x y z
#    x 2.125010 0.000000 0.000000 
#    y 0.000000 2.283620 0.000000 
#    z 0.000000 0.000000 1.958220 
# 
# From -- ./inp_files/1334.got.cif
#   From: 2010.05.17/outbox.cif.g08.bks.cpg/sg43_1_cif.got.tgz:1334.got - 2010.06.03 19:21:55.
