data_PCOD9372573
_publ_section_title
;
Structure prediction by ZEFSAII (Michael W. Deem and Ramdas Pophale) SiO2 
 PCOD9372573
Probable space group: F D D 2
;
_chemical_formula_sum "Si O2"
_cell_formula_units_Z 88
_cell_length_a 18.699901
_cell_length_b 9.033689
_cell_length_c 23.438760
_cell_angle_alpha 90.000000
_cell_angle_beta 90.000000
_cell_angle_gamma 90.000000
_cell_volume 3959.488397
_symmetry_space_group_name_H-M "F D D 2"
_symmetry_group_IT_number 43
_symmetry_cell_setting 'orthorhombic'
loop_
_space_group_symop_operation_xyz
x,y,z
-x,-y,z
1/4-x,1/4+y,1/4+z
1/4+x,1/4-y,1/4+z
x,1/2+y,1/2+z
-x,1/2-y,1/2+z
1/4-x,3/4+y,3/4+z
1/4+x,3/4-y,3/4+z
1/2+x,y,1/2+z
1/2-x,-y,1/2+z
3/4-x,1/4+y,3/4+z
3/4+x,1/4-y,3/4+z
1/2+x,1/2+y,z
1/2-x,1/2-y,z
3/4-x,3/4+y,1/4+z
3/4+x,3/4-y,1/4+z
loop_
_atom_site_type_symbol
_atom_site_label
_atom_site_fract_x
_atom_site_fract_y
_atom_site_fract_z
Si Si1 0.677823 0.445607 0.811460
Si Si2 0.933095 0.070036 0.269844
Si Si3 0.250000 0.750000 0.721485
Si Si4 0.683494 0.353763 0.486280
Si Si5 0.080980 0.224735 0.617757
Si Si6 0.644644 0.533798 0.162907
O O1 0.691862 0.317337 0.764846
O O2 0.635749 0.567216 0.774404
O O3 0.752013 0.481776 0.844629
O O4 0.627503 0.387595 0.861275
O O5 0.955586 0.228187 0.246973
O O6 0.868503 0.088090 0.312256
O O7 0.908560 0.967763 0.217279
O O8 0.000000 0.000000 0.301120
O O9 0.282470 0.889973 0.686559
O O10 0.750000 0.250000 0.500782
O O11 0.669325 0.354943 0.418424
O O12 0.128681 0.366394 0.639514
#
# Coordination Sequence:
#
# PCOD9372573 Si02
#       6
#    16  16   8  16  16  16
#     4  12  25  47  75 109 154 201 252 318 389 455
#     4  11  25  48  76 104 148 198 248 311 389 461
#     4  12  26  44  78 114 146 202 252 322 380 486
#     4  11  30  46  73 112 149 200 257 320 378 463
#     4  11  25  50  73 106 152 202 250 321 386 459
#     4  11  23  45  75 111 148 196 253 302 388 463
#
# _framework density 22.225093999999999
#
# number of rings (size 3 to 8) (size 9 to 14) (size 15 to 20)
#    0.000    0.727    3.636    2.182   11.455    1.455 
#    0.000    0.000    0.000    0.000    0.000    0.000 
#    0.000    0.000    0.000    0.000    0.000    0.000 
#
# Total GULP energy -122758.271505 kJ/mol
# GULP energy per Si atom -5579.921432 kJ/mol
# Density = 2.217451 g / cm^3
# Si number density = 22.225094 Si / 1000 Ang^3
#
#
#
# Elastic Constant Matrix: (Units=GPa)
#
#
# Indices 1 2 3 4 5 6 
#
# 1 47.5365 25.1850 42.7330 0.0000 0.0000 0.0000
# 2 25.1850 55.2685 25.5386 0.0000 0.0000 0.0000
# 3 42.7330 25.5386 122.2976 0.0000 0.0000 0.0000
# 4 0.0000 0.0000 0.0000 23.1980 0.0000 0.0000
# 5 0.0000 0.0000 0.0000 0.0000 -41.3444 0.0000
# 6 0.0000 0.0000 0.0000 0.0000 0.0000 35.7318
#
#
#
# Elastic Compliance Matrix: (Units=1/GPa)
#
#
# Indices 1 2 3 4 5 6 
#
# 1 0.036618 -0.011924 -0.010305 0.000000 0.000000 0.000000
# 2 -0.011924 0.023909 -0.000826 0.000000 0.000000 0.000000
# 3 -0.010305 -0.000826 0.011950 0.000000 0.000000 0.000000
# 4 0.000000 0.000000 0.000000 0.043107 0.000000 0.000000
# 5 0.000000 0.000000 0.000000 0.000000 -0.024187 0.000000
# 6 0.000000 0.000000 0.000000 0.000000 0.000000 0.027986
#
#
# Mechanical properties :
#
#
# Convention : Reuss Voigt Hill
#
# Bulk Modulus (GPa) = 37.92778 45.77954 41.85366
# Shear Modulus (GPa) = 28.68913 12.29349 20.49131
#
# Velocity S-wave (km/s) = 3.59673 2.35443 3.03972
# Velocity P-wave (km/s) = 5.86097 5.29471 5.58502
#
# Compressibility (1/GPa) = 0.02636590
#
# Stress axis : x y z
#
# Youngs Moduli (GPa) = 27.30933 41.82525 83.68231
#
# Poissons Ratio (x) = 0.49874 0.86232
# Poissons Ratio (y) = 0.32565 0.06913
# Poissons Ratio (z) = 0.28142 0.03455
#
# Static dielectric constant tensor:
#      x y z
#    x 1.850950 0.000000 0.000000 
#    y 0.000000 1.849470 0.000000 
#    z 0.000000 0.000000 1.800700 
# 
# From -- ./inp_files/22351.got.cif
#   From: 2010.05.17/outbox.cif.g08.bks.cpg/sg43_12_cif.got.tgz:22351.got - 2010.06.03 19:21:55.
