data_PCOD9372634
_publ_section_title
;
Structure prediction by ZEFSAII (Michael W. Deem and Ramdas Pophale) SiO2 
 PCOD9372634
Probable space group: F D D 2
;
_chemical_formula_sum "Si O2"
_cell_formula_units_Z 88
_cell_length_a 11.850375
_cell_length_b 24.535589
_cell_length_c 13.347220
_cell_angle_alpha 90.000000
_cell_angle_beta 90.000000
_cell_angle_gamma 90.000000
_cell_volume 3880.783371
_symmetry_space_group_name_H-M "F D D 2"
_symmetry_group_IT_number 43
_symmetry_cell_setting 'orthorhombic'
loop_
_space_group_symop_operation_xyz
x,y,z
-x,-y,z
1/4-x,1/4+y,1/4+z
1/4+x,1/4-y,1/4+z
x,1/2+y,1/2+z
-x,1/2-y,1/2+z
1/4-x,3/4+y,3/4+z
1/4+x,3/4-y,3/4+z
1/2+x,y,1/2+z
1/2-x,-y,1/2+z
3/4-x,1/4+y,3/4+z
3/4+x,1/4-y,3/4+z
1/2+x,1/2+y,z
1/2-x,1/2-y,z
3/4-x,3/4+y,1/4+z
3/4+x,3/4-y,1/4+z
loop_
_atom_site_type_symbol
_atom_site_label
_atom_site_fract_x
_atom_site_fract_y
_atom_site_fract_z
Si Si1 0.068623 0.658727 0.151440
Si Si2 0.852485 0.824907 0.993190
Si Si3 0.522250 0.075483 0.572511
Si Si4 0.250000 0.250000 0.135377
Si Si5 0.527873 0.658764 0.418309
Si Si6 0.751765 0.478290 0.581908
O O1 0.201909 0.644834 0.150175
O O2 0.025872 0.709253 0.219164
O O3 0.009518 0.605405 0.202747
O O4 0.030318 0.666396 0.037628
O O5 0.912226 0.868457 0.063068
O O6 0.842367 0.769806 0.056481
O O7 0.927071 0.811687 0.897843
O O8 0.507691 0.051174 0.460085
O O9 0.406278 0.089059 0.627528
O O10 0.616901 0.032773 0.612063
O O11 0.473927 0.709704 0.358027
#
# Coordination Sequence:
#
# PCOD9372634 Si02
#       6
#    16  16  16   8  16  16
#     4  11  26  48  69 110 146 191 250 307 369 439
#     4  11  25  43  75 104 141 199 246 304 348 454
#     4  11  25  45  71 112 141 196 244 305 371 439
#     4  12  24  46  76 104 148 194 252 290 374 438
#     4  12  26  46  73 104 154 186 243 315 370 439
#     4  11  24  46  71 104 143 194 246 292 372 446
#
# _framework density 22.675833999999998
#
# number of rings (size 3 to 8) (size 9 to 14) (size 15 to 20)
#    0.000    0.727    3.636    3.273   12.727    0.000 
#    0.000    0.000    0.000    0.000    0.000    0.000 
#    0.000    0.000    0.000    0.000    0.000    0.000 
#
# Total GULP energy -122796.815562 kJ/mol
# GULP energy per Si atom -5581.673435 kJ/mol
# Density = 2.262422 g / cm^3
# Si number density = 22.675834 Si / 1000 Ang^3
#
#
#
# Elastic Constant Matrix: (Units=GPa)
#
#
# Indices 1 2 3 4 5 6 
#
# 1 97.7071 33.1018 37.1760 0.0000 0.0000 0.0000
# 2 33.1018 59.7278 32.2301 0.0000 0.0000 0.0000
# 3 37.1760 32.2301 119.0326 0.0000 0.0000 0.0000
# 4 0.0000 0.0000 0.0000 28.6068 0.0000 0.0000
# 5 0.0000 0.0000 0.0000 0.0000 27.8305 0.0000
# 6 0.0000 0.0000 0.0000 0.0000 0.0000 29.7022
#
#
#
# Elastic Compliance Matrix: (Units=1/GPa)
#
#
# Indices 1 2 3 4 5 6 
#
# 1 0.013211 -0.005967 -0.002510 0.000000 0.000000 0.000000
# 2 -0.005967 0.022303 -0.004175 0.000000 0.000000 0.000000
# 3 -0.002510 -0.004175 0.010316 0.000000 0.000000 0.000000
# 4 0.000000 0.000000 0.000000 0.034957 0.000000 0.000000
# 5 0.000000 0.000000 0.000000 0.000000 0.035932 0.000000
# 6 0.000000 0.000000 0.000000 0.000000 0.000000 0.033668
#
#
# Mechanical properties :
#
#
# Convention : Reuss Voigt Hill
#
# Bulk Modulus (GPa) = 48.72326 53.49815 51.11071
# Shear Modulus (GPa) = 27.39230 28.82520 28.10875
#
# Velocity S-wave (km/s) = 3.47939 3.56924 3.52460
# Velocity P-wave (km/s) = 6.13800 6.37415 6.25719
#
# Compressibility (1/GPa) = 0.02052408
#
# Stress axis : x y z
#
# Youngs Moduli (GPa) = 75.69168 44.83758 96.94050
#
# Poissons Ratio (x) = 0.26756 0.24336
# Poissons Ratio (y) = 0.45167 0.40474
# Poissons Ratio (z) = 0.19002 0.18720
#
# Static dielectric constant tensor:
#      x y z
#    x 1.911810 0.000000 0.000000 
#    y 0.000000 1.836060 0.000000 
#    z 0.000000 0.000000 1.790460 
# 
# From -- ./inp_files/5759.got.cif
#   From: 2010.05.17/outbox.cif.g08.bks.cpg/sg43_3_cif.got.tgz:5759.got - 2010.06.03 19:21:55.
