data_PCOD9372419
_publ_section_title
;
Structure prediction by ZEFSAII (Michael W. Deem and Ramdas Pophale) SiO2 
 PCOD9372419
Probable space group: F D D 2
;
_chemical_formula_sum "Si O2"
_cell_formula_units_Z 112
_cell_length_a 11.413192
_cell_length_b 28.329222
_cell_length_c 14.519327
_cell_angle_alpha 90.000000
_cell_angle_beta 90.000000
_cell_angle_gamma 90.000000
_cell_volume 4694.488262
_symmetry_space_group_name_H-M "F D D 2"
_symmetry_group_IT_number 43
_symmetry_cell_setting 'orthorhombic'
loop_
_space_group_symop_operation_xyz
x,y,z
-x,-y,z
1/4-x,1/4+y,1/4+z
1/4+x,1/4-y,1/4+z
x,1/2+y,1/2+z
-x,1/2-y,1/2+z
1/4-x,3/4+y,3/4+z
1/4+x,3/4-y,3/4+z
1/2+x,y,1/2+z
1/2-x,-y,1/2+z
3/4-x,1/4+y,3/4+z
3/4+x,1/4-y,3/4+z
1/2+x,1/2+y,z
1/2-x,1/2-y,z
3/4-x,3/4+y,1/4+z
3/4+x,3/4-y,1/4+z
loop_
_atom_site_type_symbol
_atom_site_label
_atom_site_fract_x
_atom_site_fract_y
_atom_site_fract_z
Si Si1 0.485705 0.420713 0.473480
Si Si2 0.638357 0.778355 0.108572
Si Si3 0.655131 0.860957 0.255322
Si Si4 0.692240 0.926831 0.102824
Si Si5 0.759445 0.976293 0.507847
Si Si6 0.692577 0.701014 0.366402
Si Si7 0.347903 0.573120 0.293693
O O1 0.560668 0.424453 0.566935
O O2 0.386277 0.460612 0.474142
O O3 0.578906 0.422683 0.389080
O O4 0.416613 0.372255 0.489408
O O5 0.750000 0.750000 0.068205
O O6 0.677365 0.820657 0.177540
O O7 0.566927 0.741449 0.170930
O O8 0.533916 0.802511 0.051280
O O9 0.694302 0.909074 0.207366
O O10 0.520745 0.857254 0.287304
O O11 0.723536 0.842488 0.343771
O O12 0.733015 0.979152 0.077559
O O13 0.679295 0.940341 0.564259
O O14 0.750000 0.750000 0.330021
O O15 0.670002 0.708150 0.473035
#
# Coordination Sequence:
#
# PCOD9372419 Si02
#       7
#    16  16  16  16  16  16  16
#     4  12  24  46  72 109 154 196 250 313 385 455
#     4  11  21  47  75 103 142 194 247 314 377 445
#     4  11  22  45  74  96 144 192 237 310 372 449
#     4  11  22  42  75 105 138 191 245 302 381 449
#     4  11  23  44  74 106 147 193 247 315 377 445
#     4  12  25  49  70 104 151 193 253 319 378 466
#     4  12  28  45  75 109 152 202 251 317 386 460
#
# _framework density 23.857766000000002
#
# number of rings (size 3 to 8) (size 9 to 14) (size 15 to 20)
#    0.000    0.571    8.571    1.286    2.000    2.286 
#    2.571    0.000    0.000    0.000    0.000    0.000 
#    0.000    0.000    0.000    0.000    0.000    0.000 
#
# Total GULP energy -156448.493545 kJ/mol
# GULP energy per Si atom -5587.446198 kJ/mol
# Density = 2.380346 g / cm^3
# Si number density = 23.857766 Si / 1000 Ang^3
#
#
#
# Elastic Constant Matrix: (Units=GPa)
#
#
# Indices 1 2 3 4 5 6 
#
# 1 131.6762 48.3870 34.7761 0.0000 0.0000 0.0000
# 2 48.3870 53.1786 22.3463 0.0000 0.0000 0.0000
# 3 34.7761 22.3463 53.7679 0.0000 0.0000 0.0000
# 4 0.0000 0.0000 0.0000 16.3884 0.0000 0.0000
# 5 0.0000 0.0000 0.0000 0.0000 31.7612 0.0000
# 6 0.0000 0.0000 0.0000 0.0000 0.0000 34.3358
#
#
#
# Elastic Compliance Matrix: (Units=1/GPa)
#
#
# Indices 1 2 3 4 5 6 
#
# 1 0.012056 -0.009321 -0.003924 0.000000 0.000000 0.000000
# 2 -0.009321 0.029990 -0.006435 0.000000 0.000000 0.000000
# 3 -0.003924 -0.006435 0.023811 0.000000 0.000000 0.000000
# 4 0.000000 0.000000 0.000000 0.061019 0.000000 0.000000
# 5 0.000000 0.000000 0.000000 0.000000 0.031485 0.000000
# 6 0.000000 0.000000 0.000000 0.000000 0.000000 0.029124
#
#
# Mechanical properties :
#
#
# Convention : Reuss Voigt Hill
#
# Bulk Modulus (GPa) = 37.74072 49.96017 43.85044
# Shear Modulus (GPa) = 21.21560 25.37131 23.29345
#
# Velocity S-wave (km/s) = 2.98527 3.26458 3.12804
# Velocity P-wave (km/s) = 5.26648 5.93265 5.60946
#
# Compressibility (1/GPa) = 0.02649658
#
# Stress axis : x y z
#
# Youngs Moduli (GPa) = 82.94828 33.34486 41.99769
#
# Poissons Ratio (x) = 0.31080 0.16479
# Poissons Ratio (y) = 0.77313 0.27027
# Poissons Ratio (z) = 0.32546 0.21459
#
# Static dielectric constant tensor:
#      x y z
#    x 1.947130 0.000000 0.000000 
#    y 0.000000 2.039180 0.000000 
#    z 0.000000 0.000000 1.932500 
# 
# From -- ./inp_files/9792.got.cif
#   From: 2010.05.17/outbox.cif.g08.bks.cpg/sg43_5_cif.got.tgz:9792.got - 2010.06.03 19:21:55.
