data_PCOD9372655
_publ_section_title
;
Structure prediction by ZEFSAII (Michael W. Deem and Ramdas Pophale) SiO2 
 PCOD9372655
Probable space group: F D D 2
;
_chemical_formula_sum "Si O2"
_cell_formula_units_Z 112
_cell_length_a 19.781651
_cell_length_b 14.869232
_cell_length_c 16.782359
_cell_angle_alpha 90.000000
_cell_angle_beta 90.000000
_cell_angle_gamma 90.000000
_cell_volume 4936.328808
_symmetry_space_group_name_H-M "F D D 2"
_symmetry_group_IT_number 43
_symmetry_cell_setting 'orthorhombic'
loop_
_space_group_symop_operation_xyz
x,y,z
-x,-y,z
1/4-x,1/4+y,1/4+z
1/4+x,1/4-y,1/4+z
x,1/2+y,1/2+z
-x,1/2-y,1/2+z
1/4-x,3/4+y,3/4+z
1/4+x,3/4-y,3/4+z
1/2+x,y,1/2+z
1/2-x,-y,1/2+z
3/4-x,1/4+y,3/4+z
3/4+x,1/4-y,3/4+z
1/2+x,1/2+y,z
1/2-x,1/2-y,z
3/4-x,3/4+y,1/4+z
3/4+x,3/4-y,1/4+z
loop_
_atom_site_type_symbol
_atom_site_label
_atom_site_fract_x
_atom_site_fract_y
_atom_site_fract_z
Si Si1 0.502528 0.600011 0.627750
Si Si2 0.291763 0.439879 0.729517
Si Si3 0.131380 0.711318 0.685981
Si Si4 0.068231 0.814978 0.037247
Si Si5 0.903332 0.080666 0.345216
Si Si6 0.855690 0.342056 0.500144
Si Si7 0.492593 0.609153 0.198313
O O1 0.500000 0.500000 0.594658
O O2 0.453048 0.657115 0.571005
O O3 0.578081 0.636661 0.620070
O O4 0.470235 0.595381 0.715096
O O5 0.219524 0.489310 0.733854
O O6 0.299663 0.357650 0.669142
O O7 0.349018 0.513423 0.710389
O O8 0.184231 0.652310 0.733895
O O9 0.141147 0.684402 0.593108
O O10 0.134265 0.812007 0.720574
O O11 0.061113 0.664248 0.713512
O O12 0.138574 0.771426 0.068015
O O13 0.031250 0.844543 0.117142
O O14 0.937973 0.125023 0.268157
O O15 0.500000 0.500000 0.189239
#
# Coordination Sequence:
#
# PCOD9372655 Si02
#       7
#    16  16  16  16  16  16  16
#     4  11  24  47  72 105 150 195 250 315 380 459
#     4  11  25  47  70 110 147 196 253 315 387 459
#     4  12  26  46  77 109 153 198 253 319 394 462
#     4  11  26  47  72 108 149 194 252 314 387 464
#     4  11  26  45  74 106 147 199 251 311 377 467
#     4  12  24  50  74 111 154 197 256 320 385 471
#     4  12  25  49  74 108 149 198 256 315 384 466
#
# _framework density 22.688927
#
# number of rings (size 3 to 8) (size 9 to 14) (size 15 to 20)
#    0.000    0.571    5.714    1.714    4.000    1.714 
#    5.143    0.000    0.000    0.000    0.000    0.000 
#    0.000    0.000    0.000    0.000    0.000    0.000 
#
# Total GULP energy -156166.873465 kJ/mol
# GULP energy per Si atom -5577.388338 kJ/mol
# Density = 2.263729 g / cm^3
# Si number density = 22.688927 Si / 1000 Ang^3
#
#
#
# Elastic Constant Matrix: (Units=GPa)
#
#
# Indices 1 2 3 4 5 6 
#
# 1 61.2845 14.0115 44.7146 0.0000 0.0000 0.0000
# 2 14.0115 116.4618 49.2443 0.0000 0.0000 0.0000
# 3 44.7146 49.2443 119.8298 0.0000 0.0000 0.0000
# 4 0.0000 0.0000 0.0000 47.8090 0.0000 0.0000
# 5 0.0000 0.0000 0.0000 0.0000 43.0752 0.0000
# 6 0.0000 0.0000 0.0000 0.0000 0.0000 36.4317
#
#
#
# Elastic Compliance Matrix: (Units=1/GPa)
#
#
# Indices 1 2 3 4 5 6 
#
# 1 0.022522 0.001021 -0.008824 0.000000 0.000000 0.000000
# 2 0.001021 0.010439 -0.004671 0.000000 0.000000 0.000000
# 3 -0.008824 -0.004671 0.013557 0.000000 0.000000 0.000000
# 4 0.000000 0.000000 0.000000 0.020917 0.000000 0.000000
# 5 0.000000 0.000000 0.000000 0.000000 0.023215 0.000000
# 6 0.000000 0.000000 0.000000 0.000000 0.000000 0.027449
#
#
# Mechanical properties :
#
#
# Convention : Reuss Voigt Hill
#
# Bulk Modulus (GPa) = 46.35813 57.05744 51.70778
# Shear Modulus (GPa) = 33.28113 38.10356 35.69235
#
# Velocity S-wave (km/s) = 3.83410 4.10248 3.97056
# Velocity P-wave (km/s) = 6.33062 6.90237 6.62267
#
# Compressibility (1/GPa) = 0.02157119
#
# Stress axis : x y z
#
# Youngs Moduli (GPa) = 44.40127 95.79777 73.76087
#
# Poissons Ratio (x) = -0.09785 0.65085
# Poissons Ratio (y) = -0.04535 0.34453
# Poissons Ratio (z) = 0.39179 0.44746
#
# Static dielectric constant tensor:
#      x y z
#    x 1.929910 0.000000 0.000000 
#    y 0.000000 1.871440 0.000000 
#    z 0.000000 0.000000 1.838920 
# 
# From -- ./inp_files/11279.got.cif
#   From: 2010.05.17/outbox.cif.g08.bks.cpg/sg43_6_cif.got.tgz:11279.got - 2010.06.03 19:21:55.
