data_PCOD9372608
_publ_section_title
;
Structure prediction by ZEFSAII (Michael W. Deem and Ramdas Pophale) SiO2 
 PCOD9372608
Probable space group: F D D 2
;
_chemical_formula_sum "Si O2"
_cell_formula_units_Z 64
_cell_length_a 28.840048
_cell_length_b 4.963646
_cell_length_c 18.767338
_cell_angle_alpha 90.000000
_cell_angle_beta 90.000000
_cell_angle_gamma 90.000000
_cell_volume 2686.578007
_symmetry_space_group_name_H-M "F D D 2"
_symmetry_group_IT_number 43
_symmetry_cell_setting 'orthorhombic'
loop_
_space_group_symop_operation_xyz
x,y,z
-x,-y,z
1/4-x,1/4+y,1/4+z
1/4+x,1/4-y,1/4+z
x,1/2+y,1/2+z
-x,1/2-y,1/2+z
1/4-x,3/4+y,3/4+z
1/4+x,3/4-y,3/4+z
1/2+x,y,1/2+z
1/2-x,-y,1/2+z
3/4-x,1/4+y,3/4+z
3/4+x,1/4-y,3/4+z
1/2+x,1/2+y,z
1/2-x,1/2-y,z
3/4-x,3/4+y,1/4+z
3/4+x,3/4-y,1/4+z
loop_
_atom_site_type_symbol
_atom_site_label
_atom_site_fract_x
_atom_site_fract_y
_atom_site_fract_z
Si Si1 0.780313 0.519498 0.293790
Si Si2 0.205324 0.055686 0.948215
Si Si3 0.349285 0.115243 0.173524
Si Si4 0.051226 0.600004 0.857878
O O1 0.750000 0.750000 0.258231
O O2 0.791193 0.610278 0.374437
O O3 0.825441 0.505702 0.245809
O O4 0.750000 0.250000 0.296621
O O5 0.250000 0.250000 0.948866
O O6 0.153620 0.165708 0.936897
O O7 0.205120 0.922906 0.025407
O O8 0.327245 0.405595 0.150138
O O9 0.333585 0.909474 0.112918
O O10 0.000000 0.500000 0.884783
#
# Coordination Sequence:
#
# PCOD9372608 Si02
#       4
#    16  16  16  16
#     4  11  24  44  68  98 135 177 226 286 352 418
#     4  11  27  47  71 104 146 190 239 296 363 434
#     4  12  26  46  72 105 141 187 239 298 361 433
#     4  12  26  47  74 105 141 186 242 300 361 431
#
# _framework density 23.822129
#
# number of rings (size 3 to 8) (size 9 to 14) (size 15 to 20)
#    0.000    0.500    0.000    8.250    0.000   16.000 
#    0.000    0.000    0.000    0.000    0.000    0.000 
#    0.000    0.000    0.000    0.000    0.000    0.000 
#
# Total GULP energy -89402.402591 kJ/mol
# GULP energy per Si atom -5587.650162 kJ/mol
# Density = 2.376791 g / cm^3
# Si number density = 23.822129 Si / 1000 Ang^3
#
#
#
# Elastic Constant Matrix: (Units=GPa)
#
#
# Indices 1 2 3 4 5 6 
#
# 1 226.7231 57.2217 46.6582 0.0004 0.0033 0.0003
# 2 57.2217 112.0447 5.9482 -0.0050 0.0028 0.0017
# 3 46.6582 5.9482 121.6614 -0.0035 0.0009 0.0008
# 4 0.0004 -0.0050 -0.0035 64.3146 0.0011 0.0013
# 5 0.0033 0.0028 0.0009 0.0011 -17.3905 0.0007
# 6 0.0003 0.0017 0.0008 0.0013 0.0007 32.4539
#
#
#
# Elastic Compliance Matrix: (Units=1/GPa)
#
#
# Indices 1 2 3 4 5 6 
#
# 1 0.005500 -0.002704 -0.001977 0.000000 0.000001 0.000000
# 2 -0.002704 0.010278 0.000534 0.000001 0.000001 -0.000001
# 3 -0.001977 0.000534 0.008952 0.000001 0.000000 0.000000
# 4 0.000000 0.000001 0.000001 0.015549 0.000001 -0.000001
# 5 0.000001 0.000001 0.000000 0.000001 -0.057503 0.000001
# 6 0.000000 -0.000001 0.000000 -0.000001 0.000001 0.030813
#
#
# Mechanical properties :
#
#
# Convention : Reuss Voigt Hill
#
# Bulk Modulus (GPa) = 60.84158 75.56505 68.20331
# Shear Modulus (GPa) = 182.75027 39.24899 110.99963
#
# Velocity S-wave (km/s) = 8.76818 4.06345 6.83347
# Velocity P-wave (km/s) = 11.31828 7.33518 9.53699
#
# Compressibility (1/GPa) = 0.01643613
#
# Stress axis : x y z
#
# Youngs Moduli (GPa) = 181.81932 97.29962 111.71150
#
# Poissons Ratio (x) = 0.26309 0.22086
# Poissons Ratio (y) = 0.49162 -0.05971
# Poissons Ratio (z) = 0.35947 -0.05201
#
# Static dielectric constant tensor:
#      x y z
#    x 1.989950 0.000000 0.000000 
#    y 0.000000 1.882010 0.000000 
#    z 0.000000 0.000000 1.899500 
# 
# From -- ./inp_files/15148.got.cif
#   From: 2010.05.17/outbox.cif.g08.bks.cpg/sg43_8_cif.got.tgz:15148.got - 2010.06.03 19:21:55.
