data_PCOD9372226
_publ_section_title
;
Structure prediction by ZEFSAII (Michael W. Deem and Ramdas Pophale) SiO2 
 PCOD9372226
Probable space group: F D D 2
;
_chemical_formula_sum "Si O2"
_cell_formula_units_Z 40
_cell_length_a 7.633625
_cell_length_b 6.849890
_cell_length_c 31.624685
_cell_angle_alpha 90.000000
_cell_angle_beta 90.000000
_cell_angle_gamma 90.000000
_cell_volume 1653.638699
_symmetry_space_group_name_H-M "F D D 2"
_symmetry_group_IT_number 43
_symmetry_cell_setting 'orthorhombic'
loop_
_space_group_symop_operation_xyz
x,y,z
-x,-y,z
1/4-x,1/4+y,1/4+z
1/4+x,1/4-y,1/4+z
x,1/2+y,1/2+z
-x,1/2-y,1/2+z
1/4-x,3/4+y,3/4+z
1/4+x,3/4-y,3/4+z
1/2+x,y,1/2+z
1/2-x,-y,1/2+z
3/4-x,1/4+y,3/4+z
3/4+x,1/4-y,3/4+z
1/2+x,1/2+y,z
1/2-x,1/2-y,z
3/4-x,3/4+y,1/4+z
3/4+x,3/4-y,1/4+z
loop_
_atom_site_type_symbol
_atom_site_label
_atom_site_fract_x
_atom_site_fract_y
_atom_site_fract_z
Si Si1 0.750000 0.750000 0.216450
Si Si2 0.000000 0.000000 0.354286
Si Si3 0.250000 0.250000 0.412208
Si Si4 0.199217 0.968219 0.797868
O O1 0.587237 0.675430 0.189081
O O2 0.787336 0.562088 0.247173
O O3 0.906623 0.845690 0.385105
O O4 0.852287 0.083227 0.321860
O O5 0.250000 0.750000 0.810963
O O6 0.000000 0.000000 0.809891
#
# Coordination Sequence:
#
# PCOD9372226 Si02
#       4
#     8   8   8  16
#     4  10  27  50  70 113 140 202 238 307 354 446
#     4  12  27  50  72 115 146 198 238 311 360 442
#     4  12  28  42  78 104 160 180 246 306 380 402
#     4  10  25  47  75 101 142 196 247 292 348 454
#
# _framework density 24.189083
#
# number of rings (size 3 to 8) (size 9 to 14) (size 15 to 20)
#    1.200    0.000    2.000    1.200    8.400    4.800 
#    0.000    0.000    0.000    0.000    0.000    0.000 
#    0.000    0.000    0.000    0.000    0.000    0.000 
#
# Total GULP energy -55715.041834 kJ/mol
# GULP energy per Si atom -5571.504183 kJ/mol
# Density = 2.413403 g / cm^3
# Si number density = 24.189083 Si / 1000 Ang^3
#
#
#
# Elastic Constant Matrix: (Units=GPa)
#
#
# Indices 1 2 3 4 5 6 
#
# 1 243.9181 66.1075 86.1595 0.0000 0.0000 0.0000
# 2 66.1075 62.9698 33.3099 0.0000 0.0000 0.0000
# 3 86.1595 33.3099 136.6452 0.0000 0.0000 0.0000
# 4 0.0000 0.0000 0.0000 -130.5326 0.0000 0.0000
# 5 0.0000 0.0000 0.0000 0.0000 46.6691 0.0000
# 6 0.0000 0.0000 0.0000 0.0000 0.0000 62.1057
#
#
#
# Elastic Compliance Matrix: (Units=1/GPa)
#
#
# Indices 1 2 3 4 5 6 
#
# 1 0.006557 -0.005392 -0.002820 0.000000 0.000000 0.000000
# 2 -0.005392 0.022666 -0.002125 0.000000 0.000000 0.000000
# 3 -0.002820 -0.002125 0.009614 0.000000 0.000000 0.000000
# 4 0.000000 0.000000 0.000000 -0.007661 0.000000 0.000000
# 5 0.000000 0.000000 0.000000 0.000000 0.021427 0.000000
# 6 0.000000 0.000000 0.000000 0.000000 0.000000 0.016102
#
#
# Mechanical properties :
#
#
# Convention : Reuss Voigt Hill
#
# Bulk Modulus (GPa) = 55.05896 90.52077 72.78987
# Shear Modulus (GPa) = 52.39160 12.84551 32.61855
#
# Velocity S-wave (km/s) = 4.65899 2.30694 3.67615
# Velocity P-wave (km/s) = 7.19395 6.67828 6.94090
#
# Compressibility (1/GPa) = 0.01816235
#
# Stress axis : x y z
#
# Youngs Moduli (GPa) = 152.50103 44.11934 104.00965
#
# Poissons Ratio (x) = 0.23790 0.29332
# Poissons Ratio (y) = 0.82233 0.22104
# Poissons Ratio (z) = 0.43008 0.09376
#
# Static dielectric constant tensor:
#      x y z
#    x 1.931290 0.000000 0.000000 
#    y 0.000000 2.926470 0.000000 
#    z 0.000000 0.000000 2.076000 
# 
# From -- ./inp_files/19685.got.cif
#   From: 2010.05.17/outbox.cif.g08.bks.cpg/sg43_10_cif.got.tgz:19685.got - 2010.06.03 19:21:55.
