data_PCOD9372484
_publ_section_title
;
Structure prediction by ZEFSAII (Michael W. Deem and Ramdas Pophale) SiO2 
 PCOD9372484
Probable space group: F D D 2
;
_chemical_formula_sum "Si O2"
_cell_formula_units_Z 56
_cell_length_a 8.187635
_cell_length_b 11.252023
_cell_length_c 25.934878
_cell_angle_alpha 90.000000
_cell_angle_beta 90.000000
_cell_angle_gamma 90.000000
_cell_volume 2389.314366
_symmetry_space_group_name_H-M "F D D 2"
_symmetry_group_IT_number 43
_symmetry_cell_setting 'orthorhombic'
loop_
_space_group_symop_operation_xyz
x,y,z
-x,-y,z
1/4-x,1/4+y,1/4+z
1/4+x,1/4-y,1/4+z
x,1/2+y,1/2+z
-x,1/2-y,1/2+z
1/4-x,3/4+y,3/4+z
1/4+x,3/4-y,3/4+z
1/2+x,y,1/2+z
1/2-x,-y,1/2+z
3/4-x,1/4+y,3/4+z
3/4+x,1/4-y,3/4+z
1/2+x,1/2+y,z
1/2-x,1/2-y,z
3/4-x,3/4+y,1/4+z
3/4+x,3/4-y,1/4+z
loop_
_atom_site_type_symbol
_atom_site_label
_atom_site_fract_x
_atom_site_fract_y
_atom_site_fract_z
Si Si1 0.152762 0.561876 0.568850
Si Si2 0.060868 0.863037 0.236257
Si Si3 0.527320 0.828876 0.073925
Si Si4 0.500000 0.500000 0.395389
O O1 0.193912 0.478209 0.518765
O O2 0.325183 0.592185 0.595863
O O3 0.085628 0.695374 0.561567
O O4 0.000000 0.500000 0.596493
O O5 0.226569 0.871487 0.268994
O O6 0.117157 0.814851 0.181233
O O7 0.000000 0.000000 0.234565
O O8 0.364205 0.827393 0.107971
#
# Coordination Sequence:
#
# PCOD9372484 Si02
#       4
#    16  16  16   8
#     4  11  22  45  78 105 151 208 255 329 395 462
#     4  12  24  47  78 111 154 199 258 328 391 484
#     4  11  24  46  74 110 157 201 260 335 391 464
#     4  12  26  48  78 122 150 214 268 324 422 464
#
# _framework density 23.437685999999999
#
# number of rings (size 3 to 8) (size 9 to 14) (size 15 to 20)
#    0.000    0.571    7.143    0.000    0.000    3.429 
#    5.143   11.429    0.000    0.000    0.000    0.000 
#    0.000    0.000    0.000    0.000    0.000    0.000 
#
# Total GULP energy -78087.161893 kJ/mol
# GULP energy per Si atom -5577.654421 kJ/mol
# Density = 2.338434 g / cm^3
# Si number density = 23.437686 Si / 1000 Ang^3
#
#
#
# Elastic Constant Matrix: (Units=GPa)
#
#
# Indices 1 2 3 4 5 6 
#
# 1 141.4811 46.0662 11.6166 0.0000 0.0000 0.0000
# 2 46.0662 196.7693 28.7027 0.0000 0.0000 0.0000
# 3 11.6166 28.7027 63.0026 0.0000 0.0000 0.0000
# 4 0.0000 0.0000 0.0000 -25.1150 0.0000 0.0000
# 5 0.0000 0.0000 0.0000 0.0000 -12.2478 0.0000
# 6 0.0000 0.0000 0.0000 0.0000 0.0000 58.9337
#
#
#
# Elastic Compliance Matrix: (Units=1/GPa)
#
#
# Indices 1 2 3 4 5 6 
#
# 1 0.007675 -0.001704 -0.000639 0.000000 0.000000 0.000000
# 2 -0.001704 0.005822 -0.002338 0.000000 0.000000 0.000000
# 3 -0.000639 -0.002338 0.017055 0.000000 0.000000 0.000000
# 4 0.000000 0.000000 0.000000 -0.039817 0.000000 0.000000
# 5 0.000000 0.000000 0.000000 0.000000 -0.081647 0.000000
# 6 0.000000 0.000000 0.000000 0.000000 0.000000 0.016968
#
#
# Mechanical properties :
#
#
# Convention : Reuss Voigt Hill
#
# Bulk Modulus (GPa) = 47.19027 63.78046 55.48537
# Shear Modulus (GPa) = -86.93042 25.30533 -30.81255
#
# Velocity S-wave (km/s) = -6.09676 3.28942 -3.62976
# Velocity P-wave (km/s) = 5.42058 6.45747 2.48156
#
# Compressibility (1/GPa) = 0.02119081
#
# Stress axis : x y z
#
# Youngs Moduli (GPa) = 130.28871 171.76156 58.63227
#
# Poissons Ratio (x) = 0.29262 0.03747
# Poissons Ratio (y) = 0.22197 0.13710
# Poissons Ratio (z) = 0.08326 0.40162
#
# Static dielectric constant tensor:
#      x y z
#    x 1.961400 0.000000 0.000000 
#    y 0.000000 2.091230 0.000000 
#    z 0.000000 0.000000 1.803590 
# 
# From -- ./inp_files/23798.got.cif
#   From: 2010.05.17/outbox.cif.g08.bks.cpg/sg43_12_cif.got.tgz:23798.got - 2010.06.03 19:21:55.
