data_PCOD9372969
_publ_section_title
;
Structure prediction by ZEFSAII (Michael W. Deem and Ramdas Pophale) SiO2 
 PCOD9372969
Probable space group: F D D 2
;
_chemical_formula_sum "Si O2"
_cell_formula_units_Z 30
_cell_length_a 24.000000
_cell_length_b 27.000000
_cell_length_c 9.000000
_cell_angle_alpha 90.000000
_cell_angle_beta 90.000000
_cell_angle_gamma 90.000000
_cell_volume 5832.000000
_symmetry_space_group_name_H-M "F D D 2"
_symmetry_group_IT_number 43
_symmetry_cell_setting 'orthorhombic'
loop_
_space_group_symop_operation_xyz
x,y,z
-x,-y,z
1/4-x,1/4+y,1/4+z
1/4+x,1/4-y,1/4+z
x,1/2+y,1/2+z
-x,1/2-y,1/2+z
1/4-x,3/4+y,3/4+z
1/4+x,3/4-y,3/4+z
1/2+x,y,1/2+z
1/2-x,-y,1/2+z
3/4-x,1/4+y,3/4+z
3/4+x,1/4-y,3/4+z
1/2+x,1/2+y,z
1/2-x,1/2-y,z
3/4-x,3/4+y,1/4+z
3/4+x,3/4-y,1/4+z
loop_
_atom_site_type_symbol
_atom_site_label
_atom_site_fract_x
_atom_site_fract_y
_atom_site_fract_z
Si Si1 0.880281 0.531646 0.077820
Si Si2 0.353197 0.398489 0.270318
Si Si3 0.576464 0.126807 0.228117
Si Si4 0.889330 0.005872 0.241302
Si Si5 0.750000 0.750000 0.323219
Si Si6 0.442566 0.837214 0.894056
Si Si7 0.285718 0.824934 0.572563
Si Si8 0.072530 0.325918 0.846082
O O1 0.928736 0.546215 0.194919
O O2 0.851077 0.478390 0.097645
O O3 0.833841 0.574942 0.080317
O O4 0.899966 0.528992 0.904995
O O5 0.352451 0.456920 0.250240
O O6 0.416269 0.377485 0.282833
O O7 0.320755 0.370691 0.140138
O O8 0.329968 0.394391 0.439754
O O9 0.525935 0.091631 0.273148
O O10 0.638827 0.103984 0.216929
O O11 0.560575 0.142331 0.061216
O O12 0.853171 0.043452 0.142560
O O13 0.947477 0.988487 0.174891
O O14 0.725967 0.708801 0.214296
O O15 0.506480 0.822898 0.869331
#
# Coordination Sequence:
#
# PCOD9372969 Si02
#       8
#    16  16  16  16   8  16  16  16
#     4  10  24  45  66  98 135 183 225 277 350 414
#     4  10  24  41  66  98 132 177 226 279 348 402
#     4  10  23  41  67  99 131 177 232 275 343 411
#     4  10  24  45  66  97 134 185 227 271 343 417
#     4  12  26  42  68 100 142 170 230 284 338 404
#     4  10  21  44  67  97 131 178 231 273 331 428
#     4  12  25  43  66 107 139 174 226 298 344 409
#     4  10  22  43  68  94 131 181 228 279 339 422
#
# _framework density 5.1440330000000003
#
# number of rings (size 3 to 8) (size 9 to 14) (size 15 to 20)
#    0.000    1.600    1.333    1.600    5.600    3.733 
#    7.200    0.000    0.000    0.000    0.000    0.000 
#    0.000    0.000    0.000    0.000    0.000    0.000 
#
# Total GULP energy -167294.159510 kJ/mol
# GULP energy per Si atom -5576.471984 kJ/mol
# Density = 0.513232 g / cm^3
# Si number density = 5.144033 Si / 1000 Ang^3
#
#
#
# Elastic Constant Matrix: (Units=GPa)
#
#
# Indices 1 2 3 4 5 6 
#
# 1 118.6742 18.8761 31.8311 0.0003 0.0000 0.0000
# 2 18.8761 81.3182 18.4858 0.0005 0.0000 -0.0001
# 3 31.8311 18.4858 48.5599 0.0009 -0.0004 0.0000
# 4 0.0003 0.0005 0.0009 18.8772 -0.0006 -0.0002
# 5 0.0000 0.0000 -0.0004 -0.0006 16.6478 0.0000
# 6 0.0000 -0.0001 0.0000 -0.0002 0.0000 25.5830
#
#
#
# Elastic Compliance Matrix: (Units=1/GPa)
#
#
# Indices 1 2 3 4 5 6 
#
# 1 0.010289 -0.000936 -0.006388 0.000000 0.000000 0.000000
# 2 -0.000936 0.013548 -0.004544 0.000000 0.000000 0.000000
# 3 -0.006388 -0.004544 0.026510 -0.000001 0.000001 0.000000
# 4 0.000000 0.000000 -0.000001 0.052974 0.000002 0.000000
# 5 0.000000 0.000000 0.000001 0.000002 0.060068 0.000000
# 6 0.000000 0.000000 0.000000 0.000000 0.000000 0.039088
#
#
# Mechanical properties :
#
#
# Convention : Reuss Voigt Hill
#
# Bulk Modulus (GPa) = 37.57846 42.99314 40.28580
# Shear Modulus (GPa) = 21.26914 24.17889 22.72402
#
# Velocity S-wave (km/s) = 3.21858 3.43168 3.32684
# Velocity P-wave (km/s) = 5.66702 6.05326 5.86332
#
# Compressibility (1/GPa) = 0.02661099
#
# Stress axis : x y z
#
# Youngs Moduli (GPa) = 97.19392 73.81394 37.72146
#
# Poissons Ratio (x) = 0.06910 0.24096
# Poissons Ratio (y) = 0.09099 0.17139
# Poissons Ratio (z) = 0.62086 0.33539
#
# Static dielectric constant tensor:
#      x y z
#    x 1.720320 0.000000 0.000000 
#    y 0.000000 1.810610 0.000000 
#    z 0.000000 0.000000 1.751570 
# 
# From -- ./inp_files/3876.got.cif
#   From: 2010.05.17/outbox.ucp.g08.bks.cvg/sg43_2_cif.got.tgz:3876.got - 2010.06.11 16:31:01.
