data_PCOD9372809
_publ_section_title
;
Structure prediction by ZEFSAII (Michael W. Deem and Ramdas Pophale) SiO2 
 PCOD9372809
Probable space group: F D D 2
;
_chemical_formula_sum "Si O2"
_cell_formula_units_Z 120
_cell_length_a 19.987889
_cell_length_b 12.738002
_cell_length_c 21.415763
_cell_angle_alpha 90.000000
_cell_angle_beta 90.000000
_cell_angle_gamma 90.000000
_cell_volume 5452.576830
_symmetry_space_group_name_H-M "F D D 2"
_symmetry_group_IT_number 43
_symmetry_cell_setting 'orthorhombic'
loop_
_space_group_symop_operation_xyz
x,y,z
-x,-y,z
1/4-x,1/4+y,1/4+z
1/4+x,1/4-y,1/4+z
x,1/2+y,1/2+z
-x,1/2-y,1/2+z
1/4-x,3/4+y,3/4+z
1/4+x,3/4-y,3/4+z
1/2+x,y,1/2+z
1/2-x,-y,1/2+z
3/4-x,1/4+y,3/4+z
3/4+x,1/4-y,3/4+z
1/2+x,1/2+y,z
1/2-x,1/2-y,z
3/4-x,3/4+y,1/4+z
3/4+x,3/4-y,1/4+z
loop_
_atom_site_type_symbol
_atom_site_label
_atom_site_fract_x
_atom_site_fract_y
_atom_site_fract_z
Si Si1 0.142539 0.081728 0.548850
Si Si2 0.880669 0.677306 0.568891
Si Si3 0.966827 0.301732 0.733246
Si Si4 0.000000 0.500000 0.378445
Si Si5 0.520784 0.610972 0.103864
Si Si6 0.440221 0.782525 0.422150
Si Si7 0.454590 0.902663 0.936240
Si Si8 0.350132 0.846932 0.531275
O O1 0.128829 0.198368 0.573774
O O2 0.211066 0.082413 0.509568
O O3 0.156836 0.003323 0.606337
O O4 0.082414 0.062904 0.499875
O O5 0.837906 0.630303 0.512337
O O6 0.850313 0.630298 0.632910
O O7 0.958232 0.649653 0.563632
O O8 0.966281 0.308440 0.659166
O O9 0.948898 0.185792 0.755762
O O10 0.025745 0.602372 0.415768
O O11 0.060911 0.467861 0.333146
O O12 0.500000 0.500000 0.133063
O O13 0.586817 0.597420 0.063806
O O14 0.497305 0.697990 0.439756
O O15 0.382867 0.783055 0.474645
O O16 0.500000 0.000000 0.914579
#
# Coordination Sequence:
#
# PCOD9372809 Si02
#       8
#    16  16  16   8  16  16  16  16
#     4  12  25  45  74 107 144 196 246 313 384 449
#     4  12  23  45  74 105 147 192 247 316 377 444
#     4  12  24  46  72 106 148 192 250 313 382 444
#     4  12  28  52  78 104 164 206 252 312 390 472
#     4  12  26  44  74 113 148 197 259 316 376 456
#     4  12  28  49  75 112 153 204 256 312 386 469
#     4  12  25  47  75 109 151 191 251 317 380 450
#     4  12  28  48  74 108 153 203 252 309 387 463
#
# _framework density 22.007943000000001
#
# number of rings (size 3 to 8) (size 9 to 14) (size 15 to 20)
#    0.000    0.000    6.667    2.800    2.800    3.200 
#    3.600    0.000    0.000    0.000    0.000    0.000 
#    0.000    0.000    0.000    0.000    0.000    0.000 
#
# Total GULP energy -168001.596761 kJ/mol
# GULP energy per Si atom -5600.053225 kJ/mol
# Density = 2.195785 g / cm^3
# Si number density = 22.007943 Si / 1000 Ang^3
#
#
#
# Elastic Constant Matrix: (Units=GPa)
#
#
# Indices 1 2 3 4 5 6 
#
# 1 108.7844 22.7148 22.7587 0.0000 0.0000 0.0000
# 2 22.7148 76.3528 -18.2218 0.0000 0.0000 0.0000
# 3 22.7587 -18.2218 55.9056 0.0000 0.0000 0.0000
# 4 0.0000 0.0000 0.0000 24.3976 0.0000 0.0000
# 5 0.0000 0.0000 0.0000 0.0000 39.1196 0.0000
# 6 0.0000 0.0000 0.0000 0.0000 0.0000 21.0506
#
#
#
# Elastic Compliance Matrix: (Units=1/GPa)
#
#
# Indices 1 2 3 4 5 6 
#
# 1 0.011544 -0.004940 -0.006310 0.000000 0.000000 0.000000
# 2 -0.004940 0.016316 0.007329 0.000000 0.000000 0.000000
# 3 -0.006310 0.007329 0.022845 0.000000 0.000000 0.000000
# 4 0.000000 0.000000 0.000000 0.040988 0.000000 0.000000
# 5 0.000000 0.000000 0.000000 0.000000 0.025563 0.000000
# 6 0.000000 0.000000 0.000000 0.000000 0.000000 0.047505
#
#
# Mechanical properties :
#
#
# Convention : Reuss Voigt Hill
#
# Bulk Modulus (GPa) = 23.33006 32.83847 28.08427
# Shear Modulus (GPa) = 26.75388 31.16631 28.96009
#
# Velocity S-wave (km/s) = 3.49040 3.76724 3.63146
# Velocity P-wave (km/s) = 5.18339 5.82035 5.51108
#
# Compressibility (1/GPa) = 0.04286315
#
# Stress axis : x y z
#
# Youngs Moduli (GPa) = 86.62452 61.28996 43.77375
#
# Poissons Ratio (x) = 0.30278 0.27620
# Poissons Ratio (y) = 0.42794 -0.32082
# Poissons Ratio (z) = 0.54657 -0.44920
#
# Static dielectric constant tensor:
#      x y z
#    x 1.777070 0.000000 0.000000 
#    y 0.000000 1.800750 0.000000 
#    z 0.000000 0.000000 1.816110 
# 
# From -- ./inp_files/22461.got.cif
#   From: 2010.05.17/outbox.cif.g08.bks.cpg/sg43_12_cif.got.tgz:22461.got - 2010.06.03 19:21:55.
