data_PCOD9372178
_publ_section_title
;
Structure prediction by ZEFSAII (Michael W. Deem and Ramdas Pophale) SiO2 
 PCOD9372178
Probable space group: F D D 2
;
_chemical_formula_sum "Si O2"
_cell_formula_units_Z 56
_cell_length_a 23.733076
_cell_length_b 9.913909
_cell_length_c 9.210859
_cell_angle_alpha 90.000000
_cell_angle_beta 90.000000
_cell_angle_gamma 90.000000
_cell_volume 2167.200501
_symmetry_space_group_name_H-M "F D D 2"
_symmetry_group_IT_number 43
_symmetry_cell_setting 'orthorhombic'
loop_
_space_group_symop_operation_xyz
x,y,z
-x,-y,z
1/4-x,1/4+y,1/4+z
1/4+x,1/4-y,1/4+z
x,1/2+y,1/2+z
-x,1/2-y,1/2+z
1/4-x,3/4+y,3/4+z
1/4+x,3/4-y,3/4+z
1/2+x,y,1/2+z
1/2-x,-y,1/2+z
3/4-x,1/4+y,3/4+z
3/4+x,1/4-y,3/4+z
1/2+x,1/2+y,z
1/2-x,1/2-y,z
3/4-x,3/4+y,1/4+z
3/4+x,3/4-y,1/4+z
loop_
_atom_site_type_symbol
_atom_site_label
_atom_site_fract_x
_atom_site_fract_y
_atom_site_fract_z
Si Si1 0.189224 0.618213 0.608050
Si Si2 0.500000 0.000000 0.917530
Si Si3 0.835297 0.329351 0.918491
Si Si4 0.550972 0.640636 0.692306
O O1 0.201058 0.662946 0.771803
O O2 0.137082 0.515858 0.621778
O O3 0.176251 0.753036 0.514003
O O4 0.245766 0.564011 0.533233
O O5 0.449968 0.031971 0.805814
O O6 0.526107 0.107279 0.032982
O O7 0.845304 0.488791 0.947732
#
# Coordination Sequence:
#
# PCOD9372178 Si02
#       4
#    16   8  16  16
#     4  10  26  48  74 116 154 210 270 323 410 477
#     4  10  24  48  80 110 154 204 266 326 406 478
#     4  12  25  46  79 111 154 210 267 324 405 483
#     4  10  25  55  73 110 169 209 262 352 389 477
#
# _framework density 25.839787999999999
#
# number of rings (size 3 to 8) (size 9 to 14) (size 15 to 20)
#    0.000    1.714    0.000    3.429    8.000    2.286 
#   10.286    0.000    0.000    0.000    0.000    0.000 
#    0.000    0.000    0.000    0.000    0.000    0.000 
#
# Total GULP energy -78332.189006 kJ/mol
# GULP energy per Si atom -5595.156358 kJ/mol
# Density = 2.578098 g / cm^3
# Si number density = 25.839788 Si / 1000 Ang^3
#
#
#
# Elastic Constant Matrix: (Units=GPa)
#
#
# Indices 1 2 3 4 5 6 
#
# 1 168.2177 119.7843 82.0510 0.0000 0.0000 0.0000
# 2 119.7843 199.9491 60.5779 0.0000 0.0000 0.0000
# 3 82.0510 60.5779 242.3857 0.0000 0.0000 0.0000
# 4 0.0000 0.0000 0.0000 38.8928 0.0000 0.0000
# 5 0.0000 0.0000 0.0000 0.0000 24.0038 0.0000
# 6 0.0000 0.0000 0.0000 0.0000 0.0000 50.1598
#
#
#
# Elastic Compliance Matrix: (Units=1/GPa)
#
#
# Indices 1 2 3 4 5 6 
#
# 1 0.011480 -0.006167 -0.002345 0.000000 0.000000 0.000000
# 2 -0.006167 0.008724 -0.000093 0.000000 0.000000 0.000000
# 3 -0.002345 -0.000093 0.004943 0.000000 0.000000 0.000000
# 4 0.000000 0.000000 0.000000 0.025712 0.000000 0.000000
# 5 0.000000 0.000000 0.000000 0.000000 0.041660 0.000000
# 6 0.000000 0.000000 0.000000 0.000000 0.000000 0.019936
#
#
# Mechanical properties :
#
#
# Convention : Reuss Voigt Hill
#
# Bulk Modulus (GPa) = 125.98658 126.15322 126.06990
# Shear Modulus (GPa) = 37.79052 45.82055 41.80554
#
# Velocity S-wave (km/s) = 3.82840 4.21557 4.02664
# Velocity P-wave (km/s) = 8.27073 8.52186 8.39723
#
# Compressibility (1/GPa) = 0.00793735
#
# Stress axis : x y z
#
# Youngs Moduli (GPa) = 87.11115 114.63034 202.32354
#
# Poissons Ratio (x) = 0.70689 0.47441
# Poissons Ratio (y) = 0.53719 0.01876
# Poissons Ratio (z) = 0.20426 0.01063
#
# Static dielectric constant tensor:
#      x y z
#    x 2.014010 0.000000 0.000000 
#    y 0.000000 2.152810 0.000000 
#    z 0.000000 0.000000 2.034320 
# 
# From -- ./inp_files/4051.got.cif
#   From: 2010.05.17/outbox.cif.g08.bks.cpg/sg43_3_cif.got.tgz:4051.got - 2010.06.03 19:21:55.
