data_PCOD9372831
_publ_section_title
;
Structure prediction by ZEFSAII (Michael W. Deem and Ramdas Pophale) SiO2 
 PCOD9372831
Probable space group: F D D 2
;
_chemical_formula_sum "Si O2"
_cell_formula_units_Z 88
_cell_length_a 4.859182
_cell_length_b 27.140280
_cell_length_c 25.946299
_cell_angle_alpha 90.000000
_cell_angle_beta 90.000000
_cell_angle_gamma 90.000000
_cell_volume 3421.786497
_symmetry_space_group_name_H-M "F D D 2"
_symmetry_group_IT_number 43
_symmetry_cell_setting 'orthorhombic'
loop_
_space_group_symop_operation_xyz
x,y,z
-x,-y,z
1/4-x,1/4+y,1/4+z
1/4+x,1/4-y,1/4+z
x,1/2+y,1/2+z
-x,1/2-y,1/2+z
1/4-x,3/4+y,3/4+z
1/4+x,3/4-y,3/4+z
1/2+x,y,1/2+z
1/2-x,-y,1/2+z
3/4-x,1/4+y,3/4+z
3/4+x,1/4-y,3/4+z
1/2+x,1/2+y,z
1/2-x,1/2-y,z
3/4-x,3/4+y,1/4+z
3/4+x,3/4-y,1/4+z
loop_
_atom_site_type_symbol
_atom_site_label
_atom_site_fract_x
_atom_site_fract_y
_atom_site_fract_z
Si Si1 0.851830 0.805747 0.571860
Si Si2 0.315553 0.369801 0.673661
Si Si3 0.286150 0.600079 0.021265
Si Si4 0.933495 0.191072 0.923433
Si Si5 0.000000 0.000000 0.755200
Si Si6 0.072168 0.704736 0.309284
O O1 0.750000 0.750000 0.578131
O O2 0.851281 0.831177 0.627552
O O3 0.676547 0.842653 0.535392
O O4 0.132239 0.794066 0.540734
O O5 0.612425 0.394128 0.684054
O O6 0.759590 0.464901 0.617776
O O7 0.115080 0.416876 0.666859
O O8 0.102275 0.593532 0.970102
O O9 0.054023 0.586768 0.063562
O O10 0.555062 0.566393 0.029399
O O11 0.016737 0.230173 0.966538
O O12 0.250000 0.750000 0.286797
#
# Coordination Sequence:
#
# PCOD9372831 Si02
#       6
#    16  16  16  16   8  16
#     4  12  28  47  77 119 171 224 281 353 432 520
#     4  12  27  47  76 108 161 220 270 337 427 509
#     4  12  26  49  77 112 163 215 280 347 429 505
#     4  12  24  46  77 115 155 211 277 345 420 492
#     4  12  28  46  82 126 172 220 294 364 428 522
#     4  12  25  48  79 116 153 209 280 353 416 502
#
# _framework density 25.717562000000001
#
# number of rings (size 3 to 8) (size 9 to 14) (size 15 to 20)
#    0.000    0.000    6.364    2.727    5.091    0.727 
#    0.000    1.818    0.000    0.000    0.000    0.000 
#    0.000    0.000    0.000    0.000    0.000    0.000 
#
# Total GULP energy -123035.865525 kJ/mol
# GULP energy per Si atom -5592.539342 kJ/mol
# Density = 2.565903 g / cm^3
# Si number density = 25.717562 Si / 1000 Ang^3
#
#
#
# Elastic Constant Matrix: (Units=GPa)
#
#
# Indices 1 2 3 4 5 6 
#
# 1 161.0855 63.8130 57.1366 0.0000 0.0000 0.0000
# 2 63.8130 139.4311 87.1980 0.0000 0.0000 0.0000
# 3 57.1366 87.1980 145.8190 0.0000 0.0000 0.0000
# 4 0.0000 0.0000 0.0000 40.5453 0.0000 0.0000
# 5 0.0000 0.0000 0.0000 0.0000 35.9315 0.0000
# 6 0.0000 0.0000 0.0000 0.0000 0.0000 71.7727
#
#
#
# Elastic Compliance Matrix: (Units=1/GPa)
#
#
# Indices 1 2 3 4 5 6 
#
# 1 0.007774 -0.002640 -0.001467 0.000000 0.000000 0.000000
# 2 -0.002640 0.012353 -0.006352 0.000000 0.000000 0.000000
# 3 -0.001467 -0.006352 0.011231 0.000000 0.000000 0.000000
# 4 0.000000 0.000000 0.000000 0.024664 0.000000 0.000000
# 5 0.000000 0.000000 0.000000 0.000000 0.027831 0.000000
# 6 0.000000 0.000000 0.000000 0.000000 0.000000 0.013933
#
#
# Mechanical properties :
#
#
# Convention : Reuss Voigt Hill
#
# Bulk Modulus (GPa) = 95.79827 95.84786 95.82306
# Shear Modulus (GPa) = 40.92119 45.52910 43.22514
#
# Velocity S-wave (km/s) = 3.99328 4.21212 4.10416
# Velocity P-wave (km/s) = 7.65459 7.81065 7.73301
#
# Compressibility (1/GPa) = 0.01043860
#
# Stress axis : x y z
#
# Youngs Moduli (GPa) = 128.62864 80.95101 89.03589
#
# Poissons Ratio (x) = 0.21375 0.13064
# Poissons Ratio (y) = 0.33964 0.56559
# Poissons Ratio (z) = 0.18873 0.51424
#
# Static dielectric constant tensor:
#      x y z
#    x 2.066990 0.000000 0.000000 
#    y 0.000000 2.168440 0.000000 
#    z 0.000000 0.000000 2.123850 
# 
# From -- ./inp_files/23631.got.cif
#   From: 2010.05.17/outbox.cif.g08.bks.cpg/sg43_12_cif.got.tgz:23631.got - 2010.06.03 19:21:55.
