data_PCOD9372265
_publ_section_title
;
Structure prediction by ZEFSAII (Michael W. Deem and Ramdas Pophale) SiO2 
 PCOD9372265
Probable space group: F D D 2
;
_chemical_formula_sum "Si O2"
_cell_formula_units_Z 72
_cell_length_a 14.422961
_cell_length_b 19.542365
_cell_length_c 11.233650
_cell_angle_alpha 90.000000
_cell_angle_beta 90.000000
_cell_angle_gamma 90.000000
_cell_volume 3166.302752
_symmetry_space_group_name_H-M "F D D 2"
_symmetry_group_IT_number 43
_symmetry_cell_setting 'orthorhombic'
loop_
_space_group_symop_operation_xyz
x,y,z
-x,-y,z
1/4-x,1/4+y,1/4+z
1/4+x,1/4-y,1/4+z
x,1/2+y,1/2+z
-x,1/2-y,1/2+z
1/4-x,3/4+y,3/4+z
1/4+x,3/4-y,3/4+z
1/2+x,y,1/2+z
1/2-x,-y,1/2+z
3/4-x,1/4+y,3/4+z
3/4+x,1/4-y,3/4+z
1/2+x,1/2+y,z
1/2-x,1/2-y,z
3/4-x,3/4+y,1/4+z
3/4+x,3/4-y,1/4+z
loop_
_atom_site_type_symbol
_atom_site_label
_atom_site_fract_x
_atom_site_fract_y
_atom_site_fract_z
Si Si1 0.517501 0.077855 0.061360
Si Si2 0.922303 0.681620 0.634201
Si Si3 0.750000 0.750000 0.042263
Si Si4 0.931501 0.435750 0.635029
Si Si5 0.682293 0.545207 0.905800
O O1 0.516240 0.062367 0.201761
O O2 0.448037 0.142181 0.062497
O O3 0.500000 0.000000 0.011007
O O4 0.612276 0.095774 0.995322
O O5 0.858953 0.685178 0.517733
O O6 0.005170 0.629508 0.611242
O O7 0.971974 0.753611 0.659741
O O8 0.654740 0.748339 0.114037
O O9 0.849300 0.435887 0.538770
O O10 0.000000 0.500000 0.621129
#
# Coordination Sequence:
#
# PCOD9372265 Si02
#       5
#    16  16   8  16  16
#     4  10  27  43  76 101 145 184 242 292 366 424
#     4  12  28  45  73 107 142 192 234 308 362 429
#     4  10  26  46  74 104 136 202 234 294 360 434
#     4  12  27  47  71 105 146 187 240 298 366 431
#     4  12  26  48  73 104 147 188 247 293 363 442
#
# _framework density 22.739455
#
# number of rings (size 3 to 8) (size 9 to 14) (size 15 to 20)
#    0.667    0.000    1.111    4.667   12.444    0.000 
#    0.000    0.000    0.000    0.000    0.000    0.000 
#    0.000    0.000    0.000    0.000    0.000    0.000 
#
# Total GULP energy -100434.981862 kJ/mol
# GULP energy per Si atom -5579.721215 kJ/mol
# Density = 2.268770 g / cm^3
# Si number density = 22.739455 Si / 1000 Ang^3
#
#
#
# Elastic Constant Matrix: (Units=GPa)
#
#
# Indices 1 2 3 4 5 6 
#
# 1 102.6292 43.4257 49.4926 0.0000 0.0000 0.0000
# 2 43.4257 100.7016 22.4698 0.0000 0.0000 0.0000
# 3 49.4926 22.4698 96.5205 0.0000 0.0000 0.0000
# 4 0.0000 0.0000 0.0000 19.5110 0.0000 0.0000
# 5 0.0000 0.0000 0.0000 0.0000 58.3164 0.0000
# 6 0.0000 0.0000 0.0000 0.0000 0.0000 48.2469
#
#
#
# Elastic Compliance Matrix: (Units=1/GPa)
#
#
# Indices 1 2 3 4 5 6 
#
# 1 0.015017 -0.005018 -0.006532 0.000000 0.000000 0.000000
# 2 -0.005018 0.012151 -0.000256 0.000000 0.000000 0.000000
# 3 -0.006532 -0.000256 0.013769 0.000000 0.000000 0.000000
# 4 0.000000 0.000000 0.000000 0.051253 0.000000 0.000000
# 5 0.000000 0.000000 0.000000 0.000000 0.017148 0.000000
# 6 0.000000 0.000000 0.000000 0.000000 0.000000 0.020727
#
#
# Mechanical properties :
#
#
# Convention : Reuss Voigt Hill
#
# Bulk Modulus (GPa) = 57.71657 58.95860 58.33759
# Shear Modulus (GPa) = 31.35708 37.51241 34.43475
#
# Velocity S-wave (km/s) = 3.71748 4.06601 3.89564
# Velocity P-wave (km/s) = 6.62292 6.93018 6.77829
#
# Compressibility (1/GPa) = 0.01732605
#
# Stress axis : x y z
#
# Youngs Moduli (GPa) = 66.58949 82.29468 72.62447
#
# Poissons Ratio (x) = 0.41299 0.47439
# Poissons Ratio (y) = 0.33417 0.01856
# Poissons Ratio (z) = 0.43497 0.02103
#
# Static dielectric constant tensor:
#      x y z
#    x 1.829470 0.000000 0.000000 
#    y 0.000000 1.933940 0.000000 
#    z 0.000000 0.000000 1.805810 
# 
# From -- ./inp_files/6003.got.cif
#   From: 2010.05.17/outbox.cif.g08.bks.cpg/sg43_4_cif.got.tgz:6003.got - 2010.06.03 19:21:55.
