data_PCOD9372533
_publ_section_title
;
Structure prediction by ZEFSAII (Michael W. Deem and Ramdas Pophale) SiO2 
 PCOD9372533
Probable space group: F D D 2
;
_chemical_formula_sum "Si O2"
_cell_formula_units_Z 72
_cell_length_a 12.121144
_cell_length_b 8.976565
_cell_length_c 30.204930
_cell_angle_alpha 90.000000
_cell_angle_beta 90.000000
_cell_angle_gamma 90.000000
_cell_volume 3286.484772
_symmetry_space_group_name_H-M "F D D 2"
_symmetry_group_IT_number 43
_symmetry_cell_setting 'orthorhombic'
loop_
_space_group_symop_operation_xyz
x,y,z
-x,-y,z
1/4-x,1/4+y,1/4+z
1/4+x,1/4-y,1/4+z
x,1/2+y,1/2+z
-x,1/2-y,1/2+z
1/4-x,3/4+y,3/4+z
1/4+x,3/4-y,3/4+z
1/2+x,y,1/2+z
1/2-x,-y,1/2+z
3/4-x,1/4+y,3/4+z
3/4+x,1/4-y,3/4+z
1/2+x,1/2+y,z
1/2-x,1/2-y,z
3/4-x,3/4+y,1/4+z
3/4+x,3/4-y,1/4+z
loop_
_atom_site_type_symbol
_atom_site_label
_atom_site_fract_x
_atom_site_fract_y
_atom_site_fract_z
Si Si1 0.500000 0.000000 0.125000
Si Si2 0.888714 0.097771 0.760293
Si Si3 0.118787 0.725631 0.603316
Si Si4 0.336205 0.130098 0.444692
Si Si5 0.959717 0.168469 0.437183
O O1 0.561062 0.882706 0.093296
O O2 0.399353 0.948011 0.157737
O O3 0.858235 0.130272 0.810922
O O4 0.893939 0.244916 0.729121
O O5 0.810501 0.978518 0.736664
O O6 0.000000 0.000000 0.761912
O O7 0.250000 0.750000 0.611570
O O8 0.050557 0.686945 0.647638
O O9 0.250000 0.250000 0.462962
O O10 0.440723 0.221348 0.426118
O O11 0.000000 0.000000 0.434597
#
# Coordination Sequence:
#
# PCOD9372533 Si02
#       5
#     8  16  16  16  16
#     4  12  22  46  72 104 142 190 234 300 354 432
#     4  11  23  43  70 103 145 186 240 296 354 430
#     4  11  23  43  71 100 145 188 237 296 357 427
#     4  12  24  45  71 103 146 191 235 298 362 425
#     4  12  24  43  72 101 139 190 237 289 365 423
#
# _framework density 21.907905
#
# number of rings (size 3 to 8) (size 9 to 14) (size 15 to 20)
#    0.000    0.444    5.556    3.333    1.556    1.778 
#    0.000    1.111    0.000    0.000    0.000    0.000 
#    0.000    0.000    0.000    0.000    0.000    0.000 
#
# Total GULP energy -100286.463493 kJ/mol
# GULP energy per Si atom -5571.470194 kJ/mol
# Density = 2.185804 g / cm^3
# Si number density = 21.907905 Si / 1000 Ang^3
#
#
#
# Elastic Constant Matrix: (Units=GPa)
#
#
# Indices 1 2 3 4 5 6 
#
# 1 93.1057 57.3979 -6.2177 0.0000 0.0000 0.0000
# 2 57.3979 146.5748 59.4837 0.0000 0.0000 0.0000
# 3 -6.2177 59.4837 124.1833 0.0000 0.0000 0.0000
# 4 0.0000 0.0000 0.0000 -19.0097 0.0000 0.0000
# 5 0.0000 0.0000 0.0000 0.0000 11.2762 0.0000
# 6 0.0000 0.0000 0.0000 0.0000 0.0000 47.5869
#
#
#
# Elastic Compliance Matrix: (Units=1/GPa)
#
#
# Indices 1 2 3 4 5 6 
#
# 1 0.016149 -0.008257 0.004764 0.000000 0.000000 0.000000
# 2 -0.008257 0.012691 -0.006492 0.000000 0.000000 0.000000
# 3 0.004764 -0.006492 0.011401 0.000000 0.000000 0.000000
# 4 0.000000 0.000000 0.000000 -0.052605 0.000000 0.000000
# 5 0.000000 0.000000 0.000000 0.000000 0.088682 0.000000
# 6 0.000000 0.000000 0.000000 0.000000 0.000000 0.021014
#
#
# Mechanical properties :
#
#
# Convention : Reuss Voigt Hill
#
# Bulk Modulus (GPa) = 49.33584 65.02129 57.17857
# Shear Modulus (GPa) = 40.30324 24.85069 32.57697
#
# Velocity S-wave (km/s) = 4.29379 3.37163 3.86034
# Velocity P-wave (km/s) = 6.86664 6.70082 6.78423
#
# Compressibility (1/GPa) = 0.02026924
#
# Stress axis : x y z
#
# Youngs Moduli (GPa) = 61.92359 78.79868 87.71257
#
# Poissons Ratio (x) = 0.65065 -0.41783
# Poissons Ratio (y) = 0.51131 0.56945
# Poissons Ratio (z) = -0.29498 0.51158
#
# Static dielectric constant tensor:
#      x y z
#    x 1.094170 0.000000 0.000000 
#    y 0.000000 1.980390 0.000000 
#    z 0.000000 0.000000 1.863340 
# 
# From -- ./inp_files/28963.got.cif
#   From: 2010.05.17/outbox.cif.g08.bks.cpg/sg43_15_cif.got.tgz:28963.got - 2010.06.03 19:21:55.
