data_PCOD9372064
_publ_section_title
;
Structure prediction by ZEFSAII (Michael W. Deem and Ramdas Pophale) SiO2 
 PCOD9372064
Probable space group: F D D 2
;
_chemical_formula_sum "Si O2"
_cell_formula_units_Z 120
_cell_length_a 22.956747
_cell_length_b 22.576052
_cell_length_c 10.589295
_cell_angle_alpha 90.000000
_cell_angle_beta 90.000000
_cell_angle_gamma 90.000000
_cell_volume 5488.142659
_symmetry_space_group_name_H-M "F D D 2"
_symmetry_group_IT_number 43
_symmetry_cell_setting 'orthorhombic'
loop_
_space_group_symop_operation_xyz
x,y,z
-x,-y,z
1/4-x,1/4+y,1/4+z
1/4+x,1/4-y,1/4+z
x,1/2+y,1/2+z
-x,1/2-y,1/2+z
1/4-x,3/4+y,3/4+z
1/4+x,3/4-y,3/4+z
1/2+x,y,1/2+z
1/2-x,-y,1/2+z
3/4-x,1/4+y,3/4+z
3/4+x,1/4-y,3/4+z
1/2+x,1/2+y,z
1/2-x,1/2-y,z
3/4-x,3/4+y,1/4+z
3/4+x,3/4-y,1/4+z
loop_
_atom_site_type_symbol
_atom_site_label
_atom_site_fract_x
_atom_site_fract_y
_atom_site_fract_z
Si Si1 0.111870 0.025034 0.742730
Si Si2 0.786342 0.867803 0.294338
Si Si3 0.750000 0.750000 0.152075
Si Si4 0.096988 0.061112 0.230843
Si Si5 0.916914 0.345101 0.512471
Si Si6 0.674662 0.642418 0.784787
Si Si7 0.694900 0.326794 0.253955
Si Si8 0.399508 0.072159 0.764165
O O1 0.161559 0.075037 0.744383
O O2 0.087523 0.030388 0.598048
O O3 0.051735 0.030368 0.821120
O O4 0.142694 0.968052 0.805434
O O5 0.778751 0.803530 0.230262
O O6 0.844883 0.903452 0.265799
O O7 0.735291 0.908490 0.236423
O O8 0.796463 0.854112 0.443137
O O9 0.079140 0.099436 0.108834
O O10 0.055923 0.059736 0.355776
O O11 0.108080 0.992326 0.203646
O O12 0.871390 0.353655 0.398846
O O13 0.741481 0.658691 0.810340
O O14 0.658953 0.681147 0.663093
O O15 0.657202 0.386909 0.252928
#
# Coordination Sequence:
#
# PCOD9372064 Si02
#       8
#    16  16   8  16  16  16  16  16
#     4  11  24  41  67 100 135 183 232 298 363 429
#     4  11  24  41  67 100 135 183 232 298 363 429
#     4  12  20  44  68  98 144 180 232 312 366 444
#     4  11  24  43  67 101 134 187 240 288 362 431
#     4  12  24  40  68 102 136 178 242 292 360 430
#     4  11  24  43  67 101 134 187 240 288 362 431
#     4  10  24  44  67  97 140 184 236 291 363 437
#     4  10  24  44  67  97 140 184 236 291 363 437
#
# _framework density 21.865321999999999
#
# number of rings (size 3 to 8) (size 9 to 14) (size 15 to 20)
#    0.000    1.067    2.667    3.200    1.867    2.667 
#    0.000    0.000    0.000    0.000    0.000    0.000 
#    0.000    0.000    0.000    0.000    0.000    0.000 
#
# Total GULP energy -167101.180939 kJ/mol
# GULP energy per Si atom -5570.039365 kJ/mol
# Density = 2.181556 g / cm^3
# Si number density = 21.865322 Si / 1000 Ang^3
#
#
#
# Elastic Constant Matrix: (Units=GPa)
#
#
# Indices 1 2 3 4 5 6 
#
# 1 99.3542 16.8866 23.4583 0.0000 0.0000 0.0000
# 2 16.8866 81.2823 15.8859 0.0000 0.0000 0.0000
# 3 23.4583 15.8859 73.0302 0.0002 -0.0002 -0.0001
# 4 0.0000 0.0000 0.0002 33.2260 -0.0001 0.0000
# 5 0.0000 0.0000 -0.0002 -0.0001 37.4719 0.0000
# 6 0.0000 0.0000 -0.0001 0.0000 0.0000 30.2086
#
#
#
# Elastic Compliance Matrix: (Units=1/GPa)
#
#
# Indices 1 2 3 4 5 6 
#
# 1 0.011107 -0.001682 -0.003202 0.000000 0.000000 0.000000
# 2 -0.001682 0.013104 -0.002310 0.000000 0.000000 0.000000
# 3 -0.003202 -0.002310 0.015224 0.000000 0.000000 0.000000
# 4 0.000000 0.000000 0.000000 0.030097 0.000000 0.000000
# 5 0.000000 0.000000 0.000000 0.000000 0.026687 0.000000
# 6 0.000000 0.000000 0.000000 0.000000 0.000000 0.033103
#
#
# Mechanical properties :
#
#
# Convention : Reuss Voigt Hill
#
# Bulk Modulus (GPa) = 39.92497 40.68093 40.30295
# Shear Modulus (GPa) = 32.88224 33.34368 33.11296
#
# Velocity S-wave (km/s) = 3.88216 3.90931 3.89576
# Velocity P-wave (km/s) = 6.19629 6.24680 6.22160
#
# Compressibility (1/GPa) = 0.02504698
#
# Stress axis : x y z
#
# Youngs Moduli (GPa) = 90.03490 76.31439 65.68588
#
# Poissons Ratio (x) = 0.12834 0.21032
# Poissons Ratio (y) = 0.15141 0.15175
# Poissons Ratio (z) = 0.28828 0.17630
#
# Static dielectric constant tensor:
#      x y z
#    x 1.827470 0.000000 0.000000 
#    y 0.000000 1.867810 0.000000 
#    z 0.000000 0.000000 1.902720 
# 
# From -- ./inp_files/7206.got.cif
#   From: 2010.05.17/outbox.cif.g08.bks.cpg/sg43_4_cif.got.tgz:7206.got - 2010.06.03 19:21:55.
