data_PCOD9372772
_publ_section_title
;
Structure prediction by ZEFSAII (Michael W. Deem and Ramdas Pophale) SiO2 
 PCOD9372772
Probable space group: F D D 2
;
_chemical_formula_sum "Si O2"
_cell_formula_units_Z 80
_cell_length_a 18.348411
_cell_length_b 17.558769
_cell_length_c 6.627747
_cell_angle_alpha 90.000000
_cell_angle_beta 90.000000
_cell_angle_gamma 90.000000
_cell_volume 2135.297772
_symmetry_space_group_name_H-M "F D D 2"
_symmetry_group_IT_number 43
_symmetry_cell_setting 'orthorhombic'
loop_
_space_group_symop_operation_xyz
x,y,z
-x,-y,z
1/4-x,1/4+y,1/4+z
1/4+x,1/4-y,1/4+z
x,1/2+y,1/2+z
-x,1/2-y,1/2+z
1/4-x,3/4+y,3/4+z
1/4+x,3/4-y,3/4+z
1/2+x,y,1/2+z
1/2-x,-y,1/2+z
3/4-x,1/4+y,3/4+z
3/4+x,1/4-y,3/4+z
1/2+x,1/2+y,z
1/2-x,1/2-y,z
3/4-x,3/4+y,1/4+z
3/4+x,3/4-y,1/4+z
loop_
_atom_site_type_symbol
_atom_site_label
_atom_site_fract_x
_atom_site_fract_y
_atom_site_fract_z
Si Si1 0.046206 0.418735 0.372040
Si Si2 0.202556 0.410557 0.368474
Si Si3 0.348079 0.444285 0.866152
Si Si4 0.450697 0.336761 0.613434
Si Si5 0.798281 0.825422 0.611519
O O1 0.124351 0.467250 0.373571
O O2 0.000000 0.500000 0.361273
O O3 0.041039 0.392564 0.113417
O O4 0.035668 0.397723 0.619161
O O5 0.215714 0.396154 0.615037
O O6 0.128015 0.343236 0.324809
O O7 0.222198 0.398902 0.117575
O O8 0.380470 0.410076 0.658701
O O9 0.266253 0.489655 0.863368
O O10 0.378599 0.284931 0.610264
O O11 0.750000 0.750000 0.624992
#
# Coordination Sequence:
#
# PCOD9372772 Si02
#       5
#    16  16  16  16  16
#     4   9  21  32  58  78 104 141 178 215 264 314
#     4  12  18  36  56  80 105 138 175 228 261 307
#     4   8  21  34  57  71 110 144 177 196 281 331
#     4   8  18  36  51  73 103 138 175 208 257 324
#     4   9  18  32  55  74 101 138 174 211 258 312
#
# _framework density 37.465499999999999
#
# number of rings (size 3 to 8) (size 9 to 14) (size 15 to 20)
#    2.400    0.000    0.000    4.800    0.000    0.000 
#    0.000    4.000    0.000    2.400    0.000    0.000 
#    0.000    0.000    0.000    0.000    0.000    0.000 
#
# Total GULP energy -111889.913421 kJ/mol
# GULP energy per Si atom -5594.495671 kJ/mol
# Density = 3.738023 g / cm^3
# Si number density = 37.465500 Si / 1000 Ang^3
#
#
#
# Elastic Constant Matrix: (Units=GPa)
#
#
# Indices 1 2 3 4 5 6 
#
# 1 516.0007 115.5454 271.7383 0.0017 -0.0019 -0.0006
# 2 115.5454 382.9971 193.5849 0.0033 -0.0031 -0.0010
# 3 271.7383 193.5849 498.2054 0.0036 -0.0185 -0.0027
# 4 0.0017 0.0033 0.0036 10.3425 0.0086 -0.0017
# 5 -0.0019 -0.0031 -0.0185 0.0086 824.7645 0.0035
# 6 -0.0006 -0.0010 -0.0027 -0.0017 0.0035 86.1635
#
#
#
# Elastic Compliance Matrix: (Units=1/GPa)
#
#
# Indices 1 2 3 4 5 6 
#
# 1 0.002721 -0.000088 -0.001450 0.000000 0.000000 0.000000
# 2 -0.000088 0.003252 -0.001216 -0.000001 0.000000 0.000000
# 3 -0.001450 -0.001216 0.003270 -0.000001 0.000000 0.000000
# 4 0.000000 -0.000001 -0.000001 0.096688 -0.000001 0.000002
# 5 0.000000 0.000000 0.000000 -0.000001 0.001212 0.000000
# 6 0.000000 0.000000 0.000000 0.000002 0.000000 0.011606
#
#
# Mechanical properties :
#
#
# Convention : Reuss Voigt Hill
#
# Bulk Modulus (GPa) = 267.64216 284.32670 275.98443
# Shear Modulus (GPa) = 39.83965 238.67640 139.25803
#
# Velocity S-wave (km/s) = 3.26447 7.99024 6.10331
# Velocity P-wave (km/s) = 9.26289 12.69568 11.11264
#
# Compressibility (1/GPa) = 0.00373633
#
# Stress axis : x y z
#
# Youngs Moduli (GPa) = 367.46309 307.50731 305.76610
#
# Poissons Ratio (x) = 0.02707 0.44340
# Poissons Ratio (y) = 0.03235 0.37168
# Poissons Ratio (z) = 0.53286 0.37380
#
# Static dielectric constant tensor:
#      x y z
#    x -24.775070 -0.000770 -0.000020 
#    y -0.000770 10.577480 0.000000 
#    z -0.000020 0.000000 2.534370 
# 
# From -- ./inp_files/3414.got.cif
#   From: 2010.05.17/outbox.cif.g08.bks.cpg/sg43_2_cif.got.tgz:3414.got - 2010.06.03 19:21:55.
