data_PCOD9372592
_publ_section_title
;
Structure prediction by ZEFSAII (Michael W. Deem and Ramdas Pophale) SiO2 
 PCOD9372592
Probable space group: F D D 2
;
_chemical_formula_sum "Si O2"
_cell_formula_units_Z 72
_cell_length_a 19.851369
_cell_length_b 6.825314
_cell_length_c 18.900777
_cell_angle_alpha 90.000000
_cell_angle_beta 90.000000
_cell_angle_gamma 90.000000
_cell_volume 2560.900803
_symmetry_space_group_name_H-M "F D D 2"
_symmetry_group_IT_number 43
_symmetry_cell_setting 'orthorhombic'
loop_
_space_group_symop_operation_xyz
x,y,z
-x,-y,z
1/4-x,1/4+y,1/4+z
1/4+x,1/4-y,1/4+z
x,1/2+y,1/2+z
-x,1/2-y,1/2+z
1/4-x,3/4+y,3/4+z
1/4+x,3/4-y,3/4+z
1/2+x,y,1/2+z
1/2-x,-y,1/2+z
3/4-x,1/4+y,3/4+z
3/4+x,1/4-y,3/4+z
1/2+x,1/2+y,z
1/2-x,1/2-y,z
3/4-x,3/4+y,1/4+z
3/4+x,3/4-y,1/4+z
loop_
_atom_site_type_symbol
_atom_site_label
_atom_site_fract_x
_atom_site_fract_y
_atom_site_fract_z
Si Si1 0.086602 0.814406 0.849180
Si Si2 0.380787 0.564747 0.535146
Si Si3 0.758181 0.520901 0.463685
Si Si4 0.708587 0.075025 0.823657
Si Si5 0.250000 0.750000 0.186755
O O1 0.155854 0.708956 0.866694
O O2 0.104150 0.046898 0.850146
O O3 0.067551 0.788355 0.766364
O O4 0.033446 0.677676 0.891520
O O5 0.312675 0.562832 0.490249
O O6 0.407497 0.342465 0.547890
O O7 0.445833 0.617144 0.486166
O O8 0.750000 0.750000 0.475050
O O9 0.757570 0.473998 0.380593
O O10 0.750000 0.250000 0.783644
#
# Coordination Sequence:
#
# PCOD9372592 Si02
#       5
#    16  16  16  16   8
#     4  12  25  52  81 117 167 224 279 356 439 514
#     4  12  26  51  81 124 163 226 289 342 441 519
#     4  11  23  49  82 110 162 219 273 347 423 505
#     4  11  25  51  79 121 171 214 283 357 419 524
#     4  12  26  54  82 124 182 210 290 374 416 520
#
# _framework density 28.115107999999999
#
# number of rings (size 3 to 8) (size 9 to 14) (size 15 to 20)
#    0.000    0.444    5.556    2.000    0.000    0.000 
#   24.000    4.444    0.000    0.000    0.000    0.000 
#    0.000    0.000    0.000    0.000    0.000    0.000 
#
# Total GULP energy -100269.652091 kJ/mol
# GULP energy per Si atom -5570.536227 kJ/mol
# Density = 2.805112 g / cm^3
# Si number density = 28.115108 Si / 1000 Ang^3
#
#
#
# Elastic Constant Matrix: (Units=GPa)
#
#
# Indices 1 2 3 4 5 6 
#
# 1 102.3833 22.3941 18.9345 0.0000 0.0000 0.0000
# 2 22.3941 214.6073 41.9080 0.0000 0.0000 0.0001
# 3 18.9345 41.9080 93.2751 0.0000 0.0000 0.0000
# 4 0.0000 0.0000 0.0000 25.6646 0.0000 0.0000
# 5 0.0000 0.0000 0.0000 0.0000 31.1337 0.0000
# 6 0.0000 0.0001 0.0000 0.0000 0.0000 31.2729
#
#
#
# Elastic Compliance Matrix: (Units=1/GPa)
#
#
# Indices 1 2 3 4 5 6 
#
# 1 0.010251 -0.000727 -0.001754 0.000000 0.000000 0.000000
# 2 -0.000727 0.005159 -0.002170 0.000000 0.000000 0.000000
# 3 -0.001754 -0.002170 0.012052 0.000000 0.000000 0.000000
# 4 0.000000 0.000000 0.000000 0.038964 0.000000 0.000000
# 5 0.000000 0.000000 0.000000 0.000000 0.032120 0.000000
# 6 0.000000 0.000000 0.000000 0.000000 0.000000 0.031977
#
#
# Mechanical properties :
#
#
# Convention : Reuss Voigt Hill
#
# Bulk Modulus (GPa) = 55.06973 64.08211 59.57592
# Shear Modulus (GPa) = 34.27498 39.41618 36.84558
#
# Velocity S-wave (km/s) = 3.49534 3.74833 3.62405
# Velocity P-wave (km/s) = 5.99330 6.44791 6.22476
#
# Compressibility (1/GPa) = 0.01815880
#
# Stress axis : x y z
#
# Youngs Moduli (GPa) = 97.55465 193.82125 82.97205
#
# Poissons Ratio (x) = 0.14093 0.14555
# Poissons Ratio (y) = 0.07093 0.18009
# Poissons Ratio (z) = 0.17113 0.42069
#
# Static dielectric constant tensor:
#      x y z
#    x 2.131620 0.000000 0.000000 
#    y 0.000000 2.274850 0.000000 
#    z 0.000000 0.000000 2.408500 
# 
# From -- ./inp_files/17937.got.cif
#   From: 2010.05.17/outbox.cif.g08.bks.cpg/sg43_9_cif.got.tgz:17937.got - 2010.06.03 19:21:55.
