data_PCOD9372200
_publ_section_title
;
Structure prediction by ZEFSAII (Michael W. Deem and Ramdas Pophale) SiO2 
 PCOD9372200
Probable space group: F D D 2
;
_chemical_formula_sum "Si O2"
_cell_formula_units_Z 48
_cell_length_a 8.969726
_cell_length_b 8.969758
_cell_length_c 18.003353
_cell_angle_alpha 90.000000
_cell_angle_beta 90.000000
_cell_angle_gamma 90.000000
_cell_volume 1448.482658
_symmetry_space_group_name_H-M "F D D 2"
_symmetry_group_IT_number 43
_symmetry_cell_setting 'orthorhombic'
loop_
_space_group_symop_operation_xyz
x,y,z
-x,-y,z
1/4-x,1/4+y,1/4+z
1/4+x,1/4-y,1/4+z
x,1/2+y,1/2+z
-x,1/2-y,1/2+z
1/4-x,3/4+y,3/4+z
1/4+x,3/4-y,3/4+z
1/2+x,y,1/2+z
1/2-x,-y,1/2+z
3/4-x,1/4+y,3/4+z
3/4+x,1/4-y,3/4+z
1/2+x,1/2+y,z
1/2-x,1/2-y,z
3/4-x,3/4+y,1/4+z
3/4+x,3/4-y,1/4+z
loop_
_atom_site_type_symbol
_atom_site_label
_atom_site_fract_x
_atom_site_fract_y
_atom_site_fract_z
Si Si1 0.694824 0.064025 0.559580
Si Si2 0.814024 0.444825 0.725619
Si Si3 0.000000 0.500000 0.113827
Si Si4 0.250000 0.250000 0.671373
O O1 0.353502 0.107034 0.541640
O O2 0.642874 0.107124 0.642600
O O3 0.863552 0.113551 0.392599
O O4 0.869671 0.086660 0.569144
O O5 0.642963 0.396502 0.743558
O O6 0.836659 0.619672 0.716057
#
# Coordination Sequence:
#
# PCOD9372200 Si02
#       4
#    16  16   8   8
#     4  10  24  58 106 156 220 296 374 467 568 679
#     4  10  24  58 106 156 220 296 374 467 568 679
#     4  10  24  58 107 166 224 292 375 470 567 676
#     4  10  24  58 107 166 224 292 375 470 567 676
#
# _framework density 33.138125000000002
#
# number of rings (size 3 to 8) (size 9 to 14) (size 15 to 20)
#    0.000    2.000    0.000    0.000    0.000    0.000 
#    0.000  173.333    0.000   62.000    0.000    4.667 
#    0.000    0.000    0.000    0.000    0.000    0.000 
#
# Total GULP energy -67010.959913 kJ/mol
# GULP energy per Si atom -5584.246659 kJ/mol
# Density = 3.306270 g / cm^3
# Si number density = 33.138125 Si / 1000 Ang^3
#
#
#
# Elastic Constant Matrix: (Units=GPa)
#
#
# Indices 1 2 3 4 5 6 
#
# 1 299.7195 78.8150 109.4876 0.0000 0.0000 0.0000
# 2 78.8150 299.7212 109.4889 0.0000 0.0000 0.0000
# 3 109.4876 109.4889 227.3543 0.0000 0.0000 0.0000
# 4 0.0000 0.0000 0.0000 104.9591 0.0000 0.0000
# 5 0.0000 0.0000 0.0000 0.0000 104.9595 0.0000
# 6 0.0000 0.0000 0.0000 0.0000 0.0000 51.6450
#
#
#
# Elastic Compliance Matrix: (Units=1/GPa)
#
#
# Indices 1 2 3 4 5 6 
#
# 1 0.004094 -0.000432 -0.001763 0.000000 0.000000 0.000000
# 2 -0.000432 0.004094 -0.001763 0.000000 0.000000 0.000000
# 3 -0.001763 -0.001763 0.006097 0.000000 0.000000 0.000000
# 4 0.000000 0.000000 0.000000 0.009528 0.000000 0.000000
# 5 0.000000 0.000000 0.000000 0.000000 0.009527 0.000000
# 6 0.000000 0.000000 0.000000 0.000000 0.000000 0.019363
#
#
# Mechanical properties :
#
#
# Convention : Reuss Voigt Hill
#
# Bulk Modulus (GPa) = 157.06478 158.04200 157.55339
# Shear Modulus (GPa) = 79.68795 87.57963 83.63379
#
# Velocity S-wave (km/s) = 4.90912 5.14646 5.02919
# Velocity P-wave (km/s) = 8.92370 9.11648 9.02060
#
# Compressibility (1/GPa) = 0.00636680
#
# Stress axis : x y z
#
# Youngs Moduli (GPa) = 244.23779 244.23830 164.01720
#
# Poissons Ratio (x) = 0.10562 0.28924
# Poissons Ratio (y) = 0.10562 0.28924
# Poissons Ratio (z) = 0.43071 0.43071
#
# Static dielectric constant tensor:
#      x y z
#    x 2.634580 0.000000 0.000000 
#    y 0.000000 2.634580 0.000000 
#    z 0.000000 0.000000 3.294950 
# 
# From -- ./inp_files/13072.got.cif
#   From: 2010.05.17/outbox.cif.g08.bks.cpg/sg43_7_cif.got.tgz:13072.got - 2010.06.03 19:21:55.
