data_PCOD9372472
_publ_section_title
;
Structure prediction by ZEFSAII (Michael W. Deem and Ramdas Pophale) SiO2 
 PCOD9372472
Probable space group: F D D 2
;
_chemical_formula_sum "Si O2"
_cell_formula_units_Z 96
_cell_length_a 22.797538
_cell_length_b 10.223592
_cell_length_c 16.845936
_cell_angle_alpha 90.000000
_cell_angle_beta 90.000000
_cell_angle_gamma 90.000000
_cell_volume 3926.328244
_symmetry_space_group_name_H-M "F D D 2"
_symmetry_group_IT_number 43
_symmetry_cell_setting 'orthorhombic'
loop_
_space_group_symop_operation_xyz
x,y,z
-x,-y,z
1/4-x,1/4+y,1/4+z
1/4+x,1/4-y,1/4+z
x,1/2+y,1/2+z
-x,1/2-y,1/2+z
1/4-x,3/4+y,3/4+z
1/4+x,3/4-y,3/4+z
1/2+x,y,1/2+z
1/2-x,-y,1/2+z
3/4-x,1/4+y,3/4+z
3/4+x,1/4-y,3/4+z
1/2+x,1/2+y,z
1/2-x,1/2-y,z
3/4-x,3/4+y,1/4+z
3/4+x,3/4-y,1/4+z
loop_
_atom_site_type_symbol
_atom_site_label
_atom_site_fract_x
_atom_site_fract_y
_atom_site_fract_z
Si Si1 0.888859 0.847897 0.864590
Si Si2 0.291490 0.644374 0.330754
Si Si3 0.098254 0.355311 0.560826
Si Si4 0.253686 0.069203 0.011794
Si Si5 0.380909 0.855055 0.540435
Si Si6 0.942669 0.060212 0.218877
O O1 0.852254 0.725576 0.830820
O O2 0.948416 0.881239 0.819574
O O3 0.856631 0.990697 0.854385
O O4 0.896673 0.803194 0.954198
O O5 0.250000 0.750000 0.290752
O O6 0.299014 0.502990 0.292383
O O7 0.267552 0.616631 0.421132
O O8 0.086825 0.505802 0.542878
O O9 0.154668 0.295391 0.516593
O O10 0.099542 0.364141 0.656862
O O11 0.187587 0.099633 0.036667
O O12 0.273715 0.918960 0.019759
O O13 0.000000 0.000000 0.175400
#
# Coordination Sequence:
#
# PCOD9372472 Si02
#       6
#    16  16  16  16  16  16
#     4  12  23  42  73 102 137 186 243 294 354 427
#     4  11  22  44  70  99 133 187 242 284 351 435
#     4  11  25  43  71 106 141 188 237 291 367 427
#     4  11  22  44  75  98 133 193 238 289 360 427
#     4  12  25  43  70 103 144 186 236 303 361 427
#     4  11  23  45  75 101 141 188 236 297 361 427
#
# _framework density 24.450326
#
# number of rings (size 3 to 8) (size 9 to 14) (size 15 to 20)
#    0.000    0.667    6.667    1.500    0.000    0.000 
#    0.000    9.167    0.000    0.000    0.000    0.000 
#    0.000    0.000    0.000    0.000    0.000    0.000 
#
# Total GULP energy -133833.587544 kJ/mol
# GULP energy per Si atom -5576.399481 kJ/mol
# Density = 2.439468 g / cm^3
# Si number density = 24.450326 Si / 1000 Ang^3
#
#
#
# Elastic Constant Matrix: (Units=GPa)
#
#
# Indices 1 2 3 4 5 6 
#
# 1 75.0879 -6.2062 19.6539 0.0000 0.0000 0.0000
# 2 -6.2062 98.2281 -7.7649 0.0000 0.0000 0.0000
# 3 19.6539 -7.7649 35.8812 0.0000 0.0000 0.0000
# 4 0.0000 0.0000 0.0000 33.3233 0.0000 0.0000
# 5 0.0000 0.0000 0.0000 0.0000-7676.4497 0.0000
# 6 0.0000 0.0000 0.0000 0.0000 0.0000 31.2804
#
#
#
# Elastic Compliance Matrix: (Units=1/GPa)
#
#
# Indices 1 2 3 4 5 6 
#
# 1 0.015556 0.000315 -0.008453 0.000000 0.000000 0.000000
# 2 0.000315 0.010364 0.002070 0.000000 0.000000 0.000000
# 3 -0.008453 0.002070 0.032948 0.000000 0.000000 0.000000
# 4 0.000000 0.000000 0.000000 0.030009 0.000000 0.000000
# 5 0.000000 0.000000 0.000000 0.000000 -0.000130 0.000000
# 6 0.000000 0.000000 0.000000 0.000000 0.000000 0.031969
#
#
# Mechanical properties :
#
#
# Convention : Reuss Voigt Hill
#
# Bulk Modulus (GPa) = 21.39834 24.50696 22.95265
# Shear Modulus (GPa) = 33.68627 -1508.80156 -737.55765
#
# Velocity S-wave (km/s) = 3.71582 -24.86822 -17.38708
# Velocity P-wave (km/s) = 5.21350 28.53990 19.84119
#
# Compressibility (1/GPa) = 0.04673261
#
# Stress axis : x y z
#
# Youngs Moduli (GPa) = 64.28299 96.48840 30.35107
#
# Poissons Ratio (x) = -0.03036 0.25655
# Poissons Ratio (y) = -0.02023 -0.06284
# Poissons Ratio (z) = 0.54337 -0.19977
#
# Static dielectric constant tensor:
#      x y z
#    x 3.735360 0.000000 0.000000 
#    y 0.000000 2.156460 0.000000 
#    z 0.000000 0.000000 1.982690 
# 
# From -- ./inp_files/15031.got.cif
#   From: 2010.05.17/outbox.cif.g08.bks.cpg/sg43_8_cif.got.tgz:15031.got - 2010.06.03 19:21:55.
