data_PCOD9372281
_publ_section_title
;
Structure prediction by ZEFSAII (Michael W. Deem and Ramdas Pophale) SiO2 
 PCOD9372281
Probable space group: F D D 2
;
_chemical_formula_sum "Si O2"
_cell_formula_units_Z 72
_cell_length_a 22.252704
_cell_length_b 7.644163
_cell_length_c 18.397913
_cell_angle_alpha 90.000000
_cell_angle_beta 90.000000
_cell_angle_gamma 90.000000
_cell_volume 3129.545651
_symmetry_space_group_name_H-M "F D D 2"
_symmetry_group_IT_number 43
_symmetry_cell_setting 'orthorhombic'
loop_
_space_group_symop_operation_xyz
x,y,z
-x,-y,z
1/4-x,1/4+y,1/4+z
1/4+x,1/4-y,1/4+z
x,1/2+y,1/2+z
-x,1/2-y,1/2+z
1/4-x,3/4+y,3/4+z
1/4+x,3/4-y,3/4+z
1/2+x,y,1/2+z
1/2-x,-y,1/2+z
3/4-x,1/4+y,3/4+z
3/4+x,1/4-y,3/4+z
1/2+x,1/2+y,z
1/2-x,1/2-y,z
3/4-x,3/4+y,1/4+z
3/4+x,3/4-y,1/4+z
loop_
_atom_site_type_symbol
_atom_site_label
_atom_site_fract_x
_atom_site_fract_y
_atom_site_fract_z
Si Si1 0.782539 0.412122 0.333450
Si Si2 0.750000 0.750000 0.253474
Si Si3 0.679919 0.740241 0.565688
Si Si4 0.615779 0.789091 0.211808
Si Si5 0.623068 0.687846 0.721464
O O1 0.750000 0.250000 0.372284
O O2 0.745198 0.574860 0.302441
O O3 0.832649 0.494827 0.385977
O O4 0.815198 0.314177 0.267065
O O5 0.688151 0.769403 0.208878
O O6 0.750000 0.750000 0.585432
O O7 0.659411 0.911191 0.522491
O O8 0.639669 0.719644 0.637785
O O9 0.668780 0.579508 0.509974
O O10 0.601603 0.989639 0.230047
#
# Coordination Sequence:
#
# PCOD9372281 Si02
#       5
#    16   8  16  16  16
#     4  11  24  47  79 107 151 202 246 313 384 448
#     4  10  26  48  72 110 156 194 250 314 376 452
#     4  12  29  47  78 113 153 199 257 311 377 458
#     4  11  27  47  77 112 148 203 250 311 377 448
#     4  11  26  52  69 112 156 197 251 312 389 442
#
# _framework density 23.006533999999998
#
# number of rings (size 3 to 8) (size 9 to 14) (size 15 to 20)
#    0.000    0.889    2.222    2.000   10.889    1.778 
#    0.000    0.000    0.000    0.000    0.000    0.000 
#    0.000    0.000    0.000    0.000    0.000    0.000 
#
# Total GULP energy -100734.802221 kJ/mol
# GULP energy per Si atom -5596.377901 kJ/mol
# Density = 2.295417 g / cm^3
# Si number density = 23.006534 Si / 1000 Ang^3
#
#
#
# Elastic Constant Matrix: (Units=GPa)
#
#
# Indices 1 2 3 4 5 6 
#
# 1 63.2255 34.1681 17.0414 0.0000 0.0000 0.0000
# 2 34.1681 149.5728 52.2986 0.0000 0.0000 0.0000
# 3 17.0414 52.2986 113.0892 0.0000 0.0000 0.0000
# 4 0.0000 0.0000 0.0000 30.7935 0.0000 0.0000
# 5 0.0000 0.0000 0.0000 0.0000 35.0521 0.0000
# 6 0.0000 0.0000 0.0000 0.0000 0.0000 28.8022
#
#
#
# Elastic Compliance Matrix: (Units=1/GPa)
#
#
# Indices 1 2 3 4 5 6 
#
# 1 0.018134 -0.003802 -0.000974 0.000000 0.000000 0.000000
# 2 -0.003802 0.008772 -0.003484 0.000000 0.000000 0.000000
# 3 -0.000974 -0.003484 0.010601 0.000000 0.000000 0.000000
# 4 0.000000 0.000000 0.000000 0.032474 0.000000 0.000000
# 5 0.000000 0.000000 0.000000 0.000000 0.028529 0.000000
# 6 0.000000 0.000000 0.000000 0.000000 0.000000 0.034720
#
#
# Mechanical properties :
#
#
# Convention : Reuss Voigt Hill
#
# Bulk Modulus (GPa) = 47.64999 59.21151 53.43075
# Shear Modulus (GPa) = 31.89898 33.75486 32.82692
#
# Velocity S-wave (km/s) = 3.72764 3.83454 3.78147
# Velocity P-wave (km/s) = 6.26766 6.73778 6.50696
#
# Compressibility (1/GPa) = 0.02098636
#
# Stress axis : x y z
#
# Youngs Moduli (GPa) = 55.14642 113.99499 94.33460
#
# Poissons Ratio (x) = 0.43337 0.09192
# Poissons Ratio (y) = 0.20965 0.32865
# Poissons Ratio (z) = 0.05374 0.39715
#
# Static dielectric constant tensor:
#      x y z
#    x 1.890790 0.000000 0.000000 
#    y 0.000000 1.849460 0.000000 
#    z 0.000000 0.000000 1.865890 
# 
# From -- ./inp_files/14478.got.cif
#   From: 2010.05.17/outbox.cif.g08.bks.cpg/sg43_8_cif.got.tgz:14478.got - 2010.06.03 19:21:55.
