data_PCOD9372023
_publ_section_title
;
Structure prediction by ZEFSAII (Michael W. Deem and Ramdas Pophale) SiO2 
 PCOD9372023
Probable space group: F D D 2
;
_chemical_formula_sum "Si O2"
_cell_formula_units_Z 56
_cell_length_a 10.829769
_cell_length_b 11.818138
_cell_length_c 18.455705
_cell_angle_alpha 90.000000
_cell_angle_beta 90.000000
_cell_angle_gamma 90.000000
_cell_volume 2362.103319
_symmetry_space_group_name_H-M "F D D 2"
_symmetry_group_IT_number 43
_symmetry_cell_setting 'orthorhombic'
loop_
_space_group_symop_operation_xyz
x,y,z
-x,-y,z
1/4-x,1/4+y,1/4+z
1/4+x,1/4-y,1/4+z
x,1/2+y,1/2+z
-x,1/2-y,1/2+z
1/4-x,3/4+y,3/4+z
1/4+x,3/4-y,3/4+z
1/2+x,y,1/2+z
1/2-x,-y,1/2+z
3/4-x,1/4+y,3/4+z
3/4+x,1/4-y,3/4+z
1/2+x,1/2+y,z
1/2-x,1/2-y,z
3/4-x,3/4+y,1/4+z
3/4+x,3/4-y,1/4+z
loop_
_atom_site_type_symbol
_atom_site_label
_atom_site_fract_x
_atom_site_fract_y
_atom_site_fract_z
Si Si1 0.900545 0.605295 0.795340
Si Si2 0.250000 0.750000 0.408554
Si Si3 0.460386 0.316771 0.003687
Si Si4 0.054652 0.628278 0.672028
O O1 0.847306 0.677986 0.861026
O O2 0.778898 0.554471 0.757151
O O3 0.000000 0.500000 0.814598
O O4 0.967379 0.680509 0.734234
O O5 0.334317 0.824140 0.461157
O O6 0.561742 0.385381 0.958173
O O7 0.446956 0.339219 0.088860
O O8 0.000000 0.500000 0.669939
#
# Coordination Sequence:
#
# PCOD9372023 Si02
#       4
#    16   8  16  16
#     4   9  24  45  69  97 144 185 230 295 368 424
#     4  12  26  42  72 108 132 182 250 296 352 428
#     4  10  24  42  65 100 134 183 240 290 358 430
#     4   9  22  44  67  91 136 190 230 287 369 423
#
# _framework density 23.707685999999999
#
# number of rings (size 3 to 8) (size 9 to 14) (size 15 to 20)
#    0.000    2.857    0.000    0.000   20.000    4.571 
#    2.571    0.000    0.000    0.000    0.000    0.000 
#    0.000    0.000    0.000    0.000    0.000    0.000 
#
# Total GULP energy -78013.644644 kJ/mol
# GULP energy per Si atom -5572.403189 kJ/mol
# Density = 2.365373 g / cm^3
# Si number density = 23.707686 Si / 1000 Ang^3
#
#
#
# Elastic Constant Matrix: (Units=GPa)
#
#
# Indices 1 2 3 4 5 6 
#
# 1 140.3826 35.3550 143.1268 0.0000 0.0000 0.0000
# 2 35.3550 54.1474 46.7654 0.0000 0.0000 0.0000
# 3 143.1268 46.7654 240.4242 0.0000 0.0000 0.0000
# 4 0.0000 0.0000 0.0000 8.6517 0.0000 0.0000
# 5 0.0000 0.0000 0.0000 0.0000 74.1347 0.0000
# 6 0.0000 0.0000 0.0000 0.0000 0.0000 18.6484
#
#
#
# Elastic Compliance Matrix: (Units=1/GPa)
#
#
# Indices 1 2 3 4 5 6 
#
# 1 0.018545 -0.003093 -0.010438 0.000000 0.000000 0.000000
# 2 -0.003093 0.022713 -0.002576 0.000000 0.000000 0.000000
# 3 -0.010438 -0.002576 0.010874 0.000000 0.000000 0.000000
# 4 0.000000 0.000000 0.000000 0.115585 0.000000 0.000000
# 5 0.000000 0.000000 0.000000 0.000000 0.013489 0.000000
# 6 0.000000 0.000000 0.000000 0.000000 0.000000 0.053624
#
#
# Mechanical properties :
#
#
# Convention : Reuss Voigt Hill
#
# Bulk Modulus (GPa) = 50.21044 98.38318 74.29681
# Shear Modulus (GPa) = 18.26925 34.26742 26.26833
#
# Velocity S-wave (km/s) = 2.77899 3.80598 3.33229
# Velocity P-wave (km/s) = 5.61444 7.80401 6.79796
#
# Compressibility (1/GPa) = 0.01991618
#
# Stress axis : x y z
#
# Youngs Moduli (GPa) = 53.92430 44.02742 91.95989
#
# Poissons Ratio (x) = 0.13620 0.95988
# Poissons Ratio (y) = 0.16681 0.23693
# Poissons Ratio (z) = 0.56286 0.11343
#
# Static dielectric constant tensor:
#      x y z
#    x 1.801220 0.000000 0.000000 
#    y 0.000000 2.154600 0.000000 
#    z 0.000000 0.000000 1.933730 
# 
# From -- ./inp_files/9334.got.cif
#   From: 2010.05.17/outbox.cif.g08.bks.cpg/sg43_5_cif.got.tgz:9334.got - 2010.06.03 19:21:55.
