data_PCOD9372244
_publ_section_title
;
Structure prediction by ZEFSAII (Michael W. Deem and Ramdas Pophale) SiO2 
 PCOD9372244
Probable space group: F D D 2
;
_chemical_formula_sum "Si O2"
_cell_formula_units_Z 80
_cell_length_a 16.407493
_cell_length_b 15.151409
_cell_length_c 10.526336
_cell_angle_alpha 90.000000
_cell_angle_beta 90.000000
_cell_angle_gamma 90.000000
_cell_volume 2616.811731
_symmetry_space_group_name_H-M "F D D 2"
_symmetry_group_IT_number 43
_symmetry_cell_setting 'orthorhombic'
loop_
_space_group_symop_operation_xyz
x,y,z
-x,-y,z
1/4-x,1/4+y,1/4+z
1/4+x,1/4-y,1/4+z
x,1/2+y,1/2+z
-x,1/2-y,1/2+z
1/4-x,3/4+y,3/4+z
1/4+x,3/4-y,3/4+z
1/2+x,y,1/2+z
1/2-x,-y,1/2+z
3/4-x,1/4+y,3/4+z
3/4+x,1/4-y,3/4+z
1/2+x,1/2+y,z
1/2-x,1/2-y,z
3/4-x,3/4+y,1/4+z
3/4+x,3/4-y,1/4+z
loop_
_atom_site_type_symbol
_atom_site_label
_atom_site_fract_x
_atom_site_fract_y
_atom_site_fract_z
Si Si1 0.775270 0.511113 0.044120
Si Si2 0.500000 0.500000 0.631040
Si Si3 0.500000 0.500000 0.042649
Si Si4 0.869332 0.513399 0.354399
Si Si5 0.327141 0.328532 0.658950
Si Si6 0.836264 0.420289 0.762881
O O1 0.810704 0.413833 0.074890
O O2 0.716243 0.512333 0.921266
O O3 0.843437 0.579271 0.998500
O O4 0.920323 0.511104 0.221279
O O5 0.507317 0.425208 0.519443
O O6 0.451101 0.586455 0.091897
O O7 0.433229 0.462990 0.944849
O O8 0.732391 0.533304 0.177145
O O9 0.869495 0.614782 0.403125
O O10 0.351269 0.239301 0.578087
#
# Coordination Sequence:
#
# PCOD9372244 Si02
#       6
#    16   8   8  16  16  16
#     4  12  30  54  90 140 196 257 324 401 500 594
#     4  11  26  58  91 142 185 242 328 403 496 587
#     4   7  20  50  85 126 165 240 314 385 480 571
#     4   9  23  53  92 132 179 244 314 397 493 585
#     4  12  31  51  92 134 197 252 319 407 489 596
#     4  10  25  55  87 134 183 249 319 407 485 589
#
# _framework density 30.571555
#
# number of rings (size 3 to 8) (size 9 to 14) (size 15 to 20)
#    1.200    0.400    0.000    1.200   11.200    1.600 
#    0.000    3.000    0.000    0.000    0.000    0.000 
#    0.000    0.000    0.000    0.000    0.000    0.000 
#
# Total GULP energy -111394.150246 kJ/mol
# GULP energy per Si atom -5569.707512 kJ/mol
# Density = 3.050197 g / cm^3
# Si number density = 30.571555 Si / 1000 Ang^3
#
#
#
# Elastic Constant Matrix: (Units=GPa)
#
#
# Indices 1 2 3 4 5 6 
#
# 1 145.8616 47.9773 74.6435 0.0000 0.0000 0.0000
# 2 47.9773 213.5651 92.9823 0.0000 0.0000 0.0000
# 3 74.6435 92.9823 202.1507 0.0000 0.0000 0.0000
# 4 0.0000 0.0000 0.0000 13.7974 0.0000 0.0000
# 5 0.0000 0.0000 0.0000 0.0000 69.0031 0.0000
# 6 0.0000 0.0000 0.0000 0.0000 0.0000 47.8663
#
#
#
# Elastic Compliance Matrix: (Units=1/GPa)
#
#
# Indices 1 2 3 4 5 6 
#
# 1 0.008532 -0.000682 -0.002837 0.000000 0.000000 0.000000
# 2 -0.000682 0.005909 -0.002466 0.000000 0.000000 0.000000
# 3 -0.002837 -0.002466 0.007129 0.000000 0.000000 0.000000
# 4 0.000000 0.000000 0.000000 0.072478 0.000000 0.000000
# 5 0.000000 0.000000 0.000000 0.000000 0.014492 0.000000
# 6 0.000000 0.000000 0.000000 0.000000 0.000000 0.020892
#
#
# Mechanical properties :
#
#
# Convention : Reuss Voigt Hill
#
# Bulk Modulus (GPa) = 104.16419 110.30928 107.23673
# Shear Modulus (GPa) = 34.57798 49.19831 41.88814
#
# Velocity S-wave (km/s) = 3.36676 4.01594 3.70559
# Velocity P-wave (km/s) = 7.01852 7.59370 7.31177
#
# Compressibility (1/GPa) = 0.00960023
#
# Stress axis : x y z
#
# Youngs Moduli (GPa) = 117.20978 169.22281 140.27658
#
# Poissons Ratio (x) = 0.11533 0.39794
# Poissons Ratio (y) = 0.07988 0.34598
# Poissons Ratio (z) = 0.33250 0.41738
#
# Static dielectric constant tensor:
#      x y z
#    x 2.567370 0.000000 0.000000 
#    y 0.000000 2.510280 0.000000 
#    z 0.000000 0.000000 2.415600 
# 
# From -- ./inp_files/14291.got.cif
#   From: 2010.05.17/outbox.cif.g08.bks.cpg/sg43_8_cif.got.tgz:14291.got - 2010.06.03 19:21:55.
