data_PCOD9372363
_publ_section_title
;
Structure prediction by ZEFSAII (Michael W. Deem and Ramdas Pophale) SiO2 
 PCOD9372363
Probable space group: F D D 2
;
_chemical_formula_sum "Si O2"
_cell_formula_units_Z 96
_cell_length_a 26.355624
_cell_length_b 7.499880
_cell_length_c 22.646074
_cell_angle_alpha 90.000000
_cell_angle_beta 90.000000
_cell_angle_gamma 90.000000
_cell_volume 4476.313963
_symmetry_space_group_name_H-M "F D D 2"
_symmetry_group_IT_number 43
_symmetry_cell_setting 'orthorhombic'
loop_
_space_group_symop_operation_xyz
x,y,z
-x,-y,z
1/4-x,1/4+y,1/4+z
1/4+x,1/4-y,1/4+z
x,1/2+y,1/2+z
-x,1/2-y,1/2+z
1/4-x,3/4+y,3/4+z
1/4+x,3/4-y,3/4+z
1/2+x,y,1/2+z
1/2-x,-y,1/2+z
3/4-x,1/4+y,3/4+z
3/4+x,1/4-y,3/4+z
1/2+x,1/2+y,z
1/2-x,1/2-y,z
3/4-x,3/4+y,1/4+z
3/4+x,3/4-y,1/4+z
loop_
_atom_site_type_symbol
_atom_site_label
_atom_site_fract_x
_atom_site_fract_y
_atom_site_fract_z
Si Si1 0.545140 0.133987 0.820450
Si Si2 0.804901 0.787695 0.892357
Si Si3 0.118206 0.601893 0.043736
Si Si4 0.717612 0.927344 0.707840
Si Si5 0.854946 0.306312 0.512912
Si Si6 0.785367 0.610596 0.304045
O O1 0.534548 0.196300 0.887638
O O2 0.560297 0.315596 0.786830
O O3 0.500000 0.000000 0.800595
O O4 0.592073 0.998649 0.813624
O O5 0.750000 0.750000 0.919632
O O6 0.824787 0.648386 0.844037
O O7 0.796246 0.958125 0.851468
O O8 0.846640 0.800901 0.942827
O O9 0.141398 0.400079 0.036367
O O10 0.088656 0.651367 0.983833
O O11 0.750000 0.750000 0.718868
O O12 0.749729 0.061403 0.748064
O O13 0.908484 0.398883 0.529457
O O14 0.750000 0.750000 0.337156
#
# Coordination Sequence:
#
# PCOD9372363 Si02
#       6
#    16  16  16  16  16  16
#     4  11  28  44  66  99 142 177 224 280 346 402
#     4  11  23  43  69  97 135 178 221 276 350 396
#     4  11  22  44  74  96 131 181 225 280 336 410
#     4  11  20  47  68  97 131 180 226 281 340 405
#     4  11  26  43  67 105 134 178 228 280 345 401
#     4  11  23  43  72 101 130 177 236 276 331 414
#
# _framework density 21.446216
#
# number of rings (size 3 to 8) (size 9 to 14) (size 15 to 20)
#    0.000    1.000    5.000    2.000    4.667    6.000 
#    0.000    0.000    0.000    0.000    0.000    0.000 
#    0.000    0.000    0.000    0.000    0.000    0.000 
#
# Total GULP energy -133820.925360 kJ/mol
# GULP energy per Si atom -5575.871890 kJ/mol
# Density = 2.139740 g / cm^3
# Si number density = 21.446216 Si / 1000 Ang^3
#
#
#
# Elastic Constant Matrix: (Units=GPa)
#
#
# Indices 1 2 3 4 5 6 
#
# 1 69.6887 8.3051 15.8270 0.0000 0.0000 0.0000
# 2 8.3051 65.2326 21.5105 0.0000 0.0001 0.0001
# 3 15.8270 21.5105 56.5515 0.0000 0.0000 0.0000
# 4 0.0000 0.0000 0.0000 -8.1388 0.0001 0.0001
# 5 0.0000 0.0001 0.0000 0.0001 40.7492 -0.0001
# 6 0.0000 0.0001 0.0000 0.0001 -0.0001 47.8352
#
#
#
# Elastic Compliance Matrix: (Units=1/GPa)
#
#
# Indices 1 2 3 4 5 6 
#
# 1 0.015345 -0.000615 -0.004061 0.000000 0.000000 0.000000
# 2 -0.000615 0.017553 -0.006505 0.000000 0.000000 0.000000
# 3 -0.004061 -0.006505 0.021294 0.000000 0.000000 0.000000
# 4 0.000000 0.000000 0.000000 -0.122868 0.000000 0.000000
# 5 0.000000 0.000000 0.000000 0.000000 0.024540 0.000000
# 6 0.000000 0.000000 0.000000 0.000000 0.000000 0.020905
#
#
# Mechanical properties :
#
#
# Convention : Reuss Voigt Hill
#
# Bulk Modulus (GPa) = 31.41538 31.41757 31.41647
# Shear Modulus (GPa) = 513.35974 25.81113 269.58544
#
# Velocity S-wave (km/s) = 15.48840 3.47295 11.22390
# Velocity P-wave (km/s) = 18.29027 5.54645 13.51476
#
# Compressibility (1/GPa) = 0.03183154
#
# Stress axis : x y z
#
# Youngs Moduli (GPa) = 65.16769 56.97064 46.96238
#
# Poissons Ratio (x) = 0.03501 0.19070
# Poissons Ratio (y) = 0.04005 0.30547
# Poissons Ratio (z) = 0.26463 0.37057
#
# Static dielectric constant tensor:
#      x y z
#    x 1.759320 0.000000 0.000000 
#    y 0.000000 1.621280 0.000000 
#    z 0.000000 0.000000 1.774880 
# 
# From -- ./inp_files/16475.got.cif
#   From: 2010.05.17/outbox.cif.g08.bks.cpg/sg43_9_cif.got.tgz:16475.got - 2010.06.03 19:21:55.
