data_PCOD9372842
_publ_section_title
;
Structure prediction by ZEFSAII (Michael W. Deem and Ramdas Pophale) SiO2 
 PCOD9372842
Probable space group: F D D 2
;
_chemical_formula_sum "Si O2"
_cell_formula_units_Z 56
_cell_length_a 11.742601
_cell_length_b 26.714036
_cell_length_c 8.614524
_cell_angle_alpha 90.000000
_cell_angle_beta 90.000000
_cell_angle_gamma 90.000000
_cell_volume 2702.309553
_symmetry_space_group_name_H-M "F D D 2"
_symmetry_group_IT_number 43
_symmetry_cell_setting 'orthorhombic'
loop_
_space_group_symop_operation_xyz
x,y,z
-x,-y,z
1/4-x,1/4+y,1/4+z
1/4+x,1/4-y,1/4+z
x,1/2+y,1/2+z
-x,1/2-y,1/2+z
1/4-x,3/4+y,3/4+z
1/4+x,3/4-y,3/4+z
1/2+x,y,1/2+z
1/2-x,-y,1/2+z
3/4-x,1/4+y,3/4+z
3/4+x,1/4-y,3/4+z
1/2+x,1/2+y,z
1/2-x,1/2-y,z
3/4-x,3/4+y,1/4+z
3/4+x,3/4-y,1/4+z
loop_
_atom_site_type_symbol
_atom_site_label
_atom_site_fract_x
_atom_site_fract_y
_atom_site_fract_z
Si Si1 0.600982 0.692414 0.814220
Si Si2 0.456381 0.771330 0.978385
Si Si3 0.176412 0.827762 0.497168
Si Si4 0.000000 0.000000 0.006913
O O1 0.527030 0.720638 0.944636
O O2 0.584727 0.722461 0.654559
O O3 0.559508 0.635924 0.785058
O O4 0.730582 0.688746 0.871204
O O5 0.349920 0.771468 0.864014
O O6 0.548133 0.815133 0.945946
O O7 0.199744 0.793463 0.647627
#
# Coordination Sequence:
#
# PCOD9372842 Si02
#       4
#    16  16  16   8
#     4  12  24  48  74 101 147 188 241 294 368 413
#     4  12  25  46  72 105 142 189 235 298 351 437
#     4  12  24  49  69 103 147 186 237 309 345 435
#     4  12  26  46  70 106 142 188 238 292 368 416
#
# _framework density 20.723013999999999
#
# number of rings (size 3 to 8) (size 9 to 14) (size 15 to 20)
#    0.000    0.000    8.571    0.000    4.000    0.000 
#   15.429    0.000    0.000    0.000    0.000    0.000 
#    0.000    0.000    0.000    0.000    0.000    0.000 
#
# Total GULP energy -78365.284700 kJ/mol
# GULP energy per Si atom -5597.520336 kJ/mol
# Density = 2.067585 g / cm^3
# Si number density = 20.723014 Si / 1000 Ang^3
#
#
#
# Elastic Constant Matrix: (Units=GPa)
#
#
# Indices 1 2 3 4 5 6 
#
# 1 117.9743 20.7031 72.2853 0.0000 0.0000 0.0000
# 2 20.7031 132.9522 62.6686 0.0000 0.0000 0.0000
# 3 72.2853 62.6686 146.6845 0.0000 0.0000 0.0000
# 4 0.0000 0.0000 0.0000 29.3559 0.0000 0.0000
# 5 0.0000 0.0000 0.0000 0.0000 41.2569 0.0000
# 6 0.0000 0.0000 0.0000 0.0000 0.0000 20.3109
#
#
#
# Elastic Compliance Matrix: (Units=1/GPa)
#
#
# Indices 1 2 3 4 5 6 
#
# 1 0.012289 0.001178 -0.006559 0.000000 0.000000 0.000000
# 2 0.001178 0.009531 -0.004653 0.000000 0.000000 0.000000
# 3 -0.006559 -0.004653 0.012037 0.000000 0.000000 0.000000
# 4 0.000000 0.000000 0.000000 0.034065 0.000000 0.000000
# 5 0.000000 0.000000 0.000000 0.000000 0.024238 0.000000
# 6 0.000000 0.000000 0.000000 0.000000 0.000000 0.049235
#
#
# Mechanical properties :
#
#
# Convention : Reuss Voigt Hill
#
# Bulk Modulus (GPa) = 72.51642 78.76946 75.64294
# Shear Modulus (GPa) = 30.10989 34.31500 32.21245
#
# Velocity S-wave (km/s) = 3.81592 4.07368 3.94690
# Velocity P-wave (km/s) = 7.38134 7.76013 7.57310
#
# Compressibility (1/GPa) = 0.01378998
#
# Stress axis : x y z
#
# Youngs Moduli (GPa) = 81.37651 104.91964 83.07453
#
# Poissons Ratio (x) = -0.12361 0.54489
# Poissons Ratio (y) = -0.09587 0.38651
# Poissons Ratio (z) = 0.53376 0.48815
#
# Static dielectric constant tensor:
#      x y z
#    x 1.759420 0.000000 0.000000 
#    y 0.000000 1.732180 0.000000 
#    z 0.000000 0.000000 1.723080 
# 
# From -- ./inp_files/1850.got.cif
#   From: 2010.05.17/outbox.cif.g08.bks.cpg/sg43_1_cif.got.tgz:1850.got - 2010.06.03 19:21:55.
