data_PCOD9372058
_publ_section_title
;
Structure prediction by ZEFSAII (Michael W. Deem and Ramdas Pophale) SiO2 
 PCOD9372058
Probable space group: F D D 2
;
_chemical_formula_sum "Si O2"
_cell_formula_units_Z 96
_cell_length_a 23.397517
_cell_length_b 15.797694
_cell_length_c 12.110809
_cell_angle_alpha 90.000000
_cell_angle_beta 90.000000
_cell_angle_gamma 90.000000
_cell_volume 4476.479745
_symmetry_space_group_name_H-M "F D D 2"
_symmetry_group_IT_number 43
_symmetry_cell_setting 'orthorhombic'
loop_
_space_group_symop_operation_xyz
x,y,z
-x,-y,z
1/4-x,1/4+y,1/4+z
1/4+x,1/4-y,1/4+z
x,1/2+y,1/2+z
-x,1/2-y,1/2+z
1/4-x,3/4+y,3/4+z
1/4+x,3/4-y,3/4+z
1/2+x,y,1/2+z
1/2-x,-y,1/2+z
3/4-x,1/4+y,3/4+z
3/4+x,1/4-y,3/4+z
1/2+x,1/2+y,z
1/2-x,1/2-y,z
3/4-x,3/4+y,1/4+z
3/4+x,3/4-y,1/4+z
loop_
_atom_site_type_symbol
_atom_site_label
_atom_site_fract_x
_atom_site_fract_y
_atom_site_fract_z
Si Si1 0.416281 0.624211 0.479910
Si Si2 0.771784 0.859062 0.403987
Si Si3 0.500000 0.000000 0.859493
Si Si4 0.549377 0.336344 0.720897
Si Si5 0.934224 0.750899 0.778993
Si Si6 0.000000 0.500000 0.321106
Si Si7 0.427155 0.448666 0.025200
O O1 0.452019 0.541997 0.436571
O O2 0.443795 0.665578 0.588844
O O3 0.355527 0.581646 0.508875
O O4 0.415288 0.695984 0.384945
O O5 0.744416 0.826839 0.520197
O O6 0.814888 0.934746 0.426924
O O7 0.806586 0.782276 0.346562
O O8 0.717074 0.874698 0.326864
O O9 0.500451 0.279115 0.776156
O O10 0.529814 0.430502 0.748057
O O11 0.610854 0.318549 0.773475
O O12 0.048065 0.535708 0.404002
#
# Coordination Sequence:
#
# PCOD9372058 Si02
#       7
#    16  16   8  16  16   8  16
#     4  11  26  44  70 101 146 182 237 292 351 427
#     4   8  19  45  68 103 135 174 235 292 344 424
#     4   8  18  42  66  94 134 178 220 278 352 402
#     4  12  26  42  73  94 142 185 237 282 357 415
#     4  11  27  46  68 108 140 186 234 289 358 422
#     4  10  24  44  62 108 134 186 230 290 346 416
#     4   9  21  43  70  99 136 180 235 293 342 420
#
# _framework density 21.445423999999999
#
# number of rings (size 3 to 8) (size 9 to 14) (size 15 to 20)
#    0.000    2.333    0.000    1.500    9.333    5.333 
#   21.000    0.000    0.000    0.000    0.000    0.000 
#    0.000    0.000    0.000    0.000    0.000    0.000 
#
# Total GULP energy -133831.239401 kJ/mol
# GULP energy per Si atom -5576.301642 kJ/mol
# Density = 2.139661 g / cm^3
# Si number density = 21.445424 Si / 1000 Ang^3
#
#
#
# Elastic Constant Matrix: (Units=GPa)
#
#
# Indices 1 2 3 4 5 6 
#
# 1 142.2906 72.0567 44.1380 0.0000 0.0000 0.0000
# 2 72.0567 92.6456 55.1628 0.0000 0.0000 0.0000
# 3 44.1380 55.1628 86.7737 0.0000 0.0000 0.0000
# 4 0.0000 0.0000 0.0000 26.9962 0.0000 0.0000
# 5 0.0000 0.0000 0.0000 0.0000 19.0897 0.0000
# 6 0.0000 0.0000 0.0000 0.0000 0.0000 24.1246
#
#
#
# Elastic Compliance Matrix: (Units=1/GPa)
#
#
# Indices 1 2 3 4 5 6 
#
# 1 0.011598 -0.008863 -0.000265 0.000000 0.000000 0.000000
# 2 -0.008863 0.024140 -0.010838 0.000000 0.000000 0.000000
# 3 -0.000265 -0.010838 0.018549 0.000000 0.000000 0.000000
# 4 0.000000 0.000000 0.000000 0.037042 0.000000 0.000000
# 5 0.000000 0.000000 0.000000 0.000000 0.052384 0.000000
# 6 0.000000 0.000000 0.000000 0.000000 0.000000 0.041452
#
#
# Mechanical properties :
#
#
# Convention : Reuss Voigt Hill
#
# Bulk Modulus (GPa) = 69.66146 73.82501 71.74324
# Shear Modulus (GPa) = 21.75017 24.06557 22.90787
#
# Velocity S-wave (km/s) = 3.18812 3.35353 3.27187
# Velocity P-wave (km/s) = 6.79013 7.03521 6.91375
#
# Compressibility (1/GPa) = 0.01435514
#
# Stress axis : x y z
#
# Youngs Moduli (GPa) = 86.21900 41.42478 53.91109
#
# Poissons Ratio (x) = 0.36714 0.01431
# Poissons Ratio (y) = 0.76414 0.58429
# Poissons Ratio (z) = 0.02289 0.44896
#
# Static dielectric constant tensor:
#      x y z
#    x 1.774450 0.000000 0.000000 
#    y 0.000000 1.877590 0.000000 
#    z 0.000000 0.000000 1.792410 
# 
# From -- ./inp_files/7549.got.cif
#   From: 2010.05.17/outbox.cif.g08.bks.cpg/sg43_4_cif.got.tgz:7549.got - 2010.06.03 19:21:55.
