data_PCOD9372222
_publ_section_title
;
Structure prediction by ZEFSAII (Michael W. Deem and Ramdas Pophale) SiO2 
 PCOD9372222
Probable space group: F D D 2
;
_chemical_formula_sum "Si O2"
_cell_formula_units_Z 72
_cell_length_a 15.942945
_cell_length_b 20.942957
_cell_length_c 9.380593
_cell_angle_alpha 90.000000
_cell_angle_beta 90.000000
_cell_angle_gamma 90.000000
_cell_volume 3132.108819
_symmetry_space_group_name_H-M "F D D 2"
_symmetry_group_IT_number 43
_symmetry_cell_setting 'orthorhombic'
loop_
_space_group_symop_operation_xyz
x,y,z
-x,-y,z
1/4-x,1/4+y,1/4+z
1/4+x,1/4-y,1/4+z
x,1/2+y,1/2+z
-x,1/2-y,1/2+z
1/4-x,3/4+y,3/4+z
1/4+x,3/4-y,3/4+z
1/2+x,y,1/2+z
1/2-x,-y,1/2+z
3/4-x,1/4+y,3/4+z
3/4+x,1/4-y,3/4+z
1/2+x,1/2+y,z
1/2-x,1/2-y,z
3/4-x,3/4+y,1/4+z
3/4+x,3/4-y,1/4+z
loop_
_atom_site_type_symbol
_atom_site_label
_atom_site_fract_x
_atom_site_fract_y
_atom_site_fract_z
Si Si1 0.889432 0.429420 0.597770
Si Si2 0.959882 0.082234 0.677213
Si Si3 0.250000 0.750000 0.657579
Si Si4 0.665401 0.922090 0.609272
Si Si5 0.150552 0.120566 0.648656
O O1 0.824819 0.397355 0.490041
O O2 0.974020 0.441039 0.506679
O O3 0.902801 0.381490 0.731986
O O4 0.859607 0.503132 0.606041
O O5 0.934389 0.030360 0.795621
O O6 0.920444 0.076340 0.520712
O O7 0.060525 0.087925 0.675289
O O8 0.764608 0.920445 0.647219
O O9 0.611699 0.897699 0.742184
#
# Coordination Sequence:
#
# PCOD9372222 Si02
#       5
#    16  16   8  16  16
#     4  12  25  47  76 108 150 201 260 318 395 473
#     4  11  24  46  73 105 147 196 248 317 385 468
#     4  12  24  46  78 114 148 206 268 332 396 468
#     4  11  26  47  76 108 152 201 256 325 392 467
#     4  10  25  47  69 111 147 193 255 318 388 461
#
# _framework density 22.987708000000001
#
# number of rings (size 3 to 8) (size 9 to 14) (size 15 to 20)
#    0.000    0.889    4.444    1.333    0.000    8.889 
#    0.000    0.000    0.000    0.000    0.000    0.000 
#    0.000    0.000    0.000    0.000    0.000    0.000 
#
# Total GULP energy -100225.089689 kJ/mol
# GULP energy per Si atom -5568.060538 kJ/mol
# Density = 2.293539 g / cm^3
# Si number density = 22.987708 Si / 1000 Ang^3
#
#
#
# Elastic Constant Matrix: (Units=GPa)
#
#
# Indices 1 2 3 4 5 6 
#
# 1 98.7544 25.6162 49.1286 0.0000 0.0000 0.0000
# 2 25.6162 129.3734 70.8040 0.0000 0.0000 0.0000
# 3 49.1286 70.8040 185.8601 0.0000 0.0000 0.0000
# 4 0.0000 0.0000 0.0000 18.8279 0.0000 0.0000
# 5 0.0000 0.0000 0.0000 0.0000 41.0353 0.0000
# 6 0.0000 0.0000 0.0000 0.0000 0.0000 25.1878
#
#
#
# Elastic Compliance Matrix: (Units=1/GPa)
#
#
# Indices 1 2 3 4 5 6 
#
# 1 0.011723 -0.000790 -0.002798 0.000000 0.000000 0.000000
# 2 -0.000790 0.009819 -0.003532 0.000000 0.000000 0.000000
# 3 -0.002798 -0.003532 0.007465 0.000000 0.000000 0.000000
# 4 0.000000 0.000000 0.000000 0.053113 0.000000 0.000000
# 5 0.000000 0.000000 0.000000 0.000000 0.024369 0.000000
# 6 0.000000 0.000000 0.000000 0.000000 0.000000 0.039702
#
#
# Mechanical properties :
#
#
# Convention : Reuss Voigt Hill
#
# Bulk Modulus (GPa) = 67.71328 78.34284 73.02806
# Shear Modulus (GPa) = 30.23849 34.90616 32.57233
#
# Velocity S-wave (km/s) = 3.63081 3.90098 3.76832
# Velocity P-wave (km/s) = 6.86274 7.37865 7.12537
#
# Compressibility (1/GPa) = 0.01476815
#
# Stress axis : x y z
#
# Youngs Moduli (GPa) = 85.30317 101.84513 133.95232
#
# Poissons Ratio (x) = 0.08046 0.37477
# Poissons Ratio (y) = 0.06739 0.47308
# Poissons Ratio (z) = 0.23866 0.35969
#
# Static dielectric constant tensor:
#      x y z
#    x 1.997190 0.000000 0.000000 
#    y 0.000000 1.911060 0.000000 
#    z 0.000000 0.000000 1.934970 
# 
# From -- ./inp_files/2649.got.cif
#   From: 2010.05.17/outbox.cif.g08.bks.cpg/sg43_2_cif.got.tgz:2649.got - 2010.06.03 19:21:55.
