data_PCOD9372239
_publ_section_title
;
Structure prediction by ZEFSAII (Michael W. Deem and Ramdas Pophale) SiO2 
 PCOD9372239
Probable space group: F D D 2
;
_chemical_formula_sum "Si O2"
_cell_formula_units_Z 48
_cell_length_a 16.203992
_cell_length_b 13.126641
_cell_length_c 8.899454
_cell_angle_alpha 90.000000
_cell_angle_beta 90.000000
_cell_angle_gamma 90.000000
_cell_volume 1892.949337
_symmetry_space_group_name_H-M "F D D 2"
_symmetry_group_IT_number 43
_symmetry_cell_setting 'orthorhombic'
loop_
_space_group_symop_operation_xyz
x,y,z
-x,-y,z
1/4-x,1/4+y,1/4+z
1/4+x,1/4-y,1/4+z
x,1/2+y,1/2+z
-x,1/2-y,1/2+z
1/4-x,3/4+y,3/4+z
1/4+x,3/4-y,3/4+z
1/2+x,y,1/2+z
1/2-x,-y,1/2+z
3/4-x,1/4+y,3/4+z
3/4+x,1/4-y,3/4+z
1/2+x,1/2+y,z
1/2-x,1/2-y,z
3/4-x,3/4+y,1/4+z
3/4+x,3/4-y,1/4+z
loop_
_atom_site_type_symbol
_atom_site_label
_atom_site_fract_x
_atom_site_fract_y
_atom_site_fract_z
Si Si1 0.214794 0.863018 0.421940
Si Si2 0.323654 0.807425 0.984160
Si Si3 0.511963 0.297486 0.978869
O O1 0.250000 0.750000 0.426750
O O2 0.126660 0.868416 0.338538
O O3 0.212540 0.909328 0.589308
O O4 0.264775 0.947309 0.322370
O O5 0.250000 0.750000 0.069979
O O6 0.395109 0.732841 0.923986
O O7 0.278302 0.866643 0.852747
#
# Coordination Sequence:
#
# PCOD9372239 Si02
#       3
#    16  16  16
#     4  10  25  52  82 116 161 225 284 340 435 515
#     4  10  25  49  81 121 167 218 282 363 423 497
#     4  10  25  49  82 115 172 219 288 345 438 512
#
# _framework density 25.357253
#
# number of rings (size 3 to 8) (size 9 to 14) (size 15 to 20)
#    2.000    0.000    0.000    1.000    4.667    4.000 
#   12.000    0.000    0.000    0.000    0.000    0.000 
#    0.000    0.000    0.000    0.000    0.000    0.000 
#
# Total GULP energy -67089.235421 kJ/mol
# GULP energy per Si atom -5590.769618 kJ/mol
# Density = 2.529954 g / cm^3
# Si number density = 25.357253 Si / 1000 Ang^3
#
#
#
# Elastic Constant Matrix: (Units=GPa)
#
#
# Indices 1 2 3 4 5 6 
#
# 1 67.3957 43.5911 42.7902 0.0000 0.0000 0.0000
# 2 43.5911 164.8833 64.5652 0.0000 0.0000 0.0000
# 3 42.7902 64.5652 169.6589 0.0000 0.0000 0.0000
# 4 0.0000 0.0000 0.0000 42.6183 0.0000 0.0000
# 5 0.0000 0.0000 0.0000 0.0000 15.9397 0.0000
# 6 0.0000 0.0000 0.0000 0.0000 0.0000 47.9548
#
#
#
# Elastic Compliance Matrix: (Units=1/GPa)
#
#
# Indices 1 2 3 4 5 6 
#
# 1 0.019497 -0.003794 -0.003473 0.000000 0.000000 0.000000
# 2 -0.003794 0.007865 -0.002036 0.000000 0.000000 0.000000
# 3 -0.003473 -0.002036 0.007545 0.000000 0.000000 0.000000
# 4 0.000000 0.000000 0.000000 0.023464 0.000000 0.000000
# 5 0.000000 0.000000 0.000000 0.000000 0.062736 0.000000
# 6 0.000000 0.000000 0.000000 0.000000 0.000000 0.020853
#
#
# Mechanical properties :
#
#
# Convention : Reuss Voigt Hill
#
# Bulk Modulus (GPa) = 61.35147 78.20343 69.77745
# Shear Modulus (GPa) = 30.11999 38.03531 34.07765
#
# Velocity S-wave (km/s) = 3.45022 3.87716 3.66990
# Velocity P-wave (km/s) = 6.33399 7.13798 6.74797
#
# Compressibility (1/GPa) = 0.01629953
#
# Stress axis : x y z
#
# Youngs Moduli (GPa) = 51.28914 127.13894 132.53559
#
# Poissons Ratio (x) = 0.48242 0.46036
# Poissons Ratio (y) = 0.19461 0.26987
# Poissons Ratio (z) = 0.17815 0.25889
#
# Static dielectric constant tensor:
#      x y z
#    x 2.077350 0.000000 0.000000 
#    y 0.000000 2.028420 0.000000 
#    z 0.000000 0.000000 1.972090 
# 
# From -- ./inp_files/2101.got.cif
#   From: 2010.05.17/outbox.cif.g08.bks.cpg/sg43_2_cif.got.tgz:2101.got - 2010.06.03 19:21:55.
