data_PCOD9372326
_publ_section_title
;
Structure prediction by ZEFSAII (Michael W. Deem and Ramdas Pophale) SiO2 
 PCOD9372326
Probable space group: F D D 2
;
_chemical_formula_sum "Si O2"
_cell_formula_units_Z 96
_cell_length_a 29.451644
_cell_length_b 19.890560
_cell_length_c 6.724338
_cell_angle_alpha 90.000000
_cell_angle_beta 90.000000
_cell_angle_gamma 90.000000
_cell_volume 3939.182373
_symmetry_space_group_name_H-M "F D D 2"
_symmetry_group_IT_number 43
_symmetry_cell_setting 'orthorhombic'
loop_
_space_group_symop_operation_xyz
x,y,z
-x,-y,z
1/4-x,1/4+y,1/4+z
1/4+x,1/4-y,1/4+z
x,1/2+y,1/2+z
-x,1/2-y,1/2+z
1/4-x,3/4+y,3/4+z
1/4+x,3/4-y,3/4+z
1/2+x,y,1/2+z
1/2-x,-y,1/2+z
3/4-x,1/4+y,3/4+z
3/4+x,1/4-y,3/4+z
1/2+x,1/2+y,z
1/2-x,1/2-y,z
3/4-x,3/4+y,1/4+z
3/4+x,3/4-y,1/4+z
loop_
_atom_site_type_symbol
_atom_site_label
_atom_site_fract_x
_atom_site_fract_y
_atom_site_fract_z
Si Si1 0.361244 0.530291 0.896340
Si Si2 0.968340 0.818296 0.837797
Si Si3 0.046625 0.038134 0.815343
Si Si4 0.868379 0.932142 0.278535
Si Si5 0.966774 0.441072 0.790953
Si Si6 0.974378 0.177796 0.184598
O O1 0.318430 0.538589 0.746774
O O2 0.406508 0.501417 0.793470
O O3 0.372162 0.607314 0.949735
O O4 0.354878 0.484363 0.098397
O O5 0.950538 0.885496 0.734589
O O6 0.983383 0.756395 0.706093
O O7 0.012444 0.841453 0.960208
O O8 0.042608 0.049596 0.054644
O O9 0.000000 0.000000 0.761118
O O10 0.916562 0.952705 0.371845
O O11 0.829447 0.922712 0.442869
O O12 0.000000 0.500000 0.850343
O O13 0.993907 0.370859 0.813897
#
# Coordination Sequence:
#
# PCOD9372326 Si02
#       6
#    16  16  16  16  16  16
#     4  11  19  39  61  89 123 161 218 256 307 393
#     4  11  22  40  58  96 125 159 216 263 314 386
#     4   9  18  36  60  82 119 163 207 248 308 378
#     4  11  21  37  66  89 119 171 211 257 325 376
#     4   9  18  38  57  87 119 158 214 248 299 387
#     4  11  22  38  64  91 125 163 208 269 315 372
#
# _framework density 24.370539000000001
#
# number of rings (size 3 to 8) (size 9 to 14) (size 15 to 20)
#    0.000    1.667    5.000    5.000    0.000    0.000 
#    6.000    0.000    0.000    2.000    0.000    0.000 
#    0.000    0.000    0.000    0.000    0.000    0.000 
#
# Total GULP energy -133966.257416 kJ/mol
# GULP energy per Si atom -5581.927392 kJ/mol
# Density = 2.431507 g / cm^3
# Si number density = 24.370539 Si / 1000 Ang^3
#
#
#
# Elastic Constant Matrix: (Units=GPa)
#
#
# Indices 1 2 3 4 5 6 
#
# 1 181.5356 31.2199 5.2347 -0.0001 0.0000 0.0000
# 2 31.2199 126.4602 11.5502 -0.0002 0.0000 0.0000
# 3 5.2347 11.5502 66.7909 -0.0007 -0.0002 -0.0001
# 4 -0.0001 -0.0002 -0.0007 10.8907 0.0000 0.0000
# 5 0.0000 0.0000 -0.0002 0.0000 7.5055 0.0000
# 6 0.0000 0.0000 -0.0001 0.0000 0.0000 46.8984
#
#
#
# Elastic Compliance Matrix: (Units=1/GPa)
#
#
# Indices 1 2 3 4 5 6 
#
# 1 0.005756 -0.001402 -0.000209 0.000000 0.000000 0.000000
# 2 -0.001402 0.008376 -0.001339 0.000000 0.000000 0.000000
# 3 -0.000209 -0.001339 0.015220 0.000001 0.000000 0.000000
# 4 0.000000 0.000000 0.000001 0.091822 0.000000 0.000000
# 5 0.000000 0.000000 0.000000 0.000000 0.133235 0.000000
# 6 0.000000 0.000000 0.000000 0.000000 0.000000 0.021323
#
#
# Mechanical properties :
#
#
# Convention : Reuss Voigt Hill
#
# Bulk Modulus (GPa) = 42.63793 52.31072 47.47433
# Shear Modulus (GPa) = 17.27430 34.84438 26.05934
#
# Velocity S-wave (km/s) = 2.66525 3.78534 3.27356
# Velocity P-wave (km/s) = 5.19664 6.37310 5.81470
#
# Compressibility (1/GPa) = 0.02345330
#
# Stress axis : x y z
#
# Youngs Moduli (GPa) = 173.74177 119.38905 65.70332
#
# Poissons Ratio (x) = 0.16737 0.01371
# Poissons Ratio (y) = 0.24356 0.08795
# Poissons Ratio (z) = 0.03626 0.15981
#
# Static dielectric constant tensor:
#      x y z
#    x 1.989150 0.000000 0.000000 
#    y 0.000000 1.949090 0.000000 
#    z 0.000000 0.000000 2.025920 
# 
# From -- ./inp_files/4207.got.cif
#   From: 2010.05.17/outbox.cif.g08.bks.cpg/sg43_3_cif.got.tgz:4207.got - 2010.06.03 19:21:55.
