data_PCOD9372277
_publ_section_title
;
Structure prediction by ZEFSAII (Michael W. Deem and Ramdas Pophale) SiO2 
 PCOD9372277
Probable space group: F D D 2
;
_chemical_formula_sum "Si O2"
_cell_formula_units_Z 72
_cell_length_a 30.678173
_cell_length_b 19.687527
_cell_length_c 4.886593
_cell_angle_alpha 90.000000
_cell_angle_beta 90.000000
_cell_angle_gamma 90.000000
_cell_volume 2951.391536
_symmetry_space_group_name_H-M "F D D 2"
_symmetry_group_IT_number 43
_symmetry_cell_setting 'orthorhombic'
loop_
_space_group_symop_operation_xyz
x,y,z
-x,-y,z
1/4-x,1/4+y,1/4+z
1/4+x,1/4-y,1/4+z
x,1/2+y,1/2+z
-x,1/2-y,1/2+z
1/4-x,3/4+y,3/4+z
1/4+x,3/4-y,3/4+z
1/2+x,y,1/2+z
1/2-x,-y,1/2+z
3/4-x,1/4+y,3/4+z
3/4+x,1/4-y,3/4+z
1/2+x,1/2+y,z
1/2-x,1/2-y,z
3/4-x,3/4+y,1/4+z
3/4+x,3/4-y,1/4+z
loop_
_atom_site_type_symbol
_atom_site_label
_atom_site_fract_x
_atom_site_fract_y
_atom_site_fract_z
Si Si1 0.500000 0.000000 0.921061
Si Si2 0.089644 0.329026 0.733537
Si Si3 0.795828 0.566389 0.929151
Si Si4 0.180226 0.349159 0.434741
Si Si5 0.045056 0.878870 0.737132
O O1 0.466291 0.957837 0.738571
O O2 0.525510 0.947456 0.115681
O O3 0.066794 0.255898 0.733782
O O4 0.135598 0.325080 0.577994
O O5 0.061537 0.380350 0.545388
O O6 0.084588 0.356209 0.040287
O O7 0.805267 0.586479 0.617704
O O8 0.744180 0.573987 0.975101
O O9 0.817464 0.623748 0.125978
#
# Coordination Sequence:
#
# PCOD9372277 Si02
#       5
#     8  16  16  16  16
#     4  10  26  48  70 106 150 196 238 296 380 452
#     4  12  25  42  73 103 141 187 243 307 355 432
#     4  11  24  47  65 104 138 186 242 298 362 438
#     4  11  26  42  71 102 145 190 241 302 362 436
#     4  11  24  45  72 102 139 191 235 298 369 436
#
# _framework density 24.395271999999999
#
# number of rings (size 3 to 8) (size 9 to 14) (size 15 to 20)
#    0.000    0.889    0.000    6.667    6.222    8.000 
#    0.000    0.000    0.000    0.000    0.000    0.000 
#    0.000    0.000    0.000    0.000    0.000    0.000 
#
# Total GULP energy -100866.338515 kJ/mol
# GULP energy per Si atom -5603.685473 kJ/mol
# Density = 2.433975 g / cm^3
# Si number density = 24.395272 Si / 1000 Ang^3
#
#
#
# Elastic Constant Matrix: (Units=GPa)
#
#
# Indices 1 2 3 4 5 6 
#
# 1 131.3729 27.9757 22.1807 -0.0006 0.0005 0.0001
# 2 27.9757 111.2052 16.3402 0.0034 0.0020 0.0007
# 3 22.1807 16.3402 97.0104 0.0046 0.0042 0.0015
# 4 -0.0006 0.0034 0.0046 22.4819 0.0026 0.0011
# 5 0.0005 0.0020 0.0042 0.0026 35.3331 0.0009
# 6 0.0001 0.0007 0.0015 0.0011 0.0009 0.6316
#
#
#
# Elastic Compliance Matrix: (Units=1/GPa)
#
#
# Indices 1 2 3 4 5 6 
#
# 1 0.008272 -0.001849 -0.001580 0.000001 0.000000 0.000004
# 2 -0.001849 0.009634 -0.001200 -0.000001 0.000000 -0.000007
# 3 -0.001580 -0.001200 0.010872 -0.000002 -0.000001 -0.000024
# 4 0.000001 -0.000001 -0.000002 0.044480 -0.000003 -0.000077
# 5 0.000000 0.000000 -0.000001 -0.000003 0.028302 -0.000042
# 6 0.000004 -0.000007 -0.000024 -0.000077 -0.000042 1.583316
#
#
# Mechanical properties :
#
#
# Convention : Reuss Voigt Hill
#
# Bulk Modulus (GPa) = 51.22938 52.50908 51.86923
# Shear Modulus (GPa) = 2.94007 29.89543 16.41775
#
# Velocity S-wave (km/s) = 1.09900 3.50446 2.59702
# Velocity P-wave (km/s) = 4.75980 6.16003 5.50462
#
# Compressibility (1/GPa) = 0.01952005
#
# Stress axis : x y z
#
# Youngs Moduli (GPa) = 120.88382 103.80086 91.98319
#
# Poissons Ratio (x) = 0.19192 0.14533
# Poissons Ratio (y) = 0.22350 0.11038
# Poissons Ratio (z) = 0.19100 0.12456
#
# Static dielectric constant tensor:
#      x y z
#    x 1.963400 0.000000 0.000000 
#    y 0.000000 1.884070 0.000000 
#    z 0.000000 0.000000 1.858820 
# 
# From -- ./inp_files/1336.got.cif
#   From: 2010.05.17/outbox.cif.g08.bks.cpg/sg43_1_cif.got.tgz:1336.got - 2010.06.03 19:21:55.
