data_PCOD9372304
_publ_section_title
;
Structure prediction by ZEFSAII (Michael W. Deem and Ramdas Pophale) SiO2 
 PCOD9372304
Probable space group: F D D 2
;
_chemical_formula_sum "Si O2"
_cell_formula_units_Z 48
_cell_length_a 14.955088
_cell_length_b 9.754918
_cell_length_c 12.168154
_cell_angle_alpha 90.000000
_cell_angle_beta 90.000000
_cell_angle_gamma 90.000000
_cell_volume 1775.159142
_symmetry_space_group_name_H-M "F D D 2"
_symmetry_group_IT_number 43
_symmetry_cell_setting 'orthorhombic'
loop_
_space_group_symop_operation_xyz
x,y,z
-x,-y,z
1/4-x,1/4+y,1/4+z
1/4+x,1/4-y,1/4+z
x,1/2+y,1/2+z
-x,1/2-y,1/2+z
1/4-x,3/4+y,3/4+z
1/4+x,3/4-y,3/4+z
1/2+x,y,1/2+z
1/2-x,-y,1/2+z
3/4-x,1/4+y,3/4+z
3/4+x,1/4-y,3/4+z
1/2+x,1/2+y,z
1/2-x,1/2-y,z
3/4-x,3/4+y,1/4+z
3/4+x,3/4-y,1/4+z
loop_
_atom_site_type_symbol
_atom_site_label
_atom_site_fract_x
_atom_site_fract_y
_atom_site_fract_z
Si Si1 0.597220 0.006236 0.705950
Si Si2 0.291316 0.418869 0.670649
Si Si3 0.595326 0.044179 0.362818
O O1 0.671107 0.668595 0.569012
O O2 0.684706 0.927997 0.661844
O O3 0.500000 0.000000 0.649566
O O4 0.620768 0.166927 0.684871
O O5 0.334875 0.374869 0.784544
O O6 0.318365 0.577931 0.686852
O O7 0.500000 0.000000 0.307139
#
# Coordination Sequence:
#
# PCOD9372304 Si02
#       3
#    16  16  16
#     4  11  29  49  83 125 169 224 289 358 434 522
#     4  11  28  48  83 119 168 227 280 356 443 513
#     4  10  27  49  76 118 168 218 284 355 422 526
#
# _framework density 27.039831
#
# number of rings (size 3 to 8) (size 9 to 14) (size 15 to 20)
#    0.000    1.333    0.000    0.000   23.333    1.333 
#    0.000    0.000    0.000    0.000    0.000    0.000 
#    0.000    0.000    0.000    0.000    0.000    0.000 
#
# Total GULP energy -66848.711439 kJ/mol
# GULP energy per Si atom -5570.725953 kJ/mol
# Density = 2.697829 g / cm^3
# Si number density = 27.039831 Si / 1000 Ang^3
#
#
#
# Elastic Constant Matrix: (Units=GPa)
#
#
# Indices 1 2 3 4 5 6 
#
# 1 184.6917 64.5629 78.2407 0.0000 0.0000 0.0000
# 2 64.5629 226.7317 55.0616 0.0000 0.0000 0.0000
# 3 78.2407 55.0616 145.5511 0.0000 0.0000 0.0000
# 4 0.0000 0.0000 0.0000 37.9394 0.0000 0.0000
# 5 0.0000 0.0000 0.0000 0.0000 35.7377 0.0000
# 6 0.0000 0.0000 0.0000 0.0000 0.0000 41.4170
#
#
#
# Elastic Compliance Matrix: (Units=1/GPa)
#
#
# Indices 1 2 3 4 5 6 
#
# 1 0.007315 -0.001242 -0.003462 0.000000 0.000000 0.000000
# 2 -0.001242 0.005068 -0.001249 0.000000 0.000000 0.000000
# 3 -0.003462 -0.001249 0.009204 0.000000 0.000000 0.000000
# 4 0.000000 0.000000 0.000000 0.026358 0.000000 0.000000
# 5 0.000000 0.000000 0.000000 0.000000 0.027982 0.000000
# 6 0.000000 0.000000 0.000000 0.000000 0.000000 0.024145
#
#
# Mechanical properties :
#
#
# Convention : Reuss Voigt Hill
#
# Bulk Modulus (GPa) = 103.31286 105.85610 104.58448
# Shear Modulus (GPa) = 43.40051 46.95947 45.17999
#
# Velocity S-wave (km/s) = 4.01066 4.17187 4.09206
# Velocity P-wave (km/s) = 7.72903 7.90185 7.81591
#
# Compressibility (1/GPa) = 0.00967934
#
# Stress axis : x y z
#
# Youngs Moduli (GPa) = 136.69615 197.33095 108.64497
#
# Poissons Ratio (x) = 0.24514 0.37618
# Poissons Ratio (y) = 0.16981 0.13573
# Poissons Ratio (z) = 0.47331 0.24652
#
# Static dielectric constant tensor:
#      x y z
#    x 2.435180 0.000000 0.000000 
#    y 0.000000 2.339690 0.000000 
#    z 0.000000 0.000000 2.374730 
# 
# From -- ./inp_files/12312.got.cif
#   From: 2010.05.17/outbox.cif.g08.bks.cpg/sg43_7_cif.got.tgz:12312.got - 2010.06.03 19:21:55.
