data_PCOD9372876
_publ_section_title
;
Structure prediction by ZEFSAII (Michael W. Deem and Ramdas Pophale) SiO2 
 PCOD9372876
Probable space group: F D D 2
;
_chemical_formula_sum "Si O2"
_cell_formula_units_Z 80
_cell_length_a 17.200276
_cell_length_b 28.226011
_cell_length_c 7.592991
_cell_angle_alpha 90.000000
_cell_angle_beta 90.000000
_cell_angle_gamma 90.000000
_cell_volume 3686.360529
_symmetry_space_group_name_H-M "F D D 2"
_symmetry_group_IT_number 43
_symmetry_cell_setting 'orthorhombic'
loop_
_space_group_symop_operation_xyz
x,y,z
-x,-y,z
1/4-x,1/4+y,1/4+z
1/4+x,1/4-y,1/4+z
x,1/2+y,1/2+z
-x,1/2-y,1/2+z
1/4-x,3/4+y,3/4+z
1/4+x,3/4-y,3/4+z
1/2+x,y,1/2+z
1/2-x,-y,1/2+z
3/4-x,1/4+y,3/4+z
3/4+x,1/4-y,3/4+z
1/2+x,1/2+y,z
1/2-x,1/2-y,z
3/4-x,3/4+y,1/4+z
3/4+x,3/4-y,1/4+z
loop_
_atom_site_type_symbol
_atom_site_label
_atom_site_fract_x
_atom_site_fract_y
_atom_site_fract_z
Si Si1 0.020054 0.685578 0.882380
Si Si2 0.410243 0.241388 0.110113
Si Si3 0.648893 0.675013 0.880909
Si Si4 0.218201 0.836888 0.669044
Si Si5 0.172859 0.143834 0.493276
O O1 0.062627 0.724821 0.766608
O O2 0.950572 0.659370 0.781868
O O3 0.085017 0.646751 0.925223
O O4 0.982333 0.708853 0.053116
O O5 0.338846 0.207870 0.159824
O O6 0.385839 0.275304 0.947880
O O7 0.480093 0.586279 0.094875
O O8 0.673122 0.672135 0.677320
O O9 0.722497 0.664180 0.005490
O O10 0.165390 0.884025 0.662026
#
# Coordination Sequence:
#
# PCOD9372876 Si02
#       5
#    16  16  16  16  16
#     4  12  27  47  78 108 149 197 252 308 384 447
#     4  12  27  48  73 117 153 194 257 317 374 455
#     4  12  26  48  77 110 152 197 246 318 371 451
#     4  12  26  49  76 109 156 189 254 314 375 444
#     4  12  25  50  75 110 144 206 241 306 385 444
#
# _framework density 21.701619999999998
#
# number of rings (size 3 to 8) (size 9 to 14) (size 15 to 20)
#    0.000    0.000    6.000    3.000    2.800    1.600 
#    7.200    0.000    0.000    0.000    0.000    0.000 
#    0.000    0.000    0.000    0.000    0.000    0.000 
#
# Total GULP energy -112049.308211 kJ/mol
# GULP energy per Si atom -5602.465411 kJ/mol
# Density = 2.165223 g / cm^3
# Si number density = 21.701620 Si / 1000 Ang^3
#
#
#
# Elastic Constant Matrix: (Units=GPa)
#
#
# Indices 1 2 3 4 5 6 
#
# 1 110.6487 38.6485 31.6921 0.0000 0.0000 0.0000
# 2 38.6485 70.7564 -16.3202 0.0000 0.0000 0.0000
# 3 31.6921 -16.3202 74.6139 0.0000 -0.0001 0.0000
# 4 0.0000 0.0000 0.0000 26.2253 0.0001 0.0000
# 5 0.0000 0.0000 -0.0001 0.0001 36.7272 0.0000
# 6 0.0000 0.0000 0.0000 0.0000 0.0000 39.6178
#
#
#
# Elastic Compliance Matrix: (Units=1/GPa)
#
#
# Indices 1 2 3 4 5 6 
#
# 1 0.015091 -0.010238 -0.008649 0.000000 0.000000 0.000000
# 2 -0.010238 0.021829 0.009123 0.000000 0.000000 0.000000
# 3 -0.008649 0.009123 0.019072 0.000000 0.000000 0.000000
# 4 0.000000 0.000000 0.000000 0.038131 0.000000 0.000000
# 5 0.000000 0.000000 0.000000 0.000000 0.027228 0.000000
# 6 0.000000 0.000000 0.000000 0.000000 0.000000 0.025241
#
#
# Mechanical properties :
#
#
# Convention : Reuss Voigt Hill
#
# Bulk Modulus (GPa) = 27.42407 40.45107 33.93757
# Shear Modulus (GPa) = 28.04667 33.98064 31.01365
#
# Velocity S-wave (km/s) = 3.59886 3.96133 3.78444
# Velocity P-wave (km/s) = 5.47114 6.29309 5.89645
#
# Compressibility (1/GPa) = 0.03646431
#
# Stress axis : x y z
#
# Youngs Moduli (GPa) = 66.26518 45.80975 52.43411
#
# Poissons Ratio (x) = 0.46899 0.45351
# Poissons Ratio (y) = 0.67841 -0.47837
# Poissons Ratio (z) = 0.57314 -0.41793
#
# Static dielectric constant tensor:
#      x y z
#    x 1.767340 0.000000 0.000000 
#    y 0.000000 1.760550 0.000000 
#    z 0.000000 0.000000 1.794270 
# 
# From -- ./inp_files/2791.got.cif
#   From: 2010.05.17/outbox.cif.g08.bks.cpg/sg43_2_cif.got.tgz:2791.got - 2010.06.03 19:21:55.
