data_PCOD9372977
_publ_section_title
;
Structure prediction by ZEFSAII (Michael W. Deem and Ramdas Pophale) SiO2 
 PCOD9372977
Probable space group: F D D 2
;
_chemical_formula_sum "Si O2"
_cell_formula_units_Z 30
_cell_length_a 18.000000
_cell_length_b 12.000000
_cell_length_c 27.000000
_cell_angle_alpha 90.000000
_cell_angle_beta 90.000000
_cell_angle_gamma 90.000000
_cell_volume 5832.000000
_symmetry_space_group_name_H-M "F D D 2"
_symmetry_group_IT_number 43
_symmetry_cell_setting 'orthorhombic'
loop_
_space_group_symop_operation_xyz
x,y,z
-x,-y,z
1/4-x,1/4+y,1/4+z
1/4+x,1/4-y,1/4+z
x,1/2+y,1/2+z
-x,1/2-y,1/2+z
1/4-x,3/4+y,3/4+z
1/4+x,3/4-y,3/4+z
1/2+x,y,1/2+z
1/2-x,-y,1/2+z
3/4-x,1/4+y,3/4+z
3/4+x,1/4-y,3/4+z
1/2+x,1/2+y,z
1/2-x,1/2-y,z
3/4-x,3/4+y,1/4+z
3/4+x,3/4-y,1/4+z
loop_
_atom_site_type_symbol
_atom_site_label
_atom_site_fract_x
_atom_site_fract_y
_atom_site_fract_z
Si Si1 0.225553 0.503879 0.185210
Si Si2 0.794031 0.631441 0.780404
Si Si3 0.293572 0.966666 0.870880
Si Si4 0.546507 0.297117 0.244005
Si Si5 0.937539 0.824854 0.335802
Si Si6 0.169693 0.794663 0.485345
Si Si7 0.870343 0.080805 0.833813
Si Si8 0.250000 0.750000 0.655258
O O1 0.259477 0.555126 0.236052
O O2 0.259222 0.558695 0.134664
O O3 0.138768 0.535394 0.190739
O O4 0.238752 0.369321 0.182997
O O5 0.750000 0.750000 0.779778
O O6 0.792019 0.579459 0.836145
O O7 0.878575 0.643164 0.761719
O O8 0.289728 0.956217 0.932381
O O9 0.370229 0.907939 0.851779
O O10 0.214314 0.916521 0.852795
O O11 0.482111 0.340886 0.282864
O O12 0.563081 0.167726 0.255080
O O13 0.898883 0.705786 0.329597
O O14 0.250000 0.750000 0.470312
O O15 0.133940 0.726422 0.530810
O O16 0.926205 0.017895 0.871790
#
# Coordination Sequence:
#
# PCOD9372977 Si02
#       8
#    16  16  16  16  16  16  16   8
#     4  11  24  46  78 105 157 200 251 318 399 460
#     4  12  26  49  75 110 157 201 259 323 386 470
#     4  12  28  47  76 111 149 208 262 315 392 475
#     4  12  27  48  74 110 154 199 263 312 388 476
#     4  11  26  50  74 109 153 202 249 331 391 468
#     4  12  23  45  73 107 143 194 251 311 377 454
#     4  11  22  47  73 105 152 189 249 321 383 459
#     4  10  24  42  74 112 144 196 252 306 396 452
#
# _framework density 5.1440330000000003
#
# number of rings (size 3 to 8) (size 9 to 14) (size 15 to 20)
#    0.000    0.533    6.000    1.200    3.733    4.267 
#    2.400    0.000    0.000    0.000    0.000    0.000 
#    0.000    0.000    0.000    0.000    0.000    0.000 
#
# Total GULP energy -167366.458476 kJ/mol
# GULP energy per Si atom -5578.881949 kJ/mol
# Density = 0.513232 g / cm^3
# Si number density = 5.144033 Si / 1000 Ang^3
#
#
#
# Elastic Constant Matrix: (Units=GPa)
#
#
# Indices 1 2 3 4 5 6 
#
# 1 180.5282 36.0972 66.1521 0.0000 0.0000 0.0000
# 2 36.0972 82.8087 37.7954 0.0000 0.0000 0.0000
# 3 66.1521 37.7954 154.5169 0.0000 0.0000 0.0000
# 4 0.0000 0.0000 0.0000 32.4497 0.0000 0.0000
# 5 0.0000 0.0000 0.0000 0.0000 42.7044 0.0000
# 6 0.0000 0.0000 0.0000 0.0000 0.0000 38.9332
#
#
#
# Elastic Compliance Matrix: (Units=1/GPa)
#
#
# Indices 1 2 3 4 5 6 
#
# 1 0.006811 -0.001844 -0.002465 0.000000 0.000000 0.000000
# 2 -0.001844 0.014093 -0.002658 0.000000 0.000000 0.000000
# 3 -0.002465 -0.002658 0.008177 0.000000 0.000000 0.000000
# 4 0.000000 0.000000 0.000000 0.030817 0.000000 0.000000
# 5 0.000000 0.000000 0.000000 0.000000 0.023417 0.000000
# 6 0.000000 0.000000 0.000000 0.000000 0.000000 0.025685
#
#
# Mechanical properties :
#
#
# Convention : Reuss Voigt Hill
#
# Bulk Modulus (GPa) = 66.01584 77.54924 71.78254
# Shear Modulus (GPa) = 39.06773 41.33807 40.20290
#
# Velocity S-wave (km/s) = 4.36213 4.48708 4.42505
# Velocity P-wave (km/s) = 7.58447 8.03841 7.81474
#
# Compressibility (1/GPa) = 0.01514788
#
# Stress axis : x y z
#
# Youngs Moduli (GPa) = 146.81503 70.95780 122.29132
#
# Poissons Ratio (x) = 0.13085 0.30145
# Poissons Ratio (y) = 0.27073 0.32501
# Poissons Ratio (z) = 0.36190 0.18858
#
# Static dielectric constant tensor:
#      x y z
#    x 1.794490 0.000000 0.000000 
#    y 0.000000 1.799270 0.000000 
#    z 0.000000 0.000000 1.734440 
# 
# From -- ./inp_files/26072.got.cif
#   From: 2010.05.17/outbox.ucp.g08.bks.cvg/sg43_14_cif.got.tgz:26072.got - 2010.06.11 16:31:01.
