data_PCOD9372305
_publ_section_title
;
Structure prediction by ZEFSAII (Michael W. Deem and Ramdas Pophale) SiO2 
 PCOD9372305
Probable space group: F D D 2
;
_chemical_formula_sum "Si O2"
_cell_formula_units_Z 40
_cell_length_a 10.784917
_cell_length_b 11.395028
_cell_length_c 11.719638
_cell_angle_alpha 90.000000
_cell_angle_beta 90.000000
_cell_angle_gamma 90.000000
_cell_volume 1440.278246
_symmetry_space_group_name_H-M "F D D 2"
_symmetry_group_IT_number 43
_symmetry_cell_setting 'orthorhombic'
loop_
_space_group_symop_operation_xyz
x,y,z
-x,-y,z
1/4-x,1/4+y,1/4+z
1/4+x,1/4-y,1/4+z
x,1/2+y,1/2+z
-x,1/2-y,1/2+z
1/4-x,3/4+y,3/4+z
1/4+x,3/4-y,3/4+z
1/2+x,y,1/2+z
1/2-x,-y,1/2+z
3/4-x,1/4+y,3/4+z
3/4+x,1/4-y,3/4+z
1/2+x,1/2+y,z
1/2-x,1/2-y,z
3/4-x,3/4+y,1/4+z
3/4+x,3/4-y,1/4+z
loop_
_atom_site_type_symbol
_atom_site_label
_atom_site_fract_x
_atom_site_fract_y
_atom_site_fract_z
Si Si1 0.891505 0.087303 0.913830
Si Si2 0.391279 0.270856 0.600047
Si Si3 0.250000 0.750000 0.439178
O O1 0.901717 0.212379 0.974504
O O2 0.749656 0.044488 0.921914
O O3 0.325268 0.156716 0.866657
O O4 0.000000 0.000000 0.962009
O O5 0.250000 0.250000 0.635618
O O6 0.829556 0.325055 0.529423
#
# Coordination Sequence:
#
# PCOD9372305 Si02
#       3
#    16  16   8
#     4  10  27  55  85 125 181 227 293 372 434 533
#     4  12  28  54  92 128 175 238 293 364 453 522
#     4  10  28  56  88 122 182 234 284 376 432 532
#
# _framework density 27.772414999999999
#
# number of rings (size 3 to 8) (size 9 to 14) (size 15 to 20)
#    1.200    0.000    0.000    2.400    5.600    8.000 
#    0.000    6.000    4.400    0.000    0.000    0.000 
#    0.000    0.000    0.000    0.000    0.000    0.000 
#
# Total GULP energy -55954.944879 kJ/mol
# GULP energy per Si atom -5595.494488 kJ/mol
# Density = 2.770920 g / cm^3
# Si number density = 27.772415 Si / 1000 Ang^3
#
#
#
# Elastic Constant Matrix: (Units=GPa)
#
#
# Indices 1 2 3 4 5 6 
#
# 1 274.9720 120.9110 94.8659 0.0000 0.0000 0.0000
# 2 120.9110 234.2290 134.6156 0.0000 0.0000 0.0000
# 3 94.8659 134.6156 147.4561 0.0000 0.0000 0.0000
# 4 0.0000 0.0000 0.0000 29.5257 0.0000 0.0000
# 5 0.0000 0.0000 0.0000 0.0000 51.8381 0.0000
# 6 0.0000 0.0000 0.0000 0.0000 0.0000 62.2753
#
#
#
# Elastic Compliance Matrix: (Units=1/GPa)
#
#
# Indices 1 2 3 4 5 6 
#
# 1 0.004917 -0.001515 -0.001780 0.000000 0.000000 0.000000
# 2 -0.001515 0.009449 -0.007651 0.000000 0.000000 0.000000
# 3 -0.001780 -0.007651 0.014912 0.000000 0.000000 0.000000
# 4 0.000000 0.000000 0.000000 0.033869 0.000000 0.000000
# 5 0.000000 0.000000 0.000000 0.000000 0.019291 0.000000
# 6 0.000000 0.000000 0.000000 0.000000 0.000000 0.016058
#
#
# Mechanical properties :
#
#
# Convention : Reuss Voigt Hill
#
# Bulk Modulus (GPa) = 135.41556 150.82689 143.12122
# Shear Modulus (GPa) = 40.70011 49.14546 44.92278
#
# Velocity S-wave (km/s) = 3.83232 4.21120 4.02622
# Velocity P-wave (km/s) = 8.27328 8.83582 8.55917
#
# Compressibility (1/GPa) = 0.00738468
#
# Stress axis : x y z
#
# Youngs Moduli (GPa) = 203.36923 105.83470 67.06056
#
# Poissons Ratio (x) = 0.16035 0.11939
# Poissons Ratio (y) = 0.30813 0.51309
# Poissons Ratio (z) = 0.36205 0.80976
#
# Static dielectric constant tensor:
#      x y z
#    x 2.147930 0.000000 0.000000 
#    y 0.000000 2.138260 0.000000 
#    z 0.000000 0.000000 2.180600 
# 
# From -- ./inp_files/12351.got.cif
#   From: 2010.05.17/outbox.cif.g08.bks.cpg/sg43_7_cif.got.tgz:12351.got - 2010.06.03 19:21:55.
