data_PCOD9372928
_publ_section_title
;
Structure prediction by ZEFSAII (Michael W. Deem and Ramdas Pophale) SiO2 
 PCOD9372928
Probable space group: F D D 2
;
_chemical_formula_sum "Si O2"
_cell_formula_units_Z 64
_cell_length_a 22.318640
_cell_length_b 7.826920
_cell_length_c 13.288044
_cell_angle_alpha 90.000000
_cell_angle_beta 90.000000
_cell_angle_gamma 90.000000
_cell_volume 2321.238042
_symmetry_space_group_name_H-M "F D D 2"
_symmetry_group_IT_number 43
_symmetry_cell_setting 'orthorhombic'
loop_
_space_group_symop_operation_xyz
x,y,z
-x,-y,z
1/4-x,1/4+y,1/4+z
1/4+x,1/4-y,1/4+z
x,1/2+y,1/2+z
-x,1/2-y,1/2+z
1/4-x,3/4+y,3/4+z
1/4+x,3/4-y,3/4+z
1/2+x,y,1/2+z
1/2-x,-y,1/2+z
3/4-x,1/4+y,3/4+z
3/4+x,1/4-y,3/4+z
1/2+x,1/2+y,z
1/2-x,1/2-y,z
3/4-x,3/4+y,1/4+z
3/4+x,3/4-y,1/4+z
loop_
_atom_site_type_symbol
_atom_site_label
_atom_site_fract_x
_atom_site_fract_y
_atom_site_fract_z
Si Si1 0.690933 0.616033 0.506840
Si Si2 0.562014 0.174706 0.912408
Si Si3 0.968464 0.761491 0.081559
Si Si4 0.659911 0.812412 0.150864
O O1 0.624920 0.623288 0.460610
O O2 0.763017 0.923094 0.417187
O O3 0.690454 0.454555 0.581268
O O4 0.695415 0.791604 0.571349
O O5 0.569675 0.370601 0.878228
O O6 0.511314 0.172443 0.999108
O O7 0.911743 0.667266 0.133452
O O8 0.933367 0.901367 0.013527
#
# Coordination Sequence:
#
# PCOD9372928 Si02
#       4
#    16  16  16  16
#     4  12  29  61  94 140 192 251 320 395 479 573
#     4  12  28  58  95 139 186 254 319 391 481 565
#     4  12  31  61  94 140 197 242 325 397 475 586
#     4  12  31  58  90 143 188 252 310 397 483 563
#
# _framework density 27.571491000000002
#
# number of rings (size 3 to 8) (size 9 to 14) (size 15 to 20)
#    0.000    0.000    2.500    3.750    3.500   12.000 
#    0.000    2.500    0.000    0.000    0.000    0.000 
#    0.000    0.000    0.000    0.000    0.000    0.000 
#
# Total GULP energy -89845.264562 kJ/mol
# GULP energy per Si atom -5615.329035 kJ/mol
# Density = 2.750874 g / cm^3
# Si number density = 27.571491 Si / 1000 Ang^3
#
#
#
# Elastic Constant Matrix: (Units=GPa)
#
#
# Indices 1 2 3 4 5 6 
#
# 1 258.7163 51.8984 140.9029 0.0000 0.0000 0.0000
# 2 51.8984 180.7092 106.9290 0.0000 0.0000 0.0000
# 3 140.9029 106.9290 232.9377 0.0000 0.0000 0.0000
# 4 0.0000 0.0000 0.0000 48.6374 0.0000 0.0000
# 5 0.0000 0.0000 0.0000 0.0000 82.6764 0.0000
# 6 0.0000 0.0000 0.0000 0.0000 0.0000 27.8110
#
#
#
# Elastic Compliance Matrix: (Units=1/GPa)
#
#
# Indices 1 2 3 4 5 6 
#
# 1 0.005806 0.000564 -0.003771 0.000000 0.000000 0.000000
# 2 0.000564 0.007652 -0.003854 0.000000 0.000000 0.000000
# 3 -0.003771 -0.003854 0.008343 0.000000 0.000000 0.000000
# 4 0.000000 0.000000 0.000000 0.020560 0.000000 0.000000
# 5 0.000000 0.000000 0.000000 0.000000 0.012095 0.000000
# 6 0.000000 0.000000 0.000000 0.000000 0.000000 0.035957
#
#
# Mechanical properties :
#
#
# Convention : Reuss Voigt Hill
#
# Bulk Modulus (GPa) = 130.21529 141.31375 135.76452
# Shear Modulus (GPa) = 46.68772 56.66714 51.67743
#
# Velocity S-wave (km/s) = 4.11948 4.53844 4.33402
# Velocity P-wave (km/s) = 8.36406 8.87852 8.62513
#
# Compressibility (1/GPa) = 0.00767959
#
# Stress axis : x y z
#
# Youngs Moduli (GPa) = 172.24351 130.68218 119.86251
#
# Poissons Ratio (x) = -0.07368 0.45196
# Poissons Ratio (y) = -0.09711 0.46192
# Poissons Ratio (z) = 0.64947 0.50361
#
# Static dielectric constant tensor:
#      x y z
#    x 2.319790 0.000000 0.000000 
#    y 0.000000 2.180290 0.000000 
#    z 0.000000 0.000000 2.114090 
# 
# From -- ./inp_files/8130.got.cif
#   From: 2010.05.17/outbox.cif.g08.bks.cpg/sg43_5_cif.got.tgz:8130.got - 2010.06.03 19:21:55.
