data_PCOD9372185
_publ_section_title
;
Structure prediction by ZEFSAII (Michael W. Deem and Ramdas Pophale) SiO2 
 PCOD9372185
Probable space group: F D D 2
;
_chemical_formula_sum "Si O2"
_cell_formula_units_Z 120
_cell_length_a 27.477170
_cell_length_b 10.011376
_cell_length_c 18.798693
_cell_angle_alpha 90.000000
_cell_angle_beta 90.000000
_cell_angle_gamma 90.000000
_cell_volume 5171.224934
_symmetry_space_group_name_H-M "F D D 2"
_symmetry_group_IT_number 43
_symmetry_cell_setting 'orthorhombic'
loop_
_space_group_symop_operation_xyz
x,y,z
-x,-y,z
1/4-x,1/4+y,1/4+z
1/4+x,1/4-y,1/4+z
x,1/2+y,1/2+z
-x,1/2-y,1/2+z
1/4-x,3/4+y,3/4+z
1/4+x,3/4-y,3/4+z
1/2+x,y,1/2+z
1/2-x,-y,1/2+z
3/4-x,1/4+y,3/4+z
3/4+x,1/4-y,3/4+z
1/2+x,1/2+y,z
1/2-x,1/2-y,z
3/4-x,3/4+y,1/4+z
3/4+x,3/4-y,1/4+z
loop_
_atom_site_type_symbol
_atom_site_label
_atom_site_fract_x
_atom_site_fract_y
_atom_site_fract_z
Si Si1 0.511578 0.159500 0.158180
Si Si2 0.995475 0.155266 0.813334
Si Si3 0.750000 0.750000 0.537989
Si Si4 0.396941 0.966566 0.713716
Si Si5 0.570260 0.808736 0.054612
Si Si6 0.791994 0.927450 0.654946
Si Si7 0.619304 0.796293 0.302268
Si Si8 0.857911 0.149022 0.330851
O O1 0.516346 0.212258 0.238094
O O2 0.465670 0.226991 0.119159
O O3 0.561814 0.171032 0.116647
O O4 0.500000 0.000000 0.154566
O O5 0.937887 0.181518 0.815906
O O6 0.029346 0.172860 0.883096
O O7 0.000000 0.000000 0.798529
O O8 0.797875 0.731371 0.491657
O O9 0.754697 0.867779 0.596931
O O10 0.377479 0.823276 0.744450
O O11 0.391610 0.985534 0.629772
O O12 0.367601 0.081782 0.755223
O O13 0.604491 0.685923 0.031235
O O14 0.599464 0.942199 0.074308
O O15 0.536554 0.847775 0.987245
O O16 0.844642 0.879916 0.629833
#
# Coordination Sequence:
#
# PCOD9372185 Si02
#       8
#    16  16   8  16  16  16  16  16
#     4   9  22  43  68 101 135 183 233 301 350 427
#     4  11  24  42  70  98 143 185 235 290 372 435
#     4  10  24  50  70  98 134 196 242 300 354 436
#     4  11  27  48  75 102 146 193 243 300 369 446
#     4  11  26  42  73 102 143 179 242 298 361 425
#     4  11  25  40  74 100 134 181 243 296 354 423
#     4  12  27  48  70 106 152 190 239 305 379 436
#     4  10  25  44  74 102 133 184 248 293 352 431
#
# _framework density 23.205333
#
# number of rings (size 3 to 8) (size 9 to 14) (size 15 to 20)
#    0.000    1.333    1.333    1.600   19.600    1.067 
#    0.000    0.000    0.000    0.000    0.000    0.000 
#    0.000    0.000    0.000    0.000    0.000    0.000 
#
# Total GULP energy -167624.780736 kJ/mol
# GULP energy per Si atom -5587.492691 kJ/mol
# Density = 2.315252 g / cm^3
# Si number density = 23.205333 Si / 1000 Ang^3
#
#
#
# Elastic Constant Matrix: (Units=GPa)
#
#
# Indices 1 2 3 4 5 6 
#
# 1 80.5003 8.3134 -7.9521 0.0000 0.0000 0.0000
# 2 8.3134 44.8935 -10.5900 0.0000 0.0000 0.0000
# 3 -7.9521 -10.5900 74.7944 0.0000 0.0000 0.0000
# 4 0.0000 0.0000 0.0000 27.9889 0.0000 0.0000
# 5 0.0000 0.0000 0.0000 0.0000 12.8941 0.0000
# 6 0.0000 0.0000 0.0000 0.0000 0.0000 26.5428
#
#
#
# Elastic Compliance Matrix: (Units=1/GPa)
#
#
# Indices 1 2 3 4 5 6 
#
# 1 0.012745 -0.002111 0.001056 0.000000 0.000000 0.000000
# 2 -0.002111 0.023394 0.003088 0.000000 0.000000 0.000000
# 3 0.001056 0.003088 0.013919 0.000000 0.000000 0.000000
# 4 0.000000 0.000000 0.000000 0.035728 0.000000 0.000000
# 5 0.000000 0.000000 0.000000 0.000000 0.077555 0.000000
# 6 0.000000 0.000000 0.000000 0.000000 0.000000 0.037675
#
#
# Mechanical properties :
#
#
# Convention : Reuss Voigt Hill
#
# Bulk Modulus (GPa) = 18.47590 19.97010 19.22300
# Shear Modulus (GPa) = 23.25672 27.51297 25.38485
#
# Velocity S-wave (km/s) = 3.16921 3.44704 3.31104
# Velocity P-wave (km/s) = 4.62289 4.94644 4.78740
#
# Compressibility (1/GPa) = 0.05412457
#
# Stress axis : x y z
#
# Youngs Moduli (GPa) = 78.46437 42.74555 71.84179
#
# Poissons Ratio (x) = 0.09023 -0.07587
# Poissons Ratio (y) = 0.16563 -0.22184
# Poissons Ratio (z) = -0.08287 -0.13199
#
# Static dielectric constant tensor:
#      x y z
#    x 1.840610 0.000000 0.000000 
#    y 0.000000 1.962270 0.000000 
#    z 0.000000 0.000000 1.846510 
# 
# From -- ./inp_files/15101.got.cif
#   From: 2010.05.17/outbox.cif.g08.bks.cpg/sg43_8_cif.got.tgz:15101.got - 2010.06.03 19:21:55.
