data_PCOD9372713
_publ_section_title
;
Structure prediction by ZEFSAII (Michael W. Deem and Ramdas Pophale) SiO2 
 PCOD9372713
Probable space group: F D D 2
;
_chemical_formula_sum "Si O2"
_cell_formula_units_Z 96
_cell_length_a 25.438875
_cell_length_b 17.399192
_cell_length_c 9.216520
_cell_angle_alpha 90.000000
_cell_angle_beta 90.000000
_cell_angle_gamma 90.000000
_cell_volume 4079.378022
_symmetry_space_group_name_H-M "F D D 2"
_symmetry_group_IT_number 43
_symmetry_cell_setting 'orthorhombic'
loop_
_space_group_symop_operation_xyz
x,y,z
-x,-y,z
1/4-x,1/4+y,1/4+z
1/4+x,1/4-y,1/4+z
x,1/2+y,1/2+z
-x,1/2-y,1/2+z
1/4-x,3/4+y,3/4+z
1/4+x,3/4-y,3/4+z
1/2+x,y,1/2+z
1/2-x,-y,1/2+z
3/4-x,1/4+y,3/4+z
3/4+x,1/4-y,3/4+z
1/2+x,1/2+y,z
1/2-x,1/2-y,z
3/4-x,3/4+y,1/4+z
3/4+x,3/4-y,1/4+z
loop_
_atom_site_type_symbol
_atom_site_label
_atom_site_fract_x
_atom_site_fract_y
_atom_site_fract_z
Si Si1 0.660278 0.979482 0.820610
Si Si2 0.222987 0.870968 0.534248
Si Si3 0.944837 0.277114 0.533465
Si Si4 0.322892 0.793657 0.583385
Si Si5 0.435728 0.092154 0.660194
Si Si6 0.256905 0.066052 0.575663
O O1 0.603131 0.953339 0.767781
O O2 0.696266 0.951665 0.685297
O O3 0.665618 0.069868 0.865283
O O4 0.684367 0.927326 0.947873
O O5 0.222199 0.903755 0.696821
O O6 0.284684 0.854762 0.503960
O O7 0.195838 0.788684 0.529127
O O8 0.884696 0.299241 0.556423
O O9 0.956673 0.207175 0.424402
O O10 0.974836 0.267410 0.684910
O O11 0.312848 0.799612 0.756008
O O12 0.489846 0.105206 0.749141
#
# Coordination Sequence:
#
# PCOD9372713 Si02
#       6
#    16  16  16  16  16  16
#     4  12  27  49  76 111 147 197 252 308 371 448
#     4  11  25  47  71 108 152 189 251 309 378 443
#     4  12  23  44  74 105 142 199 242 306 364 452
#     4  11  26  44  74 106 150 195 242 308 382 446
#     4  12  26  47  75 111 144 192 253 307 371 446
#     4  12  23  45  75 104 145 194 250 299 369 448
#
# _framework density 23.532999
#
# number of rings (size 3 to 8) (size 9 to 14) (size 15 to 20)
#    0.000    0.333    6.667    1.000    2.333    4.000 
#    3.000    0.000    0.000    0.000    0.000    0.000 
#    0.000    0.000    0.000    0.000    0.000    0.000 
#
# Total GULP energy -133920.954706 kJ/mol
# GULP energy per Si atom -5580.039779 kJ/mol
# Density = 2.347944 g / cm^3
# Si number density = 23.532999 Si / 1000 Ang^3
#
#
#
# Elastic Constant Matrix: (Units=GPa)
#
#
# Indices 1 2 3 4 5 6 
#
# 1 71.4779 -8.3098 -1.6178 0.0000 0.0000 0.0000
# 2 -8.3098 40.8417 -17.0901 0.0000 0.0000 0.0000
# 3 -1.6178 -17.0901 103.9687 0.0000 0.0000 0.0000
# 4 0.0000 0.0000 0.0000 27.5364 0.0000 0.0000
# 5 0.0000 0.0000 0.0000 0.0000 36.5072 0.0000
# 6 0.0000 0.0000 0.0000 0.0000 0.0000 25.3071
#
#
#
# Elastic Compliance Matrix: (Units=1/GPa)
#
#
# Indices 1 2 3 4 5 6 
#
# 1 0.014385 0.003243 0.000757 0.000000 0.000000 0.000000
# 2 0.003243 0.027025 0.004493 0.000000 0.000000 0.000000
# 3 0.000757 0.004493 0.010369 0.000000 0.000000 0.000000
# 4 0.000000 0.000000 0.000000 0.036316 0.000000 0.000000
# 5 0.000000 0.000000 0.000000 0.000000 0.027392 0.000000
# 6 0.000000 0.000000 0.000000 0.000000 0.000000 0.039515
#
#
# Mechanical properties :
#
#
# Convention : Reuss Voigt Hill
#
# Bulk Modulus (GPa) = 14.54247 18.02810 16.28528
# Shear Modulus (GPa) = 31.06849 34.09054 32.57951
#
# Velocity S-wave (km/s) = 3.63741 3.81021 3.72481
# Velocity P-wave (km/s) = 4.88201 5.19946 5.04323
#
# Compressibility (1/GPa) = 0.06876412
#
# Stress axis : x y z
#
# Youngs Moduli (GPa) = 69.51904 37.00326 96.44539
#
# Poissons Ratio (x) = -0.12002 -0.07301
# Poissons Ratio (y) = -0.22548 -0.43330
# Poissons Ratio (z) = -0.05262 -0.16625
#
# Static dielectric constant tensor:
#      x y z
#    x 1.965000 0.000000 0.000000 
#    y 0.000000 1.970530 0.000000 
#    z 0.000000 0.000000 1.897560 
# 
# From -- ./inp_files/4197.got.cif
#   From: 2010.05.17/outbox.cif.g08.bks.cpg/sg43_3_cif.got.tgz:4197.got - 2010.06.03 19:21:55.
