data_PCOD9372045
_publ_section_title
;
Structure prediction by ZEFSAII (Michael W. Deem and Ramdas Pophale) SiO2 
 PCOD9372045
Probable space group: F D D 2
;
_chemical_formula_sum "Si O2"
_cell_formula_units_Z 120
_cell_length_a 9.156109
_cell_length_b 23.328827
_cell_length_c 27.311345
_cell_angle_alpha 90.000000
_cell_angle_beta 90.000000
_cell_angle_gamma 90.000000
_cell_volume 5833.738328
_symmetry_space_group_name_H-M "F D D 2"
_symmetry_group_IT_number 43
_symmetry_cell_setting 'orthorhombic'
loop_
_space_group_symop_operation_xyz
x,y,z
-x,-y,z
1/4-x,1/4+y,1/4+z
1/4+x,1/4-y,1/4+z
x,1/2+y,1/2+z
-x,1/2-y,1/2+z
1/4-x,3/4+y,3/4+z
1/4+x,3/4-y,3/4+z
1/2+x,y,1/2+z
1/2-x,-y,1/2+z
3/4-x,1/4+y,3/4+z
3/4+x,1/4-y,3/4+z
1/2+x,1/2+y,z
1/2-x,1/2-y,z
3/4-x,3/4+y,1/4+z
3/4+x,3/4-y,1/4+z
loop_
_atom_site_type_symbol
_atom_site_label
_atom_site_fract_x
_atom_site_fract_y
_atom_site_fract_z
Si Si1 0.299442 0.141992 0.332850
Si Si2 0.827796 0.005791 0.830311
Si Si3 0.506720 0.671692 0.388539
Si Si4 0.978388 0.338855 0.419019
Si Si5 0.500000 0.500000 0.635217
Si Si6 0.377018 0.796893 0.164199
Si Si7 0.162764 0.495594 0.734676
Si Si8 0.856861 0.195976 0.727448
O O1 0.291248 0.073207 0.332611
O O2 0.426853 0.161142 0.370083
O O3 0.337225 0.165995 0.279687
O O4 0.145727 0.164781 0.353548
O O5 0.735265 0.971977 0.870504
O O6 0.778452 0.983744 0.776963
O O7 0.000000 0.000000 0.837393
O O8 0.384457 0.713081 0.363433
O O9 0.438656 0.609927 0.402860
O O10 0.561661 0.703027 0.438669
O O11 0.834239 0.299829 0.414585
O O12 0.943428 0.402171 0.435431
O O13 0.066583 0.308383 0.461902
O O14 0.250000 0.750000 0.166312
O O15 0.474846 0.793217 0.213364
O O16 0.000000 0.500000 0.755842
O O17 0.750000 0.250000 0.725845
#
# Coordination Sequence:
#
# PCOD9372045 Si02
#       8
#    16  16  16  16   8  16  16  16
#     4  12  26  47  74 106 151 200 248 306 387 454
#     4  12  27  45  78 110 143 198 257 309 375 459
#     4  11  25  45  75 105 146 192 249 319 368 441
#     4  11  23  47  70 104 142 191 248 313 360 441
#     4  10  24  42  80  98 136 184 254 308 368 422
#     4  12  25  50  73 108 153 194 245 308 379 448
#     4  11  24  43  74 106 141 191 251 310 364 435
#     4  12  28  46  72 108 153 199 244 305 386 457
#
# _framework density 20.570001000000001
#
# number of rings (size 3 to 8) (size 9 to 14) (size 15 to 20)
#    0.000    0.533    5.333    2.400    9.333    0.000 
#    1.200    0.000    0.000    0.000    0.000    0.000 
#    0.000    0.000    0.000    0.000    0.000    0.000 
#
# Total GULP energy -167648.316056 kJ/mol
# GULP energy per Si atom -5588.277202 kJ/mol
# Density = 2.052318 g / cm^3
# Si number density = 20.570001 Si / 1000 Ang^3
#
#
#
# Elastic Constant Matrix: (Units=GPa)
#
#
# Indices 1 2 3 4 5 6 
#
# 1 134.2509 43.2930 59.9012 0.0000 0.0000 0.0000
# 2 43.2930 108.3783 32.4873 0.0000 0.0000 0.0000
# 3 59.9012 32.4873 102.8874 0.0000 0.0000 0.0000
# 4 0.0000 0.0000 0.0000 18.1642 0.0000 0.0000
# 5 0.0000 0.0000 0.0000 0.0000 34.0888 0.0000
# 6 0.0000 0.0000 0.0000 0.0000 0.0000 38.0706
#
#
#
# Elastic Compliance Matrix: (Units=1/GPa)
#
#
# Indices 1 2 3 4 5 6 
#
# 1 0.010716 -0.002662 -0.005398 0.000000 0.000000 0.000000
# 2 -0.002662 0.010853 -0.001877 0.000000 0.000000 0.000000
# 3 -0.005398 -0.001877 0.013455 0.000000 0.000000 0.000000
# 4 0.000000 0.000000 0.000000 0.055053 0.000000 0.000000
# 5 0.000000 0.000000 0.000000 0.000000 0.029335 0.000000
# 6 0.000000 0.000000 0.000000 0.000000 0.000000 0.026267
#
#
# Mechanical properties :
#
#
# Convention : Reuss Voigt Hill
#
# Bulk Modulus (GPa) = 66.01126 68.54215 67.27671
# Shear Modulus (GPa) = 29.30766 32.05371 30.68068
#
# Velocity S-wave (km/s) = 3.77872 3.95178 3.86622
# Velocity P-wave (km/s) = 7.15535 7.36314 7.25999
#
# Compressibility (1/GPa) = 0.01514893
#
# Stress axis : x y z
#
# Youngs Moduli (GPa) = 93.31918 92.13964 74.32306
#
# Poissons Ratio (x) = 0.24532 0.40121
# Poissons Ratio (y) = 0.24846 0.13949
# Poissons Ratio (z) = 0.50375 0.17293
#
# Static dielectric constant tensor:
#      x y z
#    x 1.781850 0.000000 0.000000 
#    y 0.000000 1.730490 0.000000 
#    z 0.000000 0.000000 1.709990 
# 
# From -- ./inp_files/22821.got.cif
#   From: 2010.05.17/outbox.cif.g08.bks.cpg/sg43_12_cif.got.tgz:22821.got - 2010.06.03 19:21:55.
