data_PCOD9372196
_publ_section_title
;
Structure prediction by ZEFSAII (Michael W. Deem and Ramdas Pophale) SiO2 
 PCOD9372196
Probable space group: F D D 2
;
_chemical_formula_sum "Si O2"
_cell_formula_units_Z 48
_cell_length_a 7.269281
_cell_length_b 11.401117
_cell_length_c 22.772284
_cell_angle_alpha 90.000000
_cell_angle_beta 90.000000
_cell_angle_gamma 90.000000
_cell_volume 1887.319604
_symmetry_space_group_name_H-M "F D D 2"
_symmetry_group_IT_number 43
_symmetry_cell_setting 'orthorhombic'
loop_
_space_group_symop_operation_xyz
x,y,z
-x,-y,z
1/4-x,1/4+y,1/4+z
1/4+x,1/4-y,1/4+z
x,1/2+y,1/2+z
-x,1/2-y,1/2+z
1/4-x,3/4+y,3/4+z
1/4+x,3/4-y,3/4+z
1/2+x,y,1/2+z
1/2-x,-y,1/2+z
3/4-x,1/4+y,3/4+z
3/4+x,1/4-y,3/4+z
1/2+x,1/2+y,z
1/2-x,1/2-y,z
3/4-x,3/4+y,1/4+z
3/4+x,3/4-y,1/4+z
loop_
_atom_site_type_symbol
_atom_site_label
_atom_site_fract_x
_atom_site_fract_y
_atom_site_fract_z
Si Si1 0.134419 0.109973 0.310790
Si Si2 0.750000 0.750000 0.209368
Si Si3 0.500000 0.500000 0.767855
Si Si4 0.060238 0.251216 0.905330
O O1 0.102359 0.198647 0.256374
O O2 0.088883 0.176313 0.370788
O O3 0.347311 0.068866 0.304735
O O4 0.000000 0.000000 0.306370
O O5 0.781220 0.634424 0.171481
O O6 0.366500 0.439694 0.718134
O O7 0.250000 0.250000 0.868396
#
# Coordination Sequence:
#
# PCOD9372196 Si02
#       4
#    16   8   8  16
#     4  11  24  49  86 117 166 236 275 354 437 508
#     4  10  24  52  77 120 166 212 287 348 414 510
#     4   8  22  52  71 120 170 204 295 344 404 526
#     4   9  22  48  75 118 168 216 286 351 421 513
#
# _framework density 25.432894000000001
#
# number of rings (size 3 to 8) (size 9 to 14) (size 15 to 20)
#    1.000    1.333    0.000    0.000    0.000    8.000 
#   27.000    0.000    0.000    0.000    0.000    0.000 
#    0.000    0.000    0.000    0.000    0.000    0.000 
#
# Total GULP energy -66836.929608 kJ/mol
# GULP energy per Si atom -5569.744134 kJ/mol
# Density = 2.537501 g / cm^3
# Si number density = 25.432894 Si / 1000 Ang^3
#
#
#
# Elastic Constant Matrix: (Units=GPa)
#
#
# Indices 1 2 3 4 5 6 
#
# 1 166.2612 107.7611 96.6483 0.0000 0.0000 0.0000
# 2 107.7611 208.4925 90.0546 0.0000 0.0000 0.0000
# 3 96.6483 90.0546 156.9820 0.0000 0.0000 0.0000
# 4 0.0000 0.0000 0.0000 34.2263 0.0000 0.0000
# 5 0.0000 0.0000 0.0000 0.0000 14.7624 0.0000
# 6 0.0000 0.0000 0.0000 0.0000 0.0000 45.9138
#
#
#
# Elastic Compliance Matrix: (Units=1/GPa)
#
#
# Indices 1 2 3 4 5 6 
#
# 1 0.011198 -0.003735 -0.004751 0.000000 0.000000 0.000000
# 2 -0.003735 0.007622 -0.002073 0.000000 0.000000 0.000000
# 3 -0.004751 -0.002073 0.010484 0.000000 0.000000 0.000000
# 4 0.000000 0.000000 0.000000 0.029217 0.000000 0.000000
# 5 0.000000 0.000000 0.000000 0.000000 0.067740 0.000000
# 6 0.000000 0.000000 0.000000 0.000000 0.000000 0.021780
#
#
# Mechanical properties :
#
#
# Convention : Reuss Voigt Hill
#
# Bulk Modulus (GPa) = 122.16702 124.51819 123.34260
# Shear Modulus (GPa) = 29.08865 34.79861 31.94363
#
# Velocity S-wave (km/s) = 3.38559 3.70300 3.54785
# Velocity P-wave (km/s) = 7.96381 8.20663 8.08613
#
# Compressibility (1/GPa) = 0.00818552
#
# Stress axis : x y z
#
# Youngs Moduli (GPa) = 89.30545 131.19294 95.38009
#
# Poissons Ratio (x) = 0.49006 0.45316
# Poissons Ratio (y) = 0.33359 0.19771
# Poissons Ratio (z) = 0.42430 0.27195
#
# Static dielectric constant tensor:
#      x y z
#    x 2.186140 0.000000 0.000000 
#    y 0.000000 2.165130 0.000000 
#    z 0.000000 0.000000 2.122350 
# 
# From -- ./inp_files/19800.got.cif
#   From: 2010.05.17/outbox.cif.g08.bks.cpg/sg43_10_cif.got.tgz:19800.got - 2010.06.03 19:21:55.
