data_PCOD9372945
_publ_section_title
;
Structure prediction by ZEFSAII (Michael W. Deem and Ramdas Pophale) SiO2 
 PCOD9372945
Probable space group: F D D 2
;
_chemical_formula_sum "Si O2"
_cell_formula_units_Z 24
_cell_length_a 13.294653
_cell_length_b 13.294665
_cell_length_c 4.551175
_cell_angle_alpha 90.000000
_cell_angle_beta 90.000000
_cell_angle_gamma 90.000000
_cell_volume 804.410887
_symmetry_space_group_name_H-M "F D D 2"
_symmetry_group_IT_number 43
_symmetry_cell_setting 'orthorhombic'
loop_
_space_group_symop_operation_xyz
x,y,z
-x,-y,z
1/4-x,1/4+y,1/4+z
1/4+x,1/4-y,1/4+z
x,1/2+y,1/2+z
-x,1/2-y,1/2+z
1/4-x,3/4+y,3/4+z
1/4+x,3/4-y,3/4+z
1/2+x,y,1/2+z
1/2-x,-y,1/2+z
3/4-x,1/4+y,3/4+z
3/4+x,1/4-y,3/4+z
1/2+x,1/2+y,z
1/2-x,1/2-y,z
3/4-x,3/4+y,1/4+z
3/4+x,3/4-y,1/4+z
loop_
_atom_site_type_symbol
_atom_site_label
_atom_site_fract_x
_atom_site_fract_y
_atom_site_fract_z
Si Si1 0.000000 0.500000 0.764860
Si Si2 0.051610 0.801611 0.639861
O O1 0.904638 0.474143 0.559167
O O2 0.974143 0.595362 0.970553
O O3 0.031027 0.718973 0.389862
#
# Coordination Sequence:
#
# PCOD9372945 Si02
#       2
#     8  16
#     4  12  36  66 106 148 202 268 338 420 510 600
#     4  12  36  60 102 150 206 262 340 416 508 604
#
# _framework density 29.835502000000002
#
# number of rings (size 3 to 8) (size 9 to 14) (size 15 to 20)
#    0.000    0.000    0.000    0.000   18.667   16.000 
#    0.000    0.000    0.000    0.000    0.000    0.000 
#    0.000    0.000    0.000    0.000    0.000    0.000 
#
# Total GULP energy -33769.637843 kJ/mol
# GULP energy per Si atom -5628.272974 kJ/mol
# Density = 2.976759 g / cm^3
# Si number density = 29.835502 Si / 1000 Ang^3
#
#
#
# Elastic Constant Matrix: (Units=GPa)
#
#
# Indices 1 2 3 4 5 6 
#
# 1 290.5729 165.6422 188.4392 0.0002 -0.0008 -0.0002
# 2 165.6422 290.5747 188.4437 0.0024 -0.0016 -0.0008
# 3 188.4392 188.4437 336.3176 0.0103 -0.0082 -0.0030
# 4 0.0002 0.0024 0.0103 116.4724 -0.0025 -0.0015
# 5 -0.0008 -0.0016 -0.0082 -0.0025 116.4702 0.0011
# 6 -0.0002 -0.0008 -0.0030 -0.0015 0.0011 43.5410
#
#
#
# Elastic Compliance Matrix: (Units=1/GPa)
#
#
# Indices 1 2 3 4 5 6 
#
# 1 0.006043 -0.001962 -0.002286 0.000000 0.000000 0.000000
# 2 -0.001962 0.006043 -0.002287 0.000000 0.000000 0.000000
# 3 -0.002286 -0.002287 0.005536 0.000000 0.000000 0.000000
# 4 0.000000 0.000000 0.000000 0.008586 0.000000 0.000000
# 5 0.000000 0.000000 0.000000 0.000000 0.008586 0.000000
# 6 0.000000 0.000000 0.000000 0.000000 0.000000 0.022967
#
#
# Mechanical properties :
#
#
# Convention : Reuss Voigt Hill
#
# Bulk Modulus (GPa) = 219.71824 222.50170 221.10997
# Shear Modulus (GPa) = 69.11212 80.29273 74.70242
#
# Velocity S-wave (km/s) = 4.81816 5.19329 5.00924
# Velocity P-wave (km/s) = 10.23504 10.52133 10.37917
#
# Compressibility (1/GPa) = 0.00455128
#
# Stress axis : x y z
#
# Youngs Moduli (GPa) = 165.49241 165.48946 180.64493
#
# Poissons Ratio (x) = 0.32465 0.41304
# Poissons Ratio (y) = 0.32465 0.41307
# Poissons Ratio (z) = 0.37839 0.37841
#
# Static dielectric constant tensor:
#      x y z
#    x 2.538530 0.000000 0.000000 
#    y 0.000000 2.538520 0.000000 
#    z 0.000000 0.000000 2.240060 
# 
# From -- ./inp_files/191.got.cif
#   From: 2010.05.17/outbox.cif.g08.bks.cpg/sg43_1_cif.got.tgz:191.got - 2010.06.03 19:21:55.
