data_PCOD9372667
_publ_section_title
;
Structure prediction by ZEFSAII (Michael W. Deem and Ramdas Pophale) SiO2 
 PCOD9372667
Probable space group: F D D 2
;
_chemical_formula_sum "Si O2"
_cell_formula_units_Z 72
_cell_length_a 26.889205
_cell_length_b 19.736436
_cell_length_c 5.263474
_cell_angle_alpha 90.000000
_cell_angle_beta 90.000000
_cell_angle_gamma 90.000000
_cell_volume 2793.310249
_symmetry_space_group_name_H-M "F D D 2"
_symmetry_group_IT_number 43
_symmetry_cell_setting 'orthorhombic'
loop_
_space_group_symop_operation_xyz
x,y,z
-x,-y,z
1/4-x,1/4+y,1/4+z
1/4+x,1/4-y,1/4+z
x,1/2+y,1/2+z
-x,1/2-y,1/2+z
1/4-x,3/4+y,3/4+z
1/4+x,3/4-y,3/4+z
1/2+x,y,1/2+z
1/2-x,-y,1/2+z
3/4-x,1/4+y,3/4+z
3/4+x,1/4-y,3/4+z
1/2+x,1/2+y,z
1/2-x,1/2-y,z
3/4-x,3/4+y,1/4+z
3/4+x,3/4-y,1/4+z
loop_
_atom_site_type_symbol
_atom_site_label
_atom_site_fract_x
_atom_site_fract_y
_atom_site_fract_z
Si Si1 0.098224 0.050081 0.314800
Si Si2 0.140574 0.881159 0.600965
Si Si3 0.000000 0.000000 0.500596
Si Si4 0.196359 0.503952 0.961484
Si Si5 0.027315 0.356980 0.089891
O O1 0.103999 0.099462 0.564796
O O2 0.053445 0.997748 0.361509
O O3 0.152489 0.017163 0.258651
O O4 0.081632 0.089421 0.066100
O O5 0.160303 0.957605 0.637337
O O6 0.082874 0.873861 0.672573
O O7 0.001389 0.073228 0.629395
O O8 0.244083 0.455199 0.942685
O O9 0.215006 0.576716 0.055196
#
# Coordination Sequence:
#
# PCOD9372667 Si02
#       5
#    16  16   8  16  16
#     4  11  26  47  75 111 153 194 249 312 375 445
#     4  11  25  48  74 108 149 196 249 310 373 447
#     4  12  24  48  74 116 150 200 250 318 378 450
#     4  11  24  47  76 112 151 203 252 314 376 461
#     4  11  25  46  76 114 147 205 251 315 378 459
#
# _framework density 25.775869
#
# number of rings (size 3 to 8) (size 9 to 14) (size 15 to 20)
#    0.000    0.889    4.444    1.333    3.111    4.444 
#    0.000    0.000    0.000    0.000    0.000    0.000 
#    0.000    0.000    0.000    0.000    0.000    0.000 
#
# Total GULP energy -100210.012052 kJ/mol
# GULP energy per Si atom -5567.222892 kJ/mol
# Density = 2.571720 g / cm^3
# Si number density = 25.775869 Si / 1000 Ang^3
#
#
#
# Elastic Constant Matrix: (Units=GPa)
#
#
# Indices 1 2 3 4 5 6 
#
# 1 154.3672 10.1513 7.9192 -0.0018 -0.0019 -0.0035
# 2 10.1513 123.2560 33.1246 0.0020 -0.0053 -0.0017
# 3 7.9192 33.1246 72.8204 0.0003 -0.0066 -0.0060
# 4 -0.0018 0.0020 0.0003 29.4539 -0.0030 -0.0067
# 5 -0.0019 -0.0053 -0.0066 -0.0030 9.3044 -0.0001
# 6 -0.0035 -0.0017 -0.0060 -0.0067 -0.0001 33.6576
#
#
#
# Elastic Compliance Matrix: (Units=1/GPa)
#
#
# Indices 1 2 3 4 5 6 
#
# 1 0.006531 -0.000395 -0.000530 0.000000 0.000001 0.000001
# 2 -0.000395 0.009267 -0.004172 -0.000001 0.000002 0.000000
# 3 -0.000530 -0.004172 0.015688 0.000000 0.000009 0.000003
# 4 0.000000 -0.000001 0.000000 0.033951 0.000011 0.000007
# 5 0.000001 0.000002 0.000009 0.000011 0.107476 0.000000
# 6 0.000001 0.000000 0.000003 0.000007 0.000000 0.029711
#
#
# Mechanical properties :
#
#
# Convention : Reuss Voigt Hill
#
# Bulk Modulus (GPa) = 46.97047 50.31488 48.64267
# Shear Modulus (GPa) = 22.73575 34.43306 28.58441
#
# Velocity S-wave (km/s) = 2.97316 3.65891 3.33372
# Velocity P-wave (km/s) = 5.48165 6.11659 5.80781
#
# Compressibility (1/GPa) = 0.02128997
#
# Stress axis : x y z
#
# Youngs Moduli (GPa) = 153.10957 107.90885 63.74270
#
# Poissons Ratio (x) = 0.04266 0.03381
# Poissons Ratio (y) = 0.06053 0.26596
# Poissons Ratio (z) = 0.08122 0.45024
#
# Static dielectric constant tensor:
#      x y z
#    x 2.078570 0.000030 0.000020 
#    y 0.000030 2.231340 0.000000 
#    z 0.000020 0.000000 2.124800 
# 
# From -- ./inp_files/742.got.cif
#   From: 2010.05.17/outbox.cif.g08.bks.cpg/sg43_1_cif.got.tgz:742.got - 2010.06.03 19:21:55.
