data_PCOD9372952
_publ_section_title
;
Structure prediction by ZEFSAII (Michael W. Deem and Ramdas Pophale) SiO2 
 PCOD9372952
Probable space group: F D D 2
;
_chemical_formula_sum "Si O2"
_cell_formula_units_Z 64
_cell_length_a 17.839236
_cell_length_b 25.367511
_cell_length_c 4.602134
_cell_angle_alpha 90.000000
_cell_angle_beta 90.000000
_cell_angle_gamma 90.000000
_cell_volume 2082.635985
_symmetry_space_group_name_H-M "F D D 2"
_symmetry_group_IT_number 43
_symmetry_cell_setting 'orthorhombic'
loop_
_space_group_symop_operation_xyz
x,y,z
-x,-y,z
1/4-x,1/4+y,1/4+z
1/4+x,1/4-y,1/4+z
x,1/2+y,1/2+z
-x,1/2-y,1/2+z
1/4-x,3/4+y,3/4+z
1/4+x,3/4-y,3/4+z
1/2+x,y,1/2+z
1/2-x,-y,1/2+z
3/4-x,1/4+y,3/4+z
3/4+x,1/4-y,3/4+z
1/2+x,1/2+y,z
1/2-x,1/2-y,z
3/4-x,3/4+y,1/4+z
3/4+x,3/4-y,1/4+z
loop_
_atom_site_type_symbol
_atom_site_label
_atom_site_fract_x
_atom_site_fract_y
_atom_site_fract_z
Si Si1 0.508726 0.673611 0.102230
Si Si2 0.121713 0.314407 0.024577
Si Si3 0.843476 0.515575 0.813867
Si Si4 0.028785 0.915216 0.479050
O O1 0.433273 0.705299 0.246825
O O2 0.572313 0.687670 0.329490
O O3 0.490230 0.613258 0.169326
O O4 0.530396 0.704278 0.812822
O O5 0.172068 0.216904 0.709192
O O6 0.200974 0.326588 0.888030
O O7 0.120942 0.274985 0.288342
O O8 0.918380 0.631103 0.113479
#
# Coordination Sequence:
#
# PCOD9372952 Si02
#       4
#    16  16  16  16
#     4   8  17  26  47  66  91 122 148 191 232 260
#     4   8  17  22  52  64  89 118 153 189 225 258
#     4   9  16  28  46  68  93 115 156 188 226 276
#     4   9  13  29  43  73  84 117 159 188 211 281
#
# _framework density 30.730287000000001
#
# number of rings (size 3 to 8) (size 9 to 14) (size 15 to 20)
#    3.000    0.000    2.500    0.750    0.000    0.000 
#    0.000    0.000   11.000    0.000   13.000    0.000 
#    0.000    0.000    0.000    0.000    0.000    0.000 
#
# Total GULP energy -89447.523121 kJ/mol
# GULP energy per Si atom -5590.470195 kJ/mol
# Density = 3.066034 g / cm^3
# Si number density = 30.730287 Si / 1000 Ang^3
#
#
#
# Elastic Constant Matrix: (Units=GPa)
#
#
# Indices 1 2 3 4 5 6 
#
# 1 263.1197 96.5247 85.6756 0.0153 -0.0917 -0.0354
# 2 96.5247 200.3831 84.4356 0.0255 0.0076 -0.0028
# 3 85.6756 84.4356 241.0697 0.0399 -0.1358 -0.0605
# 4 0.0153 0.0255 0.0399 59.2320 -0.0069 -0.0059
# 5 -0.0917 0.0076 -0.1358 -0.0069 58.4493 0.0202
# 6 -0.0354 -0.0028 -0.0605 -0.0059 0.0202 74.0556
#
#
#
# Elastic Compliance Matrix: (Units=1/GPa)
#
#
# Indices 1 2 3 4 5 6 
#
# 1 0.004836 -0.001883 -0.001059 0.000000 0.000005 0.000001
# 2 -0.001883 0.006588 -0.001638 -0.000001 -0.000008 -0.000002
# 3 -0.001059 -0.001638 0.005098 -0.000002 0.000010 0.000004
# 4 0.000000 -0.000001 -0.000002 0.016883 0.000002 0.000001
# 5 0.000005 -0.000008 0.000010 0.000002 0.017109 -0.000005
# 6 0.000001 -0.000002 0.000004 0.000001 -0.000005 0.013503
#
#
# Mechanical properties :
#
#
# Convention : Reuss Voigt Hill
#
# Bulk Modulus (GPa) = 135.84477 137.53827 136.69152
# Shear Modulus (GPa) = 66.10900 67.54316 66.82608
#
# Velocity S-wave (km/s) = 4.64321 4.69330 4.66832
# Velocity P-wave (km/s) = 8.54677 8.61529 8.58110
#
# Compressibility (1/GPa) = 0.00736134
#
# Stress axis : x y z
#
# Youngs Moduli (GPa) = 206.76787 151.79322 196.14148
#
# Poissons Ratio (x) = 0.28588 0.20775
# Poissons Ratio (y) = 0.38942 0.32130
# Poissons Ratio (z) = 0.21900 0.24865
#
# Static dielectric constant tensor:
#      x y z
#    x 2.511370 0.000080 0.000160 
#    y 0.000080 2.459770 -0.000140 
#    z 0.000160 -0.000140 2.431670 
# 
# From -- ./inp_files/499.got.cif
#   From: 2010.05.17/outbox.cif.g08.bks.cpg/sg43_1_cif.got.tgz:499.got - 2010.06.03 19:21:55.
