data_PCOD9372784
_publ_section_title
;
Structure prediction by ZEFSAII (Michael W. Deem and Ramdas Pophale) SiO2 
 PCOD9372784
Probable space group: F D D 2
;
_chemical_formula_sum "Si O2"
_cell_formula_units_Z 80
_cell_length_a 16.572337
_cell_length_b 25.508716
_cell_length_c 7.264791
_cell_angle_alpha 90.000000
_cell_angle_beta 90.000000
_cell_angle_gamma 90.000000
_cell_volume 3071.110759
_symmetry_space_group_name_H-M "F D D 2"
_symmetry_group_IT_number 43
_symmetry_cell_setting 'orthorhombic'
loop_
_space_group_symop_operation_xyz
x,y,z
-x,-y,z
1/4-x,1/4+y,1/4+z
1/4+x,1/4-y,1/4+z
x,1/2+y,1/2+z
-x,1/2-y,1/2+z
1/4-x,3/4+y,3/4+z
1/4+x,3/4-y,3/4+z
1/2+x,y,1/2+z
1/2-x,-y,1/2+z
3/4-x,1/4+y,3/4+z
3/4+x,1/4-y,3/4+z
1/2+x,1/2+y,z
1/2-x,1/2-y,z
3/4-x,3/4+y,1/4+z
3/4+x,3/4-y,1/4+z
loop_
_atom_site_type_symbol
_atom_site_label
_atom_site_fract_x
_atom_site_fract_y
_atom_site_fract_z
Si Si1 0.912505 0.231019 0.147660
Si Si2 0.288435 0.557042 0.685772
Si Si3 0.432069 0.113124 0.285248
Si Si4 0.165146 0.695561 0.882147
Si Si5 0.512329 0.359700 0.380631
O O1 0.922057 0.180522 0.283967
O O2 0.906722 0.279693 0.287289
O O3 0.006422 0.235734 0.077289
O O4 0.852577 0.249252 0.983515
O O5 0.338562 0.607205 0.742939
O O6 0.203091 0.583822 0.641528
O O7 0.445373 0.063001 0.421022
O O8 0.474919 0.122270 0.090878
O O9 0.075705 0.667590 0.876017
O O10 0.223554 0.661309 0.009840
#
# Coordination Sequence:
#
# PCOD9372784 Si02
#       5
#    16  16  16  16  16
#     4  12  22  42  69 105 132 188 254 288 352 458
#     4  12  22  40  74 101 132 185 238 290 358 438
#     4  12  22  42  68 102 142 178 236 296 364 422
#     4  12  24  42  70 103 140 186 241 303 361 432
#     4  12  24  42  70 103 140 186 241 303 361 432
#
# _framework density 26.049208
#
# number of rings (size 3 to 8) (size 9 to 14) (size 15 to 20)
#    0.000    0.000   10.000    0.000    0.000    0.000 
#    0.000    1.000    0.000    8.400    0.000    0.000 
#    0.000    0.000    0.000    0.000    0.000    0.000 
#
# Total GULP energy -111363.063377 kJ/mol
# GULP energy per Si atom -5568.153169 kJ/mol
# Density = 2.598992 g / cm^3
# Si number density = 26.049208 Si / 1000 Ang^3
#
#
#
# Elastic Constant Matrix: (Units=GPa)
#
#
# Indices 1 2 3 4 5 6 
#
# 1 33.4742 41.0093 -1.0941 0.0000 0.0000 0.0000
# 2 41.0093 99.0797 20.9442 0.0000 0.0000 0.0000
# 3 -1.0941 20.9442 152.3015 0.0000 -0.0001 0.0000
# 4 0.0000 0.0000 0.0000 25.6373 0.0000 0.0000
# 5 0.0000 0.0000 -0.0001 0.0000 14.7482 0.0000
# 6 0.0000 0.0000 0.0000 0.0000 0.0000 45.2544
#
#
#
# Elastic Compliance Matrix: (Units=1/GPa)
#
#
# Indices 1 2 3 4 5 6 
#
# 1 0.063068 -0.026984 0.004164 0.000000 0.000000 0.000000
# 2 -0.026984 0.021940 -0.003211 0.000000 0.000000 0.000000
# 3 0.004164 -0.003211 0.007037 0.000000 0.000000 0.000000
# 4 0.000000 0.000000 0.000000 0.039006 0.000000 0.000000
# 5 0.000000 0.000000 0.000000 0.000000 0.067805 0.000000
# 6 0.000000 0.000000 0.000000 0.000000 0.000000 0.022097
#
#
# Mechanical properties :
#
#
# Convention : Reuss Voigt Hill
#
# Bulk Modulus (GPa) = 25.01045 45.17492 35.09269
# Shear Modulus (GPa) = 17.46147 32.06104 24.76126
#
# Velocity S-wave (km/s) = 2.59187 3.51206 3.08646
# Velocity P-wave (km/s) = 4.31036 5.81601 5.11884
#
# Compressibility (1/GPa) = 0.03998328
#
# Stress axis : x y z
#
# Youngs Moduli (GPa) = 15.85585 45.57786 142.09763
#
# Poissons Ratio (x) = 1.22988 -0.59168
# Poissons Ratio (y) = 0.42786 0.45628
# Poissons Ratio (z) = -0.06602 0.14635
#
# Static dielectric constant tensor:
#      x y z
#    x 2.066190 0.000000 0.000000 
#    y 0.000000 2.068960 0.000000 
#    z 0.000000 0.000000 2.302620 
# 
# From -- ./inp_files/2806.got.cif
#   From: 2010.05.17/outbox.cif.g08.bks.cpg/sg43_2_cif.got.tgz:2806.got - 2010.06.03 19:21:55.
