data_PCOD9372121
_publ_section_title
;
Structure prediction by ZEFSAII (Michael W. Deem and Ramdas Pophale) SiO2 
 PCOD9372121
Probable space group: F D D 2
;
_chemical_formula_sum "Si O2"
_cell_formula_units_Z 104
_cell_length_a 20.171785
_cell_length_b 12.842229
_cell_length_c 18.528536
_cell_angle_alpha 90.000000
_cell_angle_beta 90.000000
_cell_angle_gamma 90.000000
_cell_volume 4799.829893
_symmetry_space_group_name_H-M "F D D 2"
_symmetry_group_IT_number 43
_symmetry_cell_setting 'orthorhombic'
loop_
_space_group_symop_operation_xyz
x,y,z
-x,-y,z
1/4-x,1/4+y,1/4+z
1/4+x,1/4-y,1/4+z
x,1/2+y,1/2+z
-x,1/2-y,1/2+z
1/4-x,3/4+y,3/4+z
1/4+x,3/4-y,3/4+z
1/2+x,y,1/2+z
1/2-x,-y,1/2+z
3/4-x,1/4+y,3/4+z
3/4+x,1/4-y,3/4+z
1/2+x,1/2+y,z
1/2-x,1/2-y,z
3/4-x,3/4+y,1/4+z
3/4+x,3/4-y,1/4+z
loop_
_atom_site_type_symbol
_atom_site_label
_atom_site_fract_x
_atom_site_fract_y
_atom_site_fract_z
Si Si1 0.750000 0.750000 0.944850
Si Si2 0.302464 0.176284 0.677430
Si Si3 0.503495 0.758149 0.355390
Si Si4 0.357234 0.201979 0.827009
Si Si5 0.686547 0.678483 0.198955
Si Si6 0.207872 0.017619 0.954247
Si Si7 0.426479 0.214055 0.590607
O O1 0.687617 0.773175 0.894659
O O2 0.770248 0.863563 0.975708
O O3 0.250000 0.250000 0.637498
O O4 0.264227 0.067811 0.673992
O O5 0.320774 0.230914 0.752751
O O6 0.373260 0.158247 0.641756
O O7 0.425616 0.761765 0.338731
O O8 0.543963 0.859089 0.379683
O O9 0.530497 0.709554 0.280594
O O10 0.357446 0.076088 0.823500
O O11 0.750000 0.750000 0.211822
O O12 0.618873 0.743927 0.186663
O O13 0.682280 0.604167 0.269044
O O14 0.256579 0.983884 0.888227
#
# Coordination Sequence:
#
# PCOD9372121 Si02
#       7
#     8  16  16  16  16  16  16
#     4  10  24  46  68  96 140 192 238 298 348 424
#     4  12  22  40  69 102 136 180 243 302 359 423
#     4  12  25  42  71 103 145 185 240 302 364 434
#     4  11  22  43  65 100 133 182 243 297 351 424
#     4  12  28  47  68 108 147 195 237 298 375 440
#     4  11  26  46  70 103 143 190 243 296 361 433
#     4  11  24  43  70 100 139 183 239 295 361 427
#
# _framework density 21.667435000000001
#
# number of rings (size 3 to 8) (size 9 to 14) (size 15 to 20)
#    0.000    0.615    6.923    0.923    3.231    0.000 
#    0.000    2.308    0.000    0.000    0.000    0.000 
#    0.000    0.000    0.000    0.000    0.000    0.000 
#
# Total GULP energy -144857.983687 kJ/mol
# GULP energy per Si atom -5571.460911 kJ/mol
# Density = 2.161812 g / cm^3
# Si number density = 21.667435 Si / 1000 Ang^3
#
#
#
# Elastic Constant Matrix: (Units=GPa)
#
#
# Indices 1 2 3 4 5 6 
#
# 1 171.9384 30.8110 46.1269 0.0000 0.0000 0.0000
# 2 30.8110 50.2515 11.5536 0.0000 0.0000 0.0000
# 3 46.1269 11.5536 90.8243 0.0000 0.0000 0.0000
# 4 0.0000 0.0000 0.0000 21.2637 0.0000 0.0000
# 5 0.0000 0.0000 0.0000 0.0000 30.9710 0.0000
# 6 0.0000 0.0000 0.0000 0.0000 0.0000 26.0678
#
#
#
# Elastic Compliance Matrix: (Units=1/GPa)
#
#
# Indices 1 2 3 4 5 6 
#
# 1 0.007366 -0.003766 -0.003262 0.000000 0.000000 0.000000
# 2 -0.003766 0.022425 -0.000940 0.000000 0.000000 0.000000
# 3 -0.003262 -0.000940 0.012786 0.000000 0.000000 0.000000
# 4 0.000000 0.000000 0.000000 0.047029 0.000000 0.000000
# 5 0.000000 0.000000 0.000000 0.000000 0.032288 0.000000
# 6 0.000000 0.000000 0.000000 0.000000 0.000000 0.038361
#
#
# Mechanical properties :
#
#
# Convention : Reuss Voigt Hill
#
# Bulk Modulus (GPa) = 37.53540 54.44413 45.98977
# Shear Modulus (GPa) = 27.01639 30.62867 28.82253
#
# Velocity S-wave (km/s) = 3.53493 3.76384 3.65118
# Velocity P-wave (km/s) = 5.83284 6.63855 6.24869
#
# Compressibility (1/GPa) = 0.02664152
#
# Stress axis : x y z
#
# Youngs Moduli (GPa) = 135.75790 44.59249 78.20786
#
# Poissons Ratio (x) = 0.16795 0.25510
# Poissons Ratio (y) = 0.51132 0.07350
# Poissons Ratio (z) = 0.44283 0.04191
#
# Static dielectric constant tensor:
#      x y z
#    x 1.728180 0.000000 0.000000 
#    y 0.000000 1.925360 0.000000 
#    z 0.000000 0.000000 1.839760 
# 
# From -- ./inp_files/18004.got.cif
#   From: 2010.05.17/outbox.cif.g08.bks.cpg/sg43_10_cif.got.tgz:18004.got - 2010.06.03 19:21:55.
