data_PCOD9372107
_publ_section_title
;
Structure prediction by ZEFSAII (Michael W. Deem and Ramdas Pophale) SiO2 
 PCOD9372107
Probable space group: F D D 2
;
_chemical_formula_sum "Si O2"
_cell_formula_units_Z 80
_cell_length_a 17.016609
_cell_length_b 8.230569
_cell_length_c 26.432520
_cell_angle_alpha 90.000000
_cell_angle_beta 90.000000
_cell_angle_gamma 90.000000
_cell_volume 3702.042921
_symmetry_space_group_name_H-M "F D D 2"
_symmetry_group_IT_number 43
_symmetry_cell_setting 'orthorhombic'
loop_
_space_group_symop_operation_xyz
x,y,z
-x,-y,z
1/4-x,1/4+y,1/4+z
1/4+x,1/4-y,1/4+z
x,1/2+y,1/2+z
-x,1/2-y,1/2+z
1/4-x,3/4+y,3/4+z
1/4+x,3/4-y,3/4+z
1/2+x,y,1/2+z
1/2-x,-y,1/2+z
3/4-x,1/4+y,3/4+z
3/4+x,1/4-y,3/4+z
1/2+x,1/2+y,z
1/2-x,1/2-y,z
3/4-x,3/4+y,1/4+z
3/4+x,3/4-y,1/4+z
loop_
_atom_site_type_symbol
_atom_site_label
_atom_site_fract_x
_atom_site_fract_y
_atom_site_fract_z
Si Si1 0.335515 0.958581 0.922610
Si Si2 0.138046 0.972180 0.707569
Si Si3 0.500000 0.500000 0.452679
Si Si4 0.000000 0.000000 0.092088
Si Si5 0.915642 0.701764 0.301380
Si Si6 0.250000 0.750000 0.008155
Si Si7 0.500000 0.500000 0.888701
O O1 0.284030 0.890144 0.877782
O O2 0.337298 0.152584 0.924270
O O3 0.429080 0.919524 0.920793
O O4 0.302275 0.867783 0.972427
O O5 0.080662 0.894964 0.748615
O O6 0.186222 0.841665 0.674290
O O7 0.203053 0.102989 0.729807
O O8 0.072931 0.053824 0.059797
O O9 0.957532 0.621622 0.349325
O O10 0.946674 0.882035 0.291430
#
# Coordination Sequence:
#
# PCOD9372107 Si02
#       7
#    16  16   8   8  16   8   8
#     4   9  22  45  72  98 139 196 235 302 372 434
#     4  10  24  45  74 100 153 186 246 303 371 436
#     4   8  20  43  74  96 136 195 237 292 383 416
#     4  11  25  40  72 107 136 182 257 291 369 436
#     4  12  28  45  71 113 140 198 252 304 373 454
#     4  11  26  45  77  96 156 185 248 310 370 440
#     4  12  27  46  73 109 152 202 242 311 376 448
#
# _framework density 21.609691000000002
#
# number of rings (size 3 to 8) (size 9 to 14) (size 15 to 20)
#    1.200    0.400    0.000    3.000   14.000    0.000 
#    3.600    0.000    0.000    0.000    0.000    0.000 
#    0.000    0.000    0.000    0.000    0.000    0.000 
#
# Total GULP energy -111505.688196 kJ/mol
# GULP energy per Si atom -5575.284410 kJ/mol
# Density = 2.156051 g / cm^3
# Si number density = 21.609691 Si / 1000 Ang^3
#
#
#
# Elastic Constant Matrix: (Units=GPa)
#
#
# Indices 1 2 3 4 5 6 
#
# 1 117.0937 33.8362 20.2763 0.0000 0.0000 0.0000
# 2 33.8362 121.6245 41.1246 0.0000 0.0000 0.0000
# 3 20.2763 41.1246 60.6596 0.0000 0.0000 0.0000
# 4 0.0000 0.0000 0.0000 -1.2446 0.0000 0.0000
# 5 0.0000 0.0000 0.0000 0.0000 24.8793 0.0000
# 6 0.0000 0.0000 0.0000 0.0000 0.0000 55.9752
#
#
#
# Elastic Compliance Matrix: (Units=1/GPa)
#
#
# Indices 1 2 3 4 5 6 
#
# 1 0.009433 -0.002022 -0.001783 0.000000 0.000000 0.000000
# 2 -0.002022 0.011101 -0.006850 0.000000 0.000000 0.000000
# 3 -0.001783 -0.006850 0.021725 0.000000 0.000000 0.000000
# 4 0.000000 0.000000 0.000000 -0.803477 0.000000 0.000000
# 5 0.000000 0.000000 0.000000 0.000000 0.040194 0.000000
# 6 0.000000 0.000000 0.000000 0.000000 0.000000 0.017865
#
#
# Mechanical properties :
#
#
# Convention : Reuss Voigt Hill
#
# Bulk Modulus (GPa) = 47.73124 54.42800 51.07962
# Shear Modulus (GPa) = -7.40887 29.53136 11.06125
#
# Velocity S-wave (km/s) = -1.85363 3.70074 2.26490
# Velocity P-wave (km/s) = 4.18982 6.59562 5.52525
#
# Compressibility (1/GPa) = 0.02095064
#
# Stress axis : x y z
#
# Youngs Moduli (GPa) = 106.01077 90.08517 46.02926
#
# Poissons Ratio (x) = 0.18211 0.08205
# Poissons Ratio (y) = 0.21431 0.31530
# Poissons Ratio (z) = 0.18897 0.61708
#
# Static dielectric constant tensor:
#      x y z
#    x 1.832320 0.000000 0.000000 
#    y 0.000000 1.872840 0.000000 
#    z 0.000000 0.000000 1.782840 
# 
# From -- ./inp_files/25917.got.cif
#   From: 2010.05.17/outbox.cif.g08.bks.cpg/sg43_13_cif.got.tgz:25917.got - 2010.06.03 19:21:55.
