data_PCOD9372287
_publ_section_title
;
Structure prediction by ZEFSAII (Michael W. Deem and Ramdas Pophale) SiO2 
 PCOD9372287
Probable space group: F D D 2
;
_chemical_formula_sum "Si O2"
_cell_formula_units_Z 64
_cell_length_a 11.214984
_cell_length_b 14.619304
_cell_length_c 14.604004
_cell_angle_alpha 90.000000
_cell_angle_beta 90.000000
_cell_angle_gamma 90.000000
_cell_volume 2394.403279
_symmetry_space_group_name_H-M "F D D 2"
_symmetry_group_IT_number 43
_symmetry_cell_setting 'orthorhombic'
loop_
_space_group_symop_operation_xyz
x,y,z
-x,-y,z
1/4-x,1/4+y,1/4+z
1/4+x,1/4-y,1/4+z
x,1/2+y,1/2+z
-x,1/2-y,1/2+z
1/4-x,3/4+y,3/4+z
1/4+x,3/4-y,3/4+z
1/2+x,y,1/2+z
1/2-x,-y,1/2+z
3/4-x,1/4+y,3/4+z
3/4+x,1/4-y,3/4+z
1/2+x,1/2+y,z
1/2-x,1/2-y,z
3/4-x,3/4+y,1/4+z
3/4+x,3/4-y,1/4+z
loop_
_atom_site_type_symbol
_atom_site_label
_atom_site_fract_x
_atom_site_fract_y
_atom_site_fract_z
Si Si1 0.960892 0.286238 0.108020
Si Si2 0.320081 0.457561 0.533931
Si Si3 0.456400 0.909093 0.335063
Si Si4 0.137749 0.517314 0.662237
O O1 0.811163 0.042583 0.078377
O O2 0.889399 0.381547 0.091901
O O3 0.093269 0.309372 0.144335
O O4 0.962901 0.251967 0.003706
O O5 0.349032 0.566557 0.542853
O O6 0.336551 0.456301 0.424840
O O7 0.573079 0.869179 0.383969
O O8 0.500000 0.000000 0.282295
O O9 0.000000 0.500000 0.681004
#
# Coordination Sequence:
#
# PCOD9372287 Si02
#       4
#    16  16  16  16
#     4  12  25  52  86 120 166 222 280 348 421 511
#     4  10  27  47  89 114 168 215 286 334 422 505
#     4  10  26  48  80 114 163 210 275 332 421 494
#     4  10  27  50  82 124 165 212 278 349 427 490
#
# _framework density 26.728997
#
# number of rings (size 3 to 8) (size 9 to 14) (size 15 to 20)
#    1.500    0.000    0.000    2.250    7.000    5.000 
#    0.000    0.000    0.000    0.000    0.000    0.000 
#    0.000    0.000    0.000    0.000    0.000    0.000 
#
# Total GULP energy -89114.796391 kJ/mol
# GULP energy per Si atom -5569.674774 kJ/mol
# Density = 2.666816 g / cm^3
# Si number density = 26.728997 Si / 1000 Ang^3
#
#
#
# Elastic Constant Matrix: (Units=GPa)
#
#
# Indices 1 2 3 4 5 6 
#
# 1 127.2998 34.3161 18.2477 0.0000 0.0000 0.0000
# 2 34.3161 158.5156 41.9945 0.0000 0.0000 0.0000
# 3 18.2477 41.9945 132.2424 0.0000 0.0000 0.0000
# 4 0.0000 0.0000 0.0000 44.1660 0.0000 0.0000
# 5 0.0000 0.0000 0.0000 0.0000 23.0677 0.0000
# 6 0.0000 0.0000 0.0000 0.0000 0.0000 37.4939
#
#
#
# Elastic Compliance Matrix: (Units=1/GPa)
#
#
# Indices 1 2 3 4 5 6 
#
# 1 0.008391 -0.001648 -0.000634 0.000000 0.000000 0.000000
# 2 -0.001648 0.007212 -0.002063 0.000000 0.000000 0.000000
# 3 -0.000634 -0.002063 0.008304 0.000000 0.000000 0.000000
# 4 0.000000 0.000000 0.000000 0.022642 0.000000 0.000000
# 5 0.000000 0.000000 0.000000 0.000000 0.043351 0.000000
# 6 0.000000 0.000000 0.000000 0.000000 0.000000 0.026671
#
#
# Mechanical properties :
#
#
# Convention : Reuss Voigt Hill
#
# Bulk Modulus (GPa) = 65.71989 67.46382 66.59185
# Shear Modulus (GPa) = 38.36311 42.51216 40.43763
#
# Velocity S-wave (km/s) = 3.79259 3.99242 3.89379
# Velocity P-wave (km/s) = 6.61961 6.82256 6.72185
#
# Compressibility (1/GPa) = 0.01521609
#
# Stress axis : x y z
#
# Youngs Moduli (GPa) = 119.17863 138.66087 120.41763
#
# Poissons Ratio (x) = 0.22857 0.07639
# Poissons Ratio (y) = 0.19646 0.24839
# Poissons Ratio (z) = 0.07560 0.28602
#
# Static dielectric constant tensor:
#      x y z
#    x 2.078400 0.000000 0.000000 
#    y 0.000000 2.145340 0.000000 
#    z 0.000000 0.000000 2.105340 
# 
# From -- ./inp_files/20793.got.cif
#   From: 2010.05.17/outbox.cif.g08.bks.cpg/sg43_11_cif.got.tgz:20793.got - 2010.06.03 19:21:55.
