data_PCOD9372891
_publ_section_title
;
Structure prediction by ZEFSAII (Michael W. Deem and Ramdas Pophale) SiO2 
 PCOD9372891
Probable space group: F D D 2
;
_chemical_formula_sum "Si O2"
_cell_formula_units_Z 56
_cell_length_a 18.106369
_cell_length_b 6.402951
_cell_length_c 20.267692
_cell_angle_alpha 90.000000
_cell_angle_beta 90.000000
_cell_angle_gamma 90.000000
_cell_volume 2349.718526
_symmetry_space_group_name_H-M "F D D 2"
_symmetry_group_IT_number 43
_symmetry_cell_setting 'orthorhombic'
loop_
_space_group_symop_operation_xyz
x,y,z
-x,-y,z
1/4-x,1/4+y,1/4+z
1/4+x,1/4-y,1/4+z
x,1/2+y,1/2+z
-x,1/2-y,1/2+z
1/4-x,3/4+y,3/4+z
1/4+x,3/4-y,3/4+z
1/2+x,y,1/2+z
1/2-x,-y,1/2+z
3/4-x,1/4+y,3/4+z
3/4+x,1/4-y,3/4+z
1/2+x,1/2+y,z
1/2-x,1/2-y,z
3/4-x,3/4+y,1/4+z
3/4+x,3/4-y,1/4+z
loop_
_atom_site_type_symbol
_atom_site_label
_atom_site_fract_x
_atom_site_fract_y
_atom_site_fract_z
Si Si1 0.500000 0.000000 0.867131
Si Si2 0.832354 0.322699 0.475020
Si Si3 0.560786 0.819068 0.473582
Si Si4 0.611995 0.513958 0.572356
O O1 0.546923 0.159577 0.913360
O O2 0.443600 0.135588 0.825208
O O3 0.750000 0.250000 0.491561
O O4 0.860847 0.560632 0.476900
O O5 0.843651 0.269229 0.398295
O O6 0.882658 0.188293 0.525525
O O7 0.557821 0.680828 0.539140
O O8 0.500000 0.000000 0.468262
#
# Coordination Sequence:
#
# PCOD9372891 Si02
#       4
#     8  16  16  16
#     4  12  26  52  78 112 158 204 266 332 404 466
#     4  12  30  46  78 115 155 203 266 323 398 478
#     4  12  26  49  79 108 157 206 259 333 399 474
#     4  12  27  49  74 114 153 201 263 322 398 476
#
# _framework density 23.832640999999999
#
# number of rings (size 3 to 8) (size 9 to 14) (size 15 to 20)
#    0.000    0.000    5.714    1.714   14.000    0.000 
#    2.571    0.000    0.000    0.000    0.000    0.000 
#    0.000    0.000    0.000    0.000    0.000    0.000 
#
# Total GULP energy -78367.112191 kJ/mol
# GULP energy per Si atom -5597.650871 kJ/mol
# Density = 2.377840 g / cm^3
# Si number density = 23.832641 Si / 1000 Ang^3
#
#
#
# Elastic Constant Matrix: (Units=GPa)
#
#
# Indices 1 2 3 4 5 6 
#
# 1 98.5686 43.9264 13.6553 0.0000 0.0000 0.0000
# 2 43.9264 145.1772 63.1355 0.0000 0.0000 0.0000
# 3 13.6553 63.1355 109.3959 0.0000 0.0000 0.0000
# 4 0.0000 0.0000 0.0000 37.9068 0.0000 0.0000
# 5 0.0000 0.0000 0.0000 0.0000 31.0709 0.0000
# 6 0.0000 0.0000 0.0000 0.0000 0.0000 53.4808
#
#
#
# Elastic Compliance Matrix: (Units=1/GPa)
#
#
# Indices 1 2 3 4 5 6 
#
# 1 0.011776 -0.003904 0.000783 0.000000 0.000000 0.000000
# 2 -0.003904 0.010490 -0.005567 0.000000 0.000000 0.000000
# 3 0.000783 -0.005567 0.012256 0.000000 0.000000 0.000000
# 4 0.000000 0.000000 0.000000 0.026380 0.000000 0.000000
# 5 0.000000 0.000000 0.000000 0.000000 0.032184 0.000000
# 6 0.000000 0.000000 0.000000 0.000000 0.000000 0.018698
#
#
# Mechanical properties :
#
#
# Convention : Reuss Voigt Hill
#
# Bulk Modulus (GPa) = 58.31753 66.06399 62.19076
# Shear Modulus (GPa) = 37.07072 39.98668 38.52870
#
# Velocity S-wave (km/s) = 3.94821 4.10055 4.02510
# Velocity P-wave (km/s) = 6.73106 7.08516 6.91038
#
# Compressibility (1/GPa) = 0.01714750
#
# Stress axis : x y z
#
# Youngs Moduli (GPa) = 84.91563 95.32648 81.59121
#
# Poissons Ratio (x) = 0.37212 -0.06388
# Poissons Ratio (y) = 0.33148 0.45421
# Poissons Ratio (z) = -0.06648 0.53068
#
# Static dielectric constant tensor:
#      x y z
#    x 2.023920 0.000000 0.000000 
#    y 0.000000 1.870290 0.000000 
#    z 0.000000 0.000000 1.868480 
# 
# From -- ./inp_files/15518.got.cif
#   From: 2010.05.17/outbox.cif.g08.bks.cpg/sg43_8_cif.got.tgz:15518.got - 2010.06.03 19:21:55.
