data_PCOD9372284
_publ_section_title
;
Structure prediction by ZEFSAII (Michael W. Deem and Ramdas Pophale) SiO2 
 PCOD9372284
Probable space group: F D D 2
;
_chemical_formula_sum "Si O2"
_cell_formula_units_Z 56
_cell_length_a 13.080178
_cell_length_b 14.242762
_cell_length_c 12.463991
_cell_angle_alpha 90.000000
_cell_angle_beta 90.000000
_cell_angle_gamma 90.000000
_cell_volume 2322.014877
_symmetry_space_group_name_H-M "F D D 2"
_symmetry_group_IT_number 43
_symmetry_cell_setting 'orthorhombic'
loop_
_space_group_symop_operation_xyz
x,y,z
-x,-y,z
1/4-x,1/4+y,1/4+z
1/4+x,1/4-y,1/4+z
x,1/2+y,1/2+z
-x,1/2-y,1/2+z
1/4-x,3/4+y,3/4+z
1/4+x,3/4-y,3/4+z
1/2+x,y,1/2+z
1/2-x,-y,1/2+z
3/4-x,1/4+y,3/4+z
3/4+x,1/4-y,3/4+z
1/2+x,1/2+y,z
1/2-x,1/2-y,z
3/4-x,3/4+y,1/4+z
3/4+x,3/4-y,1/4+z
loop_
_atom_site_type_symbol
_atom_site_label
_atom_site_fract_x
_atom_site_fract_y
_atom_site_fract_z
Si Si1 0.225129 0.150071 0.795230
Si Si2 0.911338 0.924663 0.980023
Si Si3 0.673832 0.025288 0.709079
Si Si4 0.750000 0.250000 0.099765
O O1 0.250000 0.250000 0.852115
O O2 0.157110 0.092364 0.876181
O O3 0.179349 0.191871 0.683782
O O4 0.311466 0.083082 0.743511
O O5 0.975746 0.829495 0.996889
O O6 0.846965 0.955082 0.084215
O O7 0.000000 0.000000 0.960085
O O8 0.573319 0.058660 0.772859
#
# Coordination Sequence:
#
# PCOD9372284 Si02
#       4
#    16  16  16   8
#     4  10  28  48  81 110 157 205 264 322 404 470
#     4  12  27  49  80 120 157 203 268 335 395 476
#     4  12  26  49  81 115 157 206 270 324 403 469
#     4  10  26  48  76 108 154 208 256 316 400 482
#
# _framework density 24.116987000000002
#
# number of rings (size 3 to 8) (size 9 to 14) (size 15 to 20)
#    0.857    0.000    1.429    3.429    8.000    1.143 
#    0.000    0.000    0.000    0.000    0.000    0.000 
#    0.000    0.000    0.000    0.000    0.000    0.000 
#
# Total GULP energy -78107.252515 kJ/mol
# GULP energy per Si atom -5579.089465 kJ/mol
# Density = 2.406210 g / cm^3
# Si number density = 24.116987 Si / 1000 Ang^3
#
#
#
# Elastic Constant Matrix: (Units=GPa)
#
#
# Indices 1 2 3 4 5 6 
#
# 1 64.0172 39.3847 48.2284 0.0000 0.0000 0.0000
# 2 39.3847 125.7654 64.3200 0.0000 0.0000 0.0000
# 3 48.2284 64.3200 149.5463 0.0000 0.0000 0.0000
# 4 0.0000 0.0000 0.0000 18.2187 0.0000 0.0000
# 5 0.0000 0.0000 0.0000 0.0000 30.2919 0.0000
# 6 0.0000 0.0000 0.0000 0.0000 0.0000 42.5969
#
#
#
# Elastic Compliance Matrix: (Units=1/GPa)
#
#
# Indices 1 2 3 4 5 6 
#
# 1 0.022261 -0.004230 -0.005360 0.000000 0.000000 0.000000
# 2 -0.004230 0.010997 -0.003366 0.000000 0.000000 0.000000
# 3 -0.005360 -0.003366 0.009863 0.000000 0.000000 0.000000
# 4 0.000000 0.000000 0.000000 0.054889 0.000000 0.000000
# 5 0.000000 0.000000 0.000000 0.000000 0.033012 0.000000
# 6 0.000000 0.000000 0.000000 0.000000 0.000000 0.023476
#
#
# Mechanical properties :
#
#
# Convention : Reuss Voigt Hill
#
# Bulk Modulus (GPa) = 58.10525 71.46613 64.78569
# Shear Modulus (GPa) = 26.86060 30.71456 28.78758
#
# Velocity S-wave (km/s) = 3.34093 3.57258 3.45869
# Velocity P-wave (km/s) = 6.24722 6.83485 6.54763
#
# Compressibility (1/GPa) = 0.01721015
#
# Stress axis : x y z
#
# Youngs Moduli (GPa) = 44.92128 90.93079 101.38863
#
# Poissons Ratio (x) = 0.38465 0.54342
# Poissons Ratio (y) = 0.19002 0.34125
# Poissons Ratio (z) = 0.24077 0.30605
#
# Static dielectric constant tensor:
#      x y z
#    x 1.929520 0.000000 0.000000 
#    y 0.000000 2.142330 0.000000 
#    z 0.000000 0.000000 1.870710 
# 
# From -- ./inp_files/5854.got.cif
#   From: 2010.05.17/outbox.cif.g08.bks.cpg/sg43_3_cif.got.tgz:5854.got - 2010.06.03 19:21:55.
