data_PCOD9372865
_publ_section_title
;
Structure prediction by ZEFSAII (Michael W. Deem and Ramdas Pophale) SiO2 
 PCOD9372865
Probable space group: F D D 2
;
_chemical_formula_sum "Si O2"
_cell_formula_units_Z 104
_cell_length_a 24.670053
_cell_length_b 21.294969
_cell_length_c 8.604253
_cell_angle_alpha 90.000000
_cell_angle_beta 90.000000
_cell_angle_gamma 90.000000
_cell_volume 4520.227224
_symmetry_space_group_name_H-M "F D D 2"
_symmetry_group_IT_number 43
_symmetry_cell_setting 'orthorhombic'
loop_
_space_group_symop_operation_xyz
x,y,z
-x,-y,z
1/4-x,1/4+y,1/4+z
1/4+x,1/4-y,1/4+z
x,1/2+y,1/2+z
-x,1/2-y,1/2+z
1/4-x,3/4+y,3/4+z
1/4+x,3/4-y,3/4+z
1/2+x,y,1/2+z
1/2-x,-y,1/2+z
3/4-x,1/4+y,3/4+z
3/4+x,1/4-y,3/4+z
1/2+x,1/2+y,z
1/2-x,1/2-y,z
3/4-x,3/4+y,1/4+z
3/4+x,3/4-y,1/4+z
loop_
_atom_site_type_symbol
_atom_site_label
_atom_site_fract_x
_atom_site_fract_y
_atom_site_fract_z
Si Si1 0.500000 0.000000 0.605590
Si Si2 0.418789 0.566123 0.323039
Si Si3 0.066589 0.107447 0.582943
Si Si4 0.354238 0.278798 0.913058
Si Si5 0.255080 0.086719 0.586363
Si Si6 0.476061 0.284443 0.008035
Si Si7 0.481402 0.601446 0.858359
O O1 0.447734 0.016514 0.710770
O O2 0.509430 0.058702 0.490783
O O3 0.355632 0.582473 0.313767
O O4 0.424546 0.551063 0.504604
O O5 0.449841 0.630416 0.284199
O O6 0.039864 0.106936 0.411946
O O7 0.019126 0.110645 0.708886
O O8 0.098661 0.046405 0.645365
O O9 0.417316 0.295942 0.929193
O O10 0.321127 0.312682 0.051587
O O11 0.279223 0.051084 0.438933
O O12 0.242162 0.036379 0.719682
O O13 0.521519 0.330012 0.933962
#
# Coordination Sequence:
#
# PCOD9372865 Si02
#       7
#     8  16  16  16  16  16  16
#     4  12  26  46  72 112 150 194 252 318 364 456
#     4  12  26  47  74 109 149 193 256 302 383 448
#     4  12  25  46  76 107 144 201 246 312 381 441
#     4  12  26  47  79 107 151 200 251 311 380 458
#     4  12  27  47  74 110 153 196 252 316 376 451
#     4  12  28  49  73 112 155 198 253 312 385 450
#     4  12  25  47  74 108 150 194 256 316 377 448
#
# _framework density 23.007693
#
# number of rings (size 3 to 8) (size 9 to 14) (size 15 to 20)
#    0.000    0.000    7.692    1.846    2.154    0.000 
#    2.769    0.000    0.000    0.000    0.000    0.000 
#    0.000    0.000    0.000    0.000    0.000    0.000 
#
# Total GULP energy -145181.131494 kJ/mol
# GULP energy per Si atom -5583.889673 kJ/mol
# Density = 2.295533 g / cm^3
# Si number density = 23.007693 Si / 1000 Ang^3
#
#
#
# Elastic Constant Matrix: (Units=GPa)
#
#
# Indices 1 2 3 4 5 6 
#
# 1 62.7368 18.5631 31.1491 -0.0001 0.0001 -0.0002
# 2 18.5631 86.3575 26.5751 0.0010 -0.0006 0.0000
# 3 31.1491 26.5751 119.4773 0.0027 -0.0016 0.0001
# 4 -0.0001 0.0010 0.0027 49.9692 -0.0011 0.0001
# 5 0.0001 -0.0006 -0.0016 -0.0011 25.4840 0.0000
# 6 -0.0002 0.0000 0.0001 0.0001 0.0000 28.8656
#
#
#
# Elastic Compliance Matrix: (Units=1/GPa)
#
#
# Indices 1 2 3 4 5 6 
#
# 1 0.018892 -0.002732 -0.004318 0.000000 0.000000 0.000000
# 2 -0.002732 0.012826 -0.002140 0.000000 0.000000 0.000000
# 3 -0.004318 -0.002140 0.009972 -0.000001 0.000001 0.000000
# 4 0.000000 0.000000 -0.000001 0.020012 0.000001 0.000000
# 5 0.000000 0.000000 0.000001 0.000001 0.039240 0.000000
# 6 0.000000 0.000000 0.000000 0.000000 0.000000 0.034643
#
#
# Mechanical properties :
#
#
# Convention : Reuss Voigt Hill
#
# Bulk Modulus (GPa) = 42.90285 46.79402 44.84843
# Shear Modulus (GPa) = 30.91476 33.68272 32.29874
#
# Velocity S-wave (km/s) = 3.66959 3.83035 3.75083
# Velocity P-wave (km/s) = 6.05328 6.32018 6.18817
#
# Compressibility (1/GPa) = 0.02330847
#
# Stress axis : x y z
#
# Youngs Moduli (GPa) = 52.93319 77.96796 100.28547
#
# Poissons Ratio (x) = 0.21303 0.43299
# Poissons Ratio (y) = 0.14463 0.21466
# Poissons Ratio (z) = 0.22854 0.16689
#
# Static dielectric constant tensor:
#      x y z
#    x 1.866220 0.000000 0.000000 
#    y 0.000000 1.901950 0.000000 
#    z 0.000000 0.000000 1.913310 
# 
# From -- ./inp_files/3351.got.cif
#   From: 2010.05.17/outbox.cif.g08.bks.cpg/sg43_2_cif.got.tgz:3351.got - 2010.06.03 19:21:55.
