data_PCOD9372155
_publ_section_title
;
Structure prediction by ZEFSAII (Michael W. Deem and Ramdas Pophale) SiO2 
 PCOD9372155
Probable space group: F D D 2
;
_chemical_formula_sum "Si O2"
_cell_formula_units_Z 80
_cell_length_a 10.046635
_cell_length_b 11.376393
_cell_length_c 26.871522
_cell_angle_alpha 90.000000
_cell_angle_beta 90.000000
_cell_angle_gamma 90.000000
_cell_volume 3071.266314
_symmetry_space_group_name_H-M "F D D 2"
_symmetry_group_IT_number 43
_symmetry_cell_setting 'orthorhombic'
loop_
_space_group_symop_operation_xyz
x,y,z
-x,-y,z
1/4-x,1/4+y,1/4+z
1/4+x,1/4-y,1/4+z
x,1/2+y,1/2+z
-x,1/2-y,1/2+z
1/4-x,3/4+y,3/4+z
1/4+x,3/4-y,3/4+z
1/2+x,y,1/2+z
1/2-x,-y,1/2+z
3/4-x,1/4+y,3/4+z
3/4+x,1/4-y,3/4+z
1/2+x,1/2+y,z
1/2-x,1/2-y,z
3/4-x,3/4+y,1/4+z
3/4+x,3/4-y,1/4+z
loop_
_atom_site_type_symbol
_atom_site_label
_atom_site_fract_x
_atom_site_fract_y
_atom_site_fract_z
Si Si1 0.572415 0.877236 0.155380
Si Si2 0.613645 0.689428 0.742847
Si Si3 0.150313 0.032558 0.139133
Si Si4 0.455281 0.369731 0.307744
Si Si5 0.816568 0.034189 0.808529
O O1 0.498081 0.817139 0.200915
O O2 0.728350 0.904794 0.167263
O O3 0.545061 0.802245 0.105748
O O4 0.500000 0.000000 0.147323
O O5 0.750000 0.750000 0.725314
O O6 0.555916 0.781155 0.782508
O O7 0.635612 0.558770 0.766669
O O8 0.145928 0.115109 0.089183
O O9 0.200040 0.910366 0.116195
O O10 0.000000 0.000000 0.157871
O O11 0.500000 0.500000 0.299168
O O12 0.303817 0.384648 0.289467
#
# Coordination Sequence:
#
# PCOD9372155 Si02
#       5
#    16  16  16  16  16
#     4  12  27  47  80 122 167 215 277 350 425 508
#     4  12  27  49  78 125 171 221 289 352 425 520
#     4  10  24  47  84 120 156 223 283 340 433 508
#     4  11  22  45  84 111 159 222 278 335 428 496
#     4  11  24  51  82 115 164 223 276 348 433 503
#
# _framework density 26.047885999999998
#
# number of rings (size 3 to 8) (size 9 to 14) (size 15 to 20)
#    0.000    0.800    4.000    2.400    2.800    4.000 
#    7.200    3.000    0.000    0.000    0.000    0.000 
#    0.000    0.000    0.000    0.000    0.000    0.000 
#
# Total GULP energy -111718.774416 kJ/mol
# GULP energy per Si atom -5585.938721 kJ/mol
# Density = 2.598860 g / cm^3
# Si number density = 26.047886 Si / 1000 Ang^3
#
#
#
# Elastic Constant Matrix: (Units=GPa)
#
#
# Indices 1 2 3 4 5 6 
#
# 1 203.6342 36.0206 45.2228 0.0000 0.0000 0.0000
# 2 36.0206 86.5457 -11.7071 0.0000 0.0000 0.0000
# 3 45.2228 -11.7071 57.2991 0.0000 0.0000 0.0000
# 4 0.0000 0.0000 0.0000 10.8091 0.0000 0.0000
# 5 0.0000 0.0000 0.0000 0.0000 14.4363 0.0000
# 6 0.0000 0.0000 0.0000 0.0000 0.0000 47.8646
#
#
#
# Elastic Compliance Matrix: (Units=1/GPa)
#
#
# Indices 1 2 3 4 5 6 
#
# 1 0.006964 -0.003745 -0.006261 0.000000 0.000000 0.000000
# 2 -0.003745 0.013897 0.005795 0.000000 0.000000 0.000000
# 3 -0.006261 0.005795 0.023578 0.000000 0.000000 0.000000
# 4 0.000000 0.000000 0.000000 0.092515 0.000000 0.000000
# 5 0.000000 0.000000 0.000000 0.000000 0.069270 0.000000
# 6 0.000000 0.000000 0.000000 0.000000 0.000000 0.020892
#
#
# Mechanical properties :
#
#
# Convention : Reuss Voigt Hill
#
# Bulk Modulus (GPa) = 27.76488 54.06129 40.91308
# Shear Modulus (GPa) = 20.19843 33.15152 26.67497
#
# Velocity S-wave (km/s) = 2.78768 3.57138 3.20359
# Velocity P-wave (km/s) = 4.58736 6.14866 5.42448
#
# Compressibility (1/GPa) = 0.03601672
#
# Stress axis : x y z
#
# Youngs Moduli (GPa) = 143.60025 71.95617 42.41229
#
# Poissons Ratio (x) = 0.26950 0.26556
# Poissons Ratio (y) = 0.53783 -0.24580
# Poissons Ratio (z) = 0.89913 -0.41702
#
# Static dielectric constant tensor:
#      x y z
#    x 6.857660 0.000000 0.000000 
#    y 0.000000 2.763560 0.000000 
#    z 0.000000 0.000000 2.060610 
# 
# From -- ./inp_files/28387.got.cif
#   From: 2010.05.17/outbox.cif.g08.bks.cpg/sg43_15_cif.got.tgz:28387.got - 2010.06.03 19:21:55.
