data_PCOD9372398
_publ_section_title
;
Structure prediction by ZEFSAII (Michael W. Deem and Ramdas Pophale) SiO2 
 PCOD9372398
Probable space group: F D D 2
;
_chemical_formula_sum "Si O2"
_cell_formula_units_Z 104
_cell_length_a 21.757433
_cell_length_b 9.136907
_cell_length_c 22.098108
_cell_angle_alpha 90.000000
_cell_angle_beta 90.000000
_cell_angle_gamma 90.000000
_cell_volume 4393.007564
_symmetry_space_group_name_H-M "F D D 2"
_symmetry_group_IT_number 43
_symmetry_cell_setting 'orthorhombic'
loop_
_space_group_symop_operation_xyz
x,y,z
-x,-y,z
1/4-x,1/4+y,1/4+z
1/4+x,1/4-y,1/4+z
x,1/2+y,1/2+z
-x,1/2-y,1/2+z
1/4-x,3/4+y,3/4+z
1/4+x,3/4-y,3/4+z
1/2+x,y,1/2+z
1/2-x,-y,1/2+z
3/4-x,1/4+y,3/4+z
3/4+x,1/4-y,3/4+z
1/2+x,1/2+y,z
1/2-x,1/2-y,z
3/4-x,3/4+y,1/4+z
3/4+x,3/4-y,1/4+z
loop_
_atom_site_type_symbol
_atom_site_label
_atom_site_fract_x
_atom_site_fract_y
_atom_site_fract_z
Si Si1 0.590471 0.493348 0.857080
Si Si2 0.953999 0.642086 0.573724
Si Si3 0.733865 0.079096 0.956045
Si Si4 0.438794 0.701420 0.511830
Si Si5 0.500000 0.000000 0.921680
Si Si6 0.999860 0.262535 0.332628
Si Si7 0.119579 0.252449 0.230646
O O1 0.649014 0.561284 0.823291
O O2 0.558367 0.366468 0.817151
O O3 0.543381 0.624043 0.866051
O O4 0.601820 0.421517 0.921497
O O5 0.893296 0.592339 0.538036
O O6 0.000000 0.500000 0.576420
O O7 0.947973 0.694555 0.643365
O O8 0.992817 0.755114 0.533552
O O9 0.750000 0.250000 0.959319
O O10 0.799378 0.996967 0.957705
O O11 0.711666 0.035605 0.023018
O O12 0.447503 0.568726 0.465309
O O13 0.403416 0.840661 0.483051
O O14 0.482146 0.869529 0.875842
#
# Coordination Sequence:
#
# PCOD9372398 Si02
#       7
#    16  16  16  16   8  16  16
#     4  11  23  44  72  97 134 201 242 280 383 466
#     4   9  21  39  67 103 131 187 247 301 366 452
#     4  11  22  42  67 106 146 178 248 309 367 442
#     4  11  22  43  68 101 138 184 249 302 374 447
#     4  12  24  44  66 106 148 178 248 322 360 432
#     4  11  24  42  67 100 141 188 238 298 370 445
#     4  11  21  42  73  97 142 195 242 309 375 446
#
# _framework density 23.673985999999999
#
# number of rings (size 3 to 8) (size 9 to 14) (size 15 to 20)
#    0.000    1.231    5.385    0.923    4.308    0.000 
#    8.308    3.077    0.000    0.000    0.000    0.000 
#    0.000    0.000    0.000    0.000    0.000    0.000 
#
# Total GULP energy -144927.937521 kJ/mol
# GULP energy per Si atom -5574.151443 kJ/mol
# Density = 2.362010 g / cm^3
# Si number density = 23.673986 Si / 1000 Ang^3
#
#
#
# Elastic Constant Matrix: (Units=GPa)
#
#
# Indices 1 2 3 4 5 6 
#
# 1 63.2399 20.3430 33.5910 0.0000 0.0000 0.0000
# 2 20.3430 87.5279 39.5031 0.0000 0.0000 0.0000
# 3 33.5910 39.5031 163.4005 0.0000 0.0000 0.0000
# 4 0.0000 0.0000 0.0000 22.9870 0.0000 0.0000
# 5 0.0000 0.0000 0.0000 0.0000 80.3941 0.0000
# 6 0.0000 0.0000 0.0000 0.0000 0.0000 19.5170
#
#
#
# Elastic Compliance Matrix: (Units=1/GPa)
#
#
# Indices 1 2 3 4 5 6 
#
# 1 0.018376 -0.002880 -0.003081 0.000000 0.000000 0.000000
# 2 -0.002880 0.013276 -0.002617 0.000000 0.000000 0.000000
# 3 -0.003081 -0.002617 0.007386 0.000000 0.000000 0.000000
# 4 0.000000 0.000000 0.000000 0.043503 0.000000 0.000000
# 5 0.000000 0.000000 0.000000 0.000000 0.012439 0.000000
# 6 0.000000 0.000000 0.000000 0.000000 0.000000 0.051237
#
#
# Mechanical properties :
#
#
# Convention : Reuss Voigt Hill
#
# Bulk Modulus (GPa) = 45.70401 55.67138 50.68769
# Shear Modulus (GPa) = 29.29667 39.29503 34.29585
#
# Velocity S-wave (km/s) = 3.52163 4.07853 3.81027
# Velocity P-wave (km/s) = 5.99027 6.76359 6.38864
#
# Compressibility (1/GPa) = 0.02187992
#
# Stress axis : x y z
#
# Youngs Moduli (GPa) = 54.41880 75.32606 135.38883
#
# Poissons Ratio (x) = 0.21696 0.41718
# Poissons Ratio (y) = 0.15674 0.35436
# Poissons Ratio (z) = 0.16768 0.19716
#
# Static dielectric constant tensor:
#      x y z
#    x 1.995290 0.000000 0.000000 
#    y 0.000000 1.866480 0.000000 
#    z 0.000000 0.000000 2.075850 
# 
# From -- ./inp_files/18849.got.cif
#   From: 2010.05.17/outbox.cif.g08.bks.cpg/sg43_10_cif.got.tgz:18849.got - 2010.06.03 19:21:55.
