data_PCOD9372014
_publ_section_title
;
Structure prediction by ZEFSAII (Michael W. Deem and Ramdas Pophale) SiO2 
 PCOD9372014
Probable space group: F D D 2
;
_chemical_formula_sum "Si O2"
_cell_formula_units_Z 104
_cell_length_a 26.561698
_cell_length_b 12.101871
_cell_length_c 16.541844
_cell_angle_alpha 90.000000
_cell_angle_beta 90.000000
_cell_angle_gamma 90.000000
_cell_volume 5317.313602
_symmetry_space_group_name_H-M "F D D 2"
_symmetry_group_IT_number 43
_symmetry_cell_setting 'orthorhombic'
loop_
_space_group_symop_operation_xyz
x,y,z
-x,-y,z
1/4-x,1/4+y,1/4+z
1/4+x,1/4-y,1/4+z
x,1/2+y,1/2+z
-x,1/2-y,1/2+z
1/4-x,3/4+y,3/4+z
1/4+x,3/4-y,3/4+z
1/2+x,y,1/2+z
1/2-x,-y,1/2+z
3/4-x,1/4+y,3/4+z
3/4+x,1/4-y,3/4+z
1/2+x,1/2+y,z
1/2-x,1/2-y,z
3/4-x,3/4+y,1/4+z
3/4+x,3/4-y,1/4+z
loop_
_atom_site_type_symbol
_atom_site_label
_atom_site_fract_x
_atom_site_fract_y
_atom_site_fract_z
Si Si1 0.685975 0.617330 0.174000
Si Si2 0.500000 0.500000 0.052387
Si Si3 0.818742 0.135811 0.933992
Si Si4 0.569233 0.086592 0.315567
Si Si5 0.229518 0.036927 0.661757
Si Si6 0.750000 0.750000 0.567356
Si Si7 0.564163 0.331555 0.584476
Si Si8 0.250000 0.750000 0.430481
O O1 0.720119 0.663721 0.246763
O O2 0.628113 0.594732 0.193677
O O3 0.687933 0.717595 0.109460
O O4 0.713780 0.506539 0.146621
O O5 0.456934 0.447236 0.108028
O O6 0.813891 0.008227 0.907095
O O7 0.788132 0.182111 0.009895
O O8 0.553408 0.189069 0.371882
O O9 0.628879 0.095762 0.302809
O O10 0.533021 0.080647 0.237966
O O11 0.222953 0.156443 0.621158
O O12 0.217495 0.045647 0.756430
O O13 0.539720 0.438279 0.624122
#
# Coordination Sequence:
#
# PCOD9372014 Si02
#       8
#    16   8  16  16  16   8  16   8
#     4  11  21  39  71  94 123 173 218 274 325 369
#     4  11  19  42  63  99 124 162 230 267 315 382
#     4  10  24  41  65  95 129 171 223 267 318 389
#     4  11  22  42  70  98 123 173 225 272 317 380
#     4  12  22  46  62  93 138 168 212 267 328 396
#     4  11  27  44  61  97 136 174 206 265 335 390
#     4  11  24  41  68  95 132 170 220 271 324 389
#     4  12  22  40  66 102 128 170 216 270 332 372
#
# _framework density 19.558748000000001
#
# number of rings (size 3 to 8) (size 9 to 14) (size 15 to 20)
#    0.000    0.923    4.615    2.308    2.154    2.462 
#    8.308    0.000    0.000    0.000    0.000    0.000 
#    0.000    0.000    0.000    0.000    0.000    0.000 
#
# Total GULP energy -145144.859423 kJ/mol
# GULP energy per Si atom -5582.494593 kJ/mol
# Density = 1.951423 g / cm^3
# Si number density = 19.558748 Si / 1000 Ang^3
#
#
#
# Elastic Constant Matrix: (Units=GPa)
#
#
# Indices 1 2 3 4 5 6 
#
# 1 121.0793 26.3720 37.5386 0.0000 0.0000 0.0000
# 2 26.3720 55.6776 26.5153 0.0000 0.0000 0.0000
# 3 37.5386 26.5153 70.9605 0.0000 0.0000 0.0000
# 4 0.0000 0.0000 0.0000 28.1522 0.0000 0.0000
# 5 0.0000 0.0000 0.0000 0.0000 24.1725 0.0000
# 6 0.0000 0.0000 0.0000 0.0000 0.0000 19.8817
#
#
#
# Elastic Compliance Matrix: (Units=1/GPa)
#
#
# Indices 1 2 3 4 5 6 
#
# 1 0.010215 -0.002755 -0.004374 0.000000 0.000000 0.000000
# 2 -0.002755 0.022592 -0.006984 0.000000 0.000000 0.000000
# 3 -0.004374 -0.006984 0.019016 0.000000 0.000000 0.000000
# 4 0.000000 0.000000 0.000000 0.035521 0.000000 0.000000
# 5 0.000000 0.000000 0.000000 0.000000 0.041369 0.000000
# 6 0.000000 0.000000 0.000000 0.000000 0.000000 0.050298
#
#
# Mechanical properties :
#
#
# Convention : Reuss Voigt Hill
#
# Bulk Modulus (GPa) = 42.38101 47.61882 44.99991
# Shear Modulus (GPa) = 23.24456 24.92738 24.08597
#
# Velocity S-wave (km/s) = 3.45113 3.57387 3.51303
# Velocity P-wave (km/s) = 6.13156 6.43657 6.28591
#
# Compressibility (1/GPa) = 0.02359547
#
# Stress axis : x y z
#
# Youngs Moduli (GPa) = 97.89134 44.26418 52.58683
#
# Poissons Ratio (x) = 0.12196 0.23004
# Poissons Ratio (y) = 0.26972 0.36727
# Poissons Ratio (z) = 0.42822 0.30914
#
# Static dielectric constant tensor:
#      x y z
#    x 1.654800 0.000000 0.000000 
#    y 0.000000 1.694480 0.000000 
#    z 0.000000 0.000000 1.683840 
# 
# From -- ./inp_files/13448.got.cif
#   From: 2010.05.17/outbox.cif.g08.bks.cpg/sg43_7_cif.got.tgz:13448.got - 2010.06.03 19:21:55.
