data_PCOD9372996
_publ_section_title
;
Structure prediction by ZEFSAII (Michael W. Deem and Ramdas Pophale) SiO2 
 PCOD9372996
Probable space group: I M M 2
;
_chemical_formula_sum "Si O2"
_cell_formula_units_Z 64
_cell_length_a 24.200311
_cell_length_b 7.459687
_cell_length_c 19.939651
_cell_angle_alpha 90.000000
_cell_angle_beta 90.000000
_cell_angle_gamma 90.000000
_cell_volume 3599.640299
_symmetry_space_group_name_H-M "I M M 2"
_symmetry_group_IT_number 44
_symmetry_cell_setting 'orthorhombic'
loop_
_space_group_symop_operation_xyz
x,y,z
-x,-y,z
-x,y,z
x,-y,z
1/2+x,1/2+y,1/2+z
1/2-x,1/2-y,1/2+z
1/2-x,1/2+y,1/2+z
1/2+x,1/2-y,1/2+z
loop_
_atom_site_type_symbol
_atom_site_label
_atom_site_fract_x
_atom_site_fract_y
_atom_site_fract_z
Si Si1 0.273344 0.218172 0.582560
Si Si2 0.248063 0.213540 0.727050
Si Si3 0.061803 0.786872 0.865825
Si Si4 0.162765 0.218000 0.502182
Si Si5 0.728010 0.714654 0.875539
Si Si6 0.936800 0.218998 0.591897
Si Si7 0.335838 0.784758 0.454196
Si Si8 0.121292 0.219393 0.730856
O O1 0.276527 0.281278 0.659013
O O2 0.213294 0.265723 0.551961
O O3 0.318489 0.279028 0.528245
O O4 0.275637 0.000000 0.582742
O O5 0.277838 0.244655 0.797546
O O6 0.184859 0.280976 0.731047
O O7 0.243647 0.000000 0.719287
O O8 0.104297 0.759917 0.926382
O O9 0.089972 0.717689 0.797529
O O10 0.000000 0.715986 0.876200
O O11 0.057333 0.000000 0.856636
O O12 0.181657 0.278378 0.428214
O O13 0.105036 0.278436 0.533406
O O14 0.161029 0.000000 0.501299
O O15 0.728974 0.500000 0.881267
O O16 0.787682 0.780245 0.903159
O O17 0.910477 0.272198 0.663282
O O18 0.000000 0.278187 0.584989
O O19 0.937222 0.000000 0.591468
O O20 0.332253 0.000000 0.454823
O O21 0.122022 0.000000 0.731582
#
# Coordination Sequence:
#
# PCOD9372996 Si02
#       8
#     8   8   8   8   8   8   8   8
#     4   8  14  25  41  59  79 105 138 174 209 241
#     4  10  16  25  44  64  82 108 139 169 202 244
#     4  10  19  29  41  60  87 115 141 169 203 244
#     4   8  13  23  36  54  80 109 136 166 204 239
#     4   9  17  27  40  58  84 112 136 167 209 249
#     4   9  14  20  34  57  83 110 140 169 197 234
#     4   9  17  29  43  59  80 108 143 178 208 242
#     4   9  15  23  35  57  87 112 134 164 197 231
#
# _framework density 17.779554000000001
#
# number of rings (size 3 to 8) (size 9 to 14) (size 15 to 20)
#    0.000    3.000    2.500    1.875    0.000    1.750 
#    0.000    0.625    0.000    0.750    0.000    0.875 
#    0.000    5.500    0.000    0.000    0.000    0.000 
#
# Total GULP energy -178402.501982 kJ/mol
# GULP energy per Si atom -5575.078187 kJ/mol
# Density = 1.773909 g / cm^3
# Si number density = 17.779554 Si / 1000 Ang^3
#
#
#
# Elastic Constant Matrix: (Units=GPa)
#
#
# Indices 1 2 3 4 5 6 
#
# 1 108.5143 2.2106 85.3071 0.0000 0.0000 0.0000
# 2 2.2106 49.9424 2.1811 0.0000 0.0000 0.0000
# 3 85.3071 2.1811 177.9568 0.0000 0.0000 0.0000
# 4 0.0000 0.0000 0.0000 10.6578 0.0000 0.0000
# 5 0.0000 0.0000 0.0000 0.0000 19.0186 0.0000
# 6 0.0000 0.0000 0.0000 0.0000 0.0000 4.8343
#
#
#
# Elastic Compliance Matrix: (Units=1/GPa)
#
#
# Indices 1 2 3 4 5 6 
#
# 1 0.014794 -0.000345 -0.007088 0.000000 0.000000 0.000000
# 2 -0.000345 0.020042 -0.000080 0.000000 0.000000 0.000000
# 3 -0.007088 -0.000080 0.009018 0.000000 0.000000 0.000000
# 4 0.000000 0.000000 0.000000 0.093828 0.000000 0.000000
# 5 0.000000 0.000000 0.000000 0.000000 0.052580 0.000000
# 6 0.000000 0.000000 0.000000 0.000000 0.000000 0.206855
#
#
# Mechanical properties :
#
#
# Convention : Reuss Voigt Hill
#
# Bulk Modulus (GPa) = 34.68868 57.31235 46.00051
# Shear Modulus (GPa) = 11.85529 23.34980 17.60254
#
# Velocity S-wave (km/s) = 2.58504 3.62787 3.14991
# Velocity P-wave (km/s) = 5.33504 7.06071 6.25764
#
# Compressibility (1/GPa) = 0.02882785
#
# Stress axis : x y z
#
# Youngs Moduli (GPa) = 67.59346 49.89561 110.88982
#
# Poissons Ratio (x) = 0.01723 0.78596
# Poissons Ratio (y) = 0.02334 0.00888
# Poissons Ratio (z) = 0.47908 0.00400
#
# Static dielectric constant tensor:
#      x y z
#    x 1.589620 0.000000 0.000000 
#    y 0.000000 1.714300 0.000000 
#    z 0.000000 0.000000 1.625110 
# 
# From -- ./inp_files/20902.got.cif
#   From: 2010.05.17/outbox.cif.g08.bks.cpg/sg44_11_cif.got.tgz:20902.got - 2010.06.03 19:37:08.
