data_PCOD9372324
_publ_section_title
;
Structure prediction by ZEFSAII (Michael W. Deem and Ramdas Pophale) SiO2 
 PCOD9372324
Probable space group: F D D 2
;
_chemical_formula_sum "Si O2"
_cell_formula_units_Z 120
_cell_length_a 17.715753
_cell_length_b 14.794165
_cell_length_c 23.695509
_cell_angle_alpha 90.000000
_cell_angle_beta 90.000000
_cell_angle_gamma 90.000000
_cell_volume 6210.350574
_symmetry_space_group_name_H-M "F D D 2"
_symmetry_group_IT_number 43
_symmetry_cell_setting 'orthorhombic'
loop_
_space_group_symop_operation_xyz
x,y,z
-x,-y,z
1/4-x,1/4+y,1/4+z
1/4+x,1/4-y,1/4+z
x,1/2+y,1/2+z
-x,1/2-y,1/2+z
1/4-x,3/4+y,3/4+z
1/4+x,3/4-y,3/4+z
1/2+x,y,1/2+z
1/2-x,-y,1/2+z
3/4-x,1/4+y,3/4+z
3/4+x,1/4-y,3/4+z
1/2+x,1/2+y,z
1/2-x,1/2-y,z
3/4-x,3/4+y,1/4+z
3/4+x,3/4-y,1/4+z
loop_
_atom_site_type_symbol
_atom_site_label
_atom_site_fract_x
_atom_site_fract_y
_atom_site_fract_z
Si Si1 0.614067 0.976672 0.745880
Si Si2 0.885195 0.515197 0.151545
Si Si3 0.018496 0.180769 0.406705
Si Si4 0.726922 0.403806 0.022187
Si Si5 0.868739 0.855845 0.789918
Si Si6 0.742106 0.089416 0.463530
Si Si7 0.217071 0.909951 0.346283
Si Si8 0.750000 0.250000 0.220049
O O1 0.662828 0.979598 0.688483
O O2 0.551104 0.896871 0.746708
O O3 0.661859 0.949585 0.800823
O O4 0.583525 0.076651 0.758233
O O5 0.812272 0.468889 0.178646
O O6 0.849400 0.570327 0.099189
O O7 0.936049 0.437993 0.119948
O O8 0.933093 0.583858 0.191173
O O9 0.017081 0.169841 0.339498
O O10 0.023372 0.081368 0.431469
O O11 0.711522 0.503466 0.997531
O O12 0.938699 0.882482 0.749920
O O13 0.797697 0.912331 0.814223
O O14 0.821891 0.778492 0.757057
O O15 0.774845 0.043565 0.406517
#
# Coordination Sequence:
#
# PCOD9372324 Si02
#       8
#    16  16  16  16  16  16  16   8
#     4  11  24  42  68 103 130 174 227 285 347 414
#     4  11  22  40  64 100 136 177 223 283 341 410
#     4  12  23  40  69  96 136 174 224 290 347 403
#     4  11  25  44  66  97 136 176 231 279 342 417
#     4  11  19  36  60  98 136 166 208 281 342 399
#     4  11  23  38  65  92 142 178 216 276 341 411
#     4  11  21  38  64 102 135 165 222 285 342 401
#     4  12  20  32  64  98 126 166 208 288 354 384
#
# _framework density 19.322579999999999
#
# number of rings (size 3 to 8) (size 9 to 14) (size 15 to 20)
#    0.000    0.800    5.333    3.600    3.733    0.000 
#    0.000    2.000    2.933    0.000    0.000    0.000 
#    0.000    0.000    0.000    0.000    0.000    0.000 
#
# Total GULP energy -167055.949956 kJ/mol
# GULP energy per Si atom -5568.531665 kJ/mol
# Density = 1.927860 g / cm^3
# Si number density = 19.322580 Si / 1000 Ang^3
#
#
#
# Elastic Constant Matrix: (Units=GPa)
#
#
# Indices 1 2 3 4 5 6 
#
# 1 64.5686 12.2721 27.3900 0.0000 0.0000 0.0000
# 2 12.2721 53.2103 24.1089 0.0000 0.0000 0.0000
# 3 27.3900 24.1089 95.1115 0.0000 0.0000 0.0000
# 4 0.0000 0.0000 0.0000 156.7202 0.0000 0.0000
# 5 0.0000 0.0000 0.0000 0.0000 37.5619 0.0000
# 6 0.0000 0.0000 0.0000 0.0000 0.0000 33.2418
#
#
#
# Elastic Compliance Matrix: (Units=1/GPa)
#
#
# Indices 1 2 3 4 5 6 
#
# 1 0.017832 -0.002018 -0.004624 0.000000 0.000000 0.000000
# 2 -0.002018 0.021460 -0.004859 0.000000 0.000000 0.000000
# 3 -0.004624 -0.004859 0.013077 0.000000 0.000000 0.000000
# 4 0.000000 0.000000 0.000000 0.006381 0.000000 0.000000
# 5 0.000000 0.000000 0.000000 0.000000 0.026623 0.000000
# 6 0.000000 0.000000 0.000000 0.000000 0.000000 0.030083
#
#
# Mechanical properties :
#
#
# Convention : Reuss Voigt Hill
#
# Bulk Modulus (GPa) = 34.04943 37.82584 35.93763
# Shear Modulus (GPa) = 33.72774 55.44608 44.58691
#
# Velocity S-wave (km/s) = 4.18246 5.36258 4.80886
# Velocity P-wave (km/s) = 6.40186 7.61324 7.03368
#
# Compressibility (1/GPa) = 0.02936907
#
# Stress axis : x y z
#
# Youngs Moduli (GPa) = 56.07787 46.59809 76.46942
#
# Poissons Ratio (x) = 0.09402 0.35358
# Poissons Ratio (y) = 0.11315 0.37154
# Poissons Ratio (z) = 0.25930 0.22640
#
# Static dielectric constant tensor:
#      x y z
#    x 1.766690 0.000000 0.000000 
#    y 0.000000 1.627780 0.000000 
#    z 0.000000 0.000000 1.715250 
# 
# From -- ./inp_files/22159.got.cif
#   From: 2010.05.17/outbox.cif.g08.bks.cpg/sg43_12_cif.got.tgz:22159.got - 2010.06.03 19:21:55.
