data_PCOD9372217
_publ_section_title
;
Structure prediction by ZEFSAII (Michael W. Deem and Ramdas Pophale) SiO2 
 PCOD9372217
Probable space group: F D D 2
;
_chemical_formula_sum "Si O2"
_cell_formula_units_Z 88
_cell_length_a 5.177413
_cell_length_b 24.797381
_cell_length_c 27.616046
_cell_angle_alpha 90.000000
_cell_angle_beta 90.000000
_cell_angle_gamma 90.000000
_cell_volume 3545.521490
_symmetry_space_group_name_H-M "F D D 2"
_symmetry_group_IT_number 43
_symmetry_cell_setting 'orthorhombic'
loop_
_space_group_symop_operation_xyz
x,y,z
-x,-y,z
1/4-x,1/4+y,1/4+z
1/4+x,1/4-y,1/4+z
x,1/2+y,1/2+z
-x,1/2-y,1/2+z
1/4-x,3/4+y,3/4+z
1/4+x,3/4-y,3/4+z
1/2+x,y,1/2+z
1/2-x,-y,1/2+z
3/4-x,1/4+y,3/4+z
3/4+x,1/4-y,3/4+z
1/2+x,1/2+y,z
1/2-x,1/2-y,z
3/4-x,3/4+y,1/4+z
3/4+x,3/4-y,1/4+z
loop_
_atom_site_type_symbol
_atom_site_label
_atom_site_fract_x
_atom_site_fract_y
_atom_site_fract_z
Si Si1 0.000000 0.000000 0.365680
Si Si2 0.562169 0.640589 0.483733
Si Si3 0.777586 0.566594 0.107873
Si Si4 0.500000 0.000000 0.430058
Si Si5 0.720614 0.365013 0.122532
Si Si6 0.000000 0.500000 0.688313
Si Si7 0.175207 0.335055 0.262468
O O1 0.745195 0.990251 0.396952
O O2 0.039625 0.940237 0.344622
O O3 0.530533 0.611539 0.431145
O O4 0.637840 0.701593 0.470351
O O5 0.285015 0.632648 0.508002
O O6 0.789323 0.610818 0.513581
O O7 0.567044 0.614747 0.111607
O O8 0.708489 0.526521 0.151489
O O9 0.063458 0.589674 0.111809
O O10 0.695715 0.546946 0.054554
O O11 0.435537 0.950176 0.464300
#
# Coordination Sequence:
#
# PCOD9372217 Si02
#       7
#     8  16  16   8  16   8  16
#     4  12  22  38  67  96 122 165 224 273 316 407
#     4  11  23  42  67  95 136 174 236 268 337 404
#     4  11  25  42  66  95 141 172 226 278 352 389
#     4  12  21  38  68  98 124 163 210 283 348 390
#     4  11  22  42  63  96 128 181 219 277 325 414
#     4  10  25  46  69 100 132 192 226 278 328 435
#     4  12  23  42  65 104 134 171 217 298 338 404
#
# _framework density 24.820042000000001
#
# number of rings (size 3 to 8) (size 9 to 14) (size 15 to 20)
#    0.000    0.727    3.636    4.909    0.000    6.545 
#    0.000   10.909    0.000    0.000    0.000    0.000 
#    0.000    0.000    0.000    0.000    0.000    0.000 
#
# Total GULP energy -123058.452622 kJ/mol
# GULP energy per Si atom -5593.566028 kJ/mol
# Density = 2.476355 g / cm^3
# Si number density = 24.820042 Si / 1000 Ang^3
#
#
#
# Elastic Constant Matrix: (Units=GPa)
#
#
# Indices 1 2 3 4 5 6 
#
# 1 144.3983 29.9679 41.7835 0.0000 0.0000 0.0000
# 2 29.9679 122.1603 -12.6263 0.0000 0.0000 0.0000
# 3 41.7835 -12.6263 58.3230 0.0000 0.0000 0.0000
# 4 0.0000 0.0000 0.0000 32.7207 0.0000 0.0000
# 5 0.0000 0.0000 0.0000 0.0000 20.6331 0.0000
# 6 0.0000 0.0000 0.0000 0.0000 0.0000 41.2582
#
#
#
# Elastic Compliance Matrix: (Units=1/GPa)
#
#
# Indices 1 2 3 4 5 6 
#
# 1 0.009831 -0.003212 -0.007738 0.000000 0.000000 0.000000
# 2 -0.003212 0.009422 0.004341 0.000000 0.000000 0.000000
# 3 -0.007738 0.004341 0.023629 0.000000 0.000000 0.000000
# 4 0.000000 0.000000 0.000000 0.030562 0.000000 0.000000
# 5 0.000000 0.000000 0.000000 0.000000 0.048466 0.000000
# 6 0.000000 0.000000 0.000000 0.000000 0.000000 0.024238
#
#
# Mechanical properties :
#
#
# Convention : Reuss Voigt Hill
#
# Bulk Modulus (GPa) = 33.71037 49.23688 41.47363
# Shear Modulus (GPa) = 29.54129 36.63951 33.09040
#
# Velocity S-wave (km/s) = 3.45370 3.84631 3.65528
# Velocity P-wave (km/s) = 5.43281 6.29334 5.87884
#
# Compressibility (1/GPa) = 0.02966446
#
# Stress axis : x y z
#
# Youngs Moduli (GPa) = 101.71922 106.12953 42.32008
#
# Poissons Ratio (x) = 0.34084 0.32749
# Poissons Ratio (y) = 0.32667 -0.18370
# Poissons Ratio (z) = 0.78714 -0.46067
#
# Static dielectric constant tensor:
#      x y z
#    x 1.879200 0.000000 0.000000 
#    y 0.000000 2.047540 0.000000 
#    z 0.000000 0.000000 2.122850 
# 
# From -- ./inp_files/27285.got.cif
#   From: 2010.05.17/outbox.cif.g08.bks.cpg/sg43_14_cif.got.tgz:27285.got - 2010.06.03 19:21:55.
