data_PCOD9372850
_publ_section_title
;
Structure prediction by ZEFSAII (Michael W. Deem and Ramdas Pophale) SiO2 
 PCOD9372850
Probable space group: F D D 2
;
_chemical_formula_sum "Si O2"
_cell_formula_units_Z 120
_cell_length_a 25.097663
_cell_length_b 10.943826
_cell_length_c 17.306398
_cell_angle_alpha 90.000000
_cell_angle_beta 90.000000
_cell_angle_gamma 90.000000
_cell_volume 4753.452407
_symmetry_space_group_name_H-M "F D D 2"
_symmetry_group_IT_number 43
_symmetry_cell_setting 'orthorhombic'
loop_
_space_group_symop_operation_xyz
x,y,z
-x,-y,z
1/4-x,1/4+y,1/4+z
1/4+x,1/4-y,1/4+z
x,1/2+y,1/2+z
-x,1/2-y,1/2+z
1/4-x,3/4+y,3/4+z
1/4+x,3/4-y,3/4+z
1/2+x,y,1/2+z
1/2-x,-y,1/2+z
3/4-x,1/4+y,3/4+z
3/4+x,1/4-y,3/4+z
1/2+x,1/2+y,z
1/2-x,1/2-y,z
3/4-x,3/4+y,1/4+z
3/4+x,3/4-y,1/4+z
loop_
_atom_site_type_symbol
_atom_site_label
_atom_site_fract_x
_atom_site_fract_y
_atom_site_fract_z
Si Si1 0.660466 0.931736 0.464760
Si Si2 0.510370 0.753099 0.343447
Si Si3 0.597963 0.151455 0.532540
Si Si4 0.886901 0.746917 0.572447
Si Si5 0.250000 0.750000 0.181862
Si Si6 0.864573 0.721619 0.730861
Si Si7 0.985085 0.641403 0.494010
Si Si8 0.946986 0.927560 0.748953
O O1 0.711778 0.982818 0.510510
O O2 0.663907 0.916714 0.373514
O O3 0.648375 0.801672 0.501132
O O4 0.612885 0.019630 0.496111
O O5 0.497937 0.620209 0.377688
O O6 0.541366 0.824904 0.411679
O O7 0.465783 0.854135 0.324541
O O8 0.544114 0.199909 0.493296
O O9 0.651143 0.226095 0.515618
O O10 0.864955 0.667739 0.643906
O O11 0.877323 0.891182 0.557004
O O12 0.947483 0.706835 0.555926
O O13 0.197186 0.740924 0.234268
O O14 0.911179 0.819658 0.710835
O O15 0.000000 0.500000 0.508759
O O16 0.000000 0.000000 0.718645
#
# Coordination Sequence:
#
# PCOD9372850 Si02
#       8
#    16  16  16  16   8  16  16  16
#     4  12  25  47  76 112 154 202 266 341 395 489
#     4  12  25  49  76 111 156 204 264 323 411 485
#     4  12  27  47  77 116 155 208 270 332 415 488
#     4  12  25  49  73 111 156 197 270 321 405 471
#     4  12  24  50  76 110 148 212 250 320 406 492
#     4  12  28  50  76 109 156 212 260 336 401 501
#     4  12  25  44  81 115 156 208 264 337 409 488
#     4  12  28  49  77 111 155 207 265 331 411 483
#
# _framework density 25.244809
#
# number of rings (size 3 to 8) (size 9 to 14) (size 15 to 20)
#    0.000    0.000    5.333    4.400    1.867    1.067 
#    2.400    0.000    0.000    0.000    0.000    0.000 
#    0.000    0.000    0.000    0.000    0.000    0.000 
#
# Total GULP energy -167267.826548 kJ/mol
# GULP energy per Si atom -5575.594218 kJ/mol
# Density = 2.518735 g / cm^3
# Si number density = 25.244809 Si / 1000 Ang^3
#
#
#
# Elastic Constant Matrix: (Units=GPa)
#
#
# Indices 1 2 3 4 5 6 
#
# 1 126.9130 19.8697 -1.2313 0.0000 0.0000 0.0000
# 2 19.8697 100.8677 -7.3343 0.0000 0.0000 0.0000
# 3 -1.2313 -7.3343 83.1001 0.0000 0.0000 0.0000
# 4 0.0000 0.0000 0.0000 36.7768 0.0000 0.0000
# 5 0.0000 0.0000 0.0000 0.0000 30.8385 0.0000
# 6 0.0000 0.0000 0.0000 0.0000 0.0000 27.9992
#
#
#
# Elastic Compliance Matrix: (Units=1/GPa)
#
#
# Indices 1 2 3 4 5 6 
#
# 1 0.008130 -0.001603 -0.000021 0.000000 0.000000 0.000000
# 2 -0.001603 0.010294 0.000885 0.000000 0.000000 0.000000
# 3 -0.000021 0.000885 0.012111 0.000000 0.000000 0.000000
# 4 0.000000 0.000000 0.000000 0.027191 0.000000 0.000000
# 5 0.000000 0.000000 0.000000 0.000000 0.032427 0.000000
# 6 0.000000 0.000000 0.000000 0.000000 0.000000 0.035715
#
#
# Mechanical properties :
#
#
# Convention : Reuss Voigt Hill
#
# Bulk Modulus (GPa) = 34.41495 37.05433 35.73464
# Shear Modulus (GPa) = 36.48745 39.09468 37.79107
#
# Velocity S-wave (km/s) = 3.80589 3.93952 3.87328
# Velocity P-wave (km/s) = 5.74240 5.95004 5.84714
#
# Compressibility (1/GPa) = 0.02905714
#
# Stress axis : x y z
#
# Youngs Moduli (GPa) = 122.99832 97.14307 82.56642
#
# Poissons Ratio (x) = 0.15573 0.00174
# Poissons Ratio (y) = 0.19718 -0.07305
# Poissons Ratio (z) = 0.00259 -0.08595
#
# Static dielectric constant tensor:
#      x y z
#    x 2.126810 0.000000 0.000000 
#    y 0.000000 2.301160 0.000000 
#    z 0.000000 0.000000 2.216750 
# 
# From -- ./inp_files/15097.got.cif
#   From: 2010.05.17/outbox.cif.g08.bks.cpg/sg43_8_cif.got.tgz:15097.got - 2010.06.03 19:21:55.
