data_PCOD9372319
_publ_section_title
;
Structure prediction by ZEFSAII (Michael W. Deem and Ramdas Pophale) SiO2 
 PCOD9372319
Probable space group: F D D 2
;
_chemical_formula_sum "Si O2"
_cell_formula_units_Z 96
_cell_length_a 16.896256
_cell_length_b 7.511483
_cell_length_c 28.494210
_cell_angle_alpha 90.000000
_cell_angle_beta 90.000000
_cell_angle_gamma 90.000000
_cell_volume 3616.369438
_symmetry_space_group_name_H-M "F D D 2"
_symmetry_group_IT_number 43
_symmetry_cell_setting 'orthorhombic'
loop_
_space_group_symop_operation_xyz
x,y,z
-x,-y,z
1/4-x,1/4+y,1/4+z
1/4+x,1/4-y,1/4+z
x,1/2+y,1/2+z
-x,1/2-y,1/2+z
1/4-x,3/4+y,3/4+z
1/4+x,3/4-y,3/4+z
1/2+x,y,1/2+z
1/2-x,-y,1/2+z
3/4-x,1/4+y,3/4+z
3/4+x,1/4-y,3/4+z
1/2+x,1/2+y,z
1/2-x,1/2-y,z
3/4-x,3/4+y,1/4+z
3/4+x,3/4-y,1/4+z
loop_
_atom_site_type_symbol
_atom_site_label
_atom_site_fract_x
_atom_site_fract_y
_atom_site_fract_z
Si Si1 0.750000 0.250000 0.050010
Si Si2 0.657565 0.975389 0.090914
Si Si3 0.099243 0.134967 0.139451
Si Si4 0.556771 0.169888 0.157563
Si Si5 0.105892 0.852563 0.987913
Si Si6 0.750000 0.750000 0.305864
Si Si7 0.595512 0.017718 0.249633
O O1 0.758903 0.431698 0.079705
O O2 0.824770 0.242478 0.015988
O O3 0.649199 0.813529 0.127491
O O4 0.625809 0.879783 0.044212
O O5 0.609136 0.143157 0.111619
O O6 0.143858 0.045878 0.183372
O O7 0.010699 0.182914 0.158720
O O8 0.073733 0.044394 0.090334
O O9 0.607241 0.139387 0.203832
O O10 0.500000 0.000000 0.154916
O O11 0.028295 0.844378 0.020400
O O12 0.126111 0.066478 0.989509
O O13 0.500000 0.000000 0.256809
#
# Coordination Sequence:
#
# PCOD9372319 Si02
#       7
#     8  16  16  16  16   8  16
#     4  12  25  40  70 102 138 180 246 307 364 452
#     4  11  21  37  67  97 134 183 234 296 365 438
#     4  11  22  43  71  97 144 196 233 310 382 432
#     4   9  18  36  65  92 127 180 237 275 363 442
#     4  12  24  46  68 104 141 186 250 305 368 463
#     4  12  27  44  72 112 148 188 260 313 370 450
#     4  11  18  39  68  90 127 184 235 283 358 443
#
# _framework density 26.545960000000001
#
# number of rings (size 3 to 8) (size 9 to 14) (size 15 to 20)
#    0.000    1.000    8.333    1.500    0.000    0.000 
#    4.500    0.000    9.167    0.000    0.000    0.000 
#    0.000    0.000    0.000    0.000    0.000    0.000 
#
# Total GULP energy -134066.061044 kJ/mol
# GULP energy per Si atom -5586.085877 kJ/mol
# Density = 2.648554 g / cm^3
# Si number density = 26.545960 Si / 1000 Ang^3
#
#
#
# Elastic Constant Matrix: (Units=GPa)
#
#
# Indices 1 2 3 4 5 6 
#
# 1 65.1688 9.1402 30.5872 0.0000 0.0000 0.0000
# 2 9.1402 109.3572 9.9530 0.0000 0.0000 0.0000
# 3 30.5872 9.9530 174.0199 0.0000 0.0000 0.0000
# 4 0.0000 0.0000 0.0000 31.6603 0.0000 0.0000
# 5 0.0000 0.0000 0.0000 0.0000 35.3453 0.0000
# 6 0.0000 0.0000 0.0000 0.0000 0.0000 35.4899
#
#
#
# Elastic Compliance Matrix: (Units=1/GPa)
#
#
# Indices 1 2 3 4 5 6 
#
# 1 0.016866 -0.001146 -0.002899 0.000000 0.000000 0.000000
# 2 -0.001146 0.009270 -0.000329 0.000000 0.000000 0.000000
# 3 -0.002899 -0.000329 0.006275 0.000000 0.000000 0.000000
# 4 0.000000 0.000000 0.000000 0.031585 0.000000 0.000000
# 5 0.000000 0.000000 0.000000 0.000000 0.028292 0.000000
# 6 0.000000 0.000000 0.000000 0.000000 0.000000 0.028177
#
#
# Mechanical properties :
#
#
# Convention : Reuss Voigt Hill
#
# Bulk Modulus (GPa) = 42.25877 49.76741 46.01309
# Shear Modulus (GPa) = 36.46953 40.42348 38.44651
#
# Velocity S-wave (km/s) = 3.71054 3.90651 3.80978
# Velocity P-wave (km/s) = 5.85757 6.25588 6.06000
#
# Compressibility (1/GPa) = 0.02366373
#
# Stress axis : x y z
#
# Youngs Moduli (GPa) = 59.29049 107.87436 159.36698
#
# Poissons Ratio (x) = 0.12361 0.46200
# Poissons Ratio (y) = 0.06794 0.05240
# Poissons Ratio (z) = 0.17188 0.03547
#
# Static dielectric constant tensor:
#      x y z
#    x 2.136840 0.000000 0.000000 
#    y 0.000000 2.260200 0.000000 
#    z 0.000000 0.000000 2.190210 
# 
# From -- ./inp_files/26319.got.cif
#   From: 2010.05.17/outbox.cif.g08.bks.cpg/sg43_14_cif.got.tgz:26319.got - 2010.06.03 19:21:55.
