data_PCOD9372531
_publ_section_title
;
Structure prediction by ZEFSAII (Michael W. Deem and Ramdas Pophale) SiO2 
 PCOD9372531
Probable space group: F D D 2
;
_chemical_formula_sum "Si O2"
_cell_formula_units_Z 112
_cell_length_a 11.237594
_cell_length_b 27.452189
_cell_length_c 17.164212
_cell_angle_alpha 90.000000
_cell_angle_beta 90.000000
_cell_angle_gamma 90.000000
_cell_volume 5295.100261
_symmetry_space_group_name_H-M "F D D 2"
_symmetry_group_IT_number 43
_symmetry_cell_setting 'orthorhombic'
loop_
_space_group_symop_operation_xyz
x,y,z
-x,-y,z
1/4-x,1/4+y,1/4+z
1/4+x,1/4-y,1/4+z
x,1/2+y,1/2+z
-x,1/2-y,1/2+z
1/4-x,3/4+y,3/4+z
1/4+x,3/4-y,3/4+z
1/2+x,y,1/2+z
1/2-x,-y,1/2+z
3/4-x,1/4+y,3/4+z
3/4+x,1/4-y,3/4+z
1/2+x,1/2+y,z
1/2-x,1/2-y,z
3/4-x,3/4+y,1/4+z
3/4+x,3/4-y,1/4+z
loop_
_atom_site_type_symbol
_atom_site_label
_atom_site_fract_x
_atom_site_fract_y
_atom_site_fract_z
Si Si1 0.791942 0.935499 0.777100
Si Si2 0.111662 0.613445 0.840425
Si Si3 0.580551 0.108584 0.413862
Si Si4 0.119465 0.772932 0.977735
Si Si5 0.142452 0.339721 0.345055
Si Si6 0.377391 0.154968 0.763675
Si Si7 0.734645 0.805130 0.905037
O O1 0.861762 0.931645 0.857664
O O2 0.688310 0.895897 0.782276
O O3 0.885676 0.920685 0.710551
O O4 0.731317 0.985603 0.753338
O O5 0.144689 0.571934 0.778365
O O6 0.221670 0.647489 0.865337
O O7 0.010106 0.645210 0.797371
O O8 0.093602 0.586640 0.923473
O O9 0.448466 0.120423 0.381498
O O10 0.602592 0.091804 0.501974
O O11 0.650808 0.160150 0.405686
O O12 0.250000 0.750000 0.991489
O O13 0.110859 0.789406 0.887722
O O14 0.318180 0.195159 0.818461
O O15 0.750000 0.750000 0.933195
#
# Coordination Sequence:
#
# PCOD9372531 Si02
#       7
#    16  16  16  16  16  16  16
#     4  11  23  44  68  99 141 177 232 304 360 425
#     4  12  22  43  69  97 139 184 235 293 369 437
#     4  11  24  45  72 100 142 193 237 287 373 434
#     4  12  25  43  70 103 141 181 237 306 360 433
#     4  12  23  45  71 101 140 196 240 289 369 445
#     4  11  23  43  69  98 135 184 233 289 374 430
#     4  11  24  42  70  99 137 184 239 302 355 432
#
# _framework density 21.151630000000001
#
# number of rings (size 3 to 8) (size 9 to 14) (size 15 to 20)
#    0.000    0.571    7.143    0.857    0.000    0.571 
#    5.143    0.714    0.000    0.000    0.000    0.000 
#    0.000    0.000    0.000    0.000    0.000    0.000 
#
# Total GULP energy -156283.614969 kJ/mol
# GULP energy per Si atom -5581.557677 kJ/mol
# Density = 2.110349 g / cm^3
# Si number density = 21.151630 Si / 1000 Ang^3
#
#
#
# Elastic Constant Matrix: (Units=GPa)
#
#
# Indices 1 2 3 4 5 6 
#
# 1 85.1618 12.7739 7.4070 0.0000 0.0000 0.0000
# 2 12.7739 41.4687 -4.1961 0.0000 0.0000 0.0000
# 3 7.4070 -4.1961 144.4937 0.0000 0.0000 0.0000
# 4 0.0000 0.0000 0.0000 33.4148 0.0000 0.0000
# 5 0.0000 0.0000 0.0000 0.0000 32.3297 0.0000
# 6 0.0000 0.0000 0.0000 0.0000 0.0000 18.9259
#
#
#
# Elastic Compliance Matrix: (Units=1/GPa)
#
#
# Indices 1 2 3 4 5 6 
#
# 1 0.012391 -0.003893 -0.000748 0.000000 0.000000 0.000000
# 2 -0.003893 0.025409 0.000937 0.000000 0.000000 0.000000
# 3 -0.000748 0.000937 0.006986 0.000000 0.000000 0.000000
# 4 0.000000 0.000000 0.000000 0.029927 0.000000 0.000000
# 5 0.000000 0.000000 0.000000 0.000000 0.030931 0.000000
# 6 0.000000 0.000000 0.000000 0.000000 0.000000 0.052838
#
#
# Mechanical properties :
#
#
# Convention : Reuss Voigt Hill
#
# Bulk Modulus (GPa) = 26.75293 33.67708 30.21501
# Shear Modulus (GPa) = 28.03498 33.94339 30.98919
#
# Velocity S-wave (km/s) = 3.64459 4.01030 3.83181
# Velocity P-wave (km/s) = 5.51238 6.11552 5.82177
#
# Compressibility (1/GPa) = 0.03737909
#
# Stress axis : x y z
#
# Youngs Moduli (GPa) = 80.70165 39.35683 143.13741
#
# Poissons Ratio (x) = 0.15320 0.10710
# Poissons Ratio (y) = 0.31415 -0.13418
# Poissons Ratio (z) = 0.06038 -0.03689
#
# Static dielectric constant tensor:
#      x y z
#    x 1.810760 0.000000 0.000000 
#    y 0.000000 1.742250 0.000000 
#    z 0.000000 0.000000 1.810880 
# 
# From -- ./inp_files/9767.got.cif
#   From: 2010.05.17/outbox.cif.g08.bks.cpg/sg43_5_cif.got.tgz:9767.got - 2010.06.03 19:21:55.
