data_PCOD9372626
_publ_section_title
;
Structure prediction by ZEFSAII (Michael W. Deem and Ramdas Pophale) SiO2 
 PCOD9372626
Probable space group: F D D 2
;
_chemical_formula_sum "Si O2"
_cell_formula_units_Z 96
_cell_length_a 9.590743
_cell_length_b 18.103415
_cell_length_c 23.843583
_cell_angle_alpha 90.000000
_cell_angle_beta 90.000000
_cell_angle_gamma 90.000000
_cell_volume 4139.846883
_symmetry_space_group_name_H-M "F D D 2"
_symmetry_group_IT_number 43
_symmetry_cell_setting 'orthorhombic'
loop_
_space_group_symop_operation_xyz
x,y,z
-x,-y,z
1/4-x,1/4+y,1/4+z
1/4+x,1/4-y,1/4+z
x,1/2+y,1/2+z
-x,1/2-y,1/2+z
1/4-x,3/4+y,3/4+z
1/4+x,3/4-y,3/4+z
1/2+x,y,1/2+z
1/2-x,-y,1/2+z
3/4-x,1/4+y,3/4+z
3/4+x,1/4-y,3/4+z
1/2+x,1/2+y,z
1/2-x,1/2-y,z
3/4-x,3/4+y,1/4+z
3/4+x,3/4-y,1/4+z
loop_
_atom_site_type_symbol
_atom_site_label
_atom_site_fract_x
_atom_site_fract_y
_atom_site_fract_z
Si Si1 0.682612 0.138418 0.379120
Si Si2 0.500000 0.000000 0.702710
Si Si3 0.250000 0.750000 0.478425
Si Si4 0.860815 0.411837 0.601655
Si Si5 0.194125 0.978242 0.910021
Si Si6 0.000000 0.000000 0.451285
Si Si7 0.750000 0.250000 0.754892
Si Si8 0.984991 0.344340 0.016312
O O1 0.712330 0.185205 0.434037
O O2 0.553236 0.174734 0.347319
O O3 0.793407 0.119526 0.330674
O O4 0.632911 0.058757 0.399016
O O5 0.410073 0.951637 0.658789
O O6 0.604711 0.948881 0.738680
O O7 0.119635 0.788302 0.511350
O O8 0.906425 0.328299 0.611839
O O9 0.930086 0.441707 0.546157
O O10 0.358724 0.987527 0.916801
O O11 0.119744 0.959768 0.968730
O O12 0.015133 0.922181 0.484721
#
# Coordination Sequence:
#
# PCOD9372626 Si02
#       8
#    16   8   8  16  16   8   8  16
#     4  12  26  45  75 110 144 194 248 305 376 444
#     4  11  24  49  72 108 146 194 247 315 368 452
#     4  12  27  49  76 106 148 193 248 309 366 450
#     4  11  24  45  75 106 143 192 254 298 374 448
#     4  12  25  46  73 106 148 190 247 307 368 450
#     4  12  25  49  72 107 149 190 235 315 374 426
#     4  11  26  45  78 103 141 205 244 305 372 450
#     4  12  27  48  77 107 152 198 247 309 378 441
#
# _framework density 23.189264999999999
#
# number of rings (size 3 to 8) (size 9 to 14) (size 15 to 20)
#    0.000    0.333    6.667    1.500    2.333    2.000 
#    3.000    0.000    0.000    0.000    0.000    0.000 
#    0.000    0.000    0.000    0.000    0.000    0.000 
#
# Total GULP energy -134120.527719 kJ/mol
# GULP energy per Si atom -5588.355322 kJ/mol
# Density = 2.313648 g / cm^3
# Si number density = 23.189265 Si / 1000 Ang^3
#
#
#
# Elastic Constant Matrix: (Units=GPa)
#
#
# Indices 1 2 3 4 5 6 
#
# 1 100.2997 -2.4495 24.4176 0.0000 0.0000 0.0000
# 2 -2.4495 108.9609 17.7375 0.0000 0.0000 0.0000
# 3 24.4176 17.7375 64.3032 0.0000 0.0000 0.0000
# 4 0.0000 0.0000 0.0000 19.0441 0.0000 0.0000
# 5 0.0000 0.0000 0.0000 0.0000 16.6240 0.0000
# 6 0.0000 0.0000 0.0000 0.0000 0.0000 32.4905
#
#
#
# Elastic Compliance Matrix: (Units=1/GPa)
#
#
# Indices 1 2 3 4 5 6 
#
# 1 0.011084 0.000978 -0.004479 0.000000 0.000000 0.000000
# 2 0.000978 0.009695 -0.003046 0.000000 0.000000 0.000000
# 3 -0.004479 -0.003046 0.018092 0.000000 0.000000 0.000000
# 4 0.000000 0.000000 0.000000 0.052510 0.000000 0.000000
# 5 0.000000 0.000000 0.000000 0.000000 0.060154 0.000000
# 6 0.000000 0.000000 0.000000 0.000000 0.000000 0.030778
#
#
# Mechanical properties :
#
#
# Convention : Reuss Voigt Hill
#
# Bulk Modulus (GPa) = 38.79110 39.21945 39.00528
# Shear Modulus (GPa) = 24.50979 29.22226 26.86602
#
# Velocity S-wave (km/s) = 3.25460 3.55373 3.40745
# Velocity P-wave (km/s) = 5.55766 5.81276 5.68664
#
# Compressibility (1/GPa) = 0.02577911
#
# Stress axis : x y z
#
# Youngs Moduli (GPa) = 90.21700 103.14145 55.27227
#
# Poissons Ratio (x) = -0.10090 0.24756
# Poissons Ratio (y) = -0.08826 0.16835
# Poissons Ratio (z) = 0.40407 0.31416
#
# Static dielectric constant tensor:
#      x y z
#    x 1.895860 0.000000 0.000000 
#    y 0.000000 1.905860 0.000000 
#    z 0.000000 0.000000 1.902800 
# 
# From -- ./inp_files/21124.got.cif
#   From: 2010.05.17/outbox.cif.g08.bks.cpg/sg43_11_cif.got.tgz:21124.got - 2010.06.03 19:21:55.
