data_PCOD9372259
_publ_section_title
;
Structure prediction by ZEFSAII (Michael W. Deem and Ramdas Pophale) SiO2 
 PCOD9372259
Probable space group: F D D 2
;
_chemical_formula_sum "Si O2"
_cell_formula_units_Z 72
_cell_length_a 10.717109
_cell_length_b 20.075764
_cell_length_c 16.703601
_cell_angle_alpha 90.000000
_cell_angle_beta 90.000000
_cell_angle_gamma 90.000000
_cell_volume 3593.849093
_symmetry_space_group_name_H-M "F D D 2"
_symmetry_group_IT_number 43
_symmetry_cell_setting 'orthorhombic'
loop_
_space_group_symop_operation_xyz
x,y,z
-x,-y,z
1/4-x,1/4+y,1/4+z
1/4+x,1/4-y,1/4+z
x,1/2+y,1/2+z
-x,1/2-y,1/2+z
1/4-x,3/4+y,3/4+z
1/4+x,3/4-y,3/4+z
1/2+x,y,1/2+z
1/2-x,-y,1/2+z
3/4-x,1/4+y,3/4+z
3/4+x,1/4-y,3/4+z
1/2+x,1/2+y,z
1/2-x,1/2-y,z
3/4-x,3/4+y,1/4+z
3/4+x,3/4-y,1/4+z
loop_
_atom_site_type_symbol
_atom_site_label
_atom_site_fract_x
_atom_site_fract_y
_atom_site_fract_z
Si Si1 0.194404 0.932238 0.988070
Si Si2 0.405834 0.560270 0.161832
Si Si3 0.615262 0.453671 0.446339
Si Si4 0.026519 0.328311 0.045290
Si Si5 0.500000 0.500000 0.875872
O O1 0.270154 0.871416 0.950874
O O2 0.075742 0.949522 0.932886
O O3 0.283032 0.997216 0.985520
O O4 0.152633 0.918066 0.077921
O O5 0.500000 0.500000 0.147716
O O6 0.298124 0.541139 0.224629
O O7 0.500000 0.500000 0.418756
O O8 0.564577 0.399430 0.508690
O O9 0.683866 0.418850 0.371411
O O10 0.148647 0.288757 0.073136
#
# Coordination Sequence:
#
# PCOD9372259 Si02
#       5
#    16  16  16  16   8
#     4  11  26  46  68 101 139 177 230 286 340 406
#     4  12  26  44  72  99 133 185 229 281 348 407
#     4  11  24  45  69 101 141 173 234 285 336 411
#     4  11  25  43  71  98 135 187 223 283 342 402
#     4  10  26  46  66 102 142 174 230 288 338 404
#
# _framework density 20.034229
#
# number of rings (size 3 to 8) (size 9 to 14) (size 15 to 20)
#    0.000    0.889    3.333    2.000    9.333    1.778 
#    0.000    0.000    0.000    0.000    0.000    0.000 
#    0.000    0.000    0.000    0.000    0.000    0.000 
#
# Total GULP energy -100715.836362 kJ/mol
# GULP energy per Si atom -5595.324242 kJ/mol
# Density = 1.998863 g / cm^3
# Si number density = 20.034229 Si / 1000 Ang^3
#
#
#
# Elastic Constant Matrix: (Units=GPa)
#
#
# Indices 1 2 3 4 5 6 
#
# 1 144.1661 46.0231 87.2689 0.0000 0.0000 0.0000
# 2 46.0231 81.0041 70.8497 0.0000 0.0000 0.0000
# 3 87.2689 70.8497 166.1634 0.0000 0.0000 0.0000
# 4 0.0000 0.0000 0.0000 26.5265 0.0000 0.0000
# 5 0.0000 0.0000 0.0000 0.0000 27.1290 0.0000
# 6 0.0000 0.0000 0.0000 0.0000 0.0000 41.8670
#
#
#
# Elastic Compliance Matrix: (Units=1/GPa)
#
#
# Indices 1 2 3 4 5 6 
#
# 1 0.010330 -0.001792 -0.004661 0.000000 0.000000 0.000000
# 2 -0.001792 0.019998 -0.007586 0.000000 0.000000 0.000000
# 3 -0.004661 -0.007586 0.011701 0.000000 0.000000 0.000000
# 4 0.000000 0.000000 0.000000 0.037698 0.000000 0.000000
# 5 0.000000 0.000000 0.000000 0.000000 0.036861 0.000000
# 6 0.000000 0.000000 0.000000 0.000000 0.000000 0.023885
#
#
# Mechanical properties :
#
#
# Convention : Reuss Voigt Hill
#
# Bulk Modulus (GPa) = 71.68091 88.84635 80.26363
# Shear Modulus (GPa) = 28.86813 31.58397 30.22605
#
# Velocity S-wave (km/s) = 3.80009 3.97482 3.88844
# Velocity P-wave (km/s) = 7.42369 8.09377 7.76596
#
# Compressibility (1/GPa) = 0.01395072
#
# Stress axis : x y z
#
# Youngs Moduli (GPa) = 96.80345 50.00488 85.46555
#
# Poissons Ratio (x) = 0.08962 0.39837
# Poissons Ratio (y) = 0.17350 0.64831
# Poissons Ratio (z) = 0.45122 0.37932
#
# Static dielectric constant tensor:
#      x y z
#    x 1.716080 0.000000 0.000000 
#    y 0.000000 1.678470 0.000000 
#    z 0.000000 0.000000 1.679940 
# 
# From -- ./inp_files/9446.got.cif
#   From: 2010.05.17/outbox.cif.g08.bks.cpg/sg43_5_cif.got.tgz:9446.got - 2010.06.03 19:21:55.
