data_PCOD9372028
_publ_section_title
;
Structure prediction by ZEFSAII (Michael W. Deem and Ramdas Pophale) SiO2 
 PCOD9372028
Probable space group: F D D 2
;
_chemical_formula_sum "Si O2"
_cell_formula_units_Z 88
_cell_length_a 16.404855
_cell_length_b 19.090920
_cell_length_c 12.252028
_cell_angle_alpha 90.000000
_cell_angle_beta 90.000000
_cell_angle_gamma 90.000000
_cell_volume 3837.136373
_symmetry_space_group_name_H-M "F D D 2"
_symmetry_group_IT_number 43
_symmetry_cell_setting 'orthorhombic'
loop_
_space_group_symop_operation_xyz
x,y,z
-x,-y,z
1/4-x,1/4+y,1/4+z
1/4+x,1/4-y,1/4+z
x,1/2+y,1/2+z
-x,1/2-y,1/2+z
1/4-x,3/4+y,3/4+z
1/4+x,3/4-y,3/4+z
1/2+x,y,1/2+z
1/2-x,-y,1/2+z
3/4-x,1/4+y,3/4+z
3/4+x,1/4-y,3/4+z
1/2+x,1/2+y,z
1/2-x,1/2-y,z
3/4-x,3/4+y,1/4+z
3/4+x,3/4-y,1/4+z
loop_
_atom_site_type_symbol
_atom_site_label
_atom_site_fract_x
_atom_site_fract_y
_atom_site_fract_z
Si Si1 0.329099 0.457807 0.311930
Si Si2 0.750000 0.750000 0.511671
Si Si3 0.749240 0.091931 0.245833
Si Si4 0.567238 0.365042 0.258862
Si Si5 0.918756 0.092093 0.885918
Si Si6 0.108847 0.074993 0.917332
O O1 0.418760 0.488878 0.329485
O O2 0.273834 0.510095 0.244384
O O3 0.293487 0.448116 0.431362
O O4 0.346048 0.388156 0.244059
O O5 0.722791 0.681835 0.446689
O O6 0.719206 0.112466 0.127446
O O7 0.835495 0.129151 0.268475
O O8 0.679251 0.101582 0.335065
O O9 0.877726 0.134466 0.783033
O O10 0.017610 0.092999 0.875380
O O11 0.891866 0.011166 0.909650
#
# Coordination Sequence:
#
# PCOD9372028 Si02
#       6
#    16   8  16  16  16  16
#     4  11  26  43  73 104 142 193 246 311 373 453
#     4  10  24  42  68 102 136 184 230 312 354 438
#     4  11  25  45  74 102 150 190 244 303 379 451
#     4  11  24  46  69 109 137 187 244 303 371 447
#     4  11  27  45  75 106 151 192 260 307 386 452
#     4  11  26  49  71 112 147 205 243 317 380 465
#
# _framework density 22.933768000000001
#
# number of rings (size 3 to 8) (size 9 to 14) (size 15 to 20)
#    0.000    1.091    1.818    2.182   12.727    0.000 
#    6.545    0.000    0.000    0.000    0.000    0.000 
#    0.000    0.000    0.000    0.000    0.000    0.000 
#
# Total GULP energy -122778.965934 kJ/mol
# GULP energy per Si atom -5580.862088 kJ/mol
# Density = 2.288157 g / cm^3
# Si number density = 22.933768 Si / 1000 Ang^3
#
#
#
# Elastic Constant Matrix: (Units=GPa)
#
#
# Indices 1 2 3 4 5 6 
#
# 1 165.5335 37.7779 52.5463 0.0000 0.0000 0.0000
# 2 37.7779 90.9810 49.7811 0.0000 0.0000 0.0000
# 3 52.5463 49.7811 121.3682 0.0000 0.0000 0.0000
# 4 0.0000 0.0000 0.0000 25.3655 0.0000 0.0000
# 5 0.0000 0.0000 0.0000 0.0000 31.4342 0.0000
# 6 0.0000 0.0000 0.0000 0.0000 0.0000 31.0640
#
#
#
# Elastic Compliance Matrix: (Units=1/GPa)
#
#
# Indices 1 2 3 4 5 6 
#
# 1 0.007192 -0.001654 -0.002435 0.000000 0.000000 0.000000
# 2 -0.001654 0.014552 -0.005253 0.000000 0.000000 0.000000
# 3 -0.002435 -0.005253 0.011448 0.000000 0.000000 0.000000
# 4 0.000000 0.000000 0.000000 0.039424 0.000000 0.000000
# 5 0.000000 0.000000 0.000000 0.000000 0.031813 0.000000
# 6 0.000000 0.000000 0.000000 0.000000 0.000000 0.032192
#
#
# Mechanical properties :
#
#
# Convention : Reuss Voigt Hill
#
# Bulk Modulus (GPa) = 68.92579 73.12149 71.02364
# Shear Modulus (GPa) = 31.22282 33.42455 32.32369
#
# Velocity S-wave (km/s) = 3.69376 3.82178 3.75832
# Velocity P-wave (km/s) = 6.95064 7.17131 7.06184
#
# Compressibility (1/GPa) = 0.01450836
#
# Stress axis : x y z
#
# Youngs Moduli (GPa) = 139.05272 68.71874 87.34937
#
# Poissons Ratio (x) = 0.11364 0.21272
# Poissons Ratio (y) = 0.22994 0.45883
# Poissons Ratio (z) = 0.33864 0.36097
#
# Static dielectric constant tensor:
#      x y z
#    x 1.881170 0.000000 0.000000 
#    y 0.000000 1.986290 0.000000 
#    z 0.000000 0.000000 1.794640 
# 
# From -- ./inp_files/6627.got.cif
#   From: 2010.05.17/outbox.cif.g08.bks.cpg/sg43_4_cif.got.tgz:6627.got - 2010.06.03 19:21:55.
