data_PCOD9372399
_publ_section_title
;
Structure prediction by ZEFSAII (Michael W. Deem and Ramdas Pophale) SiO2 
 PCOD9372399
Probable space group: F D D 2
;
_chemical_formula_sum "Si O2"
_cell_formula_units_Z 88
_cell_length_a 30.026952
_cell_length_b 9.395765
_cell_length_c 12.945199
_cell_angle_alpha 90.000000
_cell_angle_beta 90.000000
_cell_angle_gamma 90.000000
_cell_volume 3652.179604
_symmetry_space_group_name_H-M "F D D 2"
_symmetry_group_IT_number 43
_symmetry_cell_setting 'orthorhombic'
loop_
_space_group_symop_operation_xyz
x,y,z
-x,-y,z
1/4-x,1/4+y,1/4+z
1/4+x,1/4-y,1/4+z
x,1/2+y,1/2+z
-x,1/2-y,1/2+z
1/4-x,3/4+y,3/4+z
1/4+x,3/4-y,3/4+z
1/2+x,y,1/2+z
1/2-x,-y,1/2+z
3/4-x,1/4+y,3/4+z
3/4+x,1/4-y,3/4+z
1/2+x,1/2+y,z
1/2-x,1/2-y,z
3/4-x,3/4+y,1/4+z
3/4+x,3/4-y,1/4+z
loop_
_atom_site_type_symbol
_atom_site_label
_atom_site_fract_x
_atom_site_fract_y
_atom_site_fract_z
Si Si1 0.926876 0.436812 0.881570
Si Si2 0.575839 0.367058 0.569172
Si Si3 0.171493 0.123337 0.440510
Si Si4 0.335031 0.197711 0.010668
Si Si5 0.000000 0.000000 0.876230
Si Si6 0.738496 0.011233 0.771990
O O1 0.878733 0.363524 0.896646
O O2 0.933753 0.495205 0.765708
O O3 0.963392 0.343179 0.941880
O O4 0.924987 0.577693 0.952209
O O5 0.619361 0.268396 0.571207
O O6 0.586528 0.498293 0.643495
O O7 0.526534 0.311901 0.590534
O O8 0.204410 0.094541 0.345348
O O9 0.172324 0.972489 0.503619
O O10 0.293472 0.278651 0.059717
O O11 0.013439 0.128367 0.949397
#
# Coordination Sequence:
#
# PCOD9372399 Si02
#       6
#    16  16  16  16   8  16
#     4  11  21  42  74 107 144 195 252 308 378 453
#     4  11  22  42  75 104 145 194 247 307 384 453
#     4  11  21  43  74 107 142 196 252 310 376 450
#     4  11  22  45  72 103 141 195 245 310 378 452
#     4  12  28  48  66 102 146 192 254 312 374 462
#     4  12  25  47  68 108 152 193 256 314 378 453
#
# _framework density 24.095199000000001
#
# number of rings (size 3 to 8) (size 9 to 14) (size 15 to 20)
#    0.000    0.727    3.636    7.091    0.000    0.000 
#   16.364    0.000    4.000    0.000    0.000    0.000 
#    0.000    0.000    0.000    0.000    0.000    0.000 
#
# Total GULP energy -123022.746230 kJ/mol
# GULP energy per Si atom -5591.943010 kJ/mol
# Density = 2.404036 g / cm^3
# Si number density = 24.095199 Si / 1000 Ang^3
#
#
#
# Elastic Constant Matrix: (Units=GPa)
#
#
# Indices 1 2 3 4 5 6 
#
# 1 133.0101 22.7959 35.2047 0.0000 0.0000 0.0000
# 2 22.7959 50.2283 44.3001 0.0000 0.0000 0.0000
# 3 35.2047 44.3001 104.7648 0.0000 0.0000 0.0000
# 4 0.0000 0.0000 0.0000 41.8701 0.0000 0.0000
# 5 0.0000 0.0000 0.0000 0.0000 29.8289 0.0000
# 6 0.0000 0.0000 0.0000 0.0000 0.0000 23.8570
#
#
#
# Elastic Compliance Matrix: (Units=1/GPa)
#
#
# Indices 1 2 3 4 5 6 
#
# 1 0.008390 -0.002107 -0.001928 0.000000 0.000000 0.000000
# 2 -0.002107 0.032279 -0.012941 0.000000 0.000000 0.000000
# 3 -0.001928 -0.012941 0.015665 0.000000 0.000000 0.000000
# 4 0.000000 0.000000 0.000000 0.023883 0.000000 0.000000
# 5 0.000000 0.000000 0.000000 0.000000 0.033525 0.000000
# 6 0.000000 0.000000 0.000000 0.000000 0.000000 0.041916
#
#
# Mechanical properties :
#
#
# Convention : Reuss Voigt Hill
#
# Bulk Modulus (GPa) = 44.68031 54.73385 49.70708
# Shear Modulus (GPa) = 25.37140 31.49138 28.43139
#
# Velocity S-wave (km/s) = 3.24846 3.61911 3.43878
# Velocity P-wave (km/s) = 5.71432 6.34263 6.03666
#
# Compressibility (1/GPa) = 0.02238123
#
# Stress axis : x y z
#
# Youngs Moduli (GPa) = 119.19382 30.97968 63.83465
#
# Poissons Ratio (x) = 0.06527 0.12310
# Poissons Ratio (y) = 0.25113 0.82611
# Poissons Ratio (z) = 0.22985 0.40092
#
# Static dielectric constant tensor:
#      x y z
#    x 1.981780 0.000000 0.000000 
#    y 0.000000 1.954940 0.000000 
#    z 0.000000 0.000000 1.907640 
# 
# From -- ./inp_files/8222.got.cif
#   From: 2010.05.17/outbox.cif.g08.bks.cpg/sg43_5_cif.got.tgz:8222.got - 2010.06.03 19:21:55.
