data_PCOD9372914
_publ_section_title
;
Structure prediction by ZEFSAII (Michael W. Deem and Ramdas Pophale) SiO2 
 PCOD9372914
Probable space group: F D D 2
;
_chemical_formula_sum "Si O2"
_cell_formula_units_Z 56
_cell_length_a 18.431474
_cell_length_b 13.931482
_cell_length_c 7.729519
_cell_angle_alpha 90.000000
_cell_angle_beta 90.000000
_cell_angle_gamma 90.000000
_cell_volume 1984.768484
_symmetry_space_group_name_H-M "F D D 2"
_symmetry_group_IT_number 43
_symmetry_cell_setting 'orthorhombic'
loop_
_space_group_symop_operation_xyz
x,y,z
-x,-y,z
1/4-x,1/4+y,1/4+z
1/4+x,1/4-y,1/4+z
x,1/2+y,1/2+z
-x,1/2-y,1/2+z
1/4-x,3/4+y,3/4+z
1/4+x,3/4-y,3/4+z
1/2+x,y,1/2+z
1/2-x,-y,1/2+z
3/4-x,1/4+y,3/4+z
3/4+x,1/4-y,3/4+z
1/2+x,1/2+y,z
1/2-x,1/2-y,z
3/4-x,3/4+y,1/4+z
3/4+x,3/4-y,1/4+z
loop_
_atom_site_type_symbol
_atom_site_label
_atom_site_fract_x
_atom_site_fract_y
_atom_site_fract_z
Si Si1 0.633515 0.103433 0.442610
Si Si2 0.039634 0.832070 0.363899
Si Si3 0.847486 0.014827 0.273129
Si Si4 0.000000 0.500000 0.295324
O O1 0.670985 0.041460 0.286818
O O2 0.691754 0.191002 0.433801
O O3 0.642719 0.070730 0.639492
O O4 0.548742 0.077906 0.401949
O O5 0.079052 0.929904 0.312921
O O6 0.059520 0.764282 0.202202
O O7 0.956325 0.835164 0.416546
#
# Coordination Sequence:
#
# PCOD9372914 Si02
#       4
#    16  16  16   8
#     4  12  28  54  85 128 172 238 291 372 433 552
#     4  12  27  52  80 124 167 229 291 365 435 535
#     4  12  28  50  87 118 178 223 297 355 453 512
#     4  12  30  54  94 120 186 224 310 360 456 520
#
# _framework density 28.214877000000001
#
# number of rings (size 3 to 8) (size 9 to 14) (size 15 to 20)
#    0.000    0.000    2.857    5.143    4.000    8.000 
#    0.000    1.429    0.000    0.000    0.000    0.000 
#    0.000    0.000    0.000    0.000    0.000    0.000 
#
# Total GULP energy -78290.477545 kJ/mol
# GULP energy per Si atom -5592.176968 kJ/mol
# Density = 2.815066 g / cm^3
# Si number density = 28.214877 Si / 1000 Ang^3
#
#
#
# Elastic Constant Matrix: (Units=GPa)
#
#
# Indices 1 2 3 4 5 6 
#
# 1 185.9041 67.5641 64.2152 0.0000 0.0000 0.0000
# 2 67.5641 90.6282 45.7268 0.0000 0.0000 0.0000
# 3 64.2152 45.7268 187.4914 0.0000 0.0000 0.0000
# 4 0.0000 0.0000 0.0000 44.6016 0.0000 0.0000
# 5 0.0000 0.0000 0.0000 0.0000 67.4956 0.0000
# 6 0.0000 0.0000 0.0000 0.0000 0.0000 63.5340
#
#
#
# Elastic Compliance Matrix: (Units=1/GPa)
#
#
# Indices 1 2 3 4 5 6 
#
# 1 0.007691 -0.005023 -0.001409 0.000000 0.000000 0.000000
# 2 -0.005023 0.015863 -0.002148 0.000000 0.000000 0.000000
# 3 -0.001409 -0.002148 0.006340 0.000000 0.000000 0.000000
# 4 0.000000 0.000000 0.000000 0.022421 0.000000 0.000000
# 5 0.000000 0.000000 0.000000 0.000000 0.014816 0.000000
# 6 0.000000 0.000000 0.000000 0.000000 0.000000 0.015740
#
#
# Mechanical properties :
#
#
# Convention : Reuss Voigt Hill
#
# Bulk Modulus (GPa) = 78.53505 91.00398 84.76952
# Shear Modulus (GPa) = 47.94965 54.22741 51.08853
#
# Velocity S-wave (km/s) = 4.12691 4.38875 4.25984
# Velocity P-wave (km/s) = 7.11361 7.61613 7.36916
#
# Compressibility (1/GPa) = 0.01273317
#
# Stress axis : x y z
#
# Youngs Moduli (GPa) = 130.01491 63.04086 157.72372
#
# Poissons Ratio (x) = 0.31665 0.22227
# Poissons Ratio (y) = 0.65306 0.33885
# Poissons Ratio (z) = 0.18322 0.13544
#
# Static dielectric constant tensor:
#      x y z
#    x 2.149500 0.000000 0.000000 
#    y 0.000000 2.405860 0.000000 
#    z 0.000000 0.000000 2.118640 
# 
# From -- ./inp_files/2542.got.cif
#   From: 2010.05.17/outbox.cif.g08.bks.cpg/sg43_2_cif.got.tgz:2542.got - 2010.06.03 19:21:55.
