data_PCOD9372027
_publ_section_title
;
Structure prediction by ZEFSAII (Michael W. Deem and Ramdas Pophale) SiO2 
 PCOD9372027
Probable space group: F D D 2
;
_chemical_formula_sum "Si O2"
_cell_formula_units_Z 56
_cell_length_a 26.340172
_cell_length_b 17.518792
_cell_length_c 5.268591
_cell_angle_alpha 90.000000
_cell_angle_beta 90.000000
_cell_angle_gamma 90.000000
_cell_volume 2431.180751
_symmetry_space_group_name_H-M "F D D 2"
_symmetry_group_IT_number 43
_symmetry_cell_setting 'orthorhombic'
loop_
_space_group_symop_operation_xyz
x,y,z
-x,-y,z
1/4-x,1/4+y,1/4+z
1/4+x,1/4-y,1/4+z
x,1/2+y,1/2+z
-x,1/2-y,1/2+z
1/4-x,3/4+y,3/4+z
1/4+x,3/4-y,3/4+z
1/2+x,y,1/2+z
1/2-x,-y,1/2+z
3/4-x,1/4+y,3/4+z
3/4+x,1/4-y,3/4+z
1/2+x,1/2+y,z
1/2-x,1/2-y,z
3/4-x,3/4+y,1/4+z
3/4+x,3/4-y,1/4+z
loop_
_atom_site_type_symbol
_atom_site_label
_atom_site_fract_x
_atom_site_fract_y
_atom_site_fract_z
Si Si1 0.750000 0.250000 0.455691
Si Si2 0.921512 0.873976 0.811932
Si Si3 0.708477 0.459403 0.055567
Si Si4 0.554248 0.853852 0.017826
O O1 0.790741 0.196146 0.595285
O O2 0.715895 0.189702 0.301044
O O3 0.938063 0.824922 0.567208
O O4 0.864376 0.897697 0.744633
O O5 0.927308 0.826427 0.070715
O O6 0.767297 0.433011 0.058381
O O7 0.706002 0.549716 0.011737
#
# Coordination Sequence:
#
# PCOD9372027 Si02
#       4
#     8  16  16  16
#     4  10  24  42  68 102 134 176 240 292 352 438
#     4  11  26  46  70 103 142 189 241 306 369 438
#     4  11  26  44  69 101 139 188 240 293 372 444
#     4  11  24  46  71 102 144 189 241 306 369 439
#
# _framework density 23.034075000000001
#
# number of rings (size 3 to 8) (size 9 to 14) (size 15 to 20)
#    0.000    1.143    0.000    5.143    0.000   20.571 
#    0.000    0.000    0.000    0.000    0.000    0.000 
#    0.000    0.000    0.000    0.000    0.000    0.000 
#
# Total GULP energy -78223.890427 kJ/mol
# GULP energy per Si atom -5587.420745 kJ/mol
# Density = 2.298165 g / cm^3
# Si number density = 23.034075 Si / 1000 Ang^3
#
#
#
# Elastic Constant Matrix: (Units=GPa)
#
#
# Indices 1 2 3 4 5 6 
#
# 1 183.5652 32.6160 25.6502 0.0001 -0.0001 0.0000
# 2 32.6160 137.9970 31.0270 0.0002 0.0000 -0.0001
# 3 25.6502 31.0270 120.1246 0.0008 -0.0006 -0.0004
# 4 0.0001 0.0002 0.0008 37.3232 -0.0002 -0.0002
# 5 -0.0001 0.0000 -0.0006 -0.0002 29.3972 0.0000
# 6 0.0000 -0.0001 -0.0004 -0.0002 0.0000 22.5599
#
#
#
# Elastic Compliance Matrix: (Units=1/GPa)
#
#
# Indices 1 2 3 4 5 6 
#
# 1 0.005784 -0.001157 -0.000936 0.000000 0.000000 0.000000
# 2 -0.001157 0.007925 -0.001800 0.000000 0.000000 0.000000
# 3 -0.000936 -0.001800 0.008990 0.000000 0.000000 0.000000
# 4 0.000000 0.000000 0.000000 0.026793 0.000000 0.000000
# 5 0.000000 0.000000 0.000000 0.000000 0.034017 0.000000
# 6 0.000000 0.000000 0.000000 0.000000 0.000000 0.044327
#
#
# Mechanical properties :
#
#
# Convention : Reuss Voigt Hill
#
# Bulk Modulus (GPa) = 67.05756 68.91926 67.98841
# Shear Modulus (GPa) = 35.56421 41.34896 38.45658
#
# Velocity S-wave (km/s) = 3.93362 4.24148 4.09045
# Velocity P-wave (km/s) = 7.05738 7.34659 7.20344
#
# Compressibility (1/GPa) = 0.01491256
#
# Stress axis : x y z
#
# Youngs Moduli (GPa) = 172.89112 126.18981 111.24072
#
# Poissons Ratio (x) = 0.14594 0.10416
# Poissons Ratio (y) = 0.19996 0.20022
# Poissons Ratio (z) = 0.16188 0.22713
#
# Static dielectric constant tensor:
#      x y z
#    x 1.913300 0.000000 0.000000 
#    y 0.000000 1.888210 0.000000 
#    z 0.000000 0.000000 1.858680 
# 
# From -- ./inp_files/434.got.cif
#   From: 2010.05.17/outbox.cif.g08.bks.cpg/sg43_1_cif.got.tgz:434.got - 2010.06.03 19:21:55.
