data_PCOD9372911
_publ_section_title
;
Structure prediction by ZEFSAII (Michael W. Deem and Ramdas Pophale) SiO2 
 PCOD9372911
Probable space group: F D D 2
;
_chemical_formula_sum "Si O2"
_cell_formula_units_Z 72
_cell_length_a 17.564670
_cell_length_b 18.592051
_cell_length_c 8.601704
_cell_angle_alpha 90.000000
_cell_angle_beta 90.000000
_cell_angle_gamma 90.000000
_cell_volume 2809.000332
_symmetry_space_group_name_H-M "F D D 2"
_symmetry_group_IT_number 43
_symmetry_cell_setting 'orthorhombic'
loop_
_space_group_symop_operation_xyz
x,y,z
-x,-y,z
1/4-x,1/4+y,1/4+z
1/4+x,1/4-y,1/4+z
x,1/2+y,1/2+z
-x,1/2-y,1/2+z
1/4-x,3/4+y,3/4+z
1/4+x,3/4-y,3/4+z
1/2+x,y,1/2+z
1/2-x,-y,1/2+z
3/4-x,1/4+y,3/4+z
3/4+x,1/4-y,3/4+z
1/2+x,1/2+y,z
1/2-x,1/2-y,z
3/4-x,3/4+y,1/4+z
3/4+x,3/4-y,1/4+z
loop_
_atom_site_type_symbol
_atom_site_label
_atom_site_fract_x
_atom_site_fract_y
_atom_site_fract_z
Si Si1 0.250000 0.750000 0.559440
Si Si2 0.513421 0.865361 0.100581
Si Si3 0.158312 0.514801 0.825415
Si Si4 0.355112 0.186372 0.275480
Si Si5 0.466048 0.603672 0.250328
O O1 0.264558 0.682438 0.450518
O O2 0.321790 0.753452 0.677133
O O3 0.470880 0.790929 0.133775
O O4 0.602139 0.862038 0.149702
O O5 0.503101 0.874406 0.917601
O O6 0.169285 0.545583 0.652080
O O7 0.081925 0.468160 0.792499
O O8 0.161085 0.583225 0.937791
O O9 0.283855 0.154621 0.373483
#
# Coordination Sequence:
#
# PCOD9372911 Si02
#       5
#     8  16  16  16  16
#     4  12  28  52  76 122 166 230 288 366 430 534
#     4  12  30  46  83 120 170 225 299 355 449 526
#     4  12  27  51  79 122 164 231 288 363 442 523
#     4  12  27  52  84 119 173 226 292 361 447 529
#     4  12  28  51  85 120 172 230 291 367 444 534
#
# _framework density 25.631895
#
# number of rings (size 3 to 8) (size 9 to 14) (size 15 to 20)
#    0.000    0.000    2.222    5.333   15.556    0.000 
#    0.000    0.000    0.000    0.000    0.000    0.000 
#    0.000    0.000    0.000    0.000    0.000    0.000 
#
# Total GULP energy -100702.201175 kJ/mol
# GULP energy per Si atom -5594.566732 kJ/mol
# Density = 2.557356 g / cm^3
# Si number density = 25.631895 Si / 1000 Ang^3
#
#
#
# Elastic Constant Matrix: (Units=GPa)
#
#
# Indices 1 2 3 4 5 6 
#
# 1 129.5040 50.7647 73.6139 0.0000 0.0000 0.0000
# 2 50.7647 118.6821 56.9507 0.0000 0.0000 0.0000
# 3 73.6139 56.9507 146.1165 0.0000 0.0000 0.0000
# 4 0.0000 0.0000 0.0000 44.4481 0.0000 0.0000
# 5 0.0000 0.0000 0.0000 0.0000 49.6407 0.0000
# 6 0.0000 0.0000 0.0000 0.0000 0.0000 35.8679
#
#
#
# Elastic Compliance Matrix: (Units=1/GPa)
#
#
# Indices 1 2 3 4 5 6 
#
# 1 0.011446 -0.002618 -0.004746 0.000000 0.000000 0.000000
# 2 -0.002618 0.010963 -0.002954 0.000000 0.000000 0.000000
# 3 -0.004746 -0.002954 0.010386 0.000000 0.000000 0.000000
# 4 0.000000 0.000000 0.000000 0.022498 0.000000 0.000000
# 5 0.000000 0.000000 0.000000 0.000000 0.020145 0.000000
# 6 0.000000 0.000000 0.000000 0.000000 0.000000 0.027880
#
#
# Mechanical properties :
#
#
# Convention : Reuss Voigt Hill
#
# Bulk Modulus (GPa) = 82.24446 84.10680 83.17563
# Shear Modulus (GPa) = 39.06009 40.18956 39.62483
#
# Velocity S-wave (km/s) = 3.90793 3.96403 3.93608
# Velocity P-wave (km/s) = 7.24700 7.33730 7.29229
#
# Compressibility (1/GPa) = 0.01215887
#
# Stress axis : x y z
#
# Youngs Moduli (GPa) = 87.36752 91.21306 96.28186
#
# Poissons Ratio (x) = 0.23884 0.45694
# Poissons Ratio (y) = 0.22877 0.28441
# Poissons Ratio (z) = 0.41464 0.26944
#
# Static dielectric constant tensor:
#      x y z
#    x 2.086670 0.000000 0.000000 
#    y 0.000000 2.087530 0.000000 
#    z 0.000000 0.000000 2.021430 
# 
# From -- ./inp_files/2655.got.cif
#   From: 2010.05.17/outbox.cif.g08.bks.cpg/sg43_2_cif.got.tgz:2655.got - 2010.06.03 19:21:55.
