data_PCOD9372536
_publ_section_title
;
Structure prediction by ZEFSAII (Michael W. Deem and Ramdas Pophale) SiO2 
 PCOD9372536
Probable space group: F D D 2
;
_chemical_formula_sum "Si O2"
_cell_formula_units_Z 96
_cell_length_a 14.984686
_cell_length_b 17.431067
_cell_length_c 14.780744
_cell_angle_alpha 90.000000
_cell_angle_beta 90.000000
_cell_angle_gamma 90.000000
_cell_volume 3860.716522
_symmetry_space_group_name_H-M "F D D 2"
_symmetry_group_IT_number 43
_symmetry_cell_setting 'orthorhombic'
loop_
_space_group_symop_operation_xyz
x,y,z
-x,-y,z
1/4-x,1/4+y,1/4+z
1/4+x,1/4-y,1/4+z
x,1/2+y,1/2+z
-x,1/2-y,1/2+z
1/4-x,3/4+y,3/4+z
1/4+x,3/4-y,3/4+z
1/2+x,y,1/2+z
1/2-x,-y,1/2+z
3/4-x,1/4+y,3/4+z
3/4+x,1/4-y,3/4+z
1/2+x,1/2+y,z
1/2-x,1/2-y,z
3/4-x,3/4+y,1/4+z
3/4+x,3/4-y,1/4+z
loop_
_atom_site_type_symbol
_atom_site_label
_atom_site_fract_x
_atom_site_fract_y
_atom_site_fract_z
Si Si1 0.320663 0.318930 0.490060
Si Si2 0.927865 0.567930 0.335360
Si Si3 0.490953 0.779518 0.686456
Si Si4 0.078293 0.935350 0.439694
Si Si5 0.829879 0.810437 0.885303
Si Si6 0.468899 0.735055 0.885420
O O1 0.250000 0.250000 0.485891
O O2 0.287418 0.387536 0.428623
O O3 0.318744 0.352490 0.591997
O O4 0.414922 0.285582 0.457326
O O5 0.834713 0.529479 0.361529
O O6 0.929926 0.599393 0.232231
O O7 0.942367 0.644851 0.393745
O O8 0.000000 0.500000 0.345763
O O9 0.573892 0.722397 0.681708
O O10 0.446276 0.767052 0.785125
O O11 0.077051 0.896511 0.538647
O O12 0.000000 0.000000 0.442167
O O13 0.750000 0.750000 0.882292
O O14 0.924391 0.767487 0.891038
#
# Coordination Sequence:
#
# PCOD9372536 Si02
#       6
#    16  16  16  16  16  16
#     4  11  23  43  71 103 144 182 233 298 363 430
#     4  11  25  46  73 101 145 193 242 306 367 444
#     4  11  25  45  68 109 140 190 241 296 368 433
#     4   9  21  44  66  96 135 181 234 290 357 423
#     4   9  21  47  66  97 139 183 239 292 359 430
#     4  11  25  44  70 109 141 189 247 297 372 443
#
# _framework density 24.865849999999998
#
# number of rings (size 3 to 8) (size 9 to 14) (size 15 to 20)
#    0.000    1.667    1.667    1.000    7.000    2.000 
#   30.000    0.000    0.000    0.000    0.000    0.000 
#    0.000    0.000    0.000    0.000    0.000    0.000 
#
# Total GULP energy -134255.300122 kJ/mol
# GULP energy per Si atom -5593.970838 kJ/mol
# Density = 2.480925 g / cm^3
# Si number density = 24.865850 Si / 1000 Ang^3
#
#
#
# Elastic Constant Matrix: (Units=GPa)
#
#
# Indices 1 2 3 4 5 6 
#
# 1 157.0142 34.4940 43.6238 0.0000 0.0000 0.0000
# 2 34.4940 98.9694 16.2102 0.0000 0.0000 0.0000
# 3 43.6238 16.2102 102.9900 0.0000 0.0000 0.0000
# 4 0.0000 0.0000 0.0000 36.3919 0.0000 0.0000
# 5 0.0000 0.0000 0.0000 0.0000 53.6105 0.0000
# 6 0.0000 0.0000 0.0000 0.0000 0.0000 6.8929
#
#
#
# Elastic Compliance Matrix: (Units=1/GPa)
#
#
# Indices 1 2 3 4 5 6 
#
# 1 0.007656 -0.002194 -0.002898 0.000000 0.000000 0.000000
# 2 -0.002194 0.011000 -0.000802 0.000000 0.000000 0.000000
# 3 -0.002898 -0.000802 0.011063 0.000000 0.000000 0.000000
# 4 0.000000 0.000000 0.000000 0.027479 0.000000 0.000000
# 5 0.000000 0.000000 0.000000 0.000000 0.018653 0.000000
# 6 0.000000 0.000000 0.000000 0.000000 0.000000 0.145077
#
#
# Mechanical properties :
#
#
# Convention : Reuss Voigt Hill
#
# Bulk Modulus (GPa) = 55.76511 60.84775 58.30643
# Shear Modulus (GPa) = 20.94749 37.02209 28.98479
#
# Velocity S-wave (km/s) = 2.90560 3.86278 3.41786
# Velocity P-wave (km/s) = 5.80790 6.66470 6.25100
#
# Compressibility (1/GPa) = 0.01793236
#
# Stress axis : x y z
#
# Youngs Moduli (GPa) = 130.61975 90.90823 90.38939
#
# Poissons Ratio (x) = 0.19943 0.26190
# Poissons Ratio (y) = 0.28654 0.07251
# Poissons Ratio (z) = 0.37847 0.07292
#
# Static dielectric constant tensor:
#      x y z
#    x 1.814580 0.000000 0.000000 
#    y 0.000000 1.946150 0.000000 
#    z 0.000000 0.000000 2.007630 
# 
# From -- ./inp_files/10090.got.cif
#   From: 2010.05.17/outbox.cif.g08.bks.cpg/sg43_6_cif.got.tgz:10090.got - 2010.06.03 19:21:55.
