data_PCOD9372423
_publ_section_title
;
Structure prediction by ZEFSAII (Michael W. Deem and Ramdas Pophale) SiO2 
 PCOD9372423
Probable space group: F D D 2
;
_chemical_formula_sum "Si O2"
_cell_formula_units_Z 88
_cell_length_a 18.028873
_cell_length_b 14.074174
_cell_length_c 13.438921
_cell_angle_alpha 90.000000
_cell_angle_beta 90.000000
_cell_angle_gamma 90.000000
_cell_volume 3410.011914
_symmetry_space_group_name_H-M "F D D 2"
_symmetry_group_IT_number 43
_symmetry_cell_setting 'orthorhombic'
loop_
_space_group_symop_operation_xyz
x,y,z
-x,-y,z
1/4-x,1/4+y,1/4+z
1/4+x,1/4-y,1/4+z
x,1/2+y,1/2+z
-x,1/2-y,1/2+z
1/4-x,3/4+y,3/4+z
1/4+x,3/4-y,3/4+z
1/2+x,y,1/2+z
1/2-x,-y,1/2+z
3/4-x,1/4+y,3/4+z
3/4+x,1/4-y,3/4+z
1/2+x,1/2+y,z
1/2-x,1/2-y,z
3/4-x,3/4+y,1/4+z
3/4+x,3/4-y,1/4+z
loop_
_atom_site_type_symbol
_atom_site_label
_atom_site_fract_x
_atom_site_fract_y
_atom_site_fract_z
Si Si1 0.638388 0.887866 0.131810
Si Si2 0.000000 0.000000 0.824435
Si Si3 0.606056 0.323735 0.836020
Si Si4 0.260655 0.573575 0.337548
Si Si5 0.035129 0.150636 0.223915
Si Si6 0.174456 0.101153 0.627152
O O1 0.670162 0.807034 0.057893
O O2 0.657757 0.855374 0.242701
O O3 0.548612 0.890609 0.145243
O O4 0.662035 0.990727 0.100525
O O5 0.958178 0.098419 0.858515
O O6 0.574878 0.223909 0.800201
O O7 0.657136 0.326554 0.931209
O O8 0.243232 0.470022 0.384340
O O9 0.227196 0.595308 0.226582
O O10 0.343774 0.600295 0.366745
O O11 0.970950 0.105875 0.287567
#
# Coordination Sequence:
#
# PCOD9372423 Si02
#       6
#    16   8  16  16  16  16
#     4  11  22  38  71 101 138 185 244 305 361 441
#     4  12  20  38  68 104 130 178 244 298 358 422
#     4  11  22  40  64 106 133 177 241 301 364 436
#     4  11  25  43  70 106 142 193 253 302 381 453
#     4  11  24  44  72 102 142 193 241 311 372 453
#     4  12  24  45  67 105 151 193 240 315 380 463
#
# _framework density 25.806362
#
# number of rings (size 3 to 8) (size 9 to 14) (size 15 to 20)
#    0.000    0.727    7.273    1.636    7.636    0.000 
#    6.545    0.000    0.000    0.000    0.000    0.000 
#    0.000    0.000    0.000    0.000    0.000    0.000 
#
# Total GULP energy -122548.490133 kJ/mol
# GULP energy per Si atom -5570.385915 kJ/mol
# Density = 2.574763 g / cm^3
# Si number density = 25.806362 Si / 1000 Ang^3
#
#
#
# Elastic Constant Matrix: (Units=GPa)
#
#
# Indices 1 2 3 4 5 6 
#
# 1 143.8606 31.5797 104.7405 0.0000 0.0000 0.0000
# 2 31.5797 90.8087 31.5682 0.0000 0.0000 0.0000
# 3 104.7405 31.5682 115.7481 0.0000 0.0000 0.0000
# 4 0.0000 0.0000 0.0000 13.7692 0.0000 0.0000
# 5 0.0000 0.0000 0.0000 0.0000 38.0674 0.0000
# 6 0.0000 0.0000 0.0000 0.0000 0.0000 3.1851
#
#
#
# Elastic Compliance Matrix: (Units=1/GPa)
#
#
# Indices 1 2 3 4 5 6 
#
# 1 0.020420 -0.000749 -0.018274 0.000000 0.000000 0.000000
# 2 -0.000749 0.012193 -0.002648 0.000000 0.000000 0.000000
# 3 -0.018274 -0.002648 0.025898 0.000000 0.000000 0.000000
# 4 0.000000 0.000000 0.000000 0.072626 0.000000 0.000000
# 5 0.000000 0.000000 0.000000 0.000000 0.026269 0.000000
# 6 0.000000 0.000000 0.000000 0.000000 0.000000 0.313965
#
#
# Mechanical properties :
#
#
# Convention : Reuss Voigt Hill
#
# Bulk Modulus (GPa) = 65.92087 76.24380 71.08234
# Shear Modulus (GPa) = 9.61964 23.17294 16.39629
#
# Velocity S-wave (km/s) = 1.93280 2.99984 2.52337
# Velocity P-wave (km/s) = 5.52999 6.45038 6.00784
#
# Compressibility (1/GPa) = 0.01516970
#
# Stress axis : x y z
#
# Youngs Moduli (GPa) = 48.97046 82.01395 38.61296
#
# Poissons Ratio (x) = 0.06140 0.70562
# Poissons Ratio (y) = 0.03666 0.10225
# Poissons Ratio (z) = 0.89490 0.21717
#
# Static dielectric constant tensor:
#      x y z
#    x 2.182330 0.000000 0.000000 
#    y 0.000000 1.954010 0.000000 
#    z 0.000000 0.000000 2.235790 
# 
# From -- ./inp_files/10580.got.cif
#   From: 2010.05.17/outbox.cif.g08.bks.cpg/sg43_6_cif.got.tgz:10580.got - 2010.06.03 19:21:55.
