data_PCOD9372489
_publ_section_title
;
Structure prediction by ZEFSAII (Michael W. Deem and Ramdas Pophale) SiO2 
 PCOD9372489
Probable space group: F D D 2
;
_chemical_formula_sum "Si O2"
_cell_formula_units_Z 72
_cell_length_a 24.757269
_cell_length_b 8.998315
_cell_length_c 13.789418
_cell_angle_alpha 90.000000
_cell_angle_beta 90.000000
_cell_angle_gamma 90.000000
_cell_volume 3071.919738
_symmetry_space_group_name_H-M "F D D 2"
_symmetry_group_IT_number 43
_symmetry_cell_setting 'orthorhombic'
loop_
_space_group_symop_operation_xyz
x,y,z
-x,-y,z
1/4-x,1/4+y,1/4+z
1/4+x,1/4-y,1/4+z
x,1/2+y,1/2+z
-x,1/2-y,1/2+z
1/4-x,3/4+y,3/4+z
1/4+x,3/4-y,3/4+z
1/2+x,y,1/2+z
1/2-x,-y,1/2+z
3/4-x,1/4+y,3/4+z
3/4+x,1/4-y,3/4+z
1/2+x,1/2+y,z
1/2-x,1/2-y,z
3/4-x,3/4+y,1/4+z
3/4+x,3/4-y,1/4+z
loop_
_atom_site_type_symbol
_atom_site_label
_atom_site_fract_x
_atom_site_fract_y
_atom_site_fract_z
Si Si1 0.326213 0.005682 0.370110
Si Si2 0.439258 0.950770 0.806085
Si Si3 0.750000 0.250000 0.361281
Si Si4 0.916422 0.294047 0.000811
Si Si5 0.440598 0.970004 0.446238
O O1 0.313483 0.129803 0.449973
O O2 0.310890 0.075770 0.266019
O O3 0.291252 0.866334 0.407090
O O4 0.389672 0.966508 0.374447
O O5 0.419957 0.835260 0.887708
O O6 0.500000 0.000000 0.827380
O O7 0.392065 0.073771 0.798602
O O8 0.789043 0.144877 0.299627
O O9 0.929576 0.119339 0.009995
O O10 0.500000 0.000000 0.403142
#
# Coordination Sequence:
#
# PCOD9372489 Si02
#       5
#    16  16   8  16  16
#     4  11  25  44  71 107 136 191 234 291 359 409
#     4  11  24  44  71  99 138 186 230 281 355 417
#     4  12  26  44  66 108 146 176 236 302 346 420
#     4  11  24  44  69 102 136 183 233 290 352 414
#     4  11  22  46  72  97 143 186 233 288 349 427
#
# _framework density 23.438113000000001
#
# number of rings (size 3 to 8) (size 9 to 14) (size 15 to 20)
#    0.000    0.889    3.333    6.000    3.111    3.556 
#    8.000    0.000    0.000    0.000    0.000    0.000 
#    0.000    0.000    0.000    0.000    0.000    0.000 
#
# Total GULP energy -100559.030975 kJ/mol
# GULP energy per Si atom -5586.612832 kJ/mol
# Density = 2.338477 g / cm^3
# Si number density = 23.438113 Si / 1000 Ang^3
#
#
#
# Elastic Constant Matrix: (Units=GPa)
#
#
# Indices 1 2 3 4 5 6 
#
# 1 226.6364 49.1740 18.1260 0.0000 0.0000 0.0000
# 2 49.1740 69.7071 2.0001 0.0000 0.0000 0.0000
# 3 18.1260 2.0001 27.7872 0.0000 0.0000 0.0000
# 4 0.0000 0.0000 0.0000 10.7825 0.0000 0.0000
# 5 0.0000 0.0000 0.0000 0.0000 95.4163 0.0000
# 6 0.0000 0.0000 0.0000 0.0000 0.0000 47.5220
#
#
#
# Elastic Compliance Matrix: (Units=1/GPa)
#
#
# Indices 1 2 3 4 5 6 
#
# 1 0.005498 -0.003784 -0.003314 0.000000 0.000000 0.000000
# 2 -0.003784 0.016979 0.001246 0.000000 0.000000 0.000000
# 3 -0.003314 0.001246 0.038060 0.000000 0.000000 0.000000
# 4 0.000000 0.000000 0.000000 0.092743 0.000000 0.000000
# 5 0.000000 0.000000 0.000000 0.000000 0.010480 0.000000
# 6 0.000000 0.000000 0.000000 0.000000 0.000000 0.021043
#
#
# Mechanical properties :
#
#
# Convention : Reuss Voigt Hill
#
# Bulk Modulus (GPa) = 20.47768 51.41455 35.94611
# Shear Modulus (GPa) = 23.49784 47.73287 35.61535
#
# Velocity S-wave (km/s) = 3.16974 4.51771 3.90237
# Velocity P-wave (km/s) = 4.70661 7.01405 5.97282
#
# Compressibility (1/GPa) = 0.04883366
#
# Stress axis : x y z
#
# Youngs Moduli (GPa) = 181.87166 58.89583 26.27421
#
# Poissons Ratio (x) = 0.22284 0.08708
# Poissons Ratio (y) = 0.68814 -0.03274
# Poissons Ratio (z) = 0.60278 -0.07339
#
# Static dielectric constant tensor:
#      x y z
#    x 1.914580 0.000000 0.000000 
#    y 0.000000 1.895090 0.000000 
#    z 0.000000 0.000000 1.838910 
# 
# From -- ./inp_files/9074.got.cif
#   From: 2010.05.17/outbox.cif.g08.bks.cpg/sg43_5_cif.got.tgz:9074.got - 2010.06.03 19:21:55.
