data_PCOD9372295
_publ_section_title
;
Structure prediction by ZEFSAII (Michael W. Deem and Ramdas Pophale) SiO2 
 PCOD9372295
Probable space group: F D D 2
;
_chemical_formula_sum "Si O2"
_cell_formula_units_Z 56
_cell_length_a 16.673012
_cell_length_b 23.487667
_cell_length_c 5.322544
_cell_angle_alpha 90.000000
_cell_angle_beta 90.000000
_cell_angle_gamma 90.000000
_cell_volume 2084.362274
_symmetry_space_group_name_H-M "F D D 2"
_symmetry_group_IT_number 43
_symmetry_cell_setting 'orthorhombic'
loop_
_space_group_symop_operation_xyz
x,y,z
-x,-y,z
1/4-x,1/4+y,1/4+z
1/4+x,1/4-y,1/4+z
x,1/2+y,1/2+z
-x,1/2-y,1/2+z
1/4-x,3/4+y,3/4+z
1/4+x,3/4-y,3/4+z
1/2+x,y,1/2+z
1/2-x,-y,1/2+z
3/4-x,1/4+y,3/4+z
3/4+x,1/4-y,3/4+z
1/2+x,1/2+y,z
1/2-x,1/2-y,z
3/4-x,3/4+y,1/4+z
3/4+x,3/4-y,1/4+z
loop_
_atom_site_type_symbol
_atom_site_label
_atom_site_fract_x
_atom_site_fract_y
_atom_site_fract_z
Si Si1 0.250000 0.750000 0.664220
Si Si2 0.737752 0.597183 0.900111
Si Si3 0.087859 0.082014 0.235745
Si Si4 0.906634 0.252333 0.337888
O O1 0.233365 0.807875 0.815414
O O2 0.173082 0.740639 0.495172
O O3 0.794694 0.638368 0.727786
O O4 0.706548 0.549517 0.704139
O O5 0.657971 0.610933 0.067448
O O6 0.795431 0.560357 0.077302
O O7 0.128802 0.022307 0.321557
#
# Coordination Sequence:
#
# PCOD9372295 Si02
#       4
#     8  16  16  16
#     4  10  26  50  78 120 158 216 270 340 418 496
#     4  11  26  51  81 119 163 217 277 342 428 492
#     4  11  26  50  82 121 161 219 276 351 415 514
#     4  11  24  51  80 113 165 208 268 348 406 507
#
# _framework density 26.86673
#
# number of rings (size 3 to 8) (size 9 to 14) (size 15 to 20)
#    0.000    1.143    2.857    0.857    0.000   11.429 
#    5.143    5.714    0.000    0.000    0.000    0.000 
#    0.000    0.000    0.000    0.000    0.000    0.000 
#
# Total GULP energy -78368.845541 kJ/mol
# GULP energy per Si atom -5597.774682 kJ/mol
# Density = 2.680558 g / cm^3
# Si number density = 26.866730 Si / 1000 Ang^3
#
#
#
# Elastic Constant Matrix: (Units=GPa)
#
#
# Indices 1 2 3 4 5 6 
#
# 1 166.6875 89.9921 67.3698 -0.0002 0.0028 0.0019
# 2 89.9921 114.2271 36.1515 -0.0001 0.0019 0.0017
# 3 67.3698 36.1515 98.9358 -0.0035 0.0027 0.0051
# 4 -0.0002 -0.0001 -0.0035 38.4192 0.0025 0.0040
# 5 0.0028 0.0019 0.0027 0.0025 60.5356 -0.0039
# 6 0.0019 0.0017 0.0051 0.0040 -0.0039 50.8905
#
#
#
# Elastic Compliance Matrix: (Units=1/GPa)
#
#
# Indices 1 2 3 4 5 6 
#
# 1 0.012738 -0.008244 -0.005662 0.000000 0.000000 0.000000
# 2 -0.008244 0.015234 0.000047 0.000000 0.000000 0.000000
# 3 -0.005662 0.000047 0.013946 0.000001 0.000000 -0.000001
# 4 0.000000 0.000000 0.000001 0.026029 -0.000001 -0.000002
# 5 0.000000 0.000000 0.000000 -0.000001 0.016519 0.000001
# 6 0.000000 0.000000 -0.000001 -0.000002 0.000001 0.019650
#
#
# Mechanical properties :
#
#
# Convention : Reuss Voigt Hill
#
# Bulk Modulus (GPa) = 70.41711 85.20857 77.81284
# Shear Modulus (GPa) = 36.61203 42.39154 39.50179
#
# Velocity S-wave (km/s) = 3.69552 3.97652 3.83859
# Velocity P-wave (km/s) = 6.66902 7.27102 6.97652
#
# Compressibility (1/GPa) = 0.01420109
#
# Stress axis : x y z
#
# Youngs Moduli (GPa) = 78.50401 65.64107 71.70633
#
# Poissons Ratio (x) = 0.54113 0.40598
# Poissons Ratio (y) = 0.64717 -0.00336
# Poissons Ratio (z) = 0.44447 -0.00307
#
# Static dielectric constant tensor:
#      x y z
#    x 2.134250 0.000000 0.000000 
#    y 0.000000 2.135030 0.000000 
#    z 0.000000 0.000000 2.288490 
# 
# From -- ./inp_files/334.got.cif
#   From: 2010.05.17/outbox.cif.g08.bks.cpg/sg43_1_cif.got.tgz:334.got - 2010.06.03 19:21:55.
