data_PCOD9372545
_publ_section_title
;
Structure prediction by ZEFSAII (Michael W. Deem and Ramdas Pophale) SiO2 
 PCOD9372545
Probable space group: F D D 2
;
_chemical_formula_sum "Si O2"
_cell_formula_units_Z 64
_cell_length_a 17.957439
_cell_length_b 26.077084
_cell_length_c 6.674687
_cell_angle_alpha 90.000000
_cell_angle_beta 90.000000
_cell_angle_gamma 90.000000
_cell_volume 3125.606711
_symmetry_space_group_name_H-M "F D D 2"
_symmetry_group_IT_number 43
_symmetry_cell_setting 'orthorhombic'
loop_
_space_group_symop_operation_xyz
x,y,z
-x,-y,z
1/4-x,1/4+y,1/4+z
1/4+x,1/4-y,1/4+z
x,1/2+y,1/2+z
-x,1/2-y,1/2+z
1/4-x,3/4+y,3/4+z
1/4+x,3/4-y,3/4+z
1/2+x,y,1/2+z
1/2-x,-y,1/2+z
3/4-x,1/4+y,3/4+z
3/4+x,1/4-y,3/4+z
1/2+x,1/2+y,z
1/2-x,1/2-y,z
3/4-x,3/4+y,1/4+z
3/4+x,3/4-y,1/4+z
loop_
_atom_site_type_symbol
_atom_site_label
_atom_site_fract_x
_atom_site_fract_y
_atom_site_fract_z
Si Si1 0.815946 0.865666 0.555980
Si Si2 0.594930 0.071268 0.741694
Si Si3 0.600140 0.226666 0.250530
Si Si4 0.683935 0.539807 0.853821
O O1 0.740426 0.837927 0.491192
O O2 0.860256 0.884928 0.361834
O O3 0.865158 0.827306 0.689742
O O4 0.800403 0.915667 0.691556
O O5 0.630526 0.061082 0.526002
O O6 0.607740 0.019606 0.870065
O O7 0.603746 0.243242 0.481996
O O8 0.512643 0.227019 0.195770
#
# Coordination Sequence:
#
# PCOD9372545 Si02
#       4
#    16  16  16  16
#     4  11  25  44  68 101 136 178 231 278 335 412
#     4  11  25  42  69 101 136 179 227 282 340 400
#     4  11  23  44  68  98 138 178 228 277 344 407
#     4  11  24  42  72  97 135 185 220 285 343 398
#
# _framework density 20.476026000000001
#
# number of rings (size 3 to 8) (size 9 to 14) (size 15 to 20)
#    0.000    1.000    5.000    0.750    3.500    2.000 
#    0.000    5.000    0.000    0.000    0.000    0.000 
#    0.000    0.000    0.000    0.000    0.000    0.000 
#
# Total GULP energy -89511.824513 kJ/mol
# GULP energy per Si atom -5594.489032 kJ/mol
# Density = 2.042942 g / cm^3
# Si number density = 20.476026 Si / 1000 Ang^3
#
#
#
# Elastic Constant Matrix: (Units=GPa)
#
#
# Indices 1 2 3 4 5 6 
#
# 1 71.6489 19.3991 47.5665 0.0008 -0.0006 -0.0005
# 2 19.3991 79.2658 40.6053 -0.0001 0.0003 -0.0003
# 3 47.5665 40.6053 116.7423 0.0009 -0.0014 0.0002
# 4 0.0008 -0.0001 0.0009 39.1820 -0.0008 0.0000
# 5 -0.0006 0.0003 -0.0014 -0.0008 17.0460 0.0004
# 6 -0.0005 -0.0003 0.0002 0.0000 0.0004 21.4315
#
#
#
# Elastic Compliance Matrix: (Units=1/GPa)
#
#
# Indices 1 2 3 4 5 6 
#
# 1 0.019178 -0.000840 -0.007522 0.000000 0.000000 0.000000
# 2 -0.000840 0.015388 -0.005010 0.000000 -0.000001 0.000000
# 3 -0.007522 -0.005010 0.013373 0.000000 0.000001 0.000000
# 4 0.000000 0.000000 0.000000 0.025522 0.000001 0.000000
# 5 0.000000 -0.000001 0.000001 0.000001 0.058665 -0.000001
# 6 0.000000 0.000000 0.000000 0.000000 -0.000001 0.046660
#
#
# Mechanical properties :
#
#
# Convention : Reuss Voigt Hill
#
# Bulk Modulus (GPa) = 47.18067 53.64432 50.41250
# Shear Modulus (GPa) = 23.51890 26.20430 24.86160
#
# Velocity S-wave (km/s) = 3.39279 3.58125 3.48829
# Velocity P-wave (km/s) = 6.19999 6.58452 6.39515
#
# Compressibility (1/GPa) = 0.02119512
#
# Stress axis : x y z
#
# Youngs Moduli (GPa) = 52.14294 64.98655 74.77692
#
# Poissons Ratio (x) = 0.05461 0.56245
# Poissons Ratio (y) = 0.04382 0.37462
# Poissons Ratio (z) = 0.39221 0.32557
#
# Static dielectric constant tensor:
#      x y z
#    x 1.679540 0.000000 0.000000 
#    y 0.000000 1.734200 0.000000 
#    z 0.000000 0.000000 1.715630 
# 
# From -- ./inp_files/498.got.cif
#   From: 2010.05.17/outbox.cif.g08.bks.cpg/sg43_1_cif.got.tgz:498.got - 2010.06.03 19:21:55.
