data_PCOD9372815
_publ_section_title
;
Structure prediction by ZEFSAII (Michael W. Deem and Ramdas Pophale) SiO2 
 PCOD9372815
Probable space group: F D D 2
;
_chemical_formula_sum "Si O2"
_cell_formula_units_Z 112
_cell_length_a 11.566847
_cell_length_b 27.334854
_cell_length_c 12.918998
_cell_angle_alpha 90.000000
_cell_angle_beta 90.000000
_cell_angle_gamma 90.000000
_cell_volume 4084.703905
_symmetry_space_group_name_H-M "F D D 2"
_symmetry_group_IT_number 43
_symmetry_cell_setting 'orthorhombic'
loop_
_space_group_symop_operation_xyz
x,y,z
-x,-y,z
1/4-x,1/4+y,1/4+z
1/4+x,1/4-y,1/4+z
x,1/2+y,1/2+z
-x,1/2-y,1/2+z
1/4-x,3/4+y,3/4+z
1/4+x,3/4-y,3/4+z
1/2+x,y,1/2+z
1/2-x,-y,1/2+z
3/4-x,1/4+y,3/4+z
3/4+x,1/4-y,3/4+z
1/2+x,1/2+y,z
1/2-x,1/2-y,z
3/4-x,3/4+y,1/4+z
3/4+x,3/4-y,1/4+z
loop_
_atom_site_type_symbol
_atom_site_label
_atom_site_fract_x
_atom_site_fract_y
_atom_site_fract_z
Si Si1 0.685793 0.969929 0.012550
Si Si2 0.373101 0.987175 0.792503
Si Si3 0.123668 0.758558 0.443550
Si Si4 0.632197 0.373742 0.988168
Si Si5 0.843646 0.171731 0.764276
Si Si6 0.118694 0.836350 0.321555
Si Si7 0.389455 0.131143 0.037641
O O1 0.829115 0.970915 0.022662
O O2 0.685668 0.909985 0.983859
O O3 0.625239 0.955520 0.127981
O O4 0.628616 0.987228 0.903258
O O5 0.359297 0.928401 0.794227
O O6 0.500000 0.000000 0.744828
O O7 0.252748 0.005752 0.744560
O O8 0.250000 0.750000 0.497112
O O9 0.105543 0.777756 0.314229
O O10 0.626553 0.361500 0.865818
O O11 0.546226 0.417156 0.020473
O O12 0.758427 0.388593 0.027073
O O13 0.857596 0.151935 0.647162
O O14 0.229351 0.862433 0.278965
O O15 0.125205 0.825767 0.448837
#
# Coordination Sequence:
#
# PCOD9372815 Si02
#       7
#    16  16  16  16  16  16  16
#     4  12  25  50  75 110 153 212 259 334 398 488
#     4  12  29  50  79 114 165 209 264 337 410 480
#     4  12  27  49  77 114 157 202 266 326 403 487
#     4  12  28  48  77 117 159 204 264 343 411 489
#     4  12  24  49  76 111 158 203 267 338 405 470
#     4  12  27  43  78 112 149 206 266 313 402 495
#     4  12  23  46  76 110 147 207 268 315 389 490
#
# _framework density 27.419367999999999
#
# number of rings (size 3 to 8) (size 9 to 14) (size 15 to 20)
#    0.000    0.000    5.714    3.000    8.000    0.000 
#    0.000    0.714    0.000    0.000    0.000    0.000 
#    0.000    0.000    0.000    0.000    0.000    0.000 
#
# Total GULP energy -156169.370284 kJ/mol
# GULP energy per Si atom -5577.477510 kJ/mol
# Density = 2.735696 g / cm^3
# Si number density = 27.419368 Si / 1000 Ang^3
#
#
#
# Elastic Constant Matrix: (Units=GPa)
#
#
# Indices 1 2 3 4 5 6 
#
# 1 178.9735 50.8071 41.5280 0.0000 0.0000 0.0000
# 2 50.8071 147.4340 36.8384 0.0000 0.0000 0.0000
# 3 41.5280 36.8384 124.8007 0.0000 0.0000 0.0000
# 4 0.0000 0.0000 0.0000 32.2712 0.0000 0.0000
# 5 0.0000 0.0000 0.0000 0.0000 21.6393 0.0000
# 6 0.0000 0.0000 0.0000 0.0000 0.0000 70.7068
#
#
#
# Elastic Compliance Matrix: (Units=1/GPa)
#
#
# Indices 1 2 3 4 5 6 
#
# 1 0.006482 -0.001830 -0.001617 0.000000 0.000000 0.000000
# 2 -0.001830 0.007839 -0.001705 0.000000 0.000000 0.000000
# 3 -0.001617 -0.001705 0.009054 0.000000 0.000000 0.000000
# 4 0.000000 0.000000 0.000000 0.030987 0.000000 0.000000
# 5 0.000000 0.000000 0.000000 0.000000 0.046212 0.000000
# 6 0.000000 0.000000 0.000000 0.000000 0.000000 0.014143
#
#
# Mechanical properties :
#
#
# Convention : Reuss Voigt Hill
#
# Bulk Modulus (GPa) = 76.49948 78.83949 77.66949
# Shear Modulus (GPa) = 38.64626 46.39244 42.51935
#
# Velocity S-wave (km/s) = 3.75834 4.11781 3.94217
# Velocity P-wave (km/s) = 6.84060 7.17106 7.00778
#
# Compressibility (1/GPa) = 0.01307198
#
# Stress axis : x y z
#
# Youngs Moduli (GPa) = 154.27302 127.56229 110.44730
#
# Poissons Ratio (x) = 0.23341 0.17857
# Poissons Ratio (y) = 0.28229 0.18833
# Poissons Ratio (z) = 0.24943 0.21751
#
# Static dielectric constant tensor:
#      x y z
#    x 2.293020 0.000000 0.000000 
#    y 0.000000 2.271120 0.000000 
#    z 0.000000 0.000000 2.271060 
# 
# From -- ./inp_files/9799.got.cif
#   From: 2010.05.17/outbox.cif.g08.bks.cpg/sg43_5_cif.got.tgz:9799.got - 2010.06.03 19:21:55.
