data_PCOD9372275
_publ_section_title
;
Structure prediction by ZEFSAII (Michael W. Deem and Ramdas Pophale) SiO2 
 PCOD9372275
Probable space group: F D D 2
;
_chemical_formula_sum "Si O2"
_cell_formula_units_Z 56
_cell_length_a 16.361928
_cell_length_b 18.043024
_cell_length_c 7.504838
_cell_angle_alpha 90.000000
_cell_angle_beta 90.000000
_cell_angle_gamma 90.000000
_cell_volume 2215.568215
_symmetry_space_group_name_H-M "F D D 2"
_symmetry_group_IT_number 43
_symmetry_cell_setting 'orthorhombic'
loop_
_space_group_symop_operation_xyz
x,y,z
-x,-y,z
1/4-x,1/4+y,1/4+z
1/4+x,1/4-y,1/4+z
x,1/2+y,1/2+z
-x,1/2-y,1/2+z
1/4-x,3/4+y,3/4+z
1/4+x,3/4-y,3/4+z
1/2+x,y,1/2+z
1/2-x,-y,1/2+z
3/4-x,1/4+y,3/4+z
3/4+x,1/4-y,3/4+z
1/2+x,1/2+y,z
1/2-x,1/2-y,z
3/4-x,3/4+y,1/4+z
3/4+x,3/4-y,1/4+z
loop_
_atom_site_type_symbol
_atom_site_label
_atom_site_fract_x
_atom_site_fract_y
_atom_site_fract_z
Si Si1 0.250000 0.250000 0.221270
Si Si2 0.148587 0.414141 0.593633
Si Si3 0.917471 0.197619 0.387815
Si Si4 0.334168 0.350495 0.981394
O O1 0.325889 0.275549 0.340001
O O2 0.123965 0.222452 0.896931
O O3 0.236949 0.451110 0.588507
O O4 0.129927 0.356176 0.750253
O O5 0.138362 0.376391 0.400236
O O6 0.325787 0.411151 0.832913
O O7 0.747964 0.180576 0.579776
#
# Coordination Sequence:
#
# PCOD9372275 Si02
#       4
#     8  16  16  16
#     4   8  22  48  64 104 148 192 242 326 366 456
#     4  10  27  46  76 108 154 197 262 321 391 470
#     4  12  26  48  79 111 152 211 256 320 412 456
#     4  10  26  47  75 112 157 196 267 322 387 481
#
# _framework density 25.275680999999999
#
# number of rings (size 3 to 8) (size 9 to 14) (size 15 to 20)
#    1.714    0.000    0.000    1.714    8.000    5.714 
#    0.000    0.000    0.000    0.000    0.000    0.000 
#    0.000    0.000    0.000    0.000    0.000    0.000 
#
# Total GULP energy -78262.065876 kJ/mol
# GULP energy per Si atom -5590.147563 kJ/mol
# Density = 2.521815 g / cm^3
# Si number density = 25.275681 Si / 1000 Ang^3
#
#
#
# Elastic Constant Matrix: (Units=GPa)
#
#
# Indices 1 2 3 4 5 6 
#
# 1 73.9357 11.3474 -6.0862 0.0000 0.0000 0.0000
# 2 11.3474 110.9134 30.1070 0.0000 0.0000 0.0000
# 3 -6.0862 30.1070 118.5058 0.0000 0.0000 0.0000
# 4 0.0000 0.0000 0.0000 23.3136 0.0000 0.0000
# 5 0.0000 0.0000 0.0000 0.0000 36.9348 0.0000
# 6 0.0000 0.0000 0.0000 0.0000 0.0000 33.7849
#
#
#
# Elastic Compliance Matrix: (Units=1/GPa)
#
#
# Indices 1 2 3 4 5 6 
#
# 1 0.013886 -0.001734 0.001154 0.000000 0.000000 0.000000
# 2 -0.001734 0.009900 -0.002604 0.000000 0.000000 0.000000
# 3 0.001154 -0.002604 0.009159 0.000000 0.000000 0.000000
# 4 0.000000 0.000000 0.000000 0.042893 0.000000 0.000000
# 5 0.000000 0.000000 0.000000 0.000000 0.027075 0.000000
# 6 0.000000 0.000000 0.000000 0.000000 0.000000 0.029599
#
#
# Mechanical properties :
#
#
# Convention : Reuss Voigt Hill
#
# Bulk Modulus (GPa) = 37.62644 41.56569 39.59606
# Shear Modulus (GPa) = 33.84297 36.67243 35.25770
#
# Velocity S-wave (km/s) = 3.66314 3.81320 3.73892
# Velocity P-wave (km/s) = 5.72802 5.98898 5.85995
#
# Compressibility (1/GPa) = 0.02657706
#
# Stress axis : x y z
#
# Youngs Moduli (GPa) = 72.01318 101.00654 109.17878
#
# Poissons Ratio (x) = 0.17513 -0.12596
# Poissons Ratio (y) = 0.12486 0.28433
# Poissons Ratio (z) = -0.08308 0.26305
#
# Static dielectric constant tensor:
#      x y z
#    x 2.149530 0.000000 0.000000 
#    y 0.000000 1.985720 0.000000 
#    z 0.000000 0.000000 2.004580 
# 
# From -- ./inp_files/324.got.cif
#   From: 2010.05.17/outbox.cif.g08.bks.cpg/sg43_1_cif.got.tgz:324.got - 2010.06.03 19:21:55.
