data_PCOD9372390
_publ_section_title
;
Structure prediction by ZEFSAII (Michael W. Deem and Ramdas Pophale) SiO2 
 PCOD9372390
Probable space group: F D D 2
;
_chemical_formula_sum "Si O2"
_cell_formula_units_Z 120
_cell_length_a 8.543391
_cell_length_b 24.881013
_cell_length_c 25.248681
_cell_angle_alpha 90.000000
_cell_angle_beta 90.000000
_cell_angle_gamma 90.000000
_cell_volume 5367.067242
_symmetry_space_group_name_H-M "F D D 2"
_symmetry_group_IT_number 43
_symmetry_cell_setting 'orthorhombic'
loop_
_space_group_symop_operation_xyz
x,y,z
-x,-y,z
1/4-x,1/4+y,1/4+z
1/4+x,1/4-y,1/4+z
x,1/2+y,1/2+z
-x,1/2-y,1/2+z
1/4-x,3/4+y,3/4+z
1/4+x,3/4-y,3/4+z
1/2+x,y,1/2+z
1/2-x,-y,1/2+z
3/4-x,1/4+y,3/4+z
3/4+x,1/4-y,3/4+z
1/2+x,1/2+y,z
1/2-x,1/2-y,z
3/4-x,3/4+y,1/4+z
3/4+x,3/4-y,1/4+z
loop_
_atom_site_type_symbol
_atom_site_label
_atom_site_fract_x
_atom_site_fract_y
_atom_site_fract_z
Si Si1 0.534562 0.664921 0.666600
Si Si2 0.188719 0.303124 0.873656
Si Si3 0.250000 0.250000 0.602241
Si Si4 0.000811 0.876725 0.200642
Si Si5 0.711716 0.588462 0.292481
Si Si6 0.545905 0.938157 0.370655
Si Si7 0.967630 0.562920 0.010160
Si Si8 0.097690 0.947762 0.105224
O O1 0.598009 0.605339 0.656880
O O2 0.639002 0.710071 0.636546
O O3 0.362264 0.662260 0.642694
O O4 0.558585 0.675265 0.728467
O O5 0.250000 0.250000 0.902372
O O6 0.291667 0.320065 0.823007
O O7 0.025749 0.285699 0.848412
O O8 0.143415 0.290242 0.567404
O O9 0.856289 0.901057 0.234274
O O10 0.932297 0.830974 0.161101
O O11 0.139933 0.849518 0.235725
O O12 0.061919 0.925400 0.164076
O O13 0.680334 0.646045 0.319307
O O14 0.887603 0.574747 0.312026
O O15 0.500000 0.000000 0.373420
O O16 0.000000 0.500000 0.000842
O O17 0.000000 0.000000 0.092344
#
# Coordination Sequence:
#
# PCOD9372390 Si02
#       8
#    16  16   8  16  16  16  16  16
#     4  12  22  42  70  96 139 185 230 303 355 423
#     4  11  25  42  66 100 139 184 234 290 365 429
#     4  12  20  42  74  94 130 186 242 302 360 412
#     4  11  23  44  68 101 140 185 246 293 356 449
#     4  11  24  44  69 104 136 187 247 293 369 432
#     4  11  24  41  66 103 142 180 230 303 369 420
#     4  11  21  41  71 104 130 177 250 293 343 434
#     4  11  24  44  67  96 141 193 230 290 367 436
#
# _framework density 22.35858
#
# number of rings (size 3 to 8) (size 9 to 14) (size 15 to 20)
#    0.000    0.800    6.000    1.600    4.667    1.600 
#    2.400    0.000    2.933    0.000    0.000    0.000 
#    0.000    0.000    0.000    0.000    0.000    0.000 
#
# Total GULP energy -167457.119121 kJ/mol
# GULP energy per Si atom -5581.903971 kJ/mol
# Density = 2.230769 g / cm^3
# Si number density = 22.358580 Si / 1000 Ang^3
#
#
#
# Elastic Constant Matrix: (Units=GPa)
#
#
# Indices 1 2 3 4 5 6 
#
# 1 75.5976 18.9492 6.9203 0.0000 0.0000 0.0000
# 2 18.9492 132.4214 19.1284 0.0000 0.0000 0.0000
# 3 6.9203 19.1284 78.3437 0.0000 0.0000 0.0000
# 4 0.0000 0.0000 0.0000 -184.4749 0.0000 0.0000
# 5 0.0000 0.0000 0.0000 0.0000 31.3789 0.0000
# 6 0.0000 0.0000 0.0000 0.0000 0.0000 36.0296
#
#
#
# Elastic Compliance Matrix: (Units=1/GPa)
#
#
# Indices 1 2 3 4 5 6 
#
# 1 0.013764 -0.001860 -0.000762 0.000000 0.000000 0.000000
# 2 -0.001860 0.008079 -0.001808 0.000000 0.000000 0.000000
# 3 -0.000762 -0.001808 0.013273 0.000000 0.000000 0.000000
# 4 0.000000 0.000000 0.000000 -0.005421 0.000000 0.000000
# 5 0.000000 0.000000 0.000000 0.000000 0.031869 0.000000
# 6 0.000000 0.000000 0.000000 0.000000 0.000000 0.027755
#
#
# Mechanical properties :
#
#
# Convention : Reuss Voigt Hill
#
# Bulk Modulus (GPa) = 38.08566 41.81762 39.95164
# Shear Modulus (GPa) = 46.75960 -7.32229 19.71866
#
# Velocity S-wave (km/s) = 4.57809 -1.81164 2.97295
# Velocity P-wave (km/s) = 6.70941 3.79048 5.44903
#
# Compressibility (1/GPa) = 0.02625660
#
# Stress axis : x y z
#
# Youngs Moduli (GPa) = 72.65449 123.77837 75.34051
#
# Poissons Ratio (x) = 0.23017 0.05739
# Poissons Ratio (y) = 0.13510 0.13624
# Poissons Ratio (z) = 0.05535 0.22383
#
# Static dielectric constant tensor:
#      x y z
#    x 1.925750 0.000000 0.000000 
#    y 0.000000 2.449700 0.000000 
#    z 0.000000 0.000000 1.854410 
# 
# From -- ./inp_files/24484.got.cif
#   From: 2010.05.17/outbox.cif.g08.bks.cpg/sg43_13_cif.got.tgz:24484.got - 2010.06.03 19:21:55.
