data_PCOD9372445
_publ_section_title
;
Structure prediction by ZEFSAII (Michael W. Deem and Ramdas Pophale) SiO2 
 PCOD9372445
Probable space group: F D D 2
;
_chemical_formula_sum "Si O2"
_cell_formula_units_Z 96
_cell_length_a 15.445702
_cell_length_b 18.665965
_cell_length_c 13.015083
_cell_angle_alpha 90.000000
_cell_angle_beta 90.000000
_cell_angle_gamma 90.000000
_cell_volume 3752.364692
_symmetry_space_group_name_H-M "F D D 2"
_symmetry_group_IT_number 43
_symmetry_cell_setting 'orthorhombic'
loop_
_space_group_symop_operation_xyz
x,y,z
-x,-y,z
1/4-x,1/4+y,1/4+z
1/4+x,1/4-y,1/4+z
x,1/2+y,1/2+z
-x,1/2-y,1/2+z
1/4-x,3/4+y,3/4+z
1/4+x,3/4-y,3/4+z
1/2+x,y,1/2+z
1/2-x,-y,1/2+z
3/4-x,1/4+y,3/4+z
3/4+x,1/4-y,3/4+z
1/2+x,1/2+y,z
1/2-x,1/2-y,z
3/4-x,3/4+y,1/4+z
3/4+x,3/4-y,1/4+z
loop_
_atom_site_type_symbol
_atom_site_label
_atom_site_fract_x
_atom_site_fract_y
_atom_site_fract_z
Si Si1 0.845386 0.239214 0.907820
Si Si2 0.808850 0.108343 0.602931
Si Si3 0.478500 0.780984 0.751416
Si Si4 0.504029 0.916359 0.048022
Si Si5 0.671632 0.658325 0.578237
Si Si6 0.621108 0.917580 0.328984
O O1 0.750000 0.250000 0.864135
O O2 0.911932 0.287158 0.845577
O O3 0.870450 0.158022 0.889371
O O4 0.844529 0.266105 0.023873
O O5 0.908138 0.124047 0.577900
O O6 0.734493 0.166463 0.574277
O O7 0.822918 0.088664 0.724075
O O8 0.785208 0.037200 0.535820
O O9 0.535512 0.852336 0.748192
O O10 0.418515 0.775431 0.651529
O O11 0.515823 0.914949 0.924957
O O12 0.500000 0.000000 0.079811
O O13 0.421592 0.877362 0.095646
#
# Coordination Sequence:
#
# PCOD9372445 Si02
#       6
#    16  16  16  16  16  16
#     4  11  22  41  72 107 144 197 244 317 384 445
#     4  11  26  49  73 109 155 207 252 323 399 473
#     4  11  24  44  73 109 144 195 260 316 384 460
#     4  12  26  46  74 108 156 204 259 325 397 469
#     4  12  24  44  71 111 151 195 261 319 383 466
#     4  11  25  46  73 109 156 193 264 317 389 473
#
# _framework density 25.583869
#
# number of rings (size 3 to 8) (size 9 to 14) (size 15 to 20)
#    0.000    0.667    5.000    2.500    0.000    2.667 
#    6.000    0.833    0.000    0.000    0.000    0.000 
#    0.000    0.000    0.000    0.000    0.000    0.000 
#
# Total GULP energy -134206.859854 kJ/mol
# GULP energy per Si atom -5591.952494 kJ/mol
# Density = 2.552564 g / cm^3
# Si number density = 25.583869 Si / 1000 Ang^3
#
#
#
# Elastic Constant Matrix: (Units=GPa)
#
#
# Indices 1 2 3 4 5 6 
#
# 1 142.1185 23.4042 -2.4406 0.0000 0.0000 0.0000
# 2 23.4042 109.4127 38.6505 0.0000 0.0000 0.0000
# 3 -2.4406 38.6505 106.1221 0.0000 0.0000 0.0000
# 4 0.0000 0.0000 0.0000 23.6218 0.0000 0.0000
# 5 0.0000 0.0000 0.0000 0.0000 41.1811 0.0000
# 6 0.0000 0.0000 0.0000 0.0000 0.0000 29.3285
#
#
#
# Elastic Compliance Matrix: (Units=1/GPa)
#
#
# Indices 1 2 3 4 5 6 
#
# 1 0.007360 -0.001875 0.000852 0.000000 0.000000 0.000000
# 2 -0.001875 0.010967 -0.004037 0.000000 0.000000 0.000000
# 3 0.000852 -0.004037 0.010913 0.000000 0.000000 0.000000
# 4 0.000000 0.000000 0.000000 0.042334 0.000000 0.000000
# 5 0.000000 0.000000 0.000000 0.000000 0.024283 0.000000
# 6 0.000000 0.000000 0.000000 0.000000 0.000000 0.034097
#
#
# Mechanical properties :
#
#
# Convention : Reuss Voigt Hill
#
# Bulk Modulus (GPa) = 52.30384 52.98684 52.64534
# Shear Modulus (GPa) = 34.14192 38.69556 36.41874
#
# Velocity S-wave (km/s) = 3.65706 3.89330 3.77703
# Velocity P-wave (km/s) = 6.19036 6.40050 6.29631
#
# Compressibility (1/GPa) = 0.01911906
#
# Stress axis : x y z
#
# Youngs Moduli (GPa) = 135.87214 91.18167 91.63231
#
# Poissons Ratio (x) = 0.17100 -0.07810
# Poissons Ratio (y) = 0.25482 0.36996
# Poissons Ratio (z) = -0.11580 0.36814
#
# Static dielectric constant tensor:
#      x y z
#    x 2.130430 0.000000 0.000000 
#    y 0.000000 2.010410 0.000000 
#    z 0.000000 0.000000 2.065090 
# 
# From -- ./inp_files/10072.got.cif
#   From: 2010.05.17/outbox.cif.g08.bks.cpg/sg43_6_cif.got.tgz:10072.got - 2010.06.03 19:21:55.
