data_PCOD9372513
_publ_section_title
;
Structure prediction by ZEFSAII (Michael W. Deem and Ramdas Pophale) SiO2 
 PCOD9372513
Probable space group: F D D 2
;
_chemical_formula_sum "Si O2"
_cell_formula_units_Z 120
_cell_length_a 15.843118
_cell_length_b 15.625582
_cell_length_c 22.953193
_cell_angle_alpha 90.000000
_cell_angle_beta 90.000000
_cell_angle_gamma 90.000000
_cell_volume 5682.245163
_symmetry_space_group_name_H-M "F D D 2"
_symmetry_group_IT_number 43
_symmetry_cell_setting 'orthorhombic'
loop_
_space_group_symop_operation_xyz
x,y,z
-x,-y,z
1/4-x,1/4+y,1/4+z
1/4+x,1/4-y,1/4+z
x,1/2+y,1/2+z
-x,1/2-y,1/2+z
1/4-x,3/4+y,3/4+z
1/4+x,3/4-y,3/4+z
1/2+x,y,1/2+z
1/2-x,-y,1/2+z
3/4-x,1/4+y,3/4+z
3/4+x,1/4-y,3/4+z
1/2+x,1/2+y,z
1/2-x,1/2-y,z
3/4-x,3/4+y,1/4+z
3/4+x,3/4-y,1/4+z
loop_
_atom_site_type_symbol
_atom_site_label
_atom_site_fract_x
_atom_site_fract_y
_atom_site_fract_z
Si Si1 0.076987 0.755534 0.501160
Si Si2 0.608450 0.632202 0.272037
Si Si3 0.917855 0.674617 0.748544
Si Si4 0.721871 0.107369 0.668592
Si Si5 0.340316 0.793595 0.893187
Si Si6 0.334761 0.540320 0.319175
Si Si7 0.750000 0.750000 0.071706
Si Si8 0.332058 0.311761 0.694316
O O1 0.168155 0.748669 0.530084
O O2 0.065684 0.840962 0.461834
O O3 0.047988 0.678031 0.459008
O O4 0.010140 0.762441 0.554715
O O5 0.512445 0.660553 0.269126
O O6 0.658608 0.655131 0.213592
O O7 0.653904 0.670490 0.328191
O O8 0.611342 0.529624 0.282583
O O9 0.904178 0.622131 0.688357
O O10 0.852109 0.632240 0.792062
O O11 0.895660 0.772776 0.741529
O O12 0.746999 0.167525 0.615041
O O13 0.665787 0.024756 0.650082
O O14 0.250000 0.750000 0.903263
O O15 0.370035 0.547948 0.383556
O O16 0.250000 0.250000 0.693643
#
# Coordination Sequence:
#
# PCOD9372513 Si02
#       8
#    16  16  16  16  16  16   8  16
#     4  11  28  51  67 107 141 185 243 296 348 439
#     4  11  24  38  69 105 139 181 231 289 352 413
#     4  12  22  41  67 108 143 181 229 288 351 413
#     4  11  27  49  71  99 142 180 238 293 349 430
#     4  12  23  42  70 108 143 179 230 295 351 411
#     4  11  23  41  69  98 145 182 233 293 347 411
#     4  12  32  50  76  96 144 192 238 294 364 436
#     4  12  24  43  72 105 146 189 232 287 357 423
#
# _framework density 21.118413
#
# number of rings (size 3 to 8) (size 9 to 14) (size 15 to 20)
#    0.000    0.533    6.667    1.200   10.267    1.067 
#    0.000    0.000    0.000    0.000    0.000    0.000 
#    0.000    0.000    0.000    0.000    0.000    0.000 
#
# Total GULP energy -167707.980551 kJ/mol
# GULP energy per Si atom -5590.266018 kJ/mol
# Density = 2.107035 g / cm^3
# Si number density = 21.118413 Si / 1000 Ang^3
#
#
#
# Elastic Constant Matrix: (Units=GPa)
#
#
# Indices 1 2 3 4 5 6 
#
# 1 128.9188 21.1075 30.2295 0.0000 0.0000 0.0000
# 2 21.1075 56.7444 20.8758 0.0000 0.0000 0.0000
# 3 30.2295 20.8758 71.5540 0.0000 0.0000 0.0000
# 4 0.0000 0.0000 0.0000 10.1798 0.0000 0.0000
# 5 0.0000 0.0000 0.0000 0.0000 37.9838 0.0000
# 6 0.0000 0.0000 0.0000 0.0000 0.0000 15.6779
#
#
#
# Elastic Compliance Matrix: (Units=1/GPa)
#
#
# Indices 1 2 3 4 5 6 
#
# 1 0.008837 -0.002144 -0.003108 0.000000 0.000000 0.000000
# 2 -0.002144 0.020262 -0.005006 0.000000 0.000000 0.000000
# 3 -0.003108 -0.005006 0.016749 0.000000 0.000000 0.000000
# 4 0.000000 0.000000 0.000000 0.098233 0.000000 0.000000
# 5 0.000000 0.000000 0.000000 0.000000 0.026327 0.000000
# 6 0.000000 0.000000 0.000000 0.000000 0.000000 0.063784
#
#
# Mechanical properties :
#
#
# Convention : Reuss Voigt Hill
#
# Bulk Modulus (GPa) = 39.47440 44.62697 42.05068
# Shear Modulus (GPa) = 19.00056 25.10194 22.05125
#
# Velocity S-wave (km/s) = 3.00278 3.45139 3.23487
# Velocity P-wave (km/s) = 5.54570 6.08773 5.82302
#
# Compressibility (1/GPa) = 0.02533288
#
# Stress axis : x y z
#
# Youngs Moduli (GPa) = 113.16670 49.35388 59.70575
#
# Poissons Ratio (x) = 0.10580 0.18555
# Poissons Ratio (y) = 0.24259 0.29887
# Poissons Ratio (z) = 0.35170 0.24705
#
# Static dielectric constant tensor:
#      x y z
#    x 1.746010 0.000000 0.000000 
#    y 0.000000 1.800470 0.000000 
#    z 0.000000 0.000000 1.817970 
# 
# From -- ./inp_files/21838.got.cif
#   From: 2010.05.17/outbox.cif.g08.bks.cpg/sg43_11_cif.got.tgz:21838.got - 2010.06.03 19:21:55.
