data_PCOD9372074
_publ_section_title
;
Structure prediction by ZEFSAII (Michael W. Deem and Ramdas Pophale) SiO2 
 PCOD9372074
Probable space group: F D D 2
;
_chemical_formula_sum "Si O2"
_cell_formula_units_Z 88
_cell_length_a 12.894348
_cell_length_b 24.170069
_cell_length_c 12.004921
_cell_angle_alpha 90.000000
_cell_angle_beta 90.000000
_cell_angle_gamma 90.000000
_cell_volume 3741.421036
_symmetry_space_group_name_H-M "F D D 2"
_symmetry_group_IT_number 43
_symmetry_cell_setting 'orthorhombic'
loop_
_space_group_symop_operation_xyz
x,y,z
-x,-y,z
1/4-x,1/4+y,1/4+z
1/4+x,1/4-y,1/4+z
x,1/2+y,1/2+z
-x,1/2-y,1/2+z
1/4-x,3/4+y,3/4+z
1/4+x,3/4-y,3/4+z
1/2+x,y,1/2+z
1/2-x,-y,1/2+z
3/4-x,1/4+y,3/4+z
3/4+x,1/4-y,3/4+z
1/2+x,1/2+y,z
1/2-x,1/2-y,z
3/4-x,3/4+y,1/4+z
3/4+x,3/4-y,1/4+z
loop_
_atom_site_type_symbol
_atom_site_label
_atom_site_fract_x
_atom_site_fract_y
_atom_site_fract_z
Si Si1 0.878823 0.577350 0.471630
Si Si2 0.056162 0.171781 0.975748
Si Si3 0.390502 0.259608 0.428703
Si Si4 0.600943 0.369134 0.283698
Si Si5 0.571078 0.915730 0.004644
Si Si6 0.250000 0.750000 0.109372
O O1 0.971569 0.621917 0.490952
O O2 0.867844 0.567901 0.339727
O O3 0.890643 0.523468 0.551485
O O4 0.763399 0.599764 0.503072
O O5 0.998420 0.227743 0.935734
O O6 0.133251 0.157554 0.874679
O O7 0.379877 0.320539 0.483442
O O8 0.320986 0.221251 0.511663
O O9 0.696737 0.333430 0.244532
O O10 0.609475 0.370640 0.417268
O O11 0.587299 0.972668 0.938526
#
# Coordination Sequence:
#
# PCOD9372074 Si02
#       6
#    16  16  16  16  16   8
#     4  12  24  48  73 104 151 189 245 315 371 444
#     4  12  27  44  69 112 145 189 247 316 381 434
#     4  11  24  42  73 102 133 194 251 287 364 462
#     4  11  21  43  70  98 134 198 235 295 362 451
#     4  11  24  41  70 101 147 183 246 301 367 439
#     4  10  24  44  70 100 130 200 244 294 356 470
#
# _framework density 23.520475000000001
#
# number of rings (size 3 to 8) (size 9 to 14) (size 15 to 20)
#    0.000    0.727    3.636    4.364    7.636    0.000 
#    0.000    0.909    0.000    0.000    0.000    0.000 
#    0.000    0.000    0.000    0.000    0.000    0.000 
#
# Total GULP energy -122488.055478 kJ/mol
# GULP energy per Si atom -5567.638885 kJ/mol
# Density = 2.346694 g / cm^3
# Si number density = 23.520475 Si / 1000 Ang^3
#
#
#
# Elastic Constant Matrix: (Units=GPa)
#
#
# Indices 1 2 3 4 5 6 
#
# 1 58.1980 7.2414 0.3731 0.0000 0.0000 0.0000
# 2 7.2414 44.8652 0.0300 0.0000 0.0000 0.0000
# 3 0.3731 0.0300 179.5500 0.0000 0.0000 0.0000
# 4 0.0000 0.0000 0.0000 19.3615 0.0000 0.0000
# 5 0.0000 0.0000 0.0000 0.0000 42.2402 0.0000
# 6 0.0000 0.0000 0.0000 0.0000 0.0000 30.0806
#
#
#
# Elastic Compliance Matrix: (Units=1/GPa)
#
#
# Indices 1 2 3 4 5 6 
#
# 1 0.017535 -0.002830 -0.000036 0.000000 0.000000 0.000000
# 2 -0.002830 0.022746 0.000002 0.000000 0.000000 0.000000
# 3 -0.000036 0.000002 0.005570 0.000000 0.000000 0.000000
# 4 0.000000 0.000000 0.000000 0.051649 0.000000 0.000000
# 5 0.000000 0.000000 0.000000 0.000000 0.023674 0.000000
# 6 0.000000 0.000000 0.000000 0.000000 0.000000 0.033244
#
#
# Mechanical properties :
#
#
# Convention : Reuss Voigt Hill
#
# Bulk Modulus (GPa) = 24.92381 33.10024 29.01203
# Shear Modulus (GPa) = 28.81515 36.66769 32.74142
#
# Velocity S-wave (km/s) = 3.50395 3.95266 3.73505
# Velocity P-wave (km/s) = 5.19518 5.91057 5.56439
#
# Compressibility (1/GPa) = 0.04012227
#
# Stress axis : x y z
#
# Youngs Moduli (GPa) = 57.02850 43.96416 179.54757
#
# Poissons Ratio (x) = 0.12443 0.00646
# Poissons Ratio (y) = 0.16140 -0.00037
# Poissons Ratio (z) = 0.00205 -0.00009
#
# Static dielectric constant tensor:
#      x y z
#    x 2.024530 0.000000 0.000000 
#    y 0.000000 2.136800 0.000000 
#    z 0.000000 0.000000 1.917120 
# 
# From -- ./inp_files/5754.got.cif
#   From: 2010.05.17/outbox.cif.g08.bks.cpg/sg43_3_cif.got.tgz:5754.got - 2010.06.03 19:21:55.
