data_PCOD9372840
_publ_section_title
;
Structure prediction by ZEFSAII (Michael W. Deem and Ramdas Pophale) SiO2 
 PCOD9372840
Probable space group: F D D 2
;
_chemical_formula_sum "Si O2"
_cell_formula_units_Z 88
_cell_length_a 9.675680
_cell_length_b 27.841591
_cell_length_c 12.002415
_cell_angle_alpha 90.000000
_cell_angle_beta 90.000000
_cell_angle_gamma 90.000000
_cell_volume 3233.286470
_symmetry_space_group_name_H-M "F D D 2"
_symmetry_group_IT_number 43
_symmetry_cell_setting 'orthorhombic'
loop_
_space_group_symop_operation_xyz
x,y,z
-x,-y,z
1/4-x,1/4+y,1/4+z
1/4+x,1/4-y,1/4+z
x,1/2+y,1/2+z
-x,1/2-y,1/2+z
1/4-x,3/4+y,3/4+z
1/4+x,3/4-y,3/4+z
1/2+x,y,1/2+z
1/2-x,-y,1/2+z
3/4-x,1/4+y,3/4+z
3/4+x,1/4-y,3/4+z
1/2+x,1/2+y,z
1/2-x,1/2-y,z
3/4-x,3/4+y,1/4+z
3/4+x,3/4-y,1/4+z
loop_
_atom_site_type_symbol
_atom_site_label
_atom_site_fract_x
_atom_site_fract_y
_atom_site_fract_z
Si Si1 0.777982 0.315981 0.850430
Si Si2 0.178251 0.021315 0.545448
Si Si3 0.000000 0.000000 0.910750
Si Si4 0.463395 0.431439 0.750412
Si Si5 0.781670 0.078522 0.427434
Si Si6 0.413912 0.918325 0.834591
O O1 0.702219 0.291299 0.746330
O O2 0.821238 0.370803 0.832281
O O3 0.924014 0.287994 0.844068
O O4 0.689744 0.310574 0.961922
O O5 0.072890 0.044022 0.634029
O O6 0.146904 0.046735 0.427461
O O7 0.180596 0.965678 0.508998
O O8 0.070709 0.964704 0.819858
O O9 0.514138 0.377322 0.738796
O O10 0.320964 0.432138 0.823464
O O11 0.929801 0.094059 0.373708
#
# Coordination Sequence:
#
# PCOD9372840 Si02
#       6
#    16  16   8  16  16  16
#     4  12  25  51  75 114 160 198 266 329 393 491
#     4  12  26  49  80 114 155 206 260 330 396 483
#     4  12  32  50  68 114 160 208 252 342 412 466
#     4  12  27  49  75 110 159 197 267 322 394 490
#     4  12  25  47  77 115 147 210 255 326 404 471
#     4  12  24  47  84 115 151 205 268 324 399 486
#
# _framework density 27.216891
#
# number of rings (size 3 to 8) (size 9 to 14) (size 15 to 20)
#    0.000    0.000    7.273    1.636    7.636    1.455 
#    3.273    0.000    0.000    0.000    0.000    0.000 
#    0.000    0.000    0.000    0.000    0.000    0.000 
#
# Total GULP energy -123115.293664 kJ/mol
# GULP energy per Si atom -5596.149712 kJ/mol
# Density = 2.715494 g / cm^3
# Si number density = 27.216891 Si / 1000 Ang^3
#
#
#
# Elastic Constant Matrix: (Units=GPa)
#
#
# Indices 1 2 3 4 5 6 
#
# 1 104.3798 40.2845 54.1663 0.0000 0.0000 0.0000
# 2 40.2845 254.2868 120.2532 0.0000 0.0000 0.0000
# 3 54.1663 120.2532 247.7915 0.0000 0.0000 0.0000
# 4 0.0000 0.0000 0.0000 46.3451 0.0000 0.0000
# 5 0.0000 0.0000 0.0000 0.0000 18.9326 0.0000
# 6 0.0000 0.0000 0.0000 0.0000 0.0000 27.1822
#
#
#
# Elastic Compliance Matrix: (Units=1/GPa)
#
#
# Indices 1 2 3 4 5 6 
#
# 1 0.010924 -0.000780 -0.002009 0.000000 0.000000 0.000000
# 2 -0.000780 0.005160 -0.002333 0.000000 0.000000 0.000000
# 3 -0.002009 -0.002333 0.005607 0.000000 0.000000 0.000000
# 4 0.000000 0.000000 0.000000 0.021577 0.000000 0.000000
# 5 0.000000 0.000000 0.000000 0.000000 0.052819 0.000000
# 6 0.000000 0.000000 0.000000 0.000000 0.000000 0.036789
#
#
# Mechanical properties :
#
#
# Convention : Reuss Voigt Hill
#
# Bulk Modulus (GPa) = 87.37424 115.09622 101.23523
# Shear Modulus (GPa) = 34.02810 44.60892 39.31851
#
# Velocity S-wave (km/s) = 3.53973 4.05287 3.80496
# Velocity P-wave (km/s) = 6.99135 8.01756 7.52198
#
# Compressibility (1/GPa) = 0.01144502
#
# Stress axis : x y z
#
# Youngs Moduli (GPa) = 91.53927 193.81065 178.34036
#
# Poissons Ratio (x) = 0.15126 0.35833
# Poissons Ratio (y) = 0.07144 0.41614
# Poissons Ratio (z) = 0.18393 0.45223
#
# Static dielectric constant tensor:
#      x y z
#    x 2.457960 0.000000 0.000000 
#    y 0.000000 2.157540 0.000000 
#    z 0.000000 0.000000 2.085800 
# 
# From -- ./inp_files/5756.got.cif
#   From: 2010.05.17/outbox.cif.g08.bks.cpg/sg43_3_cif.got.tgz:5756.got - 2010.06.03 19:21:55.
