data_PCOD9372627
_publ_section_title
;
Structure prediction by ZEFSAII (Michael W. Deem and Ramdas Pophale) SiO2 
 PCOD9372627
Probable space group: F D D 2
;
_chemical_formula_sum "Si O2"
_cell_formula_units_Z 112
_cell_length_a 13.755539
_cell_length_b 22.425656
_cell_length_c 15.460983
_cell_angle_alpha 90.000000
_cell_angle_beta 90.000000
_cell_angle_gamma 90.000000
_cell_volume 4769.357432
_symmetry_space_group_name_H-M "F D D 2"
_symmetry_group_IT_number 43
_symmetry_cell_setting 'orthorhombic'
loop_
_space_group_symop_operation_xyz
x,y,z
-x,-y,z
1/4-x,1/4+y,1/4+z
1/4+x,1/4-y,1/4+z
x,1/2+y,1/2+z
-x,1/2-y,1/2+z
1/4-x,3/4+y,3/4+z
1/4+x,3/4-y,3/4+z
1/2+x,y,1/2+z
1/2-x,-y,1/2+z
3/4-x,1/4+y,3/4+z
3/4+x,1/4-y,3/4+z
1/2+x,1/2+y,z
1/2-x,1/2-y,z
3/4-x,3/4+y,1/4+z
3/4+x,3/4-y,1/4+z
loop_
_atom_site_type_symbol
_atom_site_label
_atom_site_fract_x
_atom_site_fract_y
_atom_site_fract_z
Si Si1 0.208633 0.080493 0.329500
Si Si2 0.319743 0.004086 0.562367
Si Si3 0.143705 0.726097 0.001324
Si Si4 0.856950 0.911500 0.516010
Si Si5 0.091092 0.925204 0.929083
Si Si6 0.808775 0.115295 0.572018
Si Si7 0.503305 0.066941 0.159869
O O1 0.139843 0.081978 0.413162
O O2 0.176648 0.126954 0.256175
O O3 0.315726 0.091167 0.368726
O O4 0.193504 0.015057 0.290499
O O5 0.380590 0.016599 0.648273
O O6 0.239338 0.055851 0.550122
O O7 0.385014 0.013408 0.477527
O O8 0.263166 0.941943 0.568010
O O9 0.250000 0.750000 0.024758
O O10 0.140118 0.658644 0.031140
O O11 0.942609 0.940259 0.568882
O O12 0.998359 0.917926 0.869918
O O13 0.815616 0.140348 0.474018
O O14 0.900363 0.095642 0.630743
O O15 0.500000 0.000000 0.197523
#
# Coordination Sequence:
#
# PCOD9372627 Si02
#       7
#    16  16  16  16  16  16  16
#     4  11  24  45  75 109 149 201 248 327 385 466
#     4  11  25  47  75 112 150 197 254 329 385 474
#     4  12  26  43  77 113 148 198 255 325 400 467
#     4  11  27  46  75 107 154 199 260 316 389 460
#     4  11  24  46  75 111 154 196 258 316 389 466
#     4  12  28  50  81 111 157 214 255 329 398 475
#     4  12  30  52  78 112 160 211 267 323 394 481
#
# _framework density 23.483246999999999
#
# number of rings (size 3 to 8) (size 9 to 14) (size 15 to 20)
#    0.000    0.571    4.286    2.571    6.000    2.857 
#    0.000    0.000    0.000    0.000    0.000    0.000 
#    0.000    0.000    0.000    0.000    0.000    0.000 
#
# Total GULP energy -156637.027867 kJ/mol
# GULP energy per Si atom -5594.179567 kJ/mol
# Density = 2.342980 g / cm^3
# Si number density = 23.483247 Si / 1000 Ang^3
#
#
#
# Elastic Constant Matrix: (Units=GPa)
#
#
# Indices 1 2 3 4 5 6 
#
# 1 80.8436 15.3818 39.8690 0.0000 0.0000 0.0000
# 2 15.3818 79.7013 24.4352 0.0000 0.0000 0.0000
# 3 39.8690 24.4352 106.8406 0.0000 0.0000 0.0000
# 4 0.0000 0.0000 0.0000 23.1114 0.0000 0.0000
# 5 0.0000 0.0000 0.0000 0.0000 89.1296 0.0000
# 6 0.0000 0.0000 0.0000 0.0000 0.0000 23.0467
#
#
#
# Elastic Compliance Matrix: (Units=1/GPa)
#
#
# Indices 1 2 3 4 5 6 
#
# 1 0.015282 -0.001292 -0.005407 0.000000 0.000000 0.000000
# 2 -0.001292 0.013602 -0.002629 0.000000 0.000000 0.000000
# 3 -0.005407 -0.002629 0.011979 0.000000 0.000000 0.000000
# 4 0.000000 0.000000 0.000000 0.043269 0.000000 0.000000
# 5 0.000000 0.000000 0.000000 0.000000 0.011220 0.000000
# 6 0.000000 0.000000 0.000000 0.000000 0.000000 0.043390
#
#
# Mechanical properties :
#
#
# Convention : Reuss Voigt Hill
#
# Bulk Modulus (GPa) = 45.03013 47.41750 46.22381
# Shear Modulus (GPa) = 30.33992 39.57083 34.95538
#
# Velocity S-wave (km/s) = 3.59831 4.10941 3.86232
# Velocity P-wave (km/s) = 6.03994 6.53852 6.29417
#
# Compressibility (1/GPa) = 0.02220735
#
# Stress axis : x y z
#
# Youngs Moduli (GPa) = 65.43657 73.51804 83.48082
#
# Poissons Ratio (x) = 0.09495 0.45141
# Poissons Ratio (y) = 0.08451 0.21947
# Poissons Ratio (z) = 0.35383 0.19328
#
# Static dielectric constant tensor:
#      x y z
#    x 1.900000 0.000000 0.000000 
#    y 0.000000 1.940040 0.000000 
#    z 0.000000 0.000000 1.897320 
# 
# From -- ./inp_files/10204.got.cif
#   From: 2010.05.17/outbox.cif.g08.bks.cpg/sg43_6_cif.got.tgz:10204.got - 2010.06.03 19:21:55.
