data_PCOD9372560
_publ_section_title
;
Structure prediction by ZEFSAII (Michael W. Deem and Ramdas Pophale) SiO2 
 PCOD9372560
Probable space group: F D D 2
;
_chemical_formula_sum "Si O2"
_cell_formula_units_Z 88
_cell_length_a 11.270516
_cell_length_b 25.930084
_cell_length_c 11.687720
_cell_angle_alpha 90.000000
_cell_angle_beta 90.000000
_cell_angle_gamma 90.000000
_cell_volume 3415.682717
_symmetry_space_group_name_H-M "F D D 2"
_symmetry_group_IT_number 43
_symmetry_cell_setting 'orthorhombic'
loop_
_space_group_symop_operation_xyz
x,y,z
-x,-y,z
1/4-x,1/4+y,1/4+z
1/4+x,1/4-y,1/4+z
x,1/2+y,1/2+z
-x,1/2-y,1/2+z
1/4-x,3/4+y,3/4+z
1/4+x,3/4-y,3/4+z
1/2+x,y,1/2+z
1/2-x,-y,1/2+z
3/4-x,1/4+y,3/4+z
3/4+x,1/4-y,3/4+z
1/2+x,1/2+y,z
1/2-x,1/2-y,z
3/4-x,3/4+y,1/4+z
3/4+x,3/4-y,1/4+z
loop_
_atom_site_type_symbol
_atom_site_label
_atom_site_fract_x
_atom_site_fract_y
_atom_site_fract_z
Si Si1 0.147883 0.822732 0.659950
Si Si2 0.534094 0.762084 0.627735
Si Si3 0.958040 0.395385 0.172669
Si Si4 0.112238 0.927275 0.221955
Si Si5 0.250000 0.750000 0.301413
Si Si6 0.914093 0.855077 0.218937
O O1 0.127559 0.839523 0.528252
O O2 0.280608 0.837270 0.689949
O O3 0.089513 0.766481 0.663271
O O4 0.059316 0.859570 0.726958
O O5 0.591569 0.732470 0.518987
O O6 0.633958 0.754090 0.723703
O O7 0.499405 0.821826 0.633533
O O8 0.896345 0.362573 0.073780
O O9 0.009429 0.448485 0.125184
O O10 0.172310 0.914990 0.100658
O O11 0.971012 0.912730 0.211122
#
# Coordination Sequence:
#
# PCOD9372560 Si02
#       6
#    16  16  16  16   8  16
#     4  11  25  47  73 109 152 198 258 331 398 468
#     4  11  26  45  71 108 153 198 266 314 395 474
#     4  11  23  44  75 102 148 200 250 313 393 476
#     4  11  24  47  74 107 154 201 259 323 392 477
#     4  12  24  42  72 106 138 204 256 308 374 474
#     4  12  25  47  76 114 153 202 261 336 399 468
#
# _framework density 25.763518000000001
#
# number of rings (size 3 to 8) (size 9 to 14) (size 15 to 20)
#    0.000    0.727    1.818    7.091    2.545    0.000 
#    3.273    3.636    0.000    0.000    0.000    0.000 
#    0.000    0.000    0.000    0.000    0.000    0.000 
#
# Total GULP energy -123016.637816 kJ/mol
# GULP energy per Si atom -5591.665355 kJ/mol
# Density = 2.570488 g / cm^3
# Si number density = 25.763518 Si / 1000 Ang^3
#
#
#
# Elastic Constant Matrix: (Units=GPa)
#
#
# Indices 1 2 3 4 5 6 
#
# 1 145.1802 22.6158 13.1281 0.0000 0.0000 0.0000
# 2 22.6158 115.5799 13.5463 0.0000 0.0000 0.0000
# 3 13.1281 13.5463 68.2662 0.0000 0.0000 0.0000
# 4 0.0000 0.0000 0.0000 22.0118 0.0000 0.0000
# 5 0.0000 0.0000 0.0000 0.0000 32.0313 0.0000
# 6 0.0000 0.0000 0.0000 0.0000 0.0000 39.1331
#
#
#
# Elastic Compliance Matrix: (Units=1/GPa)
#
#
# Indices 1 2 3 4 5 6 
#
# 1 0.007189 -0.001274 -0.001130 0.000000 0.000000 0.000000
# 2 -0.001274 0.009084 -0.001558 0.000000 0.000000 0.000000
# 3 -0.001130 -0.001558 0.015175 0.000000 0.000000 0.000000
# 4 0.000000 0.000000 0.000000 0.045430 0.000000 0.000000
# 5 0.000000 0.000000 0.000000 0.000000 0.031220 0.000000
# 6 0.000000 0.000000 0.000000 0.000000 0.000000 0.025554
#
#
# Mechanical properties :
#
#
# Convention : Reuss Voigt Hill
#
# Bulk Modulus (GPa) = 42.50846 47.51187 45.01016
# Shear Modulus (GPa) = 33.46381 37.28430 35.37405
#
# Velocity S-wave (km/s) = 3.60791 3.80830 3.70946
# Velocity P-wave (km/s) = 5.82163 6.14972 5.98792
#
# Compressibility (1/GPa) = 0.02352473
#
# Stress axis : x y z
#
# Youngs Moduli (GPa) = 139.10857 110.08492 65.89861
#
# Poissons Ratio (x) = 0.14027 0.07444
# Poissons Ratio (y) = 0.17726 0.10264
# Poissons Ratio (z) = 0.15713 0.17146
#
# Static dielectric constant tensor:
#      x y z
#    x 2.178530 0.000000 0.000000 
#    y 0.000000 2.065160 0.000000 
#    z 0.000000 0.000000 2.046350 
# 
# From -- ./inp_files/5730.got.cif
#   From: 2010.05.17/outbox.cif.g08.bks.cpg/sg43_3_cif.got.tgz:5730.got - 2010.06.03 19:21:55.
