data_PCOD9372181
_publ_section_title
;
Structure prediction by ZEFSAII (Michael W. Deem and Ramdas Pophale) SiO2 
 PCOD9372181
Probable space group: F D D 2
;
_chemical_formula_sum "Si O2"
_cell_formula_units_Z 56
_cell_length_a 17.964680
_cell_length_b 19.779048
_cell_length_c 6.725119
_cell_angle_alpha 90.000000
_cell_angle_beta 90.000000
_cell_angle_gamma 90.000000
_cell_volume 2389.597986
_symmetry_space_group_name_H-M "F D D 2"
_symmetry_group_IT_number 43
_symmetry_cell_setting 'orthorhombic'
loop_
_space_group_symop_operation_xyz
x,y,z
-x,-y,z
1/4-x,1/4+y,1/4+z
1/4+x,1/4-y,1/4+z
x,1/2+y,1/2+z
-x,1/2-y,1/2+z
1/4-x,3/4+y,3/4+z
1/4+x,3/4-y,3/4+z
1/2+x,y,1/2+z
1/2-x,-y,1/2+z
3/4-x,1/4+y,3/4+z
3/4+x,1/4-y,3/4+z
1/2+x,1/2+y,z
1/2-x,1/2-y,z
3/4-x,3/4+y,1/4+z
3/4+x,3/4-y,1/4+z
loop_
_atom_site_type_symbol
_atom_site_label
_atom_site_fract_x
_atom_site_fract_y
_atom_site_fract_z
Si Si1 0.911862 0.384750 0.923790
Si Si2 0.898141 0.275338 0.608161
Si Si3 0.000000 0.500000 0.106462
Si Si4 0.686858 0.507798 0.273475
O O1 0.910709 0.348310 0.710334
O O2 0.913152 0.319866 0.070519
O O3 0.841550 0.434594 0.920339
O O4 0.979080 0.435047 0.973508
O O5 0.822214 0.266174 0.490470
O O6 0.899167 0.229853 0.808444
O O7 0.974935 0.259784 0.497273
#
# Coordination Sequence:
#
# PCOD9372181 Si02
#       4
#    16  16   8  16
#     4  10  27  44  78 108 150 200 255 315 385 453
#     4  10  26  47  74 109 150 197 250 318 379 462
#     4  12  26  48  74 112 150 198 260 312 394 454
#     4  10  24  49  72 112 150 195 255 313 386 451
#
# _framework density 23.434904
#
# number of rings (size 3 to 8) (size 9 to 14) (size 15 to 20)
#    1.714    0.000    0.000    1.714    8.000    3.429 
#    0.000    0.000    0.000    0.000    0.000    0.000 
#    0.000    0.000    0.000    0.000    0.000    0.000 
#
# Total GULP energy -78040.244506 kJ/mol
# GULP energy per Si atom -5574.303179 kJ/mol
# Density = 2.338157 g / cm^3
# Si number density = 23.434904 Si / 1000 Ang^3
#
#
#
# Elastic Constant Matrix: (Units=GPa)
#
#
# Indices 1 2 3 4 5 6 
#
# 1 195.1627 87.0324 61.0652 -0.0029 0.0017 0.0012
# 2 87.0324 172.8131 59.3795 -0.0114 0.0028 0.0021
# 3 61.0652 59.3795 62.6338 -0.0294 0.0067 0.0046
# 4 -0.0029 -0.0114 -0.0294 -36.3579 0.0131 0.0095
# 5 0.0017 0.0028 0.0067 0.0131 53.1570 -0.0028
# 6 0.0012 0.0021 0.0046 0.0095 -0.0028 40.4406
#
#
#
# Elastic Compliance Matrix: (Units=1/GPa)
#
#
# Indices 1 2 3 4 5 6 
#
# 1 0.007792 -0.001949 -0.005749 0.000005 0.000001 0.000001
# 2 -0.001949 0.009070 -0.006699 0.000003 0.000000 0.000000
# 3 -0.005749 -0.006699 0.027922 -0.000020 -0.000003 -0.000003
# 4 0.000005 0.000003 -0.000020 -0.027504 0.000007 0.000006
# 5 0.000001 0.000000 -0.000003 0.000007 0.018812 0.000001
# 6 0.000001 0.000000 -0.000003 0.000006 0.000001 0.024728
#
#
# Mechanical properties :
#
#
# Convention : Reuss Voigt Hill
#
# Bulk Modulus (GPa) = 62.53865 93.95151 78.24508
# Shear Modulus (GPa) = 52.66393 26.32343 39.49368
#
# Velocity S-wave (km/s) = 4.74565 3.35514 4.10963
# Velocity P-wave (km/s) = 7.53474 7.42878 7.48195
#
# Compressibility (1/GPa) = 0.01599011
#
# Stress axis : x y z
#
# Youngs Moduli (GPa) = 128.33927 110.25807 35.81456
#
# Poissons Ratio (x) = 0.21485 0.20591
# Poissons Ratio (y) = 0.25009 0.23991
# Poissons Ratio (z) = 0.73786 0.73857
#
# Static dielectric constant tensor:
#      x y z
#    x 1.843970 0.000000 0.000000 
#    y 0.000000 2.009900 0.000000 
#    z 0.000000 0.000000 1.971560 
# 
# From -- ./inp_files/2139.got.cif
#   From: 2010.05.17/outbox.cif.g08.bks.cpg/sg43_2_cif.got.tgz:2139.got - 2010.06.03 19:21:55.
