data_PCOD9372480
_publ_section_title
;
Structure prediction by ZEFSAII (Michael W. Deem and Ramdas Pophale) SiO2 
 PCOD9372480
Probable space group: F D D 2
;
_chemical_formula_sum "Si O2"
_cell_formula_units_Z 120
_cell_length_a 23.372184
_cell_length_b 8.535403
_cell_length_c 29.754414
_cell_angle_alpha 90.000000
_cell_angle_beta 90.000000
_cell_angle_gamma 90.000000
_cell_volume 5935.738084
_symmetry_space_group_name_H-M "F D D 2"
_symmetry_group_IT_number 43
_symmetry_cell_setting 'orthorhombic'
loop_
_space_group_symop_operation_xyz
x,y,z
-x,-y,z
1/4-x,1/4+y,1/4+z
1/4+x,1/4-y,1/4+z
x,1/2+y,1/2+z
-x,1/2-y,1/2+z
1/4-x,3/4+y,3/4+z
1/4+x,3/4-y,3/4+z
1/2+x,y,1/2+z
1/2-x,-y,1/2+z
3/4-x,1/4+y,3/4+z
3/4+x,1/4-y,3/4+z
1/2+x,1/2+y,z
1/2-x,1/2-y,z
3/4-x,3/4+y,1/4+z
3/4+x,3/4-y,1/4+z
loop_
_atom_site_type_symbol
_atom_site_label
_atom_site_fract_x
_atom_site_fract_y
_atom_site_fract_z
Si Si1 0.759024 0.937576 0.141220
Si Si2 0.097689 0.403190 0.317288
Si Si3 0.464677 0.337026 0.126031
Si Si4 0.456849 0.865712 0.064176
Si Si5 0.500000 0.000000 0.772006
Si Si6 0.169396 0.019374 0.579732
Si Si7 0.582549 0.234992 0.721958
Si Si8 0.794416 0.388487 0.732049
O O1 0.750000 0.750000 0.146824
O O2 0.805499 0.944491 0.100843
O O3 0.775455 0.994574 0.190259
O O4 0.700665 0.019835 0.127396
O O5 0.160895 0.389285 0.340780
O O6 0.079360 0.585521 0.316942
O O7 0.089173 0.350306 0.265458
O O8 0.500000 0.500000 0.134146
O O9 0.509655 0.221146 0.103407
O O10 0.442099 0.250209 0.171298
O O11 0.396024 0.931300 0.079272
O O12 0.445384 0.740080 0.025612
O O13 0.500000 0.000000 0.047328
O O14 0.459039 0.117848 0.799729
O O15 0.542817 0.100046 0.742069
O O16 0.647417 0.185732 0.714614
O O17 0.750000 0.250000 0.742844
#
# Coordination Sequence:
#
# PCOD9372480 Si02
#       8
#    16  16  16  16   8  16  16  16
#     4   9  20  40  70  94 125 176 237 279 331 424
#     4  11  22  45  70  98 138 188 236 287 357 430
#     4  12  26  45  70 106 142 188 242 298 361 435
#     4  12  25  45  66 100 145 179 231 296 357 425
#     4  12  24  44  68 104 142 176 232 286 354 414
#     4  11  24  45  70  98 142 187 232 293 353 426
#     4  12  24  43  71 103 139 184 233 293 358 428
#     4  11  23  43  71  99 132 187 240 284 352 430
#
# _framework density 20.216525000000001
#
# number of rings (size 3 to 8) (size 9 to 14) (size 15 to 20)
#    0.000    0.800    6.000    2.000    0.000    0.000 
#    3.600    1.333    0.000    0.000    0.000    0.000 
#    0.000    0.000    0.000    0.000    0.000    0.000 
#
# Total GULP energy -167289.740941 kJ/mol
# GULP energy per Si atom -5576.324698 kJ/mol
# Density = 2.017051 g / cm^3
# Si number density = 20.216525 Si / 1000 Ang^3
#
#
#
# Elastic Constant Matrix: (Units=GPa)
#
#
# Indices 1 2 3 4 5 6 
#
# 1 112.4720 19.4760 23.3497 0.0000 -0.0001 -0.0001
# 2 19.4760 38.1535 25.5337 0.0000 0.0000 -0.0002
# 3 23.3497 25.5337 124.4108 0.0000 0.0000 0.0000
# 4 0.0000 0.0000 0.0000 12.8855 0.0000 0.0000
# 5 -0.0001 0.0000 0.0000 0.0000 27.5870 0.0000
# 6 -0.0001 -0.0002 0.0000 0.0000 0.0000 33.3151
#
#
#
# Elastic Compliance Matrix: (Units=1/GPa)
#
#
# Indices 1 2 3 4 5 6 
#
# 1 0.009848 -0.004394 -0.000947 0.000000 0.000000 0.000000
# 2 -0.004394 0.032343 -0.005813 0.000000 0.000000 0.000000
# 3 -0.000947 -0.005813 0.009409 0.000000 0.000000 0.000000
# 4 0.000000 0.000000 0.000000 0.077607 0.000000 0.000000
# 5 0.000000 0.000000 0.000000 0.000000 0.036249 0.000000
# 6 0.000000 0.000000 0.000000 0.000000 0.000000 0.030016
#
#
# Mechanical properties :
#
#
# Convention : Reuss Voigt Hill
#
# Bulk Modulus (GPa) = 34.13802 45.75056 39.94429
# Shear Modulus (GPa) = 21.97374 28.53599 25.25486
#
# Velocity S-wave (km/s) = 3.30042 3.76109 3.53826
# Velocity P-wave (km/s) = 5.60772 6.44519 6.04099
#
# Compressibility (1/GPa) = 0.02929286
#
# Stress axis : x y z
#
# Youngs Moduli (GPa) = 101.53876 30.91829 106.28481
#
# Poissons Ratio (x) = 0.13585 0.10061
# Poissons Ratio (y) = 0.44614 0.61788
# Poissons Ratio (z) = 0.09612 0.17974
#
# Static dielectric constant tensor:
#      x y z
#    x 1.749930 0.000000 0.000000 
#    y 0.000000 1.721270 0.000000 
#    z 0.000000 0.000000 1.780200 
# 
# From -- ./inp_files/26596.got.cif
#   From: 2010.05.17/outbox.cif.g08.bks.cpg/sg43_14_cif.got.tgz:26596.got - 2010.06.03 19:21:55.
