data_PCOD9372963
_publ_section_title
;
Structure prediction by ZEFSAII (Michael W. Deem and Ramdas Pophale) SiO2 
 PCOD9372963
Probable space group: F D D 2
;
_chemical_formula_sum "Si O2"
_cell_formula_units_Z 26
_cell_length_a 21.000000
_cell_length_b 9.000000
_cell_length_c 27.000000
_cell_angle_alpha 90.000000
_cell_angle_beta 90.000000
_cell_angle_gamma 90.000000
_cell_volume 5103.000000
_symmetry_space_group_name_H-M "F D D 2"
_symmetry_group_IT_number 43
_symmetry_cell_setting 'orthorhombic'
loop_
_space_group_symop_operation_xyz
x,y,z
-x,-y,z
1/4-x,1/4+y,1/4+z
1/4+x,1/4-y,1/4+z
x,1/2+y,1/2+z
-x,1/2-y,1/2+z
1/4-x,3/4+y,3/4+z
1/4+x,3/4-y,3/4+z
1/2+x,y,1/2+z
1/2-x,-y,1/2+z
3/4-x,1/4+y,3/4+z
3/4+x,1/4-y,3/4+z
1/2+x,1/2+y,z
1/2-x,1/2-y,z
3/4-x,3/4+y,1/4+z
3/4+x,3/4-y,1/4+z
loop_
_atom_site_type_symbol
_atom_site_label
_atom_site_fract_x
_atom_site_fract_y
_atom_site_fract_z
Si Si1 0.490332 0.669796 0.457260
Si Si2 0.787038 0.546597 0.982612
Si Si3 0.139926 0.934346 0.147209
Si Si4 0.115128 0.080637 0.648196
Si Si5 0.846999 0.355688 0.298470
Si Si6 0.500000 0.000000 0.676852
Si Si7 0.447967 0.604619 0.821314
O O1 0.500000 0.500000 0.440947
O O2 0.561695 0.726848 0.443335
O O3 0.430847 0.729832 0.423976
O O4 0.463722 0.653403 0.514174
O O5 0.810595 0.660685 0.940272
O O6 0.759885 0.398448 0.958492
O O7 0.853437 0.517863 0.012458
O O8 0.735060 0.600578 0.021633
O O9 0.128294 0.757560 0.139667
O O10 0.069132 0.006849 0.149908
O O11 0.178061 0.002065 0.101386
O O12 0.092945 0.990429 0.599295
O O13 0.886313 0.504656 0.311056
O O14 0.500000 0.500000 0.848764
#
# Coordination Sequence:
#
# PCOD9372963 Si02
#       7
#    16  16  16  16  16   8  16
#     4   9  18  37  61  88 124 156 211 264 308 384
#     4   9  20  38  63  90 128 167 214 265 324 391
#     4  10  21  41  65  89 126 170 220 264 319 397
#     4   9  19  38  67  92 122 167 215 261 330 379
#     4  10  20  38  61  95 124 161 217 267 321 386
#     4  10  22  42  62  90 122 174 218 266 332 380
#     4  10  21  40  59  95 132 166 216 261 326 390
#
# _framework density 5.0950420000000003
#
# number of rings (size 3 to 8) (size 9 to 14) (size 15 to 20)
#    0.000    2.462    0.000    2.769    2.154    0.000 
#   19.385    0.000    0.000    0.000    0.000    0.000 
#    0.000    0.000    0.000    0.000    0.000    0.000 
#
# Total GULP energy -144760.364608 kJ/mol
# GULP energy per Si atom -5567.706331 kJ/mol
# Density = 0.508345 g / cm^3
# Si number density = 5.095042 Si / 1000 Ang^3
#
#
#
# Elastic Constant Matrix: (Units=GPa)
#
#
# Indices 1 2 3 4 5 6 
#
# 1 123.3854 28.9901 65.1435 0.0000 0.0000 0.0000
# 2 28.9901 25.8845 30.3150 0.0000 0.0000 0.0000
# 3 65.1435 30.3150 140.5472 0.0000 0.0000 0.0000
# 4 0.0000 0.0000 0.0000 31.2812 0.0000 0.0000
# 5 0.0000 0.0000 0.0000 0.0000 32.8831 0.0000
# 6 0.0000 0.0000 0.0000 0.0000 0.0000 32.0543
#
#
#
# Elastic Compliance Matrix: (Units=1/GPa)
#
#
# Indices 1 2 3 4 5 6 
#
# 1 0.012247 -0.009457 -0.003636 0.000000 0.000000 0.000000
# 2 -0.009457 0.058994 -0.008341 0.000000 0.000000 0.000000
# 3 -0.003636 -0.008341 0.010600 0.000000 0.000000 0.000000
# 4 0.000000 0.000000 0.000000 0.031968 0.000000 0.000000
# 5 0.000000 0.000000 0.000000 0.000000 0.030411 0.000000
# 6 0.000000 0.000000 0.000000 0.000000 0.000000 0.031197
#
#
# Mechanical properties :
#
#
# Convention : Reuss Voigt Hill
#
# Bulk Modulus (GPa) = 25.66030 59.85716 42.75873
# Shear Modulus (GPa) = 21.61919 30.26828 25.94374
#
# Velocity S-wave (km/s) = 3.26052 3.85799 3.57177
# Velocity P-wave (km/s) = 5.17618 7.01993 6.16734
#
# Compressibility (1/GPa) = 0.03897070
#
# Stress axis : x y z
#
# Youngs Moduli (GPa) = 81.65515 16.95089 94.34227
#
# Poissons Ratio (x) = 0.16031 0.34307
# Poissons Ratio (y) = 0.77222 0.78693
# Poissons Ratio (z) = 0.29694 0.14139
#
# Static dielectric constant tensor:
#      x y z
#    x 1.783980 0.000000 0.000000 
#    y 0.000000 1.874060 0.000000 
#    z 0.000000 0.000000 1.775370 
# 
# From -- ./inp_files/26361.got.cif
#   From: 2010.05.17/outbox.ucp.g08.bks.cvg/sg43_14_cif.got.tgz:26361.got - 2010.06.11 16:31:01.
