data_PCOD9372370
_publ_section_title
;
Structure prediction by ZEFSAII (Michael W. Deem and Ramdas Pophale) SiO2 
 PCOD9372370
Probable space group: F D D 2
;
_chemical_formula_sum "Si O2"
_cell_formula_units_Z 112
_cell_length_a 15.769055
_cell_length_b 11.354344
_cell_length_c 29.526034
_cell_angle_alpha 90.000000
_cell_angle_beta 90.000000
_cell_angle_gamma 90.000000
_cell_volume 5286.555930
_symmetry_space_group_name_H-M "F D D 2"
_symmetry_group_IT_number 43
_symmetry_cell_setting 'orthorhombic'
loop_
_space_group_symop_operation_xyz
x,y,z
-x,-y,z
1/4-x,1/4+y,1/4+z
1/4+x,1/4-y,1/4+z
x,1/2+y,1/2+z
-x,1/2-y,1/2+z
1/4-x,3/4+y,3/4+z
1/4+x,3/4-y,3/4+z
1/2+x,y,1/2+z
1/2-x,-y,1/2+z
3/4-x,1/4+y,3/4+z
3/4+x,1/4-y,3/4+z
1/2+x,1/2+y,z
1/2-x,1/2-y,z
3/4-x,3/4+y,1/4+z
3/4+x,3/4-y,1/4+z
loop_
_atom_site_type_symbol
_atom_site_label
_atom_site_fract_x
_atom_site_fract_y
_atom_site_fract_z
Si Si1 0.516814 0.693532 0.300050
Si Si2 0.513224 0.237203 0.477259
Si Si3 0.943358 0.619422 0.224535
Si Si4 0.583510 0.436834 0.222431
Si Si5 0.049506 0.378934 0.890011
Si Si6 0.707701 0.006283 0.903093
Si Si7 0.038814 0.372610 0.561423
O O1 0.532416 0.809816 0.270142
O O2 0.448338 0.616324 0.270901
O O3 0.484118 0.709170 0.351290
O O4 0.609549 0.632202 0.304081
O O5 0.593150 0.152291 0.470852
O O6 0.412450 0.224895 0.467628
O O7 0.536816 0.339298 0.441822
O O8 0.503343 0.231931 0.531716
O O9 0.000000 0.500000 0.223150
O O10 0.968614 0.700021 0.182188
O O11 0.500000 0.500000 0.204592
O O12 0.599214 0.326657 0.189710
O O13 0.148317 0.404613 0.882995
O O14 0.000000 0.500000 0.880680
O O15 0.730693 0.093456 0.863120
O O16 0.000000 0.500000 0.548746
#
# Coordination Sequence:
#
# PCOD9372370 Si02
#       7
#    16  16  16  16  16  16  16
#     4  11  23  42  70  98 137 177 229 280 339 396
#     4  12  24  41  68  99 138 179 225 272 349 396
#     4  11  25  48  65  96 145 180 212 284 345 413
#     4  11  21  38  68 104 133 178 222 281 333 407
#     4  12  22  42  68  98 128 177 229 289 324 401
#     4  11  24  42  70  94 135 175 234 281 338 396
#     4  12  23  43  67 101 138 178 223 287 336 412
#
# _framework density 21.185815000000002
#
# number of rings (size 3 to 8) (size 9 to 14) (size 15 to 20)
#    0.000    0.571    7.143    1.714    0.000    0.000 
#    2.571    1.429    0.000    0.000    0.000    0.000 
#    0.000    0.000    0.000    0.000    0.000    0.000 
#
# Total GULP energy -155917.786067 kJ/mol
# GULP energy per Si atom -5568.492360 kJ/mol
# Density = 2.113760 g / cm^3
# Si number density = 21.185815 Si / 1000 Ang^3
#
#
#
# Elastic Constant Matrix: (Units=GPa)
#
#
# Indices 1 2 3 4 5 6 
#
# 1 133.7414 28.7245 20.9579 0.0000 0.0000 0.0000
# 2 28.7245 61.1081 39.7423 0.0000 0.0000 0.0000
# 3 20.9579 39.7423 110.0487 0.0000 0.0000 0.0000
# 4 0.0000 0.0000 0.0000 32.6304 0.0000 0.0000
# 5 0.0000 0.0000 0.0000 0.0000 12.9676 0.0000
# 6 0.0000 0.0000 0.0000 0.0000 0.0000 32.3529
#
#
#
# Elastic Compliance Matrix: (Units=1/GPa)
#
#
# Indices 1 2 3 4 5 6 
#
# 1 0.008321 -0.003765 -0.000225 0.000000 0.000000 0.000000
# 2 -0.003765 0.023091 -0.007622 0.000000 0.000000 0.000000
# 3 -0.000225 -0.007622 0.011882 0.000000 0.000000 0.000000
# 4 0.000000 0.000000 0.000000 0.030646 0.000000 0.000000
# 5 0.000000 0.000000 0.000000 0.000000 0.077116 0.000000
# 6 0.000000 0.000000 0.000000 0.000000 0.000000 0.030909
#
#
# Mechanical properties :
#
#
# Convention : Reuss Voigt Hill
#
# Bulk Modulus (GPa) = 49.82439 53.74973 51.78706
# Shear Modulus (GPa) = 23.59828 29.95508 26.77668
#
# Velocity S-wave (km/s) = 3.34109 3.76429 3.55899
# Velocity P-wave (km/s) = 6.20103 6.65724 6.43318
#
# Compressibility (1/GPa) = 0.02007049
#
# Stress axis : x y z
#
# Youngs Moduli (GPa) = 120.17763 43.30635 84.15874
#
# Poissons Ratio (x) = 0.16305 0.01893
# Poissons Ratio (y) = 0.45248 0.64146
# Poissons Ratio (z) = 0.02704 0.33008
#
# Static dielectric constant tensor:
#      x y z
#    x 1.794900 0.000000 0.000000 
#    y 0.000000 1.806890 0.000000 
#    z 0.000000 0.000000 1.771760 
# 
# From -- ./inp_files/28636.got.cif
#   From: 2010.05.17/outbox.cif.g08.bks.cpg/sg43_15_cif.got.tgz:28636.got - 2010.06.03 19:21:55.
