data_PCOD9372698
_publ_section_title
;
Structure prediction by ZEFSAII (Michael W. Deem and Ramdas Pophale) SiO2 
 PCOD9372698
Probable space group: F D D 2
;
_chemical_formula_sum "Si O2"
_cell_formula_units_Z 120
_cell_length_a 8.870246
_cell_length_b 22.683392
_cell_length_c 26.338248
_cell_angle_alpha 90.000000
_cell_angle_beta 90.000000
_cell_angle_gamma 90.000000
_cell_volume 5299.446902
_symmetry_space_group_name_H-M "F D D 2"
_symmetry_group_IT_number 43
_symmetry_cell_setting 'orthorhombic'
loop_
_space_group_symop_operation_xyz
x,y,z
-x,-y,z
1/4-x,1/4+y,1/4+z
1/4+x,1/4-y,1/4+z
x,1/2+y,1/2+z
-x,1/2-y,1/2+z
1/4-x,3/4+y,3/4+z
1/4+x,3/4-y,3/4+z
1/2+x,y,1/2+z
1/2-x,-y,1/2+z
3/4-x,1/4+y,3/4+z
3/4+x,1/4-y,3/4+z
1/2+x,1/2+y,z
1/2-x,1/2-y,z
3/4-x,3/4+y,1/4+z
3/4+x,3/4-y,1/4+z
loop_
_atom_site_type_symbol
_atom_site_label
_atom_site_fract_x
_atom_site_fract_y
_atom_site_fract_z
Si Si1 0.830877 0.309285 0.108140
Si Si2 0.165996 0.082314 0.677187
Si Si3 0.327869 0.154892 0.108135
Si Si4 0.411791 0.765771 0.340973
Si Si5 0.690927 0.142451 0.716109
Si Si6 0.195725 0.686079 0.989435
Si Si7 0.185800 0.185216 0.001210
Si Si8 0.000000 0.000000 0.041295
O O1 0.750000 0.250000 0.126241
O O2 0.782412 0.364742 0.141500
O O3 0.013767 0.310129 0.108190
O O4 0.785028 0.317939 0.049634
O O5 0.273700 0.067900 0.723705
O O6 0.017480 0.102990 0.707246
O O7 0.155184 0.025940 0.640548
O O8 0.355953 0.084722 0.103096
O O9 0.242323 0.163005 0.160905
O O10 0.230375 0.171072 0.058637
O O11 0.250000 0.750000 0.312739
O O12 0.584156 0.756879 0.319213
O O13 0.520524 0.120823 0.714036
O O14 0.728945 0.192527 0.756451
O O15 0.766052 0.081887 0.738471
O O16 0.250000 0.750000 0.970663
O O17 0.250000 0.250000 0.991307
#
# Coordination Sequence:
#
# PCOD9372698 Si02
#       8
#    16  16  16  16  16  16  16   8
#     4  11  25  45  72 108 151 190 252 315 389 469
#     4  12  24  46  76 108 139 198 261 308 381 461
#     4  12  25  47  73 107 147 202 251 317 393 458
#     4  12  25  49  81 110 153 201 262 324 385 461
#     4  12  27  47  70 110 154 193 249 317 388 461
#     4  11  25  45  72 106 143 189 252 315 372 452
#     4  12  25  46  73 103 143 196 252 309 377 465
#     4  12  30  48  74 116 160 198 256 316 394 476
#
# _framework density 22.64387
#
# number of rings (size 3 to 8) (size 9 to 14) (size 15 to 20)
#    0.000    0.267    5.333    3.600    5.600    2.133 
#    0.000    1.333    0.000    0.000    0.000    0.000 
#    0.000    0.000    0.000    0.000    0.000    0.000 
#
# Total GULP energy -167552.932760 kJ/mol
# GULP energy per Si atom -5585.097759 kJ/mol
# Density = 2.259233 g / cm^3
# Si number density = 22.643870 Si / 1000 Ang^3
#
#
#
# Elastic Constant Matrix: (Units=GPa)
#
#
# Indices 1 2 3 4 5 6 
#
# 1 108.0813 14.9462 35.6091 0.0000 0.0000 0.0000
# 2 14.9462 85.8090 24.7731 0.0000 0.0000 0.0000
# 3 35.6091 24.7731 101.5206 0.0000 0.0000 0.0000
# 4 0.0000 0.0000 0.0000 1.8992 0.0000 0.0000
# 5 0.0000 0.0000 0.0000 0.0000 36.5649 0.0000
# 6 0.0000 0.0000 0.0000 0.0000 0.0000 37.7868
#
#
#
# Elastic Compliance Matrix: (Units=1/GPa)
#
#
# Indices 1 2 3 4 5 6 
#
# 1 0.010515 -0.000825 -0.003487 0.000000 0.000000 0.000000
# 2 -0.000825 0.012602 -0.002786 0.000000 0.000000 0.000000
# 3 -0.003487 -0.002786 0.011753 0.000000 0.000000 0.000000
# 4 0.000000 0.000000 0.000000 0.526532 0.000000 0.000000
# 5 0.000000 0.000000 0.000000 0.000000 0.027349 0.000000
# 6 0.000000 0.000000 0.000000 0.000000 0.000000 0.026464
#
#
# Mechanical properties :
#
#
# Convention : Reuss Voigt Hill
#
# Bulk Modulus (GPa) = 48.36805 49.56307 48.96556
# Shear Modulus (GPa) = 7.85790 29.92235 18.89013
#
# Velocity S-wave (km/s) = 1.86487 3.63910 2.89143
# Velocity P-wave (km/s) = 5.10330 6.29229 5.72873
#
# Compressibility (1/GPa) = 0.02067481
#
# Stress axis : x y z
#
# Youngs Moduli (GPa) = 95.10042 79.35436 85.08397
#
# Poissons Ratio (x) = 0.06545 0.29669
# Poissons Ratio (y) = 0.07844 0.23702
# Poissons Ratio (z) = 0.33162 0.22106
#
# Static dielectric constant tensor:
#      x y z
#    x 1.837830 0.000000 0.000000 
#    y 0.000000 1.887030 0.000000 
#    z 0.000000 0.000000 1.794450 
# 
# From -- ./inp_files/24455.got.cif
#   From: 2010.05.17/outbox.cif.g08.bks.cpg/sg43_13_cif.got.tgz:24455.got - 2010.06.03 19:21:55.
