data_PCOD9372744
_publ_section_title
;
Structure prediction by ZEFSAII (Michael W. Deem and Ramdas Pophale) SiO2 
 PCOD9372744
Probable space group: F D D 2
;
_chemical_formula_sum "Si O2"
_cell_formula_units_Z 80
_cell_length_a 19.973280
_cell_length_b 7.763878
_cell_length_c 18.896602
_cell_angle_alpha 90.000000
_cell_angle_beta 90.000000
_cell_angle_gamma 90.000000
_cell_volume 2930.298135
_symmetry_space_group_name_H-M "F D D 2"
_symmetry_group_IT_number 43
_symmetry_cell_setting 'orthorhombic'
loop_
_space_group_symop_operation_xyz
x,y,z
-x,-y,z
1/4-x,1/4+y,1/4+z
1/4+x,1/4-y,1/4+z
x,1/2+y,1/2+z
-x,1/2-y,1/2+z
1/4-x,3/4+y,3/4+z
1/4+x,3/4-y,3/4+z
1/2+x,y,1/2+z
1/2-x,-y,1/2+z
3/4-x,1/4+y,3/4+z
3/4+x,1/4-y,3/4+z
1/2+x,1/2+y,z
1/2-x,1/2-y,z
3/4-x,3/4+y,1/4+z
3/4+x,3/4-y,1/4+z
loop_
_atom_site_type_symbol
_atom_site_label
_atom_site_fract_x
_atom_site_fract_y
_atom_site_fract_z
Si Si1 0.854184 0.510919 0.884480
Si Si2 0.728110 0.457845 0.075769
Si Si3 0.342352 0.196185 0.122757
Si Si4 0.250000 0.250000 0.438985
Si Si5 0.250000 0.750000 0.296432
Si Si6 0.917120 0.746928 0.996412
O O1 0.925909 0.434375 0.856977
O O2 0.807979 0.648574 0.841290
O O3 0.809024 0.339568 0.895357
O O4 0.866690 0.613980 0.958258
O O5 0.694000 0.638549 0.092890
O O6 0.803272 0.521280 0.099689
O O7 0.729791 0.401537 0.993994
O O8 0.410767 0.224355 0.080663
O O9 0.341541 0.175848 0.207068
O O10 0.262330 0.906161 0.239337
#
# Coordination Sequence:
#
# PCOD9372744 Si02
#       6
#    16  16  16   8   8  16
#     4  12  27  46  78 115 159 218 273 351 412 503
#     4  11  26  49  72 117 154 218 265 342 412 506
#     4  11  26  47  83 109 161 210 276 344 431 496
#     4  12  26  45  78 112 165 210 282 336 418 506
#     4  12  28  49  80 118 165 210 284 344 426 502
#     4  12  24  50  76 114 154 217 267 349 418 500
#
# _framework density 27.300975000000001
#
# number of rings (size 3 to 8) (size 9 to 14) (size 15 to 20)
#    0.000    0.400    4.000    3.600    8.400    0.000 
#    3.600    0.000    0.000    0.000    0.000    0.000 
#    0.000    0.000    0.000    0.000    0.000    0.000 
#
# Total GULP energy -111348.422997 kJ/mol
# GULP energy per Si atom -5567.421150 kJ/mol
# Density = 2.723884 g / cm^3
# Si number density = 27.300975 Si / 1000 Ang^3
#
#
#
# Elastic Constant Matrix: (Units=GPa)
#
#
# Indices 1 2 3 4 5 6 
#
# 1 89.5833 1.9896 22.2519 0.0000 0.0000 0.0000
# 2 1.9896 164.5513 22.8904 0.0000 0.0000 0.0000
# 3 22.2519 22.8904 102.5258 0.0000 0.0000 0.0000
# 4 0.0000 0.0000 0.0000 53.2260 0.0000 0.0000
# 5 0.0000 0.0000 0.0000 0.0000 39.9690 0.0000
# 6 0.0000 0.0000 0.0000 0.0000 0.0000 47.7116
#
#
#
# Elastic Compliance Matrix: (Units=1/GPa)
#
#
# Indices 1 2 3 4 5 6 
#
# 1 0.011807 0.000221 -0.002612 0.000000 0.000000 0.000000
# 2 0.000221 0.006276 -0.001449 0.000000 0.000000 0.000000
# 3 -0.002612 -0.001449 0.010644 0.000000 0.000000 0.000000
# 4 0.000000 0.000000 0.000000 0.018788 0.000000 0.000000
# 5 0.000000 0.000000 0.000000 0.000000 0.025019 0.000000
# 6 0.000000 0.000000 0.000000 0.000000 0.000000 0.020959
#
#
# Mechanical properties :
#
#
# Convention : Reuss Voigt Hill
#
# Bulk Modulus (GPa) = 47.51455 50.10268 48.80862
# Shear Modulus (GPa) = 46.21539 48.81655 47.51597
#
# Velocity S-wave (km/s) = 4.11884 4.23317 4.17640
# Velocity P-wave (km/s) = 6.32942 6.50267 6.41663
#
# Compressibility (1/GPa) = 0.02104619
#
# Stress axis : x y z
#
# Youngs Moduli (GPa) = 84.69819 159.33607 93.94952
#
# Poissons Ratio (x) = -0.03514 0.24537
# Poissons Ratio (y) = -0.01868 0.13614
# Poissons Ratio (z) = 0.22121 0.23089
#
# Static dielectric constant tensor:
#      x y z
#    x 1.499550 0.000000 0.000000 
#    y 0.000000 1.911020 0.000000 
#    z 0.000000 0.000000 2.424490 
# 
# From -- ./inp_files/15008.got.cif
#   From: 2010.05.17/outbox.cif.g08.bks.cpg/sg43_8_cif.got.tgz:15008.got - 2010.06.03 19:21:55.
