data_PCOD9372649
_publ_section_title
;
Structure prediction by ZEFSAII (Michael W. Deem and Ramdas Pophale) SiO2 
 PCOD9372649
Probable space group: F D D 2
;
_chemical_formula_sum "Si O2"
_cell_formula_units_Z 72
_cell_length_a 18.048366
_cell_length_b 9.369597
_cell_length_c 16.493499
_cell_angle_alpha 90.000000
_cell_angle_beta 90.000000
_cell_angle_gamma 90.000000
_cell_volume 2789.148255
_symmetry_space_group_name_H-M "F D D 2"
_symmetry_group_IT_number 43
_symmetry_cell_setting 'orthorhombic'
loop_
_space_group_symop_operation_xyz
x,y,z
-x,-y,z
1/4-x,1/4+y,1/4+z
1/4+x,1/4-y,1/4+z
x,1/2+y,1/2+z
-x,1/2-y,1/2+z
1/4-x,3/4+y,3/4+z
1/4+x,3/4-y,3/4+z
1/2+x,y,1/2+z
1/2-x,-y,1/2+z
3/4-x,1/4+y,3/4+z
3/4+x,1/4-y,3/4+z
1/2+x,1/2+y,z
1/2-x,1/2-y,z
3/4-x,3/4+y,1/4+z
3/4+x,3/4-y,1/4+z
loop_
_atom_site_type_symbol
_atom_site_label
_atom_site_fract_x
_atom_site_fract_y
_atom_site_fract_z
Si Si1 0.339899 0.132721 0.377810
Si Si2 0.634752 0.558240 0.612103
Si Si3 0.253921 0.437446 0.210569
Si Si4 0.000000 0.000000 0.521472
Si Si5 0.941486 0.177740 0.195267
O O1 0.298932 0.100884 0.289537
O O2 0.422094 0.115608 0.420850
O O3 0.331191 0.304906 0.382550
O O4 0.279714 0.059056 0.437435
O O5 0.694280 0.446757 0.640563
O O6 0.566953 0.466846 0.580259
O O7 0.602367 0.677668 0.672419
O O8 0.670932 0.630282 0.533530
O O9 0.270786 0.607184 0.224390
#
# Coordination Sequence:
#
# PCOD9372649 Si02
#       5
#    16  16  16   8  16
#     4  11  25  48  77 122 161 209 275 350 415 489
#     4  12  25  50  80 108 154 221 269 330 414 513
#     4  12  26  51  82 118 166 215 277 350 421 502
#     4  12  24  52  76 114 156 218 278 324 422 512
#     4  11  24  46  78 113 156 210 276 336 408 508
#
# _framework density 25.814330000000002
#
# number of rings (size 3 to 8) (size 9 to 14) (size 15 to 20)
#    0.000    0.444    6.667    0.000    0.000   10.667 
#   12.000    0.000    0.000    0.000    0.000    0.000 
#    0.000    0.000    0.000    0.000    0.000    0.000 
#
# Total GULP energy -100225.043262 kJ/mol
# GULP energy per Si atom -5568.057959 kJ/mol
# Density = 2.575558 g / cm^3
# Si number density = 25.814330 Si / 1000 Ang^3
#
#
#
# Elastic Constant Matrix: (Units=GPa)
#
#
# Indices 1 2 3 4 5 6 
#
# 1 249.5501 32.3253 81.5430 0.0000 0.0000 0.0000
# 2 32.3253 128.3102 13.5657 0.0000 0.0000 0.0000
# 3 81.5430 13.5657 97.0962 0.0000 0.0000 0.0000
# 4 0.0000 0.0000 0.0000 39.8817 0.0000 0.0000
# 5 0.0000 0.0000 0.0000 0.0000 25.7120 0.0000
# 6 0.0000 0.0000 0.0000 0.0000 0.0000 34.8603
#
#
#
# Elastic Compliance Matrix: (Units=1/GPa)
#
#
# Indices 1 2 3 4 5 6 
#
# 1 0.005631 -0.000932 -0.004598 0.000000 0.000000 0.000000
# 2 -0.000932 0.008065 -0.000344 0.000000 0.000000 0.000000
# 3 -0.004598 -0.000344 0.014209 0.000000 0.000000 0.000000
# 4 0.000000 0.000000 0.000000 0.025074 0.000000 0.000000
# 5 0.000000 0.000000 0.000000 0.000000 0.038892 0.000000
# 6 0.000000 0.000000 0.000000 0.000000 0.000000 0.028686
#
#
# Mechanical properties :
#
#
# Convention : Reuss Voigt Hill
#
# Bulk Modulus (GPa) = 61.89919 81.09160 71.49540
# Shear Modulus (GPa) = 36.31324 43.25895 39.78610
#
# Velocity S-wave (km/s) = 3.75468 4.09806 3.93012
# Velocity P-wave (km/s) = 6.54427 7.33987 6.95346
#
# Compressibility (1/GPa) = 0.01615530
#
# Stress axis : x y z
#
# Youngs Moduli (GPa) = 177.60285 123.99499 70.37856
#
# Poissons Ratio (x) = 0.11561 0.32363
# Poissons Ratio (y) = 0.16559 0.02419
# Poissons Ratio (z) = 0.81668 0.04263
#
# Static dielectric constant tensor:
#      x y z
#    x 2.289910 0.000000 0.000000 
#    y 0.000000 2.219720 0.000000 
#    z 0.000000 0.000000 2.116080 
# 
# From -- ./inp_files/10853.got.cif
#   From: 2010.05.17/outbox.cif.g08.bks.cpg/sg43_6_cif.got.tgz:10853.got - 2010.06.03 19:21:55.
