data_PCOD9372040
_publ_section_title
;
Structure prediction by ZEFSAII (Michael W. Deem and Ramdas Pophale) SiO2 
 PCOD9372040
Probable space group: F D D 2
;
_chemical_formula_sum "Si O2"
_cell_formula_units_Z 64
_cell_length_a 17.408134
_cell_length_b 30.634744
_cell_length_c 4.859281
_cell_angle_alpha 90.000000
_cell_angle_beta 90.000000
_cell_angle_gamma 90.000000
_cell_volume 2591.424083
_symmetry_space_group_name_H-M "F D D 2"
_symmetry_group_IT_number 43
_symmetry_cell_setting 'orthorhombic'
loop_
_space_group_symop_operation_xyz
x,y,z
-x,-y,z
1/4-x,1/4+y,1/4+z
1/4+x,1/4-y,1/4+z
x,1/2+y,1/2+z
-x,1/2-y,1/2+z
1/4-x,3/4+y,3/4+z
1/4+x,3/4-y,3/4+z
1/2+x,y,1/2+z
1/2-x,-y,1/2+z
3/4-x,1/4+y,3/4+z
3/4+x,1/4-y,3/4+z
1/2+x,1/2+y,z
1/2-x,1/2-y,z
3/4-x,3/4+y,1/4+z
3/4+x,3/4-y,1/4+z
loop_
_atom_site_type_symbol
_atom_site_label
_atom_site_fract_x
_atom_site_fract_y
_atom_site_fract_z
Si Si1 0.479735 0.409618 0.513430
Si Si2 0.152406 0.594906 0.442219
Si Si3 0.303957 0.997095 0.567625
Si Si4 0.825108 0.820357 0.236894
O O1 0.399614 0.410686 0.673155
O O2 0.514730 0.361803 0.587896
O O3 0.532993 0.441982 0.702693
O O4 0.507771 0.419592 0.205866
O O5 0.158764 0.550220 0.605202
O O6 0.130346 0.635199 0.644794
O O7 0.231244 0.002206 0.763525
O O8 0.366671 0.034684 0.595880
#
# Coordination Sequence:
#
# PCOD9372040 Si02
#       4
#    16  16  16  16
#     4  10  24  42  74 100 149 186 253 306 393 441
#     4  10  26  44  76 102 149 198 248 321 381 455
#     4  12  27  45  74 105 152 201 262 313 386 465
#     4  10  25  43  69 108 144 188 257 306 378 455
#
# _framework density 24.696845
#
# number of rings (size 3 to 8) (size 9 to 14) (size 15 to 20)
#    1.500    0.000    0.000    3.000   10.500    1.000 
#    0.000    2.500    0.000    0.000    0.000    0.000 
#    0.000    0.000    0.000    0.000    0.000    0.000 
#
# Total GULP energy -89386.424733 kJ/mol
# GULP energy per Si atom -5586.651546 kJ/mol
# Density = 2.464063 g / cm^3
# Si number density = 24.696845 Si / 1000 Ang^3
#
#
#
# Elastic Constant Matrix: (Units=GPa)
#
#
# Indices 1 2 3 4 5 6 
#
# 1 84.3073 34.3343 7.2808 -0.0258 0.0671 0.0109
# 2 34.3343 119.1756 8.1965 -0.0422 -0.0283 0.0032
# 3 7.2808 8.1965 107.2177 -0.0528 -0.1219 0.0505
# 4 -0.0258 -0.0422 -0.0528 19.6105 -0.0091 0.0154
# 5 0.0671 -0.0283 -0.1219 -0.0091 36.4504 0.0158
# 6 0.0109 0.0032 0.0505 0.0154 0.0158 36.0464
#
#
#
# Elastic Compliance Matrix: (Units=1/GPa)
#
#
# Indices 1 2 3 4 5 6 
#
# 1 0.013479 -0.003841 -0.000622 0.000008 -0.000030 -0.000003
# 2 -0.003841 0.009530 -0.000468 0.000014 0.000013 0.000001
# 3 -0.000622 -0.000468 0.009405 0.000023 0.000032 -0.000013
# 4 0.000008 0.000014 0.000023 0.050993 0.000013 -0.000022
# 5 -0.000030 0.000013 0.000032 0.000013 0.027435 -0.000012
# 6 -0.000003 0.000001 -0.000013 -0.000022 -0.000012 0.027742
#
#
# Mechanical properties :
#
#
# Convention : Reuss Voigt Hill
#
# Bulk Modulus (GPa) = 44.33881 45.59153 44.96517
# Shear Modulus (GPa) = 32.05917 35.81405 33.93661
#
# Velocity S-wave (km/s) = 3.60684 3.81221 3.71094
# Velocity P-wave (km/s) = 5.94457 6.15450 6.05044
#
# Compressibility (1/GPa) = 0.02255361
#
# Stress axis : x y z
#
# Youngs Moduli (GPa) = 74.18851 104.93602 106.32812
#
# Poissons Ratio (x) = 0.40301 0.06611
# Poissons Ratio (y) = 0.28493 0.04973
# Poissons Ratio (z) = 0.04613 0.04908
#
# Static dielectric constant tensor:
#      x y z
#    x 1.971130 -0.000010 0.000000 
#    y -0.000010 1.955130 -0.000010 
#    z 0.000000 -0.000010 1.962990 
# 
# From -- ./inp_files/672.got.cif
#   From: 2010.05.17/outbox.cif.g08.bks.cpg/sg43_1_cif.got.tgz:672.got - 2010.06.03 19:21:55.
