data_PCOD9372968
_publ_section_title
;
Structure prediction by ZEFSAII (Michael W. Deem and Ramdas Pophale) SiO2 
 PCOD9372968
Probable space group: F D D 2
;
_chemical_formula_sum "Si O2"
_cell_formula_units_Z 28
_cell_length_a 12.000000
_cell_length_b 15.000000
_cell_length_c 30.000000
_cell_angle_alpha 90.000000
_cell_angle_beta 90.000000
_cell_angle_gamma 90.000000
_cell_volume 5400.000000
_symmetry_space_group_name_H-M "F D D 2"
_symmetry_group_IT_number 43
_symmetry_cell_setting 'orthorhombic'
loop_
_space_group_symop_operation_xyz
x,y,z
-x,-y,z
1/4-x,1/4+y,1/4+z
1/4+x,1/4-y,1/4+z
x,1/2+y,1/2+z
-x,1/2-y,1/2+z
1/4-x,3/4+y,3/4+z
1/4+x,3/4-y,3/4+z
1/2+x,y,1/2+z
1/2-x,-y,1/2+z
3/4-x,1/4+y,3/4+z
3/4+x,1/4-y,3/4+z
1/2+x,1/2+y,z
1/2-x,1/2-y,z
3/4-x,3/4+y,1/4+z
3/4+x,3/4-y,1/4+z
loop_
_atom_site_type_symbol
_atom_site_label
_atom_site_fract_x
_atom_site_fract_y
_atom_site_fract_z
Si Si1 0.903155 0.571733 0.844030
Si Si2 0.816988 0.126917 0.249256
Si Si3 0.828180 0.068368 0.146479
Si Si4 0.616299 0.041279 0.454625
Si Si5 0.776313 0.053448 0.880775
Si Si6 0.573587 0.677844 0.768164
Si Si7 0.246441 0.118133 0.118226
O O1 0.873828 0.580670 0.792009
O O2 0.792272 0.534741 0.867234
O O3 0.000000 0.500000 0.848311
O O4 0.962352 0.650576 0.872095
O O5 0.833953 0.093394 0.198769
O O6 0.682484 0.119619 0.255691
O O7 0.872525 0.225289 0.255715
O O8 0.935407 0.118169 0.125199
O O9 0.824879 0.963878 0.138332
O O10 0.706994 0.082105 0.489738
O O11 0.573223 0.098796 0.410593
O O12 0.500000 0.000000 0.474048
O O13 0.684940 0.960784 0.431650
O O14 0.895029 0.063836 0.856210
O O15 0.551714 0.662038 0.821252
#
# Coordination Sequence:
#
# PCOD9372968 Si02
#       7
#    16  16  16  16  16  16  16
#     4  10  22  40  64  96 130 174 221 273 334 404
#     4  11  23  41  68  96 131 173 228 278 325 406
#     4  11  22  40  66  97 128 173 232 275 322 392
#     4  10  22  42  65  94 134 182 216 272 343 404
#     4  10  21  40  64  88 131 177 212 268 342 398
#     4  11  23  43  66  97 134 180 221 273 344 404
#     4  11  24  41  65 102 134 171 225 285 333 393
#
# _framework density 5.1851849999999997
#
# number of rings (size 3 to 8) (size 9 to 14) (size 15 to 20)
#    0.000    1.429    2.857    2.143    4.000    3.429 
#    0.000    1.429    0.000    0.000    0.000    0.000 
#    0.000    0.000    0.000    0.000    0.000    0.000 
#
# Total GULP energy -155875.028844 kJ/mol
# GULP energy per Si atom -5566.965316 kJ/mol
# Density = 0.517338 g / cm^3
# Si number density = 5.185185 Si / 1000 Ang^3
#
#
#
# Elastic Constant Matrix: (Units=GPa)
#
#
# Indices 1 2 3 4 5 6 
#
# 1 137.1189 12.4304 35.5406 0.0000 0.0000 0.0000
# 2 12.4304 30.0439 -4.1049 0.0000 0.0000 0.0000
# 3 35.5406 -4.1049 97.3552 0.0000 0.0000 0.0000
# 4 0.0000 0.0000 0.0000 29.8790 0.0000 0.0000
# 5 0.0000 0.0000 0.0000 0.0000 -32.4735 0.0000
# 6 0.0000 0.0000 0.0000 0.0000 0.0000 15.3330
#
#
#
# Elastic Compliance Matrix: (Units=1/GPa)
#
#
# Indices 1 2 3 4 5 6 
#
# 1 0.008500 -0.003964 -0.003270 0.000000 0.000000 0.000000
# 2 -0.003964 0.035326 0.002936 0.000000 0.000000 0.000000
# 3 -0.003270 0.002936 0.011589 0.000000 0.000000 0.000000
# 4 0.000000 0.000000 0.000000 0.033468 0.000000 0.000000
# 5 0.000000 0.000000 0.000000 0.000000 -0.030794 0.000000
# 6 0.000000 0.000000 0.000000 0.000000 0.000000 0.065219
#
#
# Mechanical properties :
#
#
# Convention : Reuss Voigt Hill
#
# Bulk Modulus (GPa) = 21.35820 39.13891 30.24855
# Shear Modulus (GPa) = 33.89626 17.25782 25.57704
#
# Velocity S-wave (km/s) = 4.04701 2.88770 3.51547
# Velocity P-wave (km/s) = 5.67079 5.47996 5.57619
#
# Compressibility (1/GPa) = 0.04682043
#
# Stress axis : x y z
#
# Youngs Moduli (GPa) = 117.64923 28.30798 86.28683
#
# Poissons Ratio (x) = 0.11220 0.28217
# Poissons Ratio (y) = 0.46631 -0.25337
# Poissons Ratio (z) = 0.38472 -0.08312
#
# Static dielectric constant tensor:
#      x y z
#    x 1.774560 0.000000 0.000000 
#    y 0.000000 1.850010 0.000000 
#    z 0.000000 0.000000 1.724210 
# 
# From -- ./inp_files/28610.got.cif
#   From: 2010.05.17/outbox.ucp.g08.bks.cvg/sg43_15_cif.got.tgz:28610.got - 2010.06.11 16:31:01.
