data_PCOD9372800
_publ_section_title
;
Structure prediction by ZEFSAII (Michael W. Deem and Ramdas Pophale) SiO2 
 PCOD9372800
Probable space group: F D D 2
;
_chemical_formula_sum "Si O2"
_cell_formula_units_Z 88
_cell_length_a 27.218010
_cell_length_b 22.067817
_cell_length_c 5.446125
_cell_angle_alpha 90.000000
_cell_angle_beta 90.000000
_cell_angle_gamma 90.000000
_cell_volume 3271.171760
_symmetry_space_group_name_H-M "F D D 2"
_symmetry_group_IT_number 43
_symmetry_cell_setting 'orthorhombic'
loop_
_space_group_symop_operation_xyz
x,y,z
-x,-y,z
1/4-x,1/4+y,1/4+z
1/4+x,1/4-y,1/4+z
x,1/2+y,1/2+z
-x,1/2-y,1/2+z
1/4-x,3/4+y,3/4+z
1/4+x,3/4-y,3/4+z
1/2+x,y,1/2+z
1/2-x,-y,1/2+z
3/4-x,1/4+y,3/4+z
3/4+x,1/4-y,3/4+z
1/2+x,1/2+y,z
1/2-x,1/2-y,z
3/4-x,3/4+y,1/4+z
3/4+x,3/4-y,1/4+z
loop_
_atom_site_type_symbol
_atom_site_label
_atom_site_fract_x
_atom_site_fract_y
_atom_site_fract_z
Si Si1 0.401490 0.162601 0.769740
Si Si2 0.210664 0.167112 0.160059
Si Si3 0.580532 0.527483 0.226500
Si Si4 0.750000 0.250000 0.271304
Si Si5 0.531728 0.753626 0.027771
Si Si6 0.927602 0.368245 0.369711
O O1 0.430906 0.136466 0.538291
O O2 0.374777 0.222670 0.665473
O O3 0.439522 0.183657 0.977929
O O4 0.357797 0.120597 0.880849
O O5 0.191539 0.218350 0.353547
O O6 0.265680 0.141151 0.116156
O O7 0.209938 0.211041 0.921252
O O8 0.531896 0.548409 0.372427
O O9 0.594605 0.577733 0.031311
O O10 0.496105 0.748131 0.787608
O O11 0.568485 0.696146 0.005141
#
# Coordination Sequence:
#
# PCOD9372800 Si02
#       6
#    16  16  16   8  16  16
#     4  12  29  48  84 118 169 227 288 359 434 540
#     4  12  24  49  77 120 163 222 280 360 436 511
#     4  12  25  47  79 123 156 214 292 347 430 519
#     4  12  22  48  82 118 170 212 286 362 436 520
#     4  12  31  56  81 121 176 229 288 363 447 520
#     4  12  26  50  81 119 162 226 286 358 433 525
#
# _framework density 26.901675000000001
#
# number of rings (size 3 to 8) (size 9 to 14) (size 15 to 20)
#    0.000    0.000    7.273    1.091    5.091    5.818 
#    0.000    0.000    0.000    0.000    0.000    0.000 
#    0.000    0.000    0.000    0.000    0.000    0.000 
#
# Total GULP energy -122731.188311 kJ/mol
# GULP energy per Si atom -5578.690378 kJ/mol
# Density = 2.684045 g / cm^3
# Si number density = 26.901675 Si / 1000 Ang^3
#
#
#
# Elastic Constant Matrix: (Units=GPa)
#
#
# Indices 1 2 3 4 5 6 
#
# 1 112.9966 26.0325 66.2541 -0.0980 -0.0765 0.0627
# 2 26.0325 87.1187 7.4031 -0.0955 -0.2301 -0.0260
# 3 66.2541 7.4031 106.1716 -0.2259 -0.2764 0.0075
# 4 -0.0980 -0.0955 -0.2259 -37.7004 -0.1274 0.0083
# 5 -0.0765 -0.2301 -0.2764 -0.1274 68.0416 0.1542
# 6 0.0627 -0.0260 0.0075 0.0083 0.1542 17.7203
#
#
#
# Elastic Compliance Matrix: (Units=1/GPa)
#
#
# Indices 1 2 3 4 5 6 
#
# 1 0.015070 -0.003726 -0.009144 0.000025 -0.000033 -0.000055
# 2 -0.003726 0.012468 0.001456 -0.000031 0.000044 0.000030
# 3 -0.009144 0.001456 0.015023 -0.000070 0.000055 0.000028
# 4 0.000025 -0.000031 -0.000070 -0.026524 -0.000050 0.000013
# 5 -0.000033 0.000044 0.000055 -0.000050 0.014697 -0.000128
# 6 -0.000055 0.000030 0.000028 0.000013 -0.000128 0.056434
#
#
# Mechanical properties :
#
#
# Convention : Reuss Voigt Hill
#
# Bulk Modulus (GPa) = 50.67730 56.18515 53.43122
# Shear Modulus (GPa) = 42.89076 23.38545 33.13810
#
# Velocity S-wave (km/s) = 3.99727 2.95158 3.51354
# Velocity P-wave (km/s) = 6.33901 5.70495 6.03032
#
# Compressibility (1/GPa) = 0.01973270
#
# Stress axis : x y z
#
# Youngs Moduli (GPa) = 66.35738 80.20275 66.56255
#
# Poissons Ratio (x) = 0.29885 0.60867
# Poissons Ratio (y) = 0.24726 -0.09691
# Poissons Ratio (z) = 0.60679 -0.11677
#
# Static dielectric constant tensor:
#      x y z
#    x 2.073770 0.000020 -0.000050 
#    y 0.000020 2.287230 -0.000060 
#    z -0.000050 -0.000060 2.188390 
# 
# From -- ./inp_files/1381.got.cif
#   From: 2010.05.17/outbox.cif.g08.bks.cpg/sg43_1_cif.got.tgz:1381.got - 2010.06.03 19:21:55.
