data_PCOD9372993
_publ_section_title
;
Structure prediction by ZEFSAII (Michael W. Deem and Ramdas Pophale) SiO2 
 PCOD9372993
Probable space group: I M M 2
;
_chemical_formula_sum "Si O2"
_cell_formula_units_Z 40
_cell_length_a 7.686879
_cell_length_b 28.506169
_cell_length_c 7.377871
_cell_angle_alpha 90.000000
_cell_angle_beta 90.000000
_cell_angle_gamma 90.000000
_cell_volume 1616.664708
_symmetry_space_group_name_H-M "I M M 2"
_symmetry_group_IT_number 44
_symmetry_cell_setting 'orthorhombic'
loop_
_space_group_symop_operation_xyz
x,y,z
-x,-y,z
-x,y,z
x,-y,z
1/2+x,1/2+y,1/2+z
1/2-x,1/2-y,1/2+z
1/2-x,1/2+y,1/2+z
1/2+x,1/2-y,1/2+z
loop_
_atom_site_type_symbol
_atom_site_label
_atom_site_fract_x
_atom_site_fract_y
_atom_site_fract_z
Si Si1 0.198512 0.500000 0.915630
Si Si2 0.706603 0.599125 0.874936
Si Si3 0.792410 0.301866 0.914215
Si Si4 0.196517 0.800962 0.819907
Si Si5 0.698975 0.500000 0.328630
Si Si6 0.285318 0.399867 0.298364
O O1 0.233063 0.451818 0.808505
O O2 0.000000 0.500000 0.974786
O O3 0.305638 0.500000 0.105487
O O4 0.500000 0.598260 0.867484
O O5 0.760773 0.650333 0.803154
O O6 0.766778 0.599092 0.086255
O O7 0.729462 0.251144 0.844376
O O8 0.000000 0.299498 0.942918
O O9 0.694938 0.307180 0.103915
O O10 0.277204 0.850515 0.881019
O O11 0.000000 0.799655 0.893219
O O12 0.500000 0.500000 0.394285
O O13 0.775555 0.550604 0.378016
O O14 0.500000 0.399414 0.304112
#
# Coordination Sequence:
#
# PCOD9372993 Si02
#       6
#     4   8   8   8   4   8
#     4  10  16  22  36  60  87 112 143 182 222 270
#     4   9  16  27  41  58  85 118 147 181 230 277
#     4  10  19  30  46  68  91 119 158 197 231 274
#     4   9  18  31  45  64  93 123 151 189 236 280
#     4   8  12  20  36  56  79 112 147 174 216 272
#     4   7  11  21  37  56  79 108 140 175 217 266
#
# _framework density 24.742298000000002
#
# number of rings (size 3 to 8) (size 9 to 14) (size 15 to 20)
#    0.000    3.200    0.000    4.500    0.000    1.600 
#    0.000    0.000    0.000    0.000    0.000    1.400 
#    0.000    3.200    0.000    0.000    0.000    2.800 
#
# Total GULP energy -111373.218227 kJ/mol
# GULP energy per Si atom -5568.660911 kJ/mol
# Density = 2.468598 g / cm^3
# Si number density = 24.742298 Si / 1000 Ang^3
#
#
#
# Elastic Constant Matrix: (Units=GPa)
#
#
# Indices 1 2 3 4 5 6 
#
# 1 76.0691 13.9975 -10.0620 0.0000 0.0000 0.0003
# 2 13.9975 358.4151 15.3455 -0.0001 0.0000 0.0007
# 3 -10.0620 15.3455 58.3525 -0.0001 0.0000 -0.0015
# 4 0.0000 -0.0001 -0.0001 8.2989 0.0000 0.0004
# 5 0.0000 0.0000 0.0000 0.0000 -2.5111 0.0000
# 6 0.0003 0.0007 -0.0015 0.0004 0.0000 175.0420
#
#
#
# Elastic Compliance Matrix: (Units=1/GPa)
#
#
# Indices 1 2 3 4 5 6 
#
# 1 0.013596 -0.000639 0.002512 0.000000 0.000000 0.000000
# 2 -0.000639 0.002852 -0.000860 0.000000 0.000000 0.000000
# 3 0.002512 -0.000860 0.017797 0.000000 0.000000 0.000000
# 4 0.000000 0.000000 0.000000 0.120498 0.000000 0.000000
# 5 0.000000 0.000000 0.000000 0.000000 -0.398235 0.000000
# 6 0.000000 0.000000 0.000000 0.000000 0.000000 0.005713
#
#
# Mechanical properties :
#
#
# Convention : Reuss Voigt Hill
#
# Bulk Modulus (GPa) = 27.56977 59.04430 43.30703
# Shear Modulus (GPa) = -21.95710 67.73633 22.88962
#
# Velocity S-wave (km/s) = -2.98221 5.23795 3.04488
# Velocity P-wave (km/s) = 0.83136 7.77799 5.46836
#
# Compressibility (1/GPa) = 0.03627162
#
# Stress axis : x y z
#
# Youngs Moduli (GPa) = 73.55233 350.65291 56.19041
#
# Poissons Ratio (x) = 0.22390 -0.14117
# Poissons Ratio (y) = 0.04697 0.04833
# Poissons Ratio (z) = -0.18479 0.30159
#
# Static dielectric constant tensor:
#      x y z
#    x 1.931290 0.000000 0.000000 
#    y 0.000000 2.158370 0.000000 
#    z 0.000000 0.000000 2.026520 
# 
# From -- ./inp_files/4670.got.cif
#   From: 2010.05.17/outbox.cif.g08.bks.cpg/sg44_3_cif.got.tgz:4670.got - 2010.06.03 19:37:08.
