data_PCOD9372776
_publ_section_title
;
Structure prediction by ZEFSAII (Michael W. Deem and Ramdas Pophale) SiO2 
 PCOD9372776
Probable space group: F D D 2
;
_chemical_formula_sum "Si O2"
_cell_formula_units_Z 120
_cell_length_a 13.337099
_cell_length_b 22.327357
_cell_length_c 19.375148
_cell_angle_alpha 90.000000
_cell_angle_beta 90.000000
_cell_angle_gamma 90.000000
_cell_volume 5769.573629
_symmetry_space_group_name_H-M "F D D 2"
_symmetry_group_IT_number 43
_symmetry_cell_setting 'orthorhombic'
loop_
_space_group_symop_operation_xyz
x,y,z
-x,-y,z
1/4-x,1/4+y,1/4+z
1/4+x,1/4-y,1/4+z
x,1/2+y,1/2+z
-x,1/2-y,1/2+z
1/4-x,3/4+y,3/4+z
1/4+x,3/4-y,3/4+z
1/2+x,y,1/2+z
1/2-x,-y,1/2+z
3/4-x,1/4+y,3/4+z
3/4+x,1/4-y,3/4+z
1/2+x,1/2+y,z
1/2-x,1/2-y,z
3/4-x,3/4+y,1/4+z
3/4+x,3/4-y,1/4+z
loop_
_atom_site_type_symbol
_atom_site_label
_atom_site_fract_x
_atom_site_fract_y
_atom_site_fract_z
Si Si1 0.365749 0.266289 0.270010
Si Si2 0.104168 0.893808 0.228301
Si Si3 0.965398 0.258109 0.916114
Si Si4 0.500000 0.500000 0.546641
Si Si5 0.858796 0.658610 0.875977
Si Si6 0.556068 0.208619 0.207229
Si Si7 0.154305 0.295005 0.619643
Si Si8 0.368445 0.647701 0.970736
O O1 0.250000 0.250000 0.271421
O O2 0.404351 0.276372 0.347648
O O3 0.448018 0.218844 0.241396
O O4 0.369621 0.326897 0.225431
O O5 0.164270 0.955276 0.228195
O O6 0.091252 0.869827 0.306405
O O7 0.162600 0.845860 0.179904
O O8 0.995729 0.906475 0.195535
O O9 0.947496 0.187945 0.928924
O O10 0.073101 0.287988 0.905806
O O11 0.485945 0.441856 0.593686
O O12 0.601812 0.484914 0.503966
O O13 0.832565 0.607405 0.930577
O O14 0.562520 0.253108 0.142148
O O15 0.250000 0.250000 0.615485
O O16 0.132598 0.327405 0.548590
#
# Coordination Sequence:
#
# PCOD9372776 Si02
#       8
#    16  16  16   8  16  16  16  16
#     4  12  26  46  65  98 141 185 228 277 345 426
#     4  12  20  39  62 102 134 168 223 294 343 410
#     4  12  23  41  68 102 135 177 229 287 351 407
#     4  12  22  44  68 100 132 170 236 282 344 416
#     4  12  24  40  70 100 138 175 230 292 349 409
#     4  12  24  42  71 100 137 179 219 292 354 404
#     4  12  20  35  64  99 135 162 216 290 348 401
#     4  12  24  39  66  96 137 177 227 282 346 409
#
# _framework density 20.798763999999998
#
# number of rings (size 3 to 8) (size 9 to 14) (size 15 to 20)
#    0.000    0.000    7.333    5.200    0.000    1.067 
#    0.000    0.000    0.000    0.000    0.000    0.000 
#    0.000    0.000    0.000    0.000    0.000    0.000 
#
# Total GULP energy -167527.914044 kJ/mol
# GULP energy per Si atom -5584.263801 kJ/mol
# Density = 2.075143 g / cm^3
# Si number density = 20.798764 Si / 1000 Ang^3
#
#
#
# Elastic Constant Matrix: (Units=GPa)
#
#
# Indices 1 2 3 4 5 6 
#
# 1 102.8013 34.2672 28.8300 0.0000 0.0000 0.0000
# 2 34.2672 106.8366 35.5992 0.0000 0.0000 0.0000
# 3 28.8300 35.5992 54.5063 0.0000 0.0000 0.0000
# 4 0.0000 0.0000 0.0000 35.5675 0.0000 0.0000
# 5 0.0000 0.0000 0.0000 0.0000 22.3577 0.0000
# 6 0.0000 0.0000 0.0000 0.0000 0.0000 35.2451
#
#
#
# Elastic Compliance Matrix: (Units=1/GPa)
#
#
# Indices 1 2 3 4 5 6 
#
# 1 0.011806 -0.002181 -0.004821 0.000000 0.000000 0.000000
# 2 -0.002181 0.012366 -0.006923 0.000000 0.000000 0.000000
# 3 -0.004821 -0.006923 0.025418 0.000000 0.000000 0.000000
# 4 0.000000 0.000000 0.000000 0.028116 0.000000 0.000000
# 5 0.000000 0.000000 0.000000 0.000000 0.044727 0.000000
# 6 0.000000 0.000000 0.000000 0.000000 0.000000 0.028373
#
#
# Mechanical properties :
#
#
# Convention : Reuss Voigt Hill
#
# Bulk Modulus (GPa) = 45.99443 51.28190 48.63816
# Shear Modulus (GPa) = 26.89581 29.66390 28.27985
#
# Velocity S-wave (km/s) = 3.59993 3.78065 3.69140
# Velocity P-wave (km/s) = 6.28024 6.61570 6.45015
#
# Compressibility (1/GPa) = 0.02174176
#
# Stress axis : x y z
#
# Youngs Moduli (GPa) = 84.70106 80.86391 39.34214
#
# Poissons Ratio (x) = 0.17633 0.18965
# Poissons Ratio (y) = 0.18469 0.27238
# Poissons Ratio (z) = 0.40830 0.55986
#
# Static dielectric constant tensor:
#      x y z
#    x 1.796280 0.000000 0.000000 
#    y 0.000000 1.817970 0.000000 
#    z 0.000000 0.000000 1.798530 
# 
# From -- ./inp_files/17290.got.cif
#   From: 2010.05.17/outbox.cif.g08.bks.cpg/sg43_9_cif.got.tgz:17290.got - 2010.06.03 19:21:55.
