data_PCOD9372737
_publ_section_title
;
Structure prediction by ZEFSAII (Michael W. Deem and Ramdas Pophale) SiO2 
 PCOD9372737
Probable space group: F D D 2
;
_chemical_formula_sum "Si O2"
_cell_formula_units_Z 64
_cell_length_a 14.339626
_cell_length_b 15.461565
_cell_length_c 11.904291
_cell_angle_alpha 90.000000
_cell_angle_beta 90.000000
_cell_angle_gamma 90.000000
_cell_volume 2639.336778
_symmetry_space_group_name_H-M "F D D 2"
_symmetry_group_IT_number 43
_symmetry_cell_setting 'orthorhombic'
loop_
_space_group_symop_operation_xyz
x,y,z
-x,-y,z
1/4-x,1/4+y,1/4+z
1/4+x,1/4-y,1/4+z
x,1/2+y,1/2+z
-x,1/2-y,1/2+z
1/4-x,3/4+y,3/4+z
1/4+x,3/4-y,3/4+z
1/2+x,y,1/2+z
1/2-x,-y,1/2+z
3/4-x,1/4+y,3/4+z
3/4+x,1/4-y,3/4+z
1/2+x,1/2+y,z
1/2-x,1/2-y,z
3/4-x,3/4+y,1/4+z
3/4+x,3/4-y,1/4+z
loop_
_atom_site_type_symbol
_atom_site_label
_atom_site_fract_x
_atom_site_fract_y
_atom_site_fract_z
Si Si1 0.404909 0.539011 0.802600
Si Si2 0.696917 0.116343 0.213355
Si Si3 0.146647 0.047302 0.477556
Si Si4 0.256495 0.843579 0.786616
O O1 0.500000 0.500000 0.747813
O O2 0.336646 0.457399 0.797386
O O3 0.343794 0.616962 0.753297
O O4 0.435350 0.573289 0.924588
O O5 0.700861 0.070681 0.091233
O O6 0.624308 0.196000 0.214476
O O7 0.796766 0.156057 0.239045
O O8 0.195818 0.089376 0.370179
O O9 0.250000 0.750000 0.845952
#
# Coordination Sequence:
#
# PCOD9372737 Si02
#       4
#    16  16  16  16
#     4  11  28  48  79 115 161 209 272 340 414 486
#     4  11  27  46  74 109 154 212 257 335 405 491
#     4  11  26  46  77 109 158 205 267 328 411 483
#     4  11  27  48  83 118 160 209 279 339 407 499
#
# _framework density 24.248515000000001
#
# number of rings (size 3 to 8) (size 9 to 14) (size 15 to 20)
#    0.000    1.000    0.000    3.000   21.000    4.000 
#    0.000    0.000    0.000    0.000    0.000    0.000 
#    0.000    0.000    0.000    0.000    0.000    0.000 
#
# Total GULP energy -89580.921202 kJ/mol
# GULP energy per Si atom -5598.807575 kJ/mol
# Density = 2.419332 g / cm^3
# Si number density = 24.248515 Si / 1000 Ang^3
#
#
#
# Elastic Constant Matrix: (Units=GPa)
#
#
# Indices 1 2 3 4 5 6 
#
# 1 88.2294 60.4441 31.3647 0.0000 0.0000 0.0000
# 2 60.4441 174.6124 42.4582 0.0000 0.0000 0.0000
# 3 31.3647 42.4582 129.2555 0.0000 0.0000 0.0000
# 4 0.0000 0.0000 0.0000 -48.1539 0.0000 0.0000
# 5 0.0000 0.0000 0.0000 0.0000 21.4739 0.0000
# 6 0.0000 0.0000 0.0000 0.0000 0.0000 49.8409
#
#
#
# Elastic Compliance Matrix: (Units=1/GPa)
#
#
# Indices 1 2 3 4 5 6 
#
# 1 0.015392 -0.004804 -0.002157 0.000000 0.000000 0.000000
# 2 -0.004804 0.007723 -0.001371 0.000000 0.000000 0.000000
# 3 -0.002157 -0.001371 0.008710 0.000000 0.000000 0.000000
# 4 0.000000 0.000000 0.000000 -0.020767 0.000000 0.000000
# 5 0.000000 0.000000 0.000000 0.000000 0.046568 0.000000
# 6 0.000000 0.000000 0.000000 0.000000 0.000000 0.020064
#
#
# Mechanical properties :
#
#
# Convention : Reuss Voigt Hill
#
# Bulk Modulus (GPa) = 65.95595 73.40348 69.67972
# Shear Modulus (GPa) = 50.29763 21.82086 36.05925
#
# Velocity S-wave (km/s) = 4.55934 3.00306 3.86044
# Velocity P-wave (km/s) = 7.41457 6.50858 6.97630
#
# Compressibility (1/GPa) = 0.01516163
#
# Stress axis : x y z
#
# Youngs Moduli (GPa) = 64.97024 129.47986 114.80403
#
# Poissons Ratio (x) = 0.62196 0.24763
# Poissons Ratio (y) = 0.31208 0.15744
# Poissons Ratio (z) = 0.14014 0.17756
#
# Static dielectric constant tensor:
#      x y z
#    x 1.961350 0.000000 0.000000 
#    y 0.000000 1.933200 0.000000 
#    z 0.000000 0.000000 1.909920 
# 
# From -- ./inp_files/5960.got.cif
#   From: 2010.05.17/outbox.cif.g08.bks.cpg/sg43_3_cif.got.tgz:5960.got - 2010.06.03 19:21:55.
