data_PCOD9372967
_publ_section_title
;
Structure prediction by ZEFSAII (Michael W. Deem and Ramdas Pophale) SiO2 
 PCOD9372967
Probable space group: F D D 2
;
_chemical_formula_sum "Si O2"
_cell_formula_units_Z 30
_cell_length_a 24.000000
_cell_length_b 9.000000
_cell_length_c 27.000000
_cell_angle_alpha 90.000000
_cell_angle_beta 90.000000
_cell_angle_gamma 90.000000
_cell_volume 5832.000000
_symmetry_space_group_name_H-M "F D D 2"
_symmetry_group_IT_number 43
_symmetry_cell_setting 'orthorhombic'
loop_
_space_group_symop_operation_xyz
x,y,z
-x,-y,z
1/4-x,1/4+y,1/4+z
1/4+x,1/4-y,1/4+z
x,1/2+y,1/2+z
-x,1/2-y,1/2+z
1/4-x,3/4+y,3/4+z
1/4+x,3/4-y,3/4+z
1/2+x,y,1/2+z
1/2-x,-y,1/2+z
3/4-x,1/4+y,3/4+z
3/4+x,1/4-y,3/4+z
1/2+x,1/2+y,z
1/2-x,1/2-y,z
3/4-x,3/4+y,1/4+z
3/4+x,3/4-y,1/4+z
loop_
_atom_site_type_symbol
_atom_site_label
_atom_site_fract_x
_atom_site_fract_y
_atom_site_fract_z
Si Si1 0.157133 0.553533 0.685170
Si Si2 0.595546 0.700710 0.088895
Si Si3 0.728829 0.917744 0.141727
Si Si4 0.750000 0.750000 0.372444
Si Si5 0.647521 0.556011 0.998695
Si Si6 0.007675 0.823627 0.289100
Si Si7 0.824850 0.960940 0.440575
Si Si8 0.897560 0.034828 0.655488
O O1 0.132566 0.623255 0.633245
O O2 0.222304 0.528872 0.677550
O O3 0.141042 0.672758 0.727592
O O4 0.127782 0.397375 0.695340
O O5 0.540031 0.603257 0.090650
O O6 0.620210 0.677217 0.034619
O O7 0.588672 0.871181 0.106254
O O8 0.750000 0.750000 0.129635
O O9 0.668067 0.933247 0.165306
O O10 0.723397 0.011868 0.091738
O O11 0.782860 0.861995 0.408095
O O12 0.696003 0.486276 0.030851
O O13 0.676321 0.630022 0.950996
O O14 0.047449 0.769886 0.244599
O O15 0.000000 0.000000 0.287877
O O16 0.838549 0.112913 0.411790
#
# Coordination Sequence:
#
# PCOD9372967 Si02
#       8
#    16  16  16   8  16  16  16  16
#     4  10  21  41  65  91 136 170 228 278 336 408
#     4  10  21  40  63  95 124 176 222 277 338 412
#     4  12  24  43  66  98 136 182 224 281 355 415
#     4  10  22  42  64  86 130 172 224 274 348 412
#     4  11  21  42  67  94 129 176 228 282 336 427
#     4  12  24  39  69 100 127 176 235 282 344 416
#     4  11  23  42  63  99 133 174 226 290 340 405
#     4  11  26  39  64  98 140 171 227 291 347 404
#
# _framework density 5.1440330000000003
#
# number of rings (size 3 to 8) (size 9 to 14) (size 15 to 20)
#    0.000    1.067    6.000    1.600    5.600    2.667 
#    0.000    0.000    0.000    1.600    0.000    0.000 
#    0.000    0.000    0.000    0.000    0.000    0.000 
#
# Total GULP energy -167461.033258 kJ/mol
# GULP energy per Si atom -5582.034442 kJ/mol
# Density = 0.513232 g / cm^3
# Si number density = 5.144033 Si / 1000 Ang^3
#
#
#
# Elastic Constant Matrix: (Units=GPa)
#
#
# Indices 1 2 3 4 5 6 
#
# 1 57.5403 29.7002 -7.2102 0.0000 0.0000 0.0000
# 2 29.7002 150.0532 24.3724 -0.0001 0.0000 0.0000
# 3 -7.2102 24.3724 51.1781 0.0000 0.0000 0.0000
# 4 0.0000 -0.0001 0.0000 27.4180 0.0000 0.0000
# 5 0.0000 0.0000 0.0000 0.0000 -0.5653 0.0000
# 6 0.0000 0.0000 0.0000 0.0000 0.0000 11.2073
#
#
#
# Elastic Compliance Matrix: (Units=1/GPa)
#
#
# Indices 1 2 3 4 5 6 
#
# 1 0.020578 -0.004925 0.005245 0.000000 0.000000 0.000000
# 2 -0.004925 0.008402 -0.004695 0.000000 0.000000 0.000000
# 3 0.005245 -0.004695 0.022514 0.000000 0.000000 0.000000
# 4 0.000000 0.000000 0.000000 0.036472 0.000001 0.000000
# 5 0.000000 0.000000 0.000000 0.000001 -1.769115 -0.000002
# 6 0.000000 0.000000 0.000000 0.000000 -0.000002 0.089227
#
#
# Mechanical properties :
#
#
# Convention : Reuss Voigt Hill
#
# Bulk Modulus (GPa) = 23.39525 39.16625 31.28075
# Shear Modulus (GPa) = -3.18690 21.73929 9.27620
#
# Velocity S-wave (km/s) = -1.24587 3.25396 2.12556
# Velocity P-wave (km/s) = 3.05372 5.76140 4.61080
#
# Compressibility (1/GPa) = 0.04274371
#
# Stress axis : x y z
#
# Youngs Moduli (GPa) = 48.59470 119.02382 44.41616
#
# Poissons Ratio (x) = 0.58619 -0.23294
# Poissons Ratio (y) = 0.23933 0.20853
# Poissons Ratio (z) = -0.25486 0.55881
#
# Static dielectric constant tensor:
#      x y z
#    x 1.792470 0.000000 0.000000 
#    y 0.000000 -1.196160 0.000000 
#    z 0.000000 0.000000 1.712480 
# 
# From -- ./inp_files/26589.got.cif
#   From: 2010.05.17/outbox.ucp.g08.bks.cvg/sg43_14_cif.got.tgz:26589.got - 2010.06.11 16:31:01.
