data_PCOD9372049
_publ_section_title
;
Structure prediction by ZEFSAII (Michael W. Deem and Ramdas Pophale) SiO2 
 PCOD9372049
Probable space group: F D D 2
;
_chemical_formula_sum "Si O2"
_cell_formula_units_Z 120
_cell_length_a 23.695193
_cell_length_b 19.037107
_cell_length_c 12.625466
_cell_angle_alpha 90.000000
_cell_angle_beta 90.000000
_cell_angle_gamma 90.000000
_cell_volume 5695.195254
_symmetry_space_group_name_H-M "F D D 2"
_symmetry_group_IT_number 43
_symmetry_cell_setting 'orthorhombic'
loop_
_space_group_symop_operation_xyz
x,y,z
-x,-y,z
1/4-x,1/4+y,1/4+z
1/4+x,1/4-y,1/4+z
x,1/2+y,1/2+z
-x,1/2-y,1/2+z
1/4-x,3/4+y,3/4+z
1/4+x,3/4-y,3/4+z
1/2+x,y,1/2+z
1/2-x,-y,1/2+z
3/4-x,1/4+y,3/4+z
3/4+x,1/4-y,3/4+z
1/2+x,1/2+y,z
1/2-x,1/2-y,z
3/4-x,3/4+y,1/4+z
3/4+x,3/4-y,1/4+z
loop_
_atom_site_type_symbol
_atom_site_label
_atom_site_fract_x
_atom_site_fract_y
_atom_site_fract_z
Si Si1 0.972521 0.856496 0.591680
Si Si2 0.250000 0.750000 0.602004
Si Si3 0.922993 0.774103 0.780608
Si Si4 0.667761 0.173455 0.443554
Si Si5 0.634206 0.349544 0.186548
Si Si6 0.011443 0.284122 0.464728
Si Si7 0.558513 0.094952 0.526908
Si Si8 0.138783 0.768855 0.963246
O O1 0.931292 0.828743 0.684849
O O2 0.937872 0.906665 0.514335
O O3 0.989569 0.790346 0.521061
O O4 0.028997 0.885938 0.641365
O O5 0.301631 0.777797 0.530320
O O6 0.221892 0.807036 0.678892
O O7 0.868357 0.788493 0.852433
O O8 0.916669 0.696847 0.732628
O O9 0.975842 0.782067 0.857766
O O10 0.620488 0.122799 0.494299
O O11 0.618023 0.433401 0.196043
O O12 0.649495 0.308177 0.076679
O O13 0.076182 0.299112 0.439634
O O14 0.981694 0.338443 0.543887
O O15 0.566725 0.045859 0.627595
#
# Coordination Sequence:
#
# PCOD9372049 Si02
#       8
#    16   8  16  16  16  16  16  16
#     4  11  24  44  70 103 140 187 242 295 364 448
#     4  12  26  46  66 110 134 180 246 300 350 450
#     4  11  23  43  71 101 140 189 239 300 364 439
#     4  11  25  43  72  98 142 181 239 299 359 422
#     4  11  24  46  69 103 144 189 236 298 365 444
#     4  10  24  43  69 101 133 192 234 291 355 447
#     4  11  26  42  74  98 139 183 238 293 365 426
#     4  11  25  47  72 101 149 188 235 304 367 443
#
# _framework density 21.070394
#
# number of rings (size 3 to 8) (size 9 to 14) (size 15 to 20)
#    0.000    1.067    2.667    4.000    9.333    2.133 
#    0.000    2.667    0.000    0.000    0.000    0.000 
#    0.000    0.000    0.000    0.000    0.000    0.000 
#
# Total GULP energy -167422.911153 kJ/mol
# GULP energy per Si atom -5580.763705 kJ/mol
# Density = 2.102244 g / cm^3
# Si number density = 21.070394 Si / 1000 Ang^3
#
#
#
# Elastic Constant Matrix: (Units=GPa)
#
#
# Indices 1 2 3 4 5 6 
#
# 1 101.4251 39.3222 35.1088 0.0000 0.0000 0.0000
# 2 39.3222 62.4012 59.3060 0.0000 0.0000 0.0000
# 3 35.1088 59.3060 114.3701 0.0000 0.0000 0.0000
# 4 0.0000 0.0000 0.0000 26.4409 0.0000 0.0000
# 5 0.0000 0.0000 0.0000 0.0000 -7.9098 0.0000
# 6 0.0000 0.0000 0.0000 0.0000 0.0000 37.5440
#
#
#
# Elastic Compliance Matrix: (Units=1/GPa)
#
#
# Indices 1 2 3 4 5 6 
#
# 1 0.013062 -0.008715 0.000510 0.000000 0.000000 0.000000
# 2 -0.008715 0.037412 -0.016725 0.000000 0.000000 0.000000
# 3 0.000510 -0.016725 0.017260 0.000000 0.000000 0.000000
# 4 0.000000 0.000000 0.000000 0.037820 0.000000 0.000000
# 5 0.000000 0.000000 0.000000 0.000000 -0.126425 0.000000
# 6 0.000000 0.000000 0.000000 0.000000 0.000000 0.026635
#
#
# Mechanical properties :
#
#
# Convention : Reuss Voigt Hill
#
# Bulk Modulus (GPa) = 55.94965 60.63004 58.28984
# Shear Modulus (GPa) = 81.19181 20.84564 51.01872
#
# Velocity S-wave (km/s) = 6.21428 3.14878 4.92606
# Velocity P-wave (km/s) = 8.83748 6.48515 7.75107
#
# Compressibility (1/GPa) = 0.01787321
#
# Stress axis : x y z
#
# Youngs Moduli (GPa) = 76.55789 26.72921 57.93903
#
# Poissons Ratio (x) = 0.23295 -0.02952
# Poissons Ratio (y) = 0.66723 0.96900
# Poissons Ratio (z) = -0.03901 0.44703
#
# Static dielectric constant tensor:
#      x y z
#    x 1.734160 0.000000 0.000000 
#    y 0.000000 1.829070 0.000000 
#    z 0.000000 0.000000 1.794430 
# 
# From -- ./inp_files/6822.got.cif
#   From: 2010.05.17/outbox.cif.g08.bks.cpg/sg43_4_cif.got.tgz:6822.got - 2010.06.03 19:21:55.
