data_PCOD9372144
_publ_section_title
;
Structure prediction by ZEFSAII (Michael W. Deem and Ramdas Pophale) SiO2 
 PCOD9372144
Probable space group: F D D 2
;
_chemical_formula_sum "Si O2"
_cell_formula_units_Z 80
_cell_length_a 27.783108
_cell_length_b 5.299653
_cell_length_c 22.325517
_cell_angle_alpha 90.000000
_cell_angle_beta 90.000000
_cell_angle_gamma 90.000000
_cell_volume 3287.227690
_symmetry_space_group_name_H-M "F D D 2"
_symmetry_group_IT_number 43
_symmetry_cell_setting 'orthorhombic'
loop_
_space_group_symop_operation_xyz
x,y,z
-x,-y,z
1/4-x,1/4+y,1/4+z
1/4+x,1/4-y,1/4+z
x,1/2+y,1/2+z
-x,1/2-y,1/2+z
1/4-x,3/4+y,3/4+z
1/4+x,3/4-y,3/4+z
1/2+x,y,1/2+z
1/2-x,-y,1/2+z
3/4-x,1/4+y,3/4+z
3/4+x,1/4-y,3/4+z
1/2+x,1/2+y,z
1/2-x,1/2-y,z
3/4-x,3/4+y,1/4+z
3/4+x,3/4-y,1/4+z
loop_
_atom_site_type_symbol
_atom_site_label
_atom_site_fract_x
_atom_site_fract_y
_atom_site_fract_z
Si Si1 0.250000 0.750000 0.743711
Si Si2 0.129963 0.779510 0.061787
Si Si3 0.200639 0.910632 0.963829
Si Si4 0.712225 0.430621 0.148659
Si Si5 0.680981 0.025927 0.326092
Si Si6 0.250000 0.750000 0.544179
O O1 0.208266 0.653063 0.697423
O O2 0.271708 0.539270 0.787812
O O3 0.165105 0.806324 0.120203
O O4 0.093239 0.547954 0.067031
O O5 0.088259 0.005937 0.251844
O O6 0.104816 0.050204 0.058113
O O7 0.250000 0.750000 0.966208
O O8 0.189885 0.977976 0.896120
O O9 0.207604 0.175391 0.999396
O O10 0.750000 0.250000 0.180211
O O11 0.743781 0.525863 0.091601
#
# Coordination Sequence:
#
# PCOD9372144 Si02
#       6
#     8  16  16  16  16   8
#     4  11  28  50  78 114 156 217 250 324 404 483
#     4  11  29  48  76 116 153 205 261 327 379 464
#     4  11  26  48  80 109 156 210 255 323 393 477
#     4  10  24  46  79 109 156 207 262 319 392 475
#     4  12  30  50  76 116 161 199 263 325 398 452
#     4   9  20  42  76 106 140 201 262 302 376 473
#
# _framework density 24.336615999999999
#
# number of rings (size 3 to 8) (size 9 to 14) (size 15 to 20)
#    0.000    1.200    1.000    2.400   22.400    0.000 
#    0.000    0.000    0.000    0.000    0.000    0.000 
#    0.000    0.000    0.000    0.000    0.000    0.000 
#
# Total GULP energy -111689.655253 kJ/mol
# GULP energy per Si atom -5584.482763 kJ/mol
# Density = 2.428122 g / cm^3
# Si number density = 24.336616 Si / 1000 Ang^3
#
#
#
# Elastic Constant Matrix: (Units=GPa)
#
#
# Indices 1 2 3 4 5 6 
#
# 1 89.6957 42.6740 53.0709 0.0070 -0.0001 -0.0014
# 2 42.6740 101.9816 29.3514 -0.0010 -0.0031 -0.0035
# 3 53.0709 29.3514 197.0029 0.0048 0.0000 -0.0005
# 4 0.0070 -0.0010 0.0048 -12.8159 -0.0032 -0.0035
# 5 -0.0001 -0.0031 0.0000 -0.0032 26.5515 0.0000
# 6 -0.0014 -0.0035 -0.0005 -0.0035 0.0000 55.2386
#
#
#
# Elastic Compliance Matrix: (Units=1/GPa)
#
#
# Indices 1 2 3 4 5 6 
#
# 1 0.015869 -0.005652 -0.003433 0.000008 -0.000001 0.000000
# 2 -0.005652 0.012258 -0.000304 -0.000004 0.000001 0.000001
# 3 -0.003433 -0.000304 0.006046 0.000000 0.000000 0.000000
# 4 0.000008 -0.000004 0.000000 -0.078028 -0.000010 -0.000005
# 5 -0.000001 0.000001 0.000000 -0.000010 0.037663 0.000000
# 6 0.000000 0.000001 0.000000 -0.000005 0.000000 0.018103
#
#
# Mechanical properties :
#
#
# Convention : Reuss Voigt Hill
#
# Bulk Modulus (GPa) = 64.95306 70.98585 67.96946
# Shear Modulus (GPa) = 139.58141 31.36709 85.47425
#
# Velocity S-wave (km/s) = 7.58149 3.59400 5.93278
# Velocity P-wave (km/s) = 10.16789 6.81572 8.65564
#
# Compressibility (1/GPa) = 0.01539573
#
# Stress axis : x y z
#
# Youngs Moduli (GPa) = 63.01532 81.57721 165.39603
#
# Poissons Ratio (x) = 0.46111 0.56778
# Poissons Ratio (y) = 0.35619 0.05022
# Poissons Ratio (z) = 0.21632 0.02477
#
# Static dielectric constant tensor:
#      x y z
#    x 2.033110 0.000040 0.000000 
#    y 0.000040 4.224880 0.000000 
#    z 0.000000 0.000000 1.911340 
# 
# From -- ./inp_files/22926.got.cif
#   From: 2010.05.17/outbox.cif.g08.bks.cpg/sg43_12_cif.got.tgz:22926.got - 2010.06.03 19:21:55.
