data_PCOD9372235
_publ_section_title
;
Structure prediction by ZEFSAII (Michael W. Deem and Ramdas Pophale) SiO2 
 PCOD9372235
Probable space group: F D D 2
;
_chemical_formula_sum "Si O2"
_cell_formula_units_Z 104
_cell_length_a 13.338411
_cell_length_b 19.423483
_cell_length_c 16.904686
_cell_angle_alpha 90.000000
_cell_angle_beta 90.000000
_cell_angle_gamma 90.000000
_cell_volume 4379.638990
_symmetry_space_group_name_H-M "F D D 2"
_symmetry_group_IT_number 43
_symmetry_cell_setting 'orthorhombic'
loop_
_space_group_symop_operation_xyz
x,y,z
-x,-y,z
1/4-x,1/4+y,1/4+z
1/4+x,1/4-y,1/4+z
x,1/2+y,1/2+z
-x,1/2-y,1/2+z
1/4-x,3/4+y,3/4+z
1/4+x,3/4-y,3/4+z
1/2+x,y,1/2+z
1/2-x,-y,1/2+z
3/4-x,1/4+y,3/4+z
3/4+x,1/4-y,3/4+z
1/2+x,1/2+y,z
1/2-x,1/2-y,z
3/4-x,3/4+y,1/4+z
3/4+x,3/4-y,1/4+z
loop_
_atom_site_type_symbol
_atom_site_label
_atom_site_fract_x
_atom_site_fract_y
_atom_site_fract_z
Si Si1 0.997991 0.400688 0.835250
Si Si2 0.250000 0.250000 0.445691
Si Si3 0.797934 0.514200 0.228032
Si Si4 0.000000 0.500000 0.964797
Si Si5 0.655091 0.843684 0.196114
Si Si6 0.429875 0.751540 0.831596
Si Si7 0.750000 0.750000 0.071085
Si Si8 0.727267 0.382256 0.326244
O O1 0.014656 0.435806 0.751969
O O2 0.935233 0.332798 0.821569
O O3 0.943613 0.453793 0.895603
O O4 0.113371 0.382985 0.861008
O O5 0.344474 0.234203 0.393360
O O6 0.788237 0.596198 0.244344
O O7 0.780140 0.513176 0.133094
O O8 0.737788 0.452374 0.272136
O O9 0.906800 0.501494 0.263176
O O10 0.993540 0.565060 0.024414
O O11 0.603590 0.787653 0.253516
O O12 0.732015 0.812625 0.131954
O O13 0.558474 0.867412 0.145832
#
# Coordination Sequence:
#
# PCOD9372235 Si02
#       8
#    16   8  16   8  16  16   8  16
#     4  11  25  46  74 112 150 208 270 334 405 491
#     4  11  25  48  72 111 153 208 266 334 402 494
#     4  11  24  48  73 110 151 204 264 328 405 483
#     4  11  24  43  73 108 147 192 274 332 396 470
#     4  11  27  45  76 115 159 213 261 331 410 487
#     4  12  26  48  77 115 158 215 267 329 415 487
#     4  10  25  49  71 117 158 200 268 336 398 480
#     4  11  26  46  73 111 151 207 265 335 404 480
#
# _framework density 23.746248999999999
#
# number of rings (size 3 to 8) (size 9 to 14) (size 15 to 20)
#    0.000    0.923    3.077    1.385    6.462    4.923 
#    0.000    0.000    0.000    0.000    0.000    0.000 
#    0.000    0.000    0.000    0.000    0.000    0.000 
#
# Total GULP energy -144836.996161 kJ/mol
# GULP energy per Si atom -5570.653698 kJ/mol
# Density = 2.369220 g / cm^3
# Si number density = 23.746249 Si / 1000 Ang^3
#
#
#
# Elastic Constant Matrix: (Units=GPa)
#
#
# Indices 1 2 3 4 5 6 
#
# 1 67.4753 5.9196 14.8761 0.0000 0.0000 0.0000
# 2 5.9196 114.0290 14.2555 0.0000 0.0000 0.0000
# 3 14.8761 14.2555 92.2236 0.0000 0.0000 0.0000
# 4 0.0000 0.0000 0.0000 56.1654 0.0000 0.0000
# 5 0.0000 0.0000 0.0000 0.0000 52.8788 0.0000
# 6 0.0000 0.0000 0.0000 0.0000 0.0000 -133.4902
#
#
#
# Elastic Compliance Matrix: (Units=1/GPa)
#
#
# Indices 1 2 3 4 5 6 
#
# 1 0.015394 -0.000498 -0.002406 0.000000 0.000000 0.000000
# 2 -0.000498 0.008959 -0.001304 0.000000 0.000000 0.000000
# 3 -0.002406 -0.001304 0.011433 0.000000 0.000000 0.000000
# 4 0.000000 0.000000 0.000000 0.017805 0.000000 0.000000
# 5 0.000000 0.000000 0.000000 0.000000 0.018911 0.000000
# 6 0.000000 0.000000 0.000000 0.000000 0.000000 -0.007491
#
#
# Mechanical properties :
#
#
# Convention : Reuss Voigt Hill
#
# Bulk Modulus (GPa) = 36.53877 38.20338 37.37108
# Shear Modulus (GPa) = 60.56850 11.02259 35.79554
#
# Velocity S-wave (km/s) = 5.05588 2.15683 3.88676
# Velocity P-wave (km/s) = 7.03585 4.72500 5.99286
#
# Compressibility (1/GPa) = 0.02736819
#
# Stress axis : x y z
#
# Youngs Moduli (GPa) = 64.95854 111.62406 87.46638
#
# Poissons Ratio (x) = 0.05563 0.21046
# Poissons Ratio (y) = 0.03237 0.11409
# Poissons Ratio (z) = 0.15630 0.14560
#
# Static dielectric constant tensor:
#      x y z
#    x 1.762830 0.000000 0.000000 
#    y 0.000000 2.003270 0.000000 
#    z 0.000000 0.000000 1.883870 
# 
# From -- ./inp_files/13910.got.cif
#   From: 2010.05.17/outbox.cif.g08.bks.cpg/sg43_7_cif.got.tgz:13910.got - 2010.06.03 19:21:55.
