data_PCOD9372610
_publ_section_title
;
Structure prediction by ZEFSAII (Michael W. Deem and Ramdas Pophale) SiO2 
 PCOD9372610
Probable space group: F D D 2
;
_chemical_formula_sum "Si O2"
_cell_formula_units_Z 88
_cell_length_a 10.017455
_cell_length_b 20.651891
_cell_length_c 20.101359
_cell_angle_alpha 90.000000
_cell_angle_beta 90.000000
_cell_angle_gamma 90.000000
_cell_volume 4158.556863
_symmetry_space_group_name_H-M "F D D 2"
_symmetry_group_IT_number 43
_symmetry_cell_setting 'orthorhombic'
loop_
_space_group_symop_operation_xyz
x,y,z
-x,-y,z
1/4-x,1/4+y,1/4+z
1/4+x,1/4-y,1/4+z
x,1/2+y,1/2+z
-x,1/2-y,1/2+z
1/4-x,3/4+y,3/4+z
1/4+x,3/4-y,3/4+z
1/2+x,y,1/2+z
1/2-x,-y,1/2+z
3/4-x,1/4+y,3/4+z
3/4+x,1/4-y,3/4+z
1/2+x,1/2+y,z
1/2-x,1/2-y,z
3/4-x,3/4+y,1/4+z
3/4+x,3/4-y,1/4+z
loop_
_atom_site_type_symbol
_atom_site_label
_atom_site_fract_x
_atom_site_fract_y
_atom_site_fract_z
Si Si1 0.411161 0.749790 0.399220
Si Si2 0.000000 0.500000 0.489014
Si Si3 0.353601 0.690575 0.270924
Si Si4 0.961990 0.297318 0.645611
Si Si5 0.677399 0.100787 0.570324
Si Si6 0.321276 0.435787 0.787963
O O1 0.250000 0.750000 0.403273
O O2 0.442892 0.702407 0.336821
O O3 0.481060 0.816040 0.376357
O O4 0.454268 0.726488 0.471256
O O5 0.919864 0.547408 0.440854
O O6 0.890143 0.456293 0.527101
O O7 0.250000 0.750000 0.270328
O O8 0.422553 0.694648 0.199443
O O9 0.277420 0.624533 0.284206
O O10 0.946054 0.358276 0.597934
O O11 0.955951 0.231823 0.601476
O O12 0.779937 0.153129 0.537641
#
# Coordination Sequence:
#
# PCOD9372610 Si02
#       6
#    16   8  16  16  16  16
#     4  11  24  44  71  99 135 186 235 294 346 434
#     4  12  26  44  68 102 144 182 238 304 366 424
#     4  11  25  46  72 101 147 187 241 301 361 430
#     4  12  27  46  73 107 139 193 238 307 358 440
#     4  12  26  46  71 103 144 188 241 305 369 430
#     4  12  26  46  75 105 138 195 247 290 370 447
#
# _framework density 21.161187999999999
#
# number of rings (size 3 to 8) (size 9 to 14) (size 15 to 20)
#    0.000    0.364    7.273    1.091   12.727    0.000 
#    0.000    0.000    0.000    0.000    0.000    0.000 
#    0.000    0.000    0.000    0.000    0.000    0.000 
#
# Total GULP energy -122770.541085 kJ/mol
# GULP energy per Si atom -5580.479140 kJ/mol
# Density = 2.111302 g / cm^3
# Si number density = 21.161188 Si / 1000 Ang^3
#
#
#
# Elastic Constant Matrix: (Units=GPa)
#
#
# Indices 1 2 3 4 5 6 
#
# 1 42.7870 25.1538 36.8154 0.0000 0.0000 0.0000
# 2 25.1538 99.1319 56.0437 0.0000 0.0000 0.0000
# 3 36.8154 56.0437 128.4177 0.0000 0.0000 0.0000
# 4 0.0000 0.0000 0.0000 35.7859 0.0000 0.0000
# 5 0.0000 0.0000 0.0000 0.0000-4413.2527 0.0000
# 6 0.0000 0.0000 0.0000 0.0000 0.0000 31.7264
#
#
#
# Elastic Compliance Matrix: (Units=1/GPa)
#
#
# Indices 1 2 3 4 5 6 
#
# 1 0.032127 -0.003909 -0.007504 0.000000 0.000000 0.000000
# 2 -0.003909 0.013867 -0.004931 0.000000 0.000000 0.000000
# 3 -0.007504 -0.004931 0.012090 0.000000 0.000000 0.000000
# 4 0.000000 0.000000 0.000000 0.027944 0.000000 0.000000
# 5 0.000000 0.000000 0.000000 0.000000 -0.000227 0.000000
# 6 0.000000 0.000000 0.000000 0.000000 0.000000 0.031520
#
#
# Mechanical properties :
#
#
# Convention : Reuss Voigt Hill
#
# Bulk Modulus (GPa) = 39.37774 56.26250 47.82012
# Shear Modulus (GPa) = 31.55056 -858.99318 -413.72131
#
# Velocity S-wave (km/s) = 3.86549 -20.16953 -13.99764
# Velocity P-wave (km/s) = 6.21060 22.71052 15.44662
#
# Compressibility (1/GPa) = 0.02539506
#
# Stress axis : x y z
#
# Youngs Moduli (GPa) = 31.12682 72.11164 82.71001
#
# Poissons Ratio (x) = 0.28192 0.62066
# Poissons Ratio (y) = 0.12169 0.40786
# Poissons Ratio (z) = 0.23358 0.35560
#
# Static dielectric constant tensor:
#      x y z
#    x 1.837530 0.000000 0.000000 
#    y 0.000000 1.750480 0.000000 
#    z 0.000000 0.000000 1.781310 
# 
# From -- ./inp_files/13269.got.cif
#   From: 2010.05.17/outbox.cif.g08.bks.cpg/sg43_7_cif.got.tgz:13269.got - 2010.06.03 19:21:55.
