data_PCOD9372783
_publ_section_title
;
Structure prediction by ZEFSAII (Michael W. Deem and Ramdas Pophale) SiO2 
 PCOD9372783
Probable space group: F D D 2
;
_chemical_formula_sum "Si O2"
_cell_formula_units_Z 96
_cell_length_a 22.168566
_cell_length_b 17.383365
_cell_length_c 10.176029
_cell_angle_alpha 90.000000
_cell_angle_beta 90.000000
_cell_angle_gamma 90.000000
_cell_volume 3921.478031
_symmetry_space_group_name_H-M "F D D 2"
_symmetry_group_IT_number 43
_symmetry_cell_setting 'orthorhombic'
loop_
_space_group_symop_operation_xyz
x,y,z
-x,-y,z
1/4-x,1/4+y,1/4+z
1/4+x,1/4-y,1/4+z
x,1/2+y,1/2+z
-x,1/2-y,1/2+z
1/4-x,3/4+y,3/4+z
1/4+x,3/4-y,3/4+z
1/2+x,y,1/2+z
1/2-x,-y,1/2+z
3/4-x,1/4+y,3/4+z
3/4+x,1/4-y,3/4+z
1/2+x,1/2+y,z
1/2-x,1/2-y,z
3/4-x,3/4+y,1/4+z
3/4+x,3/4-y,1/4+z
loop_
_atom_site_type_symbol
_atom_site_label
_atom_site_fract_x
_atom_site_fract_y
_atom_site_fract_z
Si Si1 0.500000 0.000000 0.877760
Si Si2 0.250000 0.250000 0.010807
Si Si3 0.868059 0.488659 0.017301
Si Si4 0.060850 0.402948 0.470184
Si Si5 0.753133 0.899332 0.445578
Si Si6 0.086896 0.230994 0.384691
Si Si7 0.929588 0.872219 0.650987
O O1 0.434071 0.997219 0.949993
O O2 0.500818 0.924132 0.789304
O O3 0.199873 0.215194 0.107047
O O4 0.262968 0.174961 0.922349
O O5 0.818917 0.438458 0.941000
O O6 0.836534 0.569895 0.023533
O O7 0.878459 0.437492 0.143385
O O8 0.998422 0.379165 0.545522
O O9 0.087491 0.322033 0.415195
O O10 0.101286 0.447564 0.577401
O O11 0.710026 0.960217 0.517812
O O12 0.071878 0.180169 0.518163
#
# Coordination Sequence:
#
# PCOD9372783 Si02
#       7
#     8   8  16  16  16  16  16
#     4  12  22  40  72 110 144 198 244 324 376 458
#     4  12  32  50  74 114 172 192 258 330 406 452
#     4  12  23  44  76 109 149 191 262 309 385 456
#     4  12  28  51  75 114 156 207 258 317 398 474
#     4  12  24  43  79 107 151 200 261 319 380 468
#     4  12  26  49  81 110 150 206 269 316 388 474
#     4  12  24  49  74 117 145 202 260 325 378 471
#
# _framework density 24.480564999999999
#
# number of rings (size 3 to 8) (size 9 to 14) (size 15 to 20)
#    0.000    0.000    6.667    2.000    4.667    1.333 
#    3.000    1.667    0.000    0.000    0.000    0.000 
#    0.000    0.000    0.000    0.000    0.000    0.000 
#
# Total GULP energy -133855.994021 kJ/mol
# GULP energy per Si atom -5577.333084 kJ/mol
# Density = 2.442485 g / cm^3
# Si number density = 24.480565 Si / 1000 Ang^3
#
#
#
# Elastic Constant Matrix: (Units=GPa)
#
#
# Indices 1 2 3 4 5 6 
#
# 1 59.9139 18.3494 15.0856 0.0000 0.0000 0.0000
# 2 18.3494 172.7785 31.2035 0.0000 0.0000 0.0000
# 3 15.0856 31.2035 56.0612 0.0000 0.0000 0.0000
# 4 0.0000 0.0000 0.0000 42.6528 0.0000 0.0000
# 5 0.0000 0.0000 0.0000 0.0000 4.6594 0.0000
# 6 0.0000 0.0000 0.0000 0.0000 0.0000 34.2561
#
#
#
# Elastic Compliance Matrix: (Units=1/GPa)
#
#
# Indices 1 2 3 4 5 6 
#
# 1 0.018110 -0.001160 -0.004228 0.000000 0.000000 0.000000
# 2 -0.001160 0.006509 -0.003311 0.000000 0.000000 0.000000
# 3 -0.004228 -0.003311 0.020818 0.000000 0.000000 0.000000
# 4 0.000000 0.000000 0.000000 0.023445 0.000000 0.000000
# 5 0.000000 0.000000 0.000000 0.000000 0.214620 0.000000
# 6 0.000000 0.000000 0.000000 0.000000 0.000000 0.029192
#
#
# Mechanical properties :
#
#
# Convention : Reuss Voigt Hill
#
# Bulk Modulus (GPa) = 35.66259 46.44783 41.05521
# Shear Modulus (GPa) = 14.73025 31.25466 22.99245
#
# Velocity S-wave (km/s) = 2.45564 3.57699 3.06798
# Velocity P-wave (km/s) = 4.75811 6.00619 5.41821
#
# Compressibility (1/GPa) = 0.02804059
#
# Stress axis : x y z
#
# Youngs Moduli (GPa) = 55.21707 153.63720 48.03520
#
# Poissons Ratio (x) = 0.17819 0.20308
# Poissons Ratio (y) = 0.06404 0.15903
# Poissons Ratio (z) = 0.23345 0.50865
#
# Static dielectric constant tensor:
#      x y z
#    x 2.051900 0.000000 0.000000 
#    y 0.000000 1.990360 0.000000 
#    z 0.000000 0.000000 2.097150 
# 
# From -- ./inp_files/7532.got.cif
#   From: 2010.05.17/outbox.cif.g08.bks.cpg/sg43_4_cif.got.tgz:7532.got - 2010.06.03 19:21:55.
