data_PCOD9372283
_publ_section_title
;
Structure prediction by ZEFSAII (Michael W. Deem and Ramdas Pophale) SiO2 
 PCOD9372283
Probable space group: F D D 2
;
_chemical_formula_sum "Si O2"
_cell_formula_units_Z 96
_cell_length_a 25.609746
_cell_length_b 11.563939
_cell_length_c 12.404714
_cell_angle_alpha 90.000000
_cell_angle_beta 90.000000
_cell_angle_gamma 90.000000
_cell_volume 3673.650352
_symmetry_space_group_name_H-M "F D D 2"
_symmetry_group_IT_number 43
_symmetry_cell_setting 'orthorhombic'
loop_
_space_group_symop_operation_xyz
x,y,z
-x,-y,z
1/4-x,1/4+y,1/4+z
1/4+x,1/4-y,1/4+z
x,1/2+y,1/2+z
-x,1/2-y,1/2+z
1/4-x,3/4+y,3/4+z
1/4+x,3/4-y,3/4+z
1/2+x,y,1/2+z
1/2-x,-y,1/2+z
3/4-x,1/4+y,3/4+z
3/4+x,1/4-y,3/4+z
1/2+x,1/2+y,z
1/2-x,1/2-y,z
3/4-x,3/4+y,1/4+z
3/4+x,3/4-y,1/4+z
loop_
_atom_site_type_symbol
_atom_site_label
_atom_site_fract_x
_atom_site_fract_y
_atom_site_fract_z
Si Si1 0.250000 0.750000 0.336180
Si Si2 0.750000 0.750000 0.139014
Si Si3 0.434462 0.668330 0.436829
Si Si4 0.727871 0.515599 0.021872
Si Si5 0.057020 0.633248 0.581515
Si Si6 0.119734 0.186339 0.381413
Si Si7 0.330138 0.062007 0.852532
O O1 0.289741 0.819124 0.259794
O O2 0.284699 0.648964 0.394766
O O3 0.724303 0.649011 0.065794
O O4 0.713148 0.814415 0.225531
O O5 0.477075 0.713690 0.350288
O O6 0.414101 0.761820 0.523180
O O7 0.384194 0.626588 0.375394
O O8 0.513664 0.699205 0.154937
O O9 0.667577 0.472575 0.033472
O O10 0.089044 0.538209 0.645852
O O11 0.075881 0.186007 0.474190
O O12 0.152423 0.068747 0.379233
#
# Coordination Sequence:
#
# PCOD9372283 Si02
#       7
#     8   8  16  16  16  16  16
#     4  12  26  50  78 116 166 216 276 356 438 518
#     4  10  26  48  74 118 170 220 288 354 442 522
#     4  11  26  49  74 121 163 212 278 346 430 532
#     4  11  24  49  80 116 169 219 280 360 429 518
#     4  11  27  45  79 113 159 216 283 351 438 513
#     4  12  24  47  82 114 153 224 286 352 426 519
#     4  12  25  48  81 112 165 214 280 355 429 520
#
# _framework density 26.132045000000002
#
# number of rings (size 3 to 8) (size 9 to 14) (size 15 to 20)
#    0.000    0.667    5.000    1.000    4.667    2.000 
#    3.000    1.667    0.000    0.000    0.000    0.000 
#    0.000    0.000    0.000    0.000    0.000    0.000 
#
# Total GULP energy -133883.621028 kJ/mol
# GULP energy per Si atom -5578.484210 kJ/mol
# Density = 2.607257 g / cm^3
# Si number density = 26.132045 Si / 1000 Ang^3
#
#
#
# Elastic Constant Matrix: (Units=GPa)
#
#
# Indices 1 2 3 4 5 6 
#
# 1 75.5813 45.5194 12.9060 0.0000 0.0000 0.0000
# 2 45.5194 190.0932 58.5093 0.0000 0.0000 0.0000
# 3 12.9060 58.5093 57.0353 0.0000 0.0000 0.0000
# 4 0.0000 0.0000 0.0000 -13.4394 0.0000 0.0000
# 5 0.0000 0.0000 0.0000 0.0000 25.2378 0.0000
# 6 0.0000 0.0000 0.0000 0.0000 0.0000 38.3219
#
#
#
# Elastic Compliance Matrix: (Units=1/GPa)
#
#
# Indices 1 2 3 4 5 6 
#
# 1 0.015468 -0.003839 0.000438 0.000000 0.000000 0.000000
# 2 -0.003839 0.008641 -0.007995 0.000000 0.000000 0.000000
# 3 0.000438 -0.007995 0.025636 0.000000 0.000000 0.000000
# 4 0.000000 0.000000 0.000000 -0.074408 0.000000 0.000000
# 5 0.000000 0.000000 0.000000 0.000000 0.039623 0.000000
# 6 0.000000 0.000000 0.000000 0.000000 0.000000 0.026095
#
#
# Mechanical properties :
#
#
# Convention : Reuss Voigt Hill
#
# Bulk Modulus (GPa) = 37.10300 61.84212 49.47256
# Shear Modulus (GPa) = 68.65216 23.74240 46.19728
#
# Velocity S-wave (km/s) = 5.13111 3.01749 4.20913
# Velocity P-wave (km/s) = 7.02378 5.98807 6.52650
#
# Compressibility (1/GPa) = 0.02695200
#
# Stress axis : x y z
#
# Youngs Moduli (GPa) = 64.65007 115.73144 39.00769
#
# Poissons Ratio (x) = 0.44425 -0.01708
# Poissons Ratio (y) = 0.24817 0.31188
# Poissons Ratio (z) = -0.02830 0.92532
#
# Static dielectric constant tensor:
#      x y z
#    x 2.050300 0.000000 0.000000 
#    y 0.000000 3.214830 0.000000 
#    z 0.000000 0.000000 2.338810 
# 
# From -- ./inp_files/14838.got.cif
#   From: 2010.05.17/outbox.cif.g08.bks.cpg/sg43_8_cif.got.tgz:14838.got - 2010.06.03 19:21:55.
