data_PCOD9372807
_publ_section_title
;
Structure prediction by ZEFSAII (Michael W. Deem and Ramdas Pophale) SiO2 
 PCOD9372807
Probable space group: F D D 2
;
_chemical_formula_sum "Si O2"
_cell_formula_units_Z 96
_cell_length_a 22.518784
_cell_length_b 12.208629
_cell_length_c 15.176225
_cell_angle_alpha 90.000000
_cell_angle_beta 90.000000
_cell_angle_gamma 90.000000
_cell_volume 4172.300581
_symmetry_space_group_name_H-M "F D D 2"
_symmetry_group_IT_number 43
_symmetry_cell_setting 'orthorhombic'
loop_
_space_group_symop_operation_xyz
x,y,z
-x,-y,z
1/4-x,1/4+y,1/4+z
1/4+x,1/4-y,1/4+z
x,1/2+y,1/2+z
-x,1/2-y,1/2+z
1/4-x,3/4+y,3/4+z
1/4+x,3/4-y,3/4+z
1/2+x,y,1/2+z
1/2-x,-y,1/2+z
3/4-x,1/4+y,3/4+z
3/4+x,1/4-y,3/4+z
1/2+x,1/2+y,z
1/2-x,1/2-y,z
3/4-x,3/4+y,1/4+z
3/4+x,3/4-y,1/4+z
loop_
_atom_site_type_symbol
_atom_site_label
_atom_site_fract_x
_atom_site_fract_y
_atom_site_fract_z
Si Si1 0.996386 0.128754 0.920570
Si Si2 0.136359 0.502080 0.231315
Si Si3 0.295544 0.059666 0.988150
Si Si4 0.937894 0.564047 0.732665
Si Si5 0.323038 0.960121 0.420288
Si Si6 0.886445 0.127627 0.042858
O O1 0.936284 0.158373 0.970392
O O2 0.048347 0.210667 0.952827
O O3 0.006491 0.133882 0.815467
O O4 0.000000 0.000000 0.945913
O O5 0.103205 0.618103 0.217391
O O6 0.094634 0.412243 0.186912
O O7 0.141679 0.494135 0.336784
O O8 0.247913 0.041565 0.909898
O O9 0.309907 0.937106 0.018867
O O10 0.911732 0.581291 0.634052
O O11 0.900769 0.488516 0.798681
O O12 0.000000 0.500000 0.722250
O O13 0.343359 0.036358 0.500618
#
# Coordination Sequence:
#
# PCOD9372807 Si02
#       6
#    16  16  16  16  16  16
#     4  12  24  46  76 105 148 190 253 313 373 451
#     4  12  25  44  73 112 145 192 247 312 378 445
#     4  12  26  46  72 108 153 195 252 314 380 454
#     4  12  28  47  73 107 154 201 252 306 384 453
#     4  12  23  44  77 106 151 192 253 313 378 446
#     4  12  25  45  75 110 146 201 249 321 367 461
#
# _framework density 23.008890000000001
#
# number of rings (size 3 to 8) (size 9 to 14) (size 15 to 20)
#    0.000    0.000    5.000    6.000    2.333    0.000 
#    0.000    0.833    0.000    0.000    0.000    0.000 
#    0.000    0.000    0.000    0.000    0.000    0.000 
#
# Total GULP energy -134080.888892 kJ/mol
# GULP energy per Si atom -5586.703704 kJ/mol
# Density = 2.295652 g / cm^3
# Si number density = 23.008890 Si / 1000 Ang^3
#
#
#
# Elastic Constant Matrix: (Units=GPa)
#
#
# Indices 1 2 3 4 5 6 
#
# 1 111.4046 40.8654 1.3057 0.0000 0.0000 0.0000
# 2 40.8654 125.4608 -0.4380 0.0000 0.0000 0.0000
# 3 1.3057 -0.4380 64.0286 0.0000 0.0000 0.0000
# 4 0.0000 0.0000 0.0000 23.2766 0.0000 0.0000
# 5 0.0000 0.0000 0.0000 0.0000 16.0462 0.0000
# 6 0.0000 0.0000 0.0000 0.0000 0.0000 47.7443
#
#
#
# Elastic Compliance Matrix: (Units=1/GPa)
#
#
# Indices 1 2 3 4 5 6 
#
# 1 0.010198 -0.003322 -0.000231 0.000000 0.000000 0.000000
# 2 -0.003322 0.009053 0.000130 0.000000 0.000000 0.000000
# 3 -0.000231 0.000130 0.015624 0.000000 0.000000 0.000000
# 4 0.000000 0.000000 0.000000 0.042962 0.000000 0.000000
# 5 0.000000 0.000000 0.000000 0.000000 0.062320 0.000000
# 6 0.000000 0.000000 0.000000 0.000000 0.000000 0.020945
#
#
# Mechanical properties :
#
#
# Convention : Reuss Voigt Hill
#
# Bulk Modulus (GPa) = 35.67897 42.70669 39.19283
# Shear Modulus (GPa) = 28.20231 34.69082 31.44656
#
# Velocity S-wave (km/s) = 3.50482 3.88714 3.70092
# Velocity P-wave (km/s) = 5.64965 6.22477 5.94417
#
# Compressibility (1/GPa) = 0.02802772
#
# Stress axis : x y z
#
# Youngs Moduli (GPa) = 98.06108 110.45744 64.00572
#
# Poissons Ratio (x) = 0.36699 0.01476
# Poissons Ratio (y) = 0.32580 -0.00830
# Poissons Ratio (z) = 0.02262 -0.01432
#
# Static dielectric constant tensor:
#      x y z
#    x 1.903980 0.000000 0.000000 
#    y 0.000000 1.851230 0.000000 
#    z 0.000000 0.000000 1.898760 
# 
# From -- ./inp_files/14827.got.cif
#   From: 2010.05.17/outbox.cif.g08.bks.cpg/sg43_8_cif.got.tgz:14827.got - 2010.06.03 19:21:55.
