data_PCOD9372803
_publ_section_title
;
Structure prediction by ZEFSAII (Michael W. Deem and Ramdas Pophale) SiO2 
 PCOD9372803
Probable space group: F D D 2
;
_chemical_formula_sum "Si O2"
_cell_formula_units_Z 96
_cell_length_a 31.286299
_cell_length_b 10.796634
_cell_length_c 14.452493
_cell_angle_alpha 90.000000
_cell_angle_beta 90.000000
_cell_angle_gamma 90.000000
_cell_volume 4881.860199
_symmetry_space_group_name_H-M "F D D 2"
_symmetry_group_IT_number 43
_symmetry_cell_setting 'orthorhombic'
loop_
_space_group_symop_operation_xyz
x,y,z
-x,-y,z
1/4-x,1/4+y,1/4+z
1/4+x,1/4-y,1/4+z
x,1/2+y,1/2+z
-x,1/2-y,1/2+z
1/4-x,3/4+y,3/4+z
1/4+x,3/4-y,3/4+z
1/2+x,y,1/2+z
1/2-x,-y,1/2+z
3/4-x,1/4+y,3/4+z
3/4+x,1/4-y,3/4+z
1/2+x,1/2+y,z
1/2-x,1/2-y,z
3/4-x,3/4+y,1/4+z
3/4+x,3/4-y,1/4+z
loop_
_atom_site_type_symbol
_atom_site_label
_atom_site_fract_x
_atom_site_fract_y
_atom_site_fract_z
Si Si1 0.127123 0.613638 0.218840
Si Si2 0.121969 0.096334 0.922755
Si Si3 0.799054 0.744712 0.308690
Si Si4 0.451140 0.705074 0.205524
Si Si5 0.701903 0.455581 0.975754
Si Si6 0.451334 0.004386 0.872491
O O1 0.132279 0.492956 0.155706
O O2 0.126450 0.548746 0.318648
O O3 0.083528 0.687840 0.206215
O O4 0.166317 0.706288 0.197463
O O5 0.166111 0.059291 0.971066
O O6 0.082786 0.038259 0.979449
O O7 0.750000 0.750000 0.274354
O O8 0.805915 0.873991 0.362649
O O9 0.802298 0.640547 0.389459
O O10 0.499693 0.752865 0.215338
O O11 0.448175 0.607514 0.290766
O O12 0.694951 0.375075 0.068785
O O13 0.500000 0.000000 0.908733
#
# Coordination Sequence:
#
# PCOD9372803 Si02
#       6
#    16  16  16  16  16  16
#     4  12  23  39  58  89 130 154 185 245 305 352
#     4  12  23  39  58  89 130 154 185 245 305 352
#     4   9  19  40  64  84 112 158 209 242 280 350
#     4   9  19  39  65  86 112 157 206 244 282 347
#     4   9  19  39  65  86 112 157 206 244 282 347
#     4   9  19  40  64  84 112 158 209 242 280 350
#
# _framework density 19.664635000000001
#
# number of rings (size 3 to 8) (size 9 to 14) (size 15 to 20)
#    0.000    2.000    3.333    3.000    0.000    0.667 
#    6.000    0.000    0.000    0.000    0.000    0.000 
#    0.000    0.000    0.000    0.000    0.000    0.000 
#
# Total GULP energy -133807.735996 kJ/mol
# GULP energy per Si atom -5575.322333 kJ/mol
# Density = 1.961988 g / cm^3
# Si number density = 19.664635 Si / 1000 Ang^3
#
#
#
# Elastic Constant Matrix: (Units=GPa)
#
#
# Indices 1 2 3 4 5 6 
#
# 1 165.7324 62.0299 52.5178 0.0000 0.0000 0.0000
# 2 62.0299 60.0152 -0.2880 0.0000 0.0000 0.0000
# 3 52.5178 -0.2880 58.4438 0.0000 0.0000 0.0000
# 4 0.0000 0.0000 0.0000 12.0365 0.0000 0.0000
# 5 0.0000 0.0000 0.0000 0.0000 25.6699 0.0000
# 6 0.0000 0.0000 0.0000 0.0000 0.0000 34.3043
#
#
#
# Elastic Compliance Matrix: (Units=1/GPa)
#
#
# Indices 1 2 3 4 5 6 
#
# 1 0.018556 -0.019260 -0.016770 0.000000 0.000000 0.000000
# 2 -0.019260 0.036653 0.017487 0.000000 0.000000 0.000000
# 3 -0.016770 0.017487 0.032266 0.000000 0.000000 0.000000
# 4 0.000000 0.000000 0.000000 0.083081 0.000000 0.000000
# 5 0.000000 0.000000 0.000000 0.000000 0.038956 0.000000
# 6 0.000000 0.000000 0.000000 0.000000 0.000000 0.029151
#
#
# Mechanical properties :
#
#
# Convention : Reuss Voigt Hill
#
# Bulk Modulus (GPa) = 19.84483 56.96785 38.40634
# Shear Modulus (GPa) = 17.09149 25.73092 21.41120
#
# Velocity S-wave (km/s) = 2.95133 3.62123 3.30330
# Velocity P-wave (km/s) = 4.66126 6.82033 5.84142
#
# Compressibility (1/GPa) = 0.05039096
#
# Stress axis : x y z
#
# Youngs Moduli (GPa) = 53.89002 27.28318 30.99248
#
# Poissons Ratio (x) = 0.52547 0.51973
# Poissons Ratio (y) = 1.03791 -0.54198
# Poissons Ratio (z) = 0.90372 -0.47711
#
# Static dielectric constant tensor:
#      x y z
#    x 1.671190 0.000000 0.000000 
#    y 0.000000 1.658920 0.000000 
#    z 0.000000 0.000000 1.694450 
# 
# From -- ./inp_files/7928.got.cif
#   From: 2010.05.17/outbox.cif.g08.bks.cpg/sg43_4_cif.got.tgz:7928.got - 2010.06.03 19:21:55.
