data_PCOD9372060
_publ_section_title
;
Structure prediction by ZEFSAII (Michael W. Deem and Ramdas Pophale) SiO2 
 PCOD9372060
Probable space group: F D D 2
;
_chemical_formula_sum "Si O2"
_cell_formula_units_Z 56
_cell_length_a 22.019810
_cell_length_b 17.571604
_cell_length_c 7.415150
_cell_angle_alpha 90.000000
_cell_angle_beta 90.000000
_cell_angle_gamma 90.000000
_cell_volume 2869.094912
_symmetry_space_group_name_H-M "F D D 2"
_symmetry_group_IT_number 43
_symmetry_cell_setting 'orthorhombic'
loop_
_space_group_symop_operation_xyz
x,y,z
-x,-y,z
1/4-x,1/4+y,1/4+z
1/4+x,1/4-y,1/4+z
x,1/2+y,1/2+z
-x,1/2-y,1/2+z
1/4-x,3/4+y,3/4+z
1/4+x,3/4-y,3/4+z
1/2+x,y,1/2+z
1/2-x,-y,1/2+z
3/4-x,1/4+y,3/4+z
3/4+x,1/4-y,3/4+z
1/2+x,1/2+y,z
1/2-x,1/2-y,z
3/4-x,3/4+y,1/4+z
3/4+x,3/4-y,1/4+z
loop_
_atom_site_type_symbol
_atom_site_label
_atom_site_fract_x
_atom_site_fract_y
_atom_site_fract_z
Si Si1 0.250000 0.250000 0.387010
Si Si2 0.064078 0.758102 0.247105
Si Si3 0.695169 0.409613 0.852460
Si Si4 0.379949 0.585713 0.205188
O O1 0.282439 0.175691 0.299996
O O2 0.306954 0.290206 0.484254
O O3 0.066758 0.706406 0.422712
O O4 0.080954 0.707746 0.074078
O O5 0.110528 0.828043 0.266494
O O6 0.999650 0.797542 0.207246
O O7 0.639636 0.409891 0.994841
#
# Coordination Sequence:
#
# PCOD9372060 Si02
#       4
#     8  16  16  16
#     4  10  24  44  66  92 140 170 214 280 322 386
#     4  11  24  41  69  93 135 175 221 271 331 389
#     4  11  23  44  66  98 131 177 219 274 328 393
#     4  11  23  44  63 100 134 170 221 274 327 400
#
# _framework density 19.518350000000002
#
# number of rings (size 3 to 8) (size 9 to 14) (size 15 to 20)
#    0.000    1.143    5.714    0.000    4.000    0.000 
#    0.000    2.857    0.000    0.000    0.000    0.000 
#    0.000    0.000    0.000    0.000    0.000    0.000 
#
# Total GULP energy -78028.219455 kJ/mol
# GULP energy per Si atom -5573.444247 kJ/mol
# Density = 1.947393 g / cm^3
# Si number density = 19.518350 Si / 1000 Ang^3
#
#
#
# Elastic Constant Matrix: (Units=GPa)
#
#
# Indices 1 2 3 4 5 6 
#
# 1 49.3909 23.9282 21.0069 0.0000 0.0000 0.0000
# 2 23.9282 169.9752 72.2484 0.0000 0.0000 0.0000
# 3 21.0069 72.2484 76.6146 0.0011 -0.0003 -0.0001
# 4 0.0000 0.0000 0.0011 24.1940 -0.0002 -0.0001
# 5 0.0000 0.0000 -0.0003 -0.0002 13.6248 0.0000
# 6 0.0000 0.0000 -0.0001 -0.0001 0.0000 29.8293
#
#
#
# Elastic Compliance Matrix: (Units=1/GPa)
#
#
# Indices 1 2 3 4 5 6 
#
# 1 0.023007 -0.000930 -0.005431 0.000000 0.000000 0.000000
# 2 -0.000930 0.009857 -0.009040 0.000000 0.000000 0.000000
# 3 -0.005431 -0.009040 0.023066 -0.000001 0.000001 0.000000
# 4 0.000000 0.000000 -0.000001 0.041332 0.000000 0.000000
# 5 0.000000 0.000000 0.000001 0.000000 0.073395 0.000000
# 6 0.000000 0.000000 0.000000 0.000000 0.000000 0.033524
#
#
# Mechanical properties :
#
#
# Convention : Reuss Voigt Hill
#
# Bulk Modulus (GPa) = 39.79679 58.92753 49.36216
# Shear Modulus (GPa) = 20.54569 25.44945 22.99757
#
# Velocity S-wave (km/s) = 3.24795 3.61484 3.43629
# Velocity P-wave (km/s) = 5.87361 6.90500 6.41008
#
# Compressibility (1/GPa) = 0.02512765
#
# Stress axis : x y z
#
# Youngs Moduli (GPa) = 43.46443 101.45535 43.35374
#
# Poissons Ratio (x) = 0.09439 0.23545
# Poissons Ratio (y) = 0.04044 0.39191
# Poissons Ratio (z) = 0.23606 0.91713
#
# Static dielectric constant tensor:
#      x y z
#    x 1.709800 0.000000 0.000000 
#    y 0.000000 1.679620 0.000000 
#    z 0.000000 0.000000 1.652850 
# 
# From -- ./inp_files/467.got.cif
#   From: 2010.05.17/outbox.cif.g08.bks.cpg/sg43_1_cif.got.tgz:467.got - 2010.06.03 19:21:55.
