data_PCOD9372839
_publ_section_title
;
Structure prediction by ZEFSAII (Michael W. Deem and Ramdas Pophale) SiO2 
 PCOD9372839
Probable space group: F D D 2
;
_chemical_formula_sum "Si O2"
_cell_formula_units_Z 88
_cell_length_a 30.307847
_cell_length_b 20.685507
_cell_length_c 6.118460
_cell_angle_alpha 90.000000
_cell_angle_beta 90.000000
_cell_angle_gamma 90.000000
_cell_volume 3835.865592
_symmetry_space_group_name_H-M "F D D 2"
_symmetry_group_IT_number 43
_symmetry_cell_setting 'orthorhombic'
loop_
_space_group_symop_operation_xyz
x,y,z
-x,-y,z
1/4-x,1/4+y,1/4+z
1/4+x,1/4-y,1/4+z
x,1/2+y,1/2+z
-x,1/2-y,1/2+z
1/4-x,3/4+y,3/4+z
1/4+x,3/4-y,3/4+z
1/2+x,y,1/2+z
1/2-x,-y,1/2+z
3/4-x,1/4+y,3/4+z
3/4+x,1/4-y,3/4+z
1/2+x,1/2+y,z
1/2-x,1/2-y,z
3/4-x,3/4+y,1/4+z
3/4+x,3/4-y,1/4+z
loop_
_atom_site_type_symbol
_atom_site_label
_atom_site_fract_x
_atom_site_fract_y
_atom_site_fract_z
Si Si1 0.284277 0.554274 0.543430
Si Si2 0.500000 0.000000 0.209606
Si Si3 0.170268 0.275184 0.616361
Si Si4 0.127092 0.390329 0.859328
Si Si5 0.008458 0.093956 0.093495
Si Si6 0.042242 0.835438 0.453357
O O1 0.325732 0.593795 0.457489
O O2 0.274506 0.584963 0.778147
O O3 0.296120 0.479815 0.563285
O O4 0.242644 0.567628 0.388638
O O5 0.490858 0.059818 0.374633
O O6 0.543966 0.012760 0.064072
O O7 0.137935 0.334778 0.681286
O O8 0.143247 0.210827 0.553638
O O9 0.201451 0.299811 0.422531
O O10 0.090896 0.358196 0.020135
O O11 0.976612 0.107757 0.297033
#
# Coordination Sequence:
#
# PCOD9372839 Si02
#       6
#    16   8  16  16  16  16
#     4  12  25  48  73 107 151 200 249 308 379 444
#     4  12  24  48  76 104 142 200 246 306 376 450
#     4  12  26  48  74 107 155 186 257 309 376 459
#     4  12  25  49  71 109 152 194 245 317 371 462
#     4  12  24  47  76 105 143 198 246 307 377 437
#     4  12  25  48  76 107 153 199 253 309 375 458
#
# _framework density 22.941368000000001
#
# number of rings (size 3 to 8) (size 9 to 14) (size 15 to 20)
#    0.000    0.000    7.273    3.818    0.000    0.000 
#   16.364    0.000    0.000    0.000    0.000    0.000 
#    0.000    0.000    0.000    0.000    0.000    0.000 
#
# Total GULP energy -122932.994204 kJ/mol
# GULP energy per Si atom -5587.863373 kJ/mol
# Density = 2.288915 g / cm^3
# Si number density = 22.941368 Si / 1000 Ang^3
#
#
#
# Elastic Constant Matrix: (Units=GPa)
#
#
# Indices 1 2 3 4 5 6 
#
# 1 98.3453 49.1374 14.5014 0.0012 0.0002 0.0001
# 2 49.1374 156.8988 30.5588 0.0019 -0.0003 -0.0001
# 3 14.5014 30.5588 42.5549 0.0057 -0.0006 0.0000
# 4 0.0012 0.0019 0.0057 46.0902 -0.0003 -0.0001
# 5 0.0002 -0.0003 -0.0006 -0.0003 4.7854 -0.0002
# 6 0.0001 -0.0001 0.0000 -0.0001 -0.0002 47.9657
#
#
#
# Elastic Compliance Matrix: (Units=1/GPa)
#
#
# Indices 1 2 3 4 5 6 
#
# 1 0.012152 -0.003487 -0.001637 0.000000 -0.000001 0.000000
# 2 -0.003487 0.008410 -0.004851 0.000000 0.000000 0.000000
# 3 -0.001637 -0.004851 0.027541 -0.000003 0.000003 0.000000
# 4 0.000000 0.000000 -0.000003 0.021697 0.000001 0.000000
# 5 -0.000001 0.000000 0.000003 0.000001 0.208970 0.000001
# 6 0.000000 0.000000 0.000000 0.000000 0.000001 0.020848
#
#
# Mechanical properties :
#
#
# Convention : Reuss Voigt Hill
#
# Bulk Modulus (GPa) = 35.52091 54.02160 44.77125
# Shear Modulus (GPa) = 15.19978 33.34167 24.27073
#
# Velocity S-wave (km/s) = 2.57680 3.81641 3.25614
# Velocity P-wave (km/s) = 4.93661 6.55887 5.80469
#
# Compressibility (1/GPa) = 0.02815243
#
# Stress axis : x y z
#
# Youngs Moduli (GPa) = 82.29218 118.89996 36.30991
#
# Poissons Ratio (x) = 0.41459 0.05944
# Poissons Ratio (y) = 0.28694 0.17615
# Poissons Ratio (z) = 0.13472 0.57683
#
# Static dielectric constant tensor:
#      x y z
#    x 1.924450 0.000000 0.000000 
#    y 0.000000 1.937070 0.000000 
#    z 0.000000 0.000000 1.917680 
# 
# From -- ./inp_files/1379.got.cif
#   From: 2010.05.17/outbox.cif.g08.bks.cpg/sg43_1_cif.got.tgz:1379.got - 2010.06.03 19:21:55.
