data_PCOD9372090
_publ_section_title
;
Structure prediction by ZEFSAII (Michael W. Deem and Ramdas Pophale) SiO2 
 PCOD9372090
Probable space group: F D D 2
;
_chemical_formula_sum "Si O2"
_cell_formula_units_Z 112
_cell_length_a 28.826158
_cell_length_b 14.054677
_cell_length_c 12.119547
_cell_angle_alpha 90.000000
_cell_angle_beta 90.000000
_cell_angle_gamma 90.000000
_cell_volume 4910.141629
_symmetry_space_group_name_H-M "F D D 2"
_symmetry_group_IT_number 43
_symmetry_cell_setting 'orthorhombic'
loop_
_space_group_symop_operation_xyz
x,y,z
-x,-y,z
1/4-x,1/4+y,1/4+z
1/4+x,1/4-y,1/4+z
x,1/2+y,1/2+z
-x,1/2-y,1/2+z
1/4-x,3/4+y,3/4+z
1/4+x,3/4-y,3/4+z
1/2+x,y,1/2+z
1/2-x,-y,1/2+z
3/4-x,1/4+y,3/4+z
3/4+x,1/4-y,3/4+z
1/2+x,1/2+y,z
1/2-x,1/2-y,z
3/4-x,3/4+y,1/4+z
3/4+x,3/4-y,1/4+z
loop_
_atom_site_type_symbol
_atom_site_label
_atom_site_fract_x
_atom_site_fract_y
_atom_site_fract_z
Si Si1 0.250000 0.750000 0.183141
Si Si2 0.337681 0.795309 0.288775
Si Si3 0.000000 0.000000 0.077938
Si Si4 0.250000 0.405325 0.505539
Si Si5 0.412319 0.454691 0.972303
Si Si6 0.091224 0.281653 0.630258
Si Si7 0.658776 0.968347 0.630821
Si Si8 0.644954 0.500000 0.755539
O O1 0.294387 0.729935 0.257002
O O2 0.265554 0.834669 0.103175
O O3 0.376528 0.792508 0.194079
O O4 0.360976 0.756759 0.399524
O O5 0.324141 0.906968 0.284919
O O6 0.984446 0.915331 0.157904
O O7 0.955613 0.020065 0.004076
O O8 0.294577 0.456177 0.452655
O O9 0.205423 0.456177 0.558424
O O10 0.373472 0.457492 0.066999
O O11 0.425859 0.343032 0.976160
O O12 0.389024 0.493241 0.861555
O O13 0.081821 0.250000 0.505539
O O14 0.125000 0.375000 0.630539
#
# Coordination Sequence:
#
# PCOD9372090 Si02
#       8
#     8  16   8  16  16  16  16  16
#     4  11  22  41  72 100 140 185 243 314 372 458
#     4  11  23  44  69  99 144 192 246 302 378 446
#     4  11  22  41  72 100 140 185 243 314 372 458
#     4  11  24  42  70 111 138 186 246 311 384 452
#     4  11  23  44  69  99 144 192 246 302 378 446
#     4  12  24  46  76 106 147 192 251 320 391 457
#     4  12  24  46  76 106 147 192 251 320 391 457
#     4  10  24  45  64  98 144 202 238 303 366 452
#
# _framework density 22.809930999999999
#
# number of rings (size 3 to 8) (size 9 to 14) (size 15 to 20)
#    0.000    0.857    2.857    5.143    0.000    0.571 
#   15.429    0.000    0.000    0.000    0.000    0.000 
#    0.000    0.000    0.000    0.000    0.000    0.000 
#
# Total GULP energy -156261.111732 kJ/mol
# GULP energy per Si atom -5580.753990 kJ/mol
# Density = 2.275801 g / cm^3
# Si number density = 22.809931 Si / 1000 Ang^3
#
#
#
# Elastic Constant Matrix: (Units=GPa)
#
#
# Indices 1 2 3 4 5 6 
#
# 1 137.3936 9.1107 70.9018 0.0000 0.0000 0.0000
# 2 9.1107 75.0068 22.1732 0.0000 0.0000 0.0000
# 3 70.9018 22.1732 147.6595 0.0000 0.0000 0.0000
# 4 0.0000 0.0000 0.0000 17.5314 0.0000 0.0000
# 5 0.0000 0.0000 0.0000 0.0000 66.3711 0.0000
# 6 0.0000 0.0000 0.0000 0.0000 0.0000 4.4859
#
#
#
# Elastic Compliance Matrix: (Units=1/GPa)
#
#
# Indices 1 2 3 4 5 6 
#
# 1 0.009679 0.000207 -0.004679 0.000000 0.000000 0.000000
# 2 0.000207 0.013956 -0.002195 0.000000 0.000000 0.000000
# 3 -0.004679 -0.002195 0.009349 0.000000 0.000000 0.000000
# 4 0.000000 0.000000 0.000000 0.057041 0.000000 0.000000
# 5 0.000000 0.000000 0.000000 0.000000 0.015067 0.000000
# 6 0.000000 0.000000 0.000000 0.000000 0.000000 0.222918
#
#
# Mechanical properties :
#
#
# Convention : Reuss Voigt Hill
#
# Bulk Modulus (GPa) = 50.88966 62.71459 56.80212
# Shear Modulus (GPa) = 14.37225 34.86929 24.62077
#
# Velocity S-wave (km/s) = 2.51288 3.91409 3.28897
# Velocity P-wave (km/s) = 5.54781 6.92682 6.27531
#
# Compressibility (1/GPa) = 0.01965036
#
# Stress axis : x y z
#
# Youngs Moduli (GPa) = 103.31571 71.65430 106.96787
#
# Poissons Ratio (x) = -0.01486 0.50048
# Poissons Ratio (y) = -0.02143 0.23483
# Poissons Ratio (z) = 0.48339 0.15730
#
# Static dielectric constant tensor:
#      x y z
#    x 1.860670 0.000000 0.000000 
#    y 0.000000 2.078020 0.000000 
#    z 0.000000 0.000000 1.847030 
# 
# From -- ./inp_files/8312.got.cif
#   From: 2010.05.17/outbox.cif.g08.bks.cpg/sg43_5_cif.got.tgz:8312.got - 2010.06.03 19:21:55.
