data_PCOD9372103
_publ_section_title
;
Structure prediction by ZEFSAII (Michael W. Deem and Ramdas Pophale) SiO2 
 PCOD9372103
Probable space group: F D D 2
;
_chemical_formula_sum "Si O2"
_cell_formula_units_Z 64
_cell_length_a 14.123068
_cell_length_b 12.221552
_cell_length_c 13.969025
_cell_angle_alpha 90.000000
_cell_angle_beta 90.000000
_cell_angle_gamma 90.000000
_cell_volume 2411.134874
_symmetry_space_group_name_H-M "F D D 2"
_symmetry_group_IT_number 43
_symmetry_cell_setting 'orthorhombic'
loop_
_space_group_symop_operation_xyz
x,y,z
-x,-y,z
1/4-x,1/4+y,1/4+z
1/4+x,1/4-y,1/4+z
x,1/2+y,1/2+z
-x,1/2-y,1/2+z
1/4-x,3/4+y,3/4+z
1/4+x,3/4-y,3/4+z
1/2+x,y,1/2+z
1/2-x,-y,1/2+z
3/4-x,1/4+y,3/4+z
3/4+x,1/4-y,3/4+z
1/2+x,1/2+y,z
1/2-x,1/2-y,z
3/4-x,3/4+y,1/4+z
3/4+x,3/4-y,1/4+z
loop_
_atom_site_type_symbol
_atom_site_label
_atom_site_fract_x
_atom_site_fract_y
_atom_site_fract_z
Si Si1 0.142070 0.489976 0.442030
Si Si2 0.558919 0.769455 0.534934
Si Si3 0.667746 0.591468 0.634441
Si Si4 0.464492 0.364941 0.793143
O O1 0.229727 0.464956 0.368900
O O2 0.070969 0.564390 0.381114
O O3 0.180354 0.573577 0.523804
O O4 0.901868 0.617602 0.490414
O O5 0.647545 0.705432 0.581994
O O6 0.506406 0.694019 0.452780
O O7 0.577312 0.576965 0.701691
O O8 0.661331 0.499921 0.553861
#
# Coordination Sequence:
#
# PCOD9372103 Si02
#       4
#    16  16  16  16
#     4  10  24  47  74 106 146 193 250 313 380 460
#     4  10  24  47  74 106 146 193 250 313 380 460
#     4  10  24  45  72 103 144 194 246 303 378 461
#     4  10  24  45  72 103 144 194 246 303 378 461
#
# _framework density 26.543519
#
# number of rings (size 3 to 8) (size 9 to 14) (size 15 to 20)
#    0.000    2.000    0.000    0.000    0.000   23.000 
#    0.000   10.000    0.000    0.000    0.000    0.000 
#    0.000    0.000    0.000    0.000    0.000    0.000 
#
# Total GULP energy -89461.007198 kJ/mol
# GULP energy per Si atom -5591.312950 kJ/mol
# Density = 2.648310 g / cm^3
# Si number density = 26.543519 Si / 1000 Ang^3
#
#
#
# Elastic Constant Matrix: (Units=GPa)
#
#
# Indices 1 2 3 4 5 6 
#
# 1 152.1838 109.1444 82.5218 0.0000 0.0000 0.0000
# 2 109.1444 182.9789 95.5669 0.0000 0.0000 0.0000
# 3 82.5218 95.5669 147.5699 0.0000 0.0000 0.0000
# 4 0.0000 0.0000 0.0000 60.7927 0.0000 0.0000
# 5 0.0000 0.0000 0.0000 0.0000 -82.6152 0.0000
# 6 0.0000 0.0000 0.0000 0.0000 0.0000 64.4242
#
#
#
# Elastic Compliance Matrix: (Units=1/GPa)
#
#
# Indices 1 2 3 4 5 6 
#
# 1 0.012436 -0.005721 -0.003249 0.000000 0.000000 0.000000
# 2 -0.005721 0.010890 -0.003853 0.000000 0.000000 0.000000
# 3 -0.003249 -0.003853 0.011089 0.000000 0.000000 0.000000
# 4 0.000000 0.000000 0.000000 0.016449 0.000000 0.000000
# 5 0.000000 0.000000 0.000000 0.000000 -0.012104 0.000000
# 6 0.000000 0.000000 0.000000 0.000000 0.000000 0.015522
#
#
# Mechanical properties :
#
#
# Convention : Reuss Voigt Hill
#
# Bulk Modulus (GPa) = 114.05311 117.46654 115.75982
# Shear Modulus (GPa) = 60.34897 21.55363 40.95130
#
# Velocity S-wave (km/s) = 4.77339 2.85267 3.93211
# Velocity P-wave (km/s) = 8.56983 7.42972 8.02006
#
# Compressibility (1/GPa) = 0.00876785
#
# Stress axis : x y z
#
# Youngs Moduli (GPa) = 80.41303 91.82772 90.17935
#
# Poissons Ratio (x) = 0.52531 0.29303
# Poissons Ratio (y) = 0.46002 0.34749
# Poissons Ratio (z) = 0.26130 0.35385
#
# Static dielectric constant tensor:
#      x y z
#    x 2.142980 0.000000 0.000000 
#    y 0.000000 2.055330 0.000000 
#    z 0.000000 0.000000 2.124410 
# 
# From -- ./inp_files/10486.got.cif
#   From: 2010.05.17/outbox.cif.g08.bks.cpg/sg43_6_cif.got.tgz:10486.got - 2010.06.03 19:21:55.
