data_PCOD9372930
_publ_section_title
;
Structure prediction by ZEFSAII (Michael W. Deem and Ramdas Pophale) SiO2 
 PCOD9372930
Probable space group: F D D 2
;
_chemical_formula_sum "Si O2"
_cell_formula_units_Z 112
_cell_length_a 5.804359
_cell_length_b 31.393196
_cell_length_c 28.308485
_cell_angle_alpha 90.000000
_cell_angle_beta 90.000000
_cell_angle_gamma 90.000000
_cell_volume 5158.297961
_symmetry_space_group_name_H-M "F D D 2"
_symmetry_group_IT_number 43
_symmetry_cell_setting 'orthorhombic'
loop_
_space_group_symop_operation_xyz
x,y,z
-x,-y,z
1/4-x,1/4+y,1/4+z
1/4+x,1/4-y,1/4+z
x,1/2+y,1/2+z
-x,1/2-y,1/2+z
1/4-x,3/4+y,3/4+z
1/4+x,3/4-y,3/4+z
1/2+x,y,1/2+z
1/2-x,-y,1/2+z
3/4-x,1/4+y,3/4+z
3/4+x,1/4-y,3/4+z
1/2+x,1/2+y,z
1/2-x,1/2-y,z
3/4-x,3/4+y,1/4+z
3/4+x,3/4-y,1/4+z
loop_
_atom_site_type_symbol
_atom_site_label
_atom_site_fract_x
_atom_site_fract_y
_atom_site_fract_z
Si Si1 0.500000 0.620141 0.661110
Si Si2 0.106371 0.854221 0.213749
Si Si3 0.121908 0.939043 0.113839
Si Si4 0.245503 0.520986 0.802399
Si Si5 0.856371 0.104221 0.858470
Si Si6 0.504497 0.229014 0.769821
Si Si7 0.121907 0.060957 0.208381
O O1 0.624891 0.647766 0.701150
O O2 0.668947 0.589154 0.633153
O O3 0.375109 0.647766 0.621070
O O4 0.331053 0.589154 0.689067
O O5 0.016451 0.817816 0.247188
O O6 1.000000 0.848743 0.161110
O O7 0.047085 0.902373 0.230071
O O8 0.208879 0.972343 0.075876
O O9 0.952915 0.902373 0.092149
O O10 0.000000 0.955387 0.161110
O O11 0.500000 0.500000 0.811103
O O12 0.266451 0.567816 0.825032
O O13 0.208879 0.527657 0.746344
O O14 0.000000 0.500000 0.819048
O O15 0.250000 0.250000 0.761117
O O16 0.750000 0.250000 0.753172
#
# Coordination Sequence:
#
# PCOD9372930 Si02
#       7
#    16  16  16  16  16  16  16
#     4   8  18  38  75  94 112 180 230 284 318 372
#     4   9  21  42  71  92 128 171 234 275 327 390
#     4   9  21  43  68  93 126 174 236 272 326 387
#     4  12  29  42  62 103 141 179 215 270 348 408
#     4   9  21  42  71  92 128 171 234 275 327 390
#     4  12  29  42  62 103 141 179 215 270 348 408
#     4   9  21  43  68  93 126 174 236 272 326 387
#
# _framework density 21.712589999999999
#
# number of rings (size 3 to 8) (size 9 to 14) (size 15 to 20)
#    0.000    2.857    0.000    0.857   16.000    2.857 
#    0.000    0.000    0.000    0.000    0.000    0.000 
#    0.000    0.000    0.000    0.000    0.000    0.000 
#
# Total GULP energy -155914.942395 kJ/mol
# GULP energy per Si atom -5568.390800 kJ/mol
# Density = 2.166317 g / cm^3
# Si number density = 21.712590 Si / 1000 Ang^3
#
#
#
# Elastic Constant Matrix: (Units=GPa)
#
#
# Indices 1 2 3 4 5 6 
#
# 1 123.1337 34.4899 8.9068 0.0000 0.0000 0.0000
# 2 34.4899 70.9546 -3.7226 0.0000 0.0000 0.0000
# 3 8.9068 -3.7226 23.1908 0.0000 0.0000 0.0000
# 4 0.0000 0.0000 0.0000 -82.5395 0.0000 0.0000
# 5 0.0000 0.0000 0.0000 0.0000 17.7674 0.0000
# 6 0.0000 0.0000 0.0000 0.0000 0.0000 -5.9438
#
#
#
# Elastic Compliance Matrix: (Units=1/GPa)
#
#
# Indices 1 2 3 4 5 6 
#
# 1 0.009864 -0.005036 -0.004597 0.000000 0.000000 0.000000
# 2 -0.005036 0.016784 0.004628 0.000000 0.000000 0.000000
# 3 -0.004597 0.004628 0.045629 0.000000 0.000000 0.000000
# 4 0.000000 0.000000 0.000000 -0.012115 0.000000 0.000000
# 5 0.000000 0.000000 0.000000 0.000000 0.056283 0.000000
# 6 0.000000 0.000000 0.000000 0.000000 0.000000 -0.168242
#
#
# Mechanical properties :
#
#
# Convention : Reuss Voigt Hill
#
# Bulk Modulus (GPa) = 16.05946 32.95859 24.50902
# Shear Modulus (GPa) = -237.74260 -2.30284 -120.02272
#
# Velocity S-wave (km/s) = -10.47535 -1.03097 -7.44298
# Velocity P-wave (km/s) = 11.78551 3.71419 7.90895
#
# Compressibility (1/GPa) = 0.06226860
#
# Stress axis : x y z
#
# Youngs Moduli (GPa) = 101.37471 59.57941 21.91580
#
# Poissons Ratio (x) = 0.30005 0.10075
# Poissons Ratio (y) = 0.51053 -0.10144
# Poissons Ratio (z) = 0.46602 -0.27576
#
# Static dielectric constant tensor:
#      x y z
#    x 1.999790 0.000000 0.000000 
#    y 0.000000 1.806230 0.000000 
#    z 0.000000 0.000000 1.779140 
# 
# From -- ./inp_files/27436.got.cif
#   From: 2010.05.17/outbox.cif.g08.bks.cpg/sg43_14_cif.got.tgz:27436.got - 2010.06.03 19:21:55.
