data_PCOD9372120
_publ_section_title
;
Structure prediction by ZEFSAII (Michael W. Deem and Ramdas Pophale) SiO2 
 PCOD9372120
Probable space group: F D D 2
;
_chemical_formula_sum "Si O2"
_cell_formula_units_Z 64
_cell_length_a 4.964088
_cell_length_b 32.399536
_cell_length_c 15.559130
_cell_angle_alpha 90.000000
_cell_angle_beta 90.000000
_cell_angle_gamma 90.000000
_cell_volume 2502.439415
_symmetry_space_group_name_H-M "F D D 2"
_symmetry_group_IT_number 43
_symmetry_cell_setting 'orthorhombic'
loop_
_space_group_symop_operation_xyz
x,y,z
-x,-y,z
1/4-x,1/4+y,1/4+z
1/4+x,1/4-y,1/4+z
x,1/2+y,1/2+z
-x,1/2-y,1/2+z
1/4-x,3/4+y,3/4+z
1/4+x,3/4-y,3/4+z
1/2+x,y,1/2+z
1/2-x,-y,1/2+z
3/4-x,1/4+y,3/4+z
3/4+x,1/4-y,3/4+z
1/2+x,1/2+y,z
1/2-x,1/2-y,z
3/4-x,3/4+y,1/4+z
3/4+x,3/4-y,1/4+z
loop_
_atom_site_type_symbol
_atom_site_label
_atom_site_fract_x
_atom_site_fract_y
_atom_site_fract_z
Si Si1 0.225620 0.947258 0.712090
Si Si2 0.416251 0.317883 0.223360
Si Si3 0.250000 0.750000 0.613618
Si Si4 0.304356 0.602753 0.159209
Si Si5 0.500000 0.500000 0.565786
O O1 0.188225 0.975986 0.795155
O O2 0.508750 0.925372 0.718765
O O3 0.204993 0.977543 0.630463
O O4 0.996398 0.912080 0.687309
O O5 0.191456 0.290763 0.173166
O O6 0.595328 0.350821 0.171865
O O7 0.353535 0.340878 0.312716
O O8 0.607637 0.282172 0.256355
#
# Coordination Sequence:
#
# PCOD9372120 Si02
#       5
#    16  16   8  16   8
#     4  10  24  46  68  96 135 178 224 277 335 399
#     4  11  24  42  69 101 136 178 225 278 337 401
#     4  11  24  40  68 101 134 178 228 277 334 400
#     4  11  25  46  69  99 138 178 222 278 338 400
#     4   9  22  42  68  95 132 178 226 277 334 398
#
# _framework density 25.575043000000001
#
# number of rings (size 3 to 8) (size 9 to 14) (size 15 to 20)
#    0.000    1.500    0.000    3.000    0.000   22.000 
#    0.000    0.000    0.000    0.000    0.000    0.000 
#    0.000    0.000    0.000    0.000    0.000    0.000 
#
# Total GULP energy -89317.886762 kJ/mol
# GULP energy per Si atom -5582.367923 kJ/mol
# Density = 2.551683 g / cm^3
# Si number density = 25.575043 Si / 1000 Ang^3
#
#
#
# Elastic Constant Matrix: (Units=GPa)
#
#
# Indices 1 2 3 4 5 6 
#
# 1 57.2070 12.5044 10.3956 0.0000 0.0000 0.0000
# 2 12.5044 179.2745 62.4610 0.0000 0.0000 0.0000
# 3 10.3956 62.4610 126.7764 0.0000 0.0000 0.0000
# 4 0.0000 0.0000 0.0000 45.5980 0.0000 0.0000
# 5 0.0000 0.0000 0.0000 0.0000 1.1663 0.0000
# 6 0.0000 0.0000 0.0000 0.0000 0.0000 43.6289
#
#
#
# Elastic Compliance Matrix: (Units=1/GPa)
#
#
# Indices 1 2 3 4 5 6 
#
# 1 0.017861 -0.000888 -0.001027 0.000000 0.000000 0.000000
# 2 -0.000888 0.006778 -0.003267 0.000000 0.000000 0.000000
# 3 -0.001027 -0.003267 0.009582 0.000000 0.000000 0.000000
# 4 0.000000 0.000000 0.000000 0.021931 0.000000 0.000000
# 5 0.000000 0.000000 0.000000 0.000000 0.857390 0.000000
# 6 0.000000 0.000000 0.000000 0.000000 0.000000 0.022921
#
#
# Mechanical properties :
#
#
# Convention : Reuss Voigt Hill
#
# Bulk Modulus (GPa) = 41.91589 59.33111 50.62350
# Shear Modulus (GPa) = 5.23682 36.60512 20.92097
#
# Velocity S-wave (km/s) = 1.43251 3.78733 2.86321
# Velocity P-wave (km/s) = 4.37733 6.50956 5.54687
#
# Compressibility (1/GPa) = 0.02385730
#
# Stress axis : x y z
#
# Youngs Moduli (GPa) = 55.98759 147.53375 104.36707
#
# Poissons Ratio (x) = 0.13100 0.10720
# Poissons Ratio (y) = 0.04971 0.34093
# Poissons Ratio (z) = 0.05751 0.48194
#
# Static dielectric constant tensor:
#      x y z
#    x 2.024520 0.000000 0.000000 
#    y 0.000000 2.112900 0.000000 
#    z 0.000000 0.000000 2.151700 
# 
# From -- ./inp_files/12165.got.cif
#   From: 2010.05.17/outbox.cif.g08.bks.cpg/sg43_7_cif.got.tgz:12165.got - 2010.06.03 19:21:55.
