data_PCOD9372871
_publ_section_title
;
Structure prediction by ZEFSAII (Michael W. Deem and Ramdas Pophale) SiO2 
 PCOD9372871
Probable space group: F D D 2
;
_chemical_formula_sum "Si O2"
_cell_formula_units_Z 88
_cell_length_a 13.323834
_cell_length_b 20.919645
_cell_length_c 13.411776
_cell_angle_alpha 90.000000
_cell_angle_beta 90.000000
_cell_angle_gamma 90.000000
_cell_volume 3738.262679
_symmetry_space_group_name_H-M "F D D 2"
_symmetry_group_IT_number 43
_symmetry_cell_setting 'orthorhombic'
loop_
_space_group_symop_operation_xyz
x,y,z
-x,-y,z
1/4-x,1/4+y,1/4+z
1/4+x,1/4-y,1/4+z
x,1/2+y,1/2+z
-x,1/2-y,1/2+z
1/4-x,3/4+y,3/4+z
1/4+x,3/4-y,3/4+z
1/2+x,y,1/2+z
1/2-x,-y,1/2+z
3/4-x,1/4+y,3/4+z
3/4+x,1/4-y,3/4+z
1/2+x,1/2+y,z
1/2-x,1/2-y,z
3/4-x,3/4+y,1/4+z
3/4+x,3/4-y,1/4+z
loop_
_atom_site_type_symbol
_atom_site_label
_atom_site_fract_x
_atom_site_fract_y
_atom_site_fract_z
Si Si1 0.839063 0.206098 0.558350
Si Si2 0.735753 0.174739 0.832260
Si Si3 0.807952 0.906656 0.001618
Si Si4 0.275770 0.137108 0.553346
Si Si5 0.071221 0.755703 0.357309
Si Si6 0.000000 0.000000 0.459011
O O1 0.750000 0.250000 0.602438
O O2 0.777224 0.147044 0.509880
O O3 0.919051 0.183113 0.640683
O O4 0.892316 0.245127 0.470364
O O5 0.750000 0.250000 0.813195
O O6 0.831776 0.137550 0.789011
O O7 0.635358 0.143926 0.788455
O O8 0.734731 0.165558 0.950986
O O9 0.772286 0.962142 0.077320
O O10 0.205581 0.078918 0.585965
O O11 0.277685 0.190841 0.638266
O O12 0.158440 0.734146 0.282179
#
# Coordination Sequence:
#
# PCOD9372871 Si02
#       6
#    16  16  16  16  16   8
#     4  12  28  49  79 111 153 207 256 319 387 467
#     4  12  25  48  74 113 148 201 251 317 385 465
#     4  12  28  49  79 112 157 201 260 319 393 462
#     4  12  26  45  77 108 154 195 257 318 385 455
#     4  12  27  48  75 108 154 199 263 317 384 462
#     4  12  26  48  74 110 148 210 254 320 384 460
#
# _framework density 23.540346
#
# number of rings (size 3 to 8) (size 9 to 14) (size 15 to 20)
#    0.000    0.000    5.455    3.818    5.091    2.909 
#    0.000    0.000    0.000    0.000    0.000    0.000 
#    0.000    0.000    0.000    0.000    0.000    0.000 
#
# Total GULP energy -123314.813682 kJ/mol
# GULP energy per Si atom -5605.218804 kJ/mol
# Density = 2.348677 g / cm^3
# Si number density = 23.540346 Si / 1000 Ang^3
#
#
#
# Elastic Constant Matrix: (Units=GPa)
#
#
# Indices 1 2 3 4 5 6 
#
# 1 73.7532 30.8166 8.6713 0.0000 0.0000 0.0000
# 2 30.8166 127.5277 35.0590 0.0000 0.0000 0.0000
# 3 8.6713 35.0590 114.3789 0.0000 0.0000 0.0000
# 4 0.0000 0.0000 0.0000 8.4155 0.0000 0.0000
# 5 0.0000 0.0000 0.0000 0.0000 38.5408 0.0000
# 6 0.0000 0.0000 0.0000 0.0000 0.0000 35.2426
#
#
#
# Elastic Compliance Matrix: (Units=1/GPa)
#
#
# Indices 1 2 3 4 5 6 
#
# 1 0.015082 -0.003637 -0.000029 0.000000 0.000000 0.000000
# 2 -0.003637 0.009440 -0.002618 0.000000 0.000000 0.000000
# 3 -0.000029 -0.002618 0.009547 0.000000 0.000000 0.000000
# 4 0.000000 0.000000 0.000000 0.118829 0.000000 0.000000
# 5 0.000000 0.000000 0.000000 0.000000 0.025947 0.000000
# 6 0.000000 0.000000 0.000000 0.000000 0.000000 0.028375
#
#
# Mechanical properties :
#
#
# Convention : Reuss Voigt Hill
#
# Bulk Modulus (GPa) = 46.50547 51.63929 49.07238
# Shear Modulus (GPa) = 22.03102 32.51395 27.27248
#
# Velocity S-wave (km/s) = 3.06254 3.72048 3.40743
# Velocity P-wave (km/s) = 5.68367 6.35925 6.03093
#
# Compressibility (1/GPa) = 0.02150285
#
# Stress axis : x y z
#
# Youngs Moduli (GPa) = 66.30604 105.93392 104.74010
#
# Poissons Ratio (x) = 0.38523 0.00301
# Poissons Ratio (y) = 0.24112 0.27419
# Poissons Ratio (z) = 0.00190 0.27731
#
# Static dielectric constant tensor:
#      x y z
#    x 1.940790 0.000000 0.000000 
#    y 0.000000 1.919730 0.000000 
#    z 0.000000 0.000000 1.858220 
# 
# From -- ./inp_files/9598.got.cif
#   From: 2010.05.17/outbox.cif.g08.bks.cpg/sg43_5_cif.got.tgz:9598.got - 2010.06.03 19:21:55.
