data_PCOD9372705
_publ_section_title
;
Structure prediction by ZEFSAII (Michael W. Deem and Ramdas Pophale) SiO2 
 PCOD9372705
Probable space group: F D D 2
;
_chemical_formula_sum "Si O2"
_cell_formula_units_Z 96
_cell_length_a 14.544611
_cell_length_b 18.845026
_cell_length_c 14.570412
_cell_angle_alpha 90.000000
_cell_angle_beta 90.000000
_cell_angle_gamma 90.000000
_cell_volume 3993.656277
_symmetry_space_group_name_H-M "F D D 2"
_symmetry_group_IT_number 43
_symmetry_cell_setting 'orthorhombic'
loop_
_space_group_symop_operation_xyz
x,y,z
-x,-y,z
1/4-x,1/4+y,1/4+z
1/4+x,1/4-y,1/4+z
x,1/2+y,1/2+z
-x,1/2-y,1/2+z
1/4-x,3/4+y,3/4+z
1/4+x,3/4-y,3/4+z
1/2+x,y,1/2+z
1/2-x,-y,1/2+z
3/4-x,1/4+y,3/4+z
3/4+x,1/4-y,3/4+z
1/2+x,1/2+y,z
1/2-x,1/2-y,z
3/4-x,3/4+y,1/4+z
3/4+x,3/4-y,1/4+z
loop_
_atom_site_type_symbol
_atom_site_label
_atom_site_fract_x
_atom_site_fract_y
_atom_site_fract_z
Si Si1 0.894251 0.924146 0.981900
Si Si2 0.972431 0.844160 0.826558
Si Si3 0.172606 0.190497 0.694286
Si Si4 0.515166 0.200814 0.912390
Si Si5 0.760203 0.513538 0.366442
Si Si6 0.730961 0.179292 0.904357
O O1 0.969323 0.882886 0.922876
O O2 0.850653 0.982543 0.915527
O O3 0.805222 0.877797 0.013205
O O4 0.945385 0.948449 0.073195
O O5 0.870003 0.844314 0.786608
O O6 0.995614 0.761581 0.839080
O O7 0.250000 0.250000 0.709571
O O8 0.210136 0.121374 0.642519
O O9 0.083254 0.224993 0.649119
O O10 0.620988 0.178480 0.905861
O O11 0.489084 0.239684 0.009001
O O12 0.753676 0.594820 0.401317
O O13 0.750000 0.250000 0.969042
#
# Coordination Sequence:
#
# PCOD9372705 Si02
#       6
#    16  16  16  16  16  16
#     4  11  25  49  73 107 146 194 245 303 368 444
#     4  11  25  47  74 106 145 192 247 300 372 441
#     4  11  25  46  73 107 141 191 245 307 360 448
#     4  12  25  47  72 111 144 191 242 308 377 438
#     4  11  26  47  76 106 145 194 250 299 379 439
#     4  12  26  48  73 107 150 194 245 308 371 450
#
# _framework density 24.038124
#
# number of rings (size 3 to 8) (size 9 to 14) (size 15 to 20)
#    0.000    0.667    6.667    0.000    2.333    3.333 
#    3.000    3.333    0.000    0.000    0.000    0.000 
#    0.000    0.000    0.000    0.000    0.000    0.000 
#
# Total GULP energy -133779.950259 kJ/mol
# GULP energy per Si atom -5574.164594 kJ/mol
# Density = 2.398341 g / cm^3
# Si number density = 24.038124 Si / 1000 Ang^3
#
#
#
# Elastic Constant Matrix: (Units=GPa)
#
#
# Indices 1 2 3 4 5 6 
#
# 1 84.6662 40.0800 -2.8049 0.0000 0.0000 0.0000
# 2 40.0800 153.5975 0.8220 0.0000 0.0000 0.0000
# 3 -2.8049 0.8220 56.6285 0.0000 0.0000 0.0000
# 4 0.0000 0.0000 0.0000 15.2778 0.0000 0.0000
# 5 0.0000 0.0000 0.0000 0.0000 38.0195 0.0000
# 6 0.0000 0.0000 0.0000 0.0000 0.0000 38.7506
#
#
#
# Elastic Compliance Matrix: (Units=1/GPa)
#
#
# Indices 1 2 3 4 5 6 
#
# 1 0.013505 -0.003528 0.000720 0.000000 0.000000 0.000000
# 2 -0.003528 0.007433 -0.000283 0.000000 0.000000 0.000000
# 3 0.000720 -0.000283 0.017699 0.000000 0.000000 0.000000
# 4 0.000000 0.000000 0.000000 0.065454 0.000000 0.000000
# 5 0.000000 0.000000 0.000000 0.000000 0.026302 0.000000
# 6 0.000000 0.000000 0.000000 0.000000 0.000000 0.025806
#
#
# Mechanical properties :
#
#
# Convention : Reuss Voigt Hill
#
# Bulk Modulus (GPa) = 30.81132 41.23182 36.02157
# Shear Modulus (GPa) = 28.86863 35.52925 32.19894
#
# Velocity S-wave (km/s) = 3.46923 3.84870 3.66388
# Velocity P-wave (km/s) = 5.37522 6.07782 5.73728
#
# Compressibility (1/GPa) = 0.03245561
#
# Stress axis : x y z
#
# Youngs Moduli (GPa) = 74.04667 134.54231 56.50123
#
# Poissons Ratio (x) = 0.47465 -0.04069
# Poissons Ratio (y) = 0.26123 0.01597
# Poissons Ratio (z) = -0.05332 0.03803
#
# Static dielectric constant tensor:
#      x y z
#    x 1.906850 0.000000 0.000000 
#    y 0.000000 1.967220 0.000000 
#    z 0.000000 0.000000 2.030400 
# 
# From -- ./inp_files/10094.got.cif
#   From: 2010.05.17/outbox.cif.g08.bks.cpg/sg43_6_cif.got.tgz:10094.got - 2010.06.03 19:21:55.
