data_PCOD9372602
_publ_section_title
;
Structure prediction by ZEFSAII (Michael W. Deem and Ramdas Pophale) SiO2 
 PCOD9372602
Probable space group: F D D 2
;
_chemical_formula_sum "Si O2"
_cell_formula_units_Z 112
_cell_length_a 13.778666
_cell_length_b 22.875310
_cell_length_c 14.518778
_cell_angle_alpha 90.000000
_cell_angle_beta 90.000000
_cell_angle_gamma 90.000000
_cell_volume 4576.191875
_symmetry_space_group_name_H-M "F D D 2"
_symmetry_group_IT_number 43
_symmetry_cell_setting 'orthorhombic'
loop_
_space_group_symop_operation_xyz
x,y,z
-x,-y,z
1/4-x,1/4+y,1/4+z
1/4+x,1/4-y,1/4+z
x,1/2+y,1/2+z
-x,1/2-y,1/2+z
1/4-x,3/4+y,3/4+z
1/4+x,3/4-y,3/4+z
1/2+x,y,1/2+z
1/2-x,-y,1/2+z
3/4-x,1/4+y,3/4+z
3/4+x,1/4-y,3/4+z
1/2+x,1/2+y,z
1/2-x,1/2-y,z
3/4-x,3/4+y,1/4+z
3/4+x,3/4-y,1/4+z
loop_
_atom_site_type_symbol
_atom_site_label
_atom_site_fract_x
_atom_site_fract_y
_atom_site_fract_z
Si Si1 0.671655 0.015282 0.312020
Si Si2 0.862394 0.104121 0.556380
Si Si3 0.054973 0.703850 0.909096
Si Si4 0.690537 0.394114 0.766271
Si Si5 0.696620 0.541035 0.013231
Si Si6 0.650843 0.827118 0.603237
Si Si7 0.500000 0.000000 0.701144
Si Si8 0.250000 0.750000 0.251591
O O1 0.633670 0.078730 0.284704
O O2 0.775609 0.022790 0.259681
O O3 0.664957 0.009718 0.421158
O O4 0.629364 0.953902 0.279342
O O5 0.806914 0.108661 0.655204
O O6 0.783852 0.083137 0.482434
O O7 0.948435 0.055231 0.553918
O O8 0.005968 0.745705 0.834340
O O9 0.046465 0.636090 0.888821
O O10 0.165848 0.721407 0.892799
O O11 0.636427 0.335357 0.798013
O O12 0.791774 0.405580 0.820143
O O13 0.707191 0.800655 0.516273
O O14 0.668559 0.780087 0.684779
#
# Coordination Sequence:
#
# PCOD9372602 Si02
#       8
#    16  16  16  16  16  16   8   8
#     4  11  24  45  70 103 142 190 243 304 366 451
#     4  11  24  44  71 106 148 191 253 299 378 448
#     4  12  24  47  70 108 144 195 241 307 380 435
#     4  11  24  47  69 101 153 191 239 306 373 449
#     4  11  26  44  73 105 144 192 253 298 372 459
#     4  11  24  43  72 106 148 195 247 312 377 442
#     4  11  24  42  72 107 144 184 254 305 370 455
#     4  11  24  42  74 117 146 204 252 323 376 445
#
# _framework density 24.474499000000002
#
# number of rings (size 3 to 8) (size 9 to 14) (size 15 to 20)
#    0.000    0.857    4.286    1.714    2.000    7.429 
#    0.000    2.857    0.000    0.000    0.000    0.000 
#    0.000    0.000    0.000    0.000    0.000    0.000 
#
# Total GULP energy -156204.396396 kJ/mol
# GULP energy per Si atom -5578.728443 kJ/mol
# Density = 2.441879 g / cm^3
# Si number density = 24.474499 Si / 1000 Ang^3
#
#
#
# Elastic Constant Matrix: (Units=GPa)
#
#
# Indices 1 2 3 4 5 6 
#
# 1 57.3961 9.5414 12.7824 0.0000 0.0000 0.0000
# 2 9.5414 157.1115 28.2891 0.0000 0.0000 0.0000
# 3 12.7824 28.2891 39.4195 0.0000 0.0000 0.0000
# 4 0.0000 0.0000 0.0000 26.9306 0.0000 0.0000
# 5 0.0000 0.0000 0.0000 0.0000 24.9243 0.0000
# 6 0.0000 0.0000 0.0000 0.0000 0.0000 -7.1436
#
#
#
# Elastic Compliance Matrix: (Units=1/GPa)
#
#
# Indices 1 2 3 4 5 6 
#
# 1 0.018779 -0.000051 -0.006053 0.000000 0.000000 0.000000
# 2 -0.000051 0.007310 -0.005229 0.000000 0.000000 0.000000
# 3 -0.006053 -0.005229 0.031084 0.000000 0.000000 0.000000
# 4 0.000000 0.000000 0.000000 0.037133 0.000000 0.000000
# 5 0.000000 0.000000 0.000000 0.000000 0.040121 0.000000
# 6 0.000000 0.000000 0.000000 0.000000 0.000000 -0.139985
#
#
# Mechanical properties :
#
#
# Convention : Reuss Voigt Hill
#
# Bulk Modulus (GPa) = 28.98000 39.46142 34.22071
# Shear Modulus (GPa) = 174.76704 22.49654 98.63179
#
# Velocity S-wave (km/s) = 8.45948 3.03509 6.35510
# Velocity P-wave (km/s) = 10.35779 5.33300 8.23786
#
# Compressibility (1/GPa) = 0.03450656
#
# Stress axis : x y z
#
# Youngs Moduli (GPa) = 53.25025 136.80753 32.17123
#
# Poissons Ratio (x) = 0.00691 0.19474
# Poissons Ratio (y) = 0.00269 0.16823
# Poissons Ratio (z) = 0.32233 0.71540
#
# Static dielectric constant tensor:
#      x y z
#    x 2.062500 0.000000 0.000000 
#    y 0.000000 2.015110 0.000000 
#    z 0.000000 0.000000 1.922070 
# 
# From -- ./inp_files/10213.got.cif
#   From: 2010.05.17/outbox.cif.g08.bks.cpg/sg43_6_cif.got.tgz:10213.got - 2010.06.03 19:21:55.
