data_PCOD9372817
_publ_section_title
;
Structure prediction by ZEFSAII (Michael W. Deem and Ramdas Pophale) SiO2 
 PCOD9372817
Probable space group: F D D 2
;
_chemical_formula_sum "Si O2"
_cell_formula_units_Z 96
_cell_length_a 7.781327
_cell_length_b 25.583263
_cell_length_c 21.229787
_cell_angle_alpha 90.000000
_cell_angle_beta 90.000000
_cell_angle_gamma 90.000000
_cell_volume 4226.250535
_symmetry_space_group_name_H-M "F D D 2"
_symmetry_group_IT_number 43
_symmetry_cell_setting 'orthorhombic'
loop_
_space_group_symop_operation_xyz
x,y,z
-x,-y,z
1/4-x,1/4+y,1/4+z
1/4+x,1/4-y,1/4+z
x,1/2+y,1/2+z
-x,1/2-y,1/2+z
1/4-x,3/4+y,3/4+z
1/4+x,3/4-y,3/4+z
1/2+x,y,1/2+z
1/2-x,-y,1/2+z
3/4-x,1/4+y,3/4+z
3/4+x,1/4-y,3/4+z
1/2+x,1/2+y,z
1/2-x,1/2-y,z
3/4-x,3/4+y,1/4+z
3/4+x,3/4-y,1/4+z
loop_
_atom_site_type_symbol
_atom_site_label
_atom_site_fract_x
_atom_site_fract_y
_atom_site_fract_z
Si Si1 0.193697 0.403948 0.084150
Si Si2 0.036150 0.691382 0.116589
Si Si3 0.738012 0.473489 0.059172
Si Si4 0.500000 0.000000 0.445870
Si Si5 0.250000 0.250000 0.511599
Si Si6 0.249320 0.836829 0.227701
Si Si7 0.746282 0.166925 0.913511
O O1 0.225460 0.467324 0.082919
O O2 0.360319 0.386780 0.123284
O O3 0.033452 0.368201 0.107964
O O4 0.175189 0.392298 0.009639
O O5 0.108268 0.720714 0.054743
O O6 0.193753 0.692172 0.165249
O O7 0.879734 0.720156 0.150514
O O8 0.634323 0.444532 0.114338
O O9 0.619071 0.470315 0.996742
O O10 0.910058 0.447296 0.032170
O O11 0.171480 0.292400 0.463097
O O12 0.117130 0.879802 0.206463
#
# Coordination Sequence:
#
# PCOD9372817 Si02
#       7
#    16  16  16   8   8  16  16
#     4  12  24  46  74 110 145 197 255 309 384 456
#     4  12  27  48  73 111 155 198 256 318 388 453
#     4  12  23  48  80 107 146 202 252 320 378 459
#     4  12  23  48  72 106 149 196 262 308 378 460
#     4  12  25  50  68 106 153 204 244 322 390 448
#     4  12  26  47  75 109 149 196 259 310 376 463
#     4  12  25  49  78 107 153 200 254 318 385 458
#
# _framework density 22.715171000000002
#
# number of rings (size 3 to 8) (size 9 to 14) (size 15 to 20)
#    0.000    0.000    6.667    3.500    0.000    0.000 
#    3.000    0.000    0.000    0.000    0.000    0.000 
#    0.000    0.000    0.000    0.000    0.000    0.000 
#
# Total GULP energy -133843.140120 kJ/mol
# GULP energy per Si atom -5576.797505 kJ/mol
# Density = 2.266347 g / cm^3
# Si number density = 22.715171 Si / 1000 Ang^3
#
#
#
# Elastic Constant Matrix: (Units=GPa)
#
#
# Indices 1 2 3 4 5 6 
#
# 1 85.9953 48.3907 43.5145 0.0000 0.0000 0.0000
# 2 48.3907 96.0076 54.2685 0.0000 0.0000 0.0000
# 3 43.5145 54.2685 133.7934 0.0000 0.0000 0.0000
# 4 0.0000 0.0000 0.0000 39.9310 0.0000 0.0000
# 5 0.0000 0.0000 0.0000 0.0000 94.4309 0.0000
# 6 0.0000 0.0000 0.0000 0.0000 0.0000 41.4472
#
#
#
# Elastic Compliance Matrix: (Units=1/GPa)
#
#
# Indices 1 2 3 4 5 6 
#
# 1 0.016929 -0.007033 -0.002653 0.000000 0.000000 0.000000
# 2 -0.007033 0.016436 -0.004379 0.000000 0.000000 0.000000
# 3 -0.002653 -0.004379 0.010113 0.000000 0.000000 0.000000
# 4 0.000000 0.000000 0.000000 0.025043 0.000000 0.000000
# 5 0.000000 0.000000 0.000000 0.000000 0.010590 0.000000
# 6 0.000000 0.000000 0.000000 0.000000 0.000000 0.024127
#
#
# Mechanical properties :
#
#
# Convention : Reuss Voigt Hill
#
# Bulk Modulus (GPa) = 65.15779 67.57151 66.36465
# Shear Modulus (GPa) = 36.63421 46.46999 41.55210
#
# Velocity S-wave (km/s) = 4.02028 4.52792 4.28163
# Velocity P-wave (km/s) = 7.09205 7.55963 7.32957
#
# Compressibility (1/GPa) = 0.01534736
#
# Stress axis : x y z
#
# Youngs Moduli (GPa) = 59.07192 60.84207 98.87817
#
# Poissons Ratio (x) = 0.42789 0.26234
# Poissons Ratio (y) = 0.41544 0.43302
# Poissons Ratio (z) = 0.15673 0.26645
#
# Static dielectric constant tensor:
#      x y z
#    x 0.597440 0.000000 0.000000 
#    y 0.000000 2.030060 0.000000 
#    z 0.000000 0.000000 1.835000 
# 
# From -- ./inp_files/16510.got.cif
#   From: 2010.05.17/outbox.cif.g08.bks.cpg/sg43_9_cif.got.tgz:16510.got - 2010.06.03 19:21:55.
