data_PCOD9372352
_publ_section_title
;
Structure prediction by ZEFSAII (Michael W. Deem and Ramdas Pophale) SiO2 
 PCOD9372352
Probable space group: F D D 2
;
_chemical_formula_sum "Si O2"
_cell_formula_units_Z 112
_cell_length_a 11.356868
_cell_length_b 13.670501
_cell_length_c 32.611093
_cell_angle_alpha 90.000000
_cell_angle_beta 90.000000
_cell_angle_gamma 90.000000
_cell_volume 5063.005090
_symmetry_space_group_name_H-M "F D D 2"
_symmetry_group_IT_number 43
_symmetry_cell_setting 'orthorhombic'
loop_
_space_group_symop_operation_xyz
x,y,z
-x,-y,z
1/4-x,1/4+y,1/4+z
1/4+x,1/4-y,1/4+z
x,1/2+y,1/2+z
-x,1/2-y,1/2+z
1/4-x,3/4+y,3/4+z
1/4+x,3/4-y,3/4+z
1/2+x,y,1/2+z
1/2-x,-y,1/2+z
3/4-x,1/4+y,3/4+z
3/4+x,1/4-y,3/4+z
1/2+x,1/2+y,z
1/2-x,1/2-y,z
3/4-x,3/4+y,1/4+z
3/4+x,3/4-y,1/4+z
loop_
_atom_site_type_symbol
_atom_site_label
_atom_site_fract_x
_atom_site_fract_y
_atom_site_fract_z
Si Si1 0.500000 0.500000 0.294780
Si Si2 0.292033 0.491969 0.348690
Si Si3 0.310504 0.142011 0.658996
Si Si4 0.500000 0.000000 0.032597
Si Si5 0.220884 0.589083 0.982543
Si Si6 0.368985 0.453832 0.785609
Si Si7 0.887480 0.246379 0.442258
Si Si8 0.872828 0.210127 0.672445
O O1 0.400024 0.542412 0.324747
O O2 0.533462 0.587154 0.263800
O O3 0.358330 0.401385 0.369520
O O4 0.204531 0.469217 0.312099
O O5 0.219193 0.541836 0.385717
O O6 0.250000 0.250000 0.665763
O O7 0.398243 0.111266 0.695483
O O8 0.206536 0.065368 0.658955
O O9 0.434578 0.098252 0.052080
O O10 0.612846 0.037582 0.006596
O O11 0.312171 0.518627 0.959104
O O12 0.500000 0.500000 0.788425
O O13 0.343049 0.450651 0.737113
O O14 0.750000 0.250000 0.433612
O O15 0.919891 0.358548 0.441287
O O16 0.750000 0.250000 0.654945
#
# Coordination Sequence:
#
# PCOD9372352 Si02
#       8
#     8  16  16   8  16  16  16  16
#     4  12  24  43  74 104 140 192 240 294 382 444
#     4  11  24  45  67 100 150 188 230 309 369 443
#     4  11  20  41  70 100 141 183 240 295 361 434
#     4  12  20  43  72 106 134 186 254 312 364 444
#     4  11  23  41  72 100 140 184 242 295 359 442
#     4  11  23  43  76 102 145 191 252 312 377 438
#     4  11  22  41  75 102 129 189 242 295 355 444
#     4  11  27  45  71 104 150 185 237 302 369 443
#
# _framework density 22.12125
#
# number of rings (size 3 to 8) (size 9 to 14) (size 15 to 20)
#    0.000    0.857    4.286    3.857    4.000    0.000 
#    6.429    0.000    6.286    0.000    0.000    0.000 
#    0.000    0.000    0.000    0.000    0.000    0.000 
#
# Total GULP energy -155896.019797 kJ/mol
# GULP energy per Si atom -5567.714993 kJ/mol
# Density = 2.207090 g / cm^3
# Si number density = 22.121250 Si / 1000 Ang^3
#
#
#
# Elastic Constant Matrix: (Units=GPa)
#
#
# Indices 1 2 3 4 5 6 
#
# 1 111.7774 44.7220 59.0274 0.0000 0.0000 0.0000
# 2 44.7220 84.1582 37.8215 0.0000 0.0000 0.0000
# 3 59.0274 37.8215 67.7308 0.0000 0.0000 0.0000
# 4 0.0000 0.0000 0.0000 16.8743 0.0000 0.0000
# 5 0.0000 0.0000 0.0000 0.0000 19.1695 0.0000
# 6 0.0000 0.0000 0.0000 0.0000 0.0000 29.3600
#
#
#
# Elastic Compliance Matrix: (Units=1/GPa)
#
#
# Indices 1 2 3 4 5 6 
#
# 1 0.017200 -0.003209 -0.013198 0.000000 0.000000 0.000000
# 2 -0.003209 0.016462 -0.006396 0.000000 0.000000 0.000000
# 3 -0.013198 -0.006396 0.029838 0.000000 0.000000 0.000000
# 4 0.000000 0.000000 0.000000 0.059262 0.000000 0.000000
# 5 0.000000 0.000000 0.000000 0.000000 0.052166 0.000000
# 6 0.000000 0.000000 0.000000 0.000000 0.000000 0.034060
#
#
# Mechanical properties :
#
#
# Convention : Reuss Voigt Hill
#
# Bulk Modulus (GPa) = 55.88369 60.75646 58.32008
# Shear Modulus (GPa) = 19.18967 21.22046 20.20506
#
# Velocity S-wave (km/s) = 2.94849 3.10058 3.02549
# Velocity P-wave (km/s) = 6.07526 6.35161 6.21497
#
# Compressibility (1/GPa) = 0.01789431
#
# Stress axis : x y z
#
# Youngs Moduli (GPa) = 58.14096 60.74594 33.51472
#
# Poissons Ratio (x) = 0.19492 0.44231
# Poissons Ratio (y) = 0.18656 0.21436
# Poissons Ratio (z) = 0.76732 0.38853
#
# Static dielectric constant tensor:
#      x y z
#    x 1.824080 0.000000 0.000000 
#    y 0.000000 1.887830 0.000000 
#    z 0.000000 0.000000 1.829180 
# 
# From -- ./inp_files/28678.got.cif
#   From: 2010.05.17/outbox.cif.g08.bks.cpg/sg43_15_cif.got.tgz:28678.got - 2010.06.03 19:21:55.
