data_PCOD9372762
_publ_section_title
;
Structure prediction by ZEFSAII (Michael W. Deem and Ramdas Pophale) SiO2 
 PCOD9372762
Probable space group: F D D 2
;
_chemical_formula_sum "Si O2"
_cell_formula_units_Z 64
_cell_length_a 13.438323
_cell_length_b 13.459188
_cell_length_c 12.371674
_cell_angle_alpha 90.000000
_cell_angle_beta 90.000000
_cell_angle_gamma 90.000000
_cell_volume 2237.651261
_symmetry_space_group_name_H-M "F D D 2"
_symmetry_group_IT_number 43
_symmetry_cell_setting 'orthorhombic'
loop_
_space_group_symop_operation_xyz
x,y,z
-x,-y,z
1/4-x,1/4+y,1/4+z
1/4+x,1/4-y,1/4+z
x,1/2+y,1/2+z
-x,1/2-y,1/2+z
1/4-x,3/4+y,3/4+z
1/4+x,3/4-y,3/4+z
1/2+x,y,1/2+z
1/2-x,-y,1/2+z
3/4-x,1/4+y,3/4+z
3/4+x,1/4-y,3/4+z
1/2+x,1/2+y,z
1/2-x,1/2-y,z
3/4-x,3/4+y,1/4+z
3/4+x,3/4-y,1/4+z
loop_
_atom_site_type_symbol
_atom_site_label
_atom_site_fract_x
_atom_site_fract_y
_atom_site_fract_z
Si Si1 0.036782 0.197082 0.719550
Si Si2 0.664979 0.018377 0.180341
Si Si3 0.333226 0.159566 0.336281
Si Si4 0.670489 0.837334 0.590550
O O1 0.075956 0.096821 0.666274
O O2 0.096440 0.191938 0.832721
O O3 0.080207 0.296610 0.663666
O O4 0.924489 0.193947 0.759720
O O5 0.767358 0.078420 0.154157
O O6 0.675163 0.952725 0.286890
O O7 0.250000 0.250000 0.327918
O O8 0.358319 0.149927 0.464318
O O9 0.750000 0.750000 0.586746
#
# Coordination Sequence:
#
# PCOD9372762 Si02
#       4
#    16  16  16  16
#     4  11  27  52  83 117 163 221 281 342 422 521
#     4  11  27  50  81 121 163 215 281 352 426 511
#     4  11  27  53  83 123 169 218 281 357 433 518
#     4   9  24  51  81 115 167 228 283 343 429 526
#
# _framework density 28.601417999999999
#
# number of rings (size 3 to 8) (size 9 to 14) (size 15 to 20)
#    0.000    1.500    0.000    0.750    0.000   24.000 
#    0.000    8.750    0.000    1.500    0.000    0.000 
#    0.000    0.000    0.000    0.000    0.000    0.000 
#
# Total GULP energy -89502.396058 kJ/mol
# GULP energy per Si atom -5593.899754 kJ/mol
# Density = 2.853632 g / cm^3
# Si number density = 28.601418 Si / 1000 Ang^3
#
#
#
# Elastic Constant Matrix: (Units=GPa)
#
#
# Indices 1 2 3 4 5 6 
#
# 1 183.2326 63.7481 63.1944 0.0000 0.0000 0.0000
# 2 63.7481 188.3117 55.5781 0.0000 0.0000 0.0000
# 3 63.1944 55.5781 182.5449 0.0000 0.0000 0.0000
# 4 0.0000 0.0000 0.0000 57.3420 0.0000 0.0000
# 5 0.0000 0.0000 0.0000 0.0000 52.1253 0.0000
# 6 0.0000 0.0000 0.0000 0.0000 0.0000 42.7759
#
#
#
# Elastic Compliance Matrix: (Units=1/GPa)
#
#
# Indices 1 2 3 4 5 6 
#
# 1 0.006676 -0.001734 -0.001783 0.000000 0.000000 0.000000
# 2 -0.001734 0.006285 -0.001313 0.000000 0.000000 0.000000
# 3 -0.001783 -0.001313 0.006495 0.000000 0.000000 0.000000
# 4 0.000000 0.000000 0.000000 0.017439 0.000000 0.000000
# 5 0.000000 0.000000 0.000000 0.000000 0.019185 0.000000
# 6 0.000000 0.000000 0.000000 0.000000 0.000000 0.023378
#
#
# Mechanical properties :
#
#
# Convention : Reuss Voigt Hill
#
# Bulk Modulus (GPa) = 102.08770 102.12560 102.10665
# Shear Modulus (GPa) = 54.12269 55.21987 54.67128
#
# Velocity S-wave (km/s) = 4.35479 4.39870 4.37680
# Velocity P-wave (km/s) = 7.81385 7.84743 7.83066
#
# Compressibility (1/GPa) = 0.00979550
#
# Stress axis : x y z
#
# Youngs Moduli (GPa) = 149.79754 159.11333 153.95768
#
# Poissons Ratio (x) = 0.27584 0.27454
# Poissons Ratio (y) = 0.25969 0.20220
# Poissons Ratio (z) = 0.26712 0.20897
#
# Static dielectric constant tensor:
#      x y z
#    x 2.326580 0.000000 0.000000 
#    y 0.000000 2.337560 0.000000 
#    z 0.000000 0.000000 2.153800 
# 
# From -- ./inp_files/8124.got.cif
#   From: 2010.05.17/outbox.cif.g08.bks.cpg/sg43_5_cif.got.tgz:8124.got - 2010.06.03 19:21:55.
