data_PCOD9372008
_publ_section_title
;
Structure prediction by ZEFSAII (Michael W. Deem and Ramdas Pophale) SiO2 
 PCOD9372008
Probable space group: F D D 2
;
_chemical_formula_sum "Si O2"
_cell_formula_units_Z 112
_cell_length_a 30.687755
_cell_length_b 5.792770
_cell_length_c 26.724998
_cell_angle_alpha 90.000000
_cell_angle_beta 90.000000
_cell_angle_gamma 90.000000
_cell_volume 4750.825567
_symmetry_space_group_name_H-M "F D D 2"
_symmetry_group_IT_number 43
_symmetry_cell_setting 'orthorhombic'
loop_
_space_group_symop_operation_xyz
x,y,z
-x,-y,z
1/4-x,1/4+y,1/4+z
1/4+x,1/4-y,1/4+z
x,1/2+y,1/2+z
-x,1/2-y,1/2+z
1/4-x,3/4+y,3/4+z
1/4+x,3/4-y,3/4+z
1/2+x,y,1/2+z
1/2-x,-y,1/2+z
3/4-x,1/4+y,3/4+z
3/4+x,1/4-y,3/4+z
1/2+x,1/2+y,z
1/2-x,1/2-y,z
3/4-x,3/4+y,1/4+z
3/4+x,3/4-y,1/4+z
loop_
_atom_site_type_symbol
_atom_site_label
_atom_site_fract_x
_atom_site_fract_y
_atom_site_fract_z
Si Si1 0.812968 0.317507 0.108190
Si Si2 0.031483 0.306629 0.172939
Si Si3 0.077197 0.487217 0.745199
Si Si4 0.269564 0.508671 0.810733
Si Si5 0.639690 0.361246 0.424539
Si Si6 0.615467 0.130007 0.524603
Si Si7 0.546404 0.445913 0.841195
O O1 0.811369 0.348336 0.048523
O O2 0.861212 0.289911 0.130209
O O3 0.801162 0.577430 0.126872
O O4 0.792229 0.062345 0.115693
O O5 0.042374 0.154793 0.220532
O O6 0.011166 0.230498 0.120499
O O7 0.078150 0.412337 0.157289
O O8 0.000000 0.500000 0.192708
O O9 0.082900 0.308554 0.701000
O O10 0.122980 0.617705 0.757694
O O11 0.250000 0.250000 0.795546
O O12 0.321237 0.547229 0.801581
O O13 0.250000 0.750000 0.788620
O O14 0.613701 0.265802 0.472265
O O15 0.659394 0.183598 0.557488
O O16 0.500000 0.500000 0.815527
#
# Coordination Sequence:
#
# PCOD9372008 Si02
#       7
#    16  16  16  16  16  16  16
#     4  11  25  44  70 100 144 182 238 290 347 431
#     4  10  25  42  66 108 147 182 239 304 376 436
#     4  10  24  40  69 103 137 193 232 294 361 434
#     4  11  27  47  77 110 146 193 240 305 367 430
#     4  11  24  43  71 103 137 195 240 293 362 429
#     4  10  24  45  71 106 144 189 242 294 367 420
#     4  11  24  46  71 105 139 188 236 295 357 425
#
# _framework density 23.574850000000001
#
# number of rings (size 3 to 8) (size 9 to 14) (size 15 to 20)
#    0.000    1.429    1.429    1.286   14.000    5.143 
#    5.143    2.143    0.000    0.000    0.000    0.000 
#    0.000    0.000    0.000    0.000    0.000    0.000 
#
# Total GULP energy -155913.782180 kJ/mol
# GULP energy per Si atom -5568.349364 kJ/mol
# Density = 2.352119 g / cm^3
# Si number density = 23.574850 Si / 1000 Ang^3
#
#
#
# Elastic Constant Matrix: (Units=GPa)
#
#
# Indices 1 2 3 4 5 6 
#
# 1 89.9620 33.1299 12.5667 0.0040 0.0150 -0.0022
# 2 33.1299 159.7986 12.7682 0.0214 0.0420 -0.0085
# 3 12.5667 12.7682 25.6295 0.0032 0.0035 -0.0056
# 4 0.0040 0.0214 0.0032 9.2712 0.0009 -0.0017
# 5 0.0150 0.0420 0.0035 0.0009 3.8547 0.0270
# 6 -0.0022 -0.0085 -0.0056 -0.0017 0.0270 11.0417
#
#
#
# Elastic Compliance Matrix: (Units=1/GPa)
#
#
# Indices 1 2 3 4 5 6 
#
# 1 0.012643 -0.002214 -0.005096 0.000001 -0.000021 -0.000002
# 2 -0.002214 0.006905 -0.002354 -0.000014 -0.000064 0.000004
# 3 -0.005096 -0.002354 0.042689 -0.000007 0.000007 0.000019
# 4 0.000001 -0.000014 -0.000007 0.107861 -0.000026 0.000016
# 5 -0.000021 -0.000064 0.000007 -0.000026 0.259429 -0.000635
# 6 -0.000002 0.000004 0.000019 0.000016 -0.000635 0.090567
#
#
# Mechanical properties :
#
#
# Convention : Reuss Voigt Hill
#
# Bulk Modulus (GPa) = 23.30556 43.59104 33.44830
# Shear Modulus (GPa) = 9.02973 19.29521 14.16247
#
# Velocity S-wave (km/s) = 1.95922 2.86399 2.45367
# Velocity P-wave (km/s) = 3.87625 5.42837 4.71659
#
# Compressibility (1/GPa) = 0.04290821
#
# Stress axis : x y z
#
# Youngs Moduli (GPa) = 79.09502 144.82201 23.42512
#
# Poissons Ratio (x) = 0.32063 0.11938
# Poissons Ratio (y) = 0.17512 0.05515
# Poissons Ratio (z) = 0.40308 0.34097
#
# Static dielectric constant tensor:
#      x y z
#    x 1.943090 0.000000 0.000000 
#    y 0.000000 2.217900 0.000000 
#    z 0.000000 0.000000 1.812930 
# 
# From -- ./inp_files/30041.got.cif
#   From: 2010.05.17/outbox.cif.g08.bks.cpg/sg43_16_cif.got.tgz:30041.got - 2010.06.03 19:21:55.
