data_PCOD9372579
_publ_section_title
;
Structure prediction by ZEFSAII (Michael W. Deem and Ramdas Pophale) SiO2 
 PCOD9372579
Probable space group: F D D 2
;
_chemical_formula_sum "Si O2"
_cell_formula_units_Z 72
_cell_length_a 22.126936
_cell_length_b 7.817943
_cell_length_c 16.151833
_cell_angle_alpha 90.000000
_cell_angle_beta 90.000000
_cell_angle_gamma 90.000000
_cell_volume 2794.059145
_symmetry_space_group_name_H-M "F D D 2"
_symmetry_group_IT_number 43
_symmetry_cell_setting 'orthorhombic'
loop_
_space_group_symop_operation_xyz
x,y,z
-x,-y,z
1/4-x,1/4+y,1/4+z
1/4+x,1/4-y,1/4+z
x,1/2+y,1/2+z
-x,1/2-y,1/2+z
1/4-x,3/4+y,3/4+z
1/4+x,3/4-y,3/4+z
1/2+x,y,1/2+z
1/2-x,-y,1/2+z
3/4-x,1/4+y,3/4+z
3/4+x,1/4-y,3/4+z
1/2+x,1/2+y,z
1/2-x,1/2-y,z
3/4-x,3/4+y,1/4+z
3/4+x,3/4-y,1/4+z
loop_
_atom_site_type_symbol
_atom_site_label
_atom_site_fract_x
_atom_site_fract_y
_atom_site_fract_z
Si Si1 0.500000 0.500000 0.094260
Si Si2 0.124940 0.420464 0.678133
Si Si3 0.276667 0.438699 0.056233
Si Si4 0.952950 0.655733 0.111809
Si Si5 0.652327 0.597741 0.599017
O O1 0.557001 0.433570 0.146038
O O2 0.471919 0.322270 0.057475
O O3 0.169333 0.526044 0.619902
O O4 0.144039 0.220925 0.676396
O O5 0.124492 0.464527 0.774427
O O6 0.250000 0.250000 0.066094
O O7 0.221254 0.561208 0.079567
O O8 0.292884 0.457765 0.959299
O O9 0.886864 0.573307 0.104325
O O10 0.000000 0.500000 0.097784
#
# Coordination Sequence:
#
# PCOD9372579 Si02
#       5
#     8  16  16  16  16
#     4  12  22  46  72 106 146 200 232 300 376 440
#     4  12  26  46  77 106 150 198 246 307 378 440
#     4  11  24  47  72 109 150 196 245 310 372 446
#     4  11  23  46  75 105 148 192 248 301 371 434
#     4  12  25  49  74 109 146 196 250 311 368 445
#
# _framework density 25.76896
#
# number of rings (size 3 to 8) (size 9 to 14) (size 15 to 20)
#    0.000    0.444    4.444    4.667    0.000    1.778 
#    6.000    0.000    0.000    0.000    0.000    0.000 
#    0.000    0.000    0.000    0.000    0.000    0.000 
#
# Total GULP energy -100815.548025 kJ/mol
# GULP energy per Si atom -5600.863779 kJ/mol
# Density = 2.571031 g / cm^3
# Si number density = 25.768960 Si / 1000 Ang^3
#
#
#
# Elastic Constant Matrix: (Units=GPa)
#
#
# Indices 1 2 3 4 5 6 
#
# 1 110.2142 -22.6784 34.6149 0.0000 0.0000 0.0000
# 2 -22.6784 105.1718 6.4998 0.0000 0.0000 0.0000
# 3 34.6149 6.4998 63.8636 0.0000 0.0000 0.0000
# 4 0.0000 0.0000 0.0000 27.9794 0.0000 0.0000
# 5 0.0000 0.0000 0.0000 0.0000 8.2336 0.0000
# 6 0.0000 0.0000 0.0000 0.0000 0.0000 60.0308
#
#
#
# Elastic Compliance Matrix: (Units=1/GPa)
#
#
# Indices 1 2 3 4 5 6 
#
# 1 0.011781 0.002954 -0.006686 0.000000 0.000000 0.000000
# 2 0.002954 0.010309 -0.002650 0.000000 0.000000 0.000000
# 3 -0.006686 -0.002650 0.019552 0.000000 0.000000 0.000000
# 4 0.000000 0.000000 0.000000 0.035741 0.000000 0.000000
# 5 0.000000 0.000000 0.000000 0.000000 0.121453 0.000000
# 6 0.000000 0.000000 0.000000 0.000000 0.000000 0.016658
#
#
# Mechanical properties :
#
#
# Convention : Reuss Voigt Hill
#
# Bulk Modulus (GPa) = 34.62995 35.12468 34.87731
# Shear Modulus (GPa) = 21.01862 36.63634 28.82748
#
# Velocity S-wave (km/s) = 2.85907 3.77467 3.34831
# Velocity P-wave (km/s) = 4.93628 5.71469 5.33969
#
# Compressibility (1/GPa) = 0.02887674
#
# Stress axis : x y z
#
# Youngs Moduli (GPa) = 84.88369 97.00357 51.14582
#
# Poissons Ratio (x) = -0.28650 0.34196
# Poissons Ratio (y) = -0.25071 0.13554
# Poissons Ratio (z) = 0.56753 0.25706
#
# Static dielectric constant tensor:
#      x y z
#    x 1.955710 0.000000 0.000000 
#    y 0.000000 2.079110 0.000000 
#    z 0.000000 0.000000 1.952950 
# 
# From -- ./inp_files/12549.got.cif
#   From: 2010.05.17/outbox.cif.g08.bks.cpg/sg43_7_cif.got.tgz:12549.got - 2010.06.03 19:21:55.
