data_PCOD9372923
_publ_section_title
;
Structure prediction by ZEFSAII (Michael W. Deem and Ramdas Pophale) SiO2 
 PCOD9372923
Probable space group: F D D 2
;
_chemical_formula_sum "Si O2"
_cell_formula_units_Z 56
_cell_length_a 5.134449
_cell_length_b 16.223062
_cell_length_c 27.460165
_cell_angle_alpha 90.000000
_cell_angle_beta 90.000000
_cell_angle_gamma 90.000000
_cell_volume 2287.335207
_symmetry_space_group_name_H-M "F D D 2"
_symmetry_group_IT_number 43
_symmetry_cell_setting 'orthorhombic'
loop_
_space_group_symop_operation_xyz
x,y,z
-x,-y,z
1/4-x,1/4+y,1/4+z
1/4+x,1/4-y,1/4+z
x,1/2+y,1/2+z
-x,1/2-y,1/2+z
1/4-x,3/4+y,3/4+z
1/4+x,3/4-y,3/4+z
1/2+x,y,1/2+z
1/2-x,-y,1/2+z
3/4-x,1/4+y,3/4+z
3/4+x,1/4-y,3/4+z
1/2+x,1/2+y,z
1/2-x,1/2-y,z
3/4-x,3/4+y,1/4+z
3/4+x,3/4-y,1/4+z
loop_
_atom_site_type_symbol
_atom_site_label
_atom_site_fract_x
_atom_site_fract_y
_atom_site_fract_z
Si Si1 0.676409 0.875826 0.234780
Si Si2 0.750000 0.250000 0.940885
Si Si3 0.169697 0.838729 0.296539
Si Si4 0.072701 0.406114 0.898914
O O1 0.422048 0.865778 0.266904
O O2 0.586321 0.853380 0.180200
O O3 0.922266 0.831011 0.260373
O O4 0.779659 0.967130 0.226785
O O5 0.622458 0.170752 0.913157
O O6 0.250000 0.750000 0.317998
O O7 0.109406 0.897234 0.341408
O O8 0.000000 0.500000 0.910735
#
# Coordination Sequence:
#
# PCOD9372923 Si02
#       4
#    16   8  16  16
#     4  12  28  53  82 120 166 219 275 350 419 495
#     4  12  28  54  86 118 170 226 276 362 410 510
#     4  12  29  51  88 122 168 219 281 344 426 505
#     4  12  31  54  84 125 172 221 285 350 427 507
#
# _framework density 24.482638000000001
#
# number of rings (size 3 to 8) (size 9 to 14) (size 15 to 20)
#    0.000    0.000    2.857    4.286   14.000    0.000 
#    0.000    0.000    3.143    0.000    0.000    0.000 
#    0.000    0.000    0.000    0.000    0.000    0.000 
#
# Total GULP energy -78306.962630 kJ/mol
# GULP energy per Si atom -5593.354474 kJ/mol
# Density = 2.442691 g / cm^3
# Si number density = 24.482638 Si / 1000 Ang^3
#
#
#
# Elastic Constant Matrix: (Units=GPa)
#
#
# Indices 1 2 3 4 5 6 
#
# 1 196.2334 54.3666 51.2823 0.0000 0.0000 0.0000
# 2 54.3666 139.1198 13.1421 0.0000 0.0000 0.0000
# 3 51.2823 13.1421 88.9403 0.0000 0.0000 0.0000
# 4 0.0000 0.0000 0.0000 26.7584 0.0000 0.0000
# 5 0.0000 0.0000 0.0000 0.0000 -1.8143 0.0000
# 6 0.0000 0.0000 0.0000 0.0000 0.0000 57.7667
#
#
#
# Elastic Compliance Matrix: (Units=1/GPa)
#
#
# Indices 1 2 3 4 5 6 
#
# 1 0.006635 -0.002263 -0.003492 0.000000 0.000000 0.000000
# 2 -0.002263 0.008062 0.000114 0.000000 0.000000 0.000000
# 3 -0.003492 0.000114 0.013240 0.000000 0.000000 0.000000
# 4 0.000000 0.000000 0.000000 0.037372 0.000000 0.000000
# 5 0.000000 0.000000 0.000000 0.000000 -0.551162 0.000000
# 6 0.000000 0.000000 0.000000 0.000000 0.000000 0.017311
#
#
# Mechanical properties :
#
#
# Convention : Reuss Voigt Hill
#
# Bulk Modulus (GPa) = 60.04194 73.54173 66.79183
# Shear Modulus (GPa) = -11.06908 36.90897 12.91994
#
# Velocity S-wave (km/s) = -2.12862 3.88694 2.29970
# Velocity P-wave (km/s) = 4.30537 7.08858 5.86447
#
# Compressibility (1/GPa) = 0.01665503
#
# Stress axis : x y z
#
# Youngs Moduli (GPa) = 150.70548 124.04244 75.52939
#
# Poissons Ratio (x) = 0.28074 0.26371
# Poissons Ratio (y) = 0.34108 -0.00859
# Poissons Ratio (z) = 0.52619 -0.01411
#
# Static dielectric constant tensor:
#      x y z
#    x 2.213270 0.000000 0.000000 
#    y 0.000000 2.022230 0.000000 
#    z 0.000000 0.000000 1.919560 
# 
# From -- ./inp_files/26992.got.cif
#   From: 2010.05.17/outbox.cif.g08.bks.cpg/sg43_14_cif.got.tgz:26992.got - 2010.06.03 19:21:55.
