data_PCOD9372466
_publ_section_title
;
Structure prediction by ZEFSAII (Michael W. Deem and Ramdas Pophale) SiO2 
 PCOD9372466
Probable space group: F D D 2
;
_chemical_formula_sum "Si O2"
_cell_formula_units_Z 96
_cell_length_a 11.697453
_cell_length_b 34.209227
_cell_length_c 8.327286
_cell_angle_alpha 90.000000
_cell_angle_beta 90.000000
_cell_angle_gamma 90.000000
_cell_volume 3332.253636
_symmetry_space_group_name_H-M "F D D 2"
_symmetry_group_IT_number 43
_symmetry_cell_setting 'orthorhombic'
loop_
_space_group_symop_operation_xyz
x,y,z
-x,-y,z
1/4-x,1/4+y,1/4+z
1/4+x,1/4-y,1/4+z
x,1/2+y,1/2+z
-x,1/2-y,1/2+z
1/4-x,3/4+y,3/4+z
1/4+x,3/4-y,3/4+z
1/2+x,y,1/2+z
1/2-x,-y,1/2+z
3/4-x,1/4+y,3/4+z
3/4+x,1/4-y,3/4+z
1/2+x,1/2+y,z
1/2-x,1/2-y,z
3/4-x,3/4+y,1/4+z
3/4+x,3/4-y,1/4+z
loop_
_atom_site_type_symbol
_atom_site_label
_atom_site_fract_x
_atom_site_fract_y
_atom_site_fract_z
Si Si1 0.526181 0.162049 0.438640
Si Si2 0.625270 0.577114 0.952919
Si Si3 0.962451 0.677436 0.832008
Si Si4 0.012081 0.046031 0.682493
Si Si5 0.935555 0.407039 0.842640
Si Si6 0.936175 0.036914 0.139311
O O1 0.571998 0.118614 0.393733
O O2 0.500387 0.185620 0.267142
O O3 0.646270 0.184427 0.478737
O O4 0.464978 0.165762 0.628287
O O5 0.626001 0.595805 0.158140
O O6 0.520192 0.546203 0.989552
O O7 0.020880 0.636480 0.886527
O O8 0.055805 0.712516 0.836201
O O9 0.887522 0.690598 0.007886
O O10 0.067468 0.568018 0.021874
O O11 0.000000 0.000000 0.663704
O O12 0.044955 0.429971 0.769935
O O13 0.000000 0.000000 0.214991
#
# Coordination Sequence:
#
# PCOD9372466 Si02
#       6
#    16  16  16  16  16  16
#     4  11  22  43  73 105 134 192 246 294 356 446
#     4  11  22  43  77  96 141 187 242 294 360 437
#     4  12  25  44  73 105 145 190 244 299 364 441
#     4  12  30  46  66 111 156 186 239 310 377 439
#     4  11  23  45  75  99 140 187 246 298 353 440
#     4  11  25  45  72 108 138 190 243 300 371 430
#
# _framework density 28.809332000000001
#
# number of rings (size 3 to 8) (size 9 to 14) (size 15 to 20)
#    0.000    0.667    5.000    2.500    7.000    2.000 
#    0.000    0.000    0.000    0.000    0.000    0.000 
#    0.000    0.000    0.000    0.000    0.000    0.000 
#
# Total GULP energy -133750.332403 kJ/mol
# GULP energy per Si atom -5572.930517 kJ/mol
# Density = 2.874376 g / cm^3
# Si number density = 28.809332 Si / 1000 Ang^3
#
#
#
# Elastic Constant Matrix: (Units=GPa)
#
#
# Indices 1 2 3 4 5 6 
#
# 1 226.8020 97.9343 110.0207 0.0000 0.0000 0.0000
# 2 97.9343 173.9660 23.6298 0.0000 0.0000 0.0000
# 3 110.0207 23.6298 185.8901 0.0000 0.0000 0.0000
# 4 0.0000 0.0000 0.0000 13.0203 0.0000 0.0000
# 5 0.0000 0.0000 0.0000 0.0000 92.7759 0.0000
# 6 0.0000 0.0000 0.0000 0.0000 0.0000 39.4246
#
#
#
# Elastic Compliance Matrix: (Units=1/GPa)
#
#
# Indices 1 2 3 4 5 6 
#
# 1 0.008301 -0.004076 -0.004395 0.000000 0.000000 0.000000
# 2 -0.004076 0.007851 0.001415 0.000000 0.000000 0.000000
# 3 -0.004395 0.001415 0.007801 0.000000 0.000000 0.000000
# 4 0.000000 0.000000 0.000000 0.076803 0.000000 0.000000
# 5 0.000000 0.000000 0.000000 0.000000 0.010779 0.000000
# 6 0.000000 0.000000 0.000000 0.000000 0.000000 0.025365
#
#
# Mechanical properties :
#
#
# Convention : Reuss Voigt Hill
#
# Bulk Modulus (GPa) = 101.62926 116.64753 109.13839
# Shear Modulus (GPa) = 32.40592 52.71572 42.56082
#
# Velocity S-wave (km/s) = 3.35750 4.28227 3.84777
# Velocity P-wave (km/s) = 7.09814 8.06399 7.59643
#
# Compressibility (1/GPa) = 0.00983969
#
# Stress axis : x y z
#
# Youngs Moduli (GPa) = 120.46325 127.37512 128.18959
#
# Poissons Ratio (x) = 0.51921 0.56340
# Poissons Ratio (y) = 0.49104 -0.18134
# Poissons Ratio (z) = 0.52944 -0.18018
#
# Static dielectric constant tensor:
#      x y z
#    x 2.173930 0.000000 0.000000 
#    y 0.000000 2.572590 0.000000 
#    z 0.000000 0.000000 3.152090 
# 
# From -- ./inp_files/13397.got.cif
#   From: 2010.05.17/outbox.cif.g08.bks.cpg/sg43_7_cif.got.tgz:13397.got - 2010.06.03 19:21:55.
