data_PCOD9372582
_publ_section_title
;
Structure prediction by ZEFSAII (Michael W. Deem and Ramdas Pophale) SiO2 
 PCOD9372582
Probable space group: F D D 2
;
_chemical_formula_sum "Si O2"
_cell_formula_units_Z 120
_cell_length_a 12.599208
_cell_length_b 19.862149
_cell_length_c 22.231315
_cell_angle_alpha 90.000000
_cell_angle_beta 90.000000
_cell_angle_gamma 90.000000
_cell_volume 5563.327590
_symmetry_space_group_name_H-M "F D D 2"
_symmetry_group_IT_number 43
_symmetry_cell_setting 'orthorhombic'
loop_
_space_group_symop_operation_xyz
x,y,z
-x,-y,z
1/4-x,1/4+y,1/4+z
1/4+x,1/4-y,1/4+z
x,1/2+y,1/2+z
-x,1/2-y,1/2+z
1/4-x,3/4+y,3/4+z
1/4+x,3/4-y,3/4+z
1/2+x,y,1/2+z
1/2-x,-y,1/2+z
3/4-x,1/4+y,3/4+z
3/4+x,1/4-y,3/4+z
1/2+x,1/2+y,z
1/2-x,1/2-y,z
3/4-x,3/4+y,1/4+z
3/4+x,3/4-y,1/4+z
loop_
_atom_site_type_symbol
_atom_site_label
_atom_site_fract_x
_atom_site_fract_y
_atom_site_fract_z
Si Si1 0.612110 0.894367 0.295860
Si Si2 0.498634 0.630155 0.326058
Si Si3 0.000000 0.000000 0.884500
Si Si4 0.554747 0.832302 0.178203
Si Si5 0.675837 0.689196 0.699214
Si Si6 0.474781 0.357663 0.548708
Si Si7 0.668560 0.042413 0.759756
Si Si8 0.626356 0.010888 0.621861
O O1 0.557744 0.947069 0.340582
O O2 0.563781 0.888493 0.229339
O O3 0.733498 0.914462 0.284629
O O4 0.603156 0.821601 0.326157
O O5 0.467865 0.588056 0.385513
O O6 0.384616 0.649726 0.298416
O O7 0.564063 0.581668 0.281658
O O8 0.566782 0.693987 0.347218
O O9 0.910347 0.962722 0.923991
O O10 0.447165 0.791665 0.193061
O O11 0.533277 0.862528 0.112399
O O12 0.750000 0.750000 0.717674
O O13 0.695337 0.630495 0.747253
O O14 0.435697 0.281386 0.537886
O O15 0.667430 0.032134 0.688002
O O16 0.500000 0.000000 0.626823
#
# Coordination Sequence:
#
# PCOD9372582 Si02
#       8
#    16  16   8  16  16  16  16  16
#     4  12  28  45  75 105 150 196 251 313 370 453
#     4  11  24  44  74 106 151 195 249 305 378 448
#     4  12  26  52  76 104 152 204 240 308 390 448
#     4  11  26  47  73 104 145 193 253 292 378 453
#     4  11  25  45  73 110 148 189 247 308 370 452
#     4  11  23  47  74 106 146 201 244 308 378 451
#     4  12  24  47  73 106 151 199 249 310 381 447
#     4  12  26  45  70 113 151 198 260 309 378 451
#
# _framework density 21.569825000000002
#
# number of rings (size 3 to 8) (size 9 to 14) (size 15 to 20)
#    0.000    0.533    4.000    4.400    2.800    1.067 
#    1.200    0.000    0.000    0.000    0.000    0.000 
#    0.000    0.000    0.000    0.000    0.000    0.000 
#
# Total GULP energy -167896.224583 kJ/mol
# GULP energy per Si atom -5596.540819 kJ/mol
# Density = 2.152073 g / cm^3
# Si number density = 21.569825 Si / 1000 Ang^3
#
#
#
# Elastic Constant Matrix: (Units=GPa)
#
#
# Indices 1 2 3 4 5 6 
#
# 1 117.4319 19.3832 9.3667 0.0000 0.0000 0.0000
# 2 19.3832 63.0635 19.6543 0.0000 0.0000 0.0000
# 3 9.3667 19.6543 100.1045 0.0000 0.0000 0.0000
# 4 0.0000 0.0000 0.0000 29.7472 0.0000 0.0000
# 5 0.0000 0.0000 0.0000 0.0000 39.1847 0.0000
# 6 0.0000 0.0000 0.0000 0.0000 0.0000 22.4129
#
#
#
# Elastic Compliance Matrix: (Units=1/GPa)
#
#
# Indices 1 2 3 4 5 6 
#
# 1 0.008980 -0.002661 -0.000318 0.000000 0.000000 0.000000
# 2 -0.002661 0.017679 -0.003222 0.000000 0.000000 0.000000
# 3 -0.000318 -0.003222 0.010652 0.000000 0.000000 0.000000
# 4 0.000000 0.000000 0.000000 0.033617 0.000000 0.000000
# 5 0.000000 0.000000 0.000000 0.000000 0.025520 0.000000
# 6 0.000000 0.000000 0.000000 0.000000 0.000000 0.044617
#
#
# Mechanical properties :
#
#
# Convention : Reuss Voigt Hill
#
# Bulk Modulus (GPa) = 40.14572 41.93426 41.03999
# Shear Modulus (GPa) = 30.90805 33.74868 32.32836
#
# Velocity S-wave (km/s) = 3.78951 3.95982 3.87560
# Velocity P-wave (km/s) = 6.14814 6.35534 6.25260
#
# Compressibility (1/GPa) = 0.02490926
#
# Stress axis : x y z
#
# Youngs Moduli (GPa) = 111.35656 56.56380 93.87979
#
# Poissons Ratio (x) = 0.15052 0.02983
# Poissons Ratio (y) = 0.29633 0.30249
# Poissons Ratio (z) = 0.03539 0.18225
#
# Static dielectric constant tensor:
#      x y z
#    x 1.803770 0.000000 0.000000 
#    y 0.000000 1.757120 0.000000 
#    z 0.000000 0.000000 1.770730 
# 
# From -- ./inp_files/17262.got.cif
#   From: 2010.05.17/outbox.cif.g08.bks.cpg/sg43_9_cif.got.tgz:17262.got - 2010.06.03 19:21:55.
