data_PCOD9372458
_publ_section_title
;
Structure prediction by ZEFSAII (Michael W. Deem and Ramdas Pophale) SiO2 
 PCOD9372458
Probable space group: F D D 2
;
_chemical_formula_sum "Si O2"
_cell_formula_units_Z 112
_cell_length_a 15.395222
_cell_length_b 14.564228
_cell_length_c 24.426560
_cell_angle_alpha 90.000000
_cell_angle_beta 90.000000
_cell_angle_gamma 90.000000
_cell_volume 5476.911640
_symmetry_space_group_name_H-M "F D D 2"
_symmetry_group_IT_number 43
_symmetry_cell_setting 'orthorhombic'
loop_
_space_group_symop_operation_xyz
x,y,z
-x,-y,z
1/4-x,1/4+y,1/4+z
1/4+x,1/4-y,1/4+z
x,1/2+y,1/2+z
-x,1/2-y,1/2+z
1/4-x,3/4+y,3/4+z
1/4+x,3/4-y,3/4+z
1/2+x,y,1/2+z
1/2-x,-y,1/2+z
3/4-x,1/4+y,3/4+z
3/4+x,1/4-y,3/4+z
1/2+x,1/2+y,z
1/2-x,1/2-y,z
3/4-x,3/4+y,1/4+z
3/4+x,3/4-y,1/4+z
loop_
_atom_site_type_symbol
_atom_site_label
_atom_site_fract_x
_atom_site_fract_y
_atom_site_fract_z
Si Si1 0.853939 0.005377 0.826120
Si Si2 0.692168 0.920183 0.771153
Si Si3 0.167162 0.012441 0.483574
Si Si4 0.805311 0.535199 0.650331
Si Si5 0.517334 0.890324 0.649197
Si Si6 0.669154 0.681666 0.629749
Si Si7 0.750638 0.117899 0.574020
O O1 0.793120 0.072940 0.862943
O O2 0.924488 0.070858 0.796689
O O3 0.788708 0.945694 0.789633
O O4 0.922300 0.930175 0.850119
O O5 0.668371 0.815980 0.754543
O O6 0.630093 0.939333 0.822428
O O7 0.677125 0.974969 0.714836
O O8 0.228518 0.093502 0.459205
O O9 0.143416 0.952996 0.430502
O O10 0.209507 0.951761 0.530212
O O11 0.881945 0.602860 0.628959
O O12 0.713352 0.583295 0.639420
O O13 0.799329 0.439401 0.620169
O O14 0.500000 0.000000 0.650440
O O15 0.750000 0.750000 0.631713
#
# Coordination Sequence:
#
# PCOD9372458 Si02
#       7
#    16  16  16  16  16  16  16
#     4  11  24  45  67  96 142 180 225 287 358 424
#     4  11  23  41  69 103 137 181 234 298 361 416
#     4  11  24  43  72 102 136 184 236 300 352 432
#     4  11  23  42  66 100 138 178 238 295 352 429
#     4  11  22  43  68  96 138 181 231 287 346 424
#     4  12  21  41  70 103 138 181 239 302 358 422
#     4  11  25  44  69  97 139 189 232 288 360 429
#
# _framework density 20.449480000000001
#
# number of rings (size 3 to 8) (size 9 to 14) (size 15 to 20)
#    0.000    0.857    7.143    0.857    0.000    3.429 
#    5.143    0.000    3.143    0.000    0.000    0.000 
#    0.000    0.000    0.000    0.000    0.000    0.000 
#
# Total GULP energy -155993.131639 kJ/mol
# GULP energy per Si atom -5571.183273 kJ/mol
# Density = 2.040294 g / cm^3
# Si number density = 20.449480 Si / 1000 Ang^3
#
#
#
# Elastic Constant Matrix: (Units=GPa)
#
#
# Indices 1 2 3 4 5 6 
#
# 1 107.1179 46.2568 51.9302 0.0000 0.0000 0.0000
# 2 46.2568 90.5938 38.0821 0.0000 0.0000 0.0000
# 3 51.9302 38.0821 108.9600 0.0000 0.0000 0.0000
# 4 0.0000 0.0000 0.0000 23.7682 0.0000 0.0000
# 5 0.0000 0.0000 0.0000 0.0000 13.7969 0.0000
# 6 0.0000 0.0000 0.0000 0.0000 0.0000 46.5546
#
#
#
# Elastic Compliance Matrix: (Units=1/GPa)
#
#
# Indices 1 2 3 4 5 6 
#
# 1 0.013861 -0.005041 -0.004844 0.000000 0.000000 0.000000
# 2 -0.005041 0.014773 -0.002761 0.000000 0.000000 0.000000
# 3 -0.004844 -0.002761 0.012451 0.000000 0.000000 0.000000
# 4 0.000000 0.000000 0.000000 0.042073 0.000000 0.000000
# 5 0.000000 0.000000 0.000000 0.000000 0.072480 0.000000
# 6 0.000000 0.000000 0.000000 0.000000 0.000000 0.021480
#
#
# Mechanical properties :
#
#
# Convention : Reuss Voigt Hill
#
# Bulk Modulus (GPa) = 63.31846 64.35666 63.83756
# Shear Modulus (GPa) = 24.07625 28.18412 26.13019
#
# Velocity S-wave (km/s) = 3.43498 3.71648 3.57850
# Velocity P-wave (km/s) = 6.83833 7.06793 6.95408
#
# Compressibility (1/GPa) = 0.01579318
#
# Stress axis : x y z
#
# Youngs Moduli (GPa) = 72.14601 67.69279 80.31316
#
# Poissons Ratio (x) = 0.34124 0.38905
# Poissons Ratio (y) = 0.36368 0.22171
# Poissons Ratio (z) = 0.34949 0.18687
#
# Static dielectric constant tensor:
#      x y z
#    x 1.796060 0.000000 0.000000 
#    y 0.000000 1.811880 0.000000 
#    z 0.000000 0.000000 1.699760 
# 
# From -- ./inp_files/21721.got.cif
#   From: 2010.05.17/outbox.cif.g08.bks.cpg/sg43_11_cif.got.tgz:21721.got - 2010.06.03 19:21:55.
