data_PCOD9372653
_publ_section_title
;
Structure prediction by ZEFSAII (Michael W. Deem and Ramdas Pophale) SiO2 
 PCOD9372653
Probable space group: F D D 2
;
_chemical_formula_sum "Si O2"
_cell_formula_units_Z 104
_cell_length_a 16.984141
_cell_length_b 26.355253
_cell_length_c 9.299138
_cell_angle_alpha 90.000000
_cell_angle_beta 90.000000
_cell_angle_gamma 90.000000
_cell_volume 4162.492548
_symmetry_space_group_name_H-M "F D D 2"
_symmetry_group_IT_number 43
_symmetry_cell_setting 'orthorhombic'
loop_
_space_group_symop_operation_xyz
x,y,z
-x,-y,z
1/4-x,1/4+y,1/4+z
1/4+x,1/4-y,1/4+z
x,1/2+y,1/2+z
-x,1/2-y,1/2+z
1/4-x,3/4+y,3/4+z
1/4+x,3/4-y,3/4+z
1/2+x,y,1/2+z
1/2-x,-y,1/2+z
3/4-x,1/4+y,3/4+z
3/4+x,1/4-y,3/4+z
1/2+x,1/2+y,z
1/2-x,1/2-y,z
3/4-x,3/4+y,1/4+z
3/4+x,3/4-y,1/4+z
loop_
_atom_site_type_symbol
_atom_site_label
_atom_site_fract_x
_atom_site_fract_y
_atom_site_fract_z
Si Si1 0.249612 0.488492 0.321680
Si Si2 0.852575 0.174527 0.168061
Si Si3 0.750000 0.750000 0.110837
Si Si4 0.018968 0.100924 0.932588
Si Si5 0.163996 0.902860 0.951201
Si Si6 0.078452 0.655798 0.156862
Si Si7 0.392168 0.020376 0.110910
O O1 0.327577 0.452573 0.326662
O O2 0.200012 0.459427 0.448782
O O3 0.276933 0.546322 0.349633
O O4 0.195739 0.487673 0.178027
O O5 0.865054 0.129904 0.285803
O O6 0.829355 0.221243 0.272091
O O7 0.802390 0.141895 0.053171
O O8 0.807595 0.778251 0.002448
O O9 0.702725 0.792827 0.192145
O O10 0.928538 0.097954 0.982152
O O11 0.030045 0.123132 0.773390
O O12 0.068508 0.134418 0.040641
O O13 0.144502 0.683048 0.253089
#
# Coordination Sequence:
#
# PCOD9372653 Si02
#       7
#    16  16   8  16  16  16  16
#     4  11  25  46  75 108 153 202 265 318 409 480
#     4  11  26  46  73 111 149 202 262 330 390 482
#     4  12  24  44  70 106 140 196 248 316 378 482
#     4  12  25  46  73 104 149 201 253 320 392 484
#     4  12  25  47  70 109 155 199 259 325 401 475
#     4  11  25  44  78 106 145 205 258 324 393 481
#     4  11  24  47  71 110 149 198 261 320 402 482
#
# _framework density 24.985029999999998
#
# number of rings (size 3 to 8) (size 9 to 14) (size 15 to 20)
#    0.000    0.615    6.154    0.000    6.462    2.462 
#    5.538    0.000    0.000    0.000    0.000    0.000 
#    0.000    0.000    0.000    0.000    0.000    0.000 
#
# Total GULP energy -145117.705429 kJ/mol
# GULP energy per Si atom -5581.450209 kJ/mol
# Density = 2.492816 g / cm^3
# Si number density = 24.985030 Si / 1000 Ang^3
#
#
#
# Elastic Constant Matrix: (Units=GPa)
#
#
# Indices 1 2 3 4 5 6 
#
# 1 60.3703 25.8267 14.3931 0.0000 0.0000 0.0000
# 2 25.8267 185.4501 35.0440 0.0000 0.0000 0.0000
# 3 14.3931 35.0440 83.4083 0.0000 0.0000 0.0000
# 4 0.0000 0.0000 0.0000 58.6706 0.0000 0.0000
# 5 0.0000 0.0000 0.0000 0.0000 23.3315 0.0000
# 6 0.0000 0.0000 0.0000 0.0000 0.0000 22.1065
#
#
#
# Elastic Compliance Matrix: (Units=1/GPa)
#
#
# Indices 1 2 3 4 5 6 
#
# 1 0.017987 -0.002084 -0.002228 0.000000 0.000000 0.000000
# 2 -0.002084 0.006099 -0.002203 0.000000 0.000000 0.000000
# 3 -0.002228 -0.002203 0.013299 0.000000 0.000000 0.000000
# 4 0.000000 0.000000 0.000000 0.017044 0.000000 0.000000
# 5 0.000000 0.000000 0.000000 0.000000 0.042861 0.000000
# 6 0.000000 0.000000 0.000000 0.000000 0.000000 0.045235
#
#
# Mechanical properties :
#
#
# Convention : Reuss Voigt Hill
#
# Bulk Modulus (GPa) = 41.05913 53.30625 47.18269
# Shear Modulus (GPa) = 30.54852 37.75272 34.15062
#
# Velocity S-wave (km/s) = 3.50047 3.89139 3.70110
# Velocity P-wave (km/s) = 5.72773 6.44765 6.09832
#
# Compressibility (1/GPa) = 0.02435512
#
# Stress axis : x y z
#
# Youngs Moduli (GPa) = 55.59510 163.96787 75.19222
#
# Poissons Ratio (x) = 0.34169 0.16755
# Poissons Ratio (y) = 0.11585 0.16563
# Poissons Ratio (z) = 0.12389 0.36119
#
# Static dielectric constant tensor:
#      x y z
#    x 2.075880 0.000000 0.000000 
#    y 0.000000 2.060410 0.000000 
#    z 0.000000 0.000000 1.973640 
# 
# From -- ./inp_files/3856.got.cif
#   From: 2010.05.17/outbox.cif.g08.bks.cpg/sg43_2_cif.got.tgz:3856.got - 2010.06.03 19:21:55.
