data_PCOD9372524
_publ_section_title
;
Structure prediction by ZEFSAII (Michael W. Deem and Ramdas Pophale) SiO2 
 PCOD9372524
Probable space group: F D D 2
;
_chemical_formula_sum "Si O2"
_cell_formula_units_Z 120
_cell_length_a 21.523842
_cell_length_b 9.944111
_cell_length_c 23.550710
_cell_angle_alpha 90.000000
_cell_angle_beta 90.000000
_cell_angle_gamma 90.000000
_cell_volume 5040.687378
_symmetry_space_group_name_H-M "F D D 2"
_symmetry_group_IT_number 43
_symmetry_cell_setting 'orthorhombic'
loop_
_space_group_symop_operation_xyz
x,y,z
-x,-y,z
1/4-x,1/4+y,1/4+z
1/4+x,1/4-y,1/4+z
x,1/2+y,1/2+z
-x,1/2-y,1/2+z
1/4-x,3/4+y,3/4+z
1/4+x,3/4-y,3/4+z
1/2+x,y,1/2+z
1/2-x,-y,1/2+z
3/4-x,1/4+y,3/4+z
3/4+x,1/4-y,3/4+z
1/2+x,1/2+y,z
1/2-x,1/2-y,z
3/4-x,3/4+y,1/4+z
3/4+x,3/4-y,1/4+z
loop_
_atom_site_type_symbol
_atom_site_label
_atom_site_fract_x
_atom_site_fract_y
_atom_site_fract_z
Si Si1 0.677727 0.016905 0.251510
Si Si2 0.500000 0.000000 0.315834
Si Si3 0.233662 0.044492 0.152095
Si Si4 0.933765 0.451210 0.834659
Si Si5 0.633922 0.296377 0.971214
Si Si6 0.105308 0.234051 0.685690
Si Si7 0.077686 0.828808 0.725355
Si Si8 0.015368 0.357813 0.114829
O O1 0.626271 0.134144 0.236963
O O2 0.706399 0.022592 0.314007
O O3 0.729560 0.025903 0.202907
O O4 0.645958 0.872130 0.243983
O O5 0.524960 0.107700 0.362712
O O6 0.462905 0.094908 0.272477
O O7 0.174112 0.102340 0.185781
O O8 0.200219 0.944176 0.108447
O O9 0.878903 0.460419 0.789219
O O10 0.909981 0.530599 0.889233
O O11 0.000000 0.500000 0.811111
O O12 0.647556 0.142671 0.952675
O O13 0.683090 0.419485 0.968096
O O14 0.042295 0.196569 0.652271
O O15 0.065634 0.888803 0.663445
O O16 0.000000 0.500000 0.086341
#
# Coordination Sequence:
#
# PCOD9372524 Si02
#       8
#    16   8  16  16  16  16  16  16
#     4  12  27  46  83 108 154 208 263 324 399 467
#     4  12  24  48  78 106 162 202 262 324 394 480
#     4  11  25  46  75 111 149 198 258 320 391 473
#     4  11  23  42  71 105 146 190 251 306 381 465
#     4  11  27  45  74 110 157 195 254 323 397 471
#     4  11  26  47  74 115 151 205 258 327 402 467
#     4  12  27  49  72 116 148 210 258 321 401 473
#     4  12  28  49  76 114 160 202 274 333 392 489
#
# _framework density 23.806277999999999
#
# number of rings (size 3 to 8) (size 9 to 14) (size 15 to 20)
#    0.000    0.533    4.667    1.600   11.200    1.067 
#    0.000    2.667    0.000    0.000    0.000    0.000 
#    0.000    0.000    0.000    0.000    0.000    0.000 
#
# Total GULP energy -167237.531577 kJ/mol
# GULP energy per Si atom -5574.584386 kJ/mol
# Density = 2.375209 g / cm^3
# Si number density = 23.806278 Si / 1000 Ang^3
#
#
#
# Elastic Constant Matrix: (Units=GPa)
#
#
# Indices 1 2 3 4 5 6 
#
# 1 69.8630 36.5322 44.7868 0.0000 0.0000 0.0000
# 2 36.5322 100.5919 39.6927 0.0000 0.0000 0.0000
# 3 44.7868 39.6927 151.2715 0.0000 0.0000 0.0000
# 4 0.0000 0.0000 0.0000 107.2640 0.0000 0.0000
# 5 0.0000 0.0000 0.0000 0.0000 29.4911 0.0000
# 6 0.0000 0.0000 0.0000 0.0000 0.0000 22.0822
#
#
#
# Elastic Compliance Matrix: (Units=1/GPa)
#
#
# Indices 1 2 3 4 5 6 
#
# 1 0.020083 -0.005519 -0.004498 0.000000 0.000000 0.000000
# 2 -0.005519 0.012606 -0.001674 0.000000 0.000000 0.000000
# 3 -0.004498 -0.001674 0.008381 0.000000 0.000000 0.000000
# 4 0.000000 0.000000 0.000000 0.009323 0.000000 0.000000
# 5 0.000000 0.000000 0.000000 0.000000 0.033909 0.000000
# 6 0.000000 0.000000 0.000000 0.000000 0.000000 0.045285
#
#
# Mechanical properties :
#
#
# Convention : Reuss Voigt Hill
#
# Bulk Modulus (GPa) = 56.53053 62.63888 59.58470
# Shear Modulus (GPa) = 31.47338 45.14842 38.31090
#
# Velocity S-wave (km/s) = 3.63996 4.35960 4.01593
# Velocity P-wave (km/s) = 6.43921 7.19100 6.82546
#
# Compressibility (1/GPa) = 0.01768956
#
# Stress axis : x y z
#
# Youngs Moduli (GPa) = 49.79342 79.32804 119.31050
#
# Poissons Ratio (x) = 0.43779 0.53664
# Poissons Ratio (y) = 0.27480 0.19970
# Poissons Ratio (z) = 0.22396 0.13278
#
# Static dielectric constant tensor:
#      x y z
#    x 1.988490 0.000000 0.000000 
#    y 0.000000 1.992050 0.000000 
#    z 0.000000 0.000000 1.917380 
# 
# From -- ./inp_files/18673.got.cif
#   From: 2010.05.17/outbox.cif.g08.bks.cpg/sg43_10_cif.got.tgz:18673.got - 2010.06.03 19:21:55.
