data_PCOD9372497
_publ_section_title
;
Structure prediction by ZEFSAII (Michael W. Deem and Ramdas Pophale) SiO2 
 PCOD9372497
Probable space group: F D D 2
;
_chemical_formula_sum "Si O2"
_cell_formula_units_Z 112
_cell_length_a 10.799628
_cell_length_b 30.706142
_cell_length_c 14.932089
_cell_angle_alpha 90.000000
_cell_angle_beta 90.000000
_cell_angle_gamma 90.000000
_cell_volume 4951.703364
_symmetry_space_group_name_H-M "F D D 2"
_symmetry_group_IT_number 43
_symmetry_cell_setting 'orthorhombic'
loop_
_space_group_symop_operation_xyz
x,y,z
-x,-y,z
1/4-x,1/4+y,1/4+z
1/4+x,1/4-y,1/4+z
x,1/2+y,1/2+z
-x,1/2-y,1/2+z
1/4-x,3/4+y,3/4+z
1/4+x,3/4-y,3/4+z
1/2+x,y,1/2+z
1/2-x,-y,1/2+z
3/4-x,1/4+y,3/4+z
3/4+x,1/4-y,3/4+z
1/2+x,1/2+y,z
1/2-x,1/2-y,z
3/4-x,3/4+y,1/4+z
3/4+x,3/4-y,1/4+z
loop_
_atom_site_type_symbol
_atom_site_label
_atom_site_fract_x
_atom_site_fract_y
_atom_site_fract_z
Si Si1 0.128046 0.159939 0.028920
Si Si2 0.977745 0.232386 0.931613
Si Si3 0.420260 0.325752 0.503126
Si Si4 0.875735 0.228103 0.269727
Si Si5 0.611433 0.965491 0.452015
Si Si6 0.766728 0.176180 0.859421
Si Si7 0.346969 0.645304 0.389162
O O1 0.165972 0.183254 0.120613
O O2 0.081703 0.112696 0.057396
O O3 0.235893 0.156685 0.956199
O O4 0.023691 0.191109 0.987386
O O5 0.861142 0.215362 0.875708
O O6 0.082512 0.246722 0.860734
O O7 0.943811 0.274136 0.991874
O O8 0.290878 0.336575 0.454401
O O9 0.528832 0.348323 0.445879
O O10 0.419169 0.346938 0.600346
O O11 0.750000 0.250000 0.234511
O O12 0.850231 0.179089 0.305531
O O13 0.995053 0.230285 0.204365
O O14 0.595321 0.941585 0.547011
O O15 0.500000 0.000000 0.446441
#
# Coordination Sequence:
#
# PCOD9372497 Si02
#       7
#    16  16  16  16  16  16  16
#     4  12  29  42  74 110 152 196 255 314 383 464
#     4  11  24  47  74 108 147 205 246 316 374 453
#     4  11  26  48  74 102 148 196 254 310 385 453
#     4  11  22  47  75 104 152 197 252 311 387 446
#     4  12  25  46  76 109 144 199 255 312 378 466
#     4  12  24  48  74 109 148 197 255 312 384 450
#     4  11  26  45  73 106 144 200 243 319 380 451
#
# _framework density 22.618479000000001
#
# number of rings (size 3 to 8) (size 9 to 14) (size 15 to 20)
#    0.000    0.571    5.714    2.143   10.000    0.000 
#    2.571    0.000    0.000    0.000    0.000    0.000 
#    0.000    0.000    0.000    0.000    0.000    0.000 
#
# Total GULP energy -156707.151209 kJ/mol
# GULP energy per Si atom -5596.683972 kJ/mol
# Density = 2.256700 g / cm^3
# Si number density = 22.618479 Si / 1000 Ang^3
#
#
#
# Elastic Constant Matrix: (Units=GPa)
#
#
# Indices 1 2 3 4 5 6 
#
# 1 132.2417 63.1638 30.0424 0.0000 0.0000 0.0000
# 2 63.1638 120.7803 40.2970 0.0000 0.0000 0.0000
# 3 30.0424 40.2970 68.5533 0.0000 0.0000 0.0000
# 4 0.0000 0.0000 0.0000 54.1008 0.0000 0.0000
# 5 0.0000 0.0000 0.0000 0.0000 2.6856 0.0000
# 6 0.0000 0.0000 0.0000 0.0000 0.0000 7.5660
#
#
#
# Elastic Compliance Matrix: (Units=1/GPa)
#
#
# Indices 1 2 3 4 5 6 
#
# 1 0.010230 -0.004795 -0.001665 0.000000 0.000000 0.000000
# 2 -0.004795 0.012546 -0.005274 0.000000 0.000000 0.000000
# 3 -0.001665 -0.005274 0.018417 0.000000 0.000000 0.000000
# 4 0.000000 0.000000 0.000000 0.018484 0.000000 0.000000
# 5 0.000000 0.000000 0.000000 0.000000 0.372357 0.000000
# 6 0.000000 0.000000 0.000000 0.000000 0.000000 0.132171
#
#
# Mechanical properties :
#
#
# Convention : Reuss Voigt Hill
#
# Bulk Modulus (GPa) = 56.41163 65.39798 60.90480
# Shear Modulus (GPa) = 8.42345 25.40860 16.91603
#
# Velocity S-wave (km/s) = 1.93190 3.35529 2.73772
# Velocity P-wave (km/s) = 5.47457 6.63226 6.08103
#
# Compressibility (1/GPa) = 0.01772684
#
# Stress axis : x y z
#
# Youngs Moduli (GPa) = 97.74972 79.70365 54.29790
#
# Poissons Ratio (x) = 0.38214 0.09040
# Poissons Ratio (y) = 0.46867 0.28636
# Poissons Ratio (z) = 0.16274 0.42035
#
# Static dielectric constant tensor:
#      x y z
#    x 1.852020 0.000000 0.000000 
#    y 0.000000 1.833470 0.000000 
#    z 0.000000 0.000000 1.844980 
# 
# From -- ./inp_files/9773.got.cif
#   From: 2010.05.17/outbox.cif.g08.bks.cpg/sg43_5_cif.got.tgz:9773.got - 2010.06.03 19:21:55.
