data_PCOD9372443
_publ_section_title
;
Structure prediction by ZEFSAII (Michael W. Deem and Ramdas Pophale) SiO2 
 PCOD9372443
Probable space group: F D D 2
;
_chemical_formula_sum "Si O2"
_cell_formula_units_Z 120
_cell_length_a 24.325652
_cell_length_b 19.794474
_cell_length_c 10.912460
_cell_angle_alpha 90.000000
_cell_angle_beta 90.000000
_cell_angle_gamma 90.000000
_cell_volume 5254.496656
_symmetry_space_group_name_H-M "F D D 2"
_symmetry_group_IT_number 43
_symmetry_cell_setting 'orthorhombic'
loop_
_space_group_symop_operation_xyz
x,y,z
-x,-y,z
1/4-x,1/4+y,1/4+z
1/4+x,1/4-y,1/4+z
x,1/2+y,1/2+z
-x,1/2-y,1/2+z
1/4-x,3/4+y,3/4+z
1/4+x,3/4-y,3/4+z
1/2+x,y,1/2+z
1/2-x,-y,1/2+z
3/4-x,1/4+y,3/4+z
3/4+x,1/4-y,3/4+z
1/2+x,1/2+y,z
1/2-x,1/2-y,z
3/4-x,3/4+y,1/4+z
3/4+x,3/4-y,1/4+z
loop_
_atom_site_type_symbol
_atom_site_label
_atom_site_fract_x
_atom_site_fract_y
_atom_site_fract_z
Si Si1 0.866241 0.297448 0.616640
Si Si2 0.327810 0.875795 0.811814
Si Si3 0.011588 0.872778 0.469177
Si Si4 0.876807 0.136677 0.621595
Si Si5 0.500000 0.000000 0.796301
Si Si6 0.013139 0.195335 0.225714
Si Si7 0.869311 0.765113 0.486652
Si Si8 0.194899 0.424018 0.928893
O O1 0.817223 0.325174 0.701233
O O2 0.866367 0.216690 0.632405
O O3 0.862659 0.337642 0.487985
O O4 0.926076 0.316693 0.674636
O O5 0.279047 0.897241 0.901783
O O6 0.348203 0.943620 0.739519
O O7 0.370056 0.831323 0.897601
O O8 0.070758 0.865806 0.530601
O O9 0.995681 0.813907 0.371975
O O10 0.968069 0.877190 0.578671
O O11 0.008138 0.937022 0.384105
O O12 0.823487 0.106777 0.554971
O O13 0.443725 0.992720 0.724353
O O14 0.992192 0.270246 0.193600
O O15 0.890966 0.792547 0.617159
#
# Coordination Sequence:
#
# PCOD9372443 Si02
#       8
#    16  16  16  16   8  16  16  16
#     4  12  27  48  73 106 155 197 248 311 388 458
#     4  11  24  44  71 103 141 189 248 301 370 443
#     4  12  25  44  73 104 139 188 249 299 377 447
#     4  12  27  49  71 109 153 201 246 318 381 468
#     4  12  22  36  70 104 138 170 240 306 358 426
#     4  11  24  47  76 105 141 198 250 302 377 466
#     4  11  22  41  69 105 135 183 238 316 361 438
#     4  11  24  43  73 100 144 190 242 300 371 451
#
# _framework density 22.837582999999999
#
# number of rings (size 3 to 8) (size 9 to 14) (size 15 to 20)
#    0.000    0.533    4.000    4.000    1.867    4.267 
#    0.000    1.333    0.000    0.000    0.000    0.000 
#    0.000    0.000    0.000    0.000    0.000    0.000 
#
# Total GULP energy -167349.727241 kJ/mol
# GULP energy per Si atom -5578.324241 kJ/mol
# Density = 2.278560 g / cm^3
# Si number density = 22.837583 Si / 1000 Ang^3
#
#
#
# Elastic Constant Matrix: (Units=GPa)
#
#
# Indices 1 2 3 4 5 6 
#
# 1 63.3934 1.5198 2.4560 0.0000 0.0000 0.0000
# 2 1.5198 97.4386 6.5789 0.0000 0.0000 0.0000
# 3 2.4560 6.5789 74.3654 0.0000 0.0000 0.0000
# 4 0.0000 0.0000 0.0000 30.5481 0.0000 0.0000
# 5 0.0000 0.0000 0.0000 0.0000 35.0319 0.0000
# 6 0.0000 0.0000 0.0000 0.0000 0.0000 13.6581
#
#
#
# Elastic Compliance Matrix: (Units=1/GPa)
#
#
# Indices 1 2 3 4 5 6 
#
# 1 0.015799 -0.000212 -0.000503 0.000000 0.000000 0.000000
# 2 -0.000212 0.010327 -0.000907 0.000000 0.000000 0.000000
# 3 -0.000503 -0.000907 0.013544 0.000000 0.000000 0.000000
# 4 0.000000 0.000000 0.000000 0.032735 0.000000 0.000000
# 5 0.000000 0.000000 0.000000 0.000000 0.028545 0.000000
# 6 0.000000 0.000000 0.000000 0.000000 0.000000 0.073216
#
#
# Mechanical properties :
#
#
# Convention : Reuss Voigt Hill
#
# Bulk Modulus (GPa) = 27.45271 28.47854 27.96563
# Shear Modulus (GPa) = 26.37774 30.82381 28.60077
#
# Velocity S-wave (km/s) = 3.40224 3.67781 3.54270
# Velocity P-wave (km/s) = 5.24219 5.52559 5.38575
#
# Compressibility (1/GPa) = 0.03642627
#
# Stress axis : x y z
#
# Youngs Moduli (GPa) = 63.29482 96.82976 73.83378
#
# Poissons Ratio (x) = 0.02057 0.03714
# Poissons Ratio (y) = 0.01345 0.06694
# Poissons Ratio (z) = 0.03184 0.08779
#
# Static dielectric constant tensor:
#      x y z
#    x 1.882050 0.000000 0.000000 
#    y 0.000000 1.945340 0.000000 
#    z 0.000000 0.000000 1.872390 
# 
# From -- ./inp_files/8042.got.cif
#   From: 2010.05.17/outbox.cif.g08.bks.cpg/sg43_5_cif.got.tgz:8042.got - 2010.06.03 19:21:55.
