data_PCOD9372422
_publ_section_title
;
Structure prediction by ZEFSAII (Michael W. Deem and Ramdas Pophale) SiO2 
 PCOD9372422
Probable space group: F D D 2
;
_chemical_formula_sum "Si O2"
_cell_formula_units_Z 64
_cell_length_a 34.053868
_cell_length_b 14.642689
_cell_length_c 4.950523
_cell_angle_alpha 90.000000
_cell_angle_beta 90.000000
_cell_angle_gamma 90.000000
_cell_volume 2468.529771
_symmetry_space_group_name_H-M "F D D 2"
_symmetry_group_IT_number 43
_symmetry_cell_setting 'orthorhombic'
loop_
_space_group_symop_operation_xyz
x,y,z
-x,-y,z
1/4-x,1/4+y,1/4+z
1/4+x,1/4-y,1/4+z
x,1/2+y,1/2+z
-x,1/2-y,1/2+z
1/4-x,3/4+y,3/4+z
1/4+x,3/4-y,3/4+z
1/2+x,y,1/2+z
1/2-x,-y,1/2+z
3/4-x,1/4+y,3/4+z
3/4+x,1/4-y,3/4+z
1/2+x,1/2+y,z
1/2-x,1/2-y,z
3/4-x,3/4+y,1/4+z
3/4+x,3/4-y,1/4+z
loop_
_atom_site_type_symbol
_atom_site_label
_atom_site_fract_x
_atom_site_fract_y
_atom_site_fract_z
Si Si1 0.916011 0.958179 0.104160
Si Si2 0.207643 0.575233 0.291635
Si Si3 0.502548 0.124623 0.548703
Si Si4 0.379189 0.270174 0.905629
O O1 0.962322 0.941813 0.136341
O O2 0.890555 0.984333 0.373934
O O3 0.904829 0.030529 0.876667
O O4 0.903356 0.864469 0.941156
O O5 0.227660 0.475393 0.312572
O O6 0.232195 0.633340 0.509066
O O7 0.161577 0.552322 0.270644
O O8 0.217569 0.619681 0.008756
#
# Coordination Sequence:
#
# PCOD9372422 Si02
#       4
#    16  16  16  16
#     4  11  22  37  59  87 119 154 195 248 305 364
#     4   9  17  31  53  80 108 143 192 242 284 339
#     4   9  17  31  53  80 108 143 192 242 284 339
#     4  11  22  37  59  87 119 154 195 248 305 364
#
# _framework density 25.926362000000001
#
# number of rings (size 3 to 8) (size 9 to 14) (size 15 to 20)
#    0.000    2.000    0.000    4.500    0.000    8.000 
#    0.000    0.000    0.000   22.500    0.000    0.000 
#    0.000    0.000    0.000    0.000    0.000    0.000 
#
# Total GULP energy -89273.742267 kJ/mol
# GULP energy per Si atom -5579.608892 kJ/mol
# Density = 2.586735 g / cm^3
# Si number density = 25.926362 Si / 1000 Ang^3
#
#
#
# Elastic Constant Matrix: (Units=GPa)
#
#
# Indices 1 2 3 4 5 6 
#
# 1 160.5544 21.6231 17.1933 -0.0001 0.0002 0.0001
# 2 21.6231 92.6179 5.8231 0.0001 0.0001 0.0001
# 3 17.1933 5.8231 124.9293 0.0006 0.0004 0.0002
# 4 -0.0001 0.0001 0.0006 21.1668 0.0002 0.0002
# 5 0.0002 0.0001 0.0004 0.0002 39.4705 0.0000
# 6 0.0001 0.0001 0.0002 0.0002 0.0000 47.5447
#
#
#
# Elastic Compliance Matrix: (Units=1/GPa)
#
#
# Indices 1 2 3 4 5 6 
#
# 1 0.006515 -0.001469 -0.000828 0.000000 0.000000 0.000000
# 2 -0.001469 0.011160 -0.000318 0.000000 0.000000 0.000000
# 3 -0.000828 -0.000318 0.008133 0.000000 0.000000 0.000000
# 4 0.000000 0.000000 0.000000 0.047244 0.000000 0.000000
# 5 0.000000 0.000000 0.000000 0.000000 0.025335 0.000000
# 6 0.000000 0.000000 0.000000 0.000000 0.000000 0.021033
#
#
# Mechanical properties :
#
#
# Convention : Reuss Voigt Hill
#
# Bulk Modulus (GPa) = 48.59550 51.93117 50.26334
# Shear Modulus (GPa) = 38.01999 43.86721 40.94360
#
# Velocity S-wave (km/s) = 3.83359 4.11785 3.97826
# Velocity P-wave (km/s) = 6.19513 6.53319 6.36641
#
# Compressibility (1/GPa) = 0.02057804
#
# Stress axis : x y z
#
# Youngs Moduli (GPa) = 153.49347 89.60576 122.95099
#
# Poissons Ratio (x) = 0.13163 0.10182
# Poissons Ratio (y) = 0.22547 0.03910
# Poissons Ratio (z) = 0.12711 0.02850
#
# Static dielectric constant tensor:
#      x y z
#    x 2.011750 0.000000 0.000000 
#    y 0.000000 2.242810 0.000000 
#    z 0.000000 0.000000 1.965830 
# 
# From -- ./inp_files/1322.got.cif
#   From: 2010.05.17/outbox.cif.g08.bks.cpg/sg43_1_cif.got.tgz:1322.got - 2010.06.03 19:21:55.
