data_PCOD9372052
_publ_section_title
;
Structure prediction by ZEFSAII (Michael W. Deem and Ramdas Pophale) SiO2 
 PCOD9372052
Probable space group: F D D 2
;
_chemical_formula_sum "Si O2"
_cell_formula_units_Z 96
_cell_length_a 15.050999
_cell_length_b 21.516462
_cell_length_c 14.376616
_cell_angle_alpha 90.000000
_cell_angle_beta 90.000000
_cell_angle_gamma 90.000000
_cell_volume 4655.784398
_symmetry_space_group_name_H-M "F D D 2"
_symmetry_group_IT_number 43
_symmetry_cell_setting 'orthorhombic'
loop_
_space_group_symop_operation_xyz
x,y,z
-x,-y,z
1/4-x,1/4+y,1/4+z
1/4+x,1/4-y,1/4+z
x,1/2+y,1/2+z
-x,1/2-y,1/2+z
1/4-x,3/4+y,3/4+z
1/4+x,3/4-y,3/4+z
1/2+x,y,1/2+z
1/2-x,-y,1/2+z
3/4-x,1/4+y,3/4+z
3/4+x,1/4-y,3/4+z
1/2+x,1/2+y,z
1/2-x,1/2-y,z
3/4-x,3/4+y,1/4+z
3/4+x,3/4-y,1/4+z
loop_
_atom_site_type_symbol
_atom_site_label
_atom_site_fract_x
_atom_site_fract_y
_atom_site_fract_z
Si Si1 0.988553 0.396914 0.422160
Si Si2 0.422905 0.261911 0.898745
Si Si3 0.000000 0.500000 0.568014
Si Si4 0.810380 0.406377 0.009328
Si Si5 0.500000 0.000000 0.268951
Si Si6 0.628487 0.342065 0.057446
Si Si7 0.389414 0.283346 0.475628
O O1 0.930460 0.336856 0.395744
O O2 0.007843 0.439624 0.334187
O O3 0.958232 0.446259 0.502173
O O4 0.076689 0.368069 0.468012
O O5 0.419404 0.223119 0.803032
O O6 0.511017 0.236464 0.950637
O O7 0.336877 0.244687 0.957021
O O8 0.077047 0.471716 0.633225
O O9 0.813820 0.409044 0.897036
O O10 0.881453 0.350625 0.022521
O O11 0.719849 0.380765 0.056197
O O12 0.649738 0.270386 0.040176
#
# Coordination Sequence:
#
# PCOD9372052 Si02
#       7
#    16  16   8  16   8  16  16
#     4  10  24  43  73  98 134 180 238 294 352 418
#     4  11  27  44  66 101 142 191 234 285 360 433
#     4  11  18  42  73 104 136 166 235 304 342 421
#     4  12  22  44  67 104 145 181 235 286 361 434
#     4  11  28  48  65  98 142 190 237 288 360 423
#     4  11  22  39  71 103 136 179 234 300 351 421
#     4  11  22  39  69 105 134 177 233 287 361 411
#
# _framework density 20.619510999999999
#
# number of rings (size 3 to 8) (size 9 to 14) (size 15 to 20)
#    0.000    1.000    5.000    0.000    9.333    2.667 
#    3.000    0.000    0.000    0.000    0.000    0.000 
#    0.000    0.000    0.000    0.000    0.000    0.000 
#
# Total GULP energy -133835.529850 kJ/mol
# GULP energy per Si atom -5576.480410 kJ/mol
# Density = 2.057258 g / cm^3
# Si number density = 20.619511 Si / 1000 Ang^3
#
#
#
# Elastic Constant Matrix: (Units=GPa)
#
#
# Indices 1 2 3 4 5 6 
#
# 1 98.0969 16.6486 38.7975 0.0000 0.0000 0.0000
# 2 16.6486 142.7941 35.8502 0.0000 0.0000 0.0000
# 3 38.7975 35.8502 65.4584 0.0000 0.0000 0.0000
# 4 0.0000 0.0000 0.0000 32.7279 0.0000 0.0000
# 5 0.0000 0.0000 0.0000 0.0000 27.2878 0.0000
# 6 0.0000 0.0000 0.0000 0.0000 0.0000 23.5206
#
#
#
# Elastic Compliance Matrix: (Units=1/GPa)
#
#
# Indices 1 2 3 4 5 6 
#
# 1 0.013346 0.000498 -0.008183 0.000000 0.000000 0.000000
# 2 0.000498 0.008138 -0.004753 0.000000 0.000000 0.000000
# 3 -0.008183 -0.004753 0.022730 0.000000 0.000000 0.000000
# 4 0.000000 0.000000 0.000000 0.030555 0.000000 0.000000
# 5 0.000000 0.000000 0.000000 0.000000 0.036646 0.000000
# 6 0.000000 0.000000 0.000000 0.000000 0.000000 0.042516
#
#
# Mechanical properties :
#
#
# Convention : Reuss Voigt Hill
#
# Bulk Modulus (GPa) = 51.70766 54.32689 53.01727
# Shear Modulus (GPa) = 26.99025 31.04414 29.01719
#
# Velocity S-wave (km/s) = 3.62189 3.88438 3.75543
# Velocity P-wave (km/s) = 6.52857 6.82073 6.67625
#
# Compressibility (1/GPa) = 0.01933950
#
# Stress axis : x y z
#
# Youngs Moduli (GPa) = 74.92962 122.87804 43.99491
#
# Poissons Ratio (x) = -0.06125 0.36002
# Poissons Ratio (y) = -0.03735 0.20909
# Poissons Ratio (z) = 0.61316 0.58398
#
# Static dielectric constant tensor:
#      x y z
#    x 1.709920 0.000000 0.000000 
#    y 0.000000 1.823510 0.000000 
#    z 0.000000 0.000000 1.754120 
# 
# From -- ./inp_files/10162.got.cif
#   From: 2010.05.17/outbox.cif.g08.bks.cpg/sg43_6_cif.got.tgz:10162.got - 2010.06.03 19:21:55.
