data_PCOD9372224
_publ_section_title
;
Structure prediction by ZEFSAII (Michael W. Deem and Ramdas Pophale) SiO2 
 PCOD9372224
Probable space group: F D D 2
;
_chemical_formula_sum "Si O2"
_cell_formula_units_Z 64
_cell_length_a 25.617228
_cell_length_b 19.801677
_cell_length_c 4.902307
_cell_angle_alpha 90.000000
_cell_angle_beta 90.000000
_cell_angle_gamma 90.000000
_cell_volume 2486.764223
_symmetry_space_group_name_H-M "F D D 2"
_symmetry_group_IT_number 43
_symmetry_cell_setting 'orthorhombic'
loop_
_space_group_symop_operation_xyz
x,y,z
-x,-y,z
1/4-x,1/4+y,1/4+z
1/4+x,1/4-y,1/4+z
x,1/2+y,1/2+z
-x,1/2-y,1/2+z
1/4-x,3/4+y,3/4+z
1/4+x,3/4-y,3/4+z
1/2+x,y,1/2+z
1/2-x,-y,1/2+z
3/4-x,1/4+y,3/4+z
3/4+x,1/4-y,3/4+z
1/2+x,1/2+y,z
1/2-x,1/2-y,z
3/4-x,3/4+y,1/4+z
3/4+x,3/4-y,1/4+z
loop_
_atom_site_type_symbol
_atom_site_label
_atom_site_fract_x
_atom_site_fract_y
_atom_site_fract_z
Si Si1 0.760207 0.452895 0.437730
Si Si2 0.458336 0.903164 0.800679
Si Si3 0.428509 0.047644 0.697287
Si Si4 0.138697 0.138825 0.954642
O O1 0.738400 0.488209 0.708687
O O2 0.723528 0.395999 0.298169
O O3 0.817166 0.419763 0.490927
O O4 0.515037 0.917874 0.672618
O O5 0.416488 0.878575 0.581974
O O6 0.436514 0.978032 0.856518
O O7 0.406885 0.047996 0.393284
O O8 0.391920 0.093104 0.888000
#
# Coordination Sequence:
#
# PCOD9372224 Si02
#       4
#    16  16  16  16
#     4  11  25  47  75 109 152 189 241 309 366 434
#     4  10  25  49  75 102 152 188 244 306 356 441
#     4  10  25  47  73 106 140 195 246 297 365 431
#     4  11  25  46  73 109 139 196 243 290 375 427
#
# _framework density 25.736253999999999
#
# number of rings (size 3 to 8) (size 9 to 14) (size 15 to 20)
#    0.000    1.500    0.000    3.000    3.500   18.000 
#    4.500    0.000    0.000    0.000    0.000    0.000 
#    0.000    0.000    0.000    0.000    0.000    0.000 
#
# Total GULP energy -89560.457067 kJ/mol
# GULP energy per Si atom -5597.528567 kJ/mol
# Density = 2.567768 g / cm^3
# Si number density = 25.736254 Si / 1000 Ang^3
#
#
#
# Elastic Constant Matrix: (Units=GPa)
#
#
# Indices 1 2 3 4 5 6 
#
# 1 170.7436 64.9765 58.5319 -0.0020 -0.0014 0.0100
# 2 64.9765 107.5097 34.4312 -0.0032 0.0080 0.0344
# 3 58.5319 34.4312 141.3625 0.0233 -0.0050 0.0301
# 4 -0.0020 -0.0032 0.0233 44.8413 0.0002 0.0210
# 5 -0.0014 0.0080 -0.0050 0.0002 46.4599 -0.0226
# 6 0.0100 0.0344 0.0301 0.0210 -0.0226 7.6150
#
#
#
# Elastic Compliance Matrix: (Units=1/GPa)
#
#
# Indices 1 2 3 4 5 6 
#
# 1 0.008295 -0.004244 -0.002401 0.000001 0.000001 0.000018
# 2 -0.004244 0.012260 -0.001229 0.000001 -0.000002 -0.000045
# 3 -0.002401 -0.001229 0.008367 -0.000005 0.000001 -0.000024
# 4 0.000001 0.000001 -0.000005 0.022301 0.000000 -0.000061
# 5 0.000001 -0.000002 0.000001 0.000000 0.021524 0.000064
# 6 0.000018 -0.000045 -0.000024 -0.000061 0.000064 0.131320
#
#
# Mechanical properties :
#
#
# Convention : Reuss Voigt Hill
#
# Bulk Modulus (GPa) = 75.90325 81.72166 78.81245
# Shear Modulus (GPa) = 22.30084 37.22833 29.76458
#
# Velocity S-wave (km/s) = 2.94686 3.80746 3.40446
# Velocity P-wave (km/s) = 6.41369 7.15202 6.79289
#
# Compressibility (1/GPa) = 0.01317467
#
# Stress axis : x y z
#
# Youngs Moduli (GPa) = 120.55541 81.56434 119.51212
#
# Poissons Ratio (x) = 0.34619 0.28692
# Poissons Ratio (y) = 0.51169 0.14685
# Poissons Ratio (z) = 0.28943 0.10022
#
# Static dielectric constant tensor:
#      x y z
#    x 2.001290 0.000010 0.000010 
#    y 0.000010 2.093200 -0.000010 
#    z 0.000010 -0.000010 1.915020 
# 
# From -- ./inp_files/845.got.cif
#   From: 2010.05.17/outbox.cif.g08.bks.cpg/sg43_1_cif.got.tgz:845.got - 2010.06.03 19:21:55.
