data_PCOD9372323
_publ_section_title
;
Structure prediction by ZEFSAII (Michael W. Deem and Ramdas Pophale) SiO2 
 PCOD9372323
Probable space group: F D D 2
;
_chemical_formula_sum "Si O2"
_cell_formula_units_Z 88
_cell_length_a 11.744674
_cell_length_b 24.906882
_cell_length_c 14.546355
_cell_angle_alpha 90.000000
_cell_angle_beta 90.000000
_cell_angle_gamma 90.000000
_cell_volume 4255.146450
_symmetry_space_group_name_H-M "F D D 2"
_symmetry_group_IT_number 43
_symmetry_cell_setting 'orthorhombic'
loop_
_space_group_symop_operation_xyz
x,y,z
-x,-y,z
1/4-x,1/4+y,1/4+z
1/4+x,1/4-y,1/4+z
x,1/2+y,1/2+z
-x,1/2-y,1/2+z
1/4-x,3/4+y,3/4+z
1/4+x,3/4-y,3/4+z
1/2+x,y,1/2+z
1/2-x,-y,1/2+z
3/4-x,1/4+y,3/4+z
3/4+x,1/4-y,3/4+z
1/2+x,1/2+y,z
1/2-x,1/2-y,z
3/4-x,3/4+y,1/4+z
3/4+x,3/4-y,1/4+z
loop_
_atom_site_type_symbol
_atom_site_label
_atom_site_fract_x
_atom_site_fract_y
_atom_site_fract_z
Si Si1 0.551765 0.404581 0.392890
Si Si2 0.166534 0.299377 0.086795
Si Si3 0.212628 0.128000 0.942477
Si Si4 0.270350 0.039291 0.676009
Si Si5 0.000000 0.500000 0.758297
Si Si6 0.136864 0.718627 0.327632
O O1 0.676640 0.377785 0.374565
O O2 0.471730 0.353359 0.409927
O O3 0.499772 0.446425 0.321505
O O4 0.586685 0.440415 0.481372
O O5 0.250000 0.250000 0.103440
O O6 0.104509 0.322685 0.177438
O O7 0.237345 0.347292 0.035752
O O8 0.068639 0.284218 0.011906
O O9 0.127955 0.172737 0.903566
O O10 0.386387 0.009618 0.700332
O O11 0.214344 0.010398 0.588004
O O12 0.250000 0.750000 0.354641
#
# Coordination Sequence:
#
# PCOD9372323 Si02
#       6
#    16  16  16  16   8  16
#     4  11  22  37  66  92 117 160 216 246 297 369
#     4  11  20  35  63  94 119 155 207 258 298 355
#     4  11  19  35  62  94 117 151 208 255 292 356
#     4  11  23  38  62  92 127 161 205 250 310 365
#     4  12  24  40  62  92 130 162 196 258 310 362
#     4  12  19  35  65  94 114 151 208 263 294 348
#
# _framework density 20.68084
#
# number of rings (size 3 to 8) (size 9 to 14) (size 15 to 20)
#    0.000    0.727   11.818    0.000    0.000    0.000 
#    0.000    3.636    6.000    0.000    0.000    0.000 
#    0.000    0.000    0.000    0.000    0.000    0.000 
#
# Total GULP energy -122602.610662 kJ/mol
# GULP energy per Si atom -5572.845939 kJ/mol
# Density = 2.063377 g / cm^3
# Si number density = 20.680840 Si / 1000 Ang^3
#
#
#
# Elastic Constant Matrix: (Units=GPa)
#
#
# Indices 1 2 3 4 5 6 
#
# 1 100.8074 67.4712 31.8128 0.0000 0.0000 0.0000
# 2 67.4712 136.7462 35.3295 0.0000 0.0000 0.0000
# 3 31.8128 35.3295 43.4599 0.0000 0.0000 0.0000
# 4 0.0000 0.0000 0.0000 19.9491 0.0000 0.0000
# 5 0.0000 0.0000 0.0000 0.0000 13.5034 0.0000
# 6 0.0000 0.0000 0.0000 0.0000 0.0000 50.3172
#
#
#
# Elastic Compliance Matrix: (Units=1/GPa)
#
#
# Indices 1 2 3 4 5 6 
#
# 1 0.016262 -0.006264 -0.006812 0.000000 0.000000 0.000000
# 2 -0.006264 0.011670 -0.004901 0.000000 0.000000 0.000000
# 3 -0.006812 -0.004901 0.031981 0.000000 0.000000 0.000000
# 4 0.000000 0.000000 0.000000 0.050128 0.000000 0.000000
# 5 0.000000 0.000000 0.000000 0.000000 0.074056 0.000000
# 6 0.000000 0.000000 0.000000 0.000000 0.000000 0.019874
#
#
# Mechanical properties :
#
#
# Convention : Reuss Voigt Hill
#
# Bulk Modulus (GPa) = 41.73967 61.13784 51.43875
# Shear Modulus (GPa) = 20.16863 26.51392 23.34127
#
# Velocity S-wave (km/s) = 3.12626 3.58446 3.36317
# Velocity P-wave (km/s) = 5.76697 6.83797 6.32518
#
# Compressibility (1/GPa) = 0.02395803
#
# Stress axis : x y z
#
# Youngs Moduli (GPa) = 61.49287 85.69152 31.26904
#
# Poissons Ratio (x) = 0.53676 0.21300
# Poissons Ratio (y) = 0.38518 0.15326
# Poissons Ratio (z) = 0.41888 0.42001
#
# Static dielectric constant tensor:
#      x y z
#    x 1.757920 0.000000 0.000000 
#    y 0.000000 1.813760 0.000000 
#    z 0.000000 0.000000 1.793260 
# 
# From -- ./inp_files/9593.got.cif
#   From: 2010.05.17/outbox.cif.g08.bks.cpg/sg43_5_cif.got.tgz:9593.got - 2010.06.03 19:21:55.
