data_PCOD9372937
_publ_section_title
;
Structure prediction by ZEFSAII (Michael W. Deem and Ramdas Pophale) SiO2 
 PCOD9372937
Probable space group: F D D 2
;
_chemical_formula_sum "Si O2"
_cell_formula_units_Z 64
_cell_length_a 15.532056
_cell_length_b 12.200020
_cell_length_c 12.890217
_cell_angle_alpha 90.000000
_cell_angle_beta 90.000000
_cell_angle_gamma 90.000000
_cell_volume 2442.585186
_symmetry_space_group_name_H-M "F D D 2"
_symmetry_group_IT_number 43
_symmetry_cell_setting 'orthorhombic'
loop_
_space_group_symop_operation_xyz
x,y,z
-x,-y,z
1/4-x,1/4+y,1/4+z
1/4+x,1/4-y,1/4+z
x,1/2+y,1/2+z
-x,1/2-y,1/2+z
1/4-x,3/4+y,3/4+z
1/4+x,3/4-y,3/4+z
1/2+x,y,1/2+z
1/2-x,-y,1/2+z
3/4-x,1/4+y,3/4+z
3/4+x,1/4-y,3/4+z
1/2+x,1/2+y,z
1/2-x,1/2-y,z
3/4-x,3/4+y,1/4+z
3/4+x,3/4-y,1/4+z
loop_
_atom_site_type_symbol
_atom_site_label
_atom_site_fract_x
_atom_site_fract_y
_atom_site_fract_z
Si Si1 0.879107 0.236285 0.156760
Si Si2 0.800137 0.644351 0.442061
Si Si3 0.531849 0.386297 0.812570
Si Si4 0.118915 0.509954 0.124641
O O1 0.915135 0.448251 0.012855
O O2 0.630665 0.131596 0.171333
O O3 0.980163 0.200828 0.167439
O O4 0.834525 0.176614 0.058505
O O5 0.750000 0.750000 0.407689
O O6 0.881275 0.638774 0.370108
O O7 0.500000 0.500000 0.859149
O O8 0.459752 0.299086 0.848912
O O9 0.563934 0.425988 0.696005
#
# Coordination Sequence:
#
# PCOD9372937 Si02
#       4
#    16  16  16  16
#     4  12  29  56  85 131 185 239 303 388 472 560
#     4  12  30  53  89 130 179 235 310 375 469 552
#     4  12  30  53  89 130 179 235 310 375 469 552
#     4  12  29  56  85 131 185 239 303 388 472 560
#
# _framework density 26.201747000000001
#
# number of rings (size 3 to 8) (size 9 to 14) (size 15 to 20)
#    0.000    0.000    5.000    1.500    7.000    7.000 
#    0.000    0.000    0.000    0.000    0.000    0.000 
#    0.000    0.000    0.000    0.000    0.000    0.000 
#
# Total GULP energy -89225.778542 kJ/mol
# GULP energy per Si atom -5576.611159 kJ/mol
# Density = 2.614211 g / cm^3
# Si number density = 26.201747 Si / 1000 Ang^3
#
#
#
# Elastic Constant Matrix: (Units=GPa)
#
#
# Indices 1 2 3 4 5 6 
#
# 1 223.6179 70.8600 72.4639 0.0000 0.0000 0.0000
# 2 70.8600 153.6129 35.9856 0.0000 0.0000 0.0000
# 3 72.4639 35.9856 116.7143 0.0000 0.0000 0.0000
# 4 0.0000 0.0000 0.0000 53.4186 0.0000 0.0000
# 5 0.0000 0.0000 0.0000 0.0000 23.1978 0.0000
# 6 0.0000 0.0000 0.0000 0.0000 0.0000 70.5469
#
#
#
# Elastic Compliance Matrix: (Units=1/GPa)
#
#
# Indices 1 2 3 4 5 6 
#
# 1 0.006169 -0.002100 -0.003182 0.000000 0.000000 0.000000
# 2 -0.002100 0.007732 -0.001080 0.000000 0.000000 0.000000
# 3 -0.003182 -0.001080 0.010877 0.000000 0.000000 0.000000
# 4 0.000000 0.000000 0.000000 0.018720 0.000000 0.000000
# 5 0.000000 0.000000 0.000000 0.000000 0.043108 0.000000
# 6 0.000000 0.000000 0.000000 0.000000 0.000000 0.014175
#
#
# Mechanical properties :
#
#
# Convention : Reuss Voigt Hill
#
# Bulk Modulus (GPa) = 82.97273 94.72933 88.85103
# Shear Modulus (GPa) = 42.54530 50.40837 46.47683
#
# Velocity S-wave (km/s) = 4.03396 4.39094 4.21623
# Velocity P-wave (km/s) = 7.30977 7.87016 7.59513
#
# Compressibility (1/GPa) = 0.01205215
#
# Stress axis : x y z
#
# Youngs Moduli (GPa) = 162.11051 129.33965 91.93911
#
# Poissons Ratio (x) = 0.27161 0.29259
# Poissons Ratio (y) = 0.34043 0.09929
# Poissons Ratio (z) = 0.51590 0.13969
#
# Static dielectric constant tensor:
#      x y z
#    x 2.031860 0.000000 0.000000 
#    y 0.000000 2.082250 0.000000 
#    z 0.000000 0.000000 2.142480 
# 
# From -- ./inp_files/13695.got.cif
#   From: 2010.05.17/outbox.cif.g08.bks.cpg/sg43_7_cif.got.tgz:13695.got - 2010.06.03 19:21:55.
