data_PCOD9372017
_publ_section_title
;
Structure prediction by ZEFSAII (Michael W. Deem and Ramdas Pophale) SiO2 
 PCOD9372017
Probable space group: F D D 2
;
_chemical_formula_sum "Si O2"
_cell_formula_units_Z 112
_cell_length_a 26.427297
_cell_length_b 14.681732
_cell_length_c 13.088768
_cell_angle_alpha 90.000000
_cell_angle_beta 90.000000
_cell_angle_gamma 90.000000
_cell_volume 5078.422247
_symmetry_space_group_name_H-M "F D D 2"
_symmetry_group_IT_number 43
_symmetry_cell_setting 'orthorhombic'
loop_
_space_group_symop_operation_xyz
x,y,z
-x,-y,z
1/4-x,1/4+y,1/4+z
1/4+x,1/4-y,1/4+z
x,1/2+y,1/2+z
-x,1/2-y,1/2+z
1/4-x,3/4+y,3/4+z
1/4+x,3/4-y,3/4+z
1/2+x,y,1/2+z
1/2-x,-y,1/2+z
3/4-x,1/4+y,3/4+z
3/4+x,1/4-y,3/4+z
1/2+x,1/2+y,z
1/2-x,1/2-y,z
3/4-x,3/4+y,1/4+z
3/4+x,3/4-y,1/4+z
loop_
_atom_site_type_symbol
_atom_site_label
_atom_site_fract_x
_atom_site_fract_y
_atom_site_fract_z
Si Si1 0.282344 0.941759 0.481080
Si Si2 0.826491 0.998473 0.190296
Si Si3 0.967656 0.808243 0.029046
Si Si4 0.076188 0.040666 0.480024
Si Si5 0.423813 0.540656 0.280105
Si Si6 0.500000 0.000000 0.154187
Si Si7 0.250000 0.250000 0.355941
Si Si8 0.673511 0.498483 0.569832
O O1 0.276053 0.833513 0.463342
O O2 0.319806 0.962331 0.575463
O O3 0.296177 1.000000 0.380062
O O4 0.226067 0.974872 0.514541
O O5 0.835156 0.106392 0.194252
O O6 0.876754 0.973138 0.253076
O O7 0.773935 0.974865 0.245586
O O8 0.930195 0.787668 0.934663
O O9 0.973946 0.916489 0.046786
O O10 0.123249 0.973152 0.507049
O O11 0.051166 0.000011 0.380062
O O12 0.041634 0.043662 0.579593
O O13 0.458366 0.543662 0.180535
O O14 0.414849 0.643597 0.315889
#
# Coordination Sequence:
#
# PCOD9372017 Si02
#       8
#    16  16  16  16  16   8   8  16
#     4  11  22  44  66 100 136 179 216 289 334 408
#     4  10  24  41  67  92 139 173 220 277 343 384
#     4  11  22  44  66 100 136 179 216 289 334 408
#     4  11  23  41  69 101 122 181 233 278 318 410
#     4  11  23  41  69 101 122 181 233 278 318 410
#     4  12  25  39  72 100 136 176 227 269 358 398
#     4  12  25  39  72 100 136 176 227 269 358 398
#     4  10  24  41  67  92 139 173 220 277 343 384
#
# _framework density 22.054093000000002
#
# number of rings (size 3 to 8) (size 9 to 14) (size 15 to 20)
#    0.000    1.143    2.857    3.000    8.000    3.429 
#    0.000    0.000    0.000    0.000    0.000    0.000 
#    0.000    0.000    0.000    0.000    0.000    0.000 
#
# Total GULP energy -156195.500316 kJ/mol
# GULP energy per Si atom -5578.410726 kJ/mol
# Density = 2.200390 g / cm^3
# Si number density = 22.054093 Si / 1000 Ang^3
#
#
#
# Elastic Constant Matrix: (Units=GPa)
#
#
# Indices 1 2 3 4 5 6 
#
# 1 76.4604 5.2951 43.1524 0.0000 0.0000 0.0000
# 2 5.2951 128.4138 71.1906 0.0000 0.0000 0.0000
# 3 43.1524 71.1906 149.9211 0.0000 0.0000 0.0000
# 4 0.0000 0.0000 0.0000 16.2248 0.0000 0.0000
# 5 0.0000 0.0000 0.0000 0.0000 -495.0228 0.0000
# 6 0.0000 0.0000 0.0000 0.0000 0.0000 22.0771
#
#
#
# Elastic Compliance Matrix: (Units=1/GPa)
#
#
# Indices 1 2 3 4 5 6 
#
# 1 0.016234 0.002608 -0.005911 0.000000 0.000000 0.000000
# 2 0.002608 0.010989 -0.005969 0.000000 0.000000 0.000000
# 3 -0.005911 -0.005969 0.011206 0.000000 0.000000 0.000000
# 4 0.000000 0.000000 0.000000 0.061634 0.000000 0.000000
# 5 0.000000 0.000000 0.000000 0.000000 -0.002020 0.000000
# 6 0.000000 0.000000 0.000000 0.000000 0.000000 0.045296
#
#
# Mechanical properties :
#
#
# Convention : Reuss Voigt Hill
#
# Bulk Modulus (GPa) = 50.29022 66.00794 58.14908
# Shear Modulus (GPa) = 29.67181 -75.66703 -22.99761
#
# Velocity S-wave (km/s) = 3.67196 -5.86381 -3.23272
# Velocity P-wave (km/s) = 6.38987 3.98129 3.53410
#
# Compressibility (1/GPa) = 0.01988458
#
# Stress axis : x y z
#
# Youngs Moduli (GPa) = 61.59887 91.00288 89.24019
#
# Poissons Ratio (x) = -0.23729 0.52749
# Poissons Ratio (y) = -0.16062 0.53263
# Poissons Ratio (z) = 0.36410 0.54315
#
# Static dielectric constant tensor:
#      x y z
#    x 1.878400 0.000000 0.000000 
#    y 0.000000 2.000090 0.000000 
#    z 0.000000 0.000000 2.235470 
# 
# From -- ./inp_files/8311.got.cif
#   From: 2010.05.17/outbox.cif.g08.bks.cpg/sg43_5_cif.got.tgz:8311.got - 2010.06.03 19:21:55.
