data_PCOD9372225
_publ_section_title
;
Structure prediction by ZEFSAII (Michael W. Deem and Ramdas Pophale) SiO2 
 PCOD9372225
Probable space group: F D D 2
;
_chemical_formula_sum "Si O2"
_cell_formula_units_Z 72
_cell_length_a 25.159989
_cell_length_b 12.621425
_cell_length_c 9.244923
_cell_angle_alpha 90.000000
_cell_angle_beta 90.000000
_cell_angle_gamma 90.000000
_cell_volume 2935.770730
_symmetry_space_group_name_H-M "F D D 2"
_symmetry_group_IT_number 43
_symmetry_cell_setting 'orthorhombic'
loop_
_space_group_symop_operation_xyz
x,y,z
-x,-y,z
1/4-x,1/4+y,1/4+z
1/4+x,1/4-y,1/4+z
x,1/2+y,1/2+z
-x,1/2-y,1/2+z
1/4-x,3/4+y,3/4+z
1/4+x,3/4-y,3/4+z
1/2+x,y,1/2+z
1/2-x,-y,1/2+z
3/4-x,1/4+y,3/4+z
3/4+x,1/4-y,3/4+z
1/2+x,1/2+y,z
1/2-x,1/2-y,z
3/4-x,3/4+y,1/4+z
3/4+x,3/4-y,1/4+z
loop_
_atom_site_type_symbol
_atom_site_label
_atom_site_fract_x
_atom_site_fract_y
_atom_site_fract_z
Si Si1 0.289559 0.926559 0.187850
Si Si2 0.180887 0.499534 0.636492
Si Si3 0.859369 0.939834 0.440041
Si Si4 0.110902 0.950365 0.722424
Si Si5 0.000000 0.000000 0.657294
O O1 0.261727 0.848407 0.300709
O O2 0.243549 0.994962 0.110455
O O3 0.332725 0.000673 0.268967
O O4 0.322087 0.875735 0.053431
O O5 0.154345 0.384690 0.623819
O O6 0.174619 0.522765 0.806686
O O7 0.149601 0.588371 0.546631
O O8 0.881257 0.031257 0.548160
O O9 0.054674 0.011574 0.747585
#
# Coordination Sequence:
#
# PCOD9372225 Si02
#       5
#    16  16  16  16   8
#     4  10  25  47  73 109 151 202 259 325 401 472
#     4  12  25  48  77 107 153 207 256 331 401 473
#     4  10  26  47  71 113 147 197 266 315 395 481
#     4  10  27  44  77 111 152 200 264 321 399 478
#     4  12  22  48  80  98 158 208 246 340 398 456
#
# _framework density 24.525075999999999
#
# number of rings (size 3 to 8) (size 9 to 14) (size 15 to 20)
#    1.333    0.000    2.222    1.333    6.222    1.778 
#    0.000    0.000    0.000    0.000    0.000    0.000 
#    0.000    0.000    0.000    0.000    0.000    0.000 
#
# Total GULP energy -100453.475794 kJ/mol
# GULP energy per Si atom -5580.748655 kJ/mol
# Density = 2.446926 g / cm^3
# Si number density = 24.525076 Si / 1000 Ang^3
#
#
#
# Elastic Constant Matrix: (Units=GPa)
#
#
# Indices 1 2 3 4 5 6 
#
# 1 161.5686 59.3698 17.3006 0.0000 0.0000 0.0000
# 2 59.3698 115.6791 38.7190 0.0000 0.0000 0.0000
# 3 17.3006 38.7190 86.1263 0.0000 0.0000 0.0000
# 4 0.0000 0.0000 0.0000 49.2877 0.0000 0.0000
# 5 0.0000 0.0000 0.0000 0.0000 32.0737 0.0000
# 6 0.0000 0.0000 0.0000 0.0000 0.0000 44.2622
#
#
#
# Elastic Compliance Matrix: (Units=1/GPa)
#
#
# Indices 1 2 3 4 5 6 
#
# 1 0.007633 -0.004007 0.000268 0.000000 0.000000 0.000000
# 2 -0.004007 0.012280 -0.004715 0.000000 0.000000 0.000000
# 3 0.000268 -0.004715 0.013677 0.000000 0.000000 0.000000
# 4 0.000000 0.000000 0.000000 0.020289 0.000000 0.000000
# 5 0.000000 0.000000 0.000000 0.000000 0.031178 0.000000
# 6 0.000000 0.000000 0.000000 0.000000 0.000000 0.022593
#
#
# Mechanical properties :
#
#
# Convention : Reuss Voigt Hill
#
# Bulk Modulus (GPa) = 59.95029 66.01699 62.98364
# Shear Modulus (GPa) = 38.42648 41.65704 40.04176
#
# Velocity S-wave (km/s) = 3.96261 4.12582 4.04503
# Velocity P-wave (km/s) = 6.74047 7.04791 6.89590
#
# Compressibility (1/GPa) = 0.01668049
#
# Stress axis : x y z
#
# Youngs Moduli (GPa) = 131.00806 81.43604 73.11622
#
# Poissons Ratio (x) = 0.32634 -0.01961
# Poissons Ratio (y) = 0.52499 0.34478
# Poissons Ratio (z) = -0.03514 0.38401
#
# Static dielectric constant tensor:
#      x y z
#    x 2.064840 0.000000 0.000000 
#    y 0.000000 2.034410 0.000000 
#    z 0.000000 0.000000 2.021180 
# 
# From -- ./inp_files/4100.got.cif
#   From: 2010.05.17/outbox.cif.g08.bks.cpg/sg43_3_cif.got.tgz:4100.got - 2010.06.03 19:21:55.
