data_PCOD9372010
_publ_section_title
;
Structure prediction by ZEFSAII (Michael W. Deem and Ramdas Pophale) SiO2 
 PCOD9372010
Probable space group: F D D 2
;
_chemical_formula_sum "Si O2"
_cell_formula_units_Z 120
_cell_length_a 18.930810
_cell_length_b 11.301188
_cell_length_c 23.676812
_cell_angle_alpha 90.000000
_cell_angle_beta 90.000000
_cell_angle_gamma 90.000000
_cell_volume 5065.432379
_symmetry_space_group_name_H-M "F D D 2"
_symmetry_group_IT_number 43
_symmetry_cell_setting 'orthorhombic'
loop_
_space_group_symop_operation_xyz
x,y,z
-x,-y,z
1/4-x,1/4+y,1/4+z
1/4+x,1/4-y,1/4+z
x,1/2+y,1/2+z
-x,1/2-y,1/2+z
1/4-x,3/4+y,3/4+z
1/4+x,3/4-y,3/4+z
1/2+x,y,1/2+z
1/2-x,-y,1/2+z
3/4-x,1/4+y,3/4+z
3/4+x,1/4-y,3/4+z
1/2+x,1/2+y,z
1/2-x,1/2-y,z
3/4-x,3/4+y,1/4+z
3/4+x,3/4-y,1/4+z
loop_
_atom_site_type_symbol
_atom_site_label
_atom_site_fract_x
_atom_site_fract_y
_atom_site_fract_z
Si Si1 0.376789 0.343465 0.900560
Si Si2 0.987416 0.140937 0.969360
Si Si3 0.510397 0.261240 0.265567
Si Si4 0.563981 0.159520 0.661856
Si Si5 0.333617 0.229539 0.790081
Si Si6 0.910637 0.273179 0.872612
Si Si7 0.066151 0.774816 0.090077
Si Si8 0.750000 0.750000 0.967321
O O1 0.443725 0.307316 0.937974
O O2 0.369097 0.483286 0.910738
O O3 0.362758 0.328420 0.833829
O O4 0.316599 0.264221 0.927701
O O5 0.929936 0.214069 0.932628
O O6 0.966219 0.168607 0.033090
O O7 0.000000 0.000000 0.965465
O O8 0.461453 0.349636 0.227354
O O9 0.593792 0.286638 0.253917
O O10 0.475572 0.263690 0.328574
O O11 0.500601 0.122746 0.250658
O O12 0.589142 0.057742 0.618221
O O13 0.494063 0.217369 0.636143
O O14 0.250000 0.250000 0.771409
O O15 0.331589 0.108580 0.824593
O O16 0.882982 0.404915 0.864342
#
# Coordination Sequence:
#
# PCOD9372010 Si02
#       8
#    16  16  16  16  16  16  16   8
#     4  11  22  45  74 105 142 186 248 319 361 451
#     4  12  26  47  76 112 146 195 263 314 379 474
#     4  11  27  44  75 111 147 199 256 314 382 463
#     4  11  24  47  75 104 152 191 251 314 384 451
#     4  12  25  49  73 107 152 200 251 312 390 463
#     4  12  26  47  74 109 146 196 250 322 384 450
#     4  12  29  47  73 109 156 201 250 311 396 469
#     4  10  24  40  72 106 142 180 250 302 374 434
#
# _framework density 23.689982000000001
#
# number of rings (size 3 to 8) (size 9 to 14) (size 15 to 20)
#    0.000    0.533    4.667    2.800   12.133    0.533 
#    2.400    0.000    0.000    0.000    0.000    0.000 
#    0.000    0.000    0.000    0.000    0.000    0.000 
#
# Total GULP energy -167024.351075 kJ/mol
# GULP energy per Si atom -5567.478369 kJ/mol
# Density = 2.363606 g / cm^3
# Si number density = 23.689982 Si / 1000 Ang^3
#
#
#
# Elastic Constant Matrix: (Units=GPa)
#
#
# Indices 1 2 3 4 5 6 
#
# 1 59.2543 17.2647 5.6191 0.0000 0.0000 0.0000
# 2 17.2647 65.6259 -5.2103 0.0000 0.0000 0.0000
# 3 5.6191 -5.2103 89.6245 0.0000 0.0000 0.0000
# 4 0.0000 0.0000 0.0000 13.5833 0.0000 0.0000
# 5 0.0000 0.0000 0.0000 0.0000 29.2043 0.0000
# 6 0.0000 0.0000 0.0000 0.0000 0.0000 11.2059
#
#
#
# Elastic Compliance Matrix: (Units=1/GPa)
#
#
# Indices 1 2 3 4 5 6 
#
# 1 0.018462 -0.004972 -0.001447 0.000000 0.000000 0.000000
# 2 -0.004972 0.016647 0.001280 0.000000 0.000000 0.000000
# 3 -0.001447 0.001280 0.011323 0.000000 0.000000 0.000000
# 4 0.000000 0.000000 0.000000 0.073620 0.000000 0.000000
# 5 0.000000 0.000000 0.000000 0.000000 0.034242 0.000000
# 6 0.000000 0.000000 0.000000 0.000000 0.000000 0.089239
#
#
# Mechanical properties :
#
#
# Convention : Reuss Voigt Hill
#
# Bulk Modulus (GPa) = 27.65895 27.76130 27.71013
# Shear Modulus (GPa) = 18.80677 23.92078 21.36378
#
# Velocity S-wave (km/s) = 2.82063 3.18109 3.00627
# Velocity P-wave (km/s) = 4.72320 5.02359 4.87571
#
# Compressibility (1/GPa) = 0.03615466
#
# Stress axis : x y z
#
# Youngs Moduli (GPa) = 54.16470 60.06928 88.31784
#
# Poissons Ratio (x) = 0.29865 0.12776
# Poissons Ratio (y) = 0.26930 -0.11300
# Poissons Ratio (z) = 0.07835 -0.07686
#
# Static dielectric constant tensor:
#      x y z
#    x 1.934330 0.000000 0.000000 
#    y 0.000000 2.050870 0.000000 
#    z 0.000000 0.000000 1.960460 
# 
# From -- ./inp_files/26086.got.cif
#   From: 2010.05.17/outbox.cif.g08.bks.cpg/sg43_14_cif.got.tgz:26086.got - 2010.06.03 19:21:55.
