data_PCOD9372916
_publ_section_title
;
Structure prediction by ZEFSAII (Michael W. Deem and Ramdas Pophale) SiO2 
 PCOD9372916
Probable space group: F D D 2
;
_chemical_formula_sum "Si O2"
_cell_formula_units_Z 64
_cell_length_a 18.399731
_cell_length_b 17.950485
_cell_length_c 7.141257
_cell_angle_alpha 90.000000
_cell_angle_beta 90.000000
_cell_angle_gamma 90.000000
_cell_volume 2358.643608
_symmetry_space_group_name_H-M "F D D 2"
_symmetry_group_IT_number 43
_symmetry_cell_setting 'orthorhombic'
loop_
_space_group_symop_operation_xyz
x,y,z
-x,-y,z
1/4-x,1/4+y,1/4+z
1/4+x,1/4-y,1/4+z
x,1/2+y,1/2+z
-x,1/2-y,1/2+z
1/4-x,3/4+y,3/4+z
1/4+x,3/4-y,3/4+z
1/2+x,y,1/2+z
1/2-x,-y,1/2+z
3/4-x,1/4+y,3/4+z
3/4+x,1/4-y,3/4+z
1/2+x,1/2+y,z
1/2-x,1/2-y,z
3/4-x,3/4+y,1/4+z
3/4+x,3/4-y,1/4+z
loop_
_atom_site_type_symbol
_atom_site_label
_atom_site_fract_x
_atom_site_fract_y
_atom_site_fract_z
Si Si1 0.170057 0.366988 0.642620
Si Si2 0.505252 0.150638 0.237727
Si Si3 0.368294 0.229583 0.330151
Si Si4 0.894796 0.522570 0.162083
O O1 0.232585 0.407773 0.762106
O O2 0.182018 0.329836 0.438539
O O3 0.111337 0.433827 0.636915
O O4 0.151715 0.293109 0.760603
O O5 0.449160 0.197892 0.361521
O O6 0.464883 0.071122 0.222418
O O7 0.582702 0.172788 0.329004
O O8 0.370746 0.232808 0.107308
#
# Coordination Sequence:
#
# PCOD9372916 Si02
#       4
#    16  16  16  16
#     4  12  27  54  84 130 170 229 289 372 440 542
#     4  12  27  56  85 125 180 226 300 375 452 538
#     4  12  27  53  88 121 174 239 289 364 459 534
#     4  12  28  55  85 130 175 235 306 373 450 548
#
# _framework density 27.134239000000001
#
# number of rings (size 3 to 8) (size 9 to 14) (size 15 to 20)
#    0.000    0.000    5.000    3.750    0.000    0.000 
#   13.500    0.000    0.000    0.000    0.000    0.000 
#    0.000    0.000    0.000    0.000    0.000    0.000 
#
# Total GULP energy -89190.670650 kJ/mol
# GULP energy per Si atom -5574.416916 kJ/mol
# Density = 2.707248 g / cm^3
# Si number density = 27.134239 Si / 1000 Ang^3
#
#
#
# Elastic Constant Matrix: (Units=GPa)
#
#
# Indices 1 2 3 4 5 6 
#
# 1 109.3198 54.8494 21.4379 -0.0003 0.0002 0.0003
# 2 54.8494 222.3549 58.2462 -0.0003 0.0002 0.0004
# 3 21.4379 58.2462 115.7355 -0.0006 0.0004 0.0005
# 4 -0.0003 -0.0003 -0.0006 75.7402 0.0001 0.0001
# 5 0.0002 0.0002 0.0004 0.0001 14.3462 -0.0002
# 6 0.0003 0.0004 0.0005 0.0001 -0.0002 15.1472
#
#
#
# Elastic Compliance Matrix: (Units=1/GPa)
#
#
# Indices 1 2 3 4 5 6 
#
# 1 0.010494 -0.002395 -0.000738 0.000000 0.000000 0.000000
# 2 -0.002395 0.005727 -0.002439 0.000000 0.000000 0.000000
# 3 -0.000738 -0.002439 0.010004 0.000000 0.000000 0.000000
# 4 0.000000 0.000000 0.000000 0.013203 0.000000 0.000000
# 5 0.000000 0.000000 0.000000 0.000000 0.069705 0.000001
# 6 0.000000 0.000000 0.000000 0.000000 0.000001 0.066019
#
#
# Mechanical properties :
#
#
# Convention : Reuss Voigt Hill
#
# Bulk Modulus (GPa) = 66.30807 79.60859 72.95833
# Shear Modulus (GPa) = 26.13378 41.90516 34.01947
#
# Velocity S-wave (km/s) = 3.10680 3.93410 3.54467
# Velocity P-wave (km/s) = 6.11226 7.07381 6.61054
#
# Compressibility (1/GPa) = 0.01508112
#
# Stress axis : x y z
#
# Youngs Moduli (GPa) = 95.29230 174.61381 99.95601
#
# Poissons Ratio (x) = 0.41823 0.07381
# Poissons Ratio (y) = 0.22824 0.24374
# Poissons Ratio (z) = 0.07036 0.42580
#
# Static dielectric constant tensor:
#      x y z
#    x 2.304330 0.000000 0.000000 
#    y 0.000000 2.173190 0.000000 
#    z 0.000000 0.000000 2.191150 
# 
# From -- ./inp_files/2633.got.cif
#   From: 2010.05.17/outbox.cif.g08.bks.cpg/sg43_2_cif.got.tgz:2633.got - 2010.06.03 19:21:55.
