data_PCOD9372624
_publ_section_title
;
Structure prediction by ZEFSAII (Michael W. Deem and Ramdas Pophale) SiO2 
 PCOD9372624
Probable space group: F D D 2
;
_chemical_formula_sum "Si O2"
_cell_formula_units_Z 72
_cell_length_a 19.849849
_cell_length_b 16.756436
_cell_length_c 8.303988
_cell_angle_alpha 90.000000
_cell_angle_beta 90.000000
_cell_angle_gamma 90.000000
_cell_volume 2762.012072
_symmetry_space_group_name_H-M "F D D 2"
_symmetry_group_IT_number 43
_symmetry_cell_setting 'orthorhombic'
loop_
_space_group_symop_operation_xyz
x,y,z
-x,-y,z
1/4-x,1/4+y,1/4+z
1/4+x,1/4-y,1/4+z
x,1/2+y,1/2+z
-x,1/2-y,1/2+z
1/4-x,3/4+y,3/4+z
1/4+x,3/4-y,3/4+z
1/2+x,y,1/2+z
1/2-x,-y,1/2+z
3/4-x,1/4+y,3/4+z
3/4+x,1/4-y,3/4+z
1/2+x,1/2+y,z
1/2-x,1/2-y,z
3/4-x,3/4+y,1/4+z
3/4+x,3/4-y,1/4+z
loop_
_atom_site_type_symbol
_atom_site_label
_atom_site_fract_x
_atom_site_fract_y
_atom_site_fract_z
Si Si1 0.320470 0.344784 0.625000
Si Si2 0.250000 0.250000 0.194704
Si Si3 0.604497 0.995830 0.167601
Si Si4 0.725491 0.423739 0.797662
Si Si5 0.934845 0.799713 0.393939
O O1 0.370128 0.414961 0.683134
O O2 0.322020 0.271596 0.746047
O O3 0.246594 0.385297 0.645505
O O4 0.360645 0.322480 0.459159
O O5 0.268511 0.171850 0.298626
O O6 0.192814 0.223496 0.066340
O O7 0.672244 0.944139 0.161172
O O8 0.791775 0.473367 0.749659
O O9 0.690911 0.464797 0.953370
#
# Coordination Sequence:
#
# PCOD9372624 Si02
#       5
#    16   8  16  16  16
#     4  11  24  46  75 108 155 202 257 328 397 474
#     4  12  26  46  78 116 150 216 268 336 404 490
#     4  11  24  45  74 108 149 204 260 326 397 475
#     4  11  27  46  76 108 157 200 267 328 401 486
#     4  11  26  48  75 115 154 208 261 333 404 480
#
# _framework density 26.067951000000001
#
# number of rings (size 3 to 8) (size 9 to 14) (size 15 to 20)
#    0.000    0.889    2.222    4.000    9.333    1.778 
#    0.000    0.000    0.000    0.000    0.000    0.000 
#    0.000    0.000    0.000    0.000    0.000    0.000 
#
# Total GULP energy -100489.860429 kJ/mol
# GULP energy per Si atom -5582.770024 kJ/mol
# Density = 2.600862 g / cm^3
# Si number density = 26.067951 Si / 1000 Ang^3
#
#
#
# Elastic Constant Matrix: (Units=GPa)
#
#
# Indices 1 2 3 4 5 6 
#
# 1 97.3119 20.9566 20.9622 0.0000 0.0000 0.0000
# 2 20.9566 116.4250 35.8079 0.0000 0.0000 0.0000
# 3 20.9622 35.8079 101.6895 0.0001 -0.0001 0.0000
# 4 0.0000 0.0000 0.0001 43.0630 0.0000 0.0000
# 5 0.0000 0.0000 -0.0001 0.0000 43.6648 0.0000
# 6 0.0000 0.0000 0.0000 0.0000 0.0000 37.4819
#
#
#
# Elastic Compliance Matrix: (Units=1/GPa)
#
#
# Indices 1 2 3 4 5 6 
#
# 1 0.010963 -0.001434 -0.001755 0.000000 0.000000 0.000000
# 2 -0.001434 0.009820 -0.003162 0.000000 0.000000 0.000000
# 3 -0.001755 -0.003162 0.011309 0.000000 0.000000 0.000000
# 4 0.000000 0.000000 0.000000 0.023222 0.000000 0.000000
# 5 0.000000 0.000000 0.000000 0.000000 0.022902 0.000000
# 6 0.000000 0.000000 0.000000 0.000000 0.000000 0.026680
#
#
# Mechanical properties :
#
#
# Convention : Reuss Voigt Hill
#
# Bulk Modulus (GPa) = 51.57278 52.31999 51.94638
# Shear Modulus (GPa) = 40.30287 40.68858 40.49573
#
# Velocity S-wave (km/s) = 3.93628 3.95507 3.94568
# Velocity P-wave (km/s) = 6.36286 6.40085 6.38188
#
# Compressibility (1/GPa) = 0.01939007
#
# Stress axis : x y z
#
# Youngs Moduli (GPa) = 91.21565 101.83421 88.42348
#
# Poissons Ratio (x) = 0.14598 0.15519
# Poissons Ratio (y) = 0.13076 0.27963
# Poissons Ratio (z) = 0.16009 0.32204
#
# Static dielectric constant tensor:
#      x y z
#    x 2.105650 0.000000 0.000000 
#    y 0.000000 2.068270 0.000000 
#    z 0.000000 0.000000 2.127740 
# 
# From -- ./inp_files/2654.got.cif
#   From: 2010.05.17/outbox.cif.g08.bks.cpg/sg43_2_cif.got.tgz:2654.got - 2010.06.03 19:21:55.
