data_PCOD9372085
_publ_section_title
;
Structure prediction by ZEFSAII (Michael W. Deem and Ramdas Pophale) SiO2 
 PCOD9372085
Probable space group: F D D 2
;
_chemical_formula_sum "Si O2"
_cell_formula_units_Z 104
_cell_length_a 17.332218
_cell_length_b 9.698078
_cell_length_c 26.209313
_cell_angle_alpha 90.000000
_cell_angle_beta 90.000000
_cell_angle_gamma 90.000000
_cell_volume 4405.502509
_symmetry_space_group_name_H-M "F D D 2"
_symmetry_group_IT_number 43
_symmetry_cell_setting 'orthorhombic'
loop_
_space_group_symop_operation_xyz
x,y,z
-x,-y,z
1/4-x,1/4+y,1/4+z
1/4+x,1/4-y,1/4+z
x,1/2+y,1/2+z
-x,1/2-y,1/2+z
1/4-x,3/4+y,3/4+z
1/4+x,3/4-y,3/4+z
1/2+x,y,1/2+z
1/2-x,-y,1/2+z
3/4-x,1/4+y,3/4+z
3/4+x,1/4-y,3/4+z
1/2+x,1/2+y,z
1/2-x,1/2-y,z
3/4-x,3/4+y,1/4+z
3/4+x,3/4-y,1/4+z
loop_
_atom_site_type_symbol
_atom_site_label
_atom_site_fract_x
_atom_site_fract_y
_atom_site_fract_z
Si Si1 0.283010 0.607527 0.884920
Si Si2 0.507972 0.801473 0.526113
Si Si3 0.629757 0.251551 0.156978
Si Si4 0.055464 0.317892 0.414648
Si Si5 0.750000 0.750000 0.075197
Si Si6 0.169621 0.194478 0.548137
Si Si7 0.633351 0.144872 0.264859
O O1 0.250000 0.750000 0.905812
O O2 0.286422 0.624354 0.823052
O O3 0.212322 0.506030 0.895787
O O4 0.365770 0.589862 0.910496
O O5 0.506863 0.842324 0.466470
O O6 0.598898 0.797198 0.536991
O O7 0.468335 0.651561 0.531580
O O8 0.664413 0.407618 0.164535
O O9 0.672124 0.188377 0.108794
O O10 0.639585 0.152280 0.204326
O O11 0.013304 0.369662 0.363277
O O12 0.677762 0.788826 0.039325
O O13 0.250000 0.250000 0.527523
O O14 0.146199 0.046458 0.527934
#
# Coordination Sequence:
#
# PCOD9372085 Si02
#       7
#    16  16  16  16   8  16  16
#     4   9  21  45  67 103 141 184 255 308 365 446
#     4  11  24  44  72 103 145 198 244 312 371 445
#     4  10  24  44  74 101 138 194 249 303 367 460
#     4  11  23  46  73 103 150 195 247 305 383 451
#     4  12  28  48  68 110 156 190 242 322 378 456
#     4  11  25  43  74 107 142 190 250 309 371 449
#     4  12  26  48  70 107 146 191 254 310 379 454
#
# _framework density 23.606843000000001
#
# number of rings (size 3 to 8) (size 9 to 14) (size 15 to 20)
#    0.000    1.231    3.077    1.385    7.538    0.000 
#    8.308    0.000    0.000    0.000    0.000    0.000 
#    0.000    0.000    0.000    0.000    0.000    0.000 
#
# Total GULP energy -145093.814479 kJ/mol
# GULP energy per Si atom -5580.531326 kJ/mol
# Density = 2.355311 g / cm^3
# Si number density = 23.606843 Si / 1000 Ang^3
#
#
#
# Elastic Constant Matrix: (Units=GPa)
#
#
# Indices 1 2 3 4 5 6 
#
# 1 115.6956 27.3196 10.3345 0.0000 0.0000 0.0000
# 2 27.3196 56.8954 25.1455 0.0000 0.0000 0.0000
# 3 10.3345 25.1455 129.7527 0.0000 0.0000 0.0000
# 4 0.0000 0.0000 0.0000 27.0418 0.0000 0.0000
# 5 0.0000 0.0000 0.0000 0.0000 20.4413 0.0000
# 6 0.0000 0.0000 0.0000 0.0000 0.0000 28.8983
#
#
#
# Elastic Compliance Matrix: (Units=1/GPa)
#
#
# Indices 1 2 3 4 5 6 
#
# 1 0.009751 -0.004745 0.000143 0.000000 0.000000 0.000000
# 2 -0.004745 0.021532 -0.003795 0.000000 0.000000 0.000000
# 3 0.000143 -0.003795 0.008431 0.000000 0.000000 0.000000
# 4 0.000000 0.000000 0.000000 0.036980 0.000000 0.000000
# 5 0.000000 0.000000 0.000000 0.000000 0.048920 0.000000
# 6 0.000000 0.000000 0.000000 0.000000 0.000000 0.034604
#
#
# Mechanical properties :
#
#
# Convention : Reuss Voigt Hill
#
# Bulk Modulus (GPa) = 43.63092 47.54921 45.59007
# Shear Modulus (GPa) = 27.07785 31.24591 29.16188
#
# Velocity S-wave (km/s) = 3.39046 3.64207 3.51852
# Velocity P-wave (km/s) = 5.81803 6.15403 5.98839
#
# Compressibility (1/GPa) = 0.02291952
#
# Stress axis : x y z
#
# Youngs Moduli (GPa) = 102.55205 46.44271 118.60990
#
# Poissons Ratio (x) = 0.22039 -0.01696
# Poissons Ratio (y) = 0.48665 0.45010
# Poissons Ratio (z) = -0.01466 0.17624
#
# Static dielectric constant tensor:
#      x y z
#    x 1.986170 0.000000 0.000000 
#    y 0.000000 1.930180 0.000000 
#    z 0.000000 0.000000 1.944200 
# 
# From -- ./inp_files/26007.got.cif
#   From: 2010.05.17/outbox.cif.g08.bks.cpg/sg43_14_cif.got.tgz:26007.got - 2010.06.03 19:21:55.
