data_PCOD9372759
_publ_section_title
;
Structure prediction by ZEFSAII (Michael W. Deem and Ramdas Pophale) SiO2 
 PCOD9372759
Probable space group: F D D 2
;
_chemical_formula_sum "Si O2"
_cell_formula_units_Z 64
_cell_length_a 8.045301
_cell_length_b 17.487894
_cell_length_c 20.084434
_cell_angle_alpha 90.000000
_cell_angle_beta 90.000000
_cell_angle_gamma 90.000000
_cell_volume 2825.786895
_symmetry_space_group_name_H-M "F D D 2"
_symmetry_group_IT_number 43
_symmetry_cell_setting 'orthorhombic'
loop_
_space_group_symop_operation_xyz
x,y,z
-x,-y,z
1/4-x,1/4+y,1/4+z
1/4+x,1/4-y,1/4+z
x,1/2+y,1/2+z
-x,1/2-y,1/2+z
1/4-x,3/4+y,3/4+z
1/4+x,3/4-y,3/4+z
1/2+x,y,1/2+z
1/2-x,-y,1/2+z
3/4-x,1/4+y,3/4+z
3/4+x,1/4-y,3/4+z
1/2+x,1/2+y,z
1/2-x,1/2-y,z
3/4-x,3/4+y,1/4+z
3/4+x,3/4-y,1/4+z
loop_
_atom_site_type_symbol
_atom_site_label
_atom_site_fract_x
_atom_site_fract_y
_atom_site_fract_z
Si Si1 0.112356 0.932067 0.932570
Si Si2 0.938716 0.771071 0.571132
Si Si3 0.802924 0.019846 0.674896
Si Si4 0.362513 0.436798 0.550154
O O1 0.193252 0.969366 0.866706
O O2 0.003496 0.857489 0.918243
O O3 0.253810 0.914238 0.986723
O O4 0.000000 0.000000 0.961986
O O5 0.750000 0.750000 0.587853
O O6 0.952046 0.862071 0.579554
O O7 0.974285 0.756420 0.493908
O O8 0.751430 0.973186 0.608997
O O9 0.000000 0.000000 0.679693
O O10 0.500000 0.500000 0.531066
#
# Coordination Sequence:
#
# PCOD9372759 Si02
#       4
#    16  16  16  16
#     4  12  27  46  77 110 148 199 253 308 378 447
#     4  12  27  48  75 112 150 198 252 313 373 447
#     4  11  27  48  75 108 151 194 252 311 373 444
#     4  11  27  47  75 107 151 196 248 311 375 444
#
# _framework density 22.648558999999999
#
# number of rings (size 3 to 8) (size 9 to 14) (size 15 to 20)
#    0.000    0.500    2.500    4.500   14.000    1.000 
#    0.000    0.000    0.000    0.000    0.000    0.000 
#    0.000    0.000    0.000    0.000    0.000    0.000 
#
# Total GULP energy -89545.921522 kJ/mol
# GULP energy per Si atom -5596.620095 kJ/mol
# Density = 2.259701 g / cm^3
# Si number density = 22.648559 Si / 1000 Ang^3
#
#
#
# Elastic Constant Matrix: (Units=GPa)
#
#
# Indices 1 2 3 4 5 6 
#
# 1 109.3789 67.3179 38.9986 0.0000 0.0000 0.0000
# 2 67.3179 217.0930 59.4243 0.0000 0.0000 0.0000
# 3 38.9986 59.4243 122.8315 0.0000 0.0000 0.0000
# 4 0.0000 0.0000 0.0000 39.7157 0.0000 0.0000
# 5 0.0000 0.0000 0.0000 0.0000 43.8286 0.0000
# 6 0.0000 0.0000 0.0000 0.0000 0.0000 29.9719
#
#
#
# Elastic Compliance Matrix: (Units=1/GPa)
#
#
# Indices 1 2 3 4 5 6 
#
# 1 0.011830 -0.003043 -0.002284 0.000000 0.000000 0.000000
# 2 -0.003043 0.006092 -0.001981 0.000000 0.000000 0.000000
# 3 -0.002284 -0.001981 0.009825 0.000000 0.000000 0.000000
# 4 0.000000 0.000000 0.000000 0.025179 0.000000 0.000000
# 5 0.000000 0.000000 0.000000 0.000000 0.022816 0.000000
# 6 0.000000 0.000000 0.000000 0.000000 0.000000 0.033365
#
#
# Mechanical properties :
#
#
# Convention : Reuss Voigt Hill
#
# Bulk Modulus (GPa) = 76.15704 86.75390 81.45547
# Shear Modulus (GPa) = 39.03222 41.60740 40.31981
#
# Velocity S-wave (km/s) = 4.15587 4.29078 4.22386
# Velocity P-wave (km/s) = 7.53173 7.93317 7.73505
#
# Compressibility (1/GPa) = 0.01313076
#
# Stress axis : x y z
#
# Youngs Moduli (GPa) = 84.53316 164.14259 101.78371
#
# Poissons Ratio (x) = 0.49951 0.23244
# Poissons Ratio (y) = 0.25725 0.20165
# Poissons Ratio (z) = 0.19304 0.32519
#
# Static dielectric constant tensor:
#      x y z
#    x 1.910890 0.000000 0.000000 
#    y 0.000000 1.824590 0.000000 
#    z 0.000000 0.000000 1.831700 
# 
# From -- ./inp_files/16121.got.cif
#   From: 2010.05.17/outbox.cif.g08.bks.cpg/sg43_9_cif.got.tgz:16121.got - 2010.06.03 19:21:55.
