data_PCOD9372019
_publ_section_title
;
Structure prediction by ZEFSAII (Michael W. Deem and Ramdas Pophale) SiO2 
 PCOD9372019
Probable space group: F D D 2
;
_chemical_formula_sum "Si O2"
_cell_formula_units_Z 96
_cell_length_a 15.063414
_cell_length_b 21.580704
_cell_length_c 14.916574
_cell_angle_alpha 90.000000
_cell_angle_beta 90.000000
_cell_angle_gamma 90.000000
_cell_volume 4849.066134
_symmetry_space_group_name_H-M "F D D 2"
_symmetry_group_IT_number 43
_symmetry_cell_setting 'orthorhombic'
loop_
_space_group_symop_operation_xyz
x,y,z
-x,-y,z
1/4-x,1/4+y,1/4+z
1/4+x,1/4-y,1/4+z
x,1/2+y,1/2+z
-x,1/2-y,1/2+z
1/4-x,3/4+y,3/4+z
1/4+x,3/4-y,3/4+z
1/2+x,y,1/2+z
1/2-x,-y,1/2+z
3/4-x,1/4+y,3/4+z
3/4+x,1/4-y,3/4+z
1/2+x,1/2+y,z
1/2-x,1/2-y,z
3/4-x,3/4+y,1/4+z
3/4+x,3/4-y,1/4+z
loop_
_atom_site_type_symbol
_atom_site_label
_atom_site_fract_x
_atom_site_fract_y
_atom_site_fract_z
Si Si1 0.375920 0.404481 0.827730
Si Si2 0.061128 0.716609 0.541492
Si Si3 0.761038 0.992817 0.592123
Si Si4 0.481112 0.105492 0.908094
Si Si5 0.678140 0.604837 0.031394
Si Si6 0.638198 0.506902 0.407565
O O1 0.377518 0.478520 0.818102
O O2 0.307933 0.377690 0.753713
O O3 0.474689 0.379368 0.810185
O O4 0.334878 0.391552 0.924800
O O5 0.102903 0.650857 0.566316
O O6 0.044683 0.728147 0.435713
O O7 0.970254 0.726915 0.594559
O O8 0.751614 0.919126 0.605049
O O9 0.827843 0.002521 0.509118
O O10 0.675761 0.033862 0.564529
O O11 0.567897 0.062722 0.911580
O O12 0.406773 0.056889 0.873321
#
# Coordination Sequence:
#
# PCOD9372019 Si02
#       6
#    16  16  16  16  16  16
#     4  11  22  41  68  98 132 167 230 286 339 399
#     4  11  24  40  67  95 136 175 220 277 342 416
#     4  11  24  41  68  99 128 177 227 280 339 408
#     4  10  24  41  71  97 133 172 231 286 342 402
#     4  12  22  44  64 100 134 179 223 284 342 409
#     4  11  23  45  67  98 134 179 223 284 344 414
#
# _framework density 19.797626000000001
#
# number of rings (size 3 to 8) (size 9 to 14) (size 15 to 20)
#    0.000    1.000    5.000    0.500    9.333    1.333 
#    0.000    0.833    0.000    0.000    0.000    0.000 
#    0.000    0.000    0.000    0.000    0.000    0.000 
#
# Total GULP energy -133932.635812 kJ/mol
# GULP energy per Si atom -5580.526492 kJ/mol
# Density = 1.975257 g / cm^3
# Si number density = 19.797626 Si / 1000 Ang^3
#
#
#
# Elastic Constant Matrix: (Units=GPa)
#
#
# Indices 1 2 3 4 5 6 
#
# 1 96.8792 69.1802 56.1545 0.0000 0.0000 0.0000
# 2 69.1802 168.0407 43.5957 0.0000 0.0000 0.0000
# 3 56.1545 43.5957 77.6715 0.0000 0.0000 0.0000
# 4 0.0000 0.0000 0.0000 33.0489 0.0000 0.0000
# 5 0.0000 0.0000 0.0000 0.0000 26.0680 0.0000
# 6 0.0000 0.0000 0.0000 0.0000 0.0000 20.6145
#
#
#
# Elastic Compliance Matrix: (Units=1/GPa)
#
#
# Indices 1 2 3 4 5 6 
#
# 1 0.021551 -0.005653 -0.012408 0.000000 0.000000 0.000000
# 2 -0.005653 0.008448 -0.000655 0.000000 0.000000 0.000000
# 3 -0.012408 -0.000655 0.022213 0.000000 0.000000 0.000000
# 4 0.000000 0.000000 0.000000 0.030258 0.000000 0.000000
# 5 0.000000 0.000000 0.000000 0.000000 0.038361 0.000000
# 6 0.000000 0.000000 0.000000 0.000000 0.000000 0.048510
#
#
# Mechanical properties :
#
#
# Convention : Reuss Voigt Hill
#
# Bulk Modulus (GPa) = 67.65665 75.60581 71.63123
# Shear Modulus (GPa) = 23.61845 27.52369 25.57107
#
# Velocity S-wave (km/s) = 3.45772 3.73265 3.59781
# Velocity P-wave (km/s) = 7.08445 7.53984 7.31569
#
# Compressibility (1/GPa) = 0.01478051
#
# Stress axis : x y z
#
# Youngs Moduli (GPa) = 46.40145 118.36898 45.01939
#
# Poissons Ratio (x) = 0.66917 0.55859
# Poissons Ratio (y) = 0.26232 0.02947
# Poissons Ratio (z) = 0.57574 0.07749
#
# Static dielectric constant tensor:
#      x y z
#    x 1.669070 0.000000 0.000000 
#    y 0.000000 1.760320 0.000000 
#    z 0.000000 0.000000 1.694090 
# 
# From -- ./inp_files/10075.got.cif
#   From: 2010.05.17/outbox.cif.g08.bks.cpg/sg43_6_cif.got.tgz:10075.got - 2010.06.03 19:21:55.
