data_PCOD9372696
_publ_section_title
;
Structure prediction by ZEFSAII (Michael W. Deem and Ramdas Pophale) SiO2 
 PCOD9372696
Probable space group: F D D 2
;
_chemical_formula_sum "Si O2"
_cell_formula_units_Z 80
_cell_length_a 10.625966
_cell_length_b 35.810185
_cell_length_c 9.617130
_cell_angle_alpha 90.000000
_cell_angle_beta 90.000000
_cell_angle_gamma 90.000000
_cell_volume 3659.489229
_symmetry_space_group_name_H-M "F D D 2"
_symmetry_group_IT_number 43
_symmetry_cell_setting 'orthorhombic'
loop_
_space_group_symop_operation_xyz
x,y,z
-x,-y,z
1/4-x,1/4+y,1/4+z
1/4+x,1/4-y,1/4+z
x,1/2+y,1/2+z
-x,1/2-y,1/2+z
1/4-x,3/4+y,3/4+z
1/4+x,3/4-y,3/4+z
1/2+x,y,1/2+z
1/2-x,-y,1/2+z
3/4-x,1/4+y,3/4+z
3/4+x,1/4-y,3/4+z
1/2+x,1/2+y,z
1/2-x,1/2-y,z
3/4-x,3/4+y,1/4+z
3/4+x,3/4-y,1/4+z
loop_
_atom_site_type_symbol
_atom_site_label
_atom_site_fract_x
_atom_site_fract_y
_atom_site_fract_z
Si Si1 0.254103 0.792654 0.422310
Si Si2 0.123446 0.115656 0.600420
Si Si3 0.376554 0.615656 0.077628
Si Si4 0.500000 0.163050 0.339024
Si Si5 0.504103 0.042654 0.505738
O O1 0.250000 0.750000 0.371992
O O2 0.148621 0.821259 0.367227
O O3 0.383752 0.810958 0.375949
O O4 0.250000 0.792436 0.589024
O O5 0.229407 0.123894 0.475989
O O6 0.020593 0.126106 0.452058
O O7 0.037360 0.137486 0.709614
O O8 0.462640 0.637486 0.968433
O O9 0.398621 0.571259 0.060821
O O10 0.383752 0.189043 0.302099
O O11 0.500000 0.000000 0.556056
#
# Coordination Sequence:
#
# PCOD9372696 Si02
#       5
#    16  16  16  16  16
#     4  11  25  45  68 100 141 181 222 287 351 401
#     4  12  23  42  72 100 129 181 233 276 339 412
#     4  12  23  42  72 100 129 181 233 276 339 412
#     4  12  24  48  67 100 142 174 232 290 329 418
#     4  11  25  45  68 100 141 181 222 287 351 401
#
# _framework density 21.860976000000001
#
# number of rings (size 3 to 8) (size 9 to 14) (size 15 to 20)
#    0.000    0.400    6.000    3.600    2.800    0.000 
#    0.000    2.000    0.000    0.000    0.000    0.000 
#    0.000    0.000    0.000    0.000    0.000    0.000 
#
# Total GULP energy -111582.477529 kJ/mol
# GULP energy per Si atom -5579.123876 kJ/mol
# Density = 2.181122 g / cm^3
# Si number density = 21.860976 Si / 1000 Ang^3
#
#
#
# Elastic Constant Matrix: (Units=GPa)
#
#
# Indices 1 2 3 4 5 6 
#
# 1 153.4198 68.0051 43.4091 0.0000 0.0000 0.0000
# 2 68.0051 225.2901 75.5528 0.0000 0.0000 0.0000
# 3 43.4091 75.5528 195.2594 0.0000 0.0000 0.0000
# 4 0.0000 0.0000 0.0000 -25.7108 0.0000 0.0000
# 5 0.0000 0.0000 0.0000 0.0000 29.3368 0.0000
# 6 0.0000 0.0000 0.0000 0.0000 0.0000 118.9782
#
#
#
# Elastic Compliance Matrix: (Units=1/GPa)
#
#
# Indices 1 2 3 4 5 6 
#
# 1 0.007669 -0.002003 -0.000930 0.000000 0.000000 0.000000
# 2 -0.002003 0.005624 -0.001731 0.000000 0.000000 0.000000
# 3 -0.000930 -0.001731 0.005998 0.000000 0.000000 0.000000
# 4 0.000000 0.000000 0.000000 -0.038894 0.000000 0.000000
# 5 0.000000 0.000000 0.000000 0.000000 0.034087 0.000000
# 6 0.000000 0.000000 0.000000 0.000000 0.000000 0.008405
#
#
# Mechanical properties :
#
#
# Convention : Reuss Voigt Hill
#
# Bulk Modulus (GPa) = 100.36901 105.32259 102.84580
# Shear Modulus (GPa) = 140.69951 50.32099 95.51025
#
# Velocity S-wave (km/s) = 8.03124 4.80298 6.61700
# Velocity P-wave (km/s) = 11.48970 8.89051 10.27264
#
# Compressibility (1/GPa) = 0.00996323
#
# Stress axis : x y z
#
# Youngs Moduli (GPa) = 130.39389 177.81627 166.72800
#
# Poissons Ratio (x) = 0.35619 0.15504
# Poissons Ratio (y) = 0.26119 0.28856
# Poissons Ratio (z) = 0.12125 0.30775
#
# Static dielectric constant tensor:
#      x y z
#    x 2.654950 0.000000 0.000000 
#    y 0.000000 1.762280 0.000000 
#    z 0.000000 0.000000 2.886720 
# 
# From -- ./inp_files/5703.got.cif
#   From: 2010.05.17/outbox.cif.g08.bks.cpg/sg43_3_cif.got.tgz:5703.got - 2010.06.03 19:21:55.
