data_PCOD9372701
_publ_section_title
;
Structure prediction by ZEFSAII (Michael W. Deem and Ramdas Pophale) SiO2 
 PCOD9372701
Probable space group: F D D 2
;
_chemical_formula_sum "Si O2"
_cell_formula_units_Z 104
_cell_length_a 20.879647
_cell_length_b 26.342781
_cell_length_c 8.327781
_cell_angle_alpha 90.000000
_cell_angle_beta 90.000000
_cell_angle_gamma 90.000000
_cell_volume 4580.512464
_symmetry_space_group_name_H-M "F D D 2"
_symmetry_group_IT_number 43
_symmetry_cell_setting 'orthorhombic'
loop_
_space_group_symop_operation_xyz
x,y,z
-x,-y,z
1/4-x,1/4+y,1/4+z
1/4+x,1/4-y,1/4+z
x,1/2+y,1/2+z
-x,1/2-y,1/2+z
1/4-x,3/4+y,3/4+z
1/4+x,3/4-y,3/4+z
1/2+x,y,1/2+z
1/2-x,-y,1/2+z
3/4-x,1/4+y,3/4+z
3/4+x,1/4-y,3/4+z
1/2+x,1/2+y,z
1/2-x,1/2-y,z
3/4-x,3/4+y,1/4+z
3/4+x,3/4-y,1/4+z
loop_
_atom_site_type_symbol
_atom_site_label
_atom_site_fract_x
_atom_site_fract_y
_atom_site_fract_z
Si Si1 0.728542 0.535791 0.116000
Si Si2 0.159647 0.292978 0.878871
Si Si3 0.478594 0.183487 0.739880
Si Si4 0.226710 0.670618 0.148201
Si Si5 0.114148 0.179463 0.875477
Si Si6 0.595660 0.076531 0.485104
Si Si7 0.750000 0.750000 0.412545
O O1 0.730462 0.552134 0.302240
O O2 0.795638 0.557457 0.046800
O O3 0.732354 0.475686 0.088816
O O4 0.665818 0.556296 0.029949
O O5 0.095262 0.310796 0.792043
O O6 0.217890 0.306386 0.761111
O O7 0.146223 0.233508 0.921331
O O8 0.169851 0.320311 0.047451
O O9 0.498955 0.127644 0.795718
O O10 0.166739 0.656306 0.257300
O O11 0.206092 0.715120 0.026690
O O12 0.099891 0.137376 0.011312
O O13 0.543853 0.040393 0.570213
#
# Coordination Sequence:
#
# PCOD9372701 Si02
#       7
#    16  16  16  16  16  16   8
#     4  11  26  47  72 110 150 195 253 318 377 477
#     4  11  25  46  75 108 148 202 251 315 377 465
#     4  11  25  46  74 105 147 201 255 309 390 456
#     4  12  25  47  76 108 149 203 255 313 391 468
#     4  11  25  45  75 106 145 199 249 307 384 458
#     4  12  28  46  76 110 151 195 253 322 388 447
#     4  12  28  46  70 116 148 196 252 326 378 460
#
# _framework density 22.704882999999999
#
# number of rings (size 3 to 8) (size 9 to 14) (size 15 to 20)
#    0.000    0.615    3.077    3.692    6.462    3.692 
#    0.000    0.000    0.000    0.000    0.000    0.000 
#    0.000    0.000    0.000    0.000    0.000    0.000 
#
# Total GULP energy -145342.571157 kJ/mol
# GULP energy per Si atom -5590.098891 kJ/mol
# Density = 2.265321 g / cm^3
# Si number density = 22.704883 Si / 1000 Ang^3
#
#
#
# Elastic Constant Matrix: (Units=GPa)
#
#
# Indices 1 2 3 4 5 6 
#
# 1 85.7678 41.0140 21.7897 0.0001 -0.0002 -0.0001
# 2 41.0140 172.0934 41.3961 0.0001 -0.0001 0.0000
# 3 21.7897 41.3961 96.8583 0.0006 -0.0009 -0.0004
# 4 0.0001 0.0001 0.0006 30.7128 -0.0003 -0.0002
# 5 -0.0002 -0.0001 -0.0009 -0.0003 32.8839 0.0003
# 6 -0.0001 0.0000 -0.0004 -0.0002 0.0003 22.4707
#
#
#
# Elastic Compliance Matrix: (Units=1/GPa)
#
#
# Indices 1 2 3 4 5 6 
#
# 1 0.013449 -0.002761 -0.001845 0.000000 0.000000 0.000000
# 2 -0.002761 0.007044 -0.002389 0.000000 0.000000 0.000000
# 3 -0.001845 -0.002389 0.011761 0.000000 0.000000 0.000000
# 4 0.000000 0.000000 0.000000 0.032560 0.000000 0.000000
# 5 0.000000 0.000000 0.000000 0.000000 0.030410 0.000000
# 6 0.000000 0.000000 0.000000 0.000000 0.000000 0.044502
#
#
# Mechanical properties :
#
#
# Convention : Reuss Voigt Hill
#
# Bulk Modulus (GPa) = 54.76058 62.56877 58.66468
# Shear Modulus (GPa) = 31.28843 33.91479 32.60161
#
# Velocity S-wave (km/s) = 3.71623 3.86906 3.79342
# Velocity P-wave (km/s) = 6.52569 6.89759 6.71422
#
# Compressibility (1/GPa) = 0.01826131
#
# Stress axis : x y z
#
# Youngs Moduli (GPa) = 74.35702 141.97347 85.02978
#
# Poissons Ratio (x) = 0.39202 0.15691
# Poissons Ratio (y) = 0.20532 0.20315
# Poissons Ratio (z) = 0.13721 0.33920
#
# Static dielectric constant tensor:
#      x y z
#    x 1.803830 0.000000 0.000000 
#    y 0.000000 1.918650 0.000000 
#    z 0.000000 0.000000 1.826700 
# 
# From -- ./inp_files/3368.got.cif
#   From: 2010.05.17/outbox.cif.g08.bks.cpg/sg43_2_cif.got.tgz:3368.got - 2010.06.03 19:21:55.
