data_PCOD9372567
_publ_section_title
;
Structure prediction by ZEFSAII (Michael W. Deem and Ramdas Pophale) SiO2 
 PCOD9372567
Probable space group: F D D 2
;
_chemical_formula_sum "Si O2"
_cell_formula_units_Z 120
_cell_length_a 16.535124
_cell_length_b 21.052389
_cell_length_c 16.772407
_cell_angle_alpha 90.000000
_cell_angle_beta 90.000000
_cell_angle_gamma 90.000000
_cell_volume 5838.539662
_symmetry_space_group_name_H-M "F D D 2"
_symmetry_group_IT_number 43
_symmetry_cell_setting 'orthorhombic'
loop_
_space_group_symop_operation_xyz
x,y,z
-x,-y,z
1/4-x,1/4+y,1/4+z
1/4+x,1/4-y,1/4+z
x,1/2+y,1/2+z
-x,1/2-y,1/2+z
1/4-x,3/4+y,3/4+z
1/4+x,3/4-y,3/4+z
1/2+x,y,1/2+z
1/2-x,-y,1/2+z
3/4-x,1/4+y,3/4+z
3/4+x,1/4-y,3/4+z
1/2+x,1/2+y,z
1/2-x,1/2-y,z
3/4-x,3/4+y,1/4+z
3/4+x,3/4-y,1/4+z
loop_
_atom_site_type_symbol
_atom_site_label
_atom_site_fract_x
_atom_site_fract_y
_atom_site_fract_z
Si Si1 0.220867 0.464195 0.166690
Si Si2 0.250000 0.250000 0.346721
Si Si3 0.246841 0.092108 0.000355
Si Si4 0.839129 0.065436 0.127084
Si Si5 0.070899 0.552608 0.962985
Si Si6 0.984651 0.791002 0.201568
Si Si7 0.673364 0.876581 0.303243
Si Si8 0.679876 0.800103 0.902791
O O1 0.209852 0.436945 0.077843
O O2 0.302262 0.503850 0.169649
O O3 0.219602 0.409258 0.230632
O O4 0.151595 0.515854 0.178818
O O5 0.315242 0.299960 0.383495
O O6 0.306699 0.198271 0.304517
O O7 0.171472 0.131555 0.034527
O O8 0.304878 0.135549 0.949416
O O9 0.213017 0.033694 0.947913
O O10 0.810584 0.130742 0.166975
O O11 0.802396 0.063921 0.036895
O O12 0.166772 0.538298 0.947404
O O13 0.000000 0.500000 0.942979
O O14 0.067100 0.561882 0.058219
O O15 0.948087 0.835128 0.132623
O O16 0.750000 0.750000 0.921387
#
# Coordination Sequence:
#
# PCOD9372567 Si02
#       8
#    16   8  16  16  16  16  16  16
#     4  11  25  45  68 102 141 178 238 288 353 426
#     4  12  24  48  70  98 146 180 240 294 348 426
#     4  11  25  45  69 102 140 183 235 298 347 427
#     4  11  25  48  69 103 141 189 233 300 357 430
#     4  11  25  45  74 105 142 186 233 298 361 430
#     4  11  25  47  68 105 142 179 246 286 356 436
#     4  12  26  46  71 101 137 193 230 297 356 423
#     4  11  23  45  70 104 142 180 229 293 354 426
#
# _framework density 20.553083999999998
#
# number of rings (size 3 to 8) (size 9 to 14) (size 15 to 20)
#    0.000    0.800    8.000    0.000    5.600    1.067 
#    2.400    0.000    0.000    0.000    0.000    0.000 
#    0.000    0.000    0.000    0.000    0.000    0.000 
#
# Total GULP energy -167306.881579 kJ/mol
# GULP energy per Si atom -5576.896053 kJ/mol
# Density = 2.050630 g / cm^3
# Si number density = 20.553084 Si / 1000 Ang^3
#
#
#
# Elastic Constant Matrix: (Units=GPa)
#
#
# Indices 1 2 3 4 5 6 
#
# 1 90.2560 12.9151 4.2733 0.0000 0.0000 0.0000
# 2 12.9151 110.5423 43.1504 0.0000 0.0000 0.0000
# 3 4.2733 43.1504 39.7078 0.0000 0.0000 0.0000
# 4 0.0000 0.0000 0.0000 41.1123 0.0000 0.0000
# 5 0.0000 0.0000 0.0000 0.0000 21.9610 0.0000
# 6 0.0000 0.0000 0.0000 0.0000 0.0000 35.6139
#
#
#
# Elastic Compliance Matrix: (Units=1/GPa)
#
#
# Indices 1 2 3 4 5 6 
#
# 1 0.011271 -0.001465 0.000379 0.000000 0.000000 0.000000
# 2 -0.001465 0.015901 -0.017122 0.000000 0.000000 0.000000
# 3 0.000379 -0.017122 0.043750 0.000000 0.000000 0.000000
# 4 0.000000 0.000000 0.000000 0.024324 0.000000 0.000000
# 5 0.000000 0.000000 0.000000 0.000000 0.045535 0.000000
# 6 0.000000 0.000000 0.000000 0.000000 0.000000 0.028079
#
#
# Mechanical properties :
#
#
# Convention : Reuss Voigt Hill
#
# Bulk Modulus (GPa) = 28.98054 40.13151 34.55603
# Shear Modulus (GPa) = 23.06508 31.74859 27.40684
#
# Velocity S-wave (km/s) = 3.35359 3.93455 3.65563
# Velocity P-wave (km/s) = 5.39688 6.34106 5.88793
#
# Compressibility (1/GPa) = 0.03450591
#
# Stress axis : x y z
#
# Youngs Moduli (GPa) = 88.72128 62.88897 22.85731
#
# Poissons Ratio (x) = 0.09211 -0.00865
# Poissons Ratio (y) = 0.12995 0.39136
# Poissons Ratio (z) = -0.03359 1.07679
#
# Static dielectric constant tensor:
#      x y z
#    x 1.802350 0.000000 0.000000 
#    y 0.000000 1.706810 0.000000 
#    z 0.000000 0.000000 1.725500 
# 
# From -- ./inp_files/14290.got.cif
#   From: 2010.05.17/outbox.cif.g08.bks.cpg/sg43_8_cif.got.tgz:14290.got - 2010.06.03 19:21:55.
