data_PCOD9372668
_publ_section_title
;
Structure prediction by ZEFSAII (Michael W. Deem and Ramdas Pophale) SiO2 
 PCOD9372668
Probable space group: F D D 2
;
_chemical_formula_sum "Si O2"
_cell_formula_units_Z 96
_cell_length_a 21.044399
_cell_length_b 14.473568
_cell_length_c 13.368802
_cell_angle_alpha 90.000000
_cell_angle_beta 90.000000
_cell_angle_gamma 90.000000
_cell_volume 4071.970513
_symmetry_space_group_name_H-M "F D D 2"
_symmetry_group_IT_number 43
_symmetry_cell_setting 'orthorhombic'
loop_
_space_group_symop_operation_xyz
x,y,z
-x,-y,z
1/4-x,1/4+y,1/4+z
1/4+x,1/4-y,1/4+z
x,1/2+y,1/2+z
-x,1/2-y,1/2+z
1/4-x,3/4+y,3/4+z
1/4+x,3/4-y,3/4+z
1/2+x,y,1/2+z
1/2-x,-y,1/2+z
3/4-x,1/4+y,3/4+z
3/4+x,1/4-y,3/4+z
1/2+x,1/2+y,z
1/2-x,1/2-y,z
3/4-x,3/4+y,1/4+z
3/4+x,3/4-y,1/4+z
loop_
_atom_site_type_symbol
_atom_site_label
_atom_site_fract_x
_atom_site_fract_y
_atom_site_fract_z
Si Si1 0.861269 0.188371 0.956340
Si Si2 0.645342 0.764199 0.226136
Si Si3 0.506338 0.364382 0.340659
Si Si4 0.250000 0.750000 0.269130
Si Si5 0.000000 0.000000 0.829664
Si Si6 0.238948 0.565046 0.476394
Si Si7 0.093700 0.138707 0.569295
O O1 0.848400 0.195556 0.837701
O O2 0.795698 0.170243 0.021111
O O3 0.901728 0.279009 0.986061
O O4 0.901077 0.096850 0.982192
O O5 0.698351 0.796831 0.150654
O O6 0.576652 0.782604 0.176298
O O7 0.501917 0.408952 0.450026
O O8 0.494518 0.257881 0.316045
O O9 0.580911 0.376037 0.323396
O O10 0.185509 0.783467 0.320742
O O11 0.974719 0.082341 0.762664
O O12 0.301517 0.565667 0.407964
#
# Coordination Sequence:
#
# PCOD9372668 Si02
#       7
#    16  16  16   8   8  16  16
#     4  11  24  47  76 112 153 193 266 321 395 449
#     4  11  26  48  73 111 148 201 262 321 388 466
#     4  11  25  46  73 113 146 195 254 313 381 455
#     4  12  25  43  70 114 144 194 252 305 389 444
#     4  12  27  49  76 102 152 210 258 321 389 474
#     4  11  27  49  70 111 152 199 259 313 389 463
#     4  12  25  44  74 106 156 199 242 320 379 471
#
# _framework density 23.575810000000001
#
# number of rings (size 3 to 8) (size 9 to 14) (size 15 to 20)
#    0.000    0.667    3.333    3.500    4.667    5.333 
#    0.000    0.000    0.000    0.000    0.000    0.000 
#    0.000    0.000    0.000    0.000    0.000    0.000 
#
# Total GULP energy -133676.678723 kJ/mol
# GULP energy per Si atom -5569.861613 kJ/mol
# Density = 2.352215 g / cm^3
# Si number density = 23.575810 Si / 1000 Ang^3
#
#
#
# Elastic Constant Matrix: (Units=GPa)
#
#
# Indices 1 2 3 4 5 6 
#
# 1 113.3773 26.2297 12.4540 0.0000 0.0000 0.0000
# 2 26.2297 92.7246 4.2224 0.0000 0.0000 0.0000
# 3 12.4540 4.2224 48.1152 0.0000 0.0000 0.0000
# 4 0.0000 0.0000 0.0000 -11.9602 0.0000 0.0000
# 5 0.0000 0.0000 0.0000 0.0000 -33.5387 0.0000
# 6 0.0000 0.0000 0.0000 0.0000 0.0000 45.8481
#
#
#
# Elastic Compliance Matrix: (Units=1/GPa)
#
#
# Indices 1 2 3 4 5 6 
#
# 1 0.009679 -0.002635 -0.002274 0.000000 0.000000 0.000000
# 2 -0.002635 0.011545 -0.000331 0.000000 0.000000 0.000000
# 3 -0.002274 -0.000331 0.021401 0.000000 0.000000 0.000000
# 4 0.000000 0.000000 0.000000 -0.083611 0.000000 0.000000
# 5 0.000000 0.000000 0.000000 0.000000 -0.029816 0.000000
# 6 0.000000 0.000000 0.000000 0.000000 0.000000 0.021811
#
#
# Mechanical properties :
#
#
# Convention : Reuss Voigt Hill
#
# Bulk Modulus (GPa) = 31.10840 37.78102 34.44471
# Shear Modulus (GPa) = -179.88763 14.15723 -82.86520
#
# Velocity S-wave (km/s) = -8.74457 2.45317 -5.93504
# Velocity P-wave (km/s) = 9.41981 4.90756 5.68545
#
# Compressibility (1/GPa) = 0.03214566
#
# Stress axis : x y z
#
# Youngs Moduli (GPa) = 103.31203 86.61790 46.72642
#
# Poissons Ratio (x) = 0.22820 0.10626
# Poissons Ratio (y) = 0.27218 0.01548
# Poissons Ratio (z) = 0.23495 0.02869
#
# Static dielectric constant tensor:
#      x y z
#    x 1.858440 0.000000 0.000000 
#    y 0.000000 2.002890 0.000000 
#    z 0.000000 0.000000 2.072500 
# 
# From -- ./inp_files/10933.got.cif
#   From: 2010.05.17/outbox.cif.g08.bks.cpg/sg43_6_cif.got.tgz:10933.got - 2010.06.03 19:21:55.
