data_PCOD9372233
_publ_section_title
;
Structure prediction by ZEFSAII (Michael W. Deem and Ramdas Pophale) SiO2 
 PCOD9372233
Probable space group: F D D 2
;
_chemical_formula_sum "Si O2"
_cell_formula_units_Z 96
_cell_length_a 26.262117
_cell_length_b 17.532546
_cell_length_c 7.940030
_cell_angle_alpha 90.000000
_cell_angle_beta 90.000000
_cell_angle_gamma 90.000000
_cell_volume 3655.921502
_symmetry_space_group_name_H-M "F D D 2"
_symmetry_group_IT_number 43
_symmetry_cell_setting 'orthorhombic'
loop_
_space_group_symop_operation_xyz
x,y,z
-x,-y,z
1/4-x,1/4+y,1/4+z
1/4+x,1/4-y,1/4+z
x,1/2+y,1/2+z
-x,1/2-y,1/2+z
1/4-x,3/4+y,3/4+z
1/4+x,3/4-y,3/4+z
1/2+x,y,1/2+z
1/2-x,-y,1/2+z
3/4-x,1/4+y,3/4+z
3/4+x,1/4-y,3/4+z
1/2+x,1/2+y,z
1/2-x,1/2-y,z
3/4-x,3/4+y,1/4+z
3/4+x,3/4-y,1/4+z
loop_
_atom_site_type_symbol
_atom_site_label
_atom_site_fract_x
_atom_site_fract_y
_atom_site_fract_z
Si Si1 0.887718 0.903359 0.829780
Si Si2 0.694208 0.987483 0.492989
Si Si3 0.345011 0.661418 0.184568
Si Si4 0.797867 0.810459 0.762825
Si Si5 0.791796 0.897585 0.415429
Si Si6 0.247160 0.140978 0.110875
O O1 0.899653 0.902514 0.633081
O O2 0.852500 0.829001 0.849824
O O3 0.943502 0.897165 0.906808
O O4 0.852123 0.972609 0.891963
O O5 0.671931 0.917249 0.600144
O O6 0.742864 0.951794 0.398213
O O7 0.721598 0.058070 0.585094
O O8 0.304831 0.729939 0.168112
O O9 0.402424 0.682046 0.128444
O O10 0.790592 0.870193 0.610387
O O11 0.762363 0.823230 0.925739
O O12 0.783464 0.831211 0.275998
#
# Coordination Sequence:
#
# PCOD9372233 Si02
#       6
#    16  16  16  16  16  16
#     4  10  25  48  80 113 162 214 282 341 415 494
#     4  11  27  47  80 124 157 218 279 337 422 504
#     4  11  26  50  79 115 171 212 267 347 419 497
#     4  10  25  51  75 116 160 217 269 341 414 500
#     4  11  27  46  81 114 159 213 273 333 411 496
#     4  11  26  48  83 114 160 215 278 340 414 501
#
# _framework density 26.258769999999998
#
# number of rings (size 3 to 8) (size 9 to 14) (size 15 to 20)
#    0.000    1.333    0.000    2.000   18.667    4.000 
#    3.000    0.000    0.000    0.000    0.000    0.000 
#    0.000    0.000    0.000    0.000    0.000    0.000 
#
# Total GULP energy -134107.116786 kJ/mol
# GULP energy per Si atom -5587.796533 kJ/mol
# Density = 2.619900 g / cm^3
# Si number density = 26.258770 Si / 1000 Ang^3
#
#
#
# Elastic Constant Matrix: (Units=GPa)
#
#
# Indices 1 2 3 4 5 6 
#
# 1 205.1489 52.5284 54.8651 0.0000 0.0000 0.0000
# 2 52.5284 130.0170 47.9775 0.0000 0.0000 0.0000
# 3 54.8651 47.9775 129.4893 -0.0001 0.0000 0.0000
# 4 0.0000 0.0000 -0.0001 26.6957 0.0000 0.0000
# 5 0.0000 0.0000 0.0000 0.0000 42.1867 0.0000
# 6 0.0000 0.0000 0.0000 0.0000 0.0000 35.7473
#
#
#
# Elastic Compliance Matrix: (Units=1/GPa)
#
#
# Indices 1 2 3 4 5 6 
#
# 1 0.005792 -0.001662 -0.001838 0.000000 0.000000 0.000000
# 2 -0.001662 0.009386 -0.002774 0.000000 0.000000 0.000000
# 3 -0.001838 -0.002774 0.009529 0.000000 0.000000 0.000000
# 4 0.000000 0.000000 0.000000 0.037459 0.000000 0.000000
# 5 0.000000 0.000000 0.000000 0.000000 0.023704 0.000000
# 6 0.000000 0.000000 0.000000 0.000000 0.000000 0.027974
#
#
# Mechanical properties :
#
#
# Convention : Reuss Voigt Hill
#
# Bulk Modulus (GPa) = 82.23751 86.15525 84.19638
# Shear Modulus (GPa) = 38.33042 41.54489 39.93765
#
# Velocity S-wave (km/s) = 3.82477 3.98192 3.90414
# Velocity P-wave (km/s) = 7.13381 7.34998 7.24270
#
# Compressibility (1/GPa) = 0.01215990
#
# Stress axis : x y z
#
# Youngs Moduli (GPa) = 172.66466 106.54071 104.94038
#
# Poissons Ratio (x) = 0.17702 0.19291
# Poissons Ratio (y) = 0.28688 0.29107
# Poissons Ratio (z) = 0.31741 0.29551
#
# Static dielectric constant tensor:
#      x y z
#    x 2.142930 0.000000 0.000000 
#    y 0.000000 2.124790 0.000000 
#    z 0.000000 0.000000 2.201920 
# 
# From -- ./inp_files/3728.got.cif
#   From: 2010.05.17/outbox.cif.g08.bks.cpg/sg43_2_cif.got.tgz:3728.got - 2010.06.03 19:21:55.
