data_PCOD9372037
_publ_section_title
;
Structure prediction by ZEFSAII (Michael W. Deem and Ramdas Pophale) SiO2 
 PCOD9372037
Probable space group: F D D 2
;
_chemical_formula_sum "Si O2"
_cell_formula_units_Z 80
_cell_length_a 23.177283
_cell_length_b 6.625047
_cell_length_c 19.890831
_cell_angle_alpha 90.000000
_cell_angle_beta 90.000000
_cell_angle_gamma 90.000000
_cell_volume 3054.248820
_symmetry_space_group_name_H-M "F D D 2"
_symmetry_group_IT_number 43
_symmetry_cell_setting 'orthorhombic'
loop_
_space_group_symop_operation_xyz
x,y,z
-x,-y,z
1/4-x,1/4+y,1/4+z
1/4+x,1/4-y,1/4+z
x,1/2+y,1/2+z
-x,1/2-y,1/2+z
1/4-x,3/4+y,3/4+z
1/4+x,3/4-y,3/4+z
1/2+x,y,1/2+z
1/2-x,-y,1/2+z
3/4-x,1/4+y,3/4+z
3/4+x,1/4-y,3/4+z
1/2+x,1/2+y,z
1/2-x,1/2-y,z
3/4-x,3/4+y,1/4+z
3/4+x,3/4-y,1/4+z
loop_
_atom_site_type_symbol
_atom_site_label
_atom_site_fract_x
_atom_site_fract_y
_atom_site_fract_z
Si Si1 0.610326 0.293153 0.183750
Si Si2 0.778074 0.466226 0.683672
Si Si3 0.750000 0.750000 0.805726
Si Si4 0.623420 0.677238 0.836718
Si Si5 0.000000 0.000000 0.191563
Si Si6 0.289982 0.924868 0.541541
O O1 0.655398 0.473091 0.176649
O O2 0.636519 0.090632 0.147681
O O3 0.607610 0.269485 0.264087
O O4 0.547729 0.359449 0.155586
O O5 0.750000 0.250000 0.692027
O O6 0.762755 0.576121 0.751746
O O7 0.757813 0.514743 0.607369
O O8 0.692972 0.671259 0.842407
O O9 0.593015 0.458630 0.822517
O O10 0.959942 0.851318 0.237383
O O11 0.250000 0.750000 0.510821
#
# Coordination Sequence:
#
# PCOD9372037 Si02
#       6
#    16  16   8  16   8  16
#     4  11  26  48  73 116 159 206 274 333 407 495
#     4  10  24  42  73 105 145 205 264 322 394 481
#     4  10  25  46  72 106 162 194 273 316 414 472
#     4  11  26  48  75 111 161 207 264 337 408 494
#     4  12  25  46  78 114 162 208 281 334 414 478
#     4  11  24  43  78 109 151 211 276 331 406 488
#
# _framework density 26.193021999999999
#
# number of rings (size 3 to 8) (size 9 to 14) (size 15 to 20)
#    0.000    1.200    2.000    1.800   14.000    3.200 
#    7.200    0.000    0.000    0.000    0.000    0.000 
#    0.000    0.000    0.000    0.000    0.000    0.000 
#
# Total GULP energy -111342.026408 kJ/mol
# GULP energy per Si atom -5567.101320 kJ/mol
# Density = 2.613341 g / cm^3
# Si number density = 26.193022 Si / 1000 Ang^3
#
#
#
# Elastic Constant Matrix: (Units=GPa)
#
#
# Indices 1 2 3 4 5 6 
#
# 1 132.7336 74.9521 4.1329 0.0000 0.0000 0.0000
# 2 74.9521 126.3553 33.6534 0.0000 0.0000 0.0000
# 3 4.1329 33.6534 79.9255 0.0000 0.0000 0.0000
# 4 0.0000 0.0000 0.0000 53.2458 0.0000 0.0000
# 5 0.0000 0.0000 0.0000 0.0000 24.8127 0.0000
# 6 0.0000 0.0000 0.0000 0.0000 0.0000 66.5223
#
#
#
# Elastic Compliance Matrix: (Units=1/GPa)
#
#
# Indices 1 2 3 4 5 6 
#
# 1 0.011801 -0.007701 0.002632 0.000000 0.000000 0.000000
# 2 -0.007701 0.013939 -0.005471 0.000000 0.000000 0.000000
# 3 0.002632 -0.005471 0.014679 0.000000 0.000000 0.000000
# 4 0.000000 0.000000 0.000000 0.018781 0.000000 0.000000
# 5 0.000000 0.000000 0.000000 0.000000 0.040302 0.000000
# 6 0.000000 0.000000 0.000000 0.000000 0.000000 0.015033
#
#
# Mechanical properties :
#
#
# Convention : Reuss Voigt Hill
#
# Bulk Modulus (GPa) = 51.70709 62.72124 57.21417
# Shear Modulus (GPa) = 35.19623 44.00122 39.59873
#
# Velocity S-wave (km/s) = 3.66966 4.10308 3.89241
# Velocity P-wave (km/s) = 6.14320 6.81504 6.48782
#
# Compressibility (1/GPa) = 0.01933971
#
# Stress axis : x y z
#
# Youngs Moduli (GPa) = 84.74185 71.73859 68.12359
#
# Poissons Ratio (x) = 0.55246 -0.17933
# Poissons Ratio (y) = 0.65260 0.37271
# Poissons Ratio (z) = -0.22307 0.39249
#
# Static dielectric constant tensor:
#      x y z
#    x 2.270810 0.000000 0.000000 
#    y 0.000000 2.306310 0.000000 
#    z 0.000000 0.000000 2.047830 
# 
# From -- ./inp_files/26692.got.cif
#   From: 2010.05.17/outbox.cif.g08.bks.cpg/sg43_14_cif.got.tgz:26692.got - 2010.06.03 19:21:55.
