data_PCOD9372290
_publ_section_title
;
Structure prediction by ZEFSAII (Michael W. Deem and Ramdas Pophale) SiO2 
 PCOD9372290
Probable space group: F D D 2
;
_chemical_formula_sum "Si O2"
_cell_formula_units_Z 112
_cell_length_a 11.810009
_cell_length_b 27.565264
_cell_length_c 14.557518
_cell_angle_alpha 90.000000
_cell_angle_beta 90.000000
_cell_angle_gamma 90.000000
_cell_volume 4739.141987
_symmetry_space_group_name_H-M "F D D 2"
_symmetry_group_IT_number 43
_symmetry_cell_setting 'orthorhombic'
loop_
_space_group_symop_operation_xyz
x,y,z
-x,-y,z
1/4-x,1/4+y,1/4+z
1/4+x,1/4-y,1/4+z
x,1/2+y,1/2+z
-x,1/2-y,1/2+z
1/4-x,3/4+y,3/4+z
1/4+x,3/4-y,3/4+z
1/2+x,y,1/2+z
1/2-x,-y,1/2+z
3/4-x,1/4+y,3/4+z
3/4+x,1/4-y,3/4+z
1/2+x,1/2+y,z
1/2-x,1/2-y,z
3/4-x,3/4+y,1/4+z
3/4+x,3/4-y,1/4+z
loop_
_atom_site_type_symbol
_atom_site_label
_atom_site_fract_x
_atom_site_fract_y
_atom_site_fract_z
Si Si1 0.941072 0.325217 0.873060
Si Si2 0.711165 0.447566 0.466733
Si Si3 0.111415 0.969929 0.939189
Si Si4 0.126053 0.372570 0.320064
Si Si5 0.538766 0.426168 0.306165
Si Si6 0.316323 0.934388 0.743302
Si Si7 0.118702 0.247395 0.903156
O O1 0.876887 0.294321 0.795821
O O2 0.976869 0.375057 0.825790
O O3 0.061312 0.299375 0.891999
O O4 0.866527 0.327289 0.965295
O O5 0.785879 0.491947 0.426939
O O6 0.790405 0.400819 0.494673
O O7 0.617692 0.435237 0.392309
O O8 0.649554 0.467023 0.559026
O O9 0.100164 0.922278 0.875730
O O10 0.000000 0.000000 0.925039
O O11 0.247948 0.387395 0.280470
O O12 0.123063 0.331109 0.397125
O O13 0.422085 0.457203 0.297274
O O14 0.214506 0.971040 0.724208
O O15 0.250000 0.250000 0.927968
#
# Coordination Sequence:
#
# PCOD9372290 Si02
#       7
#    16  16  16  16  16  16  16
#     4  11  28  46  76 110 152 203 257 325 391 479
#     4  10  27  47  77 116 160 205 261 334 400 476
#     4  11  25  47  78 111 159 205 273 323 399 486
#     4  11  24  47  75 111 149 207 258 320 401 459
#     4  12  27  47  77 112 150 204 258 317 405 474
#     4  11  25  45  78 107 152 202 257 318 388 473
#     4  10  26  50  71 109 158 199 254 329 387 467
#
# _framework density 23.63297
#
# number of rings (size 3 to 8) (size 9 to 14) (size 15 to 20)
#    0.000    1.143    1.429    1.714   12.000    4.000 
#    0.000    0.000    0.000    0.000    0.000    0.000 
#    0.000    0.000    0.000    0.000    0.000    0.000 
#
# Total GULP energy -156524.560997 kJ/mol
# GULP energy per Si atom -5590.162893 kJ/mol
# Density = 2.357918 g / cm^3
# Si number density = 23.632970 Si / 1000 Ang^3
#
#
#
# Elastic Constant Matrix: (Units=GPa)
#
#
# Indices 1 2 3 4 5 6 
#
# 1 212.5153 66.4484 77.5227 0.0000 0.0000 0.0000
# 2 66.4484 72.1314 30.9303 0.0000 0.0000 0.0000
# 3 77.5227 30.9303 128.0323 0.0000 0.0000 0.0000
# 4 0.0000 0.0000 0.0000 23.9263 0.0000 0.0000
# 5 0.0000 0.0000 0.0000 0.0000 31.4738 0.0000
# 6 0.0000 0.0000 0.0000 0.0000 0.0000 40.7734
#
#
#
# Elastic Compliance Matrix: (Units=1/GPa)
#
#
# Indices 1 2 3 4 5 6 
#
# 1 0.007671 -0.005662 -0.003277 0.000000 0.000000 0.000000
# 2 -0.005662 0.019644 -0.001318 0.000000 0.000000 0.000000
# 3 -0.003277 -0.001318 0.010113 0.000000 0.000000 0.000000
# 4 0.000000 0.000000 0.000000 0.041795 0.000000 0.000000
# 5 0.000000 0.000000 0.000000 0.000000 0.031772 0.000000
# 6 0.000000 0.000000 0.000000 0.000000 0.000000 0.024526
#
#
# Mechanical properties :
#
#
# Convention : Reuss Voigt Hill
#
# Bulk Modulus (GPa) = 59.11632 84.72020 71.91826
# Shear Modulus (GPa) = 30.92659 35.08652 33.00656
#
# Velocity S-wave (km/s) = 3.62141 3.85729 3.74121
# Velocity P-wave (km/s) = 6.52340 7.46755 7.01139
#
# Compressibility (1/GPa) = 0.01691580
#
# Stress axis : x y z
#
# Youngs Moduli (GPa) = 130.35686 50.90580 98.88133
#
# Poissons Ratio (x) = 0.28821 0.32405
# Poissons Ratio (y) = 0.73803 0.13029
# Poissons Ratio (z) = 0.42720 0.06707
#
# Static dielectric constant tensor:
#      x y z
#    x 1.887170 0.000000 0.000000 
#    y 0.000000 2.042790 0.000000 
#    z 0.000000 0.000000 1.972220 
# 
# From -- ./inp_files/9798.got.cif
#   From: 2010.05.17/outbox.cif.g08.bks.cpg/sg43_5_cif.got.tgz:9798.got - 2010.06.03 19:21:55.
