data_PCOD9372358
_publ_section_title
;
Structure prediction by ZEFSAII (Michael W. Deem and Ramdas Pophale) SiO2 
 PCOD9372358
Probable space group: F D D 2
;
_chemical_formula_sum "Si O2"
_cell_formula_units_Z 80
_cell_length_a 27.904460
_cell_length_b 18.295274
_cell_length_c 7.803213
_cell_angle_alpha 90.000000
_cell_angle_beta 90.000000
_cell_angle_gamma 90.000000
_cell_volume 3983.694284
_symmetry_space_group_name_H-M "F D D 2"
_symmetry_group_IT_number 43
_symmetry_cell_setting 'orthorhombic'
loop_
_space_group_symop_operation_xyz
x,y,z
-x,-y,z
1/4-x,1/4+y,1/4+z
1/4+x,1/4-y,1/4+z
x,1/2+y,1/2+z
-x,1/2-y,1/2+z
1/4-x,3/4+y,3/4+z
1/4+x,3/4-y,3/4+z
1/2+x,y,1/2+z
1/2-x,-y,1/2+z
3/4-x,1/4+y,3/4+z
3/4+x,1/4-y,3/4+z
1/2+x,1/2+y,z
1/2-x,1/2-y,z
3/4-x,3/4+y,1/4+z
3/4+x,3/4-y,1/4+z
loop_
_atom_site_type_symbol
_atom_site_label
_atom_site_fract_x
_atom_site_fract_y
_atom_site_fract_z
Si Si1 0.302571 0.715065 0.838340
Si Si2 0.193285 0.944886 0.699769
Si Si3 0.794453 0.694939 0.706209
Si Si4 0.916541 0.538302 0.248759
Si Si5 0.238424 0.580605 0.385766
O O1 0.250000 0.750000 0.841409
O O2 0.293849 0.632126 0.783780
O O3 0.331431 0.760697 0.695269
O O4 0.323250 0.709444 0.031455
O O5 0.135990 0.940375 0.685977
O O6 0.224281 0.947917 0.526982
O O7 0.206849 0.014915 0.813382
O O8 0.750000 0.750000 0.694851
O O9 0.770674 0.616313 0.734400
O O10 0.819763 0.718817 0.880989
O O11 0.954443 0.604107 0.212031
#
# Coordination Sequence:
#
# PCOD9372358 Si02
#       5
#    16  16  16  16  16
#     4  11  20  43  70  93 131 184 225 275 348 411
#     4  12  24  41  69 100 142 178 227 292 346 405
#     4   9  20  40  68  94 130 181 224 272 342 409
#     4  11  22  45  68  97 136 186 227 277 348 421
#     4  11  23  43  67 103 145 174 232 292 340 408
#
# _framework density 20.081862000000001
#
# number of rings (size 3 to 8) (size 9 to 14) (size 15 to 20)
#    0.000    1.200    4.000    3.000    0.000    0.000 
#   10.800    0.000    0.000    0.000    0.000    0.000 
#    0.000    0.000    0.000    0.000    0.000    0.000 
#
# Total GULP energy -111529.883622 kJ/mol
# GULP energy per Si atom -5576.494181 kJ/mol
# Density = 2.003615 g / cm^3
# Si number density = 20.081862 Si / 1000 Ang^3
#
#
#
# Elastic Constant Matrix: (Units=GPa)
#
#
# Indices 1 2 3 4 5 6 
#
# 1 84.9623 15.3566 31.9071 0.0000 0.0000 0.0000
# 2 15.3566 93.1543 10.1356 0.0000 0.0000 0.0000
# 3 31.9071 10.1356 96.3307 -0.0001 -0.0001 0.0000
# 4 0.0000 0.0000 -0.0001 4.0766 0.0000 0.0000
# 5 0.0000 0.0000 -0.0001 0.0000 -52.2734 0.0000
# 6 0.0000 0.0000 0.0000 0.0000 0.0000 14.2229
#
#
#
# Elastic Compliance Matrix: (Units=1/GPa)
#
#
# Indices 1 2 3 4 5 6 
#
# 1 0.013731 -0.001789 -0.004360 0.000000 0.000000 0.000000
# 2 -0.001789 0.011092 -0.000574 0.000000 0.000000 0.000000
# 3 -0.004360 -0.000574 0.011885 0.000000 0.000000 0.000000
# 4 0.000000 0.000000 0.000000 0.245303 0.000000 0.000000
# 5 0.000000 0.000000 0.000000 0.000000 -0.019130 0.000000
# 6 0.000000 0.000000 0.000000 0.000000 0.000000 0.070309
#
#
# Mechanical properties :
#
#
# Convention : Reuss Voigt Hill
#
# Bulk Modulus (GPa) = 42.98915 43.24955 43.11935
# Shear Modulus (GPa) = 14.10873 7.67508 10.89190
#
# Velocity S-wave (km/s) = 2.65346 1.95709 2.33142
# Velocity P-wave (km/s) = 5.55349 5.16627 5.36337
#
# Compressibility (1/GPa) = 0.02326168
#
# Stress axis : x y z
#
# Youngs Moduli (GPa) = 72.83030 90.15238 84.13696
#
# Poissons Ratio (x) = 0.16130 0.36681
# Poissons Ratio (y) = 0.13030 0.04834
# Poissons Ratio (z) = 0.31751 0.05179
#
# Static dielectric constant tensor:
#      x y z
#    x 2.048430 0.000000 0.000000 
#    y 0.000000 1.840490 0.000000 
#    z 0.000000 0.000000 1.799580 
# 
# From -- ./inp_files/4153.got.cif
#   From: 2010.05.17/outbox.cif.g08.bks.cpg/sg43_3_cif.got.tgz:4153.got - 2010.06.03 19:21:55.
