data_PCOD9372765
_publ_section_title
;
Structure prediction by ZEFSAII (Michael W. Deem and Ramdas Pophale) SiO2 
 PCOD9372765
Probable space group: F D D 2
;
_chemical_formula_sum "Si O2"
_cell_formula_units_Z 64
_cell_length_a 18.605832
_cell_length_b 19.688124
_cell_length_c 6.159824
_cell_angle_alpha 90.000000
_cell_angle_beta 90.000000
_cell_angle_gamma 90.000000
_cell_volume 2256.429322
_symmetry_space_group_name_H-M "F D D 2"
_symmetry_group_IT_number 43
_symmetry_cell_setting 'orthorhombic'
loop_
_space_group_symop_operation_xyz
x,y,z
-x,-y,z
1/4-x,1/4+y,1/4+z
1/4+x,1/4-y,1/4+z
x,1/2+y,1/2+z
-x,1/2-y,1/2+z
1/4-x,3/4+y,3/4+z
1/4+x,3/4-y,3/4+z
1/2+x,y,1/2+z
1/2-x,-y,1/2+z
3/4-x,1/4+y,3/4+z
3/4+x,1/4-y,3/4+z
1/2+x,1/2+y,z
1/2-x,1/2-y,z
3/4-x,3/4+y,1/4+z
3/4+x,3/4-y,1/4+z
loop_
_atom_site_type_symbol
_atom_site_label
_atom_site_fract_x
_atom_site_fract_y
_atom_site_fract_z
Si Si1 0.749482 0.533874 0.956040
Si Si2 0.545003 0.591901 0.234950
Si Si3 0.341221 0.796896 0.197065
Si Si4 0.181355 0.659236 0.622312
O O1 0.743975 0.499454 0.709846
O O2 0.827281 0.569721 0.938053
O O3 0.686198 0.587040 0.997501
O O4 0.580394 0.521568 0.310581
O O5 0.472092 0.597490 0.375550
O O6 0.605248 0.649957 0.244107
O O7 0.503980 0.585841 0.006815
O O8 0.326153 0.782303 0.448389
#
# Coordination Sequence:
#
# PCOD9372765 Si02
#       4
#    16  16  16  16
#     4  12  29  52  87 126 170 227 298 355 433 524
#     4  11  28  51  78 123 167 225 298 352 447 514
#     4  11  28  49  81 119 173 225 289 359 443 513
#     4  12  27  49  85 119 171 232 287 368 436 528
#
# _framework density 28.363396999999999
#
# number of rings (size 3 to 8) (size 9 to 14) (size 15 to 20)
#    0.000    0.500    5.000    0.000   10.500    8.000 
#    0.000    0.000    0.000    0.000    0.000    0.000 
#    0.000    0.000    0.000    0.000    0.000    0.000 
#
# Total GULP energy -89298.092772 kJ/mol
# GULP energy per Si atom -5581.130798 kJ/mol
# Density = 2.829884 g / cm^3
# Si number density = 28.363397 Si / 1000 Ang^3
#
#
#
# Elastic Constant Matrix: (Units=GPa)
#
#
# Indices 1 2 3 4 5 6 
#
# 1 195.5096 14.8450 59.8181 0.0028 -0.0037 -0.0034
# 2 14.8450 55.4407 64.8489 0.0021 -0.0052 -0.0034
# 3 59.8181 64.8489 206.0111 0.0072 -0.0102 -0.0081
# 4 0.0028 0.0021 0.0072 59.4219 -0.0066 -0.0046
# 5 -0.0037 -0.0052 -0.0102 -0.0066 62.6740 0.0080
# 6 -0.0034 -0.0034 -0.0081 -0.0046 0.0080 35.3547
#
#
#
# Elastic Compliance Matrix: (Units=1/GPa)
#
#
# Indices 1 2 3 4 5 6 
#
# 1 0.005628 0.000640 -0.001836 0.000000 0.000000 0.000000
# 2 0.000640 0.028622 -0.009196 0.000000 0.000001 0.000001
# 3 -0.001836 -0.009196 0.008282 -0.000001 0.000000 0.000001
# 4 0.000000 0.000000 -0.000001 0.016829 0.000002 0.000002
# 5 0.000000 0.000001 0.000000 0.000002 0.015956 -0.000004
# 6 0.000000 0.000001 0.000001 0.000002 -0.000004 0.028285
#
#
# Mechanical properties :
#
#
# Convention : Reuss Voigt Hill
#
# Bulk Modulus (GPa) = 45.97812 81.77615 63.87714
# Shear Modulus (GPa) = 37.98449 52.65340 45.31894
#
# Velocity S-wave (km/s) = 3.66349 4.31325 4.00158
# Velocity P-wave (km/s) = 5.84298 7.32801 6.62722
#
# Compressibility (1/GPa) = 0.02174948
#
# Stress axis : x y z
#
# Youngs Moduli (GPa) = 177.68724 34.93820 120.74741
#
# Poissons Ratio (x) = -0.02237 0.22165
# Poissons Ratio (y) = -0.11376 1.11035
# Poissons Ratio (z) = 0.32617 0.32128
#
# Static dielectric constant tensor:
#      x y z
#    x 2.024570 0.000000 0.000010 
#    y 0.000000 2.221630 0.000000 
#    z 0.000010 0.000000 2.449980 
# 
# From -- ./inp_files/652.got.cif
#   From: 2010.05.17/outbox.cif.g08.bks.cpg/sg43_1_cif.got.tgz:652.got - 2010.06.03 19:21:55.
