data_PCOD9372522
_publ_section_title
;
Structure prediction by ZEFSAII (Michael W. Deem and Ramdas Pophale) SiO2 
 PCOD9372522
Probable space group: F D D 2
;
_chemical_formula_sum "Si O2"
_cell_formula_units_Z 96
_cell_length_a 14.935561
_cell_length_b 14.935564
_cell_length_c 19.788989
_cell_angle_alpha 90.000000
_cell_angle_beta 90.000000
_cell_angle_gamma 90.000000
_cell_volume 4414.350103
_symmetry_space_group_name_H-M "F D D 2"
_symmetry_group_IT_number 43
_symmetry_cell_setting 'orthorhombic'
loop_
_space_group_symop_operation_xyz
x,y,z
-x,-y,z
1/4-x,1/4+y,1/4+z
1/4+x,1/4-y,1/4+z
x,1/2+y,1/2+z
-x,1/2-y,1/2+z
1/4-x,3/4+y,3/4+z
1/4+x,3/4-y,3/4+z
1/2+x,y,1/2+z
1/2-x,-y,1/2+z
3/4-x,1/4+y,3/4+z
3/4+x,1/4-y,3/4+z
1/2+x,1/2+y,z
1/2-x,1/2-y,z
3/4-x,3/4+y,1/4+z
3/4+x,3/4-y,1/4+z
loop_
_atom_site_type_symbol
_atom_site_label
_atom_site_fract_x
_atom_site_fract_y
_atom_site_fract_z
Si Si1 0.423296 0.923296 0.373800
Si Si2 0.889462 0.753903 0.545659
Si Si3 0.737836 0.998300 0.668085
Si Si4 0.748300 0.512164 0.418085
Si Si5 0.253903 0.389462 0.545659
Si Si6 0.828372 0.828372 0.742966
O O1 0.465599 0.843902 0.418009
O O2 0.372800 0.872800 0.310501
O O3 0.500000 0.000000 0.357243
O O4 0.343902 0.965599 0.418009
O O5 0.902919 0.745179 0.466209
O O6 0.814520 0.685480 0.569260
O O7 0.853773 0.853773 0.559229
O O8 0.975011 0.728747 0.589314
O O9 0.728747 0.975011 0.589314
O O10 0.787939 0.912355 0.701215
O O11 0.754821 0.597081 0.466209
O O12 0.662355 0.462061 0.451215
O O13 0.750000 0.750000 0.751685
#
# Coordination Sequence:
#
# PCOD9372522 Si02
#       6
#    16  16  16  16  16  16
#     4  12  30  50  72 112 158 203 256 315 402 467
#     4  11  23  42  69 102 139 186 244 306 371 449
#     4  12  25  44  73 101 152 191 254 311 382 450
#     4  12  25  44  73 101 152 191 254 311 382 450
#     4  11  23  42  69 102 139 186 244 306 371 449
#     4  12  26  46  78 118 152 197 264 321 390 463
#
# _framework density 21.747256
#
# number of rings (size 3 to 8) (size 9 to 14) (size 15 to 20)
#    0.000    0.333    5.000    4.000    4.667    0.000 
#    3.000    0.000    0.000    0.000    0.000    0.000 
#    0.000    0.000    0.000    0.000    0.000    0.000 
#
# Total GULP energy -133734.509230 kJ/mol
# GULP energy per Si atom -5572.271218 kJ/mol
# Density = 2.169776 g / cm^3
# Si number density = 21.747256 Si / 1000 Ang^3
#
#
#
# Elastic Constant Matrix: (Units=GPa)
#
#
# Indices 1 2 3 4 5 6 
#
# 1 102.5478 57.3915 23.6118 0.0000 0.0000 0.0000
# 2 57.3915 102.5478 23.6116 0.0000 0.0000 0.0000
# 3 23.6118 23.6116 84.3334 0.0000 0.0000 0.0000
# 4 0.0000 0.0000 0.0000 35.0463 0.0000 0.0000
# 5 0.0000 0.0000 0.0000 0.0000 35.0463 0.0000
# 6 0.0000 0.0000 0.0000 0.0000 0.0000 47.0053
#
#
#
# Elastic Compliance Matrix: (Units=1/GPa)
#
#
# Indices 1 2 3 4 5 6 
#
# 1 0.014481 -0.007665 -0.001908 0.000000 0.000000 0.000000
# 2 -0.007665 0.014481 -0.001908 0.000000 0.000000 0.000000
# 3 -0.001908 -0.001908 0.012926 0.000000 0.000000 0.000000
# 4 0.000000 0.000000 0.000000 0.028534 0.000000 0.000000
# 5 0.000000 0.000000 0.000000 0.000000 0.028534 0.000000
# 6 0.000000 0.000000 0.000000 0.000000 0.000000 0.021274
#
#
# Mechanical properties :
#
#
# Convention : Reuss Voigt Hill
#
# Bulk Modulus (GPa) = 52.84094 55.40652 54.12373
# Shear Modulus (GPa) = 33.44486 35.74053 34.59269
#
# Velocity S-wave (km/s) = 3.92585 4.05835 3.99265
# Velocity P-wave (km/s) = 6.70076 6.89152 6.79681
#
# Compressibility (1/GPa) = 0.01892472
#
# Stress axis : x y z
#
# Youngs Moduli (GPa) = 69.05804 69.05809 77.36182
#
# Poissons Ratio (x) = 0.52931 0.14763
# Poissons Ratio (y) = 0.52931 0.14763
# Poissons Ratio (z) = 0.13178 0.13178
#
# Static dielectric constant tensor:
#      x y z
#    x 1.854110 0.000000 0.000000 
#    y 0.000000 1.854110 0.000000 
#    z 0.000000 0.000000 1.831910 
# 
# From -- ./inp_files/17581.got.cif
#   From: 2010.05.17/outbox.cif.g08.bks.cpg/sg43_9_cif.got.tgz:17581.got - 2010.06.03 19:21:55.
