data_PCOD9372833
_publ_section_title
;
Structure prediction by ZEFSAII (Michael W. Deem and Ramdas Pophale) SiO2 
 PCOD9372833
Probable space group: F D D 2
;
_chemical_formula_sum "Si O2"
_cell_formula_units_Z 96
_cell_length_a 15.180741
_cell_length_b 20.475248
_cell_length_c 12.780108
_cell_angle_alpha 90.000000
_cell_angle_beta 90.000000
_cell_angle_gamma 90.000000
_cell_volume 3972.433772
_symmetry_space_group_name_H-M "F D D 2"
_symmetry_group_IT_number 43
_symmetry_cell_setting 'orthorhombic'
loop_
_space_group_symop_operation_xyz
x,y,z
-x,-y,z
1/4-x,1/4+y,1/4+z
1/4+x,1/4-y,1/4+z
x,1/2+y,1/2+z
-x,1/2-y,1/2+z
1/4-x,3/4+y,3/4+z
1/4+x,3/4-y,3/4+z
1/2+x,y,1/2+z
1/2-x,-y,1/2+z
3/4-x,1/4+y,3/4+z
3/4+x,1/4-y,3/4+z
1/2+x,1/2+y,z
1/2-x,1/2-y,z
3/4-x,3/4+y,1/4+z
3/4+x,3/4-y,1/4+z
loop_
_atom_site_type_symbol
_atom_site_label
_atom_site_fract_x
_atom_site_fract_y
_atom_site_fract_z
Si Si1 0.773276 0.177398 0.349270
Si Si2 0.549360 0.586300 0.359845
Si Si3 0.540812 0.066773 0.617272
Si Si4 0.215108 0.559053 0.494613
Si Si5 0.033229 0.285561 0.877855
Si Si6 0.741926 0.039690 0.835169
O O1 0.750000 0.250000 0.387654
O O2 0.754751 0.173807 0.224172
O O3 0.730129 0.121223 0.421174
O O4 0.879066 0.171751 0.364336
O O5 0.518058 0.569985 0.241418
O O6 0.547955 0.665283 0.354372
O O7 0.639361 0.544705 0.366604
O O8 0.643045 0.066829 0.584881
O O9 0.510512 0.134549 0.567075
O O10 0.500000 0.000000 0.575478
O O11 0.297799 0.529580 0.557907
O O12 0.198317 0.495652 0.422062
O O13 0.010690 0.256752 0.989203
#
# Coordination Sequence:
#
# PCOD9372833 Si02
#       6
#    16  16  16  16  16  16
#     4  12  28  48  76 112 152 202 252 312 384 459
#     4  12  24  46  81 109 148 193 260 310 376 449
#     4  12  27  46  79 114 151 198 250 318 386 449
#     4  12  26  48  75 111 152 198 255 314 379 461
#     4  12  26  48  78 109 150 199 256 312 385 446
#     4  12  26  48  74 109 157 194 252 315 377 459
#
# _framework density 24.166543999999998
#
# number of rings (size 3 to 8) (size 9 to 14) (size 15 to 20)
#    0.000    0.000    6.667    2.500    2.333    2.667 
#    0.000    1.667    0.000    0.000    0.000    0.000 
#    0.000    0.000    0.000    0.000    0.000    0.000 
#
# Total GULP energy -133792.304798 kJ/mol
# GULP energy per Si atom -5574.679367 kJ/mol
# Density = 2.411154 g / cm^3
# Si number density = 24.166544 Si / 1000 Ang^3
#
#
#
# Elastic Constant Matrix: (Units=GPa)
#
#
# Indices 1 2 3 4 5 6 
#
# 1 36.4300 5.3632 13.6874 0.0000 0.0000 0.0000
# 2 5.3632 154.0884 56.7878 0.0000 0.0000 0.0000
# 3 13.6874 56.7878 108.4747 0.0000 0.0000 0.0000
# 4 0.0000 0.0000 0.0000 53.8930 0.0000 0.0000
# 5 0.0000 0.0000 0.0000 0.0000 1.8092 0.0000
# 6 0.0000 0.0000 0.0000 0.0000 0.0000 16.8205
#
#
#
# Elastic Compliance Matrix: (Units=1/GPa)
#
#
# Indices 1 2 3 4 5 6 
#
# 1 0.028838 0.000418 -0.003858 0.000000 0.000000 0.000000
# 2 0.000418 0.008047 -0.004266 0.000000 0.000000 0.000000
# 3 -0.003858 -0.004266 0.011939 0.000000 0.000000 0.000000
# 4 0.000000 0.000000 0.000000 0.018555 0.000000 0.000000
# 5 0.000000 0.000000 0.000000 0.000000 0.552737 0.000000
# 6 0.000000 0.000000 0.000000 0.000000 0.000000 0.059451
#
#
# Mechanical properties :
#
#
# Convention : Reuss Voigt Hill
#
# Bulk Modulus (GPa) = 29.92830 50.07443 40.00137
# Shear Modulus (GPa) = 7.08099 29.38151 18.23125
#
# Velocity S-wave (km/s) = 1.71361 3.49060 2.74961
# Velocity P-wave (km/s) = 4.04059 6.08369 5.16419
#
# Compressibility (1/GPa) = 0.03341319
#
# Stress axis : x y z
#
# Youngs Moduli (GPa) = 34.67678 124.26573 83.76215
#
# Poissons Ratio (x) = -0.05194 0.32312
# Poissons Ratio (y) = -0.01449 0.35729
# Poissons Ratio (z) = 0.13377 0.53007
#
# Static dielectric constant tensor:
#      x y z
#    x 2.079130 0.000000 0.000000 
#    y 0.000000 1.951640 0.000000 
#    z 0.000000 0.000000 2.016770 
# 
# From -- ./inp_files/10070.got.cif
#   From: 2010.05.17/outbox.cif.g08.bks.cpg/sg43_6_cif.got.tgz:10070.got - 2010.06.03 19:21:55.
