data_PCOD9372501
_publ_section_title
;
Structure prediction by ZEFSAII (Michael W. Deem and Ramdas Pophale) SiO2 
 PCOD9372501
Probable space group: F D D 2
;
_chemical_formula_sum "Si O2"
_cell_formula_units_Z 64
_cell_length_a 10.466125
_cell_length_b 12.260860
_cell_length_c 18.534268
_cell_angle_alpha 90.000000
_cell_angle_beta 90.000000
_cell_angle_gamma 90.000000
_cell_volume 2378.385724
_symmetry_space_group_name_H-M "F D D 2"
_symmetry_group_IT_number 43
_symmetry_cell_setting 'orthorhombic'
loop_
_space_group_symop_operation_xyz
x,y,z
-x,-y,z
1/4-x,1/4+y,1/4+z
1/4+x,1/4-y,1/4+z
x,1/2+y,1/2+z
-x,1/2-y,1/2+z
1/4-x,3/4+y,3/4+z
1/4+x,3/4-y,3/4+z
1/2+x,y,1/2+z
1/2-x,-y,1/2+z
3/4-x,1/4+y,3/4+z
3/4+x,1/4-y,3/4+z
1/2+x,1/2+y,z
1/2-x,1/2-y,z
3/4-x,3/4+y,1/4+z
3/4+x,3/4-y,1/4+z
loop_
_atom_site_type_symbol
_atom_site_label
_atom_site_fract_x
_atom_site_fract_y
_atom_site_fract_z
Si Si1 0.466307 0.288523 0.500000
Si Si2 0.933882 0.393685 0.862923
Si Si3 0.073001 0.195334 0.789262
Si Si4 0.905036 0.906989 0.938185
O O1 0.404488 0.204754 0.555677
O O2 0.382748 0.323896 0.430334
O O3 0.535889 0.395272 0.529245
O O4 0.579924 0.213671 0.469818
O O5 0.000000 0.500000 0.895968
O O6 0.031861 0.314285 0.820534
O O7 0.041226 0.114936 0.857391
O O8 0.986954 0.187294 0.716184
O O9 0.000000 0.000000 0.969216
#
# Coordination Sequence:
#
# PCOD9372501 Si02
#       4
#    16  16  16  16
#     4  11  26  50  78 118 171 216 288 359 438 526
#     4  11  28  49  76 120 161 228 282 360 436 528
#     4  11  26  48  83 117 168 229 287 362 449 532
#     4  11  22  47  79 119 162 229 287 358 447 533
#
# _framework density 26.909008
#
# number of rings (size 3 to 8) (size 9 to 14) (size 15 to 20)
#    0.000    1.000    2.500    2.250    7.000    0.000 
#    9.000    0.000    0.000    0.000    0.000    0.000 
#    0.000    0.000    0.000    0.000    0.000    0.000 
#
# Total GULP energy -89125.063318 kJ/mol
# GULP energy per Si atom -5570.316457 kJ/mol
# Density = 2.684776 g / cm^3
# Si number density = 26.909008 Si / 1000 Ang^3
#
#
#
# Elastic Constant Matrix: (Units=GPa)
#
#
# Indices 1 2 3 4 5 6 
#
# 1 98.0802 41.0798 27.8926 0.0000 0.0000 0.0000
# 2 41.0798 193.0147 48.1657 0.0000 0.0000 0.0000
# 3 27.8926 48.1657 83.4023 0.0000 0.0000 0.0000
# 4 0.0000 0.0000 0.0000 32.0639 0.0000 0.0000
# 5 0.0000 0.0000 0.0000 0.0000 24.6613 0.0000
# 6 0.0000 0.0000 0.0000 0.0000 0.0000 55.1204
#
#
#
# Elastic Compliance Matrix: (Units=1/GPa)
#
#
# Indices 1 2 3 4 5 6 
#
# 1 0.011768 -0.001779 -0.002908 0.000000 0.000000 0.000000
# 2 -0.001779 0.006322 -0.003056 0.000000 0.000000 0.000000
# 3 -0.002908 -0.003056 0.014728 0.000000 0.000000 0.000000
# 4 0.000000 0.000000 0.000000 0.031188 0.000000 0.000000
# 5 0.000000 0.000000 0.000000 0.000000 0.040549 0.000000
# 6 0.000000 0.000000 0.000000 0.000000 0.000000 0.018142
#
#
# Mechanical properties :
#
#
# Convention : Reuss Voigt Hill
#
# Bulk Modulus (GPa) = 57.69986 67.64151 62.67068
# Shear Modulus (GPa) = 34.73170 39.52639 37.12904
#
# Velocity S-wave (km/s) = 3.59654 3.83677 3.71860
# Velocity P-wave (km/s) = 6.22382 6.69473 6.46357
#
# Compressibility (1/GPa) = 0.01733107
#
# Stress axis : x y z
#
# Youngs Moduli (GPa) = 84.97723 158.17245 67.89918
#
# Poissons Ratio (x) = 0.28136 0.19747
# Poissons Ratio (y) = 0.15116 0.20752
# Poissons Ratio (z) = 0.24714 0.48341
#
# Static dielectric constant tensor:
#      x y z
#    x 2.290570 0.000000 0.000000 
#    y 0.000000 2.005770 0.000000 
#    z 0.000000 0.000000 2.265170 
# 
# From -- ./inp_files/13105.got.cif
#   From: 2010.05.17/outbox.cif.g08.bks.cpg/sg43_7_cif.got.tgz:13105.got - 2010.06.03 19:21:55.
