data_PCOD9372457
_publ_section_title
;
Structure prediction by ZEFSAII (Michael W. Deem and Ramdas Pophale) SiO2 
 PCOD9372457
Probable space group: F D D 2
;
_chemical_formula_sum "Si O2"
_cell_formula_units_Z 80
_cell_length_a 13.545488
_cell_length_b 19.756188
_cell_length_c 11.510692
_cell_angle_alpha 90.000000
_cell_angle_beta 90.000000
_cell_angle_gamma 90.000000
_cell_volume 3080.344142
_symmetry_space_group_name_H-M "F D D 2"
_symmetry_group_IT_number 43
_symmetry_cell_setting 'orthorhombic'
loop_
_space_group_symop_operation_xyz
x,y,z
-x,-y,z
1/4-x,1/4+y,1/4+z
1/4+x,1/4-y,1/4+z
x,1/2+y,1/2+z
-x,1/2-y,1/2+z
1/4-x,3/4+y,3/4+z
1/4+x,3/4-y,3/4+z
1/2+x,y,1/2+z
1/2-x,-y,1/2+z
3/4-x,1/4+y,3/4+z
3/4+x,1/4-y,3/4+z
1/2+x,1/2+y,z
1/2-x,1/2-y,z
3/4-x,3/4+y,1/4+z
3/4+x,3/4-y,1/4+z
loop_
_atom_site_type_symbol
_atom_site_label
_atom_site_fract_x
_atom_site_fract_y
_atom_site_fract_z
Si Si1 0.280116 0.505401 0.636500
Si Si2 0.654387 0.824854 0.468635
Si Si3 0.398832 0.135523 0.724604
Si Si4 0.167493 0.704613 0.582727
Si Si5 0.037650 0.924888 0.582355
O O1 0.166692 0.524632 0.648210
O O2 0.302700 0.438709 0.564143
O O3 0.332092 0.504600 0.763969
O O4 0.344514 0.565713 0.573526
O O5 0.615377 0.830277 0.599829
O O6 0.773261 0.824108 0.469758
O O7 0.629173 0.897596 0.410702
O O8 0.287839 0.123912 0.772552
O O9 0.250000 0.750000 0.644885
O O10 0.223892 0.672920 0.471174
O O11 0.000000 0.000000 0.544148
#
# Coordination Sequence:
#
# PCOD9372457 Si02
#       5
#    16  16  16  16  16
#     4   9  20  46  67  94 141 198 227 289 373 452
#     4  12  24  39  69 112 143 174 246 305 379 417
#     4  11  22  43  67 105 143 177 247 310 355 426
#     4   9  18  42  72  93 133 193 241 278 356 458
#     4   7  15  38  66  87 125 189 232 269 341 441
#
# _framework density 25.971122000000001
#
# number of rings (size 3 to 8) (size 9 to 14) (size 15 to 20)
#    1.200    1.200    4.000    0.000    0.000    3.200 
#    0.000    8.000    0.000    0.000    0.000    0.000 
#    0.000    0.000    0.000    0.000    0.000    0.000 
#
# Total GULP energy -111633.900692 kJ/mol
# GULP energy per Si atom -5581.695035 kJ/mol
# Density = 2.591201 g / cm^3
# Si number density = 25.971122 Si / 1000 Ang^3
#
#
#
# Elastic Constant Matrix: (Units=GPa)
#
#
# Indices 1 2 3 4 5 6 
#
# 1 220.1166 76.1336 35.2541 0.0000 0.0000 0.0000
# 2 76.1336 70.2682 28.0797 0.0000 0.0000 0.0000
# 3 35.2541 28.0797 86.2039 0.0000 0.0000 0.0000
# 4 0.0000 0.0000 0.0000 32.5109 0.0000 0.0000
# 5 0.0000 0.0000 0.0000 0.0000 5.7349 0.0000
# 6 0.0000 0.0000 0.0000 0.0000 0.0000 58.3138
#
#
#
# Elastic Compliance Matrix: (Units=1/GPa)
#
#
# Indices 1 2 3 4 5 6 
#
# 1 0.007282 -0.007703 -0.000469 0.000000 0.000000 0.000000
# 2 -0.007703 0.024508 -0.004833 0.000000 0.000000 0.000000
# 3 -0.000469 -0.004833 0.013367 0.000000 0.000000 0.000000
# 4 0.000000 0.000000 0.000000 0.030759 0.000000 0.000000
# 5 0.000000 0.000000 0.000000 0.000000 0.174372 0.000000
# 6 0.000000 0.000000 0.000000 0.000000 0.000000 0.017149
#
#
# Mechanical properties :
#
#
# Convention : Reuss Voigt Hill
#
# Bulk Modulus (GPa) = 52.22687 72.83595 62.53141
# Shear Modulus (GPa) = 16.67614 35.12000 25.89807
#
# Velocity S-wave (km/s) = 2.53672 3.68131 3.16125
# Velocity P-wave (km/s) = 5.36034 6.79524 6.11999
#
# Compressibility (1/GPa) = 0.01914723
#
# Stress axis : x y z
#
# Youngs Moduli (GPa) = 137.31671 40.80243 74.81354
#
# Poissons Ratio (x) = 0.31429 0.03510
# Poissons Ratio (y) = 1.05773 0.36158
# Poissons Ratio (z) = 0.06442 0.19720
#
# Static dielectric constant tensor:
#      x y z
#    x 2.158290 0.000000 0.000000 
#    y 0.000000 2.102450 0.000000 
#    z 0.000000 0.000000 1.959790 
# 
# From -- ./inp_files/6178.got.cif
#   From: 2010.05.17/outbox.cif.g08.bks.cpg/sg43_4_cif.got.tgz:6178.got - 2010.06.03 19:21:55.
