data_PCOD9372505
_publ_section_title
;
Structure prediction by ZEFSAII (Michael W. Deem and Ramdas Pophale) SiO2 
 PCOD9372505
Probable space group: F D D 2
;
_chemical_formula_sum "Si O2"
_cell_formula_units_Z 128
_cell_length_a 9.937355
_cell_length_b 22.769565
_cell_length_c 26.462288
_cell_angle_alpha 90.000000
_cell_angle_beta 90.000000
_cell_angle_gamma 90.000000
_cell_volume 5987.602075
_symmetry_space_group_name_H-M "F D D 2"
_symmetry_group_IT_number 43
_symmetry_cell_setting 'orthorhombic'
loop_
_space_group_symop_operation_xyz
x,y,z
-x,-y,z
1/4-x,1/4+y,1/4+z
1/4+x,1/4-y,1/4+z
x,1/2+y,1/2+z
-x,1/2-y,1/2+z
1/4-x,3/4+y,3/4+z
1/4+x,3/4-y,3/4+z
1/2+x,y,1/2+z
1/2-x,-y,1/2+z
3/4-x,1/4+y,3/4+z
3/4+x,1/4-y,3/4+z
1/2+x,1/2+y,z
1/2-x,1/2-y,z
3/4-x,3/4+y,1/4+z
3/4+x,3/4-y,1/4+z
loop_
_atom_site_type_symbol
_atom_site_label
_atom_site_fract_x
_atom_site_fract_y
_atom_site_fract_z
Si Si1 0.016268 0.179478 0.383990
Si Si2 0.005769 0.198987 0.676721
Si Si3 0.882906 0.844807 0.050472
Si Si4 0.776601 0.632940 0.829113
Si Si5 0.771298 0.558285 0.115092
Si Si6 0.377270 0.406454 0.736449
Si Si7 0.742410 0.143118 0.705609
Si Si8 0.773178 0.926222 0.399430
O O1 0.924350 0.156963 0.337992
O O2 0.050661 0.245978 0.369893
O O3 0.924693 0.186155 0.435068
O O4 0.126526 0.128896 0.393899
O O5 0.008019 0.165209 0.623313
O O6 0.849750 0.194952 0.694173
O O7 0.073895 0.261872 0.670558
O O8 0.079690 0.157986 0.717011
O O9 0.817394 0.898260 0.081414
O O10 0.954050 0.808719 0.094977
O O11 0.758721 0.819744 0.016783
O O12 0.991217 0.870829 0.012115
O O13 0.669120 0.685113 0.840372
O O14 0.740902 0.602452 0.776654
O O15 0.785420 0.588626 0.169755
O O16 0.595038 0.158924 0.687767
#
# Coordination Sequence:
#
# PCOD9372505 Si02
#       8
#    16  16  16  16  16  16  16  16
#     4  11  23  38  58  91 133 165 202 270 335 383
#     4   9  19  39  61  87 125 161 207 273 317 379
#     4   9  20  40  60  88 117 160 220 258 311 397
#     4   9  19  38  60  87 120 161 215 253 318 386
#     4   9  19  39  61  87 125 161 207 273 317 379
#     4   9  20  40  60  88 117 160 220 258 311 397
#     4   9  19  38  60  87 120 161 215 253 318 386
#     4  11  23  38  58  91 133 165 202 270 335 383
#
# _framework density 21.377507000000001
#
# number of rings (size 3 to 8) (size 9 to 14) (size 15 to 20)
#    0.000    2.500    0.000    2.250    0.000    6.000 
#   22.500    6.250    0.000    6.000    0.000    0.000 
#    0.000    0.000    0.000    0.000    0.000    0.000 
#
# Total GULP energy -178437.830245 kJ/mol
# GULP energy per Si atom -5576.182195 kJ/mol
# Density = 2.132885 g / cm^3
# Si number density = 21.377507 Si / 1000 Ang^3
#
#
#
# Elastic Constant Matrix: (Units=GPa)
#
#
# Indices 1 2 3 4 5 6 
#
# 1 44.1875 8.2937 3.1321 0.0000 0.0000 0.0000
# 2 8.2937 75.2916 -22.1275 0.0000 0.0000 0.0000
# 3 3.1321 -22.1275 70.5096 0.0000 0.0000 0.0000
# 4 0.0000 0.0000 0.0000 8.8906 0.0000 0.0000
# 5 0.0000 0.0000 0.0000 0.0000 20.2026 0.0000
# 6 0.0000 0.0000 0.0000 0.0000 0.0000 21.5926
#
#
#
# Elastic Compliance Matrix: (Units=1/GPa)
#
#
# Indices 1 2 3 4 5 6 
#
# 1 0.023370 -0.003172 -0.002034 0.000000 0.000000 0.000000
# 2 -0.003172 0.015062 0.004868 0.000000 0.000000 0.000000
# 3 -0.002034 0.004868 0.015800 0.000000 0.000000 0.000000
# 4 0.000000 0.000000 0.000000 0.112478 0.000000 0.000000
# 5 0.000000 0.000000 0.000000 0.000000 0.049499 0.000000
# 6 0.000000 0.000000 0.000000 0.000000 0.000000 0.046312
#
#
# Mechanical properties :
#
#
# Convention : Reuss Voigt Hill
#
# Bulk Modulus (GPa) = 18.67190 18.73168 18.70179
# Shear Modulus (GPa) = 17.79049 23.51653 20.65351
#
# Velocity S-wave (km/s) = 2.88793 3.32031 3.11164
# Velocity P-wave (km/s) = 4.45797 4.84568 4.65586
#
# Compressibility (1/GPa) = 0.05355642
#
# Stress axis : x y z
#
# Youngs Moduli (GPa) = 42.78932 66.39386 63.28974
#
# Poissons Ratio (x) = 0.21060 0.12870
# Poissons Ratio (y) = 0.13573 -0.30807
# Poissons Ratio (z) = 0.08701 -0.32318
#
# Static dielectric constant tensor:
#      x y z
#    x 1.860880 0.000000 0.000000 
#    y 0.000000 1.806770 0.000000 
#    z 0.000000 0.000000 1.787580 
# 
# From -- ./inp_files/25342.got.cif
#   From: 2010.05.17/outbox.cif.g08.bks.cpg/sg43_13_cif.got.tgz:25342.got - 2010.06.03 19:21:55.
