data_PCOD9372987
_publ_section_title
;
Structure prediction by ZEFSAII (Michael W. Deem and Ramdas Pophale) SiO2 
 PCOD9372987
Probable space group: F D D 2
;
_chemical_formula_sum "Si O2"
_cell_formula_units_Z 22
_cell_length_a 12.000000
_cell_length_b 24.000000
_cell_length_c 15.000000
_cell_angle_alpha 90.000000
_cell_angle_beta 90.000000
_cell_angle_gamma 90.000000
_cell_volume 4320.000000
_symmetry_space_group_name_H-M "F D D 2"
_symmetry_group_IT_number 43
_symmetry_cell_setting 'orthorhombic'
loop_
_space_group_symop_operation_xyz
x,y,z
-x,-y,z
1/4-x,1/4+y,1/4+z
1/4+x,1/4-y,1/4+z
x,1/2+y,1/2+z
-x,1/2-y,1/2+z
1/4-x,3/4+y,3/4+z
1/4+x,3/4-y,3/4+z
1/2+x,y,1/2+z
1/2-x,-y,1/2+z
3/4-x,1/4+y,3/4+z
3/4+x,1/4-y,3/4+z
1/2+x,1/2+y,z
1/2-x,1/2-y,z
3/4-x,3/4+y,1/4+z
3/4+x,3/4-y,1/4+z
loop_
_atom_site_type_symbol
_atom_site_label
_atom_site_fract_x
_atom_site_fract_y
_atom_site_fract_z
Si Si1 0.279115 0.809322 0.171530
Si Si2 0.823975 0.474211 0.823399
Si Si3 0.500000 0.500000 0.683090
Si Si4 0.844197 0.146804 0.548813
Si Si5 0.004059 0.713145 0.371508
Si Si6 0.117189 0.761587 0.688158
O O1 0.250000 0.750000 0.221410
O O2 0.371244 0.784219 0.102643
O O3 0.165802 0.818702 0.114487
O O4 0.324265 0.859121 0.233897
O O5 0.804974 0.470558 0.717689
O O6 0.706504 0.470513 0.875507
O O7 0.466571 0.445144 0.741513
O O8 0.381495 0.514809 0.635482
O O9 0.763827 0.101274 0.592839
O O10 0.895902 0.179973 0.633430
O O11 0.939427 0.739200 0.286203
O O12 0.250000 0.750000 0.692824
#
# Coordination Sequence:
#
# PCOD9372987 Si02
#       6
#    16  16   8  16  16  16
#     4   8  21  43  79 104 147 196 255 318 389 462
#     4   9  21  47  67 109 145 194 249 325 378 467
#     4  12  28  46  78 110 148 220 258 318 402 486
#     4  12  23  49  75 110 149 204 264 318 393 479
#     4  12  25  43  77 107 155 198 264 327 385 470
#     4  12  25  44  71 110 152 200 255 322 392 459
#
# _framework density 5.0925929999999999
#
# number of rings (size 3 to 8) (size 9 to 14) (size 15 to 20)
#    1.091    0.000    4.545    1.091    6.364    0.000 
#    3.273    0.000   12.000    0.000    0.000    0.000 
#    0.000    0.000    0.000    0.000    0.000    0.000 
#
# Total GULP energy -122582.115161 kJ/mol
# GULP energy per Si atom -5571.914326 kJ/mol
# Density = 0.508100 g / cm^3
# Si number density = 5.092593 Si / 1000 Ang^3
#
#
#
# Elastic Constant Matrix: (Units=GPa)
#
#
# Indices 1 2 3 4 5 6 
#
# 1 156.2802 42.1460 86.4350 0.0000 0.0000 0.0000
# 2 42.1460 96.3394 55.2936 0.0000 0.0000 0.0000
# 3 86.4350 55.2936 202.1651 0.0000 0.0000 0.0000
# 4 0.0000 0.0000 0.0000 39.6487 0.0000 0.0000
# 5 0.0000 0.0000 0.0000 0.0000 44.9831 0.0000
# 6 0.0000 0.0000 0.0000 0.0000 0.0000 36.0954
#
#
#
# Elastic Compliance Matrix: (Units=1/GPa)
#
#
# Indices 1 2 3 4 5 6 
#
# 1 0.008687 -0.001979 -0.003173 0.000000 0.000000 0.000000
# 2 -0.001979 0.012764 -0.002645 0.000000 0.000000 0.000000
# 3 -0.003173 -0.002645 0.007026 0.000000 0.000000 0.000000
# 4 0.000000 0.000000 0.000000 0.025222 0.000000 0.000000
# 5 0.000000 0.000000 0.000000 0.000000 0.022231 0.000000
# 6 0.000000 0.000000 0.000000 0.000000 0.000000 0.027704
#
#
# Mechanical properties :
#
#
# Convention : Reuss Voigt Hill
#
# Bulk Modulus (GPa) = 77.61836 91.39265 84.50550
# Shear Modulus (GPa) = 40.47838 42.20609 41.34223
#
# Velocity S-wave (km/s) = 4.46255 4.55679 4.50992
# Velocity P-wave (km/s) = 8.04604 8.52342 8.28817
#
# Compressibility (1/GPa) = 0.01288355
#
# Stress axis : x y z
#
# Youngs Moduli (GPa) = 115.10860 78.34631 142.32139
#
# Poissons Ratio (x) = 0.15508 0.45157
# Poissons Ratio (y) = 0.22785 0.37639
# Poissons Ratio (z) = 0.36523 0.20720
#
# Static dielectric constant tensor:
#      x y z
#    x 1.786500 0.000000 0.000000 
#    y 0.000000 1.751540 0.000000 
#    z 0.000000 0.000000 1.764770 
# 
# From -- ./inp_files/9597.got.cif
#   From: 2010.05.17/outbox.ucp.g08.bks.cvg/sg43_5_cif.got.tgz:9597.got - 2010.06.11 16:31:01.
