data_PCOD9372249
_publ_section_title
;
Structure prediction by ZEFSAII (Michael W. Deem and Ramdas Pophale) SiO2 
 PCOD9372249
Probable space group: F D D 2
;
_chemical_formula_sum "Si O2"
_cell_formula_units_Z 40
_cell_length_a 5.937333
_cell_length_b 30.403358
_cell_length_c 8.804121
_cell_angle_alpha 90.000000
_cell_angle_beta 90.000000
_cell_angle_gamma 90.000000
_cell_volume 1589.274676
_symmetry_space_group_name_H-M "F D D 2"
_symmetry_group_IT_number 43
_symmetry_cell_setting 'orthorhombic'
loop_
_space_group_symop_operation_xyz
x,y,z
-x,-y,z
1/4-x,1/4+y,1/4+z
1/4+x,1/4-y,1/4+z
x,1/2+y,1/2+z
-x,1/2-y,1/2+z
1/4-x,3/4+y,3/4+z
1/4+x,3/4-y,3/4+z
1/2+x,y,1/2+z
1/2-x,-y,1/2+z
3/4-x,1/4+y,3/4+z
3/4+x,1/4-y,3/4+z
1/2+x,1/2+y,z
1/2-x,1/2-y,z
3/4-x,3/4+y,1/4+z
3/4+x,3/4-y,1/4+z
loop_
_atom_site_type_symbol
_atom_site_label
_atom_site_fract_x
_atom_site_fract_y
_atom_site_fract_z
Si Si1 0.250000 0.250000 0.897990
Si Si2 0.709741 0.554047 0.383837
Si Si3 0.601128 0.137636 0.052377
O O1 0.420652 0.226715 0.779731
O O2 0.378409 0.283440 0.009943
O O3 0.752695 0.602268 0.457595
O O4 0.464586 0.564861 0.307072
O O5 0.615958 0.119425 0.222058
#
# Coordination Sequence:
#
# PCOD9372249 Si02
#       3
#     8  16  16
#     4  12  28  36  70  92 136 144 220 252 334 320
#     4  10  26  42  63  97 120 174 194 271 291 390
#     4   8  20  42  64  86 120 170 204 246 296 390
#
# _framework density 25.168713
#
# number of rings (size 3 to 8) (size 9 to 14) (size 15 to 20)
#    2.400    0.000    0.000    0.000   11.200    3.200 
#    0.000    0.000    0.000    0.000    0.000    0.000 
#    0.000    0.000    0.000    0.000    0.000    0.000 
#
# Total GULP energy -55683.413968 kJ/mol
# GULP energy per Si atom -5568.341397 kJ/mol
# Density = 2.511143 g / cm^3
# Si number density = 25.168713 Si / 1000 Ang^3
#
#
#
# Elastic Constant Matrix: (Units=GPa)
#
#
# Indices 1 2 3 4 5 6 
#
# 1 37.7886 22.7203 65.8985 0.0000 0.0000 0.0000
# 2 22.7203 102.2646 57.4830 0.0000 0.0000 0.0000
# 3 65.8985 57.4830 177.9710 0.0000 0.0000 0.0000
# 4 0.0000 0.0000 0.0000 53.4142 0.0000 0.0000
# 5 0.0000 0.0000 0.0000 0.0000 53.8352 0.0000
# 6 0.0000 0.0000 0.0000 0.0000 0.0000 22.5999
#
#
#
# Elastic Compliance Matrix: (Units=1/GPa)
#
#
# Indices 1 2 3 4 5 6 
#
# 1 0.074832 -0.001284 -0.027294 0.000000 0.000000 0.000000
# 2 -0.001284 0.011970 -0.003391 0.000000 0.000000 0.000000
# 3 -0.027294 -0.003391 0.016820 0.000000 0.000000 0.000000
# 4 0.000000 0.000000 0.000000 0.018722 0.000000 0.000000
# 5 0.000000 0.000000 0.000000 0.000000 0.018575 0.000000
# 6 0.000000 0.000000 0.000000 0.000000 0.000000 0.044248
#
#
# Mechanical properties :
#
#
# Convention : Reuss Voigt Hill
#
# Bulk Modulus (GPa) = 25.19817 67.80309 46.50063
# Shear Modulus (GPa) = 19.05978 37.43134 28.24556
#
# Velocity S-wave (km/s) = 2.75486 3.86063 3.35363
# Velocity P-wave (km/s) = 4.48915 6.84621 5.78891
#
# Compressibility (1/GPa) = 0.03968543
#
# Stress axis : x y z
#
# Youngs Moduli (GPa) = 13.36323 83.54414 59.45142
#
# Poissons Ratio (x) = 0.10724 1.62267
# Poissons Ratio (y) = 0.01715 0.20159
# Poissons Ratio (z) = 0.36474 0.28328
#
# Static dielectric constant tensor:
#      x y z
#    x 2.111510 0.000000 0.000000 
#    y 0.000000 2.031080 0.000000 
#    z 0.000000 0.000000 2.041360 
# 
# From -- ./inp_files/1264.got.cif
#   From: 2010.05.17/outbox.cif.g08.bks.cpg/sg43_1_cif.got.tgz:1264.got - 2010.06.03 19:21:55.
