data_PCOD9372248
_publ_section_title
;
Structure prediction by ZEFSAII (Michael W. Deem and Ramdas Pophale) SiO2 
 PCOD9372248
Probable space group: F D D 2
;
_chemical_formula_sum "Si O2"
_cell_formula_units_Z 120
_cell_length_a 26.188795
_cell_length_b 24.783575
_cell_length_c 8.954809
_cell_angle_alpha 90.000000
_cell_angle_beta 90.000000
_cell_angle_gamma 90.000000
_cell_volume 5812.136378
_symmetry_space_group_name_H-M "F D D 2"
_symmetry_group_IT_number 43
_symmetry_cell_setting 'orthorhombic'
loop_
_space_group_symop_operation_xyz
x,y,z
-x,-y,z
1/4-x,1/4+y,1/4+z
1/4+x,1/4-y,1/4+z
x,1/2+y,1/2+z
-x,1/2-y,1/2+z
1/4-x,3/4+y,3/4+z
1/4+x,3/4-y,3/4+z
1/2+x,y,1/2+z
1/2-x,-y,1/2+z
3/4-x,1/4+y,3/4+z
3/4+x,1/4-y,3/4+z
1/2+x,1/2+y,z
1/2-x,1/2-y,z
3/4-x,3/4+y,1/4+z
3/4+x,3/4-y,1/4+z
loop_
_atom_site_type_symbol
_atom_site_label
_atom_site_fract_x
_atom_site_fract_y
_atom_site_fract_z
Si Si1 0.612241 0.895790 0.717720
Si Si2 0.416565 0.810627 0.538657
Si Si3 0.316747 0.661981 0.990833
Si Si4 0.000000 0.000000 0.395030
Si Si5 0.554355 0.294667 0.277127
Si Si6 0.605806 0.958345 0.022413
Si Si7 0.134078 0.001558 0.065310
Si Si8 0.740659 0.000370 0.737640
O O1 0.657425 0.861196 0.642364
O O2 0.566148 0.853976 0.719198
O O3 0.603991 0.947613 0.614280
O O4 0.621276 0.920833 0.881580
O O5 0.436862 0.857875 0.643922
O O6 0.370293 0.822367 0.425522
O O7 0.398336 0.760250 0.643198
O O8 0.466730 0.794660 0.444519
O O9 0.352975 0.698938 0.884364
O O10 0.271338 0.701029 0.042902
O O11 0.048179 0.977896 0.490857
O O12 0.607620 0.261476 0.282781
O O13 0.522146 0.300925 0.429460
O O14 0.520389 0.261487 0.159320
O O15 0.187278 0.002235 0.154986
#
# Coordination Sequence:
#
# PCOD9372248 Si02
#       8
#    16  16  16   8  16  16  16  16
#     4  11  20  39  69  93 132 173 218 277 333 398
#     4  10  26  41  66  98 139 176 219 279 351 394
#     4  11  24  42  67  98 136 178 231 273 342 401
#     4  12  22  44  74  94 130 186 232 274 332 410
#     4  11  22  40  62  96 130 166 218 281 322 401
#     4  11  24  44  64  99 136 170 227 281 338 398
#     4  11  21  42  65  94 135 173 219 282 330 406
#     4  11  20  38  63  94 123 169 219 268 324 396
#
# _framework density 20.646452
#
# number of rings (size 3 to 8) (size 9 to 14) (size 15 to 20)
#    0.000    1.067    6.667    0.000    1.867    2.133 
#    0.000    2.000    0.000    0.000    0.000    0.000 
#    0.000    0.000    0.000    0.000    0.000    0.000 
#
# Total GULP energy -167070.015527 kJ/mol
# GULP energy per Si atom -5569.000518 kJ/mol
# Density = 2.059946 g / cm^3
# Si number density = 20.646452 Si / 1000 Ang^3
#
#
#
# Elastic Constant Matrix: (Units=GPa)
#
#
# Indices 1 2 3 4 5 6 
#
# 1 104.0459 39.2323 32.5758 -0.0002 -0.0003 0.0000
# 2 39.2323 59.4725 25.5416 -0.0014 0.0006 0.0006
# 3 32.5758 25.5416 102.3631 -0.0017 0.0007 0.0002
# 4 -0.0002 -0.0014 -0.0017 30.6742 0.0004 0.0001
# 5 -0.0003 0.0006 0.0007 0.0004 30.3790 0.0002
# 6 0.0000 0.0006 0.0002 0.0001 0.0002 22.4034
#
#
#
# Elastic Compliance Matrix: (Units=1/GPa)
#
#
# Indices 1 2 3 4 5 6 
#
# 1 0.013252 -0.007763 -0.002280 0.000000 0.000000 0.000000
# 2 -0.007763 0.023380 -0.003363 0.000001 0.000000 -0.000001
# 3 -0.002280 -0.003363 0.011334 0.000000 0.000000 0.000000
# 4 0.000000 0.000001 0.000000 0.032601 0.000000 0.000000
# 5 0.000000 0.000000 0.000000 0.000000 0.032918 0.000000
# 6 0.000000 -0.000001 0.000000 0.000000 0.000000 0.044636
#
#
# Mechanical properties :
#
#
# Convention : Reuss Voigt Hill
#
# Bulk Modulus (GPa) = 47.27427 51.17565 49.22496
# Shear Modulus (GPa) = 26.04379 27.92676 26.98528
#
# Velocity S-wave (km/s) = 3.55550 3.68179 3.61919
# Velocity P-wave (km/s) = 6.30890 6.55092 6.43105
#
# Compressibility (1/GPa) = 0.02115316
#
# Stress axis : x y z
#
# Youngs Moduli (GPa) = 75.45921 42.77194 88.22958
#
# Poissons Ratio (x) = 0.33203 0.20120
# Poissons Ratio (y) = 0.58577 0.29675
# Poissons Ratio (z) = 0.17208 0.14386
#
# Static dielectric constant tensor:
#      x y z
#    x 1.769900 0.000000 0.000000 
#    y 0.000000 1.798070 0.000000 
#    z 0.000000 0.000000 1.810920 
# 
# From -- ./inp_files/4424.got.cif
#   From: 2010.05.17/outbox.cif.g08.bks.cpg/sg43_3_cif.got.tgz:4424.got - 2010.06.03 19:21:55.
