data_PCOD9372471
_publ_section_title
;
Structure prediction by ZEFSAII (Michael W. Deem and Ramdas Pophale) SiO2 
 PCOD9372471
Probable space group: F D D 2
;
_chemical_formula_sum "Si O2"
_cell_formula_units_Z 104
_cell_length_a 33.430440
_cell_length_b 16.210359
_cell_length_c 8.299814
_cell_angle_alpha 90.000000
_cell_angle_beta 90.000000
_cell_angle_gamma 90.000000
_cell_volume 4497.830505
_symmetry_space_group_name_H-M "F D D 2"
_symmetry_group_IT_number 43
_symmetry_cell_setting 'orthorhombic'
loop_
_space_group_symop_operation_xyz
x,y,z
-x,-y,z
1/4-x,1/4+y,1/4+z
1/4+x,1/4-y,1/4+z
x,1/2+y,1/2+z
-x,1/2-y,1/2+z
1/4-x,3/4+y,3/4+z
1/4+x,3/4-y,3/4+z
1/2+x,y,1/2+z
1/2-x,-y,1/2+z
3/4-x,1/4+y,3/4+z
3/4+x,1/4-y,3/4+z
1/2+x,1/2+y,z
1/2-x,1/2-y,z
3/4-x,3/4+y,1/4+z
3/4+x,3/4-y,1/4+z
loop_
_atom_site_type_symbol
_atom_site_label
_atom_site_fract_x
_atom_site_fract_y
_atom_site_fract_z
Si Si1 0.750000 0.250000 0.952030
Si Si2 0.925993 0.440190 0.488023
Si Si3 0.315111 0.734794 0.379196
Si Si4 0.464735 0.131832 0.951609
Si Si5 0.398653 0.210652 0.737685
Si Si6 0.857951 0.576839 0.495885
Si Si7 0.045303 0.687796 0.999919
O O1 0.786088 0.215972 0.844247
O O2 0.768236 0.323297 0.059476
O O3 0.938306 0.443011 0.302680
O O4 0.891436 0.508378 0.490329
O O5 0.906598 0.361708 0.575485
O O6 0.292404 0.820438 0.351878
O O7 0.360339 0.751678 0.321050
O O8 0.299111 0.661521 0.265985
O O9 0.423796 0.166411 0.877966
O O10 0.497885 0.200995 0.991695
O O11 0.378535 0.148375 0.606844
O O12 0.429603 0.268276 0.640796
O O13 0.819224 0.541702 0.588085
#
# Coordination Sequence:
#
# PCOD9372471 Si02
#       7
#     8  16  16  16  16  16  16
#     4  12  22  44  72  96 132 178 238 276 348 424
#     4  12  26  41  69 105 135 177 229 297 341 420
#     4  11  25  44  72  97 133 184 240 279 349 426
#     4  12  23  47  71  97 136 193 232 289 358 424
#     4  11  24  45  68  98 132 186 228 286 347 421
#     4  11  22  44  70  94 135 177 230 275 352 412
#     4  11  23  45  68  98 135 183 227 287 348 420
#
# _framework density 23.122257999999999
#
# number of rings (size 3 to 8) (size 9 to 14) (size 15 to 20)
#    0.000    0.615    6.154    2.769    6.462    0.000 
#    8.308    0.000    0.000    0.000    0.000    0.000 
#    0.000    0.000    0.000    0.000    0.000    0.000 
#
# Total GULP energy -145437.503556 kJ/mol
# GULP energy per Si atom -5593.750137 kJ/mol
# Density = 2.306963 g / cm^3
# Si number density = 23.122258 Si / 1000 Ang^3
#
#
#
# Elastic Constant Matrix: (Units=GPa)
#
#
# Indices 1 2 3 4 5 6 
#
# 1 89.9412 -3.0386 18.1638 0.0000 0.0000 0.0000
# 2 -3.0386 20.1148 6.6513 0.0000 0.0000 0.0000
# 3 18.1638 6.6513 76.0016 0.0000 0.0000 0.0000
# 4 0.0000 0.0000 0.0000 37.5871 0.0000 0.0000
# 5 0.0000 0.0000 0.0000 0.0000 72.2905 0.0000
# 6 0.0000 0.0000 0.0000 0.0000 0.0000 24.7784
#
#
#
# Elastic Compliance Matrix: (Units=1/GPa)
#
#
# Indices 1 2 3 4 5 6 
#
# 1 0.011834 0.002804 -0.003074 0.000000 0.000000 0.000000
# 2 0.002804 0.051860 -0.005209 0.000000 0.000000 0.000000
# 3 -0.003074 -0.005209 0.014348 0.000000 0.000000 0.000000
# 4 0.000000 0.000000 0.000000 0.026605 0.000000 0.000000
# 5 0.000000 0.000000 0.000000 0.000000 0.013833 0.000000
# 6 0.000000 0.000000 0.000000 0.000000 0.000000 0.040358
#
#
# Mechanical properties :
#
#
# Convention : Reuss Voigt Hill
#
# Bulk Modulus (GPa) = 14.90631 25.51230 20.20930
# Shear Modulus (GPa) = 26.02045 37.88327 31.95186
#
# Velocity S-wave (km/s) = 3.35825 4.05209 3.72138
# Velocity P-wave (km/s) = 4.63658 5.74023 5.21767
#
# Compressibility (1/GPa) = 0.06708570
#
# Stress axis : x y z
#
# Youngs Moduli (GPa) = 84.50359 19.28251 69.69606
#
# Poissons Ratio (x) = -0.05407 0.21422
# Poissons Ratio (y) = -0.23695 0.36303
# Poissons Ratio (z) = 0.25973 0.10044
#
# Static dielectric constant tensor:
#      x y z
#    x 1.881830 0.000000 0.000000 
#    y 0.000000 1.863710 0.000000 
#    z 0.000000 0.000000 1.885680 
# 
# From -- ./inp_files/4756.got.cif
#   From: 2010.05.17/outbox.cif.g08.bks.cpg/sg43_3_cif.got.tgz:4756.got - 2010.06.03 19:21:55.
