data_PCOD9372665
_publ_section_title
;
Structure prediction by ZEFSAII (Michael W. Deem and Ramdas Pophale) SiO2 
 PCOD9372665
Probable space group: F D D 2
;
_chemical_formula_sum "Si O2"
_cell_formula_units_Z 72
_cell_length_a 16.775699
_cell_length_b 16.199549
_cell_length_c 10.992515
_cell_angle_alpha 90.000000
_cell_angle_beta 90.000000
_cell_angle_gamma 90.000000
_cell_volume 2987.312223
_symmetry_space_group_name_H-M "F D D 2"
_symmetry_group_IT_number 43
_symmetry_cell_setting 'orthorhombic'
loop_
_space_group_symop_operation_xyz
x,y,z
-x,-y,z
1/4-x,1/4+y,1/4+z
1/4+x,1/4-y,1/4+z
x,1/2+y,1/2+z
-x,1/2-y,1/2+z
1/4-x,3/4+y,3/4+z
1/4+x,3/4-y,3/4+z
1/2+x,y,1/2+z
1/2-x,-y,1/2+z
3/4-x,1/4+y,3/4+z
3/4+x,1/4-y,3/4+z
1/2+x,1/2+y,z
1/2-x,1/2-y,z
3/4-x,3/4+y,1/4+z
3/4+x,3/4-y,1/4+z
loop_
_atom_site_type_symbol
_atom_site_label
_atom_site_fract_x
_atom_site_fract_y
_atom_site_fract_z
Si Si1 0.609581 0.791433 0.178970
Si Si2 0.250000 0.250000 0.032633
Si Si3 0.790772 0.120170 0.889556
Si Si4 0.786520 0.619064 0.832156
Si Si5 0.120729 0.050148 0.355125
O O1 0.676674 0.735193 0.118865
O O2 0.655367 0.852393 0.271165
O O3 0.552232 0.716194 0.219107
O O4 0.554590 0.835157 0.076186
O O5 0.222891 0.325289 0.950917
O O6 0.699303 0.109490 0.848540
O O7 0.816645 0.187135 0.987336
O O8 0.845073 0.542317 0.853547
O O9 0.819816 0.673438 0.722381
#
# Coordination Sequence:
#
# PCOD9372665 Si02
#       5
#    16   8  16  16  16
#     4  11  24  47  76 109 151 204 259 316 379 472
#     4  12  26  46  74 108 152 202 258 320 386 458
#     4  11  24  47  76 111 153 206 256 313 393 465
#     4  11  28  47  76 113 155 203 258 323 389 461
#     4  11  27  48  77 113 159 205 259 324 391 468
#
# _framework density 24.101934
#
# number of rings (size 3 to 8) (size 9 to 14) (size 15 to 20)
#    0.000    0.889    2.222    2.667    6.222    2.667 
#    0.000    0.000    0.000    0.000    0.000    0.000 
#    0.000    0.000    0.000    0.000    0.000    0.000 
#
# Total GULP energy -100381.690790 kJ/mol
# GULP energy per Si atom -5576.760599 kJ/mol
# Density = 2.404708 g / cm^3
# Si number density = 24.101934 Si / 1000 Ang^3
#
#
#
# Elastic Constant Matrix: (Units=GPa)
#
#
# Indices 1 2 3 4 5 6 
#
# 1 97.2703 28.1762 25.2715 0.0000 0.0000 0.0000
# 2 28.1762 80.2522 3.5235 0.0000 0.0000 0.0000
# 3 25.2715 3.5235 38.9098 0.0000 0.0000 0.0000
# 4 0.0000 0.0000 0.0000 40.1429 0.0000 0.0000
# 5 0.0000 0.0000 0.0000 0.0000 18.9886 0.0000
# 6 0.0000 0.0000 0.0000 0.0000 0.0000 40.9304
#
#
#
# Elastic Compliance Matrix: (Units=1/GPa)
#
#
# Indices 1 2 3 4 5 6 
#
# 1 0.013798 -0.004469 -0.008557 0.000000 0.000000 0.000000
# 2 -0.004469 0.013958 0.001639 0.000000 0.000000 0.000000
# 3 -0.008557 0.001639 0.031110 0.000000 0.000000 0.000000
# 4 0.000000 0.000000 0.000000 0.024911 0.000000 0.000000
# 5 0.000000 0.000000 0.000000 0.000000 0.052663 0.000000
# 6 0.000000 0.000000 0.000000 0.000000 0.000000 0.024432
#
#
# Mechanical properties :
#
#
# Convention : Reuss Voigt Hill
#
# Bulk Modulus (GPa) = 27.70777 36.70830 32.20803
# Shear Modulus (GPa) = 25.55227 30.64312 28.09769
#
# Velocity S-wave (km/s) = 3.25957 3.56953 3.41806
# Velocity P-wave (km/s) = 5.06827 5.67911 5.38236
#
# Compressibility (1/GPa) = 0.03609096
#
# Stress axis : x y z
#
# Youngs Moduli (GPa) = 72.47252 71.64474 32.14412
#
# Poissons Ratio (x) = 0.32017 0.27506
# Poissons Ratio (y) = 0.32387 -0.05267
# Poissons Ratio (z) = 0.62016 -0.11739
#
# Static dielectric constant tensor:
#      x y z
#    x 2.164230 0.000000 0.000000 
#    y 0.000000 2.074970 0.000000 
#    z 0.000000 0.000000 1.880750 
# 
# From -- ./inp_files/6531.got.cif
#   From: 2010.05.17/outbox.cif.g08.bks.cpg/sg43_4_cif.got.tgz:6531.got - 2010.06.03 19:21:55.
