data_PCOD9372788
_publ_section_title
;
Structure prediction by ZEFSAII (Michael W. Deem and Ramdas Pophale) SiO2 
 PCOD9372788
Probable space group: F D D 2
;
_chemical_formula_sum "Si O2"
_cell_formula_units_Z 88
_cell_length_a 20.808552
_cell_length_b 17.641274
_cell_length_c 8.502969
_cell_angle_alpha 90.000000
_cell_angle_beta 90.000000
_cell_angle_gamma 90.000000
_cell_volume 3121.349511
_symmetry_space_group_name_H-M "F D D 2"
_symmetry_group_IT_number 43
_symmetry_cell_setting 'orthorhombic'
loop_
_space_group_symop_operation_xyz
x,y,z
-x,-y,z
1/4-x,1/4+y,1/4+z
1/4+x,1/4-y,1/4+z
x,1/2+y,1/2+z
-x,1/2-y,1/2+z
1/4-x,3/4+y,3/4+z
1/4+x,3/4-y,3/4+z
1/2+x,y,1/2+z
1/2-x,-y,1/2+z
3/4-x,1/4+y,3/4+z
3/4+x,1/4-y,3/4+z
1/2+x,1/2+y,z
1/2-x,1/2-y,z
3/4-x,3/4+y,1/4+z
3/4+x,3/4-y,1/4+z
loop_
_atom_site_type_symbol
_atom_site_label
_atom_site_fract_x
_atom_site_fract_y
_atom_site_fract_z
Si Si1 0.581097 0.408744 0.818580
Si Si2 0.196417 0.536016 0.965012
Si Si3 0.781430 0.079952 0.682171
Si Si4 0.680143 0.882002 0.758929
Si Si5 0.390019 0.002891 0.600595
Si Si6 0.000000 0.500000 0.860815
O O1 0.504929 0.388394 0.815015
O O2 0.641022 0.416387 0.698254
O O3 0.603399 0.324637 0.876735
O O4 0.582071 0.483448 0.927655
O O5 0.243684 0.584342 0.850645
O O6 0.183430 0.454367 0.877057
O O7 0.132364 0.577291 0.025814
O O8 0.229128 0.505205 0.122141
O O9 0.656298 0.925326 0.603231
O O10 0.737673 0.824071 0.718260
O O11 0.441092 0.009446 0.740224
#
# Coordination Sequence:
#
# PCOD9372788 Si02
#       6
#    16  16  16  16  16   8
#     4  12  26  45  76 110 155 205 273 330 417 491
#     4  12  29  49  81 111 163 205 279 335 433 496
#     4  12  28  48  77 116 159 213 265 349 411 512
#     4  12  25  46  74 118 147 215 268 345 412 512
#     4  12  22  43  72 112 147 209 270 334 405 508
#     4  12  24  40  82 110 164 204 284 336 432 496
#
# _framework density 28.192934000000001
#
# number of rings (size 3 to 8) (size 9 to 14) (size 15 to 20)
#    0.000    0.000    7.273    2.182    2.545    4.364 
#    0.000    0.000    0.000    0.000    0.000    0.000 
#    0.000    0.000    0.000    0.000    0.000    0.000 
#
# Total GULP energy -122661.042442 kJ/mol
# GULP energy per Si atom -5575.501929 kJ/mol
# Density = 2.812877 g / cm^3
# Si number density = 28.192934 Si / 1000 Ang^3
#
#
#
# Elastic Constant Matrix: (Units=GPa)
#
#
# Indices 1 2 3 4 5 6 
#
# 1 138.5797 34.2779 32.4391 -0.0001 0.0001 0.0001
# 2 34.2779 152.3955 20.2331 -0.0002 0.0001 0.0001
# 3 32.4391 20.2331 51.8102 -0.0006 0.0003 0.0003
# 4 -0.0001 -0.0002 -0.0006 63.1035 0.0002 0.0002
# 5 0.0001 0.0001 0.0003 0.0002 39.8148 -0.0001
# 6 0.0001 0.0001 0.0003 0.0002 -0.0001 54.2826
#
#
#
# Elastic Compliance Matrix: (Units=1/GPa)
#
#
# Indices 1 2 3 4 5 6 
#
# 1 0.008693 -0.001300 -0.004935 0.000000 0.000000 0.000000
# 2 -0.001300 0.007115 -0.001965 0.000000 0.000000 0.000000
# 3 -0.004935 -0.001965 0.023158 0.000000 0.000000 0.000000
# 4 0.000000 0.000000 0.000000 0.015847 0.000000 0.000000
# 5 0.000000 0.000000 0.000000 0.000000 0.025116 0.000000
# 6 0.000000 0.000000 0.000000 0.000000 0.000000 0.018422
#
#
# Mechanical properties :
#
#
# Convention : Reuss Voigt Hill
#
# Bulk Modulus (GPa) = 44.31271 57.40952 50.86111
# Shear Modulus (GPa) = 40.89199 48.49588 44.69393
#
# Velocity S-wave (km/s) = 3.81259 4.15196 3.98589
# Velocity P-wave (km/s) = 5.92730 6.58728 6.26599
#
# Compressibility (1/GPa) = 0.02256689
#
# Stress axis : x y z
#
# Youngs Moduli (GPa) = 115.03734 140.54553 43.18102
#
# Poissons Ratio (x) = 0.18272 0.21310
# Poissons Ratio (y) = 0.14955 0.08484
# Poissons Ratio (z) = 0.56771 0.27612
#
# Static dielectric constant tensor:
#      x y z
#    x 2.390980 0.000000 0.000000 
#    y 0.000000 2.157100 0.000000 
#    z 0.000000 0.000000 2.374150 
# 
# From -- ./inp_files/7042.got.cif
#   From: 2010.05.17/outbox.cif.g08.bks.cpg/sg43_4_cif.got.tgz:7042.got - 2010.06.03 19:21:55.
