data_PCOD9372638
_publ_section_title
;
Structure prediction by ZEFSAII (Michael W. Deem and Ramdas Pophale) SiO2 
 PCOD9372638
Probable space group: F D D 2
;
_chemical_formula_sum "Si O2"
_cell_formula_units_Z 64
_cell_length_a 13.766668
_cell_length_b 18.950211
_cell_length_c 9.717327
_cell_angle_alpha 90.000000
_cell_angle_beta 90.000000
_cell_angle_gamma 90.000000
_cell_volume 2535.068544
_symmetry_space_group_name_H-M "F D D 2"
_symmetry_group_IT_number 43
_symmetry_cell_setting 'orthorhombic'
loop_
_space_group_symop_operation_xyz
x,y,z
-x,-y,z
1/4-x,1/4+y,1/4+z
1/4+x,1/4-y,1/4+z
x,1/2+y,1/2+z
-x,1/2-y,1/2+z
1/4-x,3/4+y,3/4+z
1/4+x,3/4-y,3/4+z
1/2+x,y,1/2+z
1/2-x,-y,1/2+z
3/4-x,1/4+y,3/4+z
3/4+x,1/4-y,3/4+z
1/2+x,1/2+y,z
1/2-x,1/2-y,z
3/4-x,3/4+y,1/4+z
3/4+x,3/4-y,1/4+z
loop_
_atom_site_type_symbol
_atom_site_label
_atom_site_fract_x
_atom_site_fract_y
_atom_site_fract_z
Si Si1 0.096003 0.546389 0.689910
Si Si2 0.562225 0.572761 0.484654
Si Si3 0.643404 0.104866 0.395015
Si Si4 0.053168 0.753950 0.429247
O O1 0.123388 0.587463 0.552569
O O2 0.190502 0.498192 0.716896
O O3 0.000000 0.500000 0.667375
O O4 0.081218 0.592799 0.827089
O O5 0.500000 0.500000 0.475398
O O6 0.498058 0.620432 0.585932
O O7 0.663829 0.555395 0.556891
O O8 0.580143 0.175593 0.377740
O O9 0.630945 0.033079 0.305861
#
# Coordination Sequence:
#
# PCOD9372638 Si02
#       4
#    16  16  16  16
#     4  11  25  44  70 106 144 195 255 316 386 472
#     4   9  22  45  69  97 140 190 242 311 386 450
#     4  11  25  45  73 108 146 197 260 326 394 467
#     4  11  24  46  72 103 146 196 253 323 392 465
#
# _framework density 25.245864999999998
#
# number of rings (size 3 to 8) (size 9 to 14) (size 15 to 20)
#    0.000    1.500    0.000    3.000    0.000   15.000 
#    0.000    0.000    0.000    0.000    0.000    0.000 
#    0.000    0.000    0.000    0.000    0.000    0.000 
#
# Total GULP energy -89415.525095 kJ/mol
# GULP energy per Si atom -5588.470318 kJ/mol
# Density = 2.518840 g / cm^3
# Si number density = 25.245865 Si / 1000 Ang^3
#
#
#
# Elastic Constant Matrix: (Units=GPa)
#
#
# Indices 1 2 3 4 5 6 
#
# 1 169.7415 57.7590 61.7309 0.0000 0.0000 0.0000
# 2 57.7590 68.2712 40.2565 0.0000 0.0000 0.0000
# 3 61.7309 40.2565 219.6558 0.0000 0.0000 0.0000
# 4 0.0000 0.0000 0.0000 -1.9926 0.0000 0.0000
# 5 0.0000 0.0000 0.0000 0.0000 24.7512 0.0000
# 6 0.0000 0.0000 0.0000 0.0000 0.0000 25.3548
#
#
#
# Elastic Compliance Matrix: (Units=1/GPa)
#
#
# Indices 1 2 3 4 5 6 
#
# 1 0.008549 -0.006521 -0.001208 0.000000 0.000000 0.000000
# 2 -0.006521 0.021396 -0.002089 0.000000 0.000000 0.000000
# 3 -0.001208 -0.002089 0.005275 0.000000 0.000000 0.000000
# 4 0.000000 0.000000 0.000000 -0.501848 0.000000 0.000000
# 5 0.000000 0.000000 0.000000 0.000000 0.040402 0.000000
# 6 0.000000 0.000000 0.000000 0.000000 0.000000 0.039440
#
#
# Mechanical properties :
#
#
# Convention : Reuss Voigt Hill
#
# Bulk Modulus (GPa) = 64.16124 86.35126 75.25625
# Shear Modulus (GPa) = -13.81384 29.48415 7.83515
#
# Velocity S-wave (km/s) = -2.34171 3.42113 1.76360
# Velocity P-wave (km/s) = 4.26125 7.06285 5.83276
#
# Compressibility (1/GPa) = 0.01558573
#
# Stress axis : x y z
#
# Youngs Moduli (GPa) = 116.96742 46.73799 189.58300
#
# Poissons Ratio (x) = 0.30477 0.22894
# Poissons Ratio (y) = 0.76273 0.39597
# Poissons Ratio (z) = 0.14125 0.09762
#
# Static dielectric constant tensor:
#      x y z
#    x 2.024230 0.000000 0.000000 
#    y 0.000000 2.099410 0.000000 
#    z 0.000000 0.000000 1.989890 
# 
# From -- ./inp_files/2247.got.cif
#   From: 2010.05.17/outbox.cif.g08.bks.cpg/sg43_2_cif.got.tgz:2247.got - 2010.06.03 19:21:55.
