data_PCOD9372864
_publ_section_title
;
Structure prediction by ZEFSAII (Michael W. Deem and Ramdas Pophale) SiO2 
 PCOD9372864
Probable space group: F D D 2
;
_chemical_formula_sum "Si O2"
_cell_formula_units_Z 80
_cell_length_a 7.347692
_cell_length_b 29.284776
_cell_length_c 16.494669
_cell_angle_alpha 90.000000
_cell_angle_beta 90.000000
_cell_angle_gamma 90.000000
_cell_volume 3549.248886
_symmetry_space_group_name_H-M "F D D 2"
_symmetry_group_IT_number 43
_symmetry_cell_setting 'orthorhombic'
loop_
_space_group_symop_operation_xyz
x,y,z
-x,-y,z
1/4-x,1/4+y,1/4+z
1/4+x,1/4-y,1/4+z
x,1/2+y,1/2+z
-x,1/2-y,1/2+z
1/4-x,3/4+y,3/4+z
1/4+x,3/4-y,3/4+z
1/2+x,y,1/2+z
1/2-x,-y,1/2+z
3/4-x,1/4+y,3/4+z
3/4+x,1/4-y,3/4+z
1/2+x,1/2+y,z
1/2-x,1/2-y,z
3/4-x,3/4+y,1/4+z
3/4+x,3/4-y,1/4+z
loop_
_atom_site_type_symbol
_atom_site_label
_atom_site_fract_x
_atom_site_fract_y
_atom_site_fract_z
Si Si1 0.722227 0.062146 0.132940
Si Si2 0.380111 0.658584 0.708228
Si Si3 0.500000 0.000000 0.244290
Si Si4 0.564106 0.102763 0.968248
Si Si5 0.250000 0.250000 0.295956
Si Si6 0.415676 0.827578 0.580878
O O1 0.568301 0.040576 0.187991
O O2 0.637278 0.089242 0.056608
O O3 0.838845 0.094813 0.191007
O O4 0.839955 0.020721 0.099532
O O5 0.598470 0.655846 0.707915
O O6 0.323159 0.707192 0.745460
O O7 0.277338 0.657880 0.622217
O O8 0.302876 0.616831 0.763389
O O9 0.352480 0.026244 0.297965
O O10 0.684266 0.077147 0.901130
#
# Coordination Sequence:
#
# PCOD9372864 Si02
#       6
#    16  16   8  16   8  16
#     4  12  27  48  78 111 152 201 256 313 390 453
#     4  12  26  47  78 110 155 197 248 322 374 454
#     4  12  29  50  72 119 152 200 262 324 375 462
#     4  12  25  50  79 109 149 210 245 309 392 452
#     4  12  25  46  74 115 154 192 258 312 379 454
#     4  12  26  49  77 111 156 193 258 316 381 449
#
# _framework density 22.539978999999999
#
# number of rings (size 3 to 8) (size 9 to 14) (size 15 to 20)
#    0.000    0.000    6.000    3.000    2.800    1.600 
#    0.000    0.000    0.000    0.000    0.000    0.000 
#    0.000    0.000    0.000    0.000    0.000    0.000 
#
# Total GULP energy -111954.146746 kJ/mol
# GULP energy per Si atom -5597.707337 kJ/mol
# Density = 2.248868 g / cm^3
# Si number density = 22.539979 Si / 1000 Ang^3
#
#
#
# Elastic Constant Matrix: (Units=GPa)
#
#
# Indices 1 2 3 4 5 6 
#
# 1 62.7267 -21.1982 11.9708 0.0000 0.0000 0.0000
# 2 -21.1982 80.6736 36.8423 0.0000 0.0000 0.0000
# 3 11.9708 36.8423 100.0085 0.0000 0.0000 0.0000
# 4 0.0000 0.0000 0.0000 42.0002 0.0000 0.0000
# 5 0.0000 0.0000 0.0000 0.0000 26.3051 0.0000
# 6 0.0000 0.0000 0.0000 0.0000 0.0000 43.0524
#
#
#
# Elastic Compliance Matrix: (Units=1/GPa)
#
#
# Indices 1 2 3 4 5 6 
#
# 1 0.019410 0.007407 -0.005052 0.000000 0.000000 0.000000
# 2 0.007407 0.017730 -0.007418 0.000000 0.000000 0.000000
# 3 -0.005052 -0.007418 0.013337 0.000000 0.000000 0.000000
# 4 0.000000 0.000000 0.000000 0.023809 0.000000 0.000000
# 5 0.000000 0.000000 0.000000 0.000000 0.038015 0.000000
# 6 0.000000 0.000000 0.000000 0.000000 0.000000 0.023228
#
#
# Mechanical properties :
#
#
# Convention : Reuss Voigt Hill
#
# Bulk Modulus (GPa) = 24.78295 33.18205 28.98250
# Shear Modulus (GPa) = 31.42594 36.65780 34.04187
#
# Velocity S-wave (km/s) = 3.73799 4.03717 3.89046
# Velocity P-wave (km/s) = 5.44510 6.04029 5.75040
#
# Compressibility (1/GPa) = 0.04035031
#
# Stress axis : x y z
#
# Youngs Moduli (GPa) = 51.52085 56.40234 74.98133
#
# Poissons Ratio (x) = -0.41779 0.37881
# Poissons Ratio (y) = -0.38163 0.55622
# Poissons Ratio (z) = 0.26029 0.41840
#
# Static dielectric constant tensor:
#      x y z
#    x 1.854220 0.000000 0.000000 
#    y 0.000000 1.759240 0.000000 
#    z 0.000000 0.000000 1.863500 
# 
# From -- ./inp_files/12854.got.cif
#   From: 2010.05.17/outbox.cif.g08.bks.cpg/sg43_7_cif.got.tgz:12854.got - 2010.06.03 19:21:55.
