data_PCOD9372416
_publ_section_title
;
Structure prediction by ZEFSAII (Michael W. Deem and Ramdas Pophale) SiO2 
 PCOD9372416
Probable space group: F D D 2
;
_chemical_formula_sum "Si O2"
_cell_formula_units_Z 120
_cell_length_a 24.976950
_cell_length_b 8.447930
_cell_length_c 25.963407
_cell_angle_alpha 90.000000
_cell_angle_beta 90.000000
_cell_angle_gamma 90.000000
_cell_volume 5478.370404
_symmetry_space_group_name_H-M "F D D 2"
_symmetry_group_IT_number 43
_symmetry_cell_setting 'orthorhombic'
loop_
_space_group_symop_operation_xyz
x,y,z
-x,-y,z
1/4-x,1/4+y,1/4+z
1/4+x,1/4-y,1/4+z
x,1/2+y,1/2+z
-x,1/2-y,1/2+z
1/4-x,3/4+y,3/4+z
1/4+x,3/4-y,3/4+z
1/2+x,y,1/2+z
1/2-x,-y,1/2+z
3/4-x,1/4+y,3/4+z
3/4+x,1/4-y,3/4+z
1/2+x,1/2+y,z
1/2-x,1/2-y,z
3/4-x,3/4+y,1/4+z
3/4+x,3/4-y,1/4+z
loop_
_atom_site_type_symbol
_atom_site_label
_atom_site_fract_x
_atom_site_fract_y
_atom_site_fract_z
Si Si1 0.500000 0.500000 0.238580
Si Si2 0.375844 0.936133 0.589468
Si Si3 0.107634 0.331182 0.162602
Si Si4 0.654610 0.600908 0.425190
Si Si5 0.806783 0.168969 0.743655
Si Si6 0.194702 0.837979 0.356375
Si Si7 0.809123 0.787877 0.742396
Si Si8 0.284130 0.908045 0.513591
O O1 0.554612 0.464657 0.206278
O O2 0.507698 0.667663 0.267954
O O3 0.405703 0.795647 0.619129
O O4 0.411048 0.994300 0.541546
O O5 0.322049 0.881576 0.562403
O O6 0.367061 0.060254 0.634421
O O7 0.163914 0.298700 0.189662
O O8 0.104324 0.495395 0.132761
O O9 0.067766 0.334620 0.210692
O O10 0.693212 0.500720 0.387230
O O11 0.613518 0.507063 0.462020
O O12 0.750000 0.250000 0.743260
O O13 0.808653 0.978042 0.751917
O O14 0.250000 0.750000 0.369408
O O15 0.189451 0.816374 0.295160
O O16 0.750000 0.750000 0.718707
O O17 0.250000 0.750000 0.508777
#
# Coordination Sequence:
#
# PCOD9372416 Si02
#       8
#     8  16  16  16  16  16  16  16
#     4  12  26  44  84 108 150 194 252 320 372 448
#     4  11  27  44  70 104 144 189 242 304 375 445
#     4  11  21  46  69  99 138 185 236 301 370 432
#     4  12  27  47  71 111 150 187 253 310 368 454
#     4  11  26  43  71 101 141 189 244 303 370 451
#     4  11  24  42  76 101 137 190 240 300 369 436
#     4  11  27  47  69 105 148 195 242 305 371 448
#     4  11  26  48  72 108 147 189 245 309 374 445
#
# _framework density 21.904323000000002
#
# number of rings (size 3 to 8) (size 9 to 14) (size 15 to 20)
#    0.000    0.800    4.000    2.000   10.267    0.533 
#    1.200    0.000    0.000    0.000    0.000    0.000 
#    0.000    0.000    0.000    0.000    0.000    0.000 
#
# Total GULP energy -167431.506294 kJ/mol
# GULP energy per Si atom -5581.050210 kJ/mol
# Density = 2.185447 g / cm^3
# Si number density = 21.904323 Si / 1000 Ang^3
#
#
#
# Elastic Constant Matrix: (Units=GPa)
#
#
# Indices 1 2 3 4 5 6 
#
# 1 91.7621 43.5803 51.1574 0.0000 0.0000 0.0000
# 2 43.5803 79.8397 14.3481 0.0000 -0.0001 0.0001
# 3 51.1574 14.3481 76.7115 0.0000 0.0000 0.0000
# 4 0.0000 0.0000 0.0000 16.7782 0.0000 0.0000
# 5 0.0000 -0.0001 0.0000 0.0000 -12.3185 0.0001
# 6 0.0000 0.0001 0.0000 0.0000 0.0001 36.1623
#
#
#
# Elastic Compliance Matrix: (Units=1/GPa)
#
#
# Indices 1 2 3 4 5 6 
#
# 1 0.023445 -0.010335 -0.013702 0.000000 0.000000 0.000000
# 2 -0.010335 0.017517 0.003616 0.000000 0.000000 0.000000
# 3 -0.013702 0.003616 0.021497 0.000000 0.000000 0.000000
# 4 0.000000 0.000000 0.000000 0.059601 0.000000 0.000000
# 5 0.000000 0.000000 0.000000 0.000000 -0.081178 0.000000
# 6 0.000000 0.000000 0.000000 0.000000 0.000000 0.027653
#
#
# Mechanical properties :
#
#
# Convention : Reuss Voigt Hill
#
# Bulk Modulus (GPa) = 46.26070 51.83165 49.04618
# Shear Modulus (GPa) = 42.88834 17.40623 30.14728
#
# Velocity S-wave (km/s) = 4.42971 2.82201 3.71390
# Velocity P-wave (km/s) = 6.87957 5.85939 6.38987
#
# Compressibility (1/GPa) = 0.02161662
#
# Stress axis : x y z
#
# Youngs Moduli (GPa) = 42.65320 57.08872 46.51797
#
# Poissons Ratio (x) = 0.59001 0.63738
# Poissons Ratio (y) = 0.44082 -0.16820
# Poissons Ratio (z) = 0.58443 -0.20643
#
# Static dielectric constant tensor:
#      x y z
#    x 1.991480 0.000000 0.000000 
#    y 0.000000 1.901160 0.000000 
#    z 0.000000 0.000000 1.752220 
# 
# From -- ./inp_files/26614.got.cif
#   From: 2010.05.17/outbox.cif.g08.bks.cpg/sg43_14_cif.got.tgz:26614.got - 2010.06.03 19:21:55.
