data_PCOD9372454
_publ_section_title
;
Structure prediction by ZEFSAII (Michael W. Deem and Ramdas Pophale) SiO2 
 PCOD9372454
Probable space group: F D D 2
;
_chemical_formula_sum "Si O2"
_cell_formula_units_Z 120
_cell_length_a 12.511939
_cell_length_b 32.530639
_cell_length_c 14.032326
_cell_angle_alpha 90.000000
_cell_angle_beta 90.000000
_cell_angle_gamma 90.000000
_cell_volume 5711.456564
_symmetry_space_group_name_H-M "F D D 2"
_symmetry_group_IT_number 43
_symmetry_cell_setting 'orthorhombic'
loop_
_space_group_symop_operation_xyz
x,y,z
-x,-y,z
1/4-x,1/4+y,1/4+z
1/4+x,1/4-y,1/4+z
x,1/2+y,1/2+z
-x,1/2-y,1/2+z
1/4-x,3/4+y,3/4+z
1/4+x,3/4-y,3/4+z
1/2+x,y,1/2+z
1/2-x,-y,1/2+z
3/4-x,1/4+y,3/4+z
3/4+x,1/4-y,3/4+z
1/2+x,1/2+y,z
1/2-x,1/2-y,z
3/4-x,3/4+y,1/4+z
3/4+x,3/4-y,1/4+z
loop_
_atom_site_type_symbol
_atom_site_label
_atom_site_fract_x
_atom_site_fract_y
_atom_site_fract_z
Si Si1 0.500000 0.000000 0.226470
Si Si2 0.914625 0.634654 0.204004
Si Si3 0.410322 0.302144 0.664857
Si Si4 0.552455 0.724958 0.116023
Si Si5 0.410937 0.147236 0.580526
Si Si6 0.176102 0.638246 0.024908
Si Si7 0.552628 0.407378 0.905355
Si Si8 0.255147 0.680999 0.321260
O O1 0.605491 0.988743 0.289624
O O2 0.470184 0.963043 0.155039
O O3 0.822614 0.665984 0.168434
O O4 0.910293 0.608774 0.302187
O O5 0.925970 0.601609 0.120471
O O6 0.021033 0.661285 0.210616
O O7 0.485535 0.262567 0.657969
O O8 0.385192 0.320822 0.559490
O O9 0.305457 0.298096 0.731791
O O10 0.459968 0.692606 0.084759
O O11 0.624413 0.695845 0.184388
O O12 0.283586 0.141775 0.585993
O O13 0.454313 0.117671 0.664301
O O14 0.438621 0.129684 0.478219
O O15 0.107846 0.596888 0.045316
#
# Coordination Sequence:
#
# PCOD9372454 Si02
#       8
#     8  16  16  16  16  16  16  16
#     4  12  26  44  70 110 150 190 240 306 368 422
#     4  11  22  42  72 100 135 182 242 292 361 436
#     4  11  26  43  71 105 144 182 234 303 364 426
#     4  12  27  44  70 107 146 186 241 307 357 432
#     4  12  24  45  69 100 139 195 236 295 356 432
#     4  11  25  45  71 103 137 190 249 290 364 444
#     4  12  21  43  68  97 139 185 238 292 357 426
#     4  11  24  42  72 103 141 188 235 301 364 441
#
# _framework density 21.010403
#
# number of rings (size 3 to 8) (size 9 to 14) (size 15 to 20)
#    0.000    0.533    6.667    0.800    3.733    0.533 
#    0.000    0.000    0.000    3.200    0.000    0.000 
#    0.000    0.000    0.000    0.000    0.000    0.000 
#
# Total GULP energy -167194.329488 kJ/mol
# GULP energy per Si atom -5573.144316 kJ/mol
# Density = 2.096258 g / cm^3
# Si number density = 21.010403 Si / 1000 Ang^3
#
#
#
# Elastic Constant Matrix: (Units=GPa)
#
#
# Indices 1 2 3 4 5 6 
#
# 1 93.0513 20.0908 48.0269 0.0000 0.0000 0.0000
# 2 20.0908 86.4291 37.9856 0.0000 0.0000 0.0000
# 3 48.0269 37.9856 75.7123 0.0000 0.0000 0.0000
# 4 0.0000 0.0000 0.0000 26.5721 0.0000 0.0000
# 5 0.0000 0.0000 0.0000 0.0000 26.1956 0.0000
# 6 0.0000 0.0000 0.0000 0.0000 0.0000 49.2881
#
#
#
# Elastic Compliance Matrix: (Units=1/GPa)
#
#
# Indices 1 2 3 4 5 6 
#
# 1 0.016039 0.000953 -0.010652 0.000000 0.000000 0.000000
# 2 0.000953 0.014900 -0.008080 0.000000 0.000000 0.000000
# 3 -0.010652 -0.008080 0.024019 0.000000 0.000000 0.000000
# 4 0.000000 0.000000 0.000000 0.037633 0.000000 0.000000
# 5 0.000000 0.000000 0.000000 0.000000 0.038174 0.000000
# 6 0.000000 0.000000 0.000000 0.000000 0.000000 0.020289
#
#
# Mechanical properties :
#
#
# Convention : Reuss Voigt Hill
#
# Bulk Modulus (GPa) = 51.54789 51.93326 51.74057
# Shear Modulus (GPa) = 25.89612 30.35045 28.12329
#
# Velocity S-wave (km/s) = 3.51456 3.80484 3.66258
# Velocity P-wave (km/s) = 6.40759 6.63882 6.52423
#
# Compressibility (1/GPa) = 0.01939944
#
# Stress axis : x y z
#
# Youngs Moduli (GPa) = 62.34820 67.11507 41.63381
#
# Poissons Ratio (x) = -0.06399 0.44350
# Poissons Ratio (y) = -0.05944 0.33641
# Poissons Ratio (z) = 0.66416 0.54230
#
# Static dielectric constant tensor:
#      x y z
#    x 1.928980 0.000000 0.000000 
#    y 0.000000 1.737120 0.000000 
#    z 0.000000 0.000000 1.772310 
# 
# From -- ./inp_files/10368.got.cif
#   From: 2010.05.17/outbox.cif.g08.bks.cpg/sg43_6_cif.got.tgz:10368.got - 2010.06.03 19:21:55.
