data_PCOD9372795
_publ_section_title
;
Structure prediction by ZEFSAII (Michael W. Deem and Ramdas Pophale) SiO2 
 PCOD9372795
Probable space group: F D D 2
;
_chemical_formula_sum "Si O2"
_cell_formula_units_Z 112
_cell_length_a 14.795592
_cell_length_b 24.128890
_cell_length_c 12.268726
_cell_angle_alpha 90.000000
_cell_angle_beta 90.000000
_cell_angle_gamma 90.000000
_cell_volume 4379.950050
_symmetry_space_group_name_H-M "F D D 2"
_symmetry_group_IT_number 43
_symmetry_cell_setting 'orthorhombic'
loop_
_space_group_symop_operation_xyz
x,y,z
-x,-y,z
1/4-x,1/4+y,1/4+z
1/4+x,1/4-y,1/4+z
x,1/2+y,1/2+z
-x,1/2-y,1/2+z
1/4-x,3/4+y,3/4+z
1/4+x,3/4-y,3/4+z
1/2+x,y,1/2+z
1/2-x,-y,1/2+z
3/4-x,1/4+y,3/4+z
3/4+x,1/4-y,3/4+z
1/2+x,1/2+y,z
1/2-x,1/2-y,z
3/4-x,3/4+y,1/4+z
3/4+x,3/4-y,1/4+z
loop_
_atom_site_type_symbol
_atom_site_label
_atom_site_fract_x
_atom_site_fract_y
_atom_site_fract_z
Si Si1 0.000000 0.500000 0.285571
Si Si2 0.895012 0.667197 0.798832
Si Si3 0.037089 0.892569 0.491791
Si Si4 0.250000 0.750000 0.095920
Si Si5 0.347908 0.537980 0.623103
Si Si6 0.106223 0.269776 0.415589
Si Si7 0.889687 0.547061 0.450607
Si Si8 0.257533 0.131457 0.352226
O O1 0.935405 0.532540 0.201923
O O2 0.923290 0.493983 0.380358
O O3 0.951127 0.656888 0.908891
O O4 0.798235 0.638765 0.820465
O O5 0.894144 0.733802 0.794114
O O6 0.933653 0.634433 0.694910
O O7 0.128582 0.907707 0.553706
O O8 0.005621 0.944624 0.417141
O O9 0.158619 0.748541 0.022582
O O10 0.248037 0.537598 0.673545
O O11 0.107428 0.226830 0.315448
O O12 0.175020 0.318904 0.383703
O O13 0.820684 0.578203 0.371876
O O14 0.959243 0.595089 0.493566
#
# Coordination Sequence:
#
# PCOD9372795 Si02
#       8
#     8  16  16   8  16  16  16  16
#     4  12  26  54  68 102 166 196 244 326 380 458
#     4  12  24  47  80 110 148 197 262 317 381 465
#     4  12  26  48  75 110 150 199 258 317 381 462
#     4  12  22  46  76 106 150 192 250 318 374 456
#     4  12  28  50  74 109 158 202 254 319 391 447
#     4  12  25  48  73 114 151 200 252 322 387 450
#     4  12  26  48  76 109 156 199 254 316 382 465
#     4  12  25  45  77 114 145 196 261 310 386 462
#
# _framework density 25.571066999999999
#
# number of rings (size 3 to 8) (size 9 to 14) (size 15 to 20)
#    0.000    0.000    8.571    0.857    4.000    2.286 
#    0.000    0.000    0.000    0.000    0.000    0.000 
#    0.000    0.000    0.000    0.000    0.000    0.000 
#
# Total GULP energy -156102.528292 kJ/mol
# GULP energy per Si atom -5575.090296 kJ/mol
# Density = 2.551287 g / cm^3
# Si number density = 25.571067 Si / 1000 Ang^3
#
#
#
# Elastic Constant Matrix: (Units=GPa)
#
#
# Indices 1 2 3 4 5 6 
#
# 1 146.7325 21.3067 45.4206 0.0000 0.0000 0.0000
# 2 21.3067 68.2647 23.2807 0.0000 0.0000 0.0000
# 3 45.4206 23.2807 104.7955 0.0000 0.0000 0.0000
# 4 0.0000 0.0000 0.0000 6.2285 0.0000 0.0000
# 5 0.0000 0.0000 0.0000 0.0000 27.6547 0.0000
# 6 0.0000 0.0000 0.0000 0.0000 0.0000 37.3708
#
#
#
# Elastic Compliance Matrix: (Units=1/GPa)
#
#
# Indices 1 2 3 4 5 6 
#
# 1 0.007997 -0.001422 -0.003150 0.000000 0.000000 0.000000
# 2 -0.001422 0.016102 -0.002961 0.000000 0.000000 0.000000
# 3 -0.003150 -0.002961 0.011566 0.000000 0.000000 0.000000
# 4 0.000000 0.000000 0.000000 0.160553 0.000000 0.000000
# 5 0.000000 0.000000 0.000000 0.000000 0.036160 0.000000
# 6 0.000000 0.000000 0.000000 0.000000 0.000000 0.026759
#
#
# Mechanical properties :
#
#
# Convention : Reuss Voigt Hill
#
# Bulk Modulus (GPa) = 48.54592 55.53429 52.04011
# Shear Modulus (GPa) = 17.78926 29.56978 23.67952
#
# Velocity S-wave (km/s) = 2.64043 3.40424 3.04637
# Velocity P-wave (km/s) = 5.32182 6.10054 5.72444
#
# Compressibility (1/GPa) = 0.02059905
#
# Stress axis : x y z
#
# Youngs Moduli (GPa) = 125.05225 62.10252 86.46383
#
# Poissons Ratio (x) = 0.08829 0.27237
# Poissons Ratio (y) = 0.17777 0.25602
# Poissons Ratio (z) = 0.39393 0.18389
#
# Static dielectric constant tensor:
#      x y z
#    x 2.104330 0.000000 0.000000 
#    y 0.000000 2.097020 0.000000 
#    z 0.000000 0.000000 2.026150 
# 
# From -- ./inp_files/6356.got.cif
#   From: 2010.05.17/outbox.cif.g08.bks.cpg/sg43_4_cif.got.tgz:6356.got - 2010.06.03 19:21:55.
