data_PCOD9372922
_publ_section_title
;
Structure prediction by ZEFSAII (Michael W. Deem and Ramdas Pophale) SiO2 
 PCOD9372922
Probable space group: F D D 2
;
_chemical_formula_sum "Si O2"
_cell_formula_units_Z 80
_cell_length_a 27.295614
_cell_length_b 9.846305
_cell_length_c 11.522365
_cell_angle_alpha 90.000000
_cell_angle_beta 90.000000
_cell_angle_gamma 90.000000
_cell_volume 3096.761655
_symmetry_space_group_name_H-M "F D D 2"
_symmetry_group_IT_number 43
_symmetry_cell_setting 'orthorhombic'
loop_
_space_group_symop_operation_xyz
x,y,z
-x,-y,z
1/4-x,1/4+y,1/4+z
1/4+x,1/4-y,1/4+z
x,1/2+y,1/2+z
-x,1/2-y,1/2+z
1/4-x,3/4+y,3/4+z
1/4+x,3/4-y,3/4+z
1/2+x,y,1/2+z
1/2-x,-y,1/2+z
3/4-x,1/4+y,3/4+z
3/4+x,1/4-y,3/4+z
1/2+x,1/2+y,z
1/2-x,1/2-y,z
3/4-x,3/4+y,1/4+z
3/4+x,3/4-y,1/4+z
loop_
_atom_site_type_symbol
_atom_site_label
_atom_site_fract_x
_atom_site_fract_y
_atom_site_fract_z
Si Si1 0.445194 0.899258 0.934210
Si Si2 0.554806 0.899258 0.154338
Si Si3 0.526731 0.750000 0.794274
Si Si4 0.092764 0.844824 0.083505
Si Si5 0.092764 0.155176 0.005043
O O1 0.492226 0.859574 0.858447
O O2 0.398797 0.946464 0.859237
O O3 0.449912 1.000000 0.044274
O O4 0.428745 0.754108 0.986667
O O5 0.507774 0.859575 0.230102
O O6 0.601203 0.946464 0.229311
O O7 0.571255 0.754109 0.101880
O O8 0.560549 0.818072 0.697341
O O9 0.560549 0.681928 0.891207
O O10 0.090404 0.000000 0.044274
#
# Coordination Sequence:
#
# PCOD9372922 Si02
#       5
#    16  16  16  16  16
#     4  12  28  53  81 116 162 212 269 333 401 475
#     4  12  28  53  81 116 162 212 269 333 401 475
#     4  12  30  50  84 120 166 214 270 334 404 482
#     4  12  28  53  81 116 162 212 269 333 401 475
#     4  12  28  53  81 116 162 212 269 333 401 475
#
# _framework density 25.833438000000001
#
# number of rings (size 3 to 8) (size 9 to 14) (size 15 to 20)
#    0.000    0.000    4.000    3.600    0.000    9.600 
#    0.000    0.000    0.000    0.000    0.000    0.000 
#    0.000    0.000    0.000    0.000    0.000    0.000 
#
# Total GULP energy -112473.324018 kJ/mol
# GULP energy per Si atom -5623.666201 kJ/mol
# Density = 2.577464 g / cm^3
# Si number density = 25.833438 Si / 1000 Ang^3
#
#
#
# Elastic Constant Matrix: (Units=GPa)
#
#
# Indices 1 2 3 4 5 6 
#
# 1 166.8474 19.7092 55.5987 0.0000 0.0000 0.0000
# 2 19.7092 124.1057 22.2202 0.0000 0.0000 0.0000
# 3 55.5987 22.2202 100.6883 0.0000 0.0000 0.0000
# 4 0.0000 0.0000 0.0000 61.9322 0.0000 0.0000
# 5 0.0000 0.0000 0.0000 0.0000 50.6233 0.0000
# 6 0.0000 0.0000 0.0000 0.0000 0.0000 27.6198
#
#
#
# Elastic Compliance Matrix: (Units=1/GPa)
#
#
# Indices 1 2 3 4 5 6 
#
# 1 0.007370 -0.000460 -0.003968 0.000000 0.000000 0.000000
# 2 -0.000460 0.008418 -0.001604 0.000000 0.000000 0.000000
# 3 -0.003968 -0.001604 0.012477 0.000000 0.000000 0.000000
# 4 0.000000 0.000000 0.000000 0.016147 0.000000 0.000000
# 5 0.000000 0.000000 0.000000 0.000000 0.019754 0.000000
# 6 0.000000 0.000000 0.000000 0.000000 0.000000 0.036206
#
#
# Mechanical properties :
#
#
# Convention : Reuss Voigt Hill
#
# Bulk Modulus (GPa) = 61.72452 65.18863 63.45658
# Shear Modulus (GPa) = 42.43218 47.64261 45.03739
#
# Velocity S-wave (km/s) = 4.05721 4.29910 4.17991
# Velocity P-wave (km/s) = 6.77444 7.06626 6.92189
#
# Compressibility (1/GPa) = 0.01620102
#
# Stress axis : x y z
#
# Youngs Moduli (GPa) = 135.68228 118.79554 80.14926
#
# Poissons Ratio (x) = 0.05464 0.31805
# Poissons Ratio (y) = 0.06241 0.12853
# Poissons Ratio (z) = 0.53841 0.19051
#
# Static dielectric constant tensor:
#      x y z
#    x 2.048110 0.000000 0.000000 
#    y 0.000000 2.046480 0.000000 
#    z 0.000000 0.000000 1.999980 
# 
# From -- ./inp_files/7445.got.cif
#   From: 2010.05.17/outbox.cif.g08.bks.cpg/sg43_4_cif.got.tgz:7445.got - 2010.06.03 19:21:55.
