data_PCOD9372599
_publ_section_title
;
Structure prediction by ZEFSAII (Michael W. Deem and Ramdas Pophale) SiO2 
 PCOD9372599
Probable space group: F D D 2
;
_chemical_formula_sum "Si O2"
_cell_formula_units_Z 112
_cell_length_a 4.892153
_cell_length_b 30.473231
_cell_length_c 30.708672
_cell_angle_alpha 90.000000
_cell_angle_beta 90.000000
_cell_angle_gamma 90.000000
_cell_volume 4578.039869
_symmetry_space_group_name_H-M "F D D 2"
_symmetry_group_IT_number 43
_symmetry_cell_setting 'orthorhombic'
loop_
_space_group_symop_operation_xyz
x,y,z
-x,-y,z
1/4-x,1/4+y,1/4+z
1/4+x,1/4-y,1/4+z
x,1/2+y,1/2+z
-x,1/2-y,1/2+z
1/4-x,3/4+y,3/4+z
1/4+x,3/4-y,3/4+z
1/2+x,y,1/2+z
1/2-x,-y,1/2+z
3/4-x,1/4+y,3/4+z
3/4+x,1/4-y,3/4+z
1/2+x,1/2+y,z
1/2-x,1/2-y,z
3/4-x,3/4+y,1/4+z
3/4+x,3/4-y,1/4+z
loop_
_atom_site_type_symbol
_atom_site_label
_atom_site_fract_x
_atom_site_fract_y
_atom_site_fract_z
Si Si1 0.112766 0.203223 0.247310
Si Si2 0.150888 0.848483 0.546117
Si Si3 0.619489 0.798315 0.575255
Si Si4 0.738938 0.201571 0.397174
Si Si5 0.987027 0.428490 0.591379
Si Si6 0.806390 0.199572 0.167252
Si Si7 0.975057 0.128624 0.704238
O O1 0.250000 0.250000 0.236802
O O2 0.115767 0.196360 0.298146
O O3 0.256705 0.161771 0.224546
O O4 0.840870 0.202294 0.219524
O O5 0.365346 0.808383 0.544580
O O6 0.320009 0.885194 0.573999
O O7 0.101502 0.864545 0.496730
O O8 0.866392 0.832392 0.566136
O O9 0.750000 0.750000 0.569714
O O10 0.504338 0.807161 0.624701
O O11 0.750000 0.250000 0.417383
O O12 0.515802 0.206952 0.358854
O O13 0.625860 0.165228 0.430590
O O14 0.024720 0.182219 0.377902
O O15 0.750000 0.250000 0.157936
O O16 0.609749 0.158179 0.166581
#
# Coordination Sequence:
#
# PCOD9372599 Si02
#       7
#    16  16  16  16  16  16  16
#     4  11  24  42  69 104 139 177 225 293 357 426
#     4  11  25  46  70 103 136 187 233 291 349 421
#     4  11  26  45  72 100 142 185 238 287 352 415
#     4  12  27  48  70 102 138 193 238 290 342 417
#     4  11  26  46  74  99 140 182 237 289 356 416
#     4  11  24  42  69 104 139 179 224 292 357 426
#     4  11  27  43  70 100 140 181 232 288 353 413
#
# _framework density 24.464618000000002
#
# number of rings (size 3 to 8) (size 9 to 14) (size 15 to 20)
#    0.000    0.857    1.429    4.286   14.000    1.714 
#    0.000    0.000    0.000    0.000    0.000    0.000 
#    0.000    0.000    0.000    0.000    0.000    0.000 
#
# Total GULP energy -156032.705829 kJ/mol
# GULP energy per Si atom -5572.596637 kJ/mol
# Density = 2.440894 g / cm^3
# Si number density = 24.464618 Si / 1000 Ang^3
#
#
#
# Elastic Constant Matrix: (Units=GPa)
#
#
# Indices 1 2 3 4 5 6 
#
# 1 79.4643 14.6080 8.9178 0.0000 0.0000 0.0000
# 2 14.6080 137.2357 48.8116 0.0000 0.0000 0.0000
# 3 8.9178 48.8116 70.5151 0.0000 0.0000 0.0000
# 4 0.0000 0.0000 0.0000 21.6097 0.0000 0.0000
# 5 0.0000 0.0000 0.0000 0.0000 23.1474 0.0000
# 6 0.0000 0.0000 0.0000 0.0000 0.0000 29.4362
#
#
#
# Elastic Compliance Matrix: (Units=1/GPa)
#
#
# Indices 1 2 3 4 5 6 
#
# 1 0.012879 -0.001050 -0.000902 0.000000 0.000000 0.000000
# 2 -0.001050 0.009752 -0.006618 0.000000 0.000000 0.000000
# 3 -0.000902 -0.006618 0.018876 0.000000 0.000000 0.000000
# 4 0.000000 0.000000 0.000000 0.046276 0.000000 0.000000
# 5 0.000000 0.000000 0.000000 0.000000 0.043201 0.000000
# 6 0.000000 0.000000 0.000000 0.000000 0.000000 0.033972
#
#
# Mechanical properties :
#
#
# Convention : Reuss Voigt Hill
#
# Bulk Modulus (GPa) = 41.03804 47.98778 44.51291
# Shear Modulus (GPa) = 26.28559 29.16382 27.72470
#
# Velocity S-wave (km/s) = 3.28141 3.45640 3.37004
# Velocity P-wave (km/s) = 5.58281 5.96546 5.77730
#
# Compressibility (1/GPa) = 0.02436764
#
# Stress axis : x y z
#
# Youngs Moduli (GPa) = 77.64867 102.53928 52.97612
#
# Poissons Ratio (x) = 0.10768 0.04777
# Poissons Ratio (y) = 0.08154 0.35059
# Poissons Ratio (z) = 0.07002 0.67860
#
# Static dielectric constant tensor:
#      x y z
#    x 2.023770 0.000000 0.000000 
#    y 0.000000 2.061150 0.000000 
#    z 0.000000 0.000000 2.025450 
# 
# From -- ./inp_files/27414.got.cif
#   From: 2010.05.17/outbox.cif.g08.bks.cpg/sg43_14_cif.got.tgz:27414.got - 2010.06.03 19:21:55.
