data_PCOD9372152
_publ_section_title
;
Structure prediction by ZEFSAII (Michael W. Deem and Ramdas Pophale) SiO2 
 PCOD9372152
Probable space group: F D D 2
;
_chemical_formula_sum "Si O2"
_cell_formula_units_Z 80
_cell_length_a 7.374384
_cell_length_b 24.539123
_cell_length_c 16.650525
_cell_angle_alpha 90.000000
_cell_angle_beta 90.000000
_cell_angle_gamma 90.000000
_cell_volume 3013.094256
_symmetry_space_group_name_H-M "F D D 2"
_symmetry_group_IT_number 43
_symmetry_cell_setting 'orthorhombic'
loop_
_space_group_symop_operation_xyz
x,y,z
-x,-y,z
1/4-x,1/4+y,1/4+z
1/4+x,1/4-y,1/4+z
x,1/2+y,1/2+z
-x,1/2-y,1/2+z
1/4-x,3/4+y,3/4+z
1/4+x,3/4-y,3/4+z
1/2+x,y,1/2+z
1/2-x,-y,1/2+z
3/4-x,1/4+y,3/4+z
3/4+x,1/4-y,3/4+z
1/2+x,1/2+y,z
1/2-x,1/2-y,z
3/4-x,3/4+y,1/4+z
3/4+x,3/4-y,1/4+z
loop_
_atom_site_type_symbol
_atom_site_label
_atom_site_fract_x
_atom_site_fract_y
_atom_site_fract_z
Si Si1 0.063877 0.720553 0.120250
Si Si2 0.475859 0.836846 0.637306
Si Si3 0.717867 0.497839 0.705598
Si Si4 0.613238 0.137164 0.390597
Si Si5 0.986564 0.668034 0.824866
O O1 0.250000 0.750000 0.151220
O O2 0.943598 0.774527 0.117025
O O3 0.967761 0.669801 0.163217
O O4 0.069752 0.714804 0.022707
O O5 0.313714 0.868052 0.593729
O O6 0.664148 0.866099 0.615757
O O7 0.460717 0.835507 0.733178
O O8 0.500000 0.500000 0.713184
O O9 0.732144 0.432429 0.698011
O O10 0.781849 0.526763 0.622811
O O11 0.769970 0.164075 0.337444
#
# Coordination Sequence:
#
# PCOD9372152 Si02
#       5
#    16  16  16  16  16
#     4  12  25  48  75 108 156 202 256 323 400 467
#     4  12  26  47  77 115 151 210 257 323 398 470
#     4  10  24  47  75 109 152 205 255 321 393 470
#     4  11  25  48  74 109 154 196 259 319 384 472
#     4  11  26  48  76 116 156 200 265 320 396 469
#
# _framework density 26.550778000000001
#
# number of rings (size 3 to 8) (size 9 to 14) (size 15 to 20)
#    0.000    0.800    2.000    4.200    2.800    7.200 
#   18.000    0.000    0.000    0.000    0.000    0.000 
#    0.000    0.000    0.000    0.000    0.000    0.000 
#
# Total GULP energy -111487.458544 kJ/mol
# GULP energy per Si atom -5574.372927 kJ/mol
# Density = 2.649035 g / cm^3
# Si number density = 26.550778 Si / 1000 Ang^3
#
#
#
# Elastic Constant Matrix: (Units=GPa)
#
#
# Indices 1 2 3 4 5 6 
#
# 1 96.2727 -7.8354 11.9148 0.0000 0.0000 0.0000
# 2 -7.8354 118.2839 40.2312 0.0000 0.0000 0.0000
# 3 11.9148 40.2312 88.9335 0.0000 0.0000 0.0000
# 4 0.0000 0.0000 0.0000 40.2979 0.0000 0.0000
# 5 0.0000 0.0000 0.0000 0.0000 25.3068 0.0000
# 6 0.0000 0.0000 0.0000 0.0000 0.0000 44.4779
#
#
#
# Elastic Compliance Matrix: (Units=1/GPa)
#
#
# Indices 1 2 3 4 5 6 
#
# 1 0.010761 0.001422 -0.002085 0.000000 0.000000 0.000000
# 2 0.001422 0.010179 -0.004795 0.000000 0.000000 0.000000
# 3 -0.002085 -0.004795 0.013693 0.000000 0.000000 0.000000
# 4 0.000000 0.000000 0.000000 0.024815 0.000000 0.000000
# 5 0.000000 0.000000 0.000000 0.000000 0.039515 0.000000
# 6 0.000000 0.000000 0.000000 0.000000 0.000000 0.022483
#
#
# Mechanical properties :
#
#
# Convention : Reuss Voigt Hill
#
# Bulk Modulus (GPa) = 42.16460 43.56794 42.86627
# Shear Modulus (GPa) = 35.64577 39.29515 37.47046
#
# Velocity S-wave (km/s) = 3.66806 3.85125 3.76077
# Velocity P-wave (km/s) = 5.81848 6.01840 5.91928
#
# Compressibility (1/GPa) = 0.02371658
#
# Stress axis : x y z
#
# Youngs Moduli (GPa) = 92.92885 98.23693 73.02994
#
# Poissons Ratio (x) = -0.13969 0.15226
# Poissons Ratio (y) = -0.13214 0.35021
# Poissons Ratio (z) = 0.19375 0.47109
#
# Static dielectric constant tensor:
#      x y z
#    x 2.111580 0.000000 0.000000 
#    y 0.000000 2.234480 0.000000 
#    z 0.000000 0.000000 2.205310 
# 
# From -- ./inp_files/12743.got.cif
#   From: 2010.05.17/outbox.cif.g08.bks.cpg/sg43_7_cif.got.tgz:12743.got - 2010.06.03 19:21:55.
