data_PCOD9372084
_publ_section_title
;
Structure prediction by ZEFSAII (Michael W. Deem and Ramdas Pophale) SiO2 
 PCOD9372084
Probable space group: F D D 2
;
_chemical_formula_sum "Si O2"
_cell_formula_units_Z 120
_cell_length_a 16.128516
_cell_length_b 12.395532
_cell_length_c 27.372713
_cell_angle_alpha 90.000000
_cell_angle_beta 90.000000
_cell_angle_gamma 90.000000
_cell_volume 5472.394833
_symmetry_space_group_name_H-M "F D D 2"
_symmetry_group_IT_number 43
_symmetry_cell_setting 'orthorhombic'
loop_
_space_group_symop_operation_xyz
x,y,z
-x,-y,z
1/4-x,1/4+y,1/4+z
1/4+x,1/4-y,1/4+z
x,1/2+y,1/2+z
-x,1/2-y,1/2+z
1/4-x,3/4+y,3/4+z
1/4+x,3/4-y,3/4+z
1/2+x,y,1/2+z
1/2-x,-y,1/2+z
3/4-x,1/4+y,3/4+z
3/4+x,1/4-y,3/4+z
1/2+x,1/2+y,z
1/2-x,1/2-y,z
3/4-x,3/4+y,1/4+z
3/4+x,3/4-y,1/4+z
loop_
_atom_site_type_symbol
_atom_site_label
_atom_site_fract_x
_atom_site_fract_y
_atom_site_fract_z
Si Si1 0.000000 0.500000 0.507190
Si Si2 0.189652 0.830589 0.524594
Si Si3 0.757136 0.513964 0.579515
Si Si4 0.520086 0.238400 0.529841
Si Si5 0.581612 0.242387 0.191385
Si Si6 0.179661 0.844335 0.346713
Si Si7 0.583021 0.158438 0.729243
Si Si8 0.071527 0.209792 0.437517
O O1 0.006137 0.611258 0.537105
O O2 0.084350 0.482818 0.476640
O O3 0.250000 0.750000 0.495725
O O4 0.111247 0.770782 0.546130
O O5 0.248726 0.890342 0.562654
O O6 0.155568 0.923152 0.489844
O O7 0.661957 0.551328 0.585089
O O8 0.801733 0.580360 0.535659
O O9 0.802758 0.519595 0.631006
O O10 0.456836 0.316926 0.556873
O O11 0.507096 0.262903 0.472049
O O12 0.579144 0.160885 0.146635
O O13 0.491468 0.297028 0.196900
O O14 0.648777 0.336838 0.189907
O O15 0.250000 0.750000 0.348315
O O16 0.609992 0.040431 0.710964
#
# Coordination Sequence:
#
# PCOD9372084 Si02
#       8
#     8  16  16  16  16  16  16  16
#     4  10  24  44  72 108 140 198 236 310 372 442
#     4  11  23  45  70 100 143 188 240 302 367 437
#     4  11  25  47  71 109 145 196 253 304 371 444
#     4  11  23  45  71 100 149 191 242 307 369 442
#     4  11  25  43  71 107 140 193 242 303 365 441
#     4  12  26  45  72 109 147 193 253 311 369 447
#     4  10  24  48  74 104 153 192 245 307 367 450
#     4  11  26  45  72 108 148 201 244 307 370 443
#
# _framework density 21.928242000000001
#
# number of rings (size 3 to 8) (size 9 to 14) (size 15 to 20)
#    0.000    1.067    1.333    4.800    3.733    6.933 
#    7.200    0.000    0.000    0.000    0.000    0.000 
#    0.000    0.000    0.000    0.000    0.000    0.000 
#
# Total GULP energy -167686.491103 kJ/mol
# GULP energy per Si atom -5589.549703 kJ/mol
# Density = 2.187833 g / cm^3
# Si number density = 21.928242 Si / 1000 Ang^3
#
#
#
# Elastic Constant Matrix: (Units=GPa)
#
#
# Indices 1 2 3 4 5 6 
#
# 1 84.1081 46.9314 24.7953 0.0000 0.0000 0.0000
# 2 46.9314 149.7409 45.1555 0.0000 0.0000 0.0000
# 3 24.7953 45.1555 110.1165 0.0000 0.0000 0.0000
# 4 0.0000 0.0000 0.0000 28.8143 0.0000 0.0000
# 5 0.0000 0.0000 0.0000 0.0000 25.3941 0.0000
# 6 0.0000 0.0000 0.0000 0.0000 0.0000 49.8285
#
#
#
# Elastic Compliance Matrix: (Units=1/GPa)
#
#
# Indices 1 2 3 4 5 6 
#
# 1 0.014657 -0.004106 -0.001617 0.000000 0.000000 0.000000
# 2 -0.004106 0.008771 -0.002672 0.000000 0.000000 0.000000
# 3 -0.001617 -0.002672 0.010541 0.000000 0.000000 0.000000
# 4 0.000000 0.000000 0.000000 0.034705 0.000000 0.000000
# 5 0.000000 0.000000 0.000000 0.000000 0.039379 0.000000
# 6 0.000000 0.000000 0.000000 0.000000 0.000000 0.020069
#
#
# Mechanical properties :
#
#
# Convention : Reuss Voigt Hill
#
# Bulk Modulus (GPa) = 58.20936 64.19222 61.20079
# Shear Modulus (GPa) = 33.19194 35.94625 34.56910
#
# Velocity S-wave (km/s) = 3.89480 4.05318 3.97478
# Velocity P-wave (km/s) = 6.84317 7.15833 7.00252
#
# Compressibility (1/GPa) = 0.01717937
#
# Stress axis : x y z
#
# Youngs Moduli (GPa) = 68.22517 114.01208 94.86740
#
# Poissons Ratio (x) = 0.46818 0.15336
# Poissons Ratio (y) = 0.28016 0.25349
# Poissons Ratio (z) = 0.11029 0.30465
#
# Static dielectric constant tensor:
#      x y z
#    x 1.841290 0.000000 0.000000 
#    y 0.000000 1.821800 0.000000 
#    z 0.000000 0.000000 1.804780 
# 
# From -- ./inp_files/26081.got.cif
#   From: 2010.05.17/outbox.cif.g08.bks.cpg/sg43_14_cif.got.tgz:26081.got - 2010.06.03 19:21:55.
