data_PCOD9372203
_publ_section_title
;
Structure prediction by ZEFSAII (Michael W. Deem and Ramdas Pophale) SiO2 
 PCOD9372203
Probable space group: F D D 2
;
_chemical_formula_sum "Si O2"
_cell_formula_units_Z 112
_cell_length_a 25.873156
_cell_length_b 11.440985
_cell_length_c 14.320839
_cell_angle_alpha 90.000000
_cell_angle_beta 90.000000
_cell_angle_gamma 90.000000
_cell_volume 4239.174417
_symmetry_space_group_name_H-M "F D D 2"
_symmetry_group_IT_number 43
_symmetry_cell_setting 'orthorhombic'
loop_
_space_group_symop_operation_xyz
x,y,z
-x,-y,z
1/4-x,1/4+y,1/4+z
1/4+x,1/4-y,1/4+z
x,1/2+y,1/2+z
-x,1/2-y,1/2+z
1/4-x,3/4+y,3/4+z
1/4+x,3/4-y,3/4+z
1/2+x,y,1/2+z
1/2-x,-y,1/2+z
3/4-x,1/4+y,3/4+z
3/4+x,1/4-y,3/4+z
1/2+x,1/2+y,z
1/2-x,1/2-y,z
3/4-x,3/4+y,1/4+z
3/4+x,3/4-y,1/4+z
loop_
_atom_site_type_symbol
_atom_site_label
_atom_site_fract_x
_atom_site_fract_y
_atom_site_fract_z
Si Si1 0.516349 0.115847 0.779870
Si Si2 0.365831 0.637652 0.338663
Si Si3 0.647929 0.767885 0.215575
Si Si4 0.612148 0.526079 0.177354
Si Si5 0.223897 0.027629 0.355784
Si Si6 0.296616 0.827409 0.431129
Si Si7 0.533228 0.221001 0.411233
O O1 0.573559 0.088887 0.750236
O O2 0.484523 0.124816 0.683704
O O3 0.505966 0.233848 0.833569
O O4 0.500000 0.000000 0.835636
O O5 0.370940 0.590435 0.232089
O O6 0.332726 0.526021 0.374190
O O7 0.325894 0.742639 0.357425
O O8 0.418804 0.682212 0.391027
O O9 0.648595 0.640394 0.169407
O O10 0.661016 0.754277 0.325116
O O11 0.595005 0.845085 0.218327
O O12 0.686565 0.850007 0.157854
O O13 0.263271 0.925253 0.382415
O O14 0.246741 0.046348 0.252396
O O15 0.250000 0.750000 0.479220
#
# Coordination Sequence:
#
# PCOD9372203 Si02
#       7
#    16  16  16  16  16  16  16
#     4  12  26  47  72 107 152 193 253 317 374 457
#     4  10  25  42  72 107 143 200 244 304 377 447
#     4  11  24  46  72 100 149 194 243 308 373 444
#     4  12  26  47  70 111 149 191 250 313 376 454
#     4  11  24  45  72 107 153 190 253 312 372 444
#     4   9  20  42  69 103 141 191 249 302 358 444
#     4  11  25  46  72 105 147 202 250 302 383 450
#
# _framework density 26.420237
#
# number of rings (size 3 to 8) (size 9 to 14) (size 15 to 20)
#    0.000    1.143    4.286    0.000    4.000    8.571 
#    0.000    0.000    0.000    0.000    0.000    0.000 
#    0.000    0.000    0.000    0.000    0.000    0.000 
#
# Total GULP energy -155995.383355 kJ/mol
# GULP energy per Si atom -5571.263691 kJ/mol
# Density = 2.636010 g / cm^3
# Si number density = 26.420237 Si / 1000 Ang^3
#
#
#
# Elastic Constant Matrix: (Units=GPa)
#
#
# Indices 1 2 3 4 5 6 
#
# 1 60.2279 40.1470 4.8808 0.0000 0.0000 0.0000
# 2 40.1470 120.9917 44.0616 0.0000 0.0000 0.0000
# 3 4.8808 44.0616 87.8630 0.0000 0.0000 0.0000
# 4 0.0000 0.0000 0.0000 37.1244 0.0000 0.0000
# 5 0.0000 0.0000 0.0000 0.0000 34.7699 0.0000
# 6 0.0000 0.0000 0.0000 0.0000 0.0000 29.3828
#
#
#
# Elastic Compliance Matrix: (Units=1/GPa)
#
#
# Indices 1 2 3 4 5 6 
#
# 1 0.021937 -0.008362 0.002975 0.000000 0.000000 0.000000
# 2 -0.008362 0.013299 -0.006205 0.000000 0.000000 0.000000
# 3 0.002975 -0.006205 0.014328 0.000000 0.000000 0.000000
# 4 0.000000 0.000000 0.000000 0.026936 0.000000 0.000000
# 5 0.000000 0.000000 0.000000 0.000000 0.028760 0.000000
# 6 0.000000 0.000000 0.000000 0.000000 0.000000 0.034034
#
#
# Mechanical properties :
#
#
# Convention : Reuss Voigt Hill
#
# Bulk Modulus (GPa) = 37.90844 49.69571 43.80208
# Shear Modulus (GPa) = 29.19333 32.25497 30.72415
#
# Velocity S-wave (km/s) = 3.32770 3.49785 3.41383
# Velocity P-wave (km/s) = 5.39854 5.92991 5.67045
#
# Compressibility (1/GPa) = 0.02637935
#
# Stress axis : x y z
#
# Youngs Moduli (GPa) = 45.58563 75.19119 69.79478
#
# Poissons Ratio (x) = 0.62878 -0.20764
# Poissons Ratio (y) = 0.38120 0.43307
# Poissons Ratio (z) = -0.13562 0.46655
#
# Static dielectric constant tensor:
#      x y z
#    x 2.266920 0.000000 0.000000 
#    y 0.000000 2.168330 0.000000 
#    z 0.000000 0.000000 2.131830 
# 
# From -- ./inp_files/11682.got.cif
#   From: 2010.05.17/outbox.cif.g08.bks.cpg/sg43_6_cif.got.tgz:11682.got - 2010.06.03 19:21:55.
