data_PCOD9372541
_publ_section_title
;
Structure prediction by ZEFSAII (Michael W. Deem and Ramdas Pophale) SiO2 
 PCOD9372541
Probable space group: F D D 2
;
_chemical_formula_sum "Si O2"
_cell_formula_units_Z 112
_cell_length_a 27.793123
_cell_length_b 15.153440
_cell_length_c 11.009534
_cell_angle_alpha 90.000000
_cell_angle_beta 90.000000
_cell_angle_gamma 90.000000
_cell_volume 4636.790993
_symmetry_space_group_name_H-M "F D D 2"
_symmetry_group_IT_number 43
_symmetry_cell_setting 'orthorhombic'
loop_
_space_group_symop_operation_xyz
x,y,z
-x,-y,z
1/4-x,1/4+y,1/4+z
1/4+x,1/4-y,1/4+z
x,1/2+y,1/2+z
-x,1/2-y,1/2+z
1/4-x,3/4+y,3/4+z
1/4+x,3/4-y,3/4+z
1/2+x,y,1/2+z
1/2-x,-y,1/2+z
3/4-x,1/4+y,3/4+z
3/4+x,1/4-y,3/4+z
1/2+x,1/2+y,z
1/2-x,1/2-y,z
3/4-x,3/4+y,1/4+z
3/4+x,3/4-y,1/4+z
loop_
_atom_site_type_symbol
_atom_site_label
_atom_site_fract_x
_atom_site_fract_y
_atom_site_fract_z
Si Si1 0.588106 0.924847 0.043670
Si Si2 0.905789 0.960168 0.928754
Si Si3 0.529550 0.143527 0.620299
Si Si4 0.831625 0.558305 0.587017
Si Si5 0.611764 0.119894 0.075269
Si Si6 0.284627 0.373410 0.156420
Si Si7 0.246229 0.407270 0.903904
O O1 0.624690 0.851301 0.093020
O O2 0.534076 0.909531 0.090924
O O3 0.609606 0.015738 0.090983
O O4 0.595736 0.915594 0.899426
O O5 0.942005 0.030314 0.869290
O O6 0.929313 0.900327 0.035404
O O7 0.867483 0.027257 0.984252
O O8 0.541621 0.134140 0.763877
O O9 0.483418 0.109371 0.544101
O O10 0.519983 0.248973 0.617447
O O11 0.862258 0.611478 0.683179
O O12 0.813956 0.465361 0.645957
O O13 0.558416 0.153185 0.112208
O O14 0.246105 0.392957 0.049470
#
# Coordination Sequence:
#
# PCOD9372541 Si02
#       7
#    16  16  16  16  16  16  16
#     4  12  26  45  76 109 143 199 248 310 391 457
#     4  12  24  44  75 106 141 188 258 309 370 460
#     4  11  23  43  74 103 138 195 246 305 380 447
#     4  11  26  45  71  98 155 189 240 311 379 449
#     4  12  28  48  71 110 154 195 246 318 386 462
#     4  11  23  45  76 105 138 193 251 311 376 457
#     4  11  24  48  73 107 149 192 250 318 376 456
#
# _framework density 24.154636
#
# number of rings (size 3 to 8) (size 9 to 14) (size 15 to 20)
#    0.000    0.571    4.286    4.286    4.000    1.143 
#    2.571    1.429    0.000    0.000    0.000    0.000 
#    0.000    0.000    0.000    0.000    0.000    0.000 
#
# Total GULP energy -156354.115965 kJ/mol
# GULP energy per Si atom -5584.075570 kJ/mol
# Density = 2.409966 g / cm^3
# Si number density = 24.154636 Si / 1000 Ang^3
#
#
#
# Elastic Constant Matrix: (Units=GPa)
#
#
# Indices 1 2 3 4 5 6 
#
# 1 42.5743 -7.1795 4.1853 0.0000 0.0000 0.0000
# 2 -7.1795 60.8269 16.5635 0.0000 0.0000 0.0000
# 3 4.1853 16.5635 78.3310 0.0000 0.0000 0.0000
# 4 0.0000 0.0000 0.0000 33.5074 0.0000 0.0000
# 5 0.0000 0.0000 0.0000 0.0000 30.0446 0.0000
# 6 0.0000 0.0000 0.0000 0.0000 0.0000 23.2539
#
#
#
# Elastic Compliance Matrix: (Units=1/GPa)
#
#
# Indices 1 2 3 4 5 6 
#
# 1 0.024262 0.003413 -0.002018 0.000000 0.000000 0.000000
# 2 0.003413 0.017925 -0.003973 0.000000 0.000000 0.000000
# 3 -0.002018 -0.003973 0.013714 0.000000 0.000000 0.000000
# 4 0.000000 0.000000 0.000000 0.029844 0.000000 0.000000
# 5 0.000000 0.000000 0.000000 0.000000 0.033284 0.000000
# 6 0.000000 0.000000 0.000000 0.000000 0.000000 0.043003
#
#
# Mechanical properties :
#
#
# Convention : Reuss Voigt Hill
#
# Bulk Modulus (GPa) = 19.70588 23.20787 21.45688
# Shear Modulus (GPa) = 27.15868 28.57205 27.86536
#
# Velocity S-wave (km/s) = 3.35680 3.44303 3.40019
# Velocity P-wave (km/s) = 4.81664 5.04330 4.93127
#
# Compressibility (1/GPa) = 0.05074627
#
# Stress axis : x y z
#
# Youngs Moduli (GPa) = 41.21613 55.78883 72.91714
#
# Poissons Ratio (x) = -0.19042 0.14715
# Poissons Ratio (y) = -0.14068 0.28967
# Poissons Ratio (z) = 0.08318 0.22163
#
# Static dielectric constant tensor:
#      x y z
#    x 2.030070 0.000000 0.000000 
#    y 0.000000 1.920700 0.000000 
#    z 0.000000 0.000000 1.987470 
# 
# From -- ./inp_files/6323.got.cif
#   From: 2010.05.17/outbox.cif.g08.bks.cpg/sg43_4_cif.got.tgz:6323.got - 2010.06.03 19:21:55.
