data_PCOD9372448
_publ_section_title
;
Structure prediction by ZEFSAII (Michael W. Deem and Ramdas Pophale) SiO2 
 PCOD9372448
Probable space group: F D D 2
;
_chemical_formula_sum "Si O2"
_cell_formula_units_Z 88
_cell_length_a 23.850806
_cell_length_b 20.402771
_cell_length_c 7.440387
_cell_angle_alpha 90.000000
_cell_angle_beta 90.000000
_cell_angle_gamma 90.000000
_cell_volume 3620.659968
_symmetry_space_group_name_H-M "F D D 2"
_symmetry_group_IT_number 43
_symmetry_cell_setting 'orthorhombic'
loop_
_space_group_symop_operation_xyz
x,y,z
-x,-y,z
1/4-x,1/4+y,1/4+z
1/4+x,1/4-y,1/4+z
x,1/2+y,1/2+z
-x,1/2-y,1/2+z
1/4-x,3/4+y,3/4+z
1/4+x,3/4-y,3/4+z
1/2+x,y,1/2+z
1/2-x,-y,1/2+z
3/4-x,1/4+y,3/4+z
3/4+x,1/4-y,3/4+z
1/2+x,1/2+y,z
1/2-x,1/2-y,z
3/4-x,3/4+y,1/4+z
3/4+x,3/4-y,1/4+z
loop_
_atom_site_type_symbol
_atom_site_label
_atom_site_fract_x
_atom_site_fract_y
_atom_site_fract_z
Si Si1 0.586782 0.578432 0.147350
Si Si2 0.000000 0.500000 0.388265
Si Si3 0.748869 0.091439 0.960805
Si Si4 0.408400 0.655949 0.467483
Si Si5 0.606346 0.450977 0.708590
Si Si6 0.707858 0.046540 0.589331
O O1 0.540547 0.602651 0.286928
O O2 0.610682 0.651621 0.093113
O O3 0.644077 0.539188 0.165461
O O4 0.545665 0.539624 0.009339
O O5 0.958603 0.543696 0.267320
O O6 0.743186 0.082229 0.745476
O O7 0.688209 0.108449 0.032769
O O8 0.764335 0.022510 0.048156
O O9 0.380265 0.588166 0.526264
O O10 0.376099 0.724272 0.452397
O O11 0.448070 0.670743 0.642939
#
# Coordination Sequence:
#
# PCOD9372448 Si02
#       6
#    16   8  16  16  16  16
#     4  11  22  42  69 105 147 191 251 314 384 458
#     4  12  22  44  82 102 152 210 248 318 402 454
#     4  12  23  45  72 103 143 198 247 309 388 449
#     4  11  24  47  71 106 152 193 258 313 387 460
#     4  11  22  46  72 110 146 201 253 317 382 471
#     4  11  22  42  70  99 139 193 245 307 373 461
#
# _framework density 24.304960000000001
#
# number of rings (size 3 to 8) (size 9 to 14) (size 15 to 20)
#    0.000    0.727    7.273    2.182    0.000    0.000 
#    9.818    0.000    0.000    0.000    0.000    0.000 
#    0.000    0.000    0.000    0.000    0.000    0.000 
#
# Total GULP energy -122507.104080 kJ/mol
# GULP energy per Si atom -5568.504731 kJ/mol
# Density = 2.424964 g / cm^3
# Si number density = 24.304960 Si / 1000 Ang^3
#
#
#
# Elastic Constant Matrix: (Units=GPa)
#
#
# Indices 1 2 3 4 5 6 
#
# 1 94.0065 30.5142 -2.8354 0.0002 0.0000 0.0028
# 2 30.5142 102.5083 11.0658 0.0007 -0.0003 0.0066
# 3 -2.8354 11.0658 51.3194 0.0025 -0.0010 0.0304
# 4 0.0002 0.0007 0.0025 28.5566 -0.0006 0.0161
# 5 0.0000 -0.0003 -0.0010 -0.0006 31.8873 -0.0036
# 6 0.0028 0.0066 0.0304 0.0161 -0.0036 -242.0755
#
#
#
# Elastic Compliance Matrix: (Units=1/GPa)
#
#
# Indices 1 2 3 4 5 6 
#
# 1 0.011880 -0.003693 0.001453 0.000000 0.000000 0.000000
# 2 -0.003693 0.011136 -0.002605 0.000000 0.000000 0.000000
# 3 0.001453 -0.002605 0.020128 -0.000002 0.000001 0.000002
# 4 0.000000 0.000000 -0.000002 0.035018 0.000001 0.000002
# 5 0.000000 0.000000 0.000001 0.000001 0.031360 0.000000
# 6 0.000000 0.000000 0.000002 0.000002 0.000000 -0.004131
#
#
# Mechanical properties :
#
#
# Convention : Reuss Voigt Hill
#
# Bulk Modulus (GPa) = 29.89321 36.14705 33.02013
# Shear Modulus (GPa) = 39.60895 -22.38702 8.61096
#
# Velocity S-wave (km/s) = 4.04129 -3.03824 1.88430
# Velocity P-wave (km/s) = 5.83969 1.61144 4.28361
#
# Compressibility (1/GPa) = 0.03345242
#
# Stress axis : x y z
#
# Youngs Moduli (GPa) = 84.17368 89.79929 49.68247
#
# Poissons Ratio (x) = 0.33165 -0.07218
# Poissons Ratio (y) = 0.31088 0.12944
# Poissons Ratio (z) = -0.12228 0.23395
#
# Static dielectric constant tensor:
#      x y z
#    x 2.023740 0.000000 0.000000 
#    y 0.000000 2.015480 0.000000 
#    z 0.000000 0.000000 2.002590 
# 
# From -- ./inp_files/3682.got.cif
#   From: 2010.05.17/outbox.cif.g08.bks.cpg/sg43_2_cif.got.tgz:3682.got - 2010.06.03 19:21:55.
