data_PCOD9372298
_publ_section_title
;
Structure prediction by ZEFSAII (Michael W. Deem and Ramdas Pophale) SiO2 
 PCOD9372298
Probable space group: F D D 2
;
_chemical_formula_sum "Si O2"
_cell_formula_units_Z 40
_cell_length_a 16.341509
_cell_length_b 17.843709
_cell_length_c 4.623456
_cell_angle_alpha 90.000000
_cell_angle_beta 90.000000
_cell_angle_gamma 90.000000
_cell_volume 1348.168012
_symmetry_space_group_name_H-M "F D D 2"
_symmetry_group_IT_number 43
_symmetry_cell_setting 'orthorhombic'
loop_
_space_group_symop_operation_xyz
x,y,z
-x,-y,z
1/4-x,1/4+y,1/4+z
1/4+x,1/4-y,1/4+z
x,1/2+y,1/2+z
-x,1/2-y,1/2+z
1/4-x,3/4+y,3/4+z
1/4+x,3/4-y,3/4+z
1/2+x,y,1/2+z
1/2-x,-y,1/2+z
3/4-x,1/4+y,3/4+z
3/4+x,1/4-y,3/4+z
1/2+x,1/2+y,z
1/2-x,1/2-y,z
3/4-x,3/4+y,1/4+z
3/4+x,3/4-y,1/4+z
loop_
_atom_site_type_symbol
_atom_site_label
_atom_site_fract_x
_atom_site_fract_y
_atom_site_fract_z
Si Si1 0.750000 0.250000 0.678700
Si Si2 0.773221 0.098109 0.977093
Si Si3 0.352775 0.517274 0.495876
O O1 0.781542 0.185954 0.904287
O O2 0.817781 0.277502 0.445786
O O3 0.784455 0.065950 0.658564
O O4 0.682623 0.066741 0.048358
O O5 0.838413 0.053920 0.180095
#
# Coordination Sequence:
#
# PCOD9372298 Si02
#       3
#     8  16  16
#     4  12  28  54  92 122 168 242 288 350 448 518
#     4  10  26  53  81 120 172 219 283 362 426 510
#     4  10  26  53  81 120 172 219 283 362 426 510
#
# _framework density 29.669893999999999
#
# number of rings (size 3 to 8) (size 9 to 14) (size 15 to 20)
#    0.000    1.600    0.000    0.000    0.000   22.400 
#    0.000   24.000    0.000    0.000    0.000    0.000 
#    0.000    0.000    0.000    0.000    0.000    0.000 
#
# Total GULP energy -55828.773553 kJ/mol
# GULP energy per Si atom -5582.877355 kJ/mol
# Density = 2.960236 g / cm^3
# Si number density = 29.669894 Si / 1000 Ang^3
#
#
#
# Elastic Constant Matrix: (Units=GPa)
#
#
# Indices 1 2 3 4 5 6 
#
# 1 118.1620 37.6169 44.7447 -0.0164 0.0214 -0.0079
# 2 37.6169 212.6756 49.1064 -0.0157 0.0137 0.0150
# 3 44.7447 49.1064 207.5094 -0.0055 0.0136 0.0070
# 4 -0.0164 -0.0157 -0.0055 59.9231 0.0179 0.0138
# 5 0.0214 0.0137 0.0136 0.0179 51.3861 0.0008
# 6 -0.0079 0.0150 0.0070 0.0138 0.0008 -3.5274
#
#
#
# Elastic Compliance Matrix: (Units=1/GPa)
#
#
# Indices 1 2 3 4 5 6 
#
# 1 0.009535 -0.001282 -0.001753 0.000002 -0.000003 -0.000030
# 2 -0.001282 0.005146 -0.000941 0.000001 -0.000001 0.000023
# 3 -0.001753 -0.000941 0.005420 0.000000 0.000000 0.000011
# 4 0.000002 0.000001 0.000000 0.016688 -0.000006 0.000065
# 5 -0.000003 -0.000001 0.000000 -0.000006 0.019461 0.000004
# 6 -0.000030 0.000023 0.000011 0.000065 0.000004 -0.283497
#
#
# Mechanical properties :
#
#
# Convention : Reuss Voigt Hill
#
# Bulk Modulus (GPa) = 82.31187 89.03145 85.67166
# Shear Modulus (GPa) = -23.22913 48.68163 12.72625
#
# Velocity S-wave (km/s) = -2.80110 4.05504 2.07330
# Velocity P-wave (km/s) = 4.16428 7.21089 5.88805
#
# Compressibility (1/GPa) = 0.01214892
#
# Stress axis : x y z
#
# Youngs Moduli (GPa) = 104.88037 194.32270 184.51027
#
# Poissons Ratio (x) = 0.24908 0.32337
# Poissons Ratio (y) = 0.13443 0.17370
# Poissons Ratio (z) = 0.18381 0.18294
#
# Static dielectric constant tensor:
#      x y z
#    x 2.391470 0.000010 0.000000 
#    y 0.000010 2.595100 0.000000 
#    z 0.000000 0.000000 2.122200 
# 
# From -- ./inp_files/397.got.cif
#   From: 2010.05.17/outbox.cif.g08.bks.cpg/sg43_1_cif.got.tgz:397.got - 2010.06.03 19:21:55.
