data_PCOD9372789
_publ_section_title
;
Structure prediction by ZEFSAII (Michael W. Deem and Ramdas Pophale) SiO2 
 PCOD9372789
Probable space group: F D D 2
;
_chemical_formula_sum "Si O2"
_cell_formula_units_Z 112
_cell_length_a 13.916608
_cell_length_b 22.799996
_cell_length_c 15.901065
_cell_angle_alpha 90.000000
_cell_angle_beta 90.000000
_cell_angle_gamma 90.000000
_cell_volume 5045.385770
_symmetry_space_group_name_H-M "F D D 2"
_symmetry_group_IT_number 43
_symmetry_cell_setting 'orthorhombic'
loop_
_space_group_symop_operation_xyz
x,y,z
-x,-y,z
1/4-x,1/4+y,1/4+z
1/4+x,1/4-y,1/4+z
x,1/2+y,1/2+z
-x,1/2-y,1/2+z
1/4-x,3/4+y,3/4+z
1/4+x,3/4-y,3/4+z
1/2+x,y,1/2+z
1/2-x,-y,1/2+z
3/4-x,1/4+y,3/4+z
3/4+x,1/4-y,3/4+z
1/2+x,1/2+y,z
1/2-x,1/2-y,z
3/4-x,3/4+y,1/4+z
3/4+x,3/4-y,1/4+z
loop_
_atom_site_type_symbol
_atom_site_label
_atom_site_fract_x
_atom_site_fract_y
_atom_site_fract_z
Si Si1 0.813783 0.022153 0.919850
Si Si2 0.343020 0.638722 0.857115
Si Si3 0.796543 0.414253 0.321246
Si Si4 0.584646 0.381374 0.383645
Si Si5 0.326487 0.488286 0.552600
Si Si6 0.058227 0.157973 0.924331
Si Si7 0.500000 0.000000 0.522218
Si Si8 0.750000 0.250000 0.175131
O O1 0.784126 0.089841 0.909579
O O2 0.919413 0.023403 0.958406
O O3 0.796221 0.984259 0.835875
O O4 0.756218 0.987466 0.992186
O O5 0.347445 0.603579 0.767989
O O6 0.443875 0.652415 0.904406
O O7 0.289520 0.698217 0.831518
O O8 0.696520 0.389552 0.358830
O O9 0.815391 0.388069 0.229555
O O10 0.887880 0.392776 0.373417
O O11 0.547233 0.325745 0.332841
O O12 0.532174 0.443599 0.372024
O O13 0.342014 0.531306 0.630796
O O14 0.414925 0.484249 0.489175
#
# Coordination Sequence:
#
# PCOD9372789 Si02
#       8
#    16  16  16  16  16  16   8   8
#     4  12  24  45  71 100 144 191 242 307 371 441
#     4  12  25  44  70 108 143 192 247 300 376 435
#     4  12  22  43  74 104 144 188 239 306 371 436
#     4  12  25  44  70 108 143 192 247 300 376 435
#     4  12  24  45  71 100 144 191 242 307 371 441
#     4  12  22  43  74 104 144 188 239 306 371 436
#     4  12  24  46  70 100 146 186 242 306 364 436
#     4  12  24  46  70 100 146 186 242 306 364 436
#
# _framework density 22.198501
#
# number of rings (size 3 to 8) (size 9 to 14) (size 15 to 20)
#    0.000    0.000    8.571    1.714    0.000    1.143 
#    0.000    5.000    0.000    0.000    0.000    0.000 
#    0.000    0.000    0.000    0.000    0.000    0.000 
#
# Total GULP energy -156308.999573 kJ/mol
# GULP energy per Si atom -5582.464270 kJ/mol
# Density = 2.214798 g / cm^3
# Si number density = 22.198501 Si / 1000 Ang^3
#
#
#
# Elastic Constant Matrix: (Units=GPa)
#
#
# Indices 1 2 3 4 5 6 
#
# 1 63.9306 -10.4942 7.0810 0.0000 0.0000 0.0000
# 2 -10.4942 119.3105 -4.3625 0.0000 0.0000 0.0000
# 3 7.0810 -4.3625 26.4349 0.0000 0.0000 0.0000
# 4 0.0000 0.0000 0.0000 30.9282 0.0000 0.0000
# 5 0.0000 0.0000 0.0000 0.0000 -60.2305 0.0000
# 6 0.0000 0.0000 0.0000 0.0000 0.0000 25.7899
#
#
#
# Elastic Compliance Matrix: (Units=1/GPa)
#
#
# Indices 1 2 3 4 5 6 
#
# 1 0.016313 0.001283 -0.004158 0.000000 0.000000 0.000000
# 2 0.001283 0.008533 0.001065 0.000000 0.000000 0.000000
# 3 -0.004158 0.001065 0.039118 0.000000 0.000000 0.000000
# 4 0.000000 0.000000 0.000000 0.032333 0.000000 0.000000
# 5 0.000000 0.000000 0.000000 0.000000 -0.016603 0.000000
# 6 0.000000 0.000000 0.000000 0.000000 0.000000 0.038775
#
#
# Mechanical properties :
#
#
# Convention : Reuss Voigt Hill
#
# Bulk Modulus (GPa) = 16.57184 21.56942 19.07063
# Shear Modulus (GPa) = 35.16045 13.79429 24.47737
#
# Velocity S-wave (km/s) = 3.98416 2.49551 3.32423
# Velocity P-wave (km/s) = 5.35221 4.24748 4.83153
#
# Compressibility (1/GPa) = 0.06034332
#
# Stress axis : x y z
#
# Youngs Moduli (GPa) = 61.30046 117.18866 25.56351
#
# Poissons Ratio (x) = -0.15033 0.10629
# Poissons Ratio (y) = -0.07864 -0.02721
# Poissons Ratio (z) = 0.25489 -0.12476
#
# Static dielectric constant tensor:
#      x y z
#    x 2.280410 0.000000 0.000000 
#    y 0.000000 1.879330 0.000000 
#    z 0.000000 0.000000 1.866660 
# 
# From -- ./inp_files/10234.got.cif
#   From: 2010.05.17/outbox.cif.g08.bks.cpg/sg43_6_cif.got.tgz:10234.got - 2010.06.03 19:21:55.
