data_PCOD9372026
_publ_section_title
;
Structure prediction by ZEFSAII (Michael W. Deem and Ramdas Pophale) SiO2 
 PCOD9372026
Probable space group: F D D 2
;
_chemical_formula_sum "Si O2"
_cell_formula_units_Z 112
_cell_length_a 26.129057
_cell_length_b 14.764074
_cell_length_c 12.636328
_cell_angle_alpha 90.000000
_cell_angle_beta 90.000000
_cell_angle_gamma 90.000000
_cell_volume 4874.733073
_symmetry_space_group_name_H-M "F D D 2"
_symmetry_group_IT_number 43
_symmetry_cell_setting 'orthorhombic'
loop_
_space_group_symop_operation_xyz
x,y,z
-x,-y,z
1/4-x,1/4+y,1/4+z
1/4+x,1/4-y,1/4+z
x,1/2+y,1/2+z
-x,1/2-y,1/2+z
1/4-x,3/4+y,3/4+z
1/4+x,3/4-y,3/4+z
1/2+x,y,1/2+z
1/2-x,-y,1/2+z
3/4-x,1/4+y,3/4+z
3/4+x,1/4-y,3/4+z
1/2+x,1/2+y,z
1/2-x,1/2-y,z
3/4-x,3/4+y,1/4+z
3/4+x,3/4-y,1/4+z
loop_
_atom_site_type_symbol
_atom_site_label
_atom_site_fract_x
_atom_site_fract_y
_atom_site_fract_z
Si Si1 0.322699 0.417612 0.334310
Si Si2 0.372975 0.910025 0.382152
Si Si3 0.029041 0.091598 0.139498
Si Si4 0.608778 0.156120 0.011626
Si Si5 0.853230 0.361919 0.603883
Si Si6 0.415982 0.215550 0.907677
Si Si7 0.236225 0.849854 0.132037
O O1 0.262859 0.418491 0.362226
O O2 0.349691 0.346323 0.415319
O O3 0.355692 0.509401 0.341596
O O4 0.328342 0.401356 0.208992
O O5 0.337920 0.899371 0.488240
O O6 0.410276 0.823053 0.391747
O O7 0.340798 0.922727 0.274570
O O8 0.402976 0.004939 0.374172
O O9 0.085924 0.113956 0.102449
O O10 0.035508 0.083140 0.265192
O O11 0.000000 0.000000 0.100321
O O12 0.620544 0.071428 0.084847
O O13 0.554755 0.146250 0.956083
O O14 0.466744 0.167693 0.866578
O O15 0.250000 0.750000 0.173784
#
# Coordination Sequence:
#
# PCOD9372026 Si02
#       7
#    16  16  16  16  16  16  16
#     4  12  24  41  68 103 133 179 226 293 360 413
#     4  10  24  42  66  86 136 194 222 274 352 418
#     4  11  23  40  68 101 136 169 229 295 353 423
#     4  12  24  41  68 103 133 179 226 293 360 413
#     4  11  23  44  66  95 138 180 233 284 350 425
#     4  11  23  44  66  95 138 180 233 284 350 425
#     4  11  23  40  68 101 136 169 229 295 353 423
#
# _framework density 22.975617
#
# number of rings (size 3 to 8) (size 9 to 14) (size 15 to 20)
#    0.000    0.857    2.857    5.143    4.000    0.000 
#    0.000    1.429    0.000    5.143    0.000    0.000 
#    0.000    0.000    0.000    0.000    0.000    0.000 
#
# Total GULP energy -156313.702206 kJ/mol
# GULP energy per Si atom -5582.632222 kJ/mol
# Density = 2.292332 g / cm^3
# Si number density = 22.975617 Si / 1000 Ang^3
#
#
#
# Elastic Constant Matrix: (Units=GPa)
#
#
# Indices 1 2 3 4 5 6 
#
# 1 67.7128 27.9727 5.8099 0.0000 0.0000 0.0000
# 2 27.9727 116.6742 35.9518 0.0000 0.0000 0.0000
# 3 5.8099 35.9518 109.5846 0.0000 0.0000 0.0000
# 4 0.0000 0.0000 0.0000 34.1115 0.0000 0.0000
# 5 0.0000 0.0000 0.0000 0.0000 169.3914 0.0000
# 6 0.0000 0.0000 0.0000 0.0000 0.0000 21.0799
#
#
#
# Elastic Compliance Matrix: (Units=1/GPa)
#
#
# Indices 1 2 3 4 5 6 
#
# 1 0.016413 -0.004079 0.000468 0.000000 0.000000 0.000000
# 2 -0.004079 0.010549 -0.003244 0.000000 0.000000 0.000000
# 3 0.000468 -0.003244 0.010165 0.000000 0.000000 0.000000
# 4 0.000000 0.000000 0.000000 0.029316 0.000000 0.000000
# 5 0.000000 0.000000 0.000000 0.000000 0.005903 0.000000
# 6 0.000000 0.000000 0.000000 0.000000 0.000000 0.047439
#
#
# Mechanical properties :
#
#
# Convention : Reuss Voigt Hill
#
# Bulk Modulus (GPa) = 42.70663 48.16006 45.43334
# Shear Modulus (GPa) = 35.38539 59.86569 47.62554
#
# Velocity S-wave (km/s) = 3.92870 5.11006 4.55782
# Velocity P-wave (km/s) = 6.26161 7.47154 6.89317
#
# Compressibility (1/GPa) = 0.02341557
#
# Stress axis : x y z
#
# Youngs Moduli (GPa) = 60.92622 94.79889 98.37702
#
# Poissons Ratio (x) = 0.38672 -0.04605
# Poissons Ratio (y) = 0.24854 0.31918
# Poissons Ratio (z) = -0.02852 0.30757
#
# Static dielectric constant tensor:
#      x y z
#    x 1.819090 0.000000 0.000000 
#    y 0.000000 2.096960 0.000000 
#    z 0.000000 0.000000 1.885570 
# 
# From -- ./inp_files/11523.got.cif
#   From: 2010.05.17/outbox.cif.g08.bks.cpg/sg43_6_cif.got.tgz:11523.got - 2010.06.03 19:21:55.
