data_PCOD9372921
_publ_section_title
;
Structure prediction by ZEFSAII (Michael W. Deem and Ramdas Pophale) SiO2 
 PCOD9372921
Probable space group: F D D 2
;
_chemical_formula_sum "Si O2"
_cell_formula_units_Z 56
_cell_length_a 17.857108
_cell_length_b 9.067084
_cell_length_c 13.184615
_cell_angle_alpha 90.000000
_cell_angle_beta 90.000000
_cell_angle_gamma 90.000000
_cell_volume 2134.746042
_symmetry_space_group_name_H-M "F D D 2"
_symmetry_group_IT_number 43
_symmetry_cell_setting 'orthorhombic'
loop_
_space_group_symop_operation_xyz
x,y,z
-x,-y,z
1/4-x,1/4+y,1/4+z
1/4+x,1/4-y,1/4+z
x,1/2+y,1/2+z
-x,1/2-y,1/2+z
1/4-x,3/4+y,3/4+z
1/4+x,3/4-y,3/4+z
1/2+x,y,1/2+z
1/2-x,-y,1/2+z
3/4-x,1/4+y,3/4+z
3/4+x,1/4-y,3/4+z
1/2+x,1/2+y,z
1/2-x,1/2-y,z
3/4-x,3/4+y,1/4+z
3/4+x,3/4-y,1/4+z
loop_
_atom_site_type_symbol
_atom_site_label
_atom_site_fract_x
_atom_site_fract_y
_atom_site_fract_z
Si Si1 0.500000 0.000000 0.933010
Si Si2 0.819161 0.140813 0.939273
Si Si3 0.375261 0.874723 0.084187
Si Si4 0.816991 0.826911 0.015183
O O1 0.536028 0.869274 0.864843
O O2 0.428634 0.950422 0.999460
O O3 0.750000 0.250000 0.921567
O O4 0.868930 0.126758 0.839832
O O5 0.867980 0.211062 0.032523
O O6 0.793688 0.973429 0.956125
O O7 0.408847 0.952408 0.184233
O O8 0.750000 0.750000 0.075730
#
# Coordination Sequence:
#
# PCOD9372921 Si02
#       4
#     8  16  16  16
#     4  12  28  52  90 120 190 230 318 380 500 540
#     4  12  31  54  88 130 183 237 313 386 479 566
#     4  12  28  52  86 128 170 244 298 392 456 586
#     4  12  31  54  88 130 183 237 313 386 479 566
#
# _framework density 26.232627999999998
#
# number of rings (size 3 to 8) (size 9 to 14) (size 15 to 20)
#    0.000    0.000    2.857    3.429   12.000    1.143 
#    0.000    0.000    0.000    0.000    0.000    0.000 
#    0.000    0.000    0.000    0.000    0.000    0.000 
#
# Total GULP energy -78033.298679 kJ/mol
# GULP energy per Si atom -5573.807048 kJ/mol
# Density = 2.617292 g / cm^3
# Si number density = 26.232628 Si / 1000 Ang^3
#
#
#
# Elastic Constant Matrix: (Units=GPa)
#
#
# Indices 1 2 3 4 5 6 
#
# 1 167.2548 110.2578 75.5087 0.0000 0.0000 0.0000
# 2 110.2578 193.2779 47.0641 0.0000 0.0000 0.0000
# 3 75.5087 47.0641 141.6391 0.0000 0.0000 0.0000
# 4 0.0000 0.0000 0.0000 99.0334 0.0000 0.0000
# 5 0.0000 0.0000 0.0000 0.0000 44.1944 0.0000
# 6 0.0000 0.0000 0.0000 0.0000 0.0000 62.3054
#
#
#
# Elastic Compliance Matrix: (Units=1/GPa)
#
#
# Indices 1 2 3 4 5 6 
#
# 1 0.011605 -0.005564 -0.004338 0.000000 0.000000 0.000000
# 2 -0.005564 0.008297 0.000209 0.000000 0.000000 0.000000
# 3 -0.004338 0.000209 0.009303 0.000000 0.000000 0.000000
# 4 0.000000 0.000000 0.000000 0.010098 0.000000 0.000000
# 5 0.000000 0.000000 0.000000 0.000000 0.022627 0.000000
# 6 0.000000 0.000000 0.000000 0.000000 0.000000 0.016050
#
#
# Mechanical properties :
#
#
# Convention : Reuss Voigt Hill
#
# Bulk Modulus (GPa) = 101.83288 107.53701 104.68495
# Shear Modulus (GPa) = 49.68236 59.06271 54.37254
#
# Velocity S-wave (km/s) = 4.35663 4.75014 4.55764
# Velocity P-wave (km/s) = 8.01314 8.43610 8.22734
#
# Compressibility (1/GPa) = 0.00982001
#
# Stress axis : x y z
#
# Youngs Moduli (GPa) = 86.16777 120.52524 107.48905
#
# Poissons Ratio (x) = 0.67061 0.46629
# Poissons Ratio (y) = 0.47944 -0.02250
# Poissons Ratio (z) = 0.37380 -0.02522
#
# Static dielectric constant tensor:
#      x y z
#    x 2.131980 0.000000 0.000000 
#    y 0.000000 1.863750 0.000000 
#    z 0.000000 0.000000 2.126360 
# 
# From -- ./inp_files/2148.got.cif
#   From: 2010.05.17/outbox.cif.g08.bks.cpg/sg43_2_cif.got.tgz:2148.got - 2010.06.03 19:21:55.
