data_PCOD9372879
_publ_section_title
;
Structure prediction by ZEFSAII (Michael W. Deem and Ramdas Pophale) SiO2 
 PCOD9372879
Probable space group: F D D 2
;
_chemical_formula_sum "Si O2"
_cell_formula_units_Z 72
_cell_length_a 20.401979
_cell_length_b 5.124837
_cell_length_c 27.699963
_cell_angle_alpha 90.000000
_cell_angle_beta 90.000000
_cell_angle_gamma 90.000000
_cell_volume 2896.219958
_symmetry_space_group_name_H-M "F D D 2"
_symmetry_group_IT_number 43
_symmetry_cell_setting 'orthorhombic'
loop_
_space_group_symop_operation_xyz
x,y,z
-x,-y,z
1/4-x,1/4+y,1/4+z
1/4+x,1/4-y,1/4+z
x,1/2+y,1/2+z
-x,1/2-y,1/2+z
1/4-x,3/4+y,3/4+z
1/4+x,3/4-y,3/4+z
1/2+x,y,1/2+z
1/2-x,-y,1/2+z
3/4-x,1/4+y,3/4+z
3/4+x,1/4-y,3/4+z
1/2+x,1/2+y,z
1/2-x,1/2-y,z
3/4-x,3/4+y,1/4+z
3/4+x,3/4-y,1/4+z
loop_
_atom_site_type_symbol
_atom_site_label
_atom_site_fract_x
_atom_site_fract_y
_atom_site_fract_z
Si Si1 0.794757 0.506940 0.559470
Si Si2 0.750000 0.750000 0.808640
Si Si3 0.140072 0.930744 0.161940
Si Si4 0.647682 0.578274 0.752448
Si Si5 0.250000 0.250000 0.215494
Si Si6 0.750000 0.750000 0.377675
O O1 0.750000 0.750000 0.541393
O O2 0.829370 0.605064 0.608751
O O3 0.847298 0.384188 0.521829
O O4 0.750000 0.250000 0.570573
O O5 0.669885 0.789886 0.791175
O O6 0.745958 0.502334 0.844688
O O7 0.137261 0.690376 0.199372
O O8 0.190033 0.137733 0.185637
O O9 0.065796 0.015116 0.158538
O O10 0.722854 0.474745 0.749214
#
# Coordination Sequence:
#
# PCOD9372879 Si02
#       6
#    16   8  16  16   8   8
#     4  12  30  51  81 126 177 226 288 366 440 524
#     4  12  26  52  78 121 157 231 279 354 422 532
#     4  12  28  50  82 121 168 227 284 357 437 524
#     4  12  28  48  85 118 168 227 292 348 442 523
#     4  12  25  50  78 117 164 220 287 346 428 535
#     4  12  31  50  84 116 173 213 292 354 434 513
#
# _framework density 24.859991000000001
#
# number of rings (size 3 to 8) (size 9 to 14) (size 15 to 20)
#    0.000    0.000    5.556    2.000    9.333    1.778 
#    0.000    0.000    0.000    0.000    0.000    0.000 
#    0.000    0.000    0.000    0.000    0.000    0.000 
#
# Total GULP energy -100509.308233 kJ/mol
# GULP energy per Si atom -5583.850457 kJ/mol
# Density = 2.480341 g / cm^3
# Si number density = 24.859991 Si / 1000 Ang^3
#
#
#
# Elastic Constant Matrix: (Units=GPa)
#
#
# Indices 1 2 3 4 5 6 
#
# 1 186.1906 40.1611 64.3800 -0.0009 0.0025 0.0109
# 2 40.1611 96.8134 43.6817 0.0007 0.0122 0.0503
# 3 64.3800 43.6817 105.7437 -0.0003 -0.0011 -0.0081
# 4 -0.0009 0.0007 -0.0003 20.1503 0.0003 -0.0039
# 5 0.0025 0.0122 -0.0011 0.0003 51.7039 -0.0019
# 6 0.0109 0.0503 -0.0081 -0.0039 -0.0019 63.5255
#
#
#
# Elastic Compliance Matrix: (Units=1/GPa)
#
#
# Indices 1 2 3 4 5 6 
#
# 1 0.006913 -0.001191 -0.003717 0.000000 0.000000 -0.000001
# 2 -0.001191 0.012900 -0.004604 -0.000001 -0.000003 -0.000011
# 3 -0.003717 -0.004604 0.013622 0.000000 0.000002 0.000006
# 4 0.000000 -0.000001 0.000000 0.049627 0.000000 0.000003
# 5 0.000000 -0.000003 0.000002 0.000000 0.019341 0.000001
# 6 -0.000001 -0.000011 0.000006 0.000003 0.000001 0.015742
#
#
# Mechanical properties :
#
#
# Convention : Reuss Voigt Hill
#
# Bulk Modulus (GPa) = 69.38842 76.13261 72.76052
# Shear Modulus (GPa) = 35.21818 43.11092 39.16455
#
# Velocity S-wave (km/s) = 3.76794 4.16883 3.97344
# Velocity P-wave (km/s) = 6.84851 7.33916 7.09807
#
# Compressibility (1/GPa) = 0.01441163
#
# Stress axis : x y z
#
# Youngs Moduli (GPa) = 144.65749 77.51682 73.41199
#
# Poissons Ratio (x) = 0.09229 0.27287
# Poissons Ratio (y) = 0.17223 0.33800
# Poissons Ratio (z) = 0.53768 0.35690
#
# Static dielectric constant tensor:
#      x y z
#    x 1.185000 -0.000010 -0.000010 
#    y -0.000010 1.919910 0.000000 
#    z -0.000010 0.000000 2.063970 
# 
# From -- ./inp_files/23447.got.cif
#   From: 2010.05.17/outbox.cif.g08.bks.cpg/sg43_12_cif.got.tgz:23447.got - 2010.06.03 19:21:55.
