data_PCOD9372247
_publ_section_title
;
Structure prediction by ZEFSAII (Michael W. Deem and Ramdas Pophale) SiO2 
 PCOD9372247
Probable space group: F D D 2
;
_chemical_formula_sum "Si O2"
_cell_formula_units_Z 72
_cell_length_a 14.173656
_cell_length_b 16.477563
_cell_length_c 13.740338
_cell_angle_alpha 90.000000
_cell_angle_beta 90.000000
_cell_angle_gamma 90.000000
_cell_volume 3209.018974
_symmetry_space_group_name_H-M "F D D 2"
_symmetry_group_IT_number 43
_symmetry_cell_setting 'orthorhombic'
loop_
_space_group_symop_operation_xyz
x,y,z
-x,-y,z
1/4-x,1/4+y,1/4+z
1/4+x,1/4-y,1/4+z
x,1/2+y,1/2+z
-x,1/2-y,1/2+z
1/4-x,3/4+y,3/4+z
1/4+x,3/4-y,3/4+z
1/2+x,y,1/2+z
1/2-x,-y,1/2+z
3/4-x,1/4+y,3/4+z
3/4+x,1/4-y,3/4+z
1/2+x,1/2+y,z
1/2-x,1/2-y,z
3/4-x,3/4+y,1/4+z
3/4+x,3/4-y,1/4+z
loop_
_atom_site_type_symbol
_atom_site_label
_atom_site_fract_x
_atom_site_fract_y
_atom_site_fract_z
Si Si1 0.210057 0.333827 0.489900
Si Si2 0.500000 0.000000 0.050757
Si Si3 0.039942 0.250493 0.739900
Si Si4 0.710058 0.167160 0.489900
Si Si5 0.000000 0.166667 0.050757
O O1 0.250000 0.250000 0.530274
O O2 0.250000 0.416667 0.538893
O O3 0.244341 0.343009 0.378360
O O4 0.097355 0.336477 0.493916
O O5 0.402645 0.996857 0.993916
O O6 0.505659 0.926342 0.128360
O O7 0.000000 0.166667 0.780274
O O8 0.005659 0.259676 0.628360
O O9 0.750000 0.250000 0.538893
O O10 0.597355 0.169810 0.493916
#
# Coordination Sequence:
#
# PCOD9372247 Si02
#       5
#    16   8  16  16  16
#     4  10  26  40  68  95 129 167 212 264 315 380
#     4  10  26  42  70  92 132 166 218 258 324 370
#     4  10  26  40  68  95 129 167 212 264 315 380
#     4  10  26  40  68  95 129 167 212 264 315 380
#     4  10  26  42  70  92 132 166 218 258 324 370
#
# _framework density 22.436762999999999
#
# number of rings (size 3 to 8) (size 9 to 14) (size 15 to 20)
#    2.000    0.000    0.000    0.000   14.000    0.000 
#    0.000    0.000    0.000    0.000    0.000    0.000 
#    0.000    0.000    0.000    0.000    0.000    0.000 
#
# Total GULP energy -100293.777879 kJ/mol
# GULP energy per Si atom -5571.876549 kJ/mol
# Density = 2.238570 g / cm^3
# Si number density = 22.436763 Si / 1000 Ang^3
#
#
#
# Elastic Constant Matrix: (Units=GPa)
#
#
# Indices 1 2 3 4 5 6 
#
# 1 209.2288 85.2497 18.6285 0.0000 0.0000 0.0000
# 2 85.2497 203.4154 14.0430 0.0000 0.0000 0.0000
# 3 18.6285 14.0430 40.9937 0.0000 0.0000 0.0000
# 4 0.0000 0.0000 0.0000 -2.8223 0.0000 0.0000
# 5 0.0000 0.0000 0.0000 0.0000 25.6146 0.0000
# 6 0.0000 0.0000 0.0000 0.0000 0.0000 5.2972
#
#
#
# Elastic Compliance Matrix: (Units=1/GPa)
#
#
# Indices 1 2 3 4 5 6 
#
# 1 0.005902 -0.002344 -0.001879 0.000000 0.000000 0.000000
# 2 -0.002344 0.005966 -0.000979 0.000000 0.000000 0.000000
# 3 -0.001879 -0.000979 0.025583 0.000000 0.000000 0.000000
# 4 0.000000 0.000000 0.000000 -0.354324 0.000000 0.000000
# 5 0.000000 0.000000 0.000000 0.000000 0.039040 0.000000
# 6 0.000000 0.000000 0.000000 0.000000 0.000000 0.188779
#
#
# Mechanical properties :
#
#
# Convention : Reuss Voigt Hill
#
# Bulk Modulus (GPa) = 36.97134 76.60891 56.79013
# Shear Modulus (GPa) = -71.80176 27.99903 -21.90136
#
# Velocity S-wave (km/s) = -5.66315 3.53641 -3.12771
# Velocity P-wave (km/s) = 5.12328 7.13396 3.51037
#
# Compressibility (1/GPa) = 0.02704798
#
# Stress axis : x y z
#
# Youngs Moduli (GPa) = 169.44413 167.62207 39.08827
#
# Poissons Ratio (x) = 0.39284 0.07345
# Poissons Ratio (y) = 0.39711 0.03825
# Poissons Ratio (z) = 0.31839 0.16405
#
# Static dielectric constant tensor:
#      x y z
#    x 1.750470 0.000000 0.000000 
#    y 0.000000 1.878230 0.000000 
#    z 0.000000 0.000000 1.853970 
# 
# From -- ./inp_files/13750.got.cif
#   From: 2010.05.17/outbox.cif.g08.bks.cpg/sg43_7_cif.got.tgz:13750.got - 2010.06.03 19:21:55.
