data_PCOD9372166
_publ_section_title
;
Structure prediction by ZEFSAII (Michael W. Deem and Ramdas Pophale) SiO2 
 PCOD9372166
Probable space group: F D D 2
;
_chemical_formula_sum "Si O2"
_cell_formula_units_Z 64
_cell_length_a 15.090738
_cell_length_b 13.185484
_cell_length_c 11.264526
_cell_angle_alpha 90.000000
_cell_angle_beta 90.000000
_cell_angle_gamma 90.000000
_cell_volume 2241.400564
_symmetry_space_group_name_H-M "F D D 2"
_symmetry_group_IT_number 43
_symmetry_cell_setting 'orthorhombic'
loop_
_space_group_symop_operation_xyz
x,y,z
-x,-y,z
1/4-x,1/4+y,1/4+z
1/4+x,1/4-y,1/4+z
x,1/2+y,1/2+z
-x,1/2-y,1/2+z
1/4-x,3/4+y,3/4+z
1/4+x,3/4-y,3/4+z
1/2+x,y,1/2+z
1/2-x,-y,1/2+z
3/4-x,1/4+y,3/4+z
3/4+x,1/4-y,3/4+z
1/2+x,1/2+y,z
1/2-x,1/2-y,z
3/4-x,3/4+y,1/4+z
3/4+x,3/4-y,1/4+z
loop_
_atom_site_type_symbol
_atom_site_label
_atom_site_fract_x
_atom_site_fract_y
_atom_site_fract_z
Si Si1 0.394121 0.452119 0.422710
Si Si2 0.311756 0.150582 0.175944
Si Si3 0.956410 0.888879 0.180700
Si Si4 0.653142 0.571555 0.673831
O O1 0.285095 0.444057 0.424963
O O2 0.408322 0.382337 0.306790
O O3 0.414434 0.429922 0.561436
O O4 0.434506 0.563824 0.404001
O O5 0.250000 0.250000 0.180942
O O6 0.351233 0.141847 0.310021
O O7 0.288060 0.030024 0.163291
O O8 0.366736 0.171871 0.057128
O O9 0.000000 0.000000 0.180792
#
# Coordination Sequence:
#
# PCOD9372166 Si02
#       4
#    16  16  16  16
#     4  11  24  50  75 114 153 214 265 333 404 488
#     4  10  25  48  72 112 147 209 255 334 405 482
#     4  11  25  47  79 110 159 208 270 330 406 484
#     4  10  24  48  71 110 154 198 269 334 400 482
#
# _framework density 28.553576
#
# number of rings (size 3 to 8) (size 9 to 14) (size 15 to 20)
#    0.000    1.500    2.500    0.000    7.000    5.000 
#   18.000    0.000    0.000    0.000    0.000    0.000 
#    0.000    0.000    0.000    0.000    0.000    0.000 
#
# Total GULP energy -89115.093269 kJ/mol
# GULP energy per Si atom -5569.693329 kJ/mol
# Density = 2.848859 g / cm^3
# Si number density = 28.553576 Si / 1000 Ang^3
#
#
#
# Elastic Constant Matrix: (Units=GPa)
#
#
# Indices 1 2 3 4 5 6 
#
# 1 49.3386 42.1130 81.1903 0.0000 0.0000 0.0000
# 2 42.1130 250.9942 43.5328 0.0000 0.0000 0.0000
# 3 81.1903 43.5328 309.4655 0.0000 0.0000 0.0000
# 4 0.0000 0.0000 0.0000 46.2418 0.0000 0.0000
# 5 0.0000 0.0000 0.0000 0.0000 9.3927 0.0000
# 6 0.0000 0.0000 0.0000 0.0000 0.0000 29.5257
#
#
#
# Elastic Compliance Matrix: (Units=1/GPa)
#
#
# Indices 1 2 3 4 5 6 
#
# 1 0.041338 -0.005181 -0.010116 0.000000 0.000000 0.000000
# 2 -0.005181 0.004733 0.000694 0.000000 0.000000 0.000000
# 3 -0.010116 0.000694 0.005788 0.000000 0.000000 0.000000
# 4 0.000000 0.000000 0.000000 0.021625 0.000000 0.000000
# 5 0.000000 0.000000 0.000000 0.000000 0.106466 0.000000
# 6 0.000000 0.000000 0.000000 0.000000 0.000000 0.033869
#
#
# Mechanical properties :
#
#
# Convention : Reuss Voigt Hill
#
# Bulk Modulus (GPa) = 44.14869 104.83006 74.48938
# Shear Modulus (GPa) = 19.95388 46.56285 33.25836
#
# Velocity S-wave (km/s) = 2.64639 4.04260 3.41658
# Velocity P-wave (km/s) = 4.98329 7.65397 6.45819
#
# Compressibility (1/GPa) = 0.02265073
#
# Stress axis : x y z
#
# Youngs Moduli (GPa) = 24.19085 211.27328 172.77316
#
# Poissons Ratio (x) = 1.09466 1.74785
# Poissons Ratio (y) = 0.12534 -0.11982
# Poissons Ratio (z) = 0.24473 -0.14652
#
# Static dielectric constant tensor:
#      x y z
#    x 2.817790 0.000000 0.000000 
#    y 0.000000 2.248970 0.000000 
#    z 0.000000 0.000000 2.252560 
# 
# From -- ./inp_files/6482.got.cif
#   From: 2010.05.17/outbox.cif.g08.bks.cpg/sg43_4_cif.got.tgz:6482.got - 2010.06.03 19:21:55.
