data_PCOD9372955
_publ_section_title
;
Structure prediction by ZEFSAII (Michael W. Deem and Ramdas Pophale) SiO2 
 PCOD9372955
Probable space group: F D D 2
;
_chemical_formula_sum "Si O2"
_cell_formula_units_Z 48
_cell_length_a 11.457103
_cell_length_b 9.124682
_cell_length_c 17.166937
_cell_angle_alpha 90.000000
_cell_angle_beta 90.000000
_cell_angle_gamma 90.000000
_cell_volume 1794.673164
_symmetry_space_group_name_H-M "F D D 2"
_symmetry_group_IT_number 43
_symmetry_cell_setting 'orthorhombic'
loop_
_space_group_symop_operation_xyz
x,y,z
-x,-y,z
1/4-x,1/4+y,1/4+z
1/4+x,1/4-y,1/4+z
x,1/2+y,1/2+z
-x,1/2-y,1/2+z
1/4-x,3/4+y,3/4+z
1/4+x,3/4-y,3/4+z
1/2+x,y,1/2+z
1/2-x,-y,1/2+z
3/4-x,1/4+y,3/4+z
3/4+x,1/4-y,3/4+z
1/2+x,1/2+y,z
1/2-x,1/2-y,z
3/4-x,3/4+y,1/4+z
3/4+x,3/4-y,1/4+z
loop_
_atom_site_type_symbol
_atom_site_label
_atom_site_fract_x
_atom_site_fract_y
_atom_site_fract_z
Si Si1 0.645996 0.604453 0.506310
Si Si2 0.588429 0.325422 0.570533
Si Si3 0.309096 0.477952 0.108695
O O1 0.622079 0.427931 0.496059
O O2 0.549349 0.651274 0.570569
O O3 0.620401 0.693837 0.429693
O O4 0.774386 0.595836 0.542758
O O5 0.617124 0.155395 0.573642
O O6 0.682756 0.401233 0.629210
#
# Coordination Sequence:
#
# PCOD9372955 Si02
#       3
#    16  16  16
#     4   9  17  36  67 106 149 204 253 319 403 468
#     4   8  18  36  62 106 151 198 245 341 370 477
#     4   9  17  36  68 107 149 201 252 323 394 473
#
# _framework density 26.745816000000001
#
# number of rings (size 3 to 8) (size 9 to 14) (size 15 to 20)
#    2.000    1.333    0.000    0.000    0.000    0.000 
#   12.000    0.000   29.333    4.000    0.000    4.667 
#    0.000    0.000    0.000    0.000    0.000    0.000 
#
# Total GULP energy -66871.447138 kJ/mol
# GULP energy per Si atom -5572.620595 kJ/mol
# Density = 2.668494 g / cm^3
# Si number density = 26.745816 Si / 1000 Ang^3
#
#
#
# Elastic Constant Matrix: (Units=GPa)
#
#
# Indices 1 2 3 4 5 6 
#
# 1 119.1957 91.2416 75.3234 0.0000 0.0000 0.0000
# 2 91.2416 211.1314 110.0840 0.0000 0.0000 0.0000
# 3 75.3234 110.0840 149.9412 0.0000 0.0000 0.0000
# 4 0.0000 0.0000 0.0000 39.7873 0.0000 0.0000
# 5 0.0000 0.0000 0.0000 0.0000 26.9956 0.0000
# 6 0.0000 0.0000 0.0000 0.0000 0.0000 61.0545
#
#
#
# Elastic Compliance Matrix: (Units=1/GPa)
#
#
# Indices 1 2 3 4 5 6 
#
# 1 0.013997 -0.003860 -0.004197 0.000000 0.000000 0.000000
# 2 -0.003860 0.008739 -0.004477 0.000000 0.000000 0.000000
# 3 -0.004197 -0.004477 0.012064 0.000000 0.000000 0.000000
# 4 0.000000 0.000000 0.000000 0.025134 0.000000 0.000000
# 5 0.000000 0.000000 0.000000 0.000000 0.037043 0.000000
# 6 0.000000 0.000000 0.000000 0.000000 0.000000 0.016379
#
#
# Mechanical properties :
#
#
# Convention : Reuss Voigt Hill
#
# Bulk Modulus (GPa) = 102.75607 114.84070 108.79839
# Shear Modulus (GPa) = 35.29387 39.14212 37.21799
#
# Velocity S-wave (km/s) = 3.63658 3.82970 3.73439
# Velocity P-wave (km/s) = 7.49238 7.91117 7.70462
#
# Compressibility (1/GPa) = 0.00973178
#
# Stress axis : x y z
#
# Youngs Moduli (GPa) = 71.44410 114.43246 82.88925
#
# Poissons Ratio (x) = 0.44177 0.34790
# Poissons Ratio (y) = 0.27581 0.37106
# Poissons Ratio (z) = 0.29986 0.51226
#
# Static dielectric constant tensor:
#      x y z
#    x 2.232080 0.000000 0.000000 
#    y 0.000000 2.196900 0.000000 
#    z 0.000000 0.000000 2.098010 
# 
# From -- ./inp_files/8832.got.cif
#   From: 2010.05.17/outbox.cif.g08.bks.cpg/sg43_5_cif.got.tgz:8832.got - 2010.06.03 19:21:55.
