data_PCOD9372751
_publ_section_title
;
Structure prediction by ZEFSAII (Michael W. Deem and Ramdas Pophale) SiO2 
 PCOD9372751
Probable space group: F D D 2
;
_chemical_formula_sum "Si O2"
_cell_formula_units_Z 80
_cell_length_a 15.508455
_cell_length_b 14.475458
_cell_length_c 14.261039
_cell_angle_alpha 90.000000
_cell_angle_beta 90.000000
_cell_angle_gamma 90.000000
_cell_volume 3201.489010
_symmetry_space_group_name_H-M "F D D 2"
_symmetry_group_IT_number 43
_symmetry_cell_setting 'orthorhombic'
loop_
_space_group_symop_operation_xyz
x,y,z
-x,-y,z
1/4-x,1/4+y,1/4+z
1/4+x,1/4-y,1/4+z
x,1/2+y,1/2+z
-x,1/2-y,1/2+z
1/4-x,3/4+y,3/4+z
1/4+x,3/4-y,3/4+z
1/2+x,y,1/2+z
1/2-x,-y,1/2+z
3/4-x,1/4+y,3/4+z
3/4+x,1/4-y,3/4+z
1/2+x,1/2+y,z
1/2-x,1/2-y,z
3/4-x,3/4+y,1/4+z
3/4+x,3/4-y,1/4+z
loop_
_atom_site_type_symbol
_atom_site_label
_atom_site_fract_x
_atom_site_fract_y
_atom_site_fract_z
Si Si1 0.882139 0.194050 0.727110
Si Si2 0.913018 0.049191 0.239448
Si Si3 0.783128 0.339047 0.332654
Si Si4 0.888261 0.484440 0.948178
Si Si5 0.305948 0.882875 0.676953
O O1 0.951934 0.176271 0.644793
O O2 0.792370 0.145223 0.696843
O O3 0.917232 0.141094 0.818079
O O4 0.860777 0.302922 0.731156
O O5 0.927235 0.151294 0.197693
O O6 0.908169 0.037091 0.352768
O O7 0.833678 0.984545 0.209593
O O8 0.000000 0.000000 0.207297
O O9 0.750000 0.250000 0.392049
O O10 0.870890 0.309161 0.280046
O O11 0.714909 0.331348 0.246864
#
# Coordination Sequence:
#
# PCOD9372751 Si02
#       5
#    16  16  16  16  16
#     4  11  26  49  70 103 147 189 245 288 368 438
#     4  12  24  44  69 100 147 175 237 293 355 433
#     4   8  21  44  69 102 129 175 239 290 347 417
#     4   9  23  40  68 107 128 178 230 295 352 407
#     4  11  29  44  72 105 143 198 232 297 365 439
#
# _framework density 24.988374
#
# number of rings (size 3 to 8) (size 9 to 14) (size 15 to 20)
#    1.200    0.400    2.000    1.200   11.200    6.400 
#    0.000    0.000    0.000    0.000    0.000    0.000 
#    0.000    0.000    0.000    0.000    0.000    0.000 
#
# Total GULP energy -111334.680109 kJ/mol
# GULP energy per Si atom -5566.734005 kJ/mol
# Density = 2.493150 g / cm^3
# Si number density = 24.988374 Si / 1000 Ang^3
#
#
#
# Elastic Constant Matrix: (Units=GPa)
#
#
# Indices 1 2 3 4 5 6 
#
# 1 51.4612 -4.7913 11.7466 0.0000 0.0000 0.0000
# 2 -4.7913 86.3640 25.1036 0.0000 0.0000 0.0000
# 3 11.7466 25.1036 83.3063 0.0000 0.0000 0.0000
# 4 0.0000 0.0000 0.0000 51.2161 0.0000 0.0000
# 5 0.0000 0.0000 0.0000 0.0000 29.9276 0.0000
# 6 0.0000 0.0000 0.0000 0.0000 0.0000 33.5267
#
#
#
# Elastic Compliance Matrix: (Units=1/GPa)
#
#
# Indices 1 2 3 4 5 6 
#
# 1 0.020440 0.002161 -0.003533 0.000000 0.000000 0.000000
# 2 0.002161 0.012919 -0.004198 0.000000 0.000000 0.000000
# 3 -0.003533 -0.004198 0.013767 0.000000 0.000000 0.000000
# 4 0.000000 0.000000 0.000000 0.019525 0.000000 0.000000
# 5 0.000000 0.000000 0.000000 0.000000 0.033414 0.000000
# 6 0.000000 0.000000 0.000000 0.000000 0.000000 0.029827
#
#
# Mechanical properties :
#
#
# Convention : Reuss Voigt Hill
#
# Bulk Modulus (GPa) = 27.78878 31.69438 29.74158
# Shear Modulus (GPa) = 32.67391 35.53891 34.10641
#
# Velocity S-wave (km/s) = 3.61995 3.77532 3.69845
# Velocity P-wave (km/s) = 5.34947 5.63163 5.49236
#
# Compressibility (1/GPa) = 0.03598575
#
# Stress axis : x y z
#
# Youngs Moduli (GPa) = 48.92408 77.40570 72.63719
#
# Poissons Ratio (x) = -0.16727 0.25665
# Poissons Ratio (y) = -0.10572 0.30491
# Poissons Ratio (z) = 0.17286 0.32493
#
# Static dielectric constant tensor:
#      x y z
#    x 2.478330 0.000000 0.000000 
#    y 0.000000 1.008010 0.000000 
#    z 0.000000 0.000000 2.040300 
# 
# From -- ./inp_files/10551.got.cif
#   From: 2010.05.17/outbox.cif.g08.bks.cpg/sg43_6_cif.got.tgz:10551.got - 2010.06.03 19:21:55.
