data_PCOD9372294
_publ_section_title
;
Structure prediction by ZEFSAII (Michael W. Deem and Ramdas Pophale) SiO2 
 PCOD9372294
Probable space group: F D D 2
;
_chemical_formula_sum "Si O2"
_cell_formula_units_Z 72
_cell_length_a 30.243866
_cell_length_b 20.196826
_cell_length_c 4.925535
_cell_angle_alpha 90.000000
_cell_angle_beta 90.000000
_cell_angle_gamma 90.000000
_cell_volume 3008.665033
_symmetry_space_group_name_H-M "F D D 2"
_symmetry_group_IT_number 43
_symmetry_cell_setting 'orthorhombic'
loop_
_space_group_symop_operation_xyz
x,y,z
-x,-y,z
1/4-x,1/4+y,1/4+z
1/4+x,1/4-y,1/4+z
x,1/2+y,1/2+z
-x,1/2-y,1/2+z
1/4-x,3/4+y,3/4+z
1/4+x,3/4-y,3/4+z
1/2+x,y,1/2+z
1/2-x,-y,1/2+z
3/4-x,1/4+y,3/4+z
3/4+x,1/4-y,3/4+z
1/2+x,1/2+y,z
1/2-x,1/2-y,z
3/4-x,3/4+y,1/4+z
3/4+x,3/4-y,1/4+z
loop_
_atom_site_type_symbol
_atom_site_label
_atom_site_fract_x
_atom_site_fract_y
_atom_site_fract_z
Si Si1 0.703814 0.567989 0.390590
Si Si2 0.407576 0.822887 0.105819
Si Si3 0.067084 0.404608 0.147831
Si Si4 0.046407 0.626201 0.587169
Si Si5 0.750000 0.750000 0.196680
O O1 0.682529 0.496368 0.394931
O O2 0.702945 0.603243 0.681920
O O3 0.755370 0.572756 0.312619
O O4 0.676290 0.610939 0.170365
O O5 0.358762 0.816815 0.231910
O O6 0.430422 0.877133 0.297387
O O7 0.418595 0.847016 0.803743
O O8 0.034196 0.460504 0.257440
O O9 0.024997 0.554322 0.630850
#
# Coordination Sequence:
#
# PCOD9372294 Si02
#       5
#    16  16  16  16   8
#     4  11  24  47  71 106 145 188 253 299 366 449
#     4  12  25  45  75 106 148 189 250 312 365 436
#     4  11  26  46  72 109 146 198 244 310 368 441
#     4  11  24  45  75 107 142 199 237 307 376 445
#     4  10  26  50  78 108 158 196 256 302 390 458
#
# _framework density 23.930880999999999
#
# number of rings (size 3 to 8) (size 9 to 14) (size 15 to 20)
#    0.000    0.889    0.000    6.667    3.111    8.000 
#   12.000    0.000    0.000    0.000    0.000    0.000 
#    0.000    0.000    0.000    0.000    0.000    0.000 
#
# Total GULP energy -100714.042723 kJ/mol
# GULP energy per Si atom -5595.224596 kJ/mol
# Density = 2.387641 g / cm^3
# Si number density = 23.930881 Si / 1000 Ang^3
#
#
#
# Elastic Constant Matrix: (Units=GPa)
#
#
# Indices 1 2 3 4 5 6 
#
# 1 114.3510 33.6431 23.9914 0.0006 -0.0017 -0.0003
# 2 33.6431 123.7674 28.6585 0.0016 -0.0022 -0.0002
# 3 23.9914 28.6585 97.9505 0.0058 -0.0032 -0.0032
# 4 0.0006 0.0016 0.0058 33.0308 -0.0013 -0.0013
# 5 -0.0017 -0.0022 -0.0032 -0.0013 41.3717 0.0019
# 6 -0.0003 -0.0002 -0.0032 -0.0013 0.0019 10.2709
#
#
#
# Elastic Compliance Matrix: (Units=1/GPa)
#
#
# Indices 1 2 3 4 5 6 
#
# 1 0.009772 -0.002255 -0.001734 0.000000 0.000000 0.000000
# 2 -0.002255 0.009187 -0.002136 0.000000 0.000000 -0.000001
# 3 -0.001734 -0.002136 0.011259 -0.000002 0.000001 0.000003
# 4 0.000000 0.000000 -0.000002 0.030275 0.000001 0.000004
# 5 0.000000 0.000000 0.000001 0.000001 0.024171 -0.000005
# 6 0.000000 -0.000001 0.000003 0.000004 -0.000005 0.097362
#
#
# Mechanical properties :
#
#
# Convention : Reuss Voigt Hill
#
# Bulk Modulus (GPa) = 55.65030 56.51720 56.08375
# Shear Modulus (GPa) = 24.96699 33.58642 29.27670
#
# Velocity S-wave (km/s) = 3.23351 3.75036 3.50149
# Velocity P-wave (km/s) = 6.10294 6.51320 6.31140
#
# Compressibility (1/GPa) = 0.01796936
#
# Stress axis : x y z
#
# Youngs Moduli (GPa) = 102.33150 108.84806 88.81970
#
# Poissons Ratio (x) = 0.24544 0.15400
# Poissons Ratio (y) = 0.23074 0.18969
# Poissons Ratio (z) = 0.17742 0.23247
#
# Static dielectric constant tensor:
#      x y z
#    x 2.004830 0.000000 0.000000 
#    y 0.000000 1.879340 0.000000 
#    z 0.000000 0.000000 1.870530 
# 
# From -- ./inp_files/1335.got.cif
#   From: 2010.05.17/outbox.cif.g08.bks.cpg/sg43_1_cif.got.tgz:1335.got - 2010.06.03 19:21:55.
