data_PCOD9372920
_publ_section_title
;
Structure prediction by ZEFSAII (Michael W. Deem and Ramdas Pophale) SiO2 
 PCOD9372920
Probable space group: F D D 2
;
_chemical_formula_sum "Si O2"
_cell_formula_units_Z 80
_cell_length_a 21.175056
_cell_length_b 8.702388
_cell_length_c 17.149964
_cell_angle_alpha 90.000000
_cell_angle_beta 90.000000
_cell_angle_gamma 90.000000
_cell_volume 3160.284804
_symmetry_space_group_name_H-M "F D D 2"
_symmetry_group_IT_number 43
_symmetry_cell_setting 'orthorhombic'
loop_
_space_group_symop_operation_xyz
x,y,z
-x,-y,z
1/4-x,1/4+y,1/4+z
1/4+x,1/4-y,1/4+z
x,1/2+y,1/2+z
-x,1/2-y,1/2+z
1/4-x,3/4+y,3/4+z
1/4+x,3/4-y,3/4+z
1/2+x,y,1/2+z
1/2-x,-y,1/2+z
3/4-x,1/4+y,3/4+z
3/4+x,1/4-y,3/4+z
1/2+x,1/2+y,z
1/2-x,1/2-y,z
3/4-x,3/4+y,1/4+z
3/4+x,3/4-y,1/4+z
loop_
_atom_site_type_symbol
_atom_site_label
_atom_site_fract_x
_atom_site_fract_y
_atom_site_fract_z
Si Si1 0.097079 0.606219 0.889990
Si Si2 0.153165 0.900428 0.828355
Si Si3 0.290423 0.896770 0.461924
Si Si4 0.270455 0.076330 0.176297
Si Si5 0.075982 0.816970 0.285687
O O1 0.121624 0.531911 0.970510
O O2 0.087627 0.911133 0.779754
O O3 0.084103 0.488533 0.819805
O O4 0.035753 0.705793 0.911923
O O5 0.206385 0.927541 0.764250
O O6 0.149943 0.727285 0.861973
O O7 0.168809 0.011148 0.899435
O O8 0.250000 0.750000 0.432804
O O9 0.239685 0.017822 0.495901
O O10 0.250000 0.250000 0.160375
O O11 0.324512 0.027759 0.115746
#
# Coordination Sequence:
#
# PCOD9372920 Si02
#       5
#    16  16  16  16  16
#     4  12  29  53  83 124 166 230 285 354 425 515
#     4  12  30  51  88 119 173 223 284 352 436 501
#     4  12  31  55  87 129 174 228 285 360 427 519
#     4  12  28  51  82 122 167 224 280 356 421 515
#     4  12  30  53  84 121 171 216 291 348 425 507
#
# _framework density 25.314176
#
# number of rings (size 3 to 8) (size 9 to 14) (size 15 to 20)
#    0.000    0.000    2.000    4.800   14.000    1.600 
#    0.000    0.000    0.000    0.000    0.000    0.000 
#    0.000    0.000    0.000    0.000    0.000    0.000 
#
# Total GULP energy -112160.022241 kJ/mol
# GULP energy per Si atom -5608.001112 kJ/mol
# Density = 2.525656 g / cm^3
# Si number density = 25.314176 Si / 1000 Ang^3
#
#
#
# Elastic Constant Matrix: (Units=GPa)
#
#
# Indices 1 2 3 4 5 6 
#
# 1 89.3820 71.8483 58.3476 0.0000 0.0000 0.0000
# 2 71.8483 153.8383 71.8257 0.0000 0.0000 0.0000
# 3 58.3476 71.8257 152.3452 0.0000 0.0000 0.0000
# 4 0.0000 0.0000 0.0000 11.1687 0.0000 0.0000
# 5 0.0000 0.0000 0.0000 0.0000 54.8317 0.0000
# 6 0.0000 0.0000 0.0000 0.0000 0.0000 57.0467
#
#
#
# Elastic Compliance Matrix: (Units=1/GPa)
#
#
# Indices 1 2 3 4 5 6 
#
# 1 0.019744 -0.007297 -0.004122 0.000000 0.000000 0.000000
# 2 -0.007297 0.011032 -0.002406 0.000000 0.000000 0.000000
# 3 -0.004122 -0.002406 0.009277 0.000000 0.000000 0.000000
# 4 0.000000 0.000000 0.000000 0.089536 0.000000 0.000000
# 5 0.000000 0.000000 0.000000 0.000000 0.018238 0.000000
# 6 0.000000 0.000000 0.000000 0.000000 0.000000 0.017530
#
#
# Mechanical properties :
#
#
# Convention : Reuss Voigt Hill
#
# Bulk Modulus (GPa) = 80.62535 88.84542 84.73539
# Shear Modulus (GPa) = 25.36263 37.51234 31.43748
#
# Velocity S-wave (km/s) = 3.16874 3.85368 3.52787
# Velocity P-wave (km/s) = 6.73104 7.41448 7.08101
#
# Compressibility (1/GPa) = 0.01240305
#
# Stress axis : x y z
#
# Youngs Moduli (GPa) = 50.64854 90.64730 107.79136
#
# Poissons Ratio (x) = 0.66143 0.44428
# Poissons Ratio (y) = 0.36957 0.25940
# Poissons Ratio (z) = 0.20876 0.21814
#
# Static dielectric constant tensor:
#      x y z
#    x 2.015210 0.000000 0.000000 
#    y 0.000000 2.046760 0.000000 
#    z 0.000000 0.000000 1.939790 
# 
# From -- ./inp_files/14978.got.cif
#   From: 2010.05.17/outbox.cif.g08.bks.cpg/sg43_8_cif.got.tgz:14978.got - 2010.06.03 19:21:55.
