data_PCOD9372706
_publ_section_title
;
Structure prediction by ZEFSAII (Michael W. Deem and Ramdas Pophale) SiO2 
 PCOD9372706
Probable space group: F D D 2
;
_chemical_formula_sum "Si O2"
_cell_formula_units_Z 120
_cell_length_a 12.201921
_cell_length_b 27.259850
_cell_length_c 17.044256
_cell_angle_alpha 90.000000
_cell_angle_beta 90.000000
_cell_angle_gamma 90.000000
_cell_volume 5669.303658
_symmetry_space_group_name_H-M "F D D 2"
_symmetry_group_IT_number 43
_symmetry_cell_setting 'orthorhombic'
loop_
_space_group_symop_operation_xyz
x,y,z
-x,-y,z
1/4-x,1/4+y,1/4+z
1/4+x,1/4-y,1/4+z
x,1/2+y,1/2+z
-x,1/2-y,1/2+z
1/4-x,3/4+y,3/4+z
1/4+x,3/4-y,3/4+z
1/2+x,y,1/2+z
1/2-x,-y,1/2+z
3/4-x,1/4+y,3/4+z
3/4+x,1/4-y,3/4+z
1/2+x,1/2+y,z
1/2-x,1/2-y,z
3/4-x,3/4+y,1/4+z
3/4+x,3/4-y,1/4+z
loop_
_atom_site_type_symbol
_atom_site_label
_atom_site_fract_x
_atom_site_fract_y
_atom_site_fract_z
Si Si1 0.683053 0.623656 0.155110
Si Si2 0.670199 0.150312 0.475840
Si Si3 0.988650 0.051709 0.176816
Si Si4 0.000000 0.000000 0.647876
Si Si5 0.598285 0.968578 0.503936
Si Si6 0.382511 0.094955 0.938795
Si Si7 0.342902 0.992086 0.001358
Si Si8 0.851055 0.631842 0.765203
O O1 0.808040 0.609683 0.178017
O O2 0.606513 0.576408 0.165405
O O3 0.645531 0.665725 0.214731
O O4 0.658355 0.646350 0.069500
O O5 0.725396 0.201557 0.448419
O O6 0.758804 0.108256 0.460023
O O7 0.935164 0.040381 0.093223
O O8 0.908414 0.089645 0.216857
O O9 0.000000 0.000000 0.220709
O O10 0.102444 0.003659 0.587628
O O11 0.712506 0.996566 0.501327
O O12 0.500000 0.000000 0.466199
O O13 0.392247 0.120452 0.853504
O O14 0.469945 0.117865 0.000201
O O15 0.391469 0.035855 0.947910
O O16 0.365761 0.935219 0.981968
#
# Coordination Sequence:
#
# PCOD9372706 Si02
#       8
#    16  16  16   8  16  16  16  16
#     4  12  25  49  69 107 143 193 246 305 364 451
#     4  12  27  44  73 104 150 186 249 301 369 453
#     4  11  27  47  72 102 143 197 248 310 373 443
#     4  12  26  46  72 108 142 198 228 320 372 440
#     4  11  25  46  74 101 143 196 241 305 377 441
#     4  12  25  46  73 109 146 199 246 308 378 449
#     4  12  23  47  74 105 149 193 240 302 385 440
#     4  12  25  47  74 107 150 192 256 311 378 449
#
# _framework density 21.166620999999999
#
# number of rings (size 3 to 8) (size 9 to 14) (size 15 to 20)
#    0.000    0.267    5.333    3.200    6.533    1.067 
#    2.400    0.000    0.000    0.000    0.000    0.000 
#    0.000    0.000    0.000    0.000    0.000    0.000 
#
# Total GULP energy -167560.705499 kJ/mol
# GULP energy per Si atom -5585.356850 kJ/mol
# Density = 2.111844 g / cm^3
# Si number density = 21.166621 Si / 1000 Ang^3
#
#
#
# Elastic Constant Matrix: (Units=GPa)
#
#
# Indices 1 2 3 4 5 6 
#
# 1 136.2841 43.4962 7.0376 0.0000 0.0000 0.0000
# 2 43.4962 161.7080 21.3217 0.0000 0.0000 0.0000
# 3 7.0376 21.3217 30.5567 0.0000 0.0000 0.0000
# 4 0.0000 0.0000 0.0000 -47.0689 0.0000 0.0000
# 5 0.0000 0.0000 0.0000 0.0000 36.3782 0.0000
# 6 0.0000 0.0000 0.0000 0.0000 0.0000 37.6970
#
#
#
# Elastic Compliance Matrix: (Units=1/GPa)
#
#
# Indices 1 2 3 4 5 6 
#
# 1 0.008031 -0.002110 -0.000377 0.000000 0.000000 0.000000
# 2 -0.002110 0.007365 -0.004653 0.000000 0.000000 0.000000
# 3 -0.000377 -0.004653 0.036060 0.000000 0.000000 0.000000
# 4 0.000000 0.000000 0.000000 -0.021245 0.000000 0.000000
# 5 0.000000 0.000000 0.000000 0.000000 0.027489 0.000000
# 6 0.000000 0.000000 0.000000 0.000000 0.000000 0.026527
#
#
# Mechanical properties :
#
#
# Convention : Reuss Voigt Hill
#
# Bulk Modulus (GPa) = 26.90022 52.47330 39.68676
# Shear Modulus (GPa) = 45.08612 22.51416 33.80014
#
# Velocity S-wave (km/s) = 4.62026 3.26492 4.00041
# Velocity P-wave (km/s) = 6.41863 6.24959 6.33467
#
# Compressibility (1/GPa) = 0.03717442
#
# Stress axis : x y z
#
# Youngs Moduli (GPa) = 124.52335 135.77416 27.73178
#
# Poissons Ratio (x) = 0.28653 0.01045
# Poissons Ratio (y) = 0.26279 0.12904
# Poissons Ratio (z) = 0.04694 0.63178
#
# Static dielectric constant tensor:
#      x y z
#    x 1.836840 0.000000 0.000000 
#    y 0.000000 1.821260 0.000000 
#    z 0.000000 0.000000 1.792020 
# 
# From -- ./inp_files/13490.got.cif
#   From: 2010.05.17/outbox.cif.g08.bks.cpg/sg43_7_cif.got.tgz:13490.got - 2010.06.03 19:21:55.
