data_PCOD9372192
_publ_section_title
;
Structure prediction by ZEFSAII (Michael W. Deem and Ramdas Pophale) SiO2 
 PCOD9372192
Probable space group: F D D 2
;
_chemical_formula_sum "Si O2"
_cell_formula_units_Z 56
_cell_length_a 15.834283
_cell_length_b 17.812009
_cell_length_c 7.988806
_cell_angle_alpha 90.000000
_cell_angle_beta 90.000000
_cell_angle_gamma 90.000000
_cell_volume 2253.165970
_symmetry_space_group_name_H-M "F D D 2"
_symmetry_group_IT_number 43
_symmetry_cell_setting 'orthorhombic'
loop_
_space_group_symop_operation_xyz
x,y,z
-x,-y,z
1/4-x,1/4+y,1/4+z
1/4+x,1/4-y,1/4+z
x,1/2+y,1/2+z
-x,1/2-y,1/2+z
1/4-x,3/4+y,3/4+z
1/4+x,3/4-y,3/4+z
1/2+x,y,1/2+z
1/2-x,-y,1/2+z
3/4-x,1/4+y,3/4+z
3/4+x,1/4-y,3/4+z
1/2+x,1/2+y,z
1/2-x,1/2-y,z
3/4-x,3/4+y,1/4+z
3/4+x,3/4-y,1/4+z
loop_
_atom_site_type_symbol
_atom_site_label
_atom_site_fract_x
_atom_site_fract_y
_atom_site_fract_z
Si Si1 0.589726 0.293071 0.382050
Si Si2 0.074993 0.256054 0.497879
Si Si3 0.000000 0.000000 0.107954
Si Si4 0.547364 0.634769 0.867994
O O1 0.576024 0.291318 0.182828
O O2 0.498620 0.305153 0.469770
O O3 0.607140 0.204673 0.425682
O O4 0.659226 0.346784 0.458953
O O5 0.168164 0.227706 0.463472
O O6 0.041323 0.319053 0.365903
O O7 0.969773 0.930977 0.996947
#
# Coordination Sequence:
#
# PCOD9372192 Si02
#       4
#    16  16   8  16
#     4  10  24  51  78 116 153 203 268 318 398 460
#     4  10  26  47  76 115 150 211 253 325 394 465
#     4  12  26  48  74 114 162 198 262 316 394 478
#     4  10  27  46  81 111 155 203 263 323 390 460
#
# _framework density 24.853919000000001
#
# number of rings (size 3 to 8) (size 9 to 14) (size 15 to 20)
#    1.714    0.000    0.000    1.714    8.000    1.143 
#    0.000    0.000    0.000    0.000    0.000    0.000 
#    0.000    0.000    0.000    0.000    0.000    0.000 
#
# Total GULP energy -78133.666805 kJ/mol
# GULP energy per Si atom -5580.976200 kJ/mol
# Density = 2.479735 g / cm^3
# Si number density = 24.853919 Si / 1000 Ang^3
#
#
#
# Elastic Constant Matrix: (Units=GPa)
#
#
# Indices 1 2 3 4 5 6 
#
# 1 170.2144 50.5850 119.6062 0.0000 0.0000 0.0000
# 2 50.5850 99.3548 25.5403 0.0000 0.0000 0.0000
# 3 119.6062 25.5403 137.7932 0.0000 0.0000 0.0000
# 4 0.0000 0.0000 0.0000 30.8137 0.0000 0.0000
# 5 0.0000 0.0000 0.0000 0.0000 36.3900 0.0000
# 6 0.0000 0.0000 0.0000 0.0000 0.0000 39.4773
#
#
#
# Elastic Compliance Matrix: (Units=1/GPa)
#
#
# Indices 1 2 3 4 5 6 
#
# 1 0.017283 -0.005190 -0.014040 0.000000 0.000000 0.000000
# 2 -0.005190 0.012127 0.002257 0.000000 0.000000 0.000000
# 3 -0.014040 0.002257 0.019025 0.000000 0.000000 0.000000
# 4 0.000000 0.000000 0.000000 0.032453 0.000000 0.000000
# 5 0.000000 0.000000 0.000000 0.000000 0.027480 0.000000
# 6 0.000000 0.000000 0.000000 0.000000 0.000000 0.025331
#
#
# Mechanical properties :
#
#
# Convention : Reuss Voigt Hill
#
# Bulk Modulus (GPa) = 69.01121 88.75837 78.88479
# Shear Modulus (GPa) = 28.98979 35.44493 32.21736
#
# Velocity S-wave (km/s) = 3.41898 3.78051 3.60428
# Velocity P-wave (km/s) = 6.58884 7.40580 7.00924
#
# Compressibility (1/GPa) = 0.01449040
#
# Stress axis : x y z
#
# Youngs Moduli (GPa) = 57.86122 82.45946 52.56132
#
# Poissons Ratio (x) = 0.42798 0.73794
# Poissons Ratio (y) = 0.30031 -0.11865
# Poissons Ratio (z) = 0.81235 -0.18614
#
# Static dielectric constant tensor:
#      x y z
#    x 1.969440 0.000000 0.000000 
#    y 0.000000 2.036530 0.000000 
#    z 0.000000 0.000000 1.946310 
# 
# From -- ./inp_files/2145.got.cif
#   From: 2010.05.17/outbox.cif.g08.bks.cpg/sg43_2_cif.got.tgz:2145.got - 2010.06.03 19:21:55.
