data_PCOD9372197
_publ_section_title
;
Structure prediction by ZEFSAII (Michael W. Deem and Ramdas Pophale) SiO2 
 PCOD9372197
Probable space group: F D D 2
;
_chemical_formula_sum "Si O2"
_cell_formula_units_Z 72
_cell_length_a 13.174741
_cell_length_b 13.711541
_cell_length_c 16.777619
_cell_angle_alpha 90.000000
_cell_angle_beta 90.000000
_cell_angle_gamma 90.000000
_cell_volume 3030.809785
_symmetry_space_group_name_H-M "F D D 2"
_symmetry_group_IT_number 43
_symmetry_cell_setting 'orthorhombic'
loop_
_space_group_symop_operation_xyz
x,y,z
-x,-y,z
1/4-x,1/4+y,1/4+z
1/4+x,1/4-y,1/4+z
x,1/2+y,1/2+z
-x,1/2-y,1/2+z
1/4-x,3/4+y,3/4+z
1/4+x,3/4-y,3/4+z
1/2+x,y,1/2+z
1/2-x,-y,1/2+z
3/4-x,1/4+y,3/4+z
3/4+x,1/4-y,3/4+z
1/2+x,1/2+y,z
1/2-x,1/2-y,z
3/4-x,3/4+y,1/4+z
3/4+x,3/4-y,1/4+z
loop_
_atom_site_type_symbol
_atom_site_label
_atom_site_fract_x
_atom_site_fract_y
_atom_site_fract_z
Si Si1 0.870065 0.059821 0.125000
Si Si2 0.575319 0.155399 0.611433
Si Si3 0.701626 0.956774 0.954146
Si Si4 0.589473 0.874530 0.803270
Si Si5 0.500000 0.000000 0.271121
O O1 0.768910 0.113213 0.097200
O O2 0.896831 0.071604 0.218803
O O3 0.967622 0.109640 0.082147
O O4 0.859872 0.943655 0.116028
O O5 0.542350 0.215591 0.689849
O O6 0.643896 0.233089 0.566237
O O7 0.651859 0.935535 0.868384
O O8 0.737650 0.850512 0.975932
O O9 0.636484 0.012474 0.022662
#
# Coordination Sequence:
#
# PCOD9372197 Si02
#       5
#    16  16  16  16   8
#     4  10  24  52  80 116 155 212 261 331 410 504
#     4  10  25  48  74 109 149 202 257 317 401 483
#     4  11  28  47  78 113 156 210 257 339 408 489
#     4  11  26  51  81 119 161 204 272 334 412 494
#     4  12  26  50  68 112 150 200 262 324 386 480
#
# _framework density 23.756025999999999
#
# number of rings (size 3 to 8) (size 9 to 14) (size 15 to 20)
#    0.000    1.333    2.222    0.000    6.222   17.778 
#    8.000    0.000    0.000    0.000    0.000    0.000 
#    0.000    0.000    0.000    0.000    0.000    0.000 
#
# Total GULP energy -100266.579544 kJ/mol
# GULP energy per Si atom -5570.365530 kJ/mol
# Density = 2.370196 g / cm^3
# Si number density = 23.756026 Si / 1000 Ang^3
#
#
#
# Elastic Constant Matrix: (Units=GPa)
#
#
# Indices 1 2 3 4 5 6 
#
# 1 63.2634 10.0557 48.7529 0.0000 0.0000 0.0000
# 2 10.0557 138.7122 19.5141 0.0000 0.0000 0.0000
# 3 48.7529 19.5141 84.9517 0.0000 0.0000 0.0000
# 4 0.0000 0.0000 0.0000 60.3361 0.0000 0.0000
# 5 0.0000 0.0000 0.0000 0.0000 5.6600 0.0000
# 6 0.0000 0.0000 0.0000 0.0000 0.0000 28.7033
#
#
#
# Elastic Compliance Matrix: (Units=1/GPa)
#
#
# Indices 1 2 3 4 5 6 
#
# 1 0.028349 0.000241 -0.016325 0.000000 0.000000 0.000000
# 2 0.000241 0.007452 -0.001850 0.000000 0.000000 0.000000
# 3 -0.016325 -0.001850 0.021565 0.000000 0.000000 0.000000
# 4 0.000000 0.000000 0.000000 0.016574 0.000000 0.000000
# 5 0.000000 0.000000 0.000000 0.000000 0.176677 0.000000
# 6 0.000000 0.000000 0.000000 0.000000 0.000000 0.034839
#
#
# Mechanical properties :
#
#
# Convention : Reuss Voigt Hill
#
# Bulk Modulus (GPa) = 46.51419 49.28585 47.90002
# Shear Modulus (GPa) = 15.22122 32.84686 24.03404
#
# Velocity S-wave (km/s) = 2.53401 3.72247 3.18418
# Velocity P-wave (km/s) = 5.30887 6.26637 5.80739
#
# Compressibility (1/GPa) = 0.02149882
#
# Stress axis : x y z
#
# Youngs Moduli (GPa) = 35.27485 134.19264 46.37163
#
# Poissons Ratio (x) = -0.03240 0.75700
# Poissons Ratio (y) = -0.00852 0.08580
# Poissons Ratio (z) = 0.57585 0.24830
#
# Static dielectric constant tensor:
#      x y z
#    x 1.987770 0.000000 0.000000 
#    y 0.000000 1.883670 0.000000 
#    z 0.000000 0.000000 1.990430 
# 
# From -- ./inp_files/13744.got.cif
#   From: 2010.05.17/outbox.cif.g08.bks.cpg/sg43_7_cif.got.tgz:13744.got - 2010.06.03 19:21:55.
