data_PCOD9372413
_publ_section_title
;
Structure prediction by ZEFSAII (Michael W. Deem and Ramdas Pophale) SiO2 
 PCOD9372413
Probable space group: F D D 2
;
_chemical_formula_sum "Si O2"
_cell_formula_units_Z 120
_cell_length_a 12.413700
_cell_length_b 19.135150
_cell_length_c 21.581959
_cell_angle_alpha 90.000000
_cell_angle_beta 90.000000
_cell_angle_gamma 90.000000
_cell_volume 5126.535626
_symmetry_space_group_name_H-M "F D D 2"
_symmetry_group_IT_number 43
_symmetry_cell_setting 'orthorhombic'
loop_
_space_group_symop_operation_xyz
x,y,z
-x,-y,z
1/4-x,1/4+y,1/4+z
1/4+x,1/4-y,1/4+z
x,1/2+y,1/2+z
-x,1/2-y,1/2+z
1/4-x,3/4+y,3/4+z
1/4+x,3/4-y,3/4+z
1/2+x,y,1/2+z
1/2-x,-y,1/2+z
3/4-x,1/4+y,3/4+z
3/4+x,1/4-y,3/4+z
1/2+x,1/2+y,z
1/2-x,1/2-y,z
3/4-x,3/4+y,1/4+z
3/4+x,3/4-y,1/4+z
loop_
_atom_site_type_symbol
_atom_site_label
_atom_site_fract_x
_atom_site_fract_y
_atom_site_fract_z
Si Si1 0.793652 0.909723 0.867770
Si Si2 0.502296 0.089167 0.752004
Si Si3 0.756326 0.984536 0.529249
Si Si4 0.250000 0.250000 0.817362
Si Si5 0.064270 0.929646 0.389570
Si Si6 0.674962 0.819237 0.233614
Si Si7 0.437261 0.801205 0.916305
Si Si8 0.990424 0.714248 0.522508
O O1 0.771689 0.827475 0.849521
O O2 0.687507 0.931059 0.906839
O O3 0.899010 0.914882 0.911144
O O4 0.787331 0.973610 0.816204
O O5 0.524418 0.169457 0.734976
O O6 0.434593 0.090718 0.816023
O O7 0.430817 0.059803 0.695795
O O8 0.610525 0.050120 0.774670
O O9 0.884818 0.990333 0.533736
O O10 0.700744 0.963542 0.594712
O O11 0.690906 0.052002 0.511894
O O12 0.999018 0.873072 0.427776
O O13 0.000000 0.000000 0.396140
O O14 0.750000 0.750000 0.239326
O O15 0.714742 0.886175 0.272339
O O16 0.502058 0.742696 0.953046
#
# Coordination Sequence:
#
# PCOD9372413 Si02
#       8
#    16  16  16   8  16  16  16  16
#     4  12  27  48  78 107 156 211 259 328 399 473
#     4  11  21  45  75 108 143 189 260 322 382 457
#     4  11  26  48  72 115 152 198 257 323 388 464
#     4  12  24  52  76 108 164 196 274 324 376 490
#     4  11  22  42  69 109 142 180 256 316 376 458
#     4  12  30  51  74 114 165 206 265 326 404 500
#     4  11  23  41  76 111 146 195 245 324 391 449
#     4  12  25  50  77 106 156 205 266 321 394 478
#
# _framework density 23.407620000000001
#
# number of rings (size 3 to 8) (size 9 to 14) (size 15 to 20)
#    0.000    0.533    6.667    1.200    1.867    5.333 
#    1.200    0.000    0.000    0.000    0.000    0.000 
#    0.000    0.000    0.000    0.000    0.000    0.000 
#
# Total GULP energy -167200.538143 kJ/mol
# GULP energy per Si atom -5573.351271 kJ/mol
# Density = 2.335434 g / cm^3
# Si number density = 23.407620 Si / 1000 Ang^3
#
#
#
# Elastic Constant Matrix: (Units=GPa)
#
#
# Indices 1 2 3 4 5 6 
#
# 1 84.9876 39.3271 39.9826 0.0000 0.0000 0.0000
# 2 39.3271 157.7262 26.7871 0.0000 0.0000 0.0000
# 3 39.9826 26.7871 63.4215 0.0000 0.0000 0.0000
# 4 0.0000 0.0000 0.0000 158.9068 0.0000 0.0000
# 5 0.0000 0.0000 0.0000 0.0000 30.9034 0.0000
# 6 0.0000 0.0000 0.0000 0.0000 0.0000 44.3222
#
#
#
# Elastic Compliance Matrix: (Units=1/GPa)
#
#
# Indices 1 2 3 4 5 6 
#
# 1 0.017749 -0.002720 -0.010040 0.000000 0.000000 0.000000
# 2 -0.002720 0.007247 -0.001346 0.000000 0.000000 0.000000
# 3 -0.010040 -0.001346 0.022666 0.000000 0.000000 0.000000
# 4 0.000000 0.000000 0.000000 0.006293 0.000000 0.000000
# 5 0.000000 0.000000 0.000000 0.000000 0.032359 0.000000
# 6 0.000000 0.000000 0.000000 0.000000 0.000000 0.022562
#
#
# Mechanical properties :
#
#
# Convention : Reuss Voigt Hill
#
# Bulk Modulus (GPa) = 51.41834 57.59210 54.50522
# Shear Modulus (GPa) = 34.82599 60.16239 47.49419
#
# Velocity S-wave (km/s) = 3.86139 5.07522 4.50933
# Velocity P-wave (km/s) = 6.47261 7.68122 7.10267
#
# Compressibility (1/GPa) = 0.01944831
#
# Stress axis : x y z
#
# Youngs Moduli (GPa) = 56.34228 137.98913 44.11957
#
# Poissons Ratio (x) = 0.37536 0.44297
# Poissons Ratio (y) = 0.15326 0.05938
# Poissons Ratio (z) = 0.56569 0.18573
#
# Static dielectric constant tensor:
#      x y z
#    x 1.908230 0.000000 0.000000 
#    y 0.000000 1.990600 0.000000 
#    z 0.000000 0.000000 1.941230 
# 
# From -- ./inp_files/21241.got.cif
#   From: 2010.05.17/outbox.cif.g08.bks.cpg/sg43_11_cif.got.tgz:21241.got - 2010.06.03 19:21:55.
