data_PCOD9372108
_publ_section_title
;
Structure prediction by ZEFSAII (Michael W. Deem and Ramdas Pophale) SiO2 
 PCOD9372108
Probable space group: F D D 2
;
_chemical_formula_sum "Si O2"
_cell_formula_units_Z 120
_cell_length_a 27.766719
_cell_length_b 8.251860
_cell_length_c 23.219637
_cell_angle_alpha 90.000000
_cell_angle_beta 90.000000
_cell_angle_gamma 90.000000
_cell_volume 5320.247574
_symmetry_space_group_name_H-M "F D D 2"
_symmetry_group_IT_number 43
_symmetry_cell_setting 'orthorhombic'
loop_
_space_group_symop_operation_xyz
x,y,z
-x,-y,z
1/4-x,1/4+y,1/4+z
1/4+x,1/4-y,1/4+z
x,1/2+y,1/2+z
-x,1/2-y,1/2+z
1/4-x,3/4+y,3/4+z
1/4+x,3/4-y,3/4+z
1/2+x,y,1/2+z
1/2-x,-y,1/2+z
3/4-x,1/4+y,3/4+z
3/4+x,1/4-y,3/4+z
1/2+x,1/2+y,z
1/2-x,1/2-y,z
3/4-x,3/4+y,1/4+z
3/4+x,3/4-y,1/4+z
loop_
_atom_site_type_symbol
_atom_site_label
_atom_site_fract_x
_atom_site_fract_y
_atom_site_fract_z
Si Si1 0.068304 0.669125 0.022030
Si Si2 0.989382 0.321628 0.801450
Si Si3 0.387425 0.632583 0.922568
Si Si4 0.250000 0.250000 0.854723
Si Si5 0.399531 0.157011 0.967534
Si Si6 0.890516 0.928893 0.358738
Si Si7 0.456119 0.377244 0.893111
Si Si8 0.937767 0.627232 0.210307
O O1 0.111163 0.749196 0.057061
O O2 0.022405 0.640717 0.063489
O O3 0.072220 0.776996 0.963252
O O4 0.082586 0.484104 0.008251
O O5 0.941996 0.358018 0.839755
O O6 0.978622 0.184709 0.754404
O O7 0.000000 0.500000 0.776098
O O8 0.029905 0.252165 0.844384
O O9 0.363868 0.775987 0.886687
O O10 0.411495 0.497110 0.881861
O O11 0.346549 0.534673 0.955651
O O12 0.289915 0.321983 0.899211
O O13 0.440413 0.288923 0.952302
O O14 0.348977 0.239723 0.982567
O O15 0.393042 0.066006 0.906757
O O16 0.500000 0.500000 0.899014
#
# Coordination Sequence:
#
# PCOD9372108 Si02
#       8
#    16  16  16   8  16  16  16  16
#     4  11  25  46  74 100 142 191 230 293 365 429
#     4  12  25  41  70 106 140 184 241 297 356 414
#     4  10  24  45  74 102 144 185 238 281 361 437
#     4  12  28  44  72 106 146 178 244 300 360 408
#     4  10  24  45  74  97 142 187 237 284 362 433
#     4  11  21  44  72  99 134 184 234 286 358 424
#     4  11  23  40  68 113 138 172 233 314 335 411
#     4  11  26  47  68 107 138 190 237 291 353 434
#
# _framework density 22.555340000000001
#
# number of rings (size 3 to 8) (size 9 to 14) (size 15 to 20)
#    0.000    1.067    5.333    0.000    2.800    4.267 
#    0.000    0.000    0.000    0.000    0.000    0.000 
#    0.000    0.000    0.000    0.000    0.000    0.000 
#
# Total GULP energy -167498.843504 kJ/mol
# GULP energy per Si atom -5583.294783 kJ/mol
# Density = 2.250400 g / cm^3
# Si number density = 22.555340 Si / 1000 Ang^3
#
#
#
# Elastic Constant Matrix: (Units=GPa)
#
#
# Indices 1 2 3 4 5 6 
#
# 1 50.9561 18.2091 22.5104 0.0000 0.0000 0.0000
# 2 18.2091 104.1442 24.4313 0.0000 0.0000 0.0001
# 3 22.5104 24.4313 75.8714 0.0000 0.0000 0.0000
# 4 0.0000 0.0000 0.0000 24.4455 0.0000 0.0000
# 5 0.0000 0.0000 0.0000 0.0000 27.8146 0.0000
# 6 0.0000 0.0001 0.0000 0.0000 0.0000 33.6466
#
#
#
# Elastic Compliance Matrix: (Units=1/GPa)
#
#
# Indices 1 2 3 4 5 6 
#
# 1 0.023240 -0.002646 -0.006043 0.000000 0.000000 0.000000
# 2 -0.002646 0.010688 -0.002657 0.000000 0.000000 0.000000
# 3 -0.006043 -0.002657 0.015829 0.000000 0.000000 0.000000
# 4 0.000000 0.000000 0.000000 0.040907 0.000000 0.000000
# 5 0.000000 0.000000 0.000000 0.000000 0.035952 0.000000
# 6 0.000000 0.000000 0.000000 0.000000 0.000000 0.029721
#
#
# Mechanical properties :
#
#
# Convention : Reuss Voigt Hill
#
# Bulk Modulus (GPa) = 36.94757 40.14146 38.54452
# Shear Modulus (GPa) = 26.58877 28.23607 27.41242
#
# Velocity S-wave (km/s) = 3.43712 3.54200 3.48996
# Velocity P-wave (km/s) = 5.67170 5.87905 5.77630
#
# Compressibility (1/GPa) = 0.02706538
#
# Stress axis : x y z
#
# Youngs Moduli (GPa) = 43.02963 93.56397 63.17679
#
# Poissons Ratio (x) = 0.24754 0.38178
# Poissons Ratio (y) = 0.11384 0.16784
# Poissons Ratio (z) = 0.26003 0.24857
#
# Static dielectric constant tensor:
#      x y z
#    x 1.855880 0.000000 0.000000 
#    y 0.000000 1.850350 0.000000 
#    z 0.000000 0.000000 1.861690 
# 
# From -- ./inp_files/22817.got.cif
#   From: 2010.05.17/outbox.cif.g08.bks.cpg/sg43_12_cif.got.tgz:22817.got - 2010.06.03 19:21:55.
