data_PCOD9372404
_publ_section_title
;
Structure prediction by ZEFSAII (Michael W. Deem and Ramdas Pophale) SiO2 
 PCOD9372404
Probable space group: F D D 2
;
_chemical_formula_sum "Si O2"
_cell_formula_units_Z 112
_cell_length_a 30.422966
_cell_length_b 16.883308
_cell_length_c 10.293728
_cell_angle_alpha 90.000000
_cell_angle_beta 90.000000
_cell_angle_gamma 90.000000
_cell_volume 5287.273592
_symmetry_space_group_name_H-M "F D D 2"
_symmetry_group_IT_number 43
_symmetry_cell_setting 'orthorhombic'
loop_
_space_group_symop_operation_xyz
x,y,z
-x,-y,z
1/4-x,1/4+y,1/4+z
1/4+x,1/4-y,1/4+z
x,1/2+y,1/2+z
-x,1/2-y,1/2+z
1/4-x,3/4+y,3/4+z
1/4+x,3/4-y,3/4+z
1/2+x,y,1/2+z
1/2-x,-y,1/2+z
3/4-x,1/4+y,3/4+z
3/4+x,1/4-y,3/4+z
1/2+x,1/2+y,z
1/2-x,1/2-y,z
3/4-x,3/4+y,1/4+z
3/4+x,3/4-y,1/4+z
loop_
_atom_site_type_symbol
_atom_site_label
_atom_site_fract_x
_atom_site_fract_y
_atom_site_fract_z
Si Si1 0.429185 0.195037 0.391980
Si Si2 0.621452 0.201608 0.222882
Si Si3 0.968508 0.853471 0.309661
Si Si4 0.943033 0.579264 0.175014
Si Si5 0.460025 0.896583 0.107939
Si Si6 0.083103 0.504574 0.715473
Si Si7 0.190780 0.586323 0.925587
O O1 0.444632 0.268819 0.303878
O O2 0.435573 0.112938 0.318174
O O3 0.378182 0.207504 0.419769
O O4 0.451688 0.201442 0.534384
O O5 0.649118 0.160543 0.337244
O O6 0.578546 0.153010 0.176905
O O7 0.656062 0.217175 0.107228
O O8 0.599699 0.289026 0.241802
O O9 0.957457 0.885525 0.453411
O O10 0.951986 0.925474 0.220014
O O11 0.018809 0.838162 0.273796
O O12 0.952131 0.486298 0.154884
O O13 0.988747 0.622058 0.135409
O O14 0.071141 0.426135 0.638073
#
# Coordination Sequence:
#
# PCOD9372404 Si02
#       7
#    16  16  16  16  16  16  16
#     4  11  25  44  66 101 143 177 229 299 353 424
#     4  11  21  43  71  99 137 182 233 293 354 424
#     4  12  23  44  70  97 136 187 233 292 353 426
#     4  11  25  43  68 103 139 183 229 296 360 414
#     4  11  23  43  71 102 138 177 245 289 343 440
#     4  11  22  42  69  95 136 177 233 283 354 434
#     4  11  24  42  68 104 137 183 238 293 355 427
#
# _framework density 21.182939000000001
#
# number of rings (size 3 to 8) (size 9 to 14) (size 15 to 20)
#    0.000    0.857    4.286    4.714    2.000    2.286 
#   10.286    0.000    0.000    0.000    0.000    0.000 
#    0.000    0.000    0.000    0.000    0.000    0.000 
#
# Total GULP energy -156210.486330 kJ/mol
# GULP energy per Si atom -5578.945940 kJ/mol
# Density = 2.113473 g / cm^3
# Si number density = 21.182939 Si / 1000 Ang^3
#
#
#
# Elastic Constant Matrix: (Units=GPa)
#
#
# Indices 1 2 3 4 5 6 
#
# 1 84.0390 5.6451 35.1449 0.0000 0.0000 0.0000
# 2 5.6451 71.8835 24.6507 0.0000 0.0000 0.0000
# 3 35.1449 24.6507 53.4990 0.0000 0.0000 0.0000
# 4 0.0000 0.0000 0.0000 32.0685 0.0000 0.0000
# 5 0.0000 0.0000 0.0000 0.0000 28.2340 0.0000
# 6 0.0000 0.0000 0.0000 0.0000 0.0000 -21.0137
#
#
#
# Elastic Compliance Matrix: (Units=1/GPa)
#
#
# Indices 1 2 3 4 5 6 
#
# 1 0.016917 0.002948 -0.012472 0.000000 0.000000 0.000000
# 2 0.002948 0.017036 -0.009786 0.000000 0.000000 0.000000
# 3 -0.012472 -0.009786 0.031394 0.000000 0.000000 0.000000
# 4 0.000000 0.000000 0.000000 0.031183 0.000000 0.000000
# 5 0.000000 0.000000 0.000000 0.000000 0.035418 0.000000
# 6 0.000000 0.000000 0.000000 0.000000 0.000000 -0.047588
#
#
# Mechanical properties :
#
#
# Convention : Reuss Voigt Hill
#
# Bulk Modulus (GPa) = 37.41477 37.81143 37.61310
# Shear Modulus (GPa) = 37.91079 17.45650 27.68364
#
# Velocity S-wave (km/s) = 4.23506 2.87380 3.61901
# Velocity P-wave (km/s) = 6.45099 5.37590 5.93783
#
# Compressibility (1/GPa) = 0.02672742
#
# Stress axis : x y z
#
# Youngs Moduli (GPa) = 59.11305 58.69967 31.85314
#
# Poissons Ratio (x) = -0.17307 0.39726
# Poissons Ratio (y) = -0.17428 0.31173
# Poissons Ratio (z) = 0.73723 0.57446
#
# Static dielectric constant tensor:
#      x y z
#    x 1.788930 0.000000 0.000000 
#    y 0.000000 1.815230 0.000000 
#    z 0.000000 0.000000 1.798500 
# 
# From -- ./inp_files/8286.got.cif
#   From: 2010.05.17/outbox.cif.g08.bks.cpg/sg43_5_cif.got.tgz:8286.got - 2010.06.03 19:21:55.
