data_PCOD9372957
_publ_section_title
;
Structure prediction by ZEFSAII (Michael W. Deem and Ramdas Pophale) SiO2 
 PCOD9372957
Probable space group: F D D 2
;
_chemical_formula_sum "Si O2"
_cell_formula_units_Z 30
_cell_length_a 18.000000
_cell_length_b 12.000000
_cell_length_c 30.000000
_cell_angle_alpha 90.000000
_cell_angle_beta 90.000000
_cell_angle_gamma 90.000000
_cell_volume 6480.000000
_symmetry_space_group_name_H-M "F D D 2"
_symmetry_group_IT_number 43
_symmetry_cell_setting 'orthorhombic'
loop_
_space_group_symop_operation_xyz
x,y,z
-x,-y,z
1/4-x,1/4+y,1/4+z
1/4+x,1/4-y,1/4+z
x,1/2+y,1/2+z
-x,1/2-y,1/2+z
1/4-x,3/4+y,3/4+z
1/4+x,3/4-y,3/4+z
1/2+x,y,1/2+z
1/2-x,-y,1/2+z
3/4-x,1/4+y,3/4+z
3/4+x,1/4-y,3/4+z
1/2+x,1/2+y,z
1/2-x,1/2-y,z
3/4-x,3/4+y,1/4+z
3/4+x,3/4-y,1/4+z
loop_
_atom_site_type_symbol
_atom_site_label
_atom_site_fract_x
_atom_site_fract_y
_atom_site_fract_z
Si Si1 0.871457 0.793399 0.584600
Si Si2 0.304191 0.846353 0.417311
Si Si3 0.446056 0.893621 0.297977
Si Si4 0.027831 0.880375 0.562494
Si Si5 0.718397 0.531495 0.468463
Si Si6 0.750000 0.250000 0.010723
Si Si7 0.316933 0.662407 0.166712
Si Si8 0.552584 0.743987 0.887713
O O1 0.817610 0.781229 0.542900
O O2 0.852617 0.694155 0.618678
O O3 0.954772 0.803934 0.566112
O O4 0.847361 0.903022 0.613497
O O5 0.250000 0.750000 0.435222
O O6 0.296907 0.847476 0.364083
O O7 0.390253 0.811812 0.423054
O O8 0.268261 0.959875 0.434536
O O9 0.356328 0.914408 0.293764
O O10 0.460637 0.797506 0.261615
O O11 0.462425 0.841561 0.347159
O O12 0.500000 0.000000 0.291647
O O13 0.000000 0.000000 0.542873
O O14 0.762524 0.642338 0.481011
O O15 0.636662 0.568150 0.449927
O O16 0.250000 0.750000 0.176648
O O17 0.271180 0.546937 0.160210
#
# Coordination Sequence:
#
# PCOD9372957 Si02
#       8
#    16  16  16  16  16   8  16  16
#     4  11  16  36  65  87 114 164 211 252 292 366
#     4  10  17  33  62  91 119 148 195 258 316 353
#     4  11  23  37  59  93 129 157 193 256 328 367
#     4  10  17  34  63  90 113 157 212 249 292 374
#     4  12  23  39  55  90 125 162 197 260 318 364
#     4  12  24  38  60  84 132 166 200 258 316 368
#     4  10  20  34  63  91 118 156 217 259 294 356
#     4  10  18  38  61  90 115 163 206 252 296 379
#
# _framework density 4.6296299999999997
#
# number of rings (size 3 to 8) (size 9 to 14) (size 15 to 20)
#    0.000    1.333    8.667    1.200    0.000    1.600 
#    4.800    0.000    0.000    4.000    0.000    0.000 
#    0.000    0.000    0.000    0.000    0.000    0.000 
#
# Total GULP energy -167216.144798 kJ/mol
# GULP energy per Si atom -5573.871493 kJ/mol
# Density = 0.461909 g / cm^3
# Si number density = 4.629630 Si / 1000 Ang^3
#
#
#
# Elastic Constant Matrix: (Units=GPa)
#
#
# Indices 1 2 3 4 5 6 
#
# 1 133.2508 59.8632 18.6013 0.0000 0.0000 0.0000
# 2 59.8632 82.8476 25.5938 0.0000 0.0000 0.0000
# 3 18.6013 25.5938 39.9608 0.0000 0.0000 0.0000
# 4 0.0000 0.0000 0.0000 16.0488 0.0000 0.0000
# 5 0.0000 0.0000 0.0000 0.0000 8.0280 0.0000
# 6 0.0000 0.0000 0.0000 0.0000 0.0000 38.9106
#
#
#
# Elastic Compliance Matrix: (Units=1/GPa)
#
#
# Indices 1 2 3 4 5 6 
#
# 1 0.011112 -0.008017 -0.000037 0.000000 0.000000 0.000000
# 2 -0.008017 0.020833 -0.009611 0.000000 0.000000 0.000000
# 3 -0.000037 -0.009611 0.031197 0.000000 0.000000 0.000000
# 4 0.000000 0.000000 0.000000 0.062310 0.000000 0.000000
# 5 0.000000 0.000000 0.000000 0.000000 0.124564 0.000000
# 6 0.000000 0.000000 0.000000 0.000000 0.000000 0.025700
#
#
# Mechanical properties :
#
#
# Convention : Reuss Voigt Hill
#
# Bulk Modulus (GPa) = 35.95762 51.57509 43.76636
# Shear Modulus (GPa) = 15.60957 22.73088 19.17023
#
# Velocity S-wave (km/s) = 2.90645 3.50732 3.22093
# Velocity P-wave (km/s) = 5.54279 6.65678 6.12517
#
# Compressibility (1/GPa) = 0.02781052
#
# Stress axis : x y z
#
# Youngs Moduli (GPa) = 89.99503 48.00190 32.05409
#
# Poissons Ratio (x) = 0.38485 0.00120
# Poissons Ratio (y) = 0.72153 0.30806
# Poissons Ratio (z) = 0.00337 0.46133
#
# Static dielectric constant tensor:
#      x y z
#    x 1.671580 0.000000 0.000000 
#    y 0.000000 1.663300 0.000000 
#    z 0.000000 0.000000 1.667430 
# 
# From -- ./inp_files/29519.got.cif
#   From: 2010.05.17/outbox.ucp.g08.bks.cvg/sg43_15_cif.got.tgz:29519.got - 2010.06.11 16:31:01.
