data_PCOD9372343
_publ_section_title
;
Structure prediction by ZEFSAII (Michael W. Deem and Ramdas Pophale) SiO2 
 PCOD9372343
Probable space group: F D D 2
;
_chemical_formula_sum "Si O2"
_cell_formula_units_Z 88
_cell_length_a 21.520196
_cell_length_b 19.313712
_cell_length_c 7.978855
_cell_angle_alpha 90.000000
_cell_angle_beta 90.000000
_cell_angle_gamma 90.000000
_cell_volume 3316.290343
_symmetry_space_group_name_H-M "F D D 2"
_symmetry_group_IT_number 43
_symmetry_cell_setting 'orthorhombic'
loop_
_space_group_symop_operation_xyz
x,y,z
-x,-y,z
1/4-x,1/4+y,1/4+z
1/4+x,1/4-y,1/4+z
x,1/2+y,1/2+z
-x,1/2-y,1/2+z
1/4-x,3/4+y,3/4+z
1/4+x,3/4-y,3/4+z
1/2+x,y,1/2+z
1/2-x,-y,1/2+z
3/4-x,1/4+y,3/4+z
3/4+x,1/4-y,3/4+z
1/2+x,1/2+y,z
1/2-x,1/2-y,z
3/4-x,3/4+y,1/4+z
3/4+x,3/4-y,1/4+z
loop_
_atom_site_type_symbol
_atom_site_label
_atom_site_fract_x
_atom_site_fract_y
_atom_site_fract_z
Si Si1 0.706258 0.898014 0.326560
Si Si2 0.250000 0.750000 0.808870
Si Si3 0.260941 0.522755 0.491471
Si Si4 0.869257 0.426411 0.048875
Si Si5 0.831995 0.288345 0.509611
Si Si6 0.757429 0.861727 0.724392
O O1 0.721735 0.820167 0.383708
O O2 0.718621 0.954059 0.474197
O O3 0.635545 0.905210 0.272041
O O4 0.741221 0.929679 0.159208
O O5 0.199176 0.717151 0.687531
O O6 0.330195 0.490442 0.470402
O O7 0.244109 0.567564 0.331273
O O8 0.891920 0.461955 0.220880
O O9 0.933161 0.405463 0.959439
O O10 0.815357 0.370583 0.091673
O O11 0.786350 0.308799 0.360366
#
# Coordination Sequence:
#
# PCOD9372343 Si02
#       6
#    16   8  16  16  16  16
#     4  11  25  42  72 100 145 185 242 294 369 429
#     4  12  22  40  68 108 132 178 246 302 344 430
#     4  11  22  45  68 100 139 194 233 302 368 442
#     4  11  23  40  68 104 145 189 244 301 374 439
#     4  11  20  38  69 100 133 185 247 290 339 446
#     4  12  21  41  71 103 139 188 249 302 359 451
#
# _framework density 26.535672999999999
#
# number of rings (size 3 to 8) (size 9 to 14) (size 15 to 20)
#    0.000    0.727    7.273    3.273    0.000    0.000 
#    3.273    1.818    4.000    1.091    0.000    0.000 
#    0.000    0.000    0.000    0.000    0.000    0.000 
#
# Total GULP energy -122810.358399 kJ/mol
# GULP energy per Si atom -5582.289018 kJ/mol
# Density = 2.647528 g / cm^3
# Si number density = 26.535673 Si / 1000 Ang^3
#
#
#
# Elastic Constant Matrix: (Units=GPa)
#
#
# Indices 1 2 3 4 5 6 
#
# 1 186.7754 69.1040 55.7653 0.0000 0.0000 0.0000
# 2 69.1040 176.8087 36.6438 0.0002 -0.0001 -0.0001
# 3 55.7653 36.6438 94.5748 0.0006 -0.0003 -0.0004
# 4 0.0000 0.0002 0.0006 22.1048 -0.0002 -0.0002
# 5 0.0000 -0.0001 -0.0003 -0.0002 35.5868 0.0001
# 6 0.0000 -0.0001 -0.0004 -0.0002 0.0001 34.8518
#
#
#
# Elastic Compliance Matrix: (Units=1/GPa)
#
#
# Indices 1 2 3 4 5 6 
#
# 1 0.007142 -0.002086 -0.003403 0.000000 0.000000 0.000000
# 2 -0.002086 0.006759 -0.001389 0.000000 0.000000 0.000000
# 3 -0.003403 -0.001389 0.013118 0.000000 0.000000 0.000000
# 4 0.000000 0.000000 0.000000 0.045239 0.000000 0.000000
# 5 0.000000 0.000000 0.000000 0.000000 0.028100 0.000000
# 6 0.000000 0.000000 0.000000 0.000000 0.000000 0.028693
#
#
# Mechanical properties :
#
#
# Convention : Reuss Voigt Hill
#
# Bulk Modulus (GPa) = 75.39441 86.79836 81.09638
# Shear Modulus (GPa) = 33.96095 38.28506 36.12300
#
# Velocity S-wave (km/s) = 3.58134 3.80251 3.69358
# Velocity P-wave (km/s) = 6.75096 7.21525 6.98697
#
# Compressibility (1/GPa) = 0.01326358
#
# Stress axis : x y z
#
# Youngs Moduli (GPa) = 140.02024 147.95131 76.22989
#
# Poissons Ratio (x) = 0.30864 0.25940
# Poissons Ratio (y) = 0.29209 0.10587
# Poissons Ratio (z) = 0.47647 0.20547
#
# Static dielectric constant tensor:
#      x y z
#    x 2.131170 0.000000 0.000000 
#    y 0.000000 2.167920 0.000000 
#    z 0.000000 0.000000 2.172040 
# 
# From -- ./inp_files/7041.got.cif
#   From: 2010.05.17/outbox.cif.g08.bks.cpg/sg43_4_cif.got.tgz:7041.got - 2010.06.03 19:21:55.
