data_PCOD9372811
_publ_section_title
;
Structure prediction by ZEFSAII (Michael W. Deem and Ramdas Pophale) SiO2 
 PCOD9372811
Probable space group: F D D 2
;
_chemical_formula_sum "Si O2"
_cell_formula_units_Z 88
_cell_length_a 5.139671
_cell_length_b 31.806261
_cell_length_c 25.811084
_cell_angle_alpha 90.000000
_cell_angle_beta 90.000000
_cell_angle_gamma 90.000000
_cell_volume 4219.433849
_symmetry_space_group_name_H-M "F D D 2"
_symmetry_group_IT_number 43
_symmetry_cell_setting 'orthorhombic'
loop_
_space_group_symop_operation_xyz
x,y,z
-x,-y,z
1/4-x,1/4+y,1/4+z
1/4+x,1/4-y,1/4+z
x,1/2+y,1/2+z
-x,1/2-y,1/2+z
1/4-x,3/4+y,3/4+z
1/4+x,3/4-y,3/4+z
1/2+x,y,1/2+z
1/2-x,-y,1/2+z
3/4-x,1/4+y,3/4+z
3/4+x,1/4-y,3/4+z
1/2+x,1/2+y,z
1/2-x,1/2-y,z
3/4-x,3/4+y,1/4+z
3/4+x,3/4-y,1/4+z
loop_
_atom_site_type_symbol
_atom_site_label
_atom_site_fract_x
_atom_site_fract_y
_atom_site_fract_z
Si Si1 0.273030 0.160531 0.325870
Si Si2 0.250000 0.750000 0.878478
Si Si3 0.753470 0.607294 0.223288
Si Si4 0.232424 0.881504 0.368911
Si Si5 0.505759 0.226800 0.084889
Si Si6 0.750692 0.453172 0.220122
O O1 0.284000 0.209589 0.341292
O O2 0.211179 0.140616 0.269586
O O3 0.566048 0.145135 0.335180
O O4 0.052624 0.139092 0.362980
O O5 0.031560 0.733110 0.919742
O O6 0.872282 0.631473 0.174023
O O7 0.488963 0.580252 0.217242
O O8 0.982149 0.572417 0.228488
O O9 0.226764 0.928275 0.348028
O O10 0.250000 0.250000 0.103334
O O11 0.750000 0.250000 0.108506
O O12 0.517891 0.229432 0.022716
#
# Coordination Sequence:
#
# PCOD9372811 Si02
#       6
#    16   8  16  16  16  16
#     4  12  25  43  71 100 143 184 239 294 366 434
#     4  12  26  42  68 114 138 182 242 318 346 428
#     4  12  23  46  67  95 135 190 227 288 365 445
#     4  12  24  44  69  97 135 192 236 286 368 439
#     4  12  24  40  66  99 134 173 238 305 345 427
#     4  12  24  39  72  98 132 174 233 289 368 411
#
# _framework density 20.855879000000002
#
# number of rings (size 3 to 8) (size 9 to 14) (size 15 to 20)
#    0.000    0.000    8.182    2.182    0.000    2.182 
#    1.636    0.000    0.000    0.000    0.000    0.000 
#    0.000    0.000    0.000    0.000    0.000    0.000 
#
# Total GULP energy -122767.882294 kJ/mol
# GULP energy per Si atom -5580.358286 kJ/mol
# Density = 2.080841 g / cm^3
# Si number density = 20.855879 Si / 1000 Ang^3
#
#
#
# Elastic Constant Matrix: (Units=GPa)
#
#
# Indices 1 2 3 4 5 6 
#
# 1 128.7779 59.3634 4.7940 0.0000 0.0000 0.0000
# 2 59.3634 176.4946 21.3766 0.0000 0.0000 0.0000
# 3 4.7940 21.3766 67.0052 0.0000 0.0000 0.0000
# 4 0.0000 0.0000 0.0000 116.5555 0.0000 0.0000
# 5 0.0000 0.0000 0.0000 0.0000 30.8288 0.0000
# 6 0.0000 0.0000 0.0000 0.0000 0.0000 33.4139
#
#
#
# Elastic Compliance Matrix: (Units=1/GPa)
#
#
# Indices 1 2 3 4 5 6 
#
# 1 0.009198 -0.003135 0.000342 0.000000 0.000000 0.000000
# 2 -0.003135 0.006962 -0.001997 0.000000 0.000000 0.000000
# 3 0.000342 -0.001997 0.015537 0.000000 0.000000 0.000000
# 4 0.000000 0.000000 0.000000 0.008580 0.000000 0.000000
# 5 0.000000 0.000000 0.000000 0.000000 0.032437 0.000000
# 6 0.000000 0.000000 0.000000 0.000000 0.000000 0.029928
#
#
# Mechanical properties :
#
#
# Convention : Reuss Voigt Hill
#
# Bulk Modulus (GPa) = 45.21378 60.37175 52.79276
# Shear Modulus (GPa) = 41.80836 55.27587 48.54211
#
# Velocity S-wave (km/s) = 4.48217 5.15376 4.82965
# Velocity P-wave (km/s) = 6.96510 8.02652 7.51457
#
# Compressibility (1/GPa) = 0.02211715
#
# Stress axis : x y z
#
# Youngs Moduli (GPa) = 108.72206 143.63226 64.36335
#
# Poissons Ratio (x) = 0.45030 -0.02202
# Poissons Ratio (y) = 0.34085 0.12852
# Poissons Ratio (z) = -0.03719 0.28681
#
# Static dielectric constant tensor:
#      x y z
#    x 1.793390 0.000000 0.000000 
#    y 0.000000 1.742600 0.000000 
#    z 0.000000 0.000000 1.815190 
# 
# From -- ./inp_files/27331.got.cif
#   From: 2010.05.17/outbox.cif.g08.bks.cpg/sg43_14_cif.got.tgz:27331.got - 2010.06.03 19:21:55.
