data_PCOD9372761
_publ_section_title
;
Structure prediction by ZEFSAII (Michael W. Deem and Ramdas Pophale) SiO2 
 PCOD9372761
Probable space group: F D D 2
;
_chemical_formula_sum "Si O2"
_cell_formula_units_Z 80
_cell_length_a 17.333609
_cell_length_b 18.193559
_cell_length_c 9.622156
_cell_angle_alpha 90.000000
_cell_angle_beta 90.000000
_cell_angle_gamma 90.000000
_cell_volume 3034.443482
_symmetry_space_group_name_H-M "F D D 2"
_symmetry_group_IT_number 43
_symmetry_cell_setting 'orthorhombic'
loop_
_space_group_symop_operation_xyz
x,y,z
-x,-y,z
1/4-x,1/4+y,1/4+z
1/4+x,1/4-y,1/4+z
x,1/2+y,1/2+z
-x,1/2-y,1/2+z
1/4-x,3/4+y,3/4+z
1/4+x,3/4-y,3/4+z
1/2+x,y,1/2+z
1/2-x,-y,1/2+z
3/4-x,1/4+y,3/4+z
3/4+x,1/4-y,3/4+z
1/2+x,1/2+y,z
1/2-x,1/2-y,z
3/4-x,3/4+y,1/4+z
3/4+x,3/4-y,1/4+z
loop_
_atom_site_type_symbol
_atom_site_label
_atom_site_fract_x
_atom_site_fract_y
_atom_site_fract_z
Si Si1 0.297851 0.679201 0.274670
Si Si2 0.982219 0.586431 0.312127
Si Si3 0.587329 0.725183 0.421267
Si Si4 0.542573 0.286366 0.222175
Si Si5 0.684841 0.851560 0.337209
O O1 0.250000 0.750000 0.220306
O O2 0.250224 0.644919 0.401896
O O3 0.382507 0.707325 0.319616
O O4 0.323651 0.612524 0.174965
O O5 0.041860 0.613312 0.427878
O O6 0.000000 0.500000 0.310629
O O7 0.895385 0.604497 0.358927
O O8 0.569793 0.750026 0.578579
O O9 0.664051 0.767531 0.374766
O O10 0.475910 0.247205 0.309670
O O11 0.504188 0.363022 0.174020
#
# Coordination Sequence:
#
# PCOD9372761 Si02
#       5
#    16  16  16  16  16
#     4  11  30  51  81 122 162 222 280 344 416 505
#     4  11  27  48  84 114 169 213 273 342 415 508
#     4  12  28  50  84 115 168 216 277 346 420 498
#     4  12  29  50  79 123 162 219 271 349 417 502
#     4  12  26  52  78 125 159 220 277 339 424 497
#
# _framework density 26.363977999999999
#
# number of rings (size 3 to 8) (size 9 to 14) (size 15 to 20)
#    0.000    0.400    2.000    3.600   16.800    0.000 
#    0.000    0.000    0.000    0.000    0.000    0.000 
#    0.000    0.000    0.000    0.000    0.000    0.000 
#
# Total GULP energy -111947.275324 kJ/mol
# GULP energy per Si atom -5597.363766 kJ/mol
# Density = 2.630397 g / cm^3
# Si number density = 26.363978 Si / 1000 Ang^3
#
#
#
# Elastic Constant Matrix: (Units=GPa)
#
#
# Indices 1 2 3 4 5 6 
#
# 1 170.6452 52.8714 20.4303 0.0000 0.0000 0.0000
# 2 52.8714 158.9271 9.8513 0.0000 0.0000 0.0000
# 3 20.4303 9.8513 74.3140 0.0000 0.0000 0.0000
# 4 0.0000 0.0000 0.0000 37.8910 0.0000 0.0000
# 5 0.0000 0.0000 0.0000 0.0000 45.3102 0.0000
# 6 0.0000 0.0000 0.0000 0.0000 0.0000 36.7603
#
#
#
# Elastic Compliance Matrix: (Units=1/GPa)
#
#
# Indices 1 2 3 4 5 6 
#
# 1 0.006709 -0.002135 -0.001561 0.000000 0.000000 0.000000
# 2 -0.002135 0.007024 -0.000344 0.000000 0.000000 0.000000
# 3 -0.001561 -0.000344 0.013931 0.000000 0.000000 0.000000
# 4 0.000000 0.000000 0.000000 0.026391 0.000000 0.000000
# 5 0.000000 0.000000 0.000000 0.000000 0.022070 0.000000
# 6 0.000000 0.000000 0.000000 0.000000 0.000000 0.027203
#
#
# Mechanical properties :
#
#
# Convention : Reuss Voigt Hill
#
# Bulk Modulus (GPa) = 51.06536 63.35469 57.21003
# Shear Modulus (GPa) = 42.39557 45.37451 43.88504
#
# Velocity S-wave (km/s) = 4.01445 4.15309 4.08436
# Velocity P-wave (km/s) = 6.39524 6.86152 6.63248
#
# Compressibility (1/GPa) = 0.01958274
#
# Stress axis : x y z
#
# Youngs Moduli (GPa) = 149.06404 142.37323 71.78100
#
# Poissons Ratio (x) = 0.30397 0.11207
# Poissons Ratio (y) = 0.31825 0.02470
# Poissons Ratio (z) = 0.23273 0.04900
#
# Static dielectric constant tensor:
#      x y z
#    x 1.990090 0.000000 0.000000 
#    y 0.000000 2.219730 0.000000 
#    z 0.000000 0.000000 2.050270 
# 
# From -- ./inp_files/7434.got.cif
#   From: 2010.05.17/outbox.cif.g08.bks.cpg/sg43_4_cif.got.tgz:7434.got - 2010.06.03 19:21:55.
