data_PCOD9372209
_publ_section_title
;
Structure prediction by ZEFSAII (Michael W. Deem and Ramdas Pophale) SiO2 
 PCOD9372209
Probable space group: F D D 2
;
_chemical_formula_sum "Si O2"
_cell_formula_units_Z 64
_cell_length_a 18.921961
_cell_length_b 18.611965
_cell_length_c 7.175571
_cell_angle_alpha 90.000000
_cell_angle_beta 90.000000
_cell_angle_gamma 90.000000
_cell_volume 2527.055826
_symmetry_space_group_name_H-M "F D D 2"
_symmetry_group_IT_number 43
_symmetry_cell_setting 'orthorhombic'
loop_
_space_group_symop_operation_xyz
x,y,z
-x,-y,z
1/4-x,1/4+y,1/4+z
1/4+x,1/4-y,1/4+z
x,1/2+y,1/2+z
-x,1/2-y,1/2+z
1/4-x,3/4+y,3/4+z
1/4+x,3/4-y,3/4+z
1/2+x,y,1/2+z
1/2-x,-y,1/2+z
3/4-x,1/4+y,3/4+z
3/4+x,1/4-y,3/4+z
1/2+x,1/2+y,z
1/2-x,1/2-y,z
3/4-x,3/4+y,1/4+z
3/4+x,3/4-y,1/4+z
loop_
_atom_site_type_symbol
_atom_site_label
_atom_site_fract_x
_atom_site_fract_y
_atom_site_fract_z
Si Si1 0.556594 0.679123 0.490140
Si Si2 0.206976 0.186101 0.578828
Si Si3 0.079255 0.977726 0.750196
Si Si4 0.183656 0.566995 0.508970
O O1 0.510637 0.628314 0.359672
O O2 0.636744 0.654492 0.492670
O O3 0.513250 0.673096 0.681497
O O4 0.561573 0.760846 0.424482
O O5 0.250000 0.250000 0.481582
O O6 0.177899 0.221668 0.774212
O O7 0.094658 0.895535 0.806792
O O8 0.136092 0.030350 0.844896
O O9 0.000000 0.000000 0.808514
#
# Coordination Sequence:
#
# PCOD9372209 Si02
#       4
#    16  16  16  16
#     4  11  26  43  72 102 141 192 240 307 365 439
#     4  10  25  44  71 100 145 186 242 297 371 438
#     4  10  25  45  70 103 141 192 235 303 364 444
#     4  11  26  42  75  99 149 182 255 291 382 425
#
# _framework density 25.325914000000001
#
# number of rings (size 3 to 8) (size 9 to 14) (size 15 to 20)
#    0.000    1.500    0.000    1.500   31.500    1.000 
#    0.000    0.000    0.000    0.000    0.000    0.000 
#    0.000    0.000    0.000    0.000    0.000    0.000 
#
# Total GULP energy -89599.756465 kJ/mol
# GULP energy per Si atom -5599.984779 kJ/mol
# Density = 2.526827 g / cm^3
# Si number density = 25.325914 Si / 1000 Ang^3
#
#
#
# Elastic Constant Matrix: (Units=GPa)
#
#
# Indices 1 2 3 4 5 6 
#
# 1 201.9147 53.8549 18.0408 0.0005 -0.0002 -0.0002
# 2 53.8549 164.5693 9.7427 0.0013 -0.0004 -0.0005
# 3 18.0408 9.7427 68.5248 0.0033 -0.0017 -0.0013
# 4 0.0005 0.0013 0.0033 24.9075 -0.0010 -0.0011
# 5 -0.0002 -0.0004 -0.0017 -0.0010 24.8519 0.0004
# 6 -0.0002 -0.0005 -0.0013 -0.0011 0.0004 28.0918
#
#
#
# Elastic Compliance Matrix: (Units=1/GPa)
#
#
# Indices 1 2 3 4 5 6 
#
# 1 0.005524 -0.001736 -0.001207 0.000000 0.000000 0.000000
# 2 -0.001736 0.006674 -0.000492 0.000000 0.000000 0.000000
# 3 -0.001207 -0.000492 0.014981 -0.000002 0.000001 0.000001
# 4 0.000000 0.000000 -0.000002 0.040149 0.000002 0.000002
# 5 0.000000 0.000000 0.000001 0.000002 0.040238 -0.000001
# 6 0.000000 0.000000 0.000001 0.000002 -0.000001 0.035598
#
#
# Mechanical properties :
#
#
# Convention : Reuss Voigt Hill
#
# Bulk Modulus (GPa) = 49.24215 66.47619 57.85917
# Shear Modulus (GPa) = 31.88723 39.12826 35.50774
#
# Velocity S-wave (km/s) = 3.55219 3.93490 3.74843
# Velocity P-wave (km/s) = 6.02575 6.85200 6.45211
#
# Compressibility (1/GPa) = 0.02030780
#
# Stress axis : x y z
#
# Youngs Moduli (GPa) = 181.04426 149.84171 66.75097
#
# Poissons Ratio (x) = 0.26014 0.08059
# Poissons Ratio (y) = 0.31431 0.03283
# Poissons Ratio (z) = 0.21859 0.07369
#
# Static dielectric constant tensor:
#      x y z
#    x 1.984430 0.000000 0.000000 
#    y 0.000000 2.022230 0.000000 
#    z 0.000000 0.000000 2.093520 
# 
# From -- ./inp_files/2605.got.cif
#   From: 2010.05.17/outbox.cif.g08.bks.cpg/sg43_2_cif.got.tgz:2605.got - 2010.06.03 19:21:55.
