data_PCOD9372663
_publ_section_title
;
Structure prediction by ZEFSAII (Michael W. Deem and Ramdas Pophale) SiO2 
 PCOD9372663
Probable space group: F D D 2
;
_chemical_formula_sum "Si O2"
_cell_formula_units_Z 48
_cell_length_a 9.477669
_cell_length_b 30.326342
_cell_length_c 6.934543
_cell_angle_alpha 90.000000
_cell_angle_beta 90.000000
_cell_angle_gamma 90.000000
_cell_volume 1993.147371
_symmetry_space_group_name_H-M "F D D 2"
_symmetry_group_IT_number 43
_symmetry_cell_setting 'orthorhombic'
loop_
_space_group_symop_operation_xyz
x,y,z
-x,-y,z
1/4-x,1/4+y,1/4+z
1/4+x,1/4-y,1/4+z
x,1/2+y,1/2+z
-x,1/2-y,1/2+z
1/4-x,3/4+y,3/4+z
1/4+x,3/4-y,3/4+z
1/2+x,y,1/2+z
1/2-x,-y,1/2+z
3/4-x,1/4+y,3/4+z
3/4+x,1/4-y,3/4+z
1/2+x,1/2+y,z
1/2-x,1/2-y,z
3/4-x,3/4+y,1/4+z
3/4+x,3/4-y,1/4+z
loop_
_atom_site_type_symbol
_atom_site_label
_atom_site_fract_x
_atom_site_fract_y
_atom_site_fract_z
Si Si1 0.104615 0.960444 0.913040
Si Si2 0.584192 0.647735 0.466378
Si Si3 0.606880 0.728329 0.725038
O O1 0.111148 0.957099 0.682881
O O2 0.076075 0.916829 0.034625
O O3 0.000000 0.000000 0.957314
O O4 0.253428 0.980369 0.980870
O O5 0.695298 0.622827 0.610832
O O6 0.543166 0.690178 0.593749
O O7 0.750000 0.750000 0.646971
#
# Coordination Sequence:
#
# PCOD9372663 Si02
#       3
#    16  16  16
#     4  11  25  45  79 103 142 204 266 318 392 491
#     4  12  28  46  72 114 161 201 261 344 414 468
#     4  11  24  47  76 105 147 205 265 316 393 491
#
# _framework density 24.082515999999998
#
# number of rings (size 3 to 8) (size 9 to 14) (size 15 to 20)
#    0.000    0.667    3.333    3.000    9.333    2.667 
#    0.000    0.000    0.000    0.000    0.000    0.000 
#    0.000    0.000    0.000    0.000    0.000    0.000 
#
# Total GULP energy -67015.601292 kJ/mol
# GULP energy per Si atom -5584.633441 kJ/mol
# Density = 2.402770 g / cm^3
# Si number density = 24.082516 Si / 1000 Ang^3
#
#
#
# Elastic Constant Matrix: (Units=GPa)
#
#
# Indices 1 2 3 4 5 6 
#
# 1 116.7675 27.5938 19.7056 0.0000 0.0000 0.0000
# 2 27.5938 87.5378 58.3338 0.0000 0.0000 0.0000
# 3 19.7056 58.3338 178.7381 0.0000 0.0000 0.0000
# 4 0.0000 0.0000 0.0000 0.8986 0.0000 0.0000
# 5 0.0000 0.0000 0.0000 0.0000 38.3721 0.0000
# 6 0.0000 0.0000 0.0000 0.0000 0.0000 42.8322
#
#
#
# Elastic Compliance Matrix: (Units=1/GPa)
#
#
# Indices 1 2 3 4 5 6 
#
# 1 0.009254 -0.002859 -0.000087 0.000000 0.000000 0.000000
# 2 -0.002859 0.015482 -0.004738 0.000000 0.000000 0.000000
# 3 -0.000087 -0.004738 0.007151 0.000000 0.000000 0.000000
# 4 0.000000 0.000000 0.000000 1.112855 0.000000 0.000000
# 5 0.000000 0.000000 0.000000 0.000000 0.026061 0.000000
# 6 0.000000 0.000000 0.000000 0.000000 0.000000 0.023347
#
#
# Mechanical properties :
#
#
# Convention : Reuss Voigt Hill
#
# Bulk Modulus (GPa) = 60.53548 66.03442 63.28495
# Shear Modulus (GPa) = 4.11515 34.91458 19.51486
#
# Velocity S-wave (km/s) = 1.30862 3.81174 2.84972
# Velocity P-wave (km/s) = 5.24162 6.84486 6.09617
#
# Compressibility (1/GPa) = 0.01651924
#
# Stress axis : x y z
#
# Youngs Moduli (GPa) = 108.05694 64.59151 139.84929
#
# Poissons Ratio (x) = 0.18467 0.01219
# Poissons Ratio (y) = 0.30894 0.66254
# Poissons Ratio (z) = 0.00942 0.30600
#
# Static dielectric constant tensor:
#      x y z
#    x 1.736580 0.000000 0.000000 
#    y 0.000000 1.880120 0.000000 
#    z 0.000000 0.000000 1.994480 
# 
# From -- ./inp_files/1712.got.cif
#   From: 2010.05.17/outbox.cif.g08.bks.cpg/sg43_1_cif.got.tgz:1712.got - 2010.06.03 19:21:55.
