data_PCOD9372752
_publ_section_title
;
Structure prediction by ZEFSAII (Michael W. Deem and Ramdas Pophale) SiO2 
 PCOD9372752
Probable space group: F D D 2
;
_chemical_formula_sum "Si O2"
_cell_formula_units_Z 104
_cell_length_a 18.582376
_cell_length_b 24.593703
_cell_length_c 8.440477
_cell_angle_alpha 90.000000
_cell_angle_beta 90.000000
_cell_angle_gamma 90.000000
_cell_volume 3857.377637
_symmetry_space_group_name_H-M "F D D 2"
_symmetry_group_IT_number 43
_symmetry_cell_setting 'orthorhombic'
loop_
_space_group_symop_operation_xyz
x,y,z
-x,-y,z
1/4-x,1/4+y,1/4+z
1/4+x,1/4-y,1/4+z
x,1/2+y,1/2+z
-x,1/2-y,1/2+z
1/4-x,3/4+y,3/4+z
1/4+x,3/4-y,3/4+z
1/2+x,y,1/2+z
1/2-x,-y,1/2+z
3/4-x,1/4+y,3/4+z
3/4+x,1/4-y,3/4+z
1/2+x,1/2+y,z
1/2-x,1/2-y,z
3/4-x,3/4+y,1/4+z
3/4+x,3/4-y,1/4+z
loop_
_atom_site_type_symbol
_atom_site_label
_atom_site_fract_x
_atom_site_fract_y
_atom_site_fract_z
Si Si1 0.038417 0.399539 0.700760
Si Si2 0.750000 0.250000 0.255449
Si Si3 0.899767 0.843585 0.080882
Si Si4 0.744950 0.330452 0.512022
Si Si5 0.359300 0.962260 0.836044
Si Si6 0.348602 0.246521 0.253984
Si Si7 0.346477 0.577819 0.459012
O O1 0.077077 0.343826 0.645363
O O2 0.054222 0.455531 0.601389
O O3 0.077849 0.411671 0.867884
O O4 0.955634 0.381503 0.674772
O O5 0.783558 0.290034 0.386829
O O6 0.809656 0.220545 0.152499
O O7 0.902527 0.782932 0.150995
O O8 0.916276 0.840915 0.894829
O O9 0.814658 0.857285 0.091425
O O10 0.694022 0.294322 0.632134
O O11 0.704001 0.373034 0.401294
O O12 0.360080 0.968359 0.646982
O O13 0.323552 0.017217 0.910124
#
# Coordination Sequence:
#
# PCOD9372752 Si02
#       7
#    16   8  16  16  16  16  16
#     4  11  28  51  78 122 162 207 279 349 419 499
#     4  12  22  46  86 108 152 216 276 324 428 516
#     4  12  26  47  78 119 153 212 273 336 416 493
#     4  12  24  50  80 113 157 223 274 338 421 522
#     4  11  26  49  77 120 157 211 271 348 417 501
#     4  11  27  49  76 112 162 213 267 332 417 508
#     4  11  26  51  79 114 166 214 275 346 425 508
#
# _framework density 26.961323
#
# number of rings (size 3 to 8) (size 9 to 14) (size 15 to 20)
#    0.000    0.615    4.615    0.923    4.308    6.154 
#    5.538    0.000    0.000    0.000    0.000    0.000 
#    0.000    0.000    0.000    0.000    0.000    0.000 
#
# Total GULP energy -145224.761344 kJ/mol
# GULP energy per Si atom -5585.567744 kJ/mol
# Density = 2.689996 g / cm^3
# Si number density = 26.961323 Si / 1000 Ang^3
#
#
#
# Elastic Constant Matrix: (Units=GPa)
#
#
# Indices 1 2 3 4 5 6 
#
# 1 110.7865 60.6465 21.6209 0.0001 -0.0001 0.0000
# 2 60.6465 219.2420 80.8212 0.0000 0.0000 0.0000
# 3 21.6209 80.8212 152.8700 0.0003 -0.0006 -0.0002
# 4 0.0001 0.0000 0.0003 56.3946 -0.0001 0.0000
# 5 -0.0001 0.0000 -0.0006 -0.0001 39.6424 0.0001
# 6 0.0000 0.0000 -0.0002 0.0000 0.0001 69.7606
#
#
#
# Elastic Compliance Matrix: (Units=1/GPa)
#
#
# Indices 1 2 3 4 5 6 
#
# 1 0.010638 -0.002966 0.000064 0.000000 0.000000 0.000000
# 2 -0.002966 0.006492 -0.003013 0.000000 0.000000 0.000000
# 3 0.000064 -0.003013 0.008125 0.000000 0.000000 0.000000
# 4 0.000000 0.000000 0.000000 0.017732 0.000000 0.000000
# 5 0.000000 0.000000 0.000000 0.000000 0.025226 0.000000
# 6 0.000000 0.000000 0.000000 0.000000 0.000000 0.014335
#
#
# Mechanical properties :
#
#
# Convention : Reuss Voigt Hill
#
# Bulk Modulus (GPa) = 74.48992 89.89729 82.19361
# Shear Modulus (GPa) = 50.57994 54.48017 52.53006
#
# Velocity S-wave (km/s) = 4.33600 4.50007 4.41880
# Velocity P-wave (km/s) = 7.26335 7.77279 7.52239
#
# Compressibility (1/GPa) = 0.01342464
#
# Stress axis : x y z
#
# Youngs Moduli (GPa) = 94.00612 154.02832 123.07043
#
# Poissons Ratio (x) = 0.45685 -0.00783
# Poissons Ratio (y) = 0.27882 0.37080
# Poissons Ratio (z) = -0.00598 0.46408
#
# Static dielectric constant tensor:
#      x y z
#    x 2.176050 0.000000 0.000000 
#    y 0.000000 2.299860 0.000000 
#    z 0.000000 0.000000 2.152670 
# 
# From -- ./inp_files/3824.got.cif
#   From: 2010.05.17/outbox.cif.g08.bks.cpg/sg43_2_cif.got.tgz:3824.got - 2010.06.03 19:21:55.
