data_PCOD9372948
_publ_section_title
;
Structure prediction by ZEFSAII (Michael W. Deem and Ramdas Pophale) SiO2 
 PCOD9372948
Probable space group: F D D 2
;
_chemical_formula_sum "Si O2"
_cell_formula_units_Z 96
_cell_length_a 16.983392
_cell_length_b 27.148028
_cell_length_c 6.878995
_cell_angle_alpha 90.000000
_cell_angle_beta 90.000000
_cell_angle_gamma 90.000000
_cell_volume 3171.667968
_symmetry_space_group_name_H-M "F D D 2"
_symmetry_group_IT_number 43
_symmetry_cell_setting 'orthorhombic'
loop_
_space_group_symop_operation_xyz
x,y,z
-x,-y,z
1/4-x,1/4+y,1/4+z
1/4+x,1/4-y,1/4+z
x,1/2+y,1/2+z
-x,1/2-y,1/2+z
1/4-x,3/4+y,3/4+z
1/4+x,3/4-y,3/4+z
1/2+x,y,1/2+z
1/2-x,-y,1/2+z
3/4-x,1/4+y,3/4+z
3/4+x,1/4-y,3/4+z
1/2+x,1/2+y,z
1/2-x,1/2-y,z
3/4-x,3/4+y,1/4+z
3/4+x,3/4-y,1/4+z
loop_
_atom_site_type_symbol
_atom_site_label
_atom_site_fract_x
_atom_site_fract_y
_atom_site_fract_z
Si Si1 0.195302 0.626110 0.910290
Si Si2 0.803754 0.036300 0.968298
Si Si3 0.555447 0.055928 0.839315
Si Si4 0.855780 0.697509 0.126850
Si Si5 0.154286 0.465525 0.915873
Si Si6 0.743478 0.124450 0.495203
O O1 0.117242 0.594737 0.927805
O O2 0.193670 0.640404 0.685247
O O3 0.267681 0.587536 0.905484
O O4 0.221774 0.665360 0.072812
O O5 0.864747 0.003357 0.845625
O O6 0.836050 0.043556 0.184007
O O7 0.727221 0.001225 0.976431
O O8 0.575814 0.052172 0.603434
O O9 0.580236 0.003039 0.923315
O O10 0.788746 0.677130 0.983504
O O11 0.931290 0.659925 0.126257
O O12 0.182998 0.414421 0.013442
#
# Coordination Sequence:
#
# PCOD9372948 Si02
#       6
#    16  16  16  16  16  16
#     4   9  16  29  48  72  97 130 171 216 261 316
#     4   9  16  28  46  72  97 127 171 214 258 313
#     4   8  15  27  47  70  97 129 170 211 260 315
#     4   8  15  27  47  70  97 131 170 214 260 315
#     4   9  16  28  46  71  98 130 169 214 258 313
#     4   9  16  29  48  71  98 131 169 213 261 316
#
# _framework density 30.267986000000001
#
# number of rings (size 3 to 8) (size 9 to 14) (size 15 to 20)
#    0.000    3.333    0.000    3.000    0.000    0.000 
#    0.000    8.333    0.000   25.000    0.000    9.333 
#    0.000    0.000    0.000    0.000    0.000   22.833 
#
# Total GULP energy -134104.956436 kJ/mol
# GULP energy per Si atom -5587.706518 kJ/mol
# Density = 3.019909 g / cm^3
# Si number density = 30.267986 Si / 1000 Ang^3
#
#
#
# Elastic Constant Matrix: (Units=GPa)
#
#
# Indices 1 2 3 4 5 6 
#
# 1 79.5793 7.6465 17.1033 -0.0001 0.0004 0.0000
# 2 7.6465 178.9403 -3.7700 0.0001 0.0000 0.0000
# 3 17.1033 -3.7700 85.7023 -0.0004 0.0010 -0.0001
# 4 -0.0001 0.0001 -0.0004 29.1382 0.0000 0.0000
# 5 0.0004 0.0000 0.0010 0.0000 85.6430 0.0000
# 6 0.0000 0.0000 -0.0001 0.0000 0.0000 64.2305
#
#
#
# Elastic Compliance Matrix: (Units=1/GPa)
#
#
# Indices 1 2 3 4 5 6 
#
# 1 0.013198 -0.000620 -0.002661 0.000000 0.000000 0.000000
# 2 -0.000620 0.005623 0.000371 0.000000 0.000000 0.000000
# 3 -0.002661 0.000371 0.012216 0.000000 0.000000 0.000000
# 4 0.000000 0.000000 0.000000 0.034319 0.000000 0.000000
# 5 0.000000 0.000000 0.000000 0.000000 0.011676 0.000000
# 6 0.000000 0.000000 0.000000 0.000000 0.000000 0.015569
#
#
# Mechanical properties :
#
#
# Convention : Reuss Voigt Hill
#
# Bulk Modulus (GPa) = 39.65736 42.90906 41.28321
# Shear Modulus (GPa) = 46.80509 57.35179 52.07844
#
# Velocity S-wave (km/s) = 3.93664 4.35765 4.15249
# Velocity P-wave (km/s) = 5.81321 6.28697 6.05472
#
# Compressibility (1/GPa) = 0.02521600
#
# Stress axis : x y z
#
# Youngs Moduli (GPa) = 75.77144 177.84834 81.86193
#
# Poissons Ratio (x) = 0.11027 0.21784
# Poissons Ratio (y) = 0.04698 -0.03038
# Poissons Ratio (z) = 0.20163 -0.06600
#
# Static dielectric constant tensor:
#      x y z
#    x 2.375800 0.000000 0.000000 
#    y 0.000000 2.674120 0.000000 
#    z 0.000000 0.000000 2.446880 
# 
# From -- ./inp_files/3314.got.cif
#   From: 2010.05.17/outbox.cif.g08.bks.cpg/sg43_2_cif.got.tgz:3314.got - 2010.06.03 19:21:55.
