data_PCOD9372333
_publ_section_title
;
Structure prediction by ZEFSAII (Michael W. Deem and Ramdas Pophale) SiO2 
 PCOD9372333
Probable space group: F D D 2
;
_chemical_formula_sum "Si O2"
_cell_formula_units_Z 80
_cell_length_a 25.311563
_cell_length_b 16.233020
_cell_length_c 8.025960
_cell_angle_alpha 90.000000
_cell_angle_beta 90.000000
_cell_angle_gamma 90.000000
_cell_volume 3297.731393
_symmetry_space_group_name_H-M "F D D 2"
_symmetry_group_IT_number 43
_symmetry_cell_setting 'orthorhombic'
loop_
_space_group_symop_operation_xyz
x,y,z
-x,-y,z
1/4-x,1/4+y,1/4+z
1/4+x,1/4-y,1/4+z
x,1/2+y,1/2+z
-x,1/2-y,1/2+z
1/4-x,3/4+y,3/4+z
1/4+x,3/4-y,3/4+z
1/2+x,y,1/2+z
1/2-x,-y,1/2+z
3/4-x,1/4+y,3/4+z
3/4+x,1/4-y,3/4+z
1/2+x,1/2+y,z
1/2-x,1/2-y,z
3/4-x,3/4+y,1/4+z
3/4+x,3/4-y,1/4+z
loop_
_atom_site_type_symbol
_atom_site_label
_atom_site_fract_x
_atom_site_fract_y
_atom_site_fract_z
Si Si1 0.783069 0.922707 0.551900
Si Si2 0.716415 0.081695 0.455207
Si Si3 0.500000 0.000000 0.388789
Si Si4 0.636709 0.247828 0.282762
Si Si5 0.750000 0.750000 0.590426
Si Si6 0.396489 0.429396 0.887781
O O1 0.783940 0.916369 0.753735
O O2 0.841676 0.937493 0.479072
O O3 0.758744 0.836489 0.497904
O O4 0.748952 0.002262 0.508683
O O5 0.737595 0.167221 0.529483
O O6 0.655202 0.068181 0.500967
O O7 0.447430 0.966148 0.478118
O O8 0.693532 0.256465 0.193485
O O9 0.607185 0.159056 0.292042
O O10 0.643783 0.261695 0.478766
#
# Coordination Sequence:
#
# PCOD9372333 Si02
#       6
#    16  16   8  16   8  16
#     4  11  24  41  68  96 133 167 221 269 328 382
#     4  11  23  40  67 100 127 171 220 271 320 390
#     4  12  21  40  71  94 131 178 227 260 309 404
#     4  11  20  36  67  98 119 170 230 260 305 388
#     4  12  23  42  67  96 131 174 223 270 315 394
#     4  11  20  35  64  99 123 161 229 267 310 373
#
# _framework density 24.259101999999999
#
# number of rings (size 3 to 8) (size 9 to 14) (size 15 to 20)
#    0.000    0.800    8.000    2.400    0.000    0.000 
#    0.000    5.000    0.000    0.000    0.000    0.000 
#    0.000    0.000    0.000    0.000    0.000    0.000 
#
# Total GULP energy -111559.398456 kJ/mol
# GULP energy per Si atom -5577.969923 kJ/mol
# Density = 2.420389 g / cm^3
# Si number density = 24.259102 Si / 1000 Ang^3
#
#
#
# Elastic Constant Matrix: (Units=GPa)
#
#
# Indices 1 2 3 4 5 6 
#
# 1 221.4675 113.5033 27.9989 0.0000 0.0000 0.0000
# 2 113.5033 192.4770 17.3320 0.0000 0.0000 0.0000
# 3 27.9989 17.3320 30.7958 0.0001 0.0000 0.0000
# 4 0.0000 0.0000 0.0001 29.4659 0.0000 0.0000
# 5 0.0000 0.0000 0.0000 0.0000 19.0096 0.0000
# 6 0.0000 0.0000 0.0000 0.0000 0.0000 58.4022
#
#
#
# Elastic Compliance Matrix: (Units=1/GPa)
#
#
# Indices 1 2 3 4 5 6 
#
# 1 0.006958 -0.003722 -0.004231 0.000000 0.000000 0.000000
# 2 -0.003722 0.007464 -0.000817 0.000000 0.000000 0.000000
# 3 -0.004231 -0.000817 0.036778 0.000000 0.000000 0.000000
# 4 0.000000 0.000000 0.000000 0.033938 0.000000 0.000000
# 5 0.000000 0.000000 0.000000 0.000000 0.052605 0.000000
# 6 0.000000 0.000000 0.000000 0.000000 0.000000 0.017123
#
#
# Mechanical properties :
#
#
# Convention : Reuss Voigt Hill
#
# Bulk Modulus (GPa) = 29.70853 84.71208 57.21031
# Shear Modulus (GPa) = 27.22943 40.43596 33.83269
#
# Velocity S-wave (km/s) = 3.35392 4.08712 3.73854
# Velocity P-wave (km/s) = 5.22219 7.56758 6.50152
#
# Compressibility (1/GPa) = 0.03366036
#
# Stress axis : x y z
#
# Youngs Moduli (GPa) = 143.72372 133.97958 27.18988
#
# Poissons Ratio (x) = 0.49867 0.11504
# Poissons Ratio (y) = 0.53494 0.02221
# Poissons Ratio (z) = 0.60811 0.10942
#
# Static dielectric constant tensor:
#      x y z
#    x 2.108940 0.000000 0.000000 
#    y 0.000000 1.961460 0.000000 
#    z 0.000000 0.000000 1.992570 
# 
# From -- ./inp_files/6116.got.cif
#   From: 2010.05.17/outbox.cif.g08.bks.cpg/sg43_4_cif.got.tgz:6116.got - 2010.06.03 19:21:55.
