data_PCOD9372351
_publ_section_title
;
Structure prediction by ZEFSAII (Michael W. Deem and Ramdas Pophale) SiO2 
 PCOD9372351
Probable space group: F D D 2
;
_chemical_formula_sum "Si O2"
_cell_formula_units_Z 96
_cell_length_a 9.516179
_cell_length_b 28.445572
_cell_length_c 18.689377
_cell_angle_alpha 90.000000
_cell_angle_beta 90.000000
_cell_angle_gamma 90.000000
_cell_volume 5059.086423
_symmetry_space_group_name_H-M "F D D 2"
_symmetry_group_IT_number 43
_symmetry_cell_setting 'orthorhombic'
loop_
_space_group_symop_operation_xyz
x,y,z
-x,-y,z
1/4-x,1/4+y,1/4+z
1/4+x,1/4-y,1/4+z
x,1/2+y,1/2+z
-x,1/2-y,1/2+z
1/4-x,3/4+y,3/4+z
1/4+x,3/4-y,3/4+z
1/2+x,y,1/2+z
1/2-x,-y,1/2+z
3/4-x,1/4+y,3/4+z
3/4+x,1/4-y,3/4+z
1/2+x,1/2+y,z
1/2-x,1/2-y,z
3/4-x,3/4+y,1/4+z
3/4+x,3/4-y,1/4+z
loop_
_atom_site_type_symbol
_atom_site_label
_atom_site_fract_x
_atom_site_fract_y
_atom_site_fract_z
Si Si1 0.350230 0.022113 0.183360
Si Si2 0.610507 0.771631 0.173828
Si Si3 0.217362 0.876020 0.686405
Si Si4 0.512635 0.372666 0.102253
Si Si5 0.149083 0.021827 0.321806
Si Si6 0.389477 0.775877 0.832238
O O1 0.352490 0.076379 0.157205
O O2 0.246977 0.021836 0.251669
O O3 0.500000 0.000000 0.200700
O O4 0.276028 0.991304 0.122742
O O5 0.750000 0.750000 0.137656
O O6 0.641989 0.826782 0.172518
O O7 0.473123 0.760599 0.130131
O O8 0.601743 0.743700 0.250228
O O9 0.380313 0.874681 0.657527
O O10 0.203156 0.879315 0.771934
O O11 0.599469 0.324175 0.106364
O O12 0.607708 0.419507 0.098009
O O13 0.000000 0.000000 0.303485
O O14 0.250000 0.750000 0.861608
#
# Coordination Sequence:
#
# PCOD9372351 Si02
#       6
#    16  16  16  16  16  16
#     4  11  25  40  61  93 127 163 207 264 316 373
#     4  11  20  40  65  91 118 165 211 256 307 377
#     4  11  21  37  66  92 122 167 208 255 320 382
#     4  11  21  37  66  92 122 167 208 255 320 382
#     4  11  25  40  61  93 127 163 207 264 316 373
#     4  11  20  40  65  91 118 165 211 256 307 377
#
# _framework density 18.975757000000002
#
# number of rings (size 3 to 8) (size 9 to 14) (size 15 to 20)
#    0.000    1.000    6.667    1.000    4.667    2.000 
#    0.000    0.000    0.000    0.000    0.000    0.000 
#    0.000    0.000    0.000    0.000    0.000    0.000 
#
# Total GULP energy -133735.150235 kJ/mol
# GULP energy per Si atom -5572.297926 kJ/mol
# Density = 1.893257 g / cm^3
# Si number density = 18.975757 Si / 1000 Ang^3
#
#
#
# Elastic Constant Matrix: (Units=GPa)
#
#
# Indices 1 2 3 4 5 6 
#
# 1 96.6570 48.8415 24.3513 0.0000 0.0000 0.0000
# 2 48.8415 156.6405 -5.3638 0.0000 0.0000 0.0000
# 3 24.3513 -5.3638 42.9012 0.0000 0.0000 0.0000
# 4 0.0000 0.0000 0.0000 6.8455 0.0000 0.0000
# 5 0.0000 0.0000 0.0000 0.0000 24.9223 0.0000
# 6 0.0000 0.0000 0.0000 0.0000 0.0000 17.4610
#
#
#
# Elastic Compliance Matrix: (Units=1/GPa)
#
#
# Indices 1 2 3 4 5 6 
#
# 1 0.015250 -0.005073 -0.009290 0.000000 0.000000 0.000000
# 2 -0.005073 0.008099 0.003892 0.000000 0.000000 0.000000
# 3 -0.009290 0.003892 0.029069 0.000000 0.000000 0.000000
# 4 0.000000 0.000000 0.000000 0.146082 0.000000 0.000000
# 5 0.000000 0.000000 0.000000 0.000000 0.040125 0.000000
# 6 0.000000 0.000000 0.000000 0.000000 0.000000 0.057271
#
#
# Mechanical properties :
#
#
# Convention : Reuss Voigt Hill
#
# Bulk Modulus (GPa) = 31.77039 47.98407 39.87723
# Shear Modulus (GPa) = 15.27509 25.07039 20.17274
#
# Velocity S-wave (km/s) = 2.84029 3.63875 3.26403
# Velocity P-wave (km/s) = 5.24741 6.55713 5.93849
#
# Compressibility (1/GPa) = 0.03147585
#
# Stress axis : x y z
#
# Youngs Moduli (GPa) = 65.57402 123.46945 34.40049
#
# Poissons Ratio (x) = 0.62638 0.31959
# Poissons Ratio (y) = 0.33267 -0.13389
# Poissons Ratio (z) = 0.60921 -0.48057
#
# Static dielectric constant tensor:
#      x y z
#    x 1.649320 0.000000 0.000000 
#    y 0.000000 1.759080 0.000000 
#    z 0.000000 0.000000 1.697430 
# 
# From -- ./inp_files/3281.got.cif
#   From: 2010.05.17/outbox.cif.g08.bks.cpg/sg43_2_cif.got.tgz:3281.got - 2010.06.03 19:21:55.
