data_PCOD9372024
_publ_section_title
;
Structure prediction by ZEFSAII (Michael W. Deem and Ramdas Pophale) SiO2 
 PCOD9372024
Probable space group: F D D 2
;
_chemical_formula_sum "Si O2"
_cell_formula_units_Z 56
_cell_length_a 22.032815
_cell_length_b 6.536011
_cell_length_c 17.133764
_cell_angle_alpha 90.000000
_cell_angle_beta 90.000000
_cell_angle_gamma 90.000000
_cell_volume 2467.377175
_symmetry_space_group_name_H-M "F D D 2"
_symmetry_group_IT_number 43
_symmetry_cell_setting 'orthorhombic'
loop_
_space_group_symop_operation_xyz
x,y,z
-x,-y,z
1/4-x,1/4+y,1/4+z
1/4+x,1/4-y,1/4+z
x,1/2+y,1/2+z
-x,1/2-y,1/2+z
1/4-x,3/4+y,3/4+z
1/4+x,3/4-y,3/4+z
1/2+x,y,1/2+z
1/2-x,-y,1/2+z
3/4-x,1/4+y,3/4+z
3/4+x,1/4-y,3/4+z
1/2+x,1/2+y,z
1/2-x,1/2-y,z
3/4-x,3/4+y,1/4+z
3/4+x,3/4-y,1/4+z
loop_
_atom_site_type_symbol
_atom_site_label
_atom_site_fract_x
_atom_site_fract_y
_atom_site_fract_z
Si Si1 0.924742 0.670345 0.731870
Si Si2 0.000000 0.000000 0.997264
Si Si3 0.787682 0.514751 0.392629
Si Si4 0.597052 0.757646 0.903520
O O1 0.928606 0.464601 0.680154
O O2 0.927907 0.643758 0.824227
O O3 0.986265 0.782577 0.705474
O O4 0.867088 0.808032 0.709829
O O5 0.001683 0.183455 0.062227
O O6 0.053651 0.085005 0.941892
O O7 0.840169 0.353910 0.382026
#
# Coordination Sequence:
#
# PCOD9372024 Si02
#       4
#    16   8  16  16
#     4  10  25  42  69  97 134 183 224 276 344 402
#     4  10  24  42  66 100 136 172 226 286 330 400
#     4  10  25  49  64 100 142 175 234 286 326 423
#     4  12  23  45  69 100 136 185 221 281 348 408
#
# _framework density 22.696166999999999
#
# number of rings (size 3 to 8) (size 9 to 14) (size 15 to 20)
#    0.000    1.714    2.857    0.857   12.000    0.000 
#    5.143    0.000    0.000    0.000    0.000    0.000 
#    0.000    0.000    0.000    0.000    0.000    0.000 
#
# Total GULP energy -77957.414762 kJ/mol
# GULP energy per Si atom -5568.386769 kJ/mol
# Density = 2.264451 g / cm^3
# Si number density = 22.696167 Si / 1000 Ang^3
#
#
#
# Elastic Constant Matrix: (Units=GPa)
#
#
# Indices 1 2 3 4 5 6 
#
# 1 77.7695 21.6554 36.3994 0.0000 0.0000 0.0000
# 2 21.6554 83.5378 14.4130 0.0000 0.0000 0.0001
# 3 36.3994 14.4130 137.0401 0.0000 0.0000 0.0000
# 4 0.0000 0.0000 0.0000 -16.1724 0.0000 0.0000
# 5 0.0000 0.0000 0.0000 0.0000 30.7511 0.0000
# 6 0.0000 0.0001 0.0000 0.0000 0.0000 38.6176
#
#
#
# Elastic Compliance Matrix: (Units=1/GPa)
#
#
# Indices 1 2 3 4 5 6 
#
# 1 0.015570 -0.003384 -0.003780 0.000000 0.000000 0.000000
# 2 -0.003384 0.012927 -0.000461 0.000000 0.000000 0.000000
# 3 -0.003780 -0.000461 0.008350 0.000000 0.000000 0.000000
# 4 0.000000 0.000000 0.000000 -0.061834 0.000000 0.000000
# 5 0.000000 0.000000 0.000000 0.000000 0.032519 0.000000
# 6 0.000000 0.000000 0.000000 0.000000 0.000000 0.025895
#
#
# Mechanical properties :
#
#
# Convention : Reuss Voigt Hill
#
# Bulk Modulus (GPa) = 46.30094 49.25369 47.77731
# Shear Modulus (GPa) = 89.48542 25.69791 57.59166
#
# Velocity S-wave (km/s) = 6.28595 3.36855 5.04283
# Velocity P-wave (km/s) = 8.55154 6.07272 7.41643
#
# Compressibility (1/GPa) = 0.02159784
#
# Stress axis : x y z
#
# Youngs Moduli (GPa) = 64.22670 77.35529 119.76754
#
# Poissons Ratio (x) = 0.26177 0.45268
# Poissons Ratio (y) = 0.21735 0.05519
# Poissons Ratio (z) = 0.24275 0.03564
#
# Static dielectric constant tensor:
#      x y z
#    x 1.841710 0.000000 0.000000 
#    y 0.000000 1.976280 0.000000 
#    z 0.000000 0.000000 1.846050 
# 
# From -- ./inp_files/8899.got.cif
#   From: 2010.05.17/outbox.cif.g08.bks.cpg/sg43_5_cif.got.tgz:8899.got - 2010.06.03 19:21:55.
