data_PCOD9372679
_publ_section_title
;
Structure prediction by ZEFSAII (Michael W. Deem and Ramdas Pophale) SiO2 
 PCOD9372679
Probable space group: F D D 2
;
_chemical_formula_sum "Si O2"
_cell_formula_units_Z 80
_cell_length_a 27.577164
_cell_length_b 15.472635
_cell_length_c 7.062414
_cell_angle_alpha 90.000000
_cell_angle_beta 90.000000
_cell_angle_gamma 90.000000
_cell_volume 3013.471267
_symmetry_space_group_name_H-M "F D D 2"
_symmetry_group_IT_number 43
_symmetry_cell_setting 'orthorhombic'
loop_
_space_group_symop_operation_xyz
x,y,z
-x,-y,z
1/4-x,1/4+y,1/4+z
1/4+x,1/4-y,1/4+z
x,1/2+y,1/2+z
-x,1/2-y,1/2+z
1/4-x,3/4+y,3/4+z
1/4+x,3/4-y,3/4+z
1/2+x,y,1/2+z
1/2-x,-y,1/2+z
3/4-x,1/4+y,3/4+z
3/4+x,1/4-y,3/4+z
1/2+x,1/2+y,z
1/2-x,1/2-y,z
3/4-x,3/4+y,1/4+z
3/4+x,3/4-y,1/4+z
loop_
_atom_site_type_symbol
_atom_site_label
_atom_site_fract_x
_atom_site_fract_y
_atom_site_fract_z
Si Si1 0.943421 0.006714 0.250000
Si Si2 0.601717 0.315397 0.597313
Si Si3 0.596418 0.671927 0.423602
Si Si4 0.192571 0.933367 0.555969
Si Si5 0.281499 0.824189 0.582387
O O1 0.918997 0.416837 0.820884
O O2 0.898338 0.073474 0.286373
O O3 0.951461 0.034732 0.030615
O O4 0.000000 0.000000 0.316819
O O5 0.577999 0.262868 0.424481
O O6 0.655708 0.352083 0.573755
O O7 0.571412 0.394001 0.687189
O O8 0.599975 0.244201 0.764316
O O9 0.557369 0.698507 0.581549
O O10 0.244771 0.902599 0.624057
O O11 0.250000 0.750000 0.485806
#
# Coordination Sequence:
#
# PCOD9372679 Si02
#       5
#    16  16  16  16  16
#     4  11  24  48  80 115 165 218 276 347 424 502
#     4  12  25  47  77 106 162 204 264 348 397 498
#     4  12  26  48  80 115 162 216 279 346 425 500
#     4  12  28  48  75 118 154 214 277 334 416 497
#     4  11  25  47  77 110 159 212 271 331 419 491
#
# _framework density 26.547457000000001
#
# number of rings (size 3 to 8) (size 9 to 14) (size 15 to 20)
#    0.000    0.400    0.000   10.800    2.800    2.400 
#    3.600    0.000    0.000    0.000    0.000    0.000 
#    0.000    0.000    0.000    0.000    0.000    0.000 
#
# Total GULP energy -111926.491659 kJ/mol
# GULP energy per Si atom -5596.324583 kJ/mol
# Density = 2.648703 g / cm^3
# Si number density = 26.547457 Si / 1000 Ang^3
#
#
#
# Elastic Constant Matrix: (Units=GPa)
#
#
# Indices 1 2 3 4 5 6 
#
# 1 150.9581 55.6444 20.0102 0.0000 0.0000 0.0000
# 2 55.6444 97.0819 48.4509 0.0000 0.0000 0.0000
# 3 20.0102 48.4509 151.0152 0.0000 0.0000 0.0000
# 4 0.0000 0.0000 0.0000 44.4483 0.0000 0.0000
# 5 0.0000 0.0000 0.0000 0.0000 30.7323 0.0000
# 6 0.0000 0.0000 0.0000 0.0000 0.0000 60.6768
#
#
#
# Elastic Compliance Matrix: (Units=1/GPa)
#
#
# Indices 1 2 3 4 5 6 
#
# 1 0.008432 -0.005091 0.000516 0.000000 0.000000 0.000000
# 2 -0.005091 0.015338 -0.004246 0.000000 0.000000 0.000000
# 3 0.000516 -0.004246 0.007916 0.000000 0.000000 0.000000
# 4 0.000000 0.000000 0.000000 0.022498 0.000000 0.000000
# 5 0.000000 0.000000 0.000000 0.000000 0.032539 0.000000
# 6 0.000000 0.000000 0.000000 0.000000 0.000000 0.016481
#
#
# Mechanical properties :
#
#
# Convention : Reuss Voigt Hill
#
# Bulk Modulus (GPa) = 71.20592 71.91847 71.56219
# Shear Modulus (GPa) = 39.83201 45.50146 42.66673
#
# Velocity S-wave (km/s) = 3.87771 4.14450 4.01332
# Velocity P-wave (km/s) = 6.85049 7.07473 6.96351
#
# Compressibility (1/GPa) = 0.01404378
#
# Stress axis : x y z
#
# Youngs Moduli (GPa) = 118.58962 65.19907 126.32886
#
# Poissons Ratio (x) = 0.33191 -0.06518
# Poissons Ratio (y) = 0.60371 0.53643
# Poissons Ratio (z) = -0.06119 0.27686
#
# Static dielectric constant tensor:
#      x y z
#    x 2.193420 0.000000 0.000000 
#    y 0.000000 2.081780 0.000000 
#    z 0.000000 0.000000 2.115410 
# 
# From -- ./inp_files/4656.got.cif
#   From: 2010.05.17/outbox.cif.g08.bks.cpg/sg43_3_cif.got.tgz:4656.got - 2010.06.03 19:21:55.
