data_PCOD9372854
_publ_section_title
;
Structure prediction by ZEFSAII (Michael W. Deem and Ramdas Pophale) SiO2 
 PCOD9372854
Probable space group: F D D 2
;
_chemical_formula_sum "Si O2"
_cell_formula_units_Z 112
_cell_length_a 28.678850
_cell_length_b 5.802623
_cell_length_c 28.421814
_cell_angle_alpha 90.000000
_cell_angle_beta 90.000000
_cell_angle_gamma 90.000000
_cell_volume 4729.746675
_symmetry_space_group_name_H-M "F D D 2"
_symmetry_group_IT_number 43
_symmetry_cell_setting 'orthorhombic'
loop_
_space_group_symop_operation_xyz
x,y,z
-x,-y,z
1/4-x,1/4+y,1/4+z
1/4+x,1/4-y,1/4+z
x,1/2+y,1/2+z
-x,1/2-y,1/2+z
1/4-x,3/4+y,3/4+z
1/4+x,3/4-y,3/4+z
1/2+x,y,1/2+z
1/2-x,-y,1/2+z
3/4-x,1/4+y,3/4+z
3/4+x,1/4-y,3/4+z
1/2+x,1/2+y,z
1/2-x,1/2-y,z
3/4-x,3/4+y,1/4+z
3/4+x,3/4-y,1/4+z
loop_
_atom_site_type_symbol
_atom_site_label
_atom_site_fract_x
_atom_site_fract_y
_atom_site_fract_z
Si Si1 0.301143 0.942852 0.436520
Si Si2 0.128485 0.458267 0.718113
Si Si3 0.864863 0.898128 0.648470
Si Si4 0.224243 0.496874 0.205154
Si Si5 0.675331 0.797464 0.288996
Si Si6 0.846729 0.099549 0.552193
Si Si7 0.250000 0.250000 0.024496
Si Si8 0.000000 0.500000 0.615882
O O1 0.334928 0.742818 0.416196
O O2 0.276225 0.907066 0.486367
O O3 0.336826 0.140639 0.449561
O O4 0.264317 0.035507 0.398662
O O5 0.146566 0.349639 0.670053
O O6 0.162741 0.601724 0.751224
O O7 0.108950 0.257588 0.751728
O O8 0.821682 0.031420 0.672433
O O9 0.862112 0.927941 0.593144
O O10 0.250000 0.250000 0.198447
O O11 0.205554 0.484516 0.259291
O O12 0.250000 0.750000 0.198323
O O13 0.705857 0.708553 0.332123
O O14 0.627944 0.920503 0.305934
O O15 0.791545 0.141404 0.554337
#
# Coordination Sequence:
#
# PCOD9372854 Si02
#       8
#    16  16  16  16  16  16   8   8
#     4  12  26  49  78 109 156 204 273 342 425 495
#     4  12  24  51  76 108 160 216 259 343 431 489
#     4  12  27  48  75 111 156 211 272 340 419 503
#     4  12  26  49  76 111 156 211 264 335 417 498
#     4  12  25  48  76 114 159 209 264 347 419 502
#     4  12  27  47  78 111 157 211 272 342 420 511
#     4  12  24  54  75 110 158 214 271 348 432 510
#     4  12  28  44  79 120 150 210 281 346 402 522
#
# _framework density 23.679915000000001
#
# number of rings (size 3 to 8) (size 9 to 14) (size 15 to 20)
#    0.000    0.000    7.857    1.714    3.000    0.000 
#    3.857    0.000    0.000    0.000    0.000    0.000 
#    0.000    0.000    0.000    0.000    0.000    0.000 
#
# Total GULP energy -156530.712417 kJ/mol
# GULP energy per Si atom -5590.382586 kJ/mol
# Density = 2.362602 g / cm^3
# Si number density = 23.679915 Si / 1000 Ang^3
#
#
#
# Elastic Constant Matrix: (Units=GPa)
#
#
# Indices 1 2 3 4 5 6 
#
# 1 119.1293 45.9097 14.8796 0.0027 -0.0013 -0.0020
# 2 45.9097 106.1999 20.5362 0.0089 -0.0013 -0.0048
# 3 14.8796 20.5362 113.1172 0.0002 -0.0008 0.0051
# 4 0.0027 0.0089 0.0002 45.9158 0.0004 0.0022
# 5 -0.0013 -0.0013 -0.0008 0.0004 45.9320 0.0027
# 6 -0.0020 -0.0048 0.0051 0.0022 0.0027 47.8775
#
#
#
# Elastic Compliance Matrix: (Units=1/GPa)
#
#
# Indices 1 2 3 4 5 6 
#
# 1 0.010106 -0.004261 -0.000556 0.000000 0.000000 0.000000
# 2 -0.004261 0.011556 -0.001537 -0.000002 0.000000 0.000001
# 3 -0.000556 -0.001537 0.009193 0.000000 0.000000 -0.000001
# 4 0.000000 -0.000002 0.000000 0.021779 0.000000 -0.000001
# 5 0.000000 0.000000 0.000000 0.000000 0.021771 -0.000001
# 6 0.000000 0.000001 -0.000001 -0.000001 -0.000001 0.020887
#
#
# Mechanical properties :
#
#
# Convention : Reuss Voigt Hill
#
# Bulk Modulus (GPa) = 55.11045 55.67750 55.39398
# Shear Modulus (GPa) = 43.84115 45.08646 44.46380
#
# Velocity S-wave (km/s) = 4.30747 4.36821 4.33795
# Velocity P-wave (km/s) = 6.93272 7.00038 6.96663
#
# Compressibility (1/GPa) = 0.01814538
#
# Stress axis : x y z
#
# Youngs Moduli (GPa) = 98.95273 86.53806 108.78318
#
# Poissons Ratio (x) = 0.36876 0.06045
# Poissons Ratio (y) = 0.42166 0.16724
# Poissons Ratio (z) = 0.05499 0.13304
#
# Static dielectric constant tensor:
#      x y z
#    x 1.957980 -0.000010 0.000000 
#    y -0.000010 1.914210 -0.000010 
#    z 0.000000 -0.000010 1.860230 
# 
# From -- ./inp_files/30054.got.cif
#   From: 2010.05.17/outbox.cif.g08.bks.cpg/sg43_16_cif.got.tgz:30054.got - 2010.06.03 19:21:55.
