data_PCOD9372981
_publ_section_title
;
Structure prediction by ZEFSAII (Michael W. Deem and Ramdas Pophale) SiO2 
 PCOD9372981
Probable space group: F D D 2
;
_chemical_formula_sum "Si O2"
_cell_formula_units_Z 30
_cell_length_a 12.000000
_cell_length_b 24.000000
_cell_length_c 21.000000
_cell_angle_alpha 90.000000
_cell_angle_beta 90.000000
_cell_angle_gamma 90.000000
_cell_volume 6048.000000
_symmetry_space_group_name_H-M "F D D 2"
_symmetry_group_IT_number 43
_symmetry_cell_setting 'orthorhombic'
loop_
_space_group_symop_operation_xyz
x,y,z
-x,-y,z
1/4-x,1/4+y,1/4+z
1/4+x,1/4-y,1/4+z
x,1/2+y,1/2+z
-x,1/2-y,1/2+z
1/4-x,3/4+y,3/4+z
1/4+x,3/4-y,3/4+z
1/2+x,y,1/2+z
1/2-x,-y,1/2+z
3/4-x,1/4+y,3/4+z
3/4+x,1/4-y,3/4+z
1/2+x,1/2+y,z
1/2-x,1/2-y,z
3/4-x,3/4+y,1/4+z
3/4+x,3/4-y,1/4+z
loop_
_atom_site_type_symbol
_atom_site_label
_atom_site_fract_x
_atom_site_fract_y
_atom_site_fract_z
Si Si1 0.465407 0.905382 0.901450
Si Si2 0.625063 0.228209 0.683379
Si Si3 0.375961 0.374486 0.265213
Si Si4 0.674634 0.479858 0.377842
Si Si5 0.350210 0.707358 0.901076
Si Si6 0.750985 0.458680 0.228299
Si Si7 0.383431 0.351964 0.064881
Si Si8 0.500000 0.500000 0.751017
O O1 0.431891 0.879649 0.833578
O O2 0.587178 0.932215 0.895162
O O3 0.470066 0.855037 0.954288
O O4 0.384139 0.961142 0.900645
O O5 0.750000 0.250000 0.676499
O O6 0.615718 0.189734 0.744679
O O7 0.535802 0.276048 0.670461
O O8 0.594238 0.185031 0.627323
O O9 0.427857 0.416274 0.211861
O O10 0.245186 0.390902 0.272946
O O11 0.707299 0.472853 0.301736
O O12 0.250000 0.750000 0.883319
O O13 0.441679 0.748860 0.929761
O O14 0.387398 0.664295 0.844756
O O15 0.882336 0.475334 0.224071
O O16 0.295146 0.309174 0.032608
#
# Coordination Sequence:
#
# PCOD9372981 Si02
#       8
#    16  16  16  16  16  16  16   8
#     4  11  24  41  68 102 131 176 231 282 340 405
#     4  11  22  39  66  95 134 176 217 279 345 400
#     4  11  22  38  65 101 130 167 227 282 330 402
#     4  11  23  45  68  98 134 177 227 280 341 412
#     4  11  22  37  69  98 130 169 225 287 335 393
#     4  12  24  43  72  96 134 184 222 280 347 400
#     4  11  21  40  64  98 130 174 227 277 337 402
#     4  12  22  46  66  92 136 182 220 272 344 432
#
# _framework density 4.9603169999999999
#
# number of rings (size 3 to 8) (size 9 to 14) (size 15 to 20)
#    0.000    0.800    6.000    1.600    3.733    2.667 
#    2.400    0.000    0.000    0.000    0.000    0.000 
#    0.000    0.000    0.000    0.000    0.000    0.000 
#
# Total GULP energy -167019.526636 kJ/mol
# GULP energy per Si atom -5567.317555 kJ/mol
# Density = 0.494903 g / cm^3
# Si number density = 4.960317 Si / 1000 Ang^3
#
#
#
# Elastic Constant Matrix: (Units=GPa)
#
#
# Indices 1 2 3 4 5 6 
#
# 1 145.0680 57.3941 31.1046 0.0000 0.0000 0.0000
# 2 57.3941 128.6193 46.1063 0.0000 0.0000 0.0000
# 3 31.1046 46.1063 53.7240 0.0000 0.0000 0.0000
# 4 0.0000 0.0000 0.0000 45.9573 0.0000 0.0000
# 5 0.0000 0.0000 0.0000 0.0000 18.4228 0.0000
# 6 0.0000 0.0000 0.0000 0.0000 0.0000 20.1627
#
#
#
# Elastic Compliance Matrix: (Units=1/GPa)
#
#
# Indices 1 2 3 4 5 6 
#
# 1 0.008585 -0.002960 -0.002431 0.000000 0.000000 0.000000
# 2 -0.002960 0.012250 -0.008799 0.000000 0.000000 0.000000
# 3 -0.002431 -0.008799 0.027573 0.000000 0.000000 0.000000
# 4 0.000000 0.000000 0.000000 0.021759 0.000000 0.000000
# 5 0.000000 0.000000 0.000000 0.000000 0.054281 0.000000
# 6 0.000000 0.000000 0.000000 0.000000 0.000000 0.049596
#
#
# Mechanical properties :
#
#
# Convention : Reuss Voigt Hill
#
# Bulk Modulus (GPa) = 49.92895 66.29126 58.11011
# Shear Modulus (GPa) = 23.91198 29.76231 26.83715
#
# Velocity S-wave (km/s) = 3.47531 3.87721 3.68175
# Velocity P-wave (km/s) = 6.42826 7.31622 6.88657
#
# Compressibility (1/GPa) = 0.02002846
#
# Stress axis : x y z
#
# Youngs Moduli (GPa) = 116.47565 81.63280 36.26789
#
# Poissons Ratio (x) = 0.24162 0.08815
# Poissons Ratio (y) = 0.34475 0.31913
# Poissons Ratio (z) = 0.28311 0.71832
#
# Static dielectric constant tensor:
#      x y z
#    x 1.766810 0.000000 0.000000 
#    y 0.000000 1.758940 0.000000 
#    z 0.000000 0.000000 1.731300 
# 
# From -- ./inp_files/17265.got.cif
#   From: 2010.05.17/outbox.ucp.g08.bks.cvg/sg43_9_cif.got.tgz:17265.got - 2010.06.11 16:31:01.
