data_PCOD9372476
_publ_section_title
;
Structure prediction by ZEFSAII (Michael W. Deem and Ramdas Pophale) SiO2 
 PCOD9372476
Probable space group: F D D 2
;
_chemical_formula_sum "Si O2"
_cell_formula_units_Z 104
_cell_length_a 8.691024
_cell_length_b 29.694186
_cell_length_c 17.753702
_cell_angle_alpha 90.000000
_cell_angle_beta 90.000000
_cell_angle_gamma 90.000000
_cell_volume 4581.749062
_symmetry_space_group_name_H-M "F D D 2"
_symmetry_group_IT_number 43
_symmetry_cell_setting 'orthorhombic'
loop_
_space_group_symop_operation_xyz
x,y,z
-x,-y,z
1/4-x,1/4+y,1/4+z
1/4+x,1/4-y,1/4+z
x,1/2+y,1/2+z
-x,1/2-y,1/2+z
1/4-x,3/4+y,3/4+z
1/4+x,3/4-y,3/4+z
1/2+x,y,1/2+z
1/2-x,-y,1/2+z
3/4-x,1/4+y,3/4+z
3/4+x,1/4-y,3/4+z
1/2+x,1/2+y,z
1/2-x,1/2-y,z
3/4-x,3/4+y,1/4+z
3/4+x,3/4-y,1/4+z
loop_
_atom_site_type_symbol
_atom_site_label
_atom_site_fract_x
_atom_site_fract_y
_atom_site_fract_z
Si Si1 0.750000 0.250000 0.733130
Si Si2 0.000000 0.000000 0.663995
Si Si3 0.784719 0.927724 0.649115
Si Si4 0.181510 0.673343 0.166256
Si Si5 0.729573 0.929010 0.480364
Si Si6 0.566302 0.080476 0.704308
Si Si7 0.255717 0.055992 0.068190
Si Si8 0.000000 0.000000 0.306061
O O1 0.643244 0.212805 0.693393
O O2 0.636247 0.277981 0.785632
O O3 0.109605 0.038794 0.698531
O O4 0.884208 0.029349 0.614076
O O5 0.851082 0.877342 0.639432
O O6 0.771426 0.945834 0.563952
O O7 0.613213 0.924856 0.681959
O O8 0.363956 0.676983 0.183407
O O9 0.154194 0.715196 0.109542
O O10 0.090724 0.676394 0.244304
O O11 0.666971 0.878595 0.494163
O O12 0.672805 0.085801 0.631273
O O13 0.595277 0.035246 0.753268
#
# Coordination Sequence:
#
# PCOD9372476 Si02
#       8
#     8   8  16  16  16  16  16   8
#     4  12  21  38  66  96 133 178 244 284 353 416
#     4  12  21  38  66  96 133 178 244 284 353 416
#     4  11  22  45  66 101 135 189 232 305 349 436
#     4  11  25  42  71  99 144 183 245 287 367 419
#     4  11  22  45  66 101 135 189 232 305 349 436
#     4  11  25  42  71  99 144 183 245 287 367 419
#     4  12  22  41  66 101 130 193 228 293 348 438
#     4  12  22  42  68 106 134 194 232 296 342 438
#
# _framework density 22.698754999999998
#
# number of rings (size 3 to 8) (size 9 to 14) (size 15 to 20)
#    0.000    0.615    6.154    2.769    0.000    1.231 
#    0.000    3.077    0.000    8.308    0.000    0.000 
#    0.000    0.000    0.000    0.000    0.000    0.000 
#
# Total GULP energy -145046.673798 kJ/mol
# GULP energy per Si atom -5578.718223 kJ/mol
# Density = 2.264709 g / cm^3
# Si number density = 22.698755 Si / 1000 Ang^3
#
#
#
# Elastic Constant Matrix: (Units=GPa)
#
#
# Indices 1 2 3 4 5 6 
#
# 1 92.1225 24.1308 -0.4517 0.0000 0.0000 0.0000
# 2 24.1308 104.0828 11.1356 0.0000 0.0000 0.0000
# 3 -0.4517 11.1356 42.0006 0.0000 0.0000 0.0000
# 4 0.0000 0.0000 0.0000 12.4160 0.0000 0.0000
# 5 0.0000 0.0000 0.0000 0.0000 30.1433 0.0000
# 6 0.0000 0.0000 0.0000 0.0000 0.0000 -7.2222
#
#
#
# Elastic Compliance Matrix: (Units=1/GPa)
#
#
# Indices 1 2 3 4 5 6 
#
# 1 0.011587 -0.002779 0.000861 0.000000 0.000000 0.000000
# 2 -0.002779 0.010555 -0.002828 0.000000 0.000000 0.000000
# 3 0.000861 -0.002828 0.024568 0.000000 0.000000 0.000000
# 4 0.000000 0.000000 0.000000 0.080541 0.000000 0.000000
# 5 0.000000 0.000000 0.000000 0.000000 0.033175 0.000000
# 6 0.000000 0.000000 0.000000 0.000000 0.000000 -0.138461
#
#
# Mechanical properties :
#
#
# Convention : Reuss Voigt Hill
#
# Bulk Modulus (GPa) = 26.86797 34.20392 30.53594
# Shear Modulus (GPa) = 113.99330 20.62681 67.31006
#
# Velocity S-wave (km/s) = 7.09430 3.01777 5.45142
# Velocity P-wave (km/s) = 8.88639 5.21957 7.28738
#
# Compressibility (1/GPa) = 0.03721904
#
# Stress axis : x y z
#
# Youngs Moduli (GPa) = 86.30250 94.74628 40.70290
#
# Poissons Ratio (x) = 0.26326 -0.03506
# Poissons Ratio (y) = 0.23980 0.11512
# Poissons Ratio (z) = -0.07433 0.26796
#
# Static dielectric constant tensor:
#      x y z
#    x 1.865100 0.000000 0.000000 
#    y 0.000000 1.884680 0.000000 
#    z 0.000000 0.000000 1.899870 
# 
# From -- ./inp_files/16686.got.cif
#   From: 2010.05.17/outbox.cif.g08.bks.cpg/sg43_9_cif.got.tgz:16686.got - 2010.06.03 19:21:55.
