data_PCOD9372426
_publ_section_title
;
Structure prediction by ZEFSAII (Michael W. Deem and Ramdas Pophale) SiO2 
 PCOD9372426
Probable space group: F D D 2
;
_chemical_formula_sum "Si O2"
_cell_formula_units_Z 80
_cell_length_a 17.975080
_cell_length_b 7.533767
_cell_length_c 30.242993
_cell_angle_alpha 90.000000
_cell_angle_beta 90.000000
_cell_angle_gamma 90.000000
_cell_volume 4095.508064
_symmetry_space_group_name_H-M "F D D 2"
_symmetry_group_IT_number 43
_symmetry_cell_setting 'orthorhombic'
loop_
_space_group_symop_operation_xyz
x,y,z
-x,-y,z
1/4-x,1/4+y,1/4+z
1/4+x,1/4-y,1/4+z
x,1/2+y,1/2+z
-x,1/2-y,1/2+z
1/4-x,3/4+y,3/4+z
1/4+x,3/4-y,3/4+z
1/2+x,y,1/2+z
1/2-x,-y,1/2+z
3/4-x,1/4+y,3/4+z
3/4+x,1/4-y,3/4+z
1/2+x,1/2+y,z
1/2-x,1/2-y,z
3/4-x,3/4+y,1/4+z
3/4+x,3/4-y,1/4+z
loop_
_atom_site_type_symbol
_atom_site_label
_atom_site_fract_x
_atom_site_fract_y
_atom_site_fract_z
Si Si1 0.549579 0.846600 0.522280
Si Si2 0.853394 0.050745 0.746969
Si Si3 0.086731 0.033007 0.342959
Si Si4 0.912708 0.502420 0.152892
Si Si5 0.586153 0.951009 0.345480
O O1 0.483623 0.741502 0.498472
O O2 0.607200 0.744397 0.552163
O O3 0.500000 0.000000 0.548661
O O4 0.595402 0.983641 0.492079
O O5 0.898630 0.988685 0.705172
O O6 0.888615 0.011177 0.794720
O O7 0.095563 0.241317 0.352888
O O8 0.116376 0.907566 0.381270
O O9 0.000000 0.000000 0.332890
O O10 0.880799 0.679947 0.130089
O O11 0.000000 0.500000 0.143097
O O12 0.500000 0.000000 0.349696
#
# Coordination Sequence:
#
# PCOD9372426 Si02
#       5
#    16  16  16  16  16
#     4   7  17  36  68  82 127 167 208 260 329 365
#     4   8  19  39  63  91 125 168 217 261 320 392
#     4  11  22  40  65 101 126 168 226 263 319 404
#     4  12  25  38  68  98 131 167 224 266 329 391
#     4  11  22  42  68  84 136 177 205 272 336 368
#
# _framework density 19.533595999999999
#
# number of rings (size 3 to 8) (size 9 to 14) (size 15 to 20)
#    1.200    0.800    2.000    1.800    2.800    0.000 
#    0.000    7.000    0.000    0.000    0.000    0.000 
#    0.000    0.000    0.000    0.000    0.000    0.000 
#
# Total GULP energy -111336.614893 kJ/mol
# GULP energy per Si atom -5566.830745 kJ/mol
# Density = 1.948914 g / cm^3
# Si number density = 19.533596 Si / 1000 Ang^3
#
#
#
# Elastic Constant Matrix: (Units=GPa)
#
#
# Indices 1 2 3 4 5 6 
#
# 1 125.9012 8.3376 24.0816 0.0000 0.0000 0.0000
# 2 8.3376 64.5999 21.2111 0.0000 0.0000 0.0000
# 3 24.0816 21.2111 55.6843 0.0000 0.0000 0.0000
# 4 0.0000 0.0000 0.0000 9.3678 0.0000 0.0000
# 5 0.0000 0.0000 0.0000 0.0000 37.5885 0.0000
# 6 0.0000 0.0000 0.0000 0.0000 0.0000 4.0272
#
#
#
# Elastic Compliance Matrix: (Units=1/GPa)
#
#
# Indices 1 2 3 4 5 6 
#
# 1 0.008660 0.000128 -0.003794 0.000000 0.000000 0.000000
# 2 0.000128 0.017695 -0.006796 0.000000 0.000000 0.000000
# 3 -0.003794 -0.006796 0.022188 0.000000 0.000000 0.000000
# 4 0.000000 0.000000 0.000000 0.106748 0.000000 0.000000
# 5 0.000000 0.000000 0.000000 0.000000 0.026604 0.000000
# 6 0.000000 0.000000 0.000000 0.000000 0.000000 0.248308
#
#
# Mechanical properties :
#
#
# Convention : Reuss Voigt Hill
#
# Bulk Modulus (GPa) = 36.20644 39.27175 37.73909
# Shear Modulus (GPa) = 10.86172 23.03373 16.94773
#
# Velocity S-wave (km/s) = 2.36064 3.43765 2.94873
# Velocity P-wave (km/s) = 5.09959 5.99208 5.56376
#
# Compressibility (1/GPa) = 0.02761940
#
# Stress axis : x y z
#
# Youngs Moduli (GPa) = 115.47442 56.51420 45.07017
#
# Poissons Ratio (x) = -0.00723 0.17099
# Poissons Ratio (y) = -0.01478 0.30628
# Poissons Ratio (z) = 0.43810 0.38404
#
# Static dielectric constant tensor:
#      x y z
#    x 1.708680 0.000000 0.000000 
#    y 0.000000 1.676810 0.000000 
#    z 0.000000 0.000000 1.690920 
# 
# From -- ./inp_files/25876.got.cif
#   From: 2010.05.17/outbox.cif.g08.bks.cpg/sg43_13_cif.got.tgz:25876.got - 2010.06.03 19:21:55.
