data_PCOD9372424
_publ_section_title
;
Structure prediction by ZEFSAII (Michael W. Deem and Ramdas Pophale) SiO2 
 PCOD9372424
Probable space group: F D D 2
;
_chemical_formula_sum "Si O2"
_cell_formula_units_Z 120
_cell_length_a 26.146439
_cell_length_b 25.524344
_cell_length_c 9.433134
_cell_angle_alpha 90.000000
_cell_angle_beta 90.000000
_cell_angle_gamma 90.000000
_cell_volume 6295.397273
_symmetry_space_group_name_H-M "F D D 2"
_symmetry_group_IT_number 43
_symmetry_cell_setting 'orthorhombic'
loop_
_space_group_symop_operation_xyz
x,y,z
-x,-y,z
1/4-x,1/4+y,1/4+z
1/4+x,1/4-y,1/4+z
x,1/2+y,1/2+z
-x,1/2-y,1/2+z
1/4-x,3/4+y,3/4+z
1/4+x,3/4-y,3/4+z
1/2+x,y,1/2+z
1/2-x,-y,1/2+z
3/4-x,1/4+y,3/4+z
3/4+x,1/4-y,3/4+z
1/2+x,1/2+y,z
1/2-x,1/2-y,z
3/4-x,3/4+y,1/4+z
3/4+x,3/4-y,1/4+z
loop_
_atom_site_type_symbol
_atom_site_label
_atom_site_fract_x
_atom_site_fract_y
_atom_site_fract_z
Si Si1 0.966463 0.892208 0.391260
Si Si2 0.000000 0.500000 0.770758
Si Si3 0.446276 0.305376 0.907318
Si Si4 0.057554 0.318327 0.854366
Si Si5 0.136233 0.231736 0.437037
Si Si6 0.898243 0.362298 0.141982
Si Si7 0.561020 0.826511 0.515122
Si Si8 0.887710 0.339983 0.683584
O O1 0.932819 0.894354 0.531605
O O2 0.929712 0.877173 0.260102
O O3 0.005090 0.843873 0.406850
O O4 0.994297 0.946703 0.360692
O O5 0.946373 0.504767 0.687608
O O6 0.440815 0.243664 0.874936
O O7 0.430840 0.338314 0.768981
O O8 0.504143 0.315492 0.959683
O O9 0.408131 0.322977 0.032197
O O10 0.102937 0.348584 0.934168
O O11 0.060806 0.331797 0.686112
O O12 0.126003 0.185671 0.551618
O O13 0.099725 0.279449 0.479115
O O14 0.118843 0.209654 0.285988
O O15 0.585077 0.877857 0.442683
#
# Coordination Sequence:
#
# PCOD9372424 Si02
#       8
#    16   8  16  16  16  16  16  16
#     4  11  22  39  70  96 127 175 223 268 331 405
#     4  12  20  40  72 102 124 172 236 278 324 400
#     4  12  28  42  66 102 136 170 228 286 336 398
#     4  12  23  43  70  95 134 178 224 271 339 415
#     4  11  22  39  70  96 127 175 223 268 331 405
#     4  11  24  43  65  97 132 172 220 278 335 395
#     4  12  23  43  70  95 134 178 224 271 339 415
#     4  11  24  43  65  97 132 172 220 278 335 395
#
# _framework density 19.061546
#
# number of rings (size 3 to 8) (size 9 to 14) (size 15 to 20)
#    0.000    0.533    8.000    1.600    0.000    2.133 
#    0.000    0.000    0.000    1.600    0.000    0.000 
#    0.000    0.000    0.000    0.000    0.000    0.000 
#
# Total GULP energy -167668.042581 kJ/mol
# GULP energy per Si atom -5588.934753 kJ/mol
# Density = 1.901816 g / cm^3
# Si number density = 19.061546 Si / 1000 Ang^3
#
#
#
# Elastic Constant Matrix: (Units=GPa)
#
#
# Indices 1 2 3 4 5 6 
#
# 1 75.2079 -0.2456 11.4825 0.0011 -0.0004 -0.0003
# 2 -0.2456 34.5688 -0.1660 0.0016 -0.0012 -0.0009
# 3 11.4825 -0.1660 54.7008 0.0047 -0.0033 -0.0020
# 4 0.0011 0.0016 0.0047 15.6097 -0.0023 -0.0018
# 5 -0.0004 -0.0012 -0.0033 -0.0023 20.1532 0.0009
# 6 -0.0003 -0.0009 -0.0020 -0.0018 0.0009 35.3383
#
#
#
# Elastic Compliance Matrix: (Units=1/GPa)
#
#
# Indices 1 2 3 4 5 6 
#
# 1 0.013737 0.000084 -0.002883 0.000000 0.000000 0.000000
# 2 0.000084 0.028929 0.000070 -0.000003 0.000002 0.000001
# 3 -0.002883 0.000070 0.018887 -0.000005 0.000003 0.000001
# 4 0.000000 -0.000003 -0.000005 0.064063 0.000007 0.000003
# 5 0.000000 0.000002 0.000003 0.000007 0.049620 -0.000001
# 6 0.000000 0.000001 0.000001 0.000003 -0.000001 0.028298
#
#
# Mechanical properties :
#
#
# Convention : Reuss Voigt Hill
#
# Bulk Modulus (GPa) = 17.82730 20.73546 19.28138
# Shear Modulus (GPa) = 21.95969 24.44733 23.20351
#
# Velocity S-wave (km/s) = 3.39786 3.58515 3.49276
# Velocity P-wave (km/s) = 4.97661 5.29524 5.13840
#
# Compressibility (1/GPa) = 0.05609375
#
# Stress axis : x y z
#
# Youngs Moduli (GPa) = 72.79629 34.56765 52.94720
#
# Poissons Ratio (x) = -0.00290 0.15266
# Poissons Ratio (y) = -0.00610 -0.00372
# Poissons Ratio (z) = 0.20990 -0.00243
#
# Static dielectric constant tensor:
#      x y z
#    x 1.672670 0.000000 0.000000 
#    y 0.000000 1.668730 0.000000 
#    z 0.000000 0.000000 1.634490 
# 
# From -- ./inp_files/3912.got.cif
#   From: 2010.05.17/outbox.cif.g08.bks.cpg/sg43_2_cif.got.tgz:3912.got - 2010.06.03 19:21:55.
