data_PCOD9372779
_publ_section_title
;
Structure prediction by ZEFSAII (Michael W. Deem and Ramdas Pophale) SiO2 
 PCOD9372779
Probable space group: F D D 2
;
_chemical_formula_sum "Si O2"
_cell_formula_units_Z 112
_cell_length_a 14.387004
_cell_length_b 12.236333
_cell_length_c 27.506848
_cell_angle_alpha 90.000000
_cell_angle_beta 90.000000
_cell_angle_gamma 90.000000
_cell_volume 4842.420275
_symmetry_space_group_name_H-M "F D D 2"
_symmetry_group_IT_number 43
_symmetry_cell_setting 'orthorhombic'
loop_
_space_group_symop_operation_xyz
x,y,z
-x,-y,z
1/4-x,1/4+y,1/4+z
1/4+x,1/4-y,1/4+z
x,1/2+y,1/2+z
-x,1/2-y,1/2+z
1/4-x,3/4+y,3/4+z
1/4+x,3/4-y,3/4+z
1/2+x,y,1/2+z
1/2-x,-y,1/2+z
3/4-x,1/4+y,3/4+z
3/4+x,1/4-y,3/4+z
1/2+x,1/2+y,z
1/2-x,1/2-y,z
3/4-x,3/4+y,1/4+z
3/4+x,3/4-y,1/4+z
loop_
_atom_site_type_symbol
_atom_site_label
_atom_site_fract_x
_atom_site_fract_y
_atom_site_fract_z
Si Si1 0.030999 0.780912 0.519140
Si Si2 0.746815 0.122323 0.616739
Si Si3 0.750000 0.750000 0.352524
Si Si4 0.630178 0.119508 0.716509
Si Si5 0.695503 0.072848 0.924859
Si Si6 0.889929 0.666429 0.277711
Si Si7 0.250000 0.750000 0.213421
Si Si8 0.207564 0.629743 0.376777
O O1 0.938973 0.715554 0.499438
O O2 0.119981 0.703807 0.507364
O O3 0.036677 0.896497 0.492907
O O4 0.029883 0.816891 0.575362
O O5 0.750000 0.250000 0.604680
O O6 0.674062 0.110768 0.661877
O O7 0.727895 0.067093 0.563711
O O8 0.848973 0.098583 0.636116
O O9 0.691872 0.663013 0.382720
O O10 0.812017 0.674451 0.319191
O O11 0.517724 0.117700 0.711843
O O12 0.638642 0.239467 0.740495
O O13 0.590249 0.045908 0.936649
O O14 0.745744 0.957515 0.913080
O O15 0.250000 0.750000 0.375827
#
# Coordination Sequence:
#
# PCOD9372779 Si02
#       8
#    16  16   8  16  16  16   8  16
#     4  12  24  48  68 106 150 187 246 313 371 463
#     4  12  23  46  73 115 149 197 247 317 386 452
#     4  12  20  48  72 103 142 188 257 302 358 456
#     4  12  25  44  80 109 143 192 258 315 374 457
#     4  12  27  48  70 105 141 201 245 309 386 450
#     4  12  24  40  81 108 141 190 251 316 370 446
#     4  12  32  46  68 103 156 194 247 316 388 468
#     4  12  27  47  73 105 156 195 245 311 391 461
#
# _framework density 23.128931000000001
#
# number of rings (size 3 to 8) (size 9 to 14) (size 15 to 20)
#    0.000    0.000    7.857    1.714    4.000    0.000 
#    0.000    1.429    0.000    0.000    0.000    0.000 
#    0.000    0.000    0.000    0.000    0.000    0.000 
#
# Total GULP energy -156273.567218 kJ/mol
# GULP energy per Si atom -5581.198829 kJ/mol
# Density = 2.307629 g / cm^3
# Si number density = 23.128931 Si / 1000 Ang^3
#
#
#
# Elastic Constant Matrix: (Units=GPa)
#
#
# Indices 1 2 3 4 5 6 
#
# 1 112.7455 7.8689 29.6162 0.0000 0.0000 0.0000
# 2 7.8689 149.6298 29.3147 0.0000 0.0000 0.0000
# 3 29.6162 29.3147 72.9325 0.0000 0.0000 0.0000
# 4 0.0000 0.0000 0.0000 22.8168 0.0000 0.0000
# 5 0.0000 0.0000 0.0000 0.0000 4.4063 0.0000
# 6 0.0000 0.0000 0.0000 0.0000 0.0000 25.9892
#
#
#
# Elastic Compliance Matrix: (Units=1/GPa)
#
#
# Indices 1 2 3 4 5 6 
#
# 1 0.009940 0.000291 -0.004153 0.000000 0.000000 0.000000
# 2 0.000291 0.007263 -0.003037 0.000000 0.000000 0.000000
# 3 -0.004153 -0.003037 0.016619 0.000000 0.000000 0.000000
# 4 0.000000 0.000000 0.000000 0.043827 0.000000 0.000000
# 5 0.000000 0.000000 0.000000 0.000000 0.226945 0.000000
# 6 0.000000 0.000000 0.000000 0.000000 0.000000 0.038477
#
#
# Mechanical properties :
#
#
# Convention : Reuss Voigt Hill
#
# Bulk Modulus (GPa) = 49.94472 52.10084 51.02278
# Shear Modulus (GPa) = 13.75341 28.54300 21.14821
#
# Velocity S-wave (km/s) = 2.44117 3.51676 3.02712
# Velocity P-wave (km/s) = 5.43936 6.25023 5.85884
#
# Compressibility (1/GPa) = 0.02002214
#
# Stress axis : x y z
#
# Youngs Moduli (GPa) = 100.60091 137.68525 60.17278
#
# Poissons Ratio (x) = -0.04006 0.24993
# Poissons Ratio (y) = -0.02927 0.18277
# Poissons Ratio (z) = 0.41784 0.41821
#
# Static dielectric constant tensor:
#      x y z
#    x 2.008960 0.000000 0.000000 
#    y 0.000000 2.157090 0.000000 
#    z 0.000000 0.000000 1.932350 
# 
# From -- ./inp_files/29124.got.cif
#   From: 2010.05.17/outbox.cif.g08.bks.cpg/sg43_15_cif.got.tgz:29124.got - 2010.06.03 19:21:55.
