data_PCOD9372715
_publ_section_title
;
Structure prediction by ZEFSAII (Michael W. Deem and Ramdas Pophale) SiO2 
 PCOD9372715
Probable space group: F D D 2
;
_chemical_formula_sum "Si O2"
_cell_formula_units_Z 96
_cell_length_a 18.821126
_cell_length_b 24.208730
_cell_length_c 8.610234
_cell_angle_alpha 90.000000
_cell_angle_beta 90.000000
_cell_angle_gamma 90.000000
_cell_volume 3923.128770
_symmetry_space_group_name_H-M "F D D 2"
_symmetry_group_IT_number 43
_symmetry_cell_setting 'orthorhombic'
loop_
_space_group_symop_operation_xyz
x,y,z
-x,-y,z
1/4-x,1/4+y,1/4+z
1/4+x,1/4-y,1/4+z
x,1/2+y,1/2+z
-x,1/2-y,1/2+z
1/4-x,3/4+y,3/4+z
1/4+x,3/4-y,3/4+z
1/2+x,y,1/2+z
1/2-x,-y,1/2+z
3/4-x,1/4+y,3/4+z
3/4+x,1/4-y,3/4+z
1/2+x,1/2+y,z
1/2-x,1/2-y,z
3/4-x,3/4+y,1/4+z
3/4+x,3/4-y,1/4+z
loop_
_atom_site_type_symbol
_atom_site_label
_atom_site_fract_x
_atom_site_fract_y
_atom_site_fract_z
Si Si1 0.510102 0.642066 0.903060
Si Si2 0.074273 0.837057 0.178590
Si Si3 0.912683 0.835892 0.641222
Si Si4 0.576849 0.530175 0.927673
Si Si5 0.416424 0.499947 0.572870
Si Si6 0.288150 0.014974 0.609075
O O1 0.522948 0.629829 0.720368
O O2 0.564202 0.595109 0.967306
O O3 0.506501 0.709312 0.892645
O O4 0.691924 0.614695 0.263624
O O5 0.004184 0.807238 0.247834
O O6 0.104650 0.881671 0.294961
O O7 0.134221 0.790295 0.191215
O O8 0.867838 0.808530 0.780596
O O9 0.948764 0.794285 0.522102
O O10 0.500000 0.500000 0.944624
O O11 0.600455 0.520640 0.747631
O O12 0.638083 0.503996 0.032629
O O13 0.500000 0.500000 0.558749
#
# Coordination Sequence:
#
# PCOD9372715 Si02
#       6
#    16  16  16  16  16  16
#     4  12  25  48  78 111 158 213 267 338 414 486
#     4  12  27  48  78 121 154 219 273 328 426 507
#     4  12  27  47  78 116 157 209 268 346 409 495
#     4  11  27  49  76 115 157 217 274 344 422 494
#     4  11  25  47  73 108 161 200 267 337 410 485
#     4  12  27  49  80 114 162 210 278 339 417 506
#
# _framework density 24.470265999999999
#
# number of rings (size 3 to 8) (size 9 to 14) (size 15 to 20)
#    0.000    0.333    5.000    2.000    4.667    7.333 
#    0.000    0.000    0.000    0.000    0.000    0.000 
#    0.000    0.000    0.000    0.000    0.000    0.000 
#
# Total GULP energy -133939.803190 kJ/mol
# GULP energy per Si atom -5580.825133 kJ/mol
# Density = 2.441457 g / cm^3
# Si number density = 24.470266 Si / 1000 Ang^3
#
#
#
# Elastic Constant Matrix: (Units=GPa)
#
#
# Indices 1 2 3 4 5 6 
#
# 1 125.2386 35.2195 66.6057 0.0000 0.0000 0.0000
# 2 35.2195 90.6305 26.0250 0.0000 0.0000 0.0000
# 3 66.6057 26.0250 130.3624 0.0001 0.0000 0.0000
# 4 0.0000 0.0000 0.0001 43.1899 0.0000 0.0000
# 5 0.0000 0.0000 0.0000 0.0000 55.2891 0.0000
# 6 0.0000 0.0000 0.0000 0.0000 0.0000 42.2097
#
#
#
# Elastic Compliance Matrix: (Units=1/GPa)
#
#
# Indices 1 2 3 4 5 6 
#
# 1 0.011685 -0.002998 -0.005371 0.000000 0.000000 0.000000
# 2 -0.002998 0.012474 -0.000958 0.000000 0.000000 0.000000
# 3 -0.005371 -0.000958 0.010607 0.000000 0.000000 0.000000
# 4 0.000000 0.000000 0.000000 0.023154 0.000000 0.000000
# 5 0.000000 0.000000 0.000000 0.000000 0.018087 0.000000
# 6 0.000000 0.000000 0.000000 0.000000 0.000000 0.023691
#
#
# Mechanical properties :
#
#
# Convention : Reuss Voigt Hill
#
# Bulk Modulus (GPa) = 62.07607 66.88131 64.47869
# Shear Modulus (GPa) = 40.41286 42.69648 41.55467
#
# Velocity S-wave (km/s) = 4.06828 4.18165 4.12536
# Velocity P-wave (km/s) = 6.89137 7.12081 7.00703
#
# Compressibility (1/GPa) = 0.01610927
#
# Stress axis : x y z
#
# Youngs Moduli (GPa) = 85.58251 80.16567 94.28036
#
# Poissons Ratio (x) = 0.24036 0.50642
# Poissons Ratio (y) = 0.25660 0.09036
# Poissons Ratio (z) = 0.45970 0.07683
#
# Static dielectric constant tensor:
#      x y z
#    x 1.998210 0.000000 0.000000 
#    y 0.000000 2.112840 0.000000 
#    z 0.000000 0.000000 1.983010 
# 
# From -- ./inp_files/3318.got.cif
#   From: 2010.05.17/outbox.cif.g08.bks.cpg/sg43_2_cif.got.tgz:3318.got - 2010.06.03 19:21:55.
