data_PCOD9372456
_publ_section_title
;
Structure prediction by ZEFSAII (Michael W. Deem and Ramdas Pophale) SiO2 
 PCOD9372456
Probable space group: F D D 2
;
_chemical_formula_sum "Si O2"
_cell_formula_units_Z 80
_cell_length_a 9.768765
_cell_length_b 26.775476
_cell_length_c 12.402428
_cell_angle_alpha 90.000000
_cell_angle_beta 90.000000
_cell_angle_gamma 90.000000
_cell_volume 3244.020403
_symmetry_space_group_name_H-M "F D D 2"
_symmetry_group_IT_number 43
_symmetry_cell_setting 'orthorhombic'
loop_
_space_group_symop_operation_xyz
x,y,z
-x,-y,z
1/4-x,1/4+y,1/4+z
1/4+x,1/4-y,1/4+z
x,1/2+y,1/2+z
-x,1/2-y,1/2+z
1/4-x,3/4+y,3/4+z
1/4+x,3/4-y,3/4+z
1/2+x,y,1/2+z
1/2-x,-y,1/2+z
3/4-x,1/4+y,3/4+z
3/4+x,1/4-y,3/4+z
1/2+x,1/2+y,z
1/2-x,1/2-y,z
3/4-x,3/4+y,1/4+z
3/4+x,3/4-y,1/4+z
loop_
_atom_site_type_symbol
_atom_site_label
_atom_site_fract_x
_atom_site_fract_y
_atom_site_fract_z
Si Si1 0.555821 0.798944 0.650670
Si Si2 0.390299 0.457701 0.029149
Si Si3 0.993787 0.814097 0.572506
Si Si4 0.283332 0.142756 0.481258
Si Si5 0.615960 0.774610 0.867665
O O1 0.535364 0.744886 0.599301
O O2 0.603711 0.834941 0.558075
O O3 0.443269 0.834402 0.707275
O O4 0.660797 0.795160 0.750558
O O5 0.500000 0.500000 0.993594
O O6 0.456151 0.425533 0.123770
O O7 0.258960 0.487549 0.082695
O O8 0.333969 0.424577 0.928707
O O9 0.856699 0.844425 0.546005
O O10 0.068326 0.813372 0.457306
O O11 0.750000 0.750000 0.916843
#
# Coordination Sequence:
#
# PCOD9372456 Si02
#       5
#    16  16  16  16  16
#     4  11  24  41  72 102 143 193 242 306 377 443
#     4  11  22  42  74  98 140 194 236 299 377 437
#     4  11  23  44  71 105 139 192 244 302 370 443
#     4  12  23  46  69 105 145 191 245 305 378 448
#     4  11  22  43  71 103 142 189 248 299 371 447
#
# _framework density 24.660755999999999
#
# number of rings (size 3 to 8) (size 9 to 14) (size 15 to 20)
#    0.000    0.800    4.000    4.800    2.800    0.000 
#    3.600    0.000    0.000    0.000    0.000    0.000 
#    0.000    0.000    0.000    0.000    0.000    0.000 
#
# Total GULP energy -111634.776275 kJ/mol
# GULP energy per Si atom -5581.738814 kJ/mol
# Density = 2.460463 g / cm^3
# Si number density = 24.660756 Si / 1000 Ang^3
#
#
#
# Elastic Constant Matrix: (Units=GPa)
#
#
# Indices 1 2 3 4 5 6 
#
# 1 69.1422 19.7510 23.8350 0.0000 0.0000 0.0000
# 2 19.7510 119.4257 25.3069 0.0000 0.0000 0.0000
# 3 23.8350 25.3069 167.2158 0.0000 0.0000 0.0000
# 4 0.0000 0.0000 0.0000 4.3866 0.0000 0.0000
# 5 0.0000 0.0000 0.0000 0.0000 28.4363 0.0000
# 6 0.0000 0.0000 0.0000 0.0000 0.0000 18.3390
#
#
#
# Elastic Compliance Matrix: (Units=1/GPa)
#
#
# Indices 1 2 3 4 5 6 
#
# 1 0.015750 -0.002200 -0.001912 0.000000 0.000000 0.000000
# 2 -0.002200 0.008958 -0.001042 0.000000 0.000000 0.000000
# 3 -0.001912 -0.001042 0.006411 0.000000 0.000000 0.000000
# 4 0.000000 0.000000 0.000000 0.227965 0.000000 0.000000
# 5 0.000000 0.000000 0.000000 0.000000 0.035166 0.000000
# 6 0.000000 0.000000 0.000000 0.000000 0.000000 0.054529
#
#
# Mechanical properties :
#
#
# Convention : Reuss Voigt Hill
#
# Bulk Modulus (GPa) = 48.05146 54.84107 51.44627
# Shear Modulus (GPa) = 13.66030 29.35843 21.50936
#
# Velocity S-wave (km/s) = 2.35612 3.45409 2.95652
# Velocity P-wave (km/s) = 5.18932 6.18014 5.70628
#
# Compressibility (1/GPa) = 0.02081102
#
# Stress axis : x y z
#
# Youngs Moduli (GPa) = 63.49017 111.63157 155.99196
#
# Poissons Ratio (x) = 0.24555 0.29828
# Poissons Ratio (y) = 0.13966 0.16257
# Poissons Ratio (z) = 0.12140 0.11634
#
# Static dielectric constant tensor:
#      x y z
#    x 2.034760 0.000000 0.000000 
#    y 0.000000 2.007240 0.000000 
#    z 0.000000 0.000000 1.997180 
# 
# From -- ./inp_files/5692.got.cif
#   From: 2010.05.17/outbox.cif.g08.bks.cpg/sg43_3_cif.got.tgz:5692.got - 2010.06.03 19:21:55.
