data_PCOD9372174
_publ_section_title
;
Structure prediction by ZEFSAII (Michael W. Deem and Ramdas Pophale) SiO2 
 PCOD9372174
Probable space group: F D D 2
;
_chemical_formula_sum "Si O2"
_cell_formula_units_Z 56
_cell_length_a 16.074784
_cell_length_b 14.376619
_cell_length_c 8.691252
_cell_angle_alpha 90.000000
_cell_angle_beta 90.000000
_cell_angle_gamma 90.000000
_cell_volume 2008.557420
_symmetry_space_group_name_H-M "F D D 2"
_symmetry_group_IT_number 43
_symmetry_cell_setting 'orthorhombic'
loop_
_space_group_symop_operation_xyz
x,y,z
-x,-y,z
1/4-x,1/4+y,1/4+z
1/4+x,1/4-y,1/4+z
x,1/2+y,1/2+z
-x,1/2-y,1/2+z
1/4-x,3/4+y,3/4+z
1/4+x,3/4-y,3/4+z
1/2+x,y,1/2+z
1/2-x,-y,1/2+z
3/4-x,1/4+y,3/4+z
3/4+x,1/4-y,3/4+z
1/2+x,1/2+y,z
1/2-x,1/2-y,z
3/4-x,3/4+y,1/4+z
3/4+x,3/4-y,1/4+z
loop_
_atom_site_type_symbol
_atom_site_label
_atom_site_fract_x
_atom_site_fract_y
_atom_site_fract_z
Si Si1 0.886591 0.662093 0.446550
Si Si2 0.737945 0.065235 0.234165
Si Si3 0.250000 0.250000 0.254933
Si Si4 0.612798 0.728865 0.737027
O O1 0.800465 0.676421 0.360098
O O2 0.873460 0.680129 0.630001
O O3 0.939464 0.754208 0.400955
O O4 0.936451 0.567812 0.419264
O O5 0.692875 0.164270 0.221280
O O6 0.781665 0.064955 0.401417
O O7 0.661542 0.004970 0.159654
#
# Coordination Sequence:
#
# PCOD9372174 Si02
#       4
#    16  16   8  16
#     4  10  28  42  83 105 161 196 271 313 414 459
#     4  10  25  46  77 115 158 207 270 328 410 473
#     4  12  26  50  74 114 154 210 258 332 394 488
#     4  10  24  48  76 118 156 208 269 334 404 488
#
# _framework density 27.880707000000001
#
# number of rings (size 3 to 8) (size 9 to 14) (size 15 to 20)
#    1.714    0.000    0.000    1.714    8.000    5.714 
#    0.000    0.000    0.000    0.000    0.000    0.000 
#    0.000    0.000    0.000    0.000    0.000    0.000 
#
# Total GULP energy -77998.514973 kJ/mol
# GULP energy per Si atom -5571.322498 kJ/mol
# Density = 2.781725 g / cm^3
# Si number density = 27.880707 Si / 1000 Ang^3
#
#
#
# Elastic Constant Matrix: (Units=GPa)
#
#
# Indices 1 2 3 4 5 6 
#
# 1 137.3768 86.3369 84.1939 0.0000 0.0000 0.0000
# 2 86.3369 164.0305 73.5584 0.0000 0.0000 0.0000
# 3 84.1939 73.5584 67.1337 0.0000 0.0000 0.0000
# 4 0.0000 0.0000 0.0000 20.8092 0.0000 0.0000
# 5 0.0000 0.0000 0.0000 0.0000 51.3434 0.0000
# 6 0.0000 0.0000 0.0000 0.0000 0.0000 80.7893
#
#
#
# Elastic Compliance Matrix: (Units=1/GPa)
#
#
# Indices 1 2 3 4 5 6 
#
# 1 0.031880 0.002260 -0.042457 0.000000 0.000000 0.000000
# 2 0.002260 0.012146 -0.016143 0.000000 0.000000 0.000000
# 3 -0.042457 -0.016143 0.085830 0.000000 0.000000 0.000000
# 4 0.000000 0.000000 0.000000 0.048056 0.000000 0.000000
# 5 0.000000 0.000000 0.000000 0.000000 0.019477 0.000000
# 6 0.000000 0.000000 0.000000 0.000000 0.000000 0.012378
#
#
# Mechanical properties :
#
#
# Convention : Reuss Voigt Hill
#
# Bulk Modulus (GPa) = 58.22227 95.19107 76.70667
# Shear Modulus (GPa) = 15.23600 38.88515 27.06058
#
# Velocity S-wave (km/s) = 2.34021 3.73862 3.11880
# Velocity P-wave (km/s) = 5.31320 7.26999 6.36721
#
# Compressibility (1/GPa) = 0.01717556
#
# Stress axis : x y z
#
# Youngs Moduli (GPa) = 31.36800 82.33198 11.65100
#
# Poissons Ratio (x) = -0.18606 0.49467
# Poissons Ratio (y) = -0.07089 0.18808
# Poissons Ratio (z) = 1.33180 1.32905
#
# Static dielectric constant tensor:
#      x y z
#    x 2.178330 0.000000 0.000000 
#    y 0.000000 2.221260 0.000000 
#    z 0.000000 0.000000 2.213440 
# 
# From -- ./inp_files/3050.got.cif
#   From: 2010.05.17/outbox.cif.g08.bks.cpg/sg43_2_cif.got.tgz:3050.got - 2010.06.03 19:21:55.
