data_PCOD9372053
_publ_section_title
;
Structure prediction by ZEFSAII (Michael W. Deem and Ramdas Pophale) SiO2 
 PCOD9372053
Probable space group: F D D 2
;
_chemical_formula_sum "Si O2"
_cell_formula_units_Z 64
_cell_length_a 13.439946
_cell_length_b 13.439918
_cell_length_c 14.410407
_cell_angle_alpha 90.000000
_cell_angle_beta 90.000000
_cell_angle_gamma 90.000000
_cell_volume 2602.977354
_symmetry_space_group_name_H-M "F D D 2"
_symmetry_group_IT_number 43
_symmetry_cell_setting 'orthorhombic'
loop_
_space_group_symop_operation_xyz
x,y,z
-x,-y,z
1/4-x,1/4+y,1/4+z
1/4+x,1/4-y,1/4+z
x,1/2+y,1/2+z
-x,1/2-y,1/2+z
1/4-x,3/4+y,3/4+z
1/4+x,3/4-y,3/4+z
1/2+x,y,1/2+z
1/2-x,-y,1/2+z
3/4-x,1/4+y,3/4+z
3/4+x,1/4-y,3/4+z
1/2+x,1/2+y,z
1/2-x,1/2-y,z
3/4-x,3/4+y,1/4+z
3/4+x,3/4-y,1/4+z
loop_
_atom_site_type_symbol
_atom_site_label
_atom_site_fract_x
_atom_site_fract_y
_atom_site_fract_z
Si Si1 0.538584 0.110024 0.738040
Si Si2 0.385194 0.974572 0.920095
Si Si3 0.139976 0.211416 0.061901
Si Si4 0.474572 0.114806 0.129846
O O1 0.606348 0.098493 0.829843
O O2 0.436760 0.173883 0.745850
O O3 0.596310 0.153690 0.649970
O O4 0.500000 0.000000 0.718126
O O5 0.500000 0.000000 0.936111
O O6 0.324362 0.074361 0.899970
O O7 0.250000 0.250000 0.081816
O O8 0.076117 0.313240 0.054090
O O9 0.151507 0.143651 0.970097
O O10 0.500000 0.000000 0.113829
#
# Coordination Sequence:
#
# PCOD9372053 Si02
#       4
#    16  16  16  16
#     4  10  24  43  76 110 154 203 265 326 395 472
#     4  10  24  49  72 114 154 213 258 329 398 474
#     4  10  24  43  76 110 154 203 265 326 395 472
#     4  10  24  49  72 114 154 213 258 329 398 474
#
# _framework density 24.587228
#
# number of rings (size 3 to 8) (size 9 to 14) (size 15 to 20)
#    0.000    2.000    0.000    0.000   14.000    2.000 
#   54.000    0.000    0.000    0.000    0.000    0.000 
#    0.000    0.000    0.000    0.000    0.000    0.000 
#
# Total GULP energy -89368.865775 kJ/mol
# GULP energy per Si atom -5585.554111 kJ/mol
# Density = 2.453127 g / cm^3
# Si number density = 24.587228 Si / 1000 Ang^3
#
#
#
# Elastic Constant Matrix: (Units=GPa)
#
#
# Indices 1 2 3 4 5 6 
#
# 1 115.5308 65.7125 20.1540 0.0000 0.0000 0.0000
# 2 65.7125 115.5272 20.1522 0.0000 0.0000 0.0000
# 3 20.1540 20.1522 125.6488 0.0000 0.0000 0.0000
# 4 0.0000 0.0000 0.0000 -179.6422 0.0000 0.0000
# 5 0.0000 0.0000 0.0000 0.0000 -179.6657 0.0000
# 6 0.0000 0.0000 0.0000 0.0000 0.0000 74.0373
#
#
#
# Elastic Compliance Matrix: (Units=1/GPa)
#
#
# Indices 1 2 3 4 5 6 
#
# 1 0.012897 -0.007176 -0.000918 0.000000 0.000000 0.000000
# 2 -0.007176 0.012898 -0.000918 0.000000 0.000000 0.000000
# 3 -0.000918 -0.000918 0.008253 0.000000 0.000000 0.000000
# 4 0.000000 0.000000 0.000000 -0.005567 0.000000 0.000000
# 5 0.000000 0.000000 0.000000 0.000000 -0.005566 0.000000
# 6 0.000000 0.000000 0.000000 0.000000 0.000000 0.013507
#
#
# Mechanical properties :
#
#
# Convention : Reuss Voigt Hill
#
# Bulk Modulus (GPa) = 62.40073 63.19380 62.79727
# Shear Modulus (GPa) = 83.62994 -40.34158 21.64418
#
# Velocity S-wave (km/s) = 5.83844 -4.05502 2.97021
# Velocity P-wave (km/s) = 8.41928 1.95793 6.11219
#
# Compressibility (1/GPa) = 0.01602545
#
# Stress axis : x y z
#
# Youngs Moduli (GPa) = 77.53472 77.53260 121.16694
#
# Poissons Ratio (x) = 0.55638 0.11121
# Poissons Ratio (y) = 0.55639 0.11118
# Poissons Ratio (z) = 0.07116 0.07114
#
# Static dielectric constant tensor:
#      x y z
#    x 2.053310 0.000000 0.000000 
#    y 0.000000 2.053300 0.000000 
#    z 0.000000 0.000000 2.146510 
# 
# From -- ./inp_files/9909.got.cif
#   From: 2010.05.17/outbox.cif.g08.bks.cpg/sg43_5_cif.got.tgz:9909.got - 2010.06.03 19:21:55.
