data_PCOD9372421
_publ_section_title
;
Structure prediction by ZEFSAII (Michael W. Deem and Ramdas Pophale) SiO2 
 PCOD9372421
Probable space group: F D D 2
;
_chemical_formula_sum "Si O2"
_cell_formula_units_Z 80
_cell_length_a 10.931159
_cell_length_b 14.848118
_cell_length_c 24.466288
_cell_angle_alpha 90.000000
_cell_angle_beta 90.000000
_cell_angle_gamma 90.000000
_cell_volume 3971.053200
_symmetry_space_group_name_H-M "F D D 2"
_symmetry_group_IT_number 43
_symmetry_cell_setting 'orthorhombic'
loop_
_space_group_symop_operation_xyz
x,y,z
-x,-y,z
1/4-x,1/4+y,1/4+z
1/4+x,1/4-y,1/4+z
x,1/2+y,1/2+z
-x,1/2-y,1/2+z
1/4-x,3/4+y,3/4+z
1/4+x,3/4-y,3/4+z
1/2+x,y,1/2+z
1/2-x,-y,1/2+z
3/4-x,1/4+y,3/4+z
3/4+x,1/4-y,3/4+z
1/2+x,1/2+y,z
1/2-x,1/2-y,z
3/4-x,3/4+y,1/4+z
3/4+x,3/4-y,1/4+z
loop_
_atom_site_type_symbol
_atom_site_label
_atom_site_fract_x
_atom_site_fract_y
_atom_site_fract_z
Si Si1 0.044239 0.398182 0.116460
Si Si2 0.357343 0.509228 0.183629
Si Si3 0.963400 0.717912 0.313524
Si Si4 0.840218 0.664415 0.764594
Si Si5 0.817563 0.156498 0.716085
O O1 0.174581 0.406818 0.085580
O O2 0.070081 0.350368 0.173245
O O3 0.000000 0.500000 0.129659
O O4 0.949101 0.364326 0.071150
O O5 0.500000 0.500000 0.197248
O O6 0.342028 0.510405 0.118249
O O7 0.319922 0.600554 0.213706
O O8 0.272872 0.427254 0.205260
O O9 0.869160 0.662066 0.277332
O O10 0.025800 0.794192 0.275293
O O11 0.750000 0.750000 0.760283
O O12 0.750000 0.250000 0.705044
#
# Coordination Sequence:
#
# PCOD9372421 Si02
#       5
#    16  16  16  16  16
#     4   8  19  37  60  88 115 145 192 243 291 349
#     4  11  23  39  59  85 118 155 194 240 294 345
#     4   9  20  39  59  85 119 150 192 244 289 348
#     4   9  20  40  62  87 115 149 193 241 291 351
#     4  11  22  37  58  85 119 157 194 238 289 347
#
# _framework density 20.145789000000001
#
# number of rings (size 3 to 8) (size 9 to 14) (size 15 to 20)
#    0.000    2.800    0.000    1.800    0.000   12.800 
#    0.000   10.000    0.000    0.000    0.000    0.000 
#    0.000    0.000    0.000    0.000    0.000    0.000 
#
# Total GULP energy -111516.834332 kJ/mol
# GULP energy per Si atom -5575.841717 kJ/mol
# Density = 2.009994 g / cm^3
# Si number density = 20.145789 Si / 1000 Ang^3
#
#
#
# Elastic Constant Matrix: (Units=GPa)
#
#
# Indices 1 2 3 4 5 6 
#
# 1 67.2351 29.7166 33.9043 0.0000 0.0000 0.0000
# 2 29.7166 73.3512 54.1165 0.0000 0.0000 0.0000
# 3 33.9043 54.1165 137.0801 0.0000 0.0000 0.0000
# 4 0.0000 0.0000 0.0000 29.0331 0.0000 0.0000
# 5 0.0000 0.0000 0.0000 0.0000 -41.3269 0.0000
# 6 0.0000 0.0000 0.0000 0.0000 0.0000 13.2334
#
#
#
# Elastic Compliance Matrix: (Units=1/GPa)
#
#
# Indices 1 2 3 4 5 6 
#
# 1 0.018615 -0.005848 -0.002295 0.000000 0.000000 0.000000
# 2 -0.005848 0.021073 -0.006873 0.000000 0.000000 0.000000
# 3 -0.002295 -0.006873 0.010576 0.000000 0.000000 0.000000
# 4 0.000000 0.000000 0.000000 0.034443 0.000000 0.000000
# 5 0.000000 0.000000 0.000000 0.000000 -0.024197 0.000000
# 6 0.000000 0.000000 0.000000 0.000000 0.000000 0.075566
#
#
# Mechanical properties :
#
#
# Convention : Reuss Voigt Hill
#
# Bulk Modulus (GPa) = 49.42754 57.01568 53.22161
# Shear Modulus (GPa) = 28.92629 10.84985 19.88807
#
# Velocity S-wave (km/s) = 3.79337 2.32322 3.14539
# Velocity P-wave (km/s) = 6.61622 5.96317 6.29817
#
# Compressibility (1/GPa) = 0.02023163
#
# Stress axis : x y z
#
# Youngs Moduli (GPa) = 53.71875 47.45469 94.55416
#
# Poissons Ratio (x) = 0.27752 0.21705
# Poissons Ratio (y) = 0.31415 0.64984
# Poissons Ratio (z) = 0.12331 0.32614
#
# Static dielectric constant tensor:
#      x y z
#    x 1.781010 0.000000 0.000000 
#    y 0.000000 1.697460 0.000000 
#    z 0.000000 0.000000 1.732580 
# 
# From -- ./inp_files/20916.got.cif
#   From: 2010.05.17/outbox.cif.g08.bks.cpg/sg43_11_cif.got.tgz:20916.got - 2010.06.03 19:21:55.
