data_PCOD9372260
_publ_section_title
;
Structure prediction by ZEFSAII (Michael W. Deem and Ramdas Pophale) SiO2 
 PCOD9372260
Probable space group: F D D 2
;
_chemical_formula_sum "Si O2"
_cell_formula_units_Z 104
_cell_length_a 17.111990
_cell_length_b 17.111966
_cell_length_c 15.089717
_cell_angle_alpha 90.000000
_cell_angle_beta 90.000000
_cell_angle_gamma 90.000000
_cell_volume 4418.567779
_symmetry_space_group_name_H-M "F D D 2"
_symmetry_group_IT_number 43
_symmetry_cell_setting 'orthorhombic'
loop_
_space_group_symop_operation_xyz
x,y,z
-x,-y,z
1/4-x,1/4+y,1/4+z
1/4+x,1/4-y,1/4+z
x,1/2+y,1/2+z
-x,1/2-y,1/2+z
1/4-x,3/4+y,3/4+z
1/4+x,3/4-y,3/4+z
1/2+x,y,1/2+z
1/2-x,-y,1/2+z
3/4-x,1/4+y,3/4+z
3/4+x,1/4-y,3/4+z
1/2+x,1/2+y,z
1/2-x,1/2-y,z
3/4-x,3/4+y,1/4+z
3/4+x,3/4-y,1/4+z
loop_
_atom_site_type_symbol
_atom_site_label
_atom_site_fract_x
_atom_site_fract_y
_atom_site_fract_z
Si Si1 0.409718 0.981645 0.437790
Si Si2 0.224948 0.942452 0.844275
Si Si3 0.186097 0.912316 0.288328
Si Si4 0.307548 0.525051 0.091285
Si Si5 0.518355 0.409718 0.247771
Si Si6 0.000000 0.500000 0.092780
Si Si7 0.162316 0.936097 0.647233
O O1 0.397258 0.904516 0.378277
O O2 0.500000 0.000000 0.443412
O O3 0.359483 0.047584 0.389139
O O4 0.371778 0.977560 0.536011
O O5 0.272440 0.878222 0.899550
O O6 0.205675 0.929447 0.742081
O O7 0.271586 0.024764 0.850851
O O8 0.179447 0.955676 0.193480
O O9 0.095485 0.897258 0.307283
O O10 0.230403 0.829305 0.288456
O O11 0.225236 0.478414 0.084709
O O12 0.297583 0.609483 0.046422
O O13 0.500000 0.500000 0.242149
O O14 0.079305 0.480403 0.147104
#
# Coordination Sequence:
#
# PCOD9372260 Si02
#       7
#    16  16  16  16  16   8  16
#     4  11  26  45  73 104 145 195 240 307 367 445
#     4  10  26  46  67 110 142 187 248 299 372 442
#     4  11  25  46  74 106 146 190 245 303 374 448
#     4  10  26  46  67 110 142 187 248 299 372 442
#     4  11  26  45  73 104 145 195 240 307 367 445
#     4  12  24  48  76 112 144 196 246 312 376 444
#     4  11  25  46  74 106 146 190 245 303 374 448
#
# _framework density 23.537037999999999
#
# number of rings (size 3 to 8) (size 9 to 14) (size 15 to 20)
#    0.000    1.231    3.077    0.000   10.769    2.462 
#    0.000    0.000    0.000    0.000    0.000    0.000 
#    0.000    0.000    0.000    0.000    0.000    0.000 
#
# Total GULP energy -145272.994452 kJ/mol
# GULP energy per Si atom -5587.422864 kJ/mol
# Density = 2.348347 g / cm^3
# Si number density = 23.537038 Si / 1000 Ang^3
#
#
#
# Elastic Constant Matrix: (Units=GPa)
#
#
# Indices 1 2 3 4 5 6 
#
# 1 134.5477 57.2545 12.2621 0.0000 0.0000 0.0000
# 2 57.2545 134.5460 12.2615 0.0000 0.0000 0.0000
# 3 12.2621 12.2615 48.3553 0.0000 0.0000 0.0000
# 4 0.0000 0.0000 0.0000 21.7276 0.0000 0.0000
# 5 0.0000 0.0000 0.0000 0.0000 21.7275 0.0000
# 6 0.0000 0.0000 0.0000 0.0000 0.0000 32.5890
#
#
#
# Elastic Compliance Matrix: (Units=1/GPa)
#
#
# Indices 1 2 3 4 5 6 
#
# 1 0.009163 -0.003775 -0.001366 0.000000 0.000000 0.000000
# 2 -0.003775 0.009163 -0.001366 0.000000 0.000000 0.000000
# 3 -0.001366 -0.001366 0.021373 0.000000 0.000000 0.000000
# 4 0.000000 0.000000 0.000000 0.046024 0.000000 0.000000
# 5 0.000000 0.000000 0.000000 0.000000 0.046025 0.000000
# 6 0.000000 0.000000 0.000000 0.000000 0.000000 0.030685
#
#
# Mechanical properties :
#
#
# Convention : Reuss Voigt Hill
#
# Bulk Modulus (GPa) = 37.47487 53.44501 45.45994
# Shear Modulus (GPa) = 27.12327 30.92022 29.02175
#
# Velocity S-wave (km/s) = 3.39833 3.62841 3.51525
# Velocity P-wave (km/s) = 5.59950 6.34901 5.98600
#
# Compressibility (1/GPa) = 0.02668455
#
# Stress axis : x y z
#
# Youngs Moduli (GPa) = 109.13316 109.13200 46.78756
#
# Poissons Ratio (x) = 0.41194 0.06393
# Poissons Ratio (y) = 0.41195 0.06393
# Poissons Ratio (z) = 0.14912 0.14911
#
# Static dielectric constant tensor:
#      x y z
#    x 1.922120 0.000000 0.000000 
#    y 0.000000 1.922120 0.000000 
#    z 0.000000 0.000000 1.936240 
# 
# From -- ./inp_files/14256.got.cif
#   From: 2010.05.17/outbox.cif.g08.bks.cpg/sg43_8_cif.got.tgz:14256.got - 2010.06.03 19:21:55.
