data_PCOD9372686
_publ_section_title
;
Structure prediction by ZEFSAII (Michael W. Deem and Ramdas Pophale) SiO2 
 PCOD9372686
Probable space group: F D D 2
;
_chemical_formula_sum "Si O2"
_cell_formula_units_Z 72
_cell_length_a 7.085740
_cell_length_b 32.330143
_cell_length_c 12.662429
_cell_angle_alpha 90.000000
_cell_angle_beta 90.000000
_cell_angle_gamma 90.000000
_cell_volume 2900.747064
_symmetry_space_group_name_H-M "F D D 2"
_symmetry_group_IT_number 43
_symmetry_cell_setting 'orthorhombic'
loop_
_space_group_symop_operation_xyz
x,y,z
-x,-y,z
1/4-x,1/4+y,1/4+z
1/4+x,1/4-y,1/4+z
x,1/2+y,1/2+z
-x,1/2-y,1/2+z
1/4-x,3/4+y,3/4+z
1/4+x,3/4-y,3/4+z
1/2+x,y,1/2+z
1/2-x,-y,1/2+z
3/4-x,1/4+y,3/4+z
3/4+x,1/4-y,3/4+z
1/2+x,1/2+y,z
1/2-x,1/2-y,z
3/4-x,3/4+y,1/4+z
3/4+x,3/4-y,1/4+z
loop_
_atom_site_type_symbol
_atom_site_label
_atom_site_fract_x
_atom_site_fract_y
_atom_site_fract_z
Si Si1 0.798489 0.201971 0.075700
Si Si2 0.381781 0.587670 0.718200
Si Si3 0.631381 0.040295 0.061603
Si Si4 0.900648 0.179127 0.658784
Si Si5 0.500000 0.000000 0.556139
O O1 0.750000 0.250000 0.058773
O O2 0.908298 0.199610 0.188378
O O3 0.604406 0.179280 0.103639
O O4 0.927207 0.182922 0.983811
O O5 0.505238 0.575364 0.616423
O O6 0.369922 0.636954 0.722938
O O7 0.503066 0.569976 0.814225
O O8 0.500000 0.000000 0.071778
O O9 0.835736 0.028205 0.108650
O O10 0.869879 0.218523 0.732953
#
# Coordination Sequence:
#
# PCOD9372686 Si02
#       5
#    16  16  16  16   8
#     4  11  24  50  76 108 156 201 261 330 391 474
#     4  12  29  46  76 113 156 202 267 324 396 470
#     4  11  25  46  76 111 149 201 258 314 399 475
#     4  12  26  48  75 110 152 210 257 324 398 464
#     4  12  24  50  80 106 162 204 254 334 390 480
#
# _framework density 24.821193000000001
#
# number of rings (size 3 to 8) (size 9 to 14) (size 15 to 20)
#    0.000    0.444    6.667    1.333    7.778    3.556 
#    0.000    0.000    0.000    0.000    0.000    0.000 
#    0.000    0.000    0.000    0.000    0.000    0.000 
#
# Total GULP energy -100864.769513 kJ/mol
# GULP energy per Si atom -5603.598306 kJ/mol
# Density = 2.476470 g / cm^3
# Si number density = 24.821193 Si / 1000 Ang^3
#
#
#
# Elastic Constant Matrix: (Units=GPa)
#
#
# Indices 1 2 3 4 5 6 
#
# 1 187.9062 37.3051 35.9559 0.0000 0.0000 0.0000
# 2 37.3051 125.7728 25.9369 0.0000 0.0000 0.0000
# 3 35.9559 25.9369 82.6542 0.0000 0.0000 0.0000
# 4 0.0000 0.0000 0.0000 31.0192 0.0000 0.0000
# 5 0.0000 0.0000 0.0000 0.0000 27.2494 0.0000
# 6 0.0000 0.0000 0.0000 0.0000 0.0000 35.2837
#
#
#
# Elastic Compliance Matrix: (Units=1/GPa)
#
#
# Indices 1 2 3 4 5 6 
#
# 1 0.006006 -0.001329 -0.002196 0.000000 0.000000 0.000000
# 2 -0.001329 0.008795 -0.002182 0.000000 0.000000 0.000000
# 3 -0.002196 -0.002182 0.013738 0.000000 0.000000 0.000000
# 4 0.000000 0.000000 0.000000 0.032238 0.000000 0.000000
# 5 0.000000 0.000000 0.000000 0.000000 0.036698 0.000000
# 6 0.000000 0.000000 0.000000 0.000000 0.000000 0.028342
#
#
# Mechanical properties :
#
#
# Convention : Reuss Voigt Hill
#
# Bulk Modulus (GPa) = 58.38815 66.08100 62.23458
# Shear Modulus (GPa) = 34.98020 38.51948 36.74984
#
# Velocity S-wave (km/s) = 3.75812 3.94366 3.85201
# Velocity P-wave (km/s) = 6.51198 6.88602 6.70161
#
# Compressibility (1/GPa) = 0.01712676
#
# Stress axis : x y z
#
# Youngs Moduli (GPa) = 166.50839 113.70293 72.78852
#
# Poissons Ratio (x) = 0.15106 0.15982
# Poissons Ratio (y) = 0.22121 0.15882
# Poissons Ratio (z) = 0.36560 0.24809
#
# Static dielectric constant tensor:
#      x y z
#    x 1.981190 0.000000 0.000000 
#    y 0.000000 1.876290 0.000000 
#    z 0.000000 0.000000 2.047220 
# 
# From -- ./inp_files/9149.got.cif
#   From: 2010.05.17/outbox.cif.g08.bks.cpg/sg43_5_cif.got.tgz:9149.got - 2010.06.03 19:21:55.
