data_PCOD9372160
_publ_section_title
;
Structure prediction by ZEFSAII (Michael W. Deem and Ramdas Pophale) SiO2 
 PCOD9372160
Probable space group: F D D 2
;
_chemical_formula_sum "Si O2"
_cell_formula_units_Z 120
_cell_length_a 23.291887
_cell_length_b 27.004552
_cell_length_c 8.609561
_cell_angle_alpha 90.000000
_cell_angle_beta 90.000000
_cell_angle_gamma 90.000000
_cell_volume 5415.301718
_symmetry_space_group_name_H-M "F D D 2"
_symmetry_group_IT_number 43
_symmetry_cell_setting 'orthorhombic'
loop_
_space_group_symop_operation_xyz
x,y,z
-x,-y,z
1/4-x,1/4+y,1/4+z
1/4+x,1/4-y,1/4+z
x,1/2+y,1/2+z
-x,1/2-y,1/2+z
1/4-x,3/4+y,3/4+z
1/4+x,3/4-y,3/4+z
1/2+x,y,1/2+z
1/2-x,-y,1/2+z
3/4-x,1/4+y,3/4+z
3/4+x,1/4-y,3/4+z
1/2+x,1/2+y,z
1/2-x,1/2-y,z
3/4-x,3/4+y,1/4+z
3/4+x,3/4-y,1/4+z
loop_
_atom_site_type_symbol
_atom_site_label
_atom_site_fract_x
_atom_site_fract_y
_atom_site_fract_z
Si Si1 0.236289 0.641900 0.017530
Si Si2 0.054879 0.625371 0.443700
Si Si3 0.789370 0.619572 0.851347
Si Si4 0.000000 0.500000 0.682465
Si Si5 0.643928 0.064983 0.023206
Si Si6 0.134817 0.777239 0.753504
Si Si7 0.564142 0.235318 0.499564
Si Si8 0.065320 0.744516 0.039109
O O1 0.253098 0.624963 0.191865
O O2 0.275806 0.629558 0.865507
O O3 0.234774 0.700887 0.025549
O O4 0.178129 0.613904 0.974282
O O5 0.018153 0.621962 0.280976
O O6 0.105314 0.584245 0.452641
O O7 0.074430 0.681793 0.429551
O O8 0.835813 0.663484 0.838345
O O9 0.815293 0.563761 0.828242
O O10 0.944739 0.488735 0.577270
O O11 0.637939 0.026096 0.884728
O O12 0.683137 0.032269 0.136577
O O13 0.118154 0.744960 0.607559
O O14 0.082490 0.762601 0.867520
O O15 0.499944 0.237125 0.571049
#
# Coordination Sequence:
#
# PCOD9372160 Si02
#       8
#    16  16  16   8  16  16  16  16
#     4  11  24  45  68  99 140 193 236 296 361 438
#     4  11  24  45  68 102 144 184 244 291 369 437
#     4  12  25  43  69 106 142 182 240 305 361 434
#     4  10  24  48  70 100 154 200 246 290 382 452
#     4  12  23  41  69 101 141 180 242 301 361 433
#     4  11  25  46  71 104 146 197 239 305 367 447
#     4  12  23  44  72 110 138 184 249 302 365 437
#     4  12  24  43  75 103 143 189 243 309 371 432
#
# _framework density 22.15943
#
# number of rings (size 3 to 8) (size 9 to 14) (size 15 to 20)
#    0.000    0.533    5.333    4.000    0.000    1.067 
#    0.000    2.667    0.000    0.000    0.000    0.000 
#    0.000    0.000    0.000    0.000    0.000    0.000 
#
# Total GULP energy -167089.628037 kJ/mol
# GULP energy per Si atom -5569.654268 kJ/mol
# Density = 2.210899 g / cm^3
# Si number density = 22.159430 Si / 1000 Ang^3
#
#
#
# Elastic Constant Matrix: (Units=GPa)
#
#
# Indices 1 2 3 4 5 6 
#
# 1 33.9202 10.6537 -4.3392 0.0018 -0.0017 -0.0023
# 2 10.6537 149.3227 26.5063 0.0002 -0.0014 -0.0003
# 3 -4.3392 26.5063 86.0890 0.0050 -0.0048 -0.0052
# 4 0.0018 0.0002 0.0050 33.9993 -0.0018 -0.0016
# 5 -0.0017 -0.0014 -0.0048 -0.0018 -0.3621 0.0015
# 6 -0.0023 -0.0003 -0.0052 -0.0016 0.0015 24.8684
#
#
#
# Elastic Compliance Matrix: (Units=1/GPa)
#
#
# Indices 1 2 3 4 5 6 
#
# 1 0.030597 -0.002599 0.002342 -0.000002 -0.000166 0.000003
# 2 -0.002599 0.007305 -0.002380 0.000000 0.000016 -0.000001
# 3 0.002342 -0.002380 0.012467 -0.000002 -0.000168 0.000003
# 4 -0.000002 0.000000 -0.000002 0.029412 -0.000145 0.000002
# 5 -0.000166 0.000016 -0.000168 -0.000145 -2.761349 0.000171
# 6 0.000003 -0.000001 0.000003 0.000002 0.000171 0.040212
#
#
# Mechanical properties :
#
#
# Convention : Reuss Voigt Hill
#
# Bulk Modulus (GPa) = 22.17527 37.21928 29.69728
# Shear Modulus (GPa) = -1.90763 27.46853 12.78045
#
# Velocity S-wave (km/s) = -0.92884 3.52460 2.40417
# Velocity P-wave (km/s) = 2.97969 5.77895 4.59755
#
# Compressibility (1/GPa) = 0.04509527
#
# Stress axis : x y z
#
# Youngs Moduli (GPa) = 32.68317 136.89612 80.21336
#
# Poissons Ratio (x) = 0.35576 -0.18789
# Poissons Ratio (y) = 0.08494 0.19092
# Poissons Ratio (z) = -0.07655 0.32583
#
# Static dielectric constant tensor:
#      x y z
#    x 1.802080 0.000000 -0.000010 
#    y 0.000000 1.773210 0.000010 
#    z -0.000010 0.000010 2.310230 
# 
# From -- ./inp_files/3899.got.cif
#   From: 2010.05.17/outbox.cif.g08.bks.cpg/sg43_2_cif.got.tgz:3899.got - 2010.06.03 19:21:55.
