data_PCOD9372664
_publ_section_title
;
Structure prediction by ZEFSAII (Michael W. Deem and Ramdas Pophale) SiO2 
 PCOD9372664
Probable space group: F D D 2
;
_chemical_formula_sum "Si O2"
_cell_formula_units_Z 112
_cell_length_a 27.927257
_cell_length_b 14.858021
_cell_length_c 11.453606
_cell_angle_alpha 90.000000
_cell_angle_beta 90.000000
_cell_angle_gamma 90.000000
_cell_volume 4752.602465
_symmetry_space_group_name_H-M "F D D 2"
_symmetry_group_IT_number 43
_symmetry_cell_setting 'orthorhombic'
loop_
_space_group_symop_operation_xyz
x,y,z
-x,-y,z
1/4-x,1/4+y,1/4+z
1/4+x,1/4-y,1/4+z
x,1/2+y,1/2+z
-x,1/2-y,1/2+z
1/4-x,3/4+y,3/4+z
1/4+x,3/4-y,3/4+z
1/2+x,y,1/2+z
1/2-x,-y,1/2+z
3/4-x,1/4+y,3/4+z
3/4+x,1/4-y,3/4+z
1/2+x,1/2+y,z
1/2-x,1/2-y,z
3/4-x,3/4+y,1/4+z
3/4+x,3/4-y,1/4+z
loop_
_atom_site_type_symbol
_atom_site_label
_atom_site_fract_x
_atom_site_fract_y
_atom_site_fract_z
Si Si1 0.081465 0.275872 0.660550
Si Si2 0.250000 0.750000 0.118894
Si Si3 0.085379 0.072686 0.236672
Si Si4 0.885716 0.727077 0.266546
Si Si5 0.595913 0.084036 0.280337
Si Si6 0.226322 0.059453 0.181255
Si Si7 0.000000 0.000000 0.845172
Si Si8 0.557811 0.837108 0.897073
O O1 0.130973 0.290316 0.593031
O O2 0.081635 0.179640 0.724525
O O3 0.043079 0.284074 0.558238
O O4 0.072315 0.347688 0.761835
O O5 0.217413 0.812428 0.036230
O O6 0.216402 0.680497 0.189067
O O7 0.101944 0.175197 0.214297
O O8 0.096450 0.018860 0.119107
O O9 0.864234 0.666143 0.164235
O O10 0.933761 0.698509 0.335490
O O11 0.549155 0.020113 0.274574
O O12 0.643991 0.058235 0.211548
O O13 0.243323 0.161443 0.172582
O O14 0.268286 0.990089 0.154688
#
# Coordination Sequence:
#
# PCOD9372664 Si02
#       8
#    16   8  16  16  16  16   8  16
#     4  11  26  49  73 110 159 203 263 337 405 492
#     4  12  24  45  79 114 148 208 263 327 420 484
#     4  11  24  47  76 108 156 204 266 328 406 498
#     4  11  26  48  75 114 153 209 266 335 408 493
#     4  12  28  48  78 116 161 209 274 342 416 492
#     4  11  27  50  77 112 160 212 276 337 414 498
#     4  12  28  53  77 116 152 224 271 341 414 484
#     4  12  27  48  76 116 157 207 267 340 412 492
#
# _framework density 23.566037000000001
#
# number of rings (size 3 to 8) (size 9 to 14) (size 15 to 20)
#    0.000    0.571    4.286    2.571    8.000    2.286 
#    0.000    1.429    0.000    0.000    0.000    0.000 
#    0.000    0.000    0.000    0.000    0.000    0.000 
#
# Total GULP energy -156749.842772 kJ/mol
# GULP energy per Si atom -5598.208670 kJ/mol
# Density = 2.351240 g / cm^3
# Si number density = 23.566037 Si / 1000 Ang^3
#
#
#
# Elastic Constant Matrix: (Units=GPa)
#
#
# Indices 1 2 3 4 5 6 
#
# 1 142.7718 35.7355 67.6755 0.0000 0.0000 0.0000
# 2 35.7355 139.5440 32.8109 0.0000 0.0000 0.0000
# 3 67.6755 32.8109 124.6835 0.0000 0.0000 0.0000
# 4 0.0000 0.0000 0.0000 26.1954 0.0000 0.0000
# 5 0.0000 0.0000 0.0000 0.0000 15.9395 0.0000
# 6 0.0000 0.0000 0.0000 0.0000 0.0000 31.9451
#
#
#
# Elastic Compliance Matrix: (Units=1/GPa)
#
#
# Indices 1 2 3 4 5 6 
#
# 1 0.009654 -0.001322 -0.004892 0.000000 0.000000 0.000000
# 2 -0.001322 0.007820 -0.001340 0.000000 0.000000 0.000000
# 3 -0.004892 -0.001340 0.011028 0.000000 0.000000 0.000000
# 4 0.000000 0.000000 0.000000 0.038175 0.000000 0.000000
# 5 0.000000 0.000000 0.000000 0.000000 0.062737 0.000000
# 6 0.000000 0.000000 0.000000 0.000000 0.000000 0.031304
#
#
# Mechanical properties :
#
#
# Convention : Reuss Voigt Hill
#
# Bulk Modulus (GPa) = 74.66324 75.49368 75.07846
# Shear Modulus (GPa) = 27.73297 32.86783 30.30040
#
# Velocity S-wave (km/s) = 3.43420 3.73864 3.58965
# Velocity P-wave (km/s) = 6.89031 7.12327 7.00776
#
# Compressibility (1/GPa) = 0.01339347
#
# Stress axis : x y z
#
# Youngs Moduli (GPa) = 103.58416 127.87916 90.67559
#
# Poissons Ratio (x) = 0.16906 0.44359
# Poissons Ratio (y) = 0.13694 0.12153
# Poissons Ratio (z) = 0.50674 0.17139
#
# Static dielectric constant tensor:
#      x y z
#    x 1.929510 0.000000 0.000000 
#    y 0.000000 1.921560 0.000000 
#    z 0.000000 0.000000 1.846710 
# 
# From -- ./inp_files/8318.got.cif
#   From: 2010.05.17/outbox.cif.g08.bks.cpg/sg43_5_cif.got.tgz:8318.got - 2010.06.03 19:21:55.
