data_PCOD9372269
_publ_section_title
;
Structure prediction by ZEFSAII (Michael W. Deem and Ramdas Pophale) SiO2 
 PCOD9372269
Probable space group: F D D 2
;
_chemical_formula_sum "Si O2"
_cell_formula_units_Z 104
_cell_length_a 18.554726
_cell_length_b 8.800953
_cell_length_c 25.145910
_cell_angle_alpha 90.000000
_cell_angle_beta 90.000000
_cell_angle_gamma 90.000000
_cell_volume 4106.308783
_symmetry_space_group_name_H-M "F D D 2"
_symmetry_group_IT_number 43
_symmetry_cell_setting 'orthorhombic'
loop_
_space_group_symop_operation_xyz
x,y,z
-x,-y,z
1/4-x,1/4+y,1/4+z
1/4+x,1/4-y,1/4+z
x,1/2+y,1/2+z
-x,1/2-y,1/2+z
1/4-x,3/4+y,3/4+z
1/4+x,3/4-y,3/4+z
1/2+x,y,1/2+z
1/2-x,-y,1/2+z
3/4-x,1/4+y,3/4+z
3/4+x,1/4-y,3/4+z
1/2+x,1/2+y,z
1/2-x,1/2-y,z
3/4-x,3/4+y,1/4+z
3/4+x,3/4-y,1/4+z
loop_
_atom_site_type_symbol
_atom_site_label
_atom_site_fract_x
_atom_site_fract_y
_atom_site_fract_z
Si Si1 0.750000 0.250000 0.411150
Si Si2 0.318450 0.352432 0.076115
Si Si3 0.319333 0.693509 0.097473
Si Si4 0.106019 0.292898 0.981955
Si Si5 0.285983 0.895949 0.698124
Si Si6 0.398997 0.123928 0.746973
Si Si7 0.224098 0.083850 0.396193
O O1 0.822876 0.240466 0.446297
O O2 0.755035 0.416426 0.382195
O O3 0.250000 0.250000 0.060117
O O4 0.308698 0.531814 0.069172
O O5 0.318523 0.342525 0.140980
O O6 0.382359 0.296232 0.037949
O O7 0.250000 0.750000 0.128873
O O8 0.390399 0.676011 0.131263
O O9 0.330838 0.825666 0.055474
O O10 0.105917 0.469671 0.996263
O O11 0.035505 0.248943 0.948724
O O12 0.250000 0.750000 0.725749
O O13 0.349410 0.985897 0.726333
O O14 0.469100 0.152009 0.710152
O O15 0.250000 0.250000 0.375928
#
# Coordination Sequence:
#
# PCOD9372269 Si02
#       7
#     8  16  16  16  16  16  16
#     4  10  26  46  76 108 154 204 256 322 406 468
#     4  11  24  43  72 115 147 200 259 320 396 492
#     4  12  27  46  78 108 152 200 261 322 408 487
#     4  11  24  47  75 110 156 202 265 324 403 484
#     4  11  25  44  76 113 154 203 255 332 402 485
#     4  11  25  50  73 111 150 205 258 327 405 486
#     4  11  27  49  77 110 155 200 264 324 401 486
#
# _framework density 25.326882999999999
#
# number of rings (size 3 to 8) (size 9 to 14) (size 15 to 20)
#    0.000    0.923    2.308    2.769   10.769    1.846 
#    5.538    0.000    0.000    0.000    0.000    0.000 
#    0.000    0.000    0.000    0.000    0.000    0.000 
#
# Total GULP energy -145321.393105 kJ/mol
# GULP energy per Si atom -5589.284350 kJ/mol
# Density = 2.526924 g / cm^3
# Si number density = 25.326883 Si / 1000 Ang^3
#
#
#
# Elastic Constant Matrix: (Units=GPa)
#
#
# Indices 1 2 3 4 5 6 
#
# 1 76.3044 38.4738 26.4615 0.0000 0.0000 0.0000
# 2 38.4738 209.0227 28.0263 0.0000 0.0000 0.0000
# 3 26.4615 28.0263 59.3278 0.0000 0.0000 0.0000
# 4 0.0000 0.0000 0.0000 52.6802 0.0000 0.0000
# 5 0.0000 0.0000 0.0000 0.0000 15.2327 0.0000
# 6 0.0000 0.0000 0.0000 0.0000 0.0000 51.9774
#
#
#
# Elastic Compliance Matrix: (Units=1/GPa)
#
#
# Indices 1 2 3 4 5 6 
#
# 1 0.016378 -0.002173 -0.006279 0.000000 0.000000 0.000000
# 2 -0.002173 0.005396 -0.001580 0.000000 0.000000 0.000000
# 3 -0.006279 -0.001580 0.020402 0.000000 0.000000 0.000000
# 4 0.000000 0.000000 0.000000 0.018982 0.000000 0.000000
# 5 0.000000 0.000000 0.000000 0.000000 0.065648 0.000000
# 6 0.000000 0.000000 0.000000 0.000000 0.000000 0.019239
#
#
# Mechanical properties :
#
#
# Convention : Reuss Voigt Hill
#
# Bulk Modulus (GPa) = 45.22068 58.95312 52.08690
# Shear Modulus (GPa) = 28.82169 40.75761 34.78965
#
# Velocity S-wave (km/s) = 3.37707 4.01591 3.71027
# Velocity P-wave (km/s) = 5.75323 6.69558 6.24222
#
# Compressibility (1/GPa) = 0.02211378
#
# Stress axis : x y z
#
# Youngs Moduli (GPa) = 61.05622 185.32423 49.01421
#
# Poissons Ratio (x) = 0.40268 0.30774
# Poissons Ratio (y) = 0.13266 0.07744
# Poissons Ratio (z) = 0.38335 0.29279
#
# Static dielectric constant tensor:
#      x y z
#    x 2.007070 0.000000 0.000000 
#    y 0.000000 2.024770 0.000000 
#    z 0.000000 0.000000 2.018940 
# 
# From -- ./inp_files/26337.got.cif
#   From: 2010.05.17/outbox.cif.g08.bks.cpg/sg43_14_cif.got.tgz:26337.got - 2010.06.03 19:21:55.
