data_PCOD9372386
_publ_section_title
;
Structure prediction by ZEFSAII (Michael W. Deem and Ramdas Pophale) SiO2 
 PCOD9372386
Probable space group: F D D 2
;
_chemical_formula_sum "Si O2"
_cell_formula_units_Z 120
_cell_length_a 25.348731
_cell_length_b 17.228899
_cell_length_c 12.087630
_cell_angle_alpha 90.000000
_cell_angle_beta 90.000000
_cell_angle_gamma 90.000000
_cell_volume 5279.039428
_symmetry_space_group_name_H-M "F D D 2"
_symmetry_group_IT_number 43
_symmetry_cell_setting 'orthorhombic'
loop_
_space_group_symop_operation_xyz
x,y,z
-x,-y,z
1/4-x,1/4+y,1/4+z
1/4+x,1/4-y,1/4+z
x,1/2+y,1/2+z
-x,1/2-y,1/2+z
1/4-x,3/4+y,3/4+z
1/4+x,3/4-y,3/4+z
1/2+x,y,1/2+z
1/2-x,-y,1/2+z
3/4-x,1/4+y,3/4+z
3/4+x,1/4-y,3/4+z
1/2+x,1/2+y,z
1/2-x,1/2-y,z
3/4-x,3/4+y,1/4+z
3/4+x,3/4-y,1/4+z
loop_
_atom_site_type_symbol
_atom_site_label
_atom_site_fract_x
_atom_site_fract_y
_atom_site_fract_z
Si Si1 0.658799 0.697397 0.552720
Si Si2 0.782446 0.574244 0.055526
Si Si3 0.631893 0.592109 0.748889
Si Si4 0.574688 0.384698 0.735143
Si Si5 0.006884 0.836479 0.244557
Si Si6 0.678876 0.428880 0.789635
Si Si7 0.933334 0.897064 0.429671
Si Si8 0.000000 0.000000 0.605793
O O1 0.661843 0.649405 0.667578
O O2 0.709708 0.666267 0.485009
O O3 0.609019 0.660149 0.487662
O O4 0.660055 0.786367 0.595181
O O5 0.821283 0.632031 0.990949
O O6 0.795645 0.486836 0.015208
O O7 0.788961 0.598984 0.182873
O O8 0.721444 0.580876 0.027450
O O9 0.647188 0.604807 0.875510
O O10 0.652717 0.505974 0.734161
O O11 0.623273 0.388902 0.820657
O O12 0.541670 0.457318 0.686483
O O13 0.968860 0.819544 0.140808
O O14 0.971869 0.846179 0.354149
O O15 0.967611 0.942518 0.523026
#
# Coordination Sequence:
#
# PCOD9372386 Si02
#       8
#    16  16  16  16  16  16  16   8
#     4  12  24  44  71 107 142 184 238 303 360 432
#     4  11  24  41  69 100 134 183 231 289 360 425
#     4  11  21  41  66 102 134 169 233 296 350 423
#     4  11  22  40  67  98 137 177 237 285 359 421
#     4  12  25  44  68  97 144 188 233 293 365 438
#     4  11  25  42  67  99 140 183 232 294 352 441
#     4  12  26  45  73 106 145 188 245 298 370 436
#     4  12  22  44  76 102 136 182 232 308 352 428
#
# _framework density 22.731407000000001
#
# number of rings (size 3 to 8) (size 9 to 14) (size 15 to 20)
#    0.000    0.533    5.333    3.200    0.000    4.267 
#    0.000    0.000    8.800    0.000    0.000    0.000 
#    0.000    0.000    0.000    0.000    0.000    0.000 
#
# Total GULP energy -167300.902341 kJ/mol
# GULP energy per Si atom -5576.696745 kJ/mol
# Density = 2.267967 g / cm^3
# Si number density = 22.731407 Si / 1000 Ang^3
#
#
#
# Elastic Constant Matrix: (Units=GPa)
#
#
# Indices 1 2 3 4 5 6 
#
# 1 103.3217 9.0236 42.6339 0.0000 0.0000 0.0000
# 2 9.0236 60.1091 11.9744 0.0000 0.0000 0.0000
# 3 42.6339 11.9744 81.9388 0.0000 0.0000 0.0000
# 4 0.0000 0.0000 0.0000 23.8986 0.0000 0.0000
# 5 0.0000 0.0000 0.0000 0.0000 24.1913 0.0000
# 6 0.0000 0.0000 0.0000 0.0000 0.0000 32.7026
#
#
#
# Elastic Compliance Matrix: (Units=1/GPa)
#
#
# Indices 1 2 3 4 5 6 
#
# 1 0.012345 -0.000591 -0.006337 0.000000 0.000000 0.000000
# 2 -0.000591 0.017164 -0.002201 0.000000 0.000000 0.000000
# 3 -0.006337 -0.002201 0.015823 0.000000 0.000000 0.000000
# 4 0.000000 0.000000 0.000000 0.041843 0.000000 0.000000
# 5 0.000000 0.000000 0.000000 0.000000 0.041337 0.000000
# 6 0.000000 0.000000 0.000000 0.000000 0.000000 0.030579
#
#
# Mechanical properties :
#
#
# Convention : Reuss Voigt Hill
#
# Bulk Modulus (GPa) = 36.93531 41.40373 39.16952
# Shear Modulus (GPa) = 26.82796 28.27433 27.55115
#
# Velocity S-wave (km/s) = 3.43915 3.53064 3.48520
# Velocity P-wave (km/s) = 5.66165 5.90546 5.78484
#
# Compressibility (1/GPa) = 0.02707436
#
# Stress axis : x y z
#
# Youngs Moduli (GPa) = 81.00498 58.26298 63.19904
#
# Poissons Ratio (x) = 0.03442 0.40049
# Poissons Ratio (y) = 0.04786 0.13909
# Poissons Ratio (z) = 0.51332 0.12823
#
# Static dielectric constant tensor:
#      x y z
#    x 1.930940 0.000000 0.000000 
#    y 0.000000 1.828080 0.000000 
#    z 0.000000 0.000000 1.837630 
# 
# From -- ./inp_files/7616.got.cif
#   From: 2010.05.17/outbox.cif.g08.bks.cpg/sg43_4_cif.got.tgz:7616.got - 2010.06.03 19:21:55.
