data_PCOD9372687
_publ_section_title
;
Structure prediction by ZEFSAII (Michael W. Deem and Ramdas Pophale) SiO2 
 PCOD9372687
Probable space group: F D D 2
;
_chemical_formula_sum "Si O2"
_cell_formula_units_Z 48
_cell_length_a 6.004241
_cell_length_b 24.392421
_cell_length_c 13.381520
_cell_angle_alpha 90.000000
_cell_angle_beta 90.000000
_cell_angle_gamma 90.000000
_cell_volume 1959.830312
_symmetry_space_group_name_H-M "F D D 2"
_symmetry_group_IT_number 43
_symmetry_cell_setting 'orthorhombic'
loop_
_space_group_symop_operation_xyz
x,y,z
-x,-y,z
1/4-x,1/4+y,1/4+z
1/4+x,1/4-y,1/4+z
x,1/2+y,1/2+z
-x,1/2-y,1/2+z
1/4-x,3/4+y,3/4+z
1/4+x,3/4-y,3/4+z
1/2+x,y,1/2+z
1/2-x,-y,1/2+z
3/4-x,1/4+y,3/4+z
3/4+x,1/4-y,3/4+z
1/2+x,1/2+y,z
1/2-x,1/2-y,z
3/4-x,3/4+y,1/4+z
3/4+x,3/4-y,1/4+z
loop_
_atom_site_type_symbol
_atom_site_label
_atom_site_fract_x
_atom_site_fract_y
_atom_site_fract_z
Si Si1 0.681374 0.946207 0.345650
Si Si2 0.500000 0.000000 0.998309
Si Si3 0.853545 0.676373 0.280973
Si Si4 0.750000 0.750000 0.445884
O O1 0.465583 0.945104 0.419094
O O2 0.660495 0.888387 0.289394
O O3 0.868770 0.955838 0.430000
O O4 0.781839 0.988028 0.263518
O O5 0.329173 0.040290 0.052899
O O6 0.702258 0.699338 0.371435
#
# Coordination Sequence:
#
# PCOD9372687 Si02
#       4
#    16   8  16   8
#     4  11  25  48  75 115 152 205 261 312 388 462
#     4  11  26  48  73 112 158 195 262 318 379 462
#     4  12  24  51  75 115 157 204 263 315 389 461
#     4  11  24  50  79 112 154 205 250 328 387 452
#
# _framework density 24.491917999999998
#
# number of rings (size 3 to 8) (size 9 to 14) (size 15 to 20)
#    0.000    0.667    6.667    0.000    0.000    2.667 
#   18.000    0.000    0.000    0.000    0.000    0.000 
#    0.000    0.000    0.000    0.000    0.000    0.000 
#
# Total GULP energy -66806.713169 kJ/mol
# GULP energy per Si atom -5567.226097 kJ/mol
# Density = 2.443617 g / cm^3
# Si number density = 24.491918 Si / 1000 Ang^3
#
#
#
# Elastic Constant Matrix: (Units=GPa)
#
#
# Indices 1 2 3 4 5 6 
#
# 1 85.5031 52.9125 40.5753 0.0000 0.0000 0.0000
# 2 52.9125 142.1637 36.4571 0.0000 0.0000 0.0000
# 3 40.5753 36.4571 161.5535 0.0000 0.0000 0.0000
# 4 0.0000 0.0000 0.0000 25.0124 0.0000 0.0000
# 5 0.0000 0.0000 0.0000 0.0000 31.8633 0.0000
# 6 0.0000 0.0000 0.0000 0.0000 0.0000 24.3722
#
#
#
# Elastic Compliance Matrix: (Units=1/GPa)
#
#
# Indices 1 2 3 4 5 6 
#
# 1 0.016389 -0.005354 -0.002908 0.000000 0.000000 0.000000
# 2 -0.005354 0.009215 -0.000735 0.000000 0.000000 0.000000
# 3 -0.002908 -0.000735 0.007086 0.000000 0.000000 0.000000
# 4 0.000000 0.000000 0.000000 0.039980 0.000000 0.000000
# 5 0.000000 0.000000 0.000000 0.000000 0.031384 0.000000
# 6 0.000000 0.000000 0.000000 0.000000 0.000000 0.041030
#
#
# Mechanical properties :
#
#
# Convention : Reuss Voigt Hill
#
# Bulk Modulus (GPa) = 68.04369 72.12332 70.08351
# Shear Modulus (GPa) = 29.76593 33.53461 31.65027
#
# Velocity S-wave (km/s) = 3.48995 3.70430 3.59872
# Velocity P-wave (km/s) = 6.63943 6.91430 6.77826
#
# Compressibility (1/GPa) = 0.01469644
#
# Stress axis : x y z
#
# Youngs Moduli (GPa) = 61.01753 108.51456 141.12172
#
# Poissons Ratio (x) = 0.58099 0.41037
# Poissons Ratio (y) = 0.32669 0.10371
# Poissons Ratio (z) = 0.17743 0.07974
#
# Static dielectric constant tensor:
#      x y z
#    x 2.063080 0.000000 0.000000 
#    y 0.000000 1.986350 0.000000 
#    z 0.000000 0.000000 1.949490 
# 
# From -- ./inp_files/8564.got.cif
#   From: 2010.05.17/outbox.cif.g08.bks.cpg/sg43_5_cif.got.tgz:8564.got - 2010.06.03 19:21:55.
