data_PCOD9372328
_publ_section_title
;
Structure prediction by ZEFSAII (Michael W. Deem and Ramdas Pophale) SiO2 
 PCOD9372328
Probable space group: F D D 2
;
_chemical_formula_sum "Si O2"
_cell_formula_units_Z 112
_cell_length_a 10.853355
_cell_length_b 29.546516
_cell_length_c 14.372244
_cell_angle_alpha 90.000000
_cell_angle_beta 90.000000
_cell_angle_gamma 90.000000
_cell_volume 4608.874350
_symmetry_space_group_name_H-M "F D D 2"
_symmetry_group_IT_number 43
_symmetry_cell_setting 'orthorhombic'
loop_
_space_group_symop_operation_xyz
x,y,z
-x,-y,z
1/4-x,1/4+y,1/4+z
1/4+x,1/4-y,1/4+z
x,1/2+y,1/2+z
-x,1/2-y,1/2+z
1/4-x,3/4+y,3/4+z
1/4+x,3/4-y,3/4+z
1/2+x,y,1/2+z
1/2-x,-y,1/2+z
3/4-x,1/4+y,3/4+z
3/4+x,1/4-y,3/4+z
1/2+x,1/2+y,z
1/2-x,1/2-y,z
3/4-x,3/4+y,1/4+z
3/4+x,3/4-y,1/4+z
loop_
_atom_site_type_symbol
_atom_site_label
_atom_site_fract_x
_atom_site_fract_y
_atom_site_fract_z
Si Si1 0.698247 0.068477 0.280690
Si Si2 0.079049 0.679535 0.728789
Si Si3 0.837252 0.902642 0.323347
Si Si4 0.333649 0.968261 0.465364
Si Si5 0.047002 0.950844 0.441978
Si Si6 0.606814 0.765067 0.434920
Si Si7 0.835411 0.658072 0.842863
O O1 0.616718 0.057804 0.373457
O O2 0.796028 0.108492 0.305800
O O3 0.607670 0.088874 0.201895
O O4 0.771473 0.025872 0.230087
O O5 0.169141 0.647318 0.782693
O O6 0.117678 0.729253 0.703964
O O7 0.029436 0.656133 0.638067
O O8 0.958519 0.678365 0.795300
O O9 0.834074 0.941279 0.247336
O O10 0.962691 0.915077 0.382896
O O11 0.191899 0.957228 0.438813
O O12 0.340645 0.967587 0.577902
O O13 0.017887 0.940390 0.549596
O O14 0.000000 0.000000 0.412779
O O15 0.750000 0.750000 0.441446
#
# Coordination Sequence:
#
# PCOD9372328 Si02
#       7
#    16  16  16  16  16  16  16
#     4  12  23  44  68 104 131 177 224 284 342 402
#     4  11  21  37  63 103 125 164 223 280 325 399
#     4  11  23  38  67  94 129 169 217 279 329 393
#     4  12  24  41  66  96 137 171 225 275 345 403
#     4  11  19  40  66 102 128 165 215 280 341 403
#     4  12  25  43  65  93 134 179 222 280 340 396
#     4  11  22  38  75 102 135 164 229 284 334 411
#
# _framework density 24.300944999999999
#
# number of rings (size 3 to 8) (size 9 to 14) (size 15 to 20)
#    0.000    0.571    5.714    5.571    2.000    0.000 
#    0.000    5.000    0.000    0.000    0.000    0.000 
#    0.000    0.000    0.000    0.000    0.000    0.000 
#
# Total GULP energy -156235.553776 kJ/mol
# GULP energy per Si atom -5579.841206 kJ/mol
# Density = 2.424563 g / cm^3
# Si number density = 24.300945 Si / 1000 Ang^3
#
#
#
# Elastic Constant Matrix: (Units=GPa)
#
#
# Indices 1 2 3 4 5 6 
#
# 1 33.3099 11.9468 25.3528 0.0000 0.0000 0.0000
# 2 11.9468 81.3619 34.0894 0.0000 0.0000 0.0000
# 3 25.3528 34.0894 159.8613 0.0000 0.0000 0.0000
# 4 0.0000 0.0000 0.0000 49.3407 0.0000 0.0000
# 5 0.0000 0.0000 0.0000 0.0000 37.1899 0.0000
# 6 0.0000 0.0000 0.0000 0.0000 0.0000 11.6268
#
#
#
# Elastic Compliance Matrix: (Units=1/GPa)
#
#
# Indices 1 2 3 4 5 6 
#
# 1 0.034829 -0.003075 -0.004868 0.000000 0.000000 0.000000
# 2 -0.003075 0.013768 -0.002448 0.000000 0.000000 0.000000
# 3 -0.004868 -0.002448 0.007550 0.000000 0.000000 0.000000
# 4 0.000000 0.000000 0.000000 0.020267 0.000000 0.000000
# 5 0.000000 0.000000 0.000000 0.000000 0.026889 0.000000
# 6 0.000000 0.000000 0.000000 0.000000 0.000000 0.086008
#
#
# Mechanical properties :
#
#
# Convention : Reuss Voigt Hill
#
# Bulk Modulus (GPa) = 28.27668 46.36791 37.32230
# Shear Modulus (GPa) = 22.53463 33.17442 27.85453
#
# Velocity S-wave (km/s) = 3.04849 3.69880 3.38928
# Velocity P-wave (km/s) = 4.90432 6.11258 5.54148
#
# Compressibility (1/GPa) = 0.03536482
#
# Stress axis : x y z
#
# Youngs Moduli (GPa) = 28.71174 72.63201 132.45829
#
# Poissons Ratio (x) = 0.22331 0.64481
# Poissons Ratio (y) = 0.08827 0.32430
# Poissons Ratio (z) = 0.13977 0.17783
#
# Static dielectric constant tensor:
#      x y z
#    x 2.011200 0.000000 0.000000 
#    y 0.000000 1.928050 0.000000 
#    z 0.000000 0.000000 2.072450 
# 
# From -- ./inp_files/6337.got.cif
#   From: 2010.05.17/outbox.cif.g08.bks.cpg/sg43_4_cif.got.tgz:6337.got - 2010.06.03 19:21:55.
