data_PCOD9372252
_publ_section_title
;
Structure prediction by ZEFSAII (Michael W. Deem and Ramdas Pophale) SiO2 
 PCOD9372252
Probable space group: F D D 2
;
_chemical_formula_sum "Si O2"
_cell_formula_units_Z 104
_cell_length_a 18.112232
_cell_length_b 27.005713
_cell_length_c 9.235990
_cell_angle_alpha 90.000000
_cell_angle_beta 90.000000
_cell_angle_gamma 90.000000
_cell_volume 4517.634324
_symmetry_space_group_name_H-M "F D D 2"
_symmetry_group_IT_number 43
_symmetry_cell_setting 'orthorhombic'
loop_
_space_group_symop_operation_xyz
x,y,z
-x,-y,z
1/4-x,1/4+y,1/4+z
1/4+x,1/4-y,1/4+z
x,1/2+y,1/2+z
-x,1/2-y,1/2+z
1/4-x,3/4+y,3/4+z
1/4+x,3/4-y,3/4+z
1/2+x,y,1/2+z
1/2-x,-y,1/2+z
3/4-x,1/4+y,3/4+z
3/4+x,1/4-y,3/4+z
1/2+x,1/2+y,z
1/2-x,1/2-y,z
3/4-x,3/4+y,1/4+z
3/4+x,3/4-y,1/4+z
loop_
_atom_site_type_symbol
_atom_site_label
_atom_site_fract_x
_atom_site_fract_y
_atom_site_fract_z
Si Si1 0.364010 0.759443 0.504610
Si Si2 0.712662 0.517020 0.276523
Si Si3 0.000000 0.000000 0.287185
Si Si4 0.138361 0.134455 0.925878
Si Si5 0.391037 0.461658 0.052964
Si Si6 0.094402 0.562340 0.979034
Si Si7 0.452123 0.342628 0.636816
O O1 0.450044 0.770820 0.533983
O O2 0.330290 0.813625 0.483618
O O3 0.337697 0.731434 0.646727
O O4 0.353705 0.724772 0.365217
O O5 0.691512 0.526960 0.109054
O O6 0.664894 0.554479 0.374727
O O7 0.690035 0.462838 0.333264
O O8 0.065650 0.007222 0.173441
O O9 0.019630 0.045205 0.394767
O O10 0.083109 0.147147 0.794700
O O11 0.210424 0.103869 0.876934
O O12 0.100243 0.097791 0.042730
O O13 0.086986 0.617777 0.032847
#
# Coordination Sequence:
#
# PCOD9372252 Si02
#       7
#    16  16   8  16  16  16  16
#     4  12  23  45  75 104 141 201 240 306 375 440
#     4  11  24  47  70 109 154 187 244 313 370 444
#     4  10  26  44  62 102 150 174 248 308 376 424
#     4  12  26  44  76 108 145 194 258 304 366 461
#     4  11  25  44  66 107 145 187 239 315 368 434
#     4  11  23  44  73 103 143 194 246 309 367 447
#     4  12  24  46  78 110 143 200 258 296 372 461
#
# _framework density 23.020897000000001
#
# number of rings (size 3 to 8) (size 9 to 14) (size 15 to 20)
#    0.000    0.615    4.615    2.769    4.308    3.077 
#    5.538    0.000    0.000    0.000    0.000    0.000 
#    0.000    0.000    0.000    0.000    0.000    0.000 
#
# Total GULP energy -145313.940159 kJ/mol
# GULP energy per Si atom -5588.997698 kJ/mol
# Density = 2.296850 g / cm^3
# Si number density = 23.020897 Si / 1000 Ang^3
#
#
#
# Elastic Constant Matrix: (Units=GPa)
#
#
# Indices 1 2 3 4 5 6 
#
# 1 60.9503 12.9022 16.3304 0.0000 0.0000 0.0000
# 2 12.9022 77.2074 13.4825 0.0000 0.0000 0.0000
# 3 16.3304 13.4825 105.7834 0.0000 0.0000 0.0000
# 4 0.0000 0.0000 0.0000 38.0062 0.0000 0.0000
# 5 0.0000 0.0000 0.0000 0.0000 31.5573 0.0000
# 6 0.0000 0.0000 0.0000 0.0000 0.0000 23.0377
#
#
#
# Elastic Compliance Matrix: (Units=1/GPa)
#
#
# Indices 1 2 3 4 5 6 
#
# 1 0.017581 -0.002520 -0.002393 0.000000 0.000000 0.000000
# 2 -0.002520 0.013608 -0.001345 0.000000 0.000000 0.000000
# 3 -0.002393 -0.001345 0.009994 0.000000 0.000000 0.000000
# 4 0.000000 0.000000 0.000000 0.026312 0.000000 0.000000
# 5 0.000000 0.000000 0.000000 0.000000 0.031688 0.000000
# 6 0.000000 0.000000 0.000000 0.000000 0.000000 0.043407
#
#
# Mechanical properties :
#
#
# Convention : Reuss Voigt Hill
#
# Bulk Modulus (GPa) = 34.88352 36.59682 35.74017
# Shear Modulus (GPa) = 30.36494 31.93527 31.15011
#
# Velocity S-wave (km/s) = 3.63577 3.72859 3.68247
# Velocity P-wave (km/s) = 5.72808 5.87097 5.79997
#
# Compressibility (1/GPa) = 0.02866683
#
# Stress axis : x y z
#
# Youngs Moduli (GPa) = 56.87820 73.48500 100.05835
#
# Poissons Ratio (x) = 0.18520 0.23943
# Poissons Ratio (y) = 0.14334 0.13462
# Poissons Ratio (z) = 0.13611 0.09886
#
# Static dielectric constant tensor:
#      x y z
#    x 1.978810 0.000000 0.000000 
#    y 0.000000 1.824940 0.000000 
#    z 0.000000 0.000000 1.874310 
# 
# From -- ./inp_files/3357.got.cif
#   From: 2010.05.17/outbox.cif.g08.bks.cpg/sg43_2_cif.got.tgz:3357.got - 2010.06.03 19:21:55.
