data_PCOD9372229
_publ_section_title
;
Structure prediction by ZEFSAII (Michael W. Deem and Ramdas Pophale) SiO2 
 PCOD9372229
Probable space group: F D D 2
;
_chemical_formula_sum "Si O2"
_cell_formula_units_Z 96
_cell_length_a 22.605954
_cell_length_b 15.552856
_cell_length_c 12.575363
_cell_angle_alpha 90.000000
_cell_angle_beta 90.000000
_cell_angle_gamma 90.000000
_cell_volume 4421.336003
_symmetry_space_group_name_H-M "F D D 2"
_symmetry_group_IT_number 43
_symmetry_cell_setting 'orthorhombic'
loop_
_space_group_symop_operation_xyz
x,y,z
-x,-y,z
1/4-x,1/4+y,1/4+z
1/4+x,1/4-y,1/4+z
x,1/2+y,1/2+z
-x,1/2-y,1/2+z
1/4-x,3/4+y,3/4+z
1/4+x,3/4-y,3/4+z
1/2+x,y,1/2+z
1/2-x,-y,1/2+z
3/4-x,1/4+y,3/4+z
3/4+x,1/4-y,3/4+z
1/2+x,1/2+y,z
1/2-x,1/2-y,z
3/4-x,3/4+y,1/4+z
3/4+x,3/4-y,1/4+z
loop_
_atom_site_type_symbol
_atom_site_label
_atom_site_fract_x
_atom_site_fract_y
_atom_site_fract_z
Si Si1 0.489191 0.135893 0.709350
Si Si2 0.750000 0.750000 0.284262
Si Si3 0.250000 0.250000 0.640315
Si Si4 0.663867 0.215474 0.593754
Si Si5 0.943976 0.195372 0.699564
Si Si6 0.816142 0.631648 0.947904
Si Si7 0.123370 0.036444 0.501904
O O1 0.515817 0.079200 0.613125
O O2 0.527309 0.217663 0.746129
O O3 0.422513 0.165835 0.679976
O O4 0.484677 0.077056 0.811644
O O5 0.698321 0.716712 0.206083
O O6 0.191265 0.272211 0.704681
O O7 0.665916 0.123420 0.532824
O O8 0.601465 0.262845 0.616705
O O9 0.694229 0.285705 0.518782
O O10 0.002603 0.148891 0.652922
O O11 0.845808 0.556169 0.017918
O O12 0.861509 0.658866 0.856891
#
# Coordination Sequence:
#
# PCOD9372229 Si02
#       7
#    16   8   8  16  16  16  16
#     4  10  25  48  68 104 138 185 233 291 351 428
#     4  11  24  47  74 102 150 179 236 297 360 422
#     4  11  24  45  70 100 132 181 236 283 350 414
#     4  12  24  45  70 106 142 189 230 299 353 431
#     4  11  25  45  69 102 142 181 238 279 359 415
#     4  11  24  44  69 104 141 182 239 287 351 424
#     4  11  24  44  71 100 137 185 232 293 347 422
#
# _framework density 21.712893000000001
#
# number of rings (size 3 to 8) (size 9 to 14) (size 15 to 20)
#    0.000    1.000    3.333    2.000    7.000    0.000 
#    6.000    0.000    0.000    0.000    0.000    0.000 
#    0.000    0.000    0.000    0.000    0.000    0.000 
#
# Total GULP energy -133843.078076 kJ/mol
# GULP energy per Si atom -5576.794920 kJ/mol
# Density = 2.166347 g / cm^3
# Si number density = 21.712893 Si / 1000 Ang^3
#
#
#
# Elastic Constant Matrix: (Units=GPa)
#
#
# Indices 1 2 3 4 5 6 
#
# 1 130.1363 53.7200 17.5346 0.0000 0.0000 0.0000
# 2 53.7200 152.5617 40.4342 0.0000 0.0000 0.0000
# 3 17.5346 40.4342 36.9066 0.0000 0.0000 0.0000
# 4 0.0000 0.0000 0.0000 33.6373 0.0000 0.0000
# 5 0.0000 0.0000 0.0000 0.0000 29.0905 0.0000
# 6 0.0000 0.0000 0.0000 0.0000 0.0000 34.1686
#
#
#
# Elastic Compliance Matrix: (Units=1/GPa)
#
#
# Indices 1 2 3 4 5 6 
#
# 1 0.009025 -0.002877 -0.001136 0.000000 0.000000 0.000000
# 2 -0.002877 0.010154 -0.009758 0.000000 0.000000 0.000000
# 3 -0.001136 -0.009758 0.038325 0.000000 0.000000 0.000000
# 4 0.000000 0.000000 0.000000 0.029729 0.000000 0.000000
# 5 0.000000 0.000000 0.000000 0.000000 0.034375 0.000000
# 6 0.000000 0.000000 0.000000 0.000000 0.000000 0.029267
#
#
# Mechanical properties :
#
#
# Convention : Reuss Voigt Hill
#
# Bulk Modulus (GPa) = 33.37416 60.33136 46.85276
# Shear Modulus (GPa) = 26.53880 33.24033 29.88956
#
# Velocity S-wave (km/s) = 3.49988 3.91692 3.71426
# Velocity P-wave (km/s) = 5.63349 6.95001 6.32609
#
# Compressibility (1/GPa) = 0.02996330
#
# Stress axis : x y z
#
# Youngs Moduli (GPa) = 110.80537 98.48573 26.09238
#
# Poissons Ratio (x) = 0.28332 0.02964
# Poissons Ratio (y) = 0.31876 0.25460
# Poissons Ratio (z) = 0.12588 0.96098
#
# Static dielectric constant tensor:
#      x y z
#    x 1.942850 0.000000 0.000000 
#    y 0.000000 1.794360 0.000000 
#    z 0.000000 0.000000 1.774690 
# 
# From -- ./inp_files/10941.got.cif
#   From: 2010.05.17/outbox.cif.g08.bks.cpg/sg43_6_cif.got.tgz:10941.got - 2010.06.03 19:21:55.
