data_PCOD9372478
_publ_section_title
;
Structure prediction by ZEFSAII (Michael W. Deem and Ramdas Pophale) SiO2 
 PCOD9372478
Probable space group: F D D 2
;
_chemical_formula_sum "Si O2"
_cell_formula_units_Z 72
_cell_length_a 20.036179
_cell_length_b 6.827303
_cell_length_c 22.521191
_cell_angle_alpha 90.000000
_cell_angle_beta 90.000000
_cell_angle_gamma 90.000000
_cell_volume 3080.742744
_symmetry_space_group_name_H-M "F D D 2"
_symmetry_group_IT_number 43
_symmetry_cell_setting 'orthorhombic'
loop_
_space_group_symop_operation_xyz
x,y,z
-x,-y,z
1/4-x,1/4+y,1/4+z
1/4+x,1/4-y,1/4+z
x,1/2+y,1/2+z
-x,1/2-y,1/2+z
1/4-x,3/4+y,3/4+z
1/4+x,3/4-y,3/4+z
1/2+x,y,1/2+z
1/2-x,-y,1/2+z
3/4-x,1/4+y,3/4+z
3/4+x,1/4-y,3/4+z
1/2+x,1/2+y,z
1/2-x,1/2-y,z
3/4-x,3/4+y,1/4+z
3/4+x,3/4-y,1/4+z
loop_
_atom_site_type_symbol
_atom_site_label
_atom_site_fract_x
_atom_site_fract_y
_atom_site_fract_z
Si Si1 0.110961 0.491266 0.202610
Si Si2 0.545637 0.324350 0.124137
Si Si3 0.339015 0.918599 0.644090
Si Si4 0.250000 0.750000 0.554535
Si Si5 0.245508 0.015045 0.246813
O O1 0.126271 0.289028 0.164903
O O2 0.184234 0.558802 0.223125
O O3 0.928884 0.350199 0.164347
O O4 0.063870 0.484034 0.261240
O O5 0.500000 0.500000 0.151530
O O6 0.390121 0.547499 0.106861
O O7 0.513552 0.231313 0.065961
O O8 0.271844 0.909133 0.604322
O O9 0.317376 0.024417 0.704866
O O10 0.250000 0.250000 0.241841
#
# Coordination Sequence:
#
# PCOD9372478 Si02
#       5
#    16  16  16   8  16
#     4  11  24  43  68 104 138 186 232 286 356 414
#     4  11  24  42  70 101 140 185 237 286 344 421
#     4  11  22  45  67  98 142 181 233 290 347 415
#     4  12  22  40  74  98 140 180 230 288 350 416
#     4   9  20  45  66  96 141 183 231 293 348 408
#
# _framework density 23.370985999999998
#
# number of rings (size 3 to 8) (size 9 to 14) (size 15 to 20)
#    0.000    1.333    3.333    5.333    0.000    2.667 
#    0.000    8.889    0.000    0.000    0.000    0.000 
#    0.000    0.000    0.000    0.000    0.000    0.000 
#
# Total GULP energy -100252.637802 kJ/mol
# GULP energy per Si atom -5569.590989 kJ/mol
# Density = 2.331779 g / cm^3
# Si number density = 23.370986 Si / 1000 Ang^3
#
#
#
# Elastic Constant Matrix: (Units=GPa)
#
#
# Indices 1 2 3 4 5 6 
#
# 1 82.0051 34.5471 27.2409 0.0001 0.0000 -0.0001
# 2 34.5471 123.4486 61.1710 0.0005 -0.0002 -0.0002
# 3 27.2409 61.1710 113.0036 0.0001 0.0000 0.0000
# 4 0.0001 0.0005 0.0001 -0.3782 -0.0001 -0.0001
# 5 0.0000 -0.0002 0.0000 -0.0001 47.0251 0.0000
# 6 -0.0001 -0.0002 0.0000 -0.0001 0.0000 24.0399
#
#
#
# Elastic Compliance Matrix: (Units=1/GPa)
#
#
# Indices 1 2 3 4 5 6 
#
# 1 0.014065 -0.003083 -0.001722 -0.000001 0.000000 0.000000
# 2 -0.003083 0.011746 -0.005615 0.000013 0.000000 0.000000
# 3 -0.001722 -0.005615 0.012304 -0.000006 0.000000 0.000000
# 4 -0.000001 0.000013 -0.000006 -2.643932 -0.000006 -0.000007
# 5 0.000000 0.000000 0.000000 -0.000006 0.021265 0.000000
# 6 0.000000 0.000000 0.000000 -0.000007 0.000000 0.041598
#
#
# Mechanical properties :
#
#
# Convention : Reuss Voigt Hill
#
# Bulk Modulus (GPa) = 57.88622 62.70837 60.29730
# Shear Modulus (GPa) = -1.98700 27.17056 12.59178
#
# Velocity S-wave (km/s) = -0.92306 3.41336 2.32368
# Velocity P-wave (km/s) = 4.86684 6.51342 5.74938
#
# Compressibility (1/GPa) = 0.01727527
#
# Stress axis : x y z
#
# Youngs Moduli (GPa) = 71.09809 85.13819 81.27586
#
# Poissons Ratio (x) = 0.26248 0.13993
# Poissons Ratio (y) = 0.21919 0.45636
# Poissons Ratio (z) = 0.12241 0.47805
#
# Static dielectric constant tensor:
#      x y z
#    x 1.943170 0.000000 0.000000 
#    y 0.000000 1.932680 0.000000 
#    z 0.000000 0.000000 1.918630 
# 
# From -- ./inp_files/17099.got.cif
#   From: 2010.05.17/outbox.cif.g08.bks.cpg/sg43_9_cif.got.tgz:17099.got - 2010.06.03 19:21:55.
