data_PCOD9372843
_publ_section_title
;
Structure prediction by ZEFSAII (Michael W. Deem and Ramdas Pophale) SiO2 
 PCOD9372843
Probable space group: F D D 2
;
_chemical_formula_sum "Si O2"
_cell_formula_units_Z 72
_cell_length_a 24.275128
_cell_length_b 7.777919
_cell_length_c 16.145248
_cell_angle_alpha 90.000000
_cell_angle_beta 90.000000
_cell_angle_gamma 90.000000
_cell_volume 3048.383941
_symmetry_space_group_name_H-M "F D D 2"
_symmetry_group_IT_number 43
_symmetry_cell_setting 'orthorhombic'
loop_
_space_group_symop_operation_xyz
x,y,z
-x,-y,z
1/4-x,1/4+y,1/4+z
1/4+x,1/4-y,1/4+z
x,1/2+y,1/2+z
-x,1/2-y,1/2+z
1/4-x,3/4+y,3/4+z
1/4+x,3/4-y,3/4+z
1/2+x,y,1/2+z
1/2-x,-y,1/2+z
3/4-x,1/4+y,3/4+z
3/4+x,1/4-y,3/4+z
1/2+x,1/2+y,z
1/2-x,1/2-y,z
3/4-x,3/4+y,1/4+z
3/4+x,3/4-y,1/4+z
loop_
_atom_site_type_symbol
_atom_site_label
_atom_site_fract_x
_atom_site_fract_y
_atom_site_fract_z
Si Si1 0.162456 0.833830 0.620640
Si Si2 0.000000 0.000000 0.006450
Si Si3 0.596096 0.923106 0.783596
Si Si4 0.452208 0.754903 0.130763
Si Si5 0.190526 0.551008 0.482984
O O1 0.198374 0.776640 0.698215
O O2 0.173607 0.700174 0.546894
O O3 0.100547 0.820090 0.654837
O O4 0.179964 0.026181 0.592889
O O5 0.990824 0.154966 0.067903
O O6 0.588264 0.855441 0.690015
O O7 0.658590 0.912028 0.817294
O O8 0.570622 0.115223 0.777406
O O9 0.497937 0.819257 0.196534
#
# Coordination Sequence:
#
# PCOD9372843 Si02
#       5
#    16   8  16  16  16
#     4  12  27  46  82 115 155 206 269 319 403 478
#     4  12  24  48  78 118 152 216 256 336 396 468
#     4  12  26  49  74 110 150 206 259 320 397 469
#     4  12  26  49  79 109 159 205 260 330 397 469
#     4  12  25  51  77 114 162 201 261 336 391 482
#
# _framework density 23.619071000000002
#
# number of rings (size 3 to 8) (size 9 to 14) (size 15 to 20)
#    0.000    0.000    4.444    5.333    0.000    2.667 
#    0.000    0.000    0.000    0.000    0.000    0.000 
#    0.000    0.000    0.000    0.000    0.000    0.000 
#
# Total GULP energy -100501.351823 kJ/mol
# GULP energy per Si atom -5583.408435 kJ/mol
# Density = 2.356531 g / cm^3
# Si number density = 23.619071 Si / 1000 Ang^3
#
#
#
# Elastic Constant Matrix: (Units=GPa)
#
#
# Indices 1 2 3 4 5 6 
#
# 1 145.1638 26.8317 71.9996 0.0000 0.0000 0.0000
# 2 26.8317 151.1611 56.1593 0.0000 0.0000 0.0000
# 3 71.9996 56.1593 136.0914 0.0000 0.0000 0.0000
# 4 0.0000 0.0000 0.0000 7.9768 0.0000 0.0000
# 5 0.0000 0.0000 0.0000 0.0000 77.7705 0.0000
# 6 0.0000 0.0000 0.0000 0.0000 0.0000 21.6491
#
#
#
# Elastic Compliance Matrix: (Units=1/GPa)
#
#
# Indices 1 2 3 4 5 6 
#
# 1 0.009345 0.000210 -0.005031 0.000000 0.000000 0.000000
# 2 0.000210 0.007818 -0.003337 0.000000 0.000000 0.000000
# 3 -0.005031 -0.003337 0.011387 0.000000 0.000000 0.000000
# 4 0.000000 0.000000 0.000000 0.125364 0.000000 0.000000
# 5 0.000000 0.000000 0.000000 0.000000 0.012858 0.000000
# 6 0.000000 0.000000 0.000000 0.000000 0.000000 0.046191
#
#
# Mechanical properties :
#
#
# Convention : Reuss Voigt Hill
#
# Bulk Modulus (GPa) = 81.73955 82.48861 82.11408
# Shear Modulus (GPa) = 21.42637 39.97434 30.70035
#
# Velocity S-wave (km/s) = 3.01518 4.11842 3.60920
# Velocity P-wave (km/s) = 6.84137 7.59049 7.22564
#
# Compressibility (1/GPa) = 0.01223398
#
# Stress axis : x y z
#
# Youngs Moduli (GPa) = 107.00744 127.90909 87.82096
#
# Poissons Ratio (x) = -0.02689 0.44181
# Poissons Ratio (y) = -0.02250 0.29310
# Poissons Ratio (z) = 0.53834 0.42689
#
# Static dielectric constant tensor:
#      x y z
#    x 2.179550 0.000000 0.000000 
#    y 0.000000 2.006110 0.000000 
#    z 0.000000 0.000000 1.802240 
# 
# From -- ./inp_files/9087.got.cif
#   From: 2010.05.17/outbox.cif.g08.bks.cpg/sg43_5_cif.got.tgz:9087.got - 2010.06.03 19:21:55.
