data_PCOD9372503
_publ_section_title
;
Structure prediction by ZEFSAII (Michael W. Deem and Ramdas Pophale) SiO2 
 PCOD9372503
Probable space group: F D D 2
;
_chemical_formula_sum "Si O2"
_cell_formula_units_Z 104
_cell_length_a 18.703418
_cell_length_b 27.828942
_cell_length_c 7.366518
_cell_angle_alpha 90.000000
_cell_angle_beta 90.000000
_cell_angle_gamma 90.000000
_cell_volume 3834.245619
_symmetry_space_group_name_H-M "F D D 2"
_symmetry_group_IT_number 43
_symmetry_cell_setting 'orthorhombic'
loop_
_space_group_symop_operation_xyz
x,y,z
-x,-y,z
1/4-x,1/4+y,1/4+z
1/4+x,1/4-y,1/4+z
x,1/2+y,1/2+z
-x,1/2-y,1/2+z
1/4-x,3/4+y,3/4+z
1/4+x,3/4-y,3/4+z
1/2+x,y,1/2+z
1/2-x,-y,1/2+z
3/4-x,1/4+y,3/4+z
3/4+x,1/4-y,3/4+z
1/2+x,1/2+y,z
1/2-x,1/2-y,z
3/4-x,3/4+y,1/4+z
3/4+x,3/4-y,1/4+z
loop_
_atom_site_type_symbol
_atom_site_label
_atom_site_fract_x
_atom_site_fract_y
_atom_site_fract_z
Si Si1 0.747802 0.827431 0.460420
Si Si2 0.851667 0.978548 0.768258
Si Si3 0.093241 0.161943 0.135607
Si Si4 0.352809 0.466584 0.354724
Si Si5 0.147860 0.419613 0.814305
Si Si6 0.500000 0.000000 0.422495
Si Si7 0.531612 0.345983 0.794923
O O1 0.778607 0.789824 0.313281
O O2 0.713349 0.869714 0.339934
O O3 0.683890 0.800611 0.564911
O O4 0.813712 0.842432 0.586957
O O5 0.814300 0.940864 0.896705
O O6 0.831442 0.033729 0.819153
O O7 0.951264 0.851748 0.714735
O O8 0.087370 0.156359 0.355015
O O9 0.168503 0.142963 0.056188
O O10 0.334693 0.463089 0.565117
O O11 0.345012 0.522888 0.318385
O O12 0.304562 0.434672 0.223916
O O13 0.436437 0.978840 0.304899
#
# Coordination Sequence:
#
# PCOD9372503 Si02
#       7
#    16  16  16  16  16   8  16
#     4  11  22  51  82 116 169 221 280 356 417 523
#     4  12  26  50  88 121 166 225 280 355 440 509
#     4  11  25  53  82 123 169 223 285 354 429 522
#     4  11  25  50  85 115 167 223 276 343 438 508
#     4  12  25  50  82 116 165 221 279 347 436 500
#     4  12  20  50  86 118 168 222 284 350 428 516
#     4  11  27  55  79 125 172 218 278 362 425 513
#
# _framework density 27.12398
#
# number of rings (size 3 to 8) (size 9 to 14) (size 15 to 20)
#    0.000    0.615    7.692    0.000    4.308    2.462 
#   16.615    1.538    0.000    0.000    0.000    0.000 
#    0.000    0.000    0.000    0.000    0.000    0.000 
#
# Total GULP energy -145866.984932 kJ/mol
# GULP energy per Si atom -5610.268651 kJ/mol
# Density = 2.706224 g / cm^3
# Si number density = 27.123980 Si / 1000 Ang^3
#
#
#
# Elastic Constant Matrix: (Units=GPa)
#
#
# Indices 1 2 3 4 5 6 
#
# 1 172.7430 17.3389 55.7871 0.0004 -0.0002 -0.0004
# 2 17.3389 121.2549 52.3668 0.0002 -0.0002 -0.0002
# 3 55.7871 52.3668 198.7284 0.0011 -0.0015 -0.0004
# 4 0.0004 0.0002 0.0011 36.7611 -0.0006 -0.0002
# 5 -0.0002 -0.0002 -0.0015 -0.0006 51.9279 0.0004
# 6 -0.0004 -0.0002 -0.0004 -0.0002 0.0004 43.2234
#
#
#
# Elastic Compliance Matrix: (Units=1/GPa)
#
#
# Indices 1 2 3 4 5 6 
#
# 1 0.006369 -0.000156 -0.001747 0.000000 0.000000 0.000000
# 2 -0.000156 0.009310 -0.002409 0.000000 0.000000 0.000000
# 3 -0.001747 -0.002409 0.006157 0.000000 0.000000 0.000000
# 4 0.000000 0.000000 0.000000 0.027203 0.000000 0.000000
# 5 0.000000 0.000000 0.000000 0.000000 0.019257 0.000000
# 6 0.000000 0.000000 0.000000 0.000000 0.000000 0.023136
#
#
# Mechanical properties :
#
#
# Convention : Reuss Voigt Hill
#
# Bulk Modulus (GPa) = 75.69358 82.63467 79.16413
# Shear Modulus (GPa) = 47.86515 50.86470 49.36493
#
# Velocity S-wave (km/s) = 4.20537 4.33513 4.27074
# Velocity P-wave (km/s) = 7.17964 7.45584 7.31904
#
# Compressibility (1/GPa) = 0.01321116
#
# Stress axis : x y z
#
# Youngs Moduli (GPa) = 157.01765 107.41147 162.41151
#
# Poissons Ratio (x) = 0.01680 0.28367
# Poissons Ratio (y) = 0.02455 0.39131
# Poissons Ratio (z) = 0.27425 0.25879
#
# Static dielectric constant tensor:
#      x y z
#    x 2.257710 0.000000 0.000000 
#    y 0.000000 2.117320 0.000000 
#    z 0.000000 0.000000 2.157480 
# 
# From -- ./inp_files/11003.got.cif
#   From: 2010.05.17/outbox.cif.g08.bks.cpg/sg43_6_cif.got.tgz:11003.got - 2010.06.03 19:21:55.
