data_PCOD9372437
_publ_section_title
;
Structure prediction by ZEFSAII (Michael W. Deem and Ramdas Pophale) SiO2 
 PCOD9372437
Probable space group: F D D 2
;
_chemical_formula_sum "Si O2"
_cell_formula_units_Z 120
_cell_length_a 9.530526
_cell_length_b 24.363620
_cell_length_c 23.322407
_cell_angle_alpha 90.000000
_cell_angle_beta 90.000000
_cell_angle_gamma 90.000000
_cell_volume 5415.418916
_symmetry_space_group_name_H-M "F D D 2"
_symmetry_group_IT_number 43
_symmetry_cell_setting 'orthorhombic'
loop_
_space_group_symop_operation_xyz
x,y,z
-x,-y,z
1/4-x,1/4+y,1/4+z
1/4+x,1/4-y,1/4+z
x,1/2+y,1/2+z
-x,1/2-y,1/2+z
1/4-x,3/4+y,3/4+z
1/4+x,3/4-y,3/4+z
1/2+x,y,1/2+z
1/2-x,-y,1/2+z
3/4-x,1/4+y,3/4+z
3/4+x,1/4-y,3/4+z
1/2+x,1/2+y,z
1/2-x,1/2-y,z
3/4-x,3/4+y,1/4+z
3/4+x,3/4-y,1/4+z
loop_
_atom_site_type_symbol
_atom_site_label
_atom_site_fract_x
_atom_site_fract_y
_atom_site_fract_z
Si Si1 0.000000 0.000000 0.048460
Si Si2 0.045079 0.324863 0.268421
Si Si3 0.175750 0.197726 0.040333
Si Si4 0.764398 0.811390 0.830005
Si Si5 0.386856 0.729130 0.145248
Si Si6 0.154536 0.300642 0.524110
Si Si7 0.107352 0.323317 0.137800
Si Si8 0.006867 0.170602 0.250828
O O1 0.898324 0.949419 0.067738
O O2 0.123427 0.962593 0.021436
O O3 0.891115 0.304516 0.284087
O O4 0.033096 0.389697 0.265617
O O5 0.111876 0.313126 0.206094
O O6 0.250000 0.250000 0.014289
O O7 0.248007 0.190949 0.104207
O O8 0.012903 0.205602 0.025953
O O9 0.750000 0.750000 0.857287
O O10 0.809097 0.864737 0.869047
O O11 0.622823 0.826115 0.795449
O O12 0.250000 0.750000 0.178185
O O13 0.319071 0.696673 0.092349
O O14 0.487264 0.778099 0.122282
O O15 0.466541 0.690109 0.187859
O O16 0.250000 0.250000 0.502189
O O17 0.192078 0.358336 0.497225
#
# Coordination Sequence:
#
# PCOD9372437 Si02
#       8
#     8  16  16  16  16  16  16  16
#     4  12  22  38  66  96 126 166 220 262 320 372
#     4  11  24  41  65 100 128 167 225 266 325 397
#     4  11  24  41  64  94 131 172 216 270 328 386
#     4  11  22  41  64  95 134 169 209 269 337 386
#     4  11  22  41  67 100 127 168 226 269 318 399
#     4  11  25  42  64  96 133 171 215 272 335 388
#     4  11  23  39  69  97 126 171 220 271 320 394
#     4  12  24  40  69  93 131 174 214 277 321 389
#
# _framework density 22.158950999999998
#
# number of rings (size 3 to 8) (size 9 to 14) (size 15 to 20)
#    0.000    0.800    5.333    2.800    4.667    0.533 
#    0.000    0.000    4.400    0.000    0.000    0.000 
#    0.000    0.000    0.000    0.000    0.000    0.000 
#
# Total GULP energy -167008.955562 kJ/mol
# GULP energy per Si atom -5566.965185 kJ/mol
# Density = 2.210852 g / cm^3
# Si number density = 22.158951 Si / 1000 Ang^3
#
#
#
# Elastic Constant Matrix: (Units=GPa)
#
#
# Indices 1 2 3 4 5 6 
#
# 1 157.4618 45.0412 16.0891 0.0000 0.0000 0.0000
# 2 45.0412 168.0846 8.4997 0.0000 0.0000 0.0000
# 3 16.0891 8.4997 15.7377 0.0000 0.0000 0.0000
# 4 0.0000 0.0000 0.0000 25.7930 0.0000 0.0000
# 5 0.0000 0.0000 0.0000 0.0000 18.5882 0.0000
# 6 0.0000 0.0000 0.0000 0.0000 0.0000 35.9320
#
#
#
# Elastic Compliance Matrix: (Units=1/GPa)
#
#
# Indices 1 2 3 4 5 6 
#
# 1 0.007523 -0.001673 -0.006787 0.000000 0.000000 0.000000
# 2 -0.001673 0.006488 -0.001794 0.000000 0.000000 0.000000
# 3 -0.006787 -0.001794 0.071449 0.000000 0.000000 0.000000
# 4 0.000000 0.000000 0.000000 0.038770 0.000000 0.000000
# 5 0.000000 0.000000 0.000000 0.000000 0.053798 0.000000
# 6 0.000000 0.000000 0.000000 0.000000 0.000000 0.027830
#
#
# Mechanical properties :
#
#
# Convention : Reuss Voigt Hill
#
# Bulk Modulus (GPa) = 15.39597 53.39379 34.39488
# Shear Modulus (GPa) = 20.15986 34.17291 27.16638
#
# Velocity S-wave (km/s) = 3.01953 3.93131 3.50520
# Velocity P-wave (km/s) = 4.37262 6.68992 5.65132
#
# Compressibility (1/GPa) = 0.06495206
#
# Stress axis : x y z
#
# Youngs Moduli (GPa) = 132.93095 154.12298 13.99592
#
# Poissons Ratio (x) = 0.25779 0.09499
# Poissons Ratio (y) = 0.22234 0.02511
# Poissons Ratio (z) = 0.90224 0.27654
#
# Static dielectric constant tensor:
#      x y z
#    x 1.838490 0.000000 0.000000 
#    y 0.000000 1.862740 0.000000 
#    z 0.000000 0.000000 1.888640 
# 
# From -- ./inp_files/24478.got.cif
#   From: 2010.05.17/outbox.cif.g08.bks.cpg/sg43_13_cif.got.tgz:24478.got - 2010.06.03 19:21:55.
