data_PCOD9372959
_publ_section_title
;
Structure prediction by ZEFSAII (Michael W. Deem and Ramdas Pophale) SiO2 
 PCOD9372959
Probable space group: F D D 2
;
_chemical_formula_sum "Si O2"
_cell_formula_units_Z 30
_cell_length_a 12.000000
_cell_length_b 18.000000
_cell_length_c 27.000000
_cell_angle_alpha 90.000000
_cell_angle_beta 90.000000
_cell_angle_gamma 90.000000
_cell_volume 5832.000000
_symmetry_space_group_name_H-M "F D D 2"
_symmetry_group_IT_number 43
_symmetry_cell_setting 'orthorhombic'
loop_
_space_group_symop_operation_xyz
x,y,z
-x,-y,z
1/4-x,1/4+y,1/4+z
1/4+x,1/4-y,1/4+z
x,1/2+y,1/2+z
-x,1/2-y,1/2+z
1/4-x,3/4+y,3/4+z
1/4+x,3/4-y,3/4+z
1/2+x,y,1/2+z
1/2-x,-y,1/2+z
3/4-x,1/4+y,3/4+z
3/4+x,1/4-y,3/4+z
1/2+x,1/2+y,z
1/2-x,1/2-y,z
3/4-x,3/4+y,1/4+z
3/4+x,3/4-y,1/4+z
loop_
_atom_site_type_symbol
_atom_site_label
_atom_site_fract_x
_atom_site_fract_y
_atom_site_fract_z
Si Si1 0.750000 0.750000 0.961110
Si Si2 0.535878 0.664024 0.693934
Si Si3 0.667941 0.033971 0.543346
Si Si4 0.248878 0.012212 0.745832
Si Si5 0.774542 0.170822 0.234180
Si Si6 0.483076 0.678110 0.161665
Si Si7 0.871503 0.208700 0.903427
Si Si8 0.684956 0.630493 0.302401
O O1 0.750674 0.829488 0.932836
O O2 0.634432 0.750751 0.992280
O O3 0.495532 0.683563 0.750357
O O4 0.670360 0.664532 0.695868
O O5 0.492494 0.733258 0.661037
O O6 0.687610 0.047323 0.601733
O O7 0.549779 0.076940 0.538150
O O8 0.654776 0.944264 0.539940
O O9 0.303595 0.004403 0.691426
O O10 0.311731 0.947286 0.774534
O O11 0.270561 0.095275 0.765232
O O12 0.750000 0.250000 0.259859
O O13 0.889259 0.171826 0.203903
O O14 0.588049 0.624010 0.171909
O O15 0.437123 0.644875 0.109888
O O16 0.750000 0.250000 0.896718
#
# Coordination Sequence:
#
# PCOD9372959 Si02
#       8
#     8  16  16  16  16  16  16  16
#     4  10  22  38  56  82 116 176 196 238 300 370
#     4  10  20  36  63  81 119 164 204 237 304 381
#     4  10  18  36  59  89 118 150 199 256 313 355
#     4  11  20  36  61  85 121 157 201 244 300 370
#     4   9  19  35  60  77 113 162 193 233 297 364
#     4  10  19  38  61  91 118 153 200 253 318 354
#     4  11  19  35  62  91 117 148 197 262 311 346
#     4  10  19  33  61  89 120 148 196 262 310 355
#
# _framework density 5.1440330000000003
#
# number of rings (size 3 to 8) (size 9 to 14) (size 15 to 20)
#    0.000    1.867    5.333    0.800    0.000    0.000 
#    0.000    4.667   23.467    0.000    0.000    0.000 
#    0.000    0.000    0.000    0.000    0.000    0.000 
#
# Total GULP energy -167164.571273 kJ/mol
# GULP energy per Si atom -5572.152376 kJ/mol
# Density = 0.513232 g / cm^3
# Si number density = 5.144033 Si / 1000 Ang^3
#
#
#
# Elastic Constant Matrix: (Units=GPa)
#
#
# Indices 1 2 3 4 5 6 
#
# 1 54.2520 10.3026 16.8226 0.0000 0.0000 0.0000
# 2 10.3026 219.2482 16.9108 0.0000 0.0000 0.0000
# 3 16.8226 16.9108 48.9298 0.0000 0.0000 0.0000
# 4 0.0000 0.0000 0.0000 26.2251 0.0000 0.0000
# 5 0.0000 0.0000 0.0000 0.0000 11.4969 0.0000
# 6 0.0000 0.0000 0.0000 0.0000 0.0000 29.8357
#
#
#
# Elastic Compliance Matrix: (Units=1/GPa)
#
#
# Indices 1 2 3 4 5 6 
#
# 1 0.020672 -0.000435 -0.006957 0.000000 0.000000 0.000000
# 2 -0.000435 0.004695 -0.001473 0.000000 0.000000 0.000000
# 3 -0.006957 -0.001473 0.023339 0.000000 0.000000 0.000000
# 4 0.000000 0.000000 0.000000 0.038131 0.000000 0.000000
# 5 0.000000 0.000000 0.000000 0.000000 0.086980 0.000000
# 6 0.000000 0.000000 0.000000 0.000000 0.000000 0.033517
#
#
# Mechanical properties :
#
#
# Convention : Reuss Voigt Hill
#
# Bulk Modulus (GPa) = 32.28329 45.61132 38.94730
# Shear Modulus (GPa) = 21.24140 32.07116 26.65628
#
# Velocity S-wave (km/s) = 3.21648 3.95227 3.60320
# Velocity P-wave (km/s) = 5.43305 6.56067 6.02331
#
# Compressibility (1/GPa) = 0.03097578
#
# Stress axis : x y z
#
# Youngs Moduli (GPa) = 48.37378 212.98789 42.84761
#
# Poissons Ratio (x) = 0.09261 0.29810
# Poissons Ratio (y) = 0.02103 0.06312
# Poissons Ratio (z) = 0.33654 0.31377
#
# Static dielectric constant tensor:
#      x y z
#    x 1.721490 0.000000 0.000000 
#    y 0.000000 1.825760 0.000000 
#    z 0.000000 0.000000 1.743870 
# 
# From -- ./inp_files/25197.got.cif
#   From: 2010.05.17/outbox.ucp.g08.bks.cvg/sg43_13_cif.got.tgz:25197.got - 2010.06.11 16:31:01.
