data_PCOD9372139
_publ_section_title
;
Structure prediction by ZEFSAII (Michael W. Deem and Ramdas Pophale) SiO2 
 PCOD9372139
Probable space group: F D D 2
;
_chemical_formula_sum "Si O2"
_cell_formula_units_Z 72
_cell_length_a 28.913488
_cell_length_b 11.298220
_cell_length_c 9.557168
_cell_angle_alpha 90.000000
_cell_angle_beta 90.000000
_cell_angle_gamma 90.000000
_cell_volume 3122.049134
_symmetry_space_group_name_H-M "F D D 2"
_symmetry_group_IT_number 43
_symmetry_cell_setting 'orthorhombic'
loop_
_space_group_symop_operation_xyz
x,y,z
-x,-y,z
1/4-x,1/4+y,1/4+z
1/4+x,1/4-y,1/4+z
x,1/2+y,1/2+z
-x,1/2-y,1/2+z
1/4-x,3/4+y,3/4+z
1/4+x,3/4-y,3/4+z
1/2+x,y,1/2+z
1/2-x,-y,1/2+z
3/4-x,1/4+y,3/4+z
3/4+x,1/4-y,3/4+z
1/2+x,1/2+y,z
1/2-x,1/2-y,z
3/4-x,3/4+y,1/4+z
3/4+x,3/4-y,1/4+z
loop_
_atom_site_type_symbol
_atom_site_label
_atom_site_fract_x
_atom_site_fract_y
_atom_site_fract_z
Si Si1 0.642868 0.979011 0.212540
Si Si2 0.321088 0.079406 0.913660
Si Si3 0.578041 0.843532 0.417866
Si Si4 0.250000 0.750000 0.789407
Si Si5 0.029099 0.251659 0.161696
O O1 0.601486 0.054569 0.146046
O O2 0.620582 0.885899 0.322080
O O3 0.679841 0.044964 0.310840
O O4 0.671866 0.942104 0.078329
O O5 0.339747 0.975868 0.810255
O O6 0.266361 0.080463 0.890484
O O7 0.547462 0.759481 0.318934
O O8 0.544332 0.953468 0.453200
O O9 0.234444 0.866660 0.874115
#
# Coordination Sequence:
#
# PCOD9372139 Si02
#       5
#    16  16  16   8  16
#     4  12  24  47  72 106 149 194 246 308 368 446
#     4  11  26  44  71 109 143 191 251 299 375 448
#     4  11  24  45  73 104 151 193 242 309 368 437
#     4  10  24  46  76 108 146 194 244 306 378 438
#     4  11  24  47  76 106 147 195 245 305 377 444
#
# _framework density 23.061776999999999
#
# number of rings (size 3 to 8) (size 9 to 14) (size 15 to 20)
#    0.000    0.889    2.222    5.333    3.111    1.778 
#    0.000    0.000    0.000    0.000    0.000    0.000 
#    0.000    0.000    0.000    0.000    0.000    0.000 
#
# Total GULP energy -100605.555488 kJ/mol
# GULP energy per Si atom -5589.197527 kJ/mol
# Density = 2.300929 g / cm^3
# Si number density = 23.061777 Si / 1000 Ang^3
#
#
#
# Elastic Constant Matrix: (Units=GPa)
#
#
# Indices 1 2 3 4 5 6 
#
# 1 128.1217 42.2299 48.2929 0.0000 0.0000 0.0000
# 2 42.2299 82.3481 47.9838 0.0000 0.0000 0.0000
# 3 48.2929 47.9838 128.2640 0.0000 0.0000 0.0000
# 4 0.0000 0.0000 0.0000 38.2911 0.0000 0.0000
# 5 0.0000 0.0000 0.0000 0.0000 39.7618 0.0000
# 6 0.0000 0.0000 0.0000 0.0000 0.0000 5.0859
#
#
#
# Elastic Compliance Matrix: (Units=1/GPa)
#
#
# Indices 1 2 3 4 5 6 
#
# 1 0.009914 -0.003720 -0.002341 0.000000 0.000000 0.000000
# 2 -0.003720 0.016924 -0.004931 0.000000 0.000000 0.000000
# 3 -0.002341 -0.004931 0.010522 0.000000 0.000000 0.000000
# 4 0.000000 0.000000 0.000000 0.026116 0.000000 0.000000
# 5 0.000000 0.000000 0.000000 0.000000 0.025150 0.000000
# 6 0.000000 0.000000 0.000000 0.000000 0.000000 0.196623
#
#
# Mechanical properties :
#
#
# Convention : Reuss Voigt Hill
#
# Bulk Modulus (GPa) = 65.03197 68.41632 66.72414
# Shear Modulus (GPa) = 16.00728 29.97622 22.99175
#
# Velocity S-wave (km/s) = 2.63744 3.60922 3.16090
# Velocity P-wave (km/s) = 6.12659 6.86291 6.50517
#
# Compressibility (1/GPa) = 0.01537705
#
# Stress axis : x y z
#
# Youngs Moduli (GPa) = 100.87221 59.08639 95.03458
#
# Poissons Ratio (x) = 0.21979 0.22247
# Poissons Ratio (y) = 0.37522 0.46861
# Poissons Ratio (z) = 0.23614 0.29135
#
# Static dielectric constant tensor:
#      x y z
#    x 1.931640 0.000000 0.000000 
#    y 0.000000 1.965890 0.000000 
#    z 0.000000 0.000000 1.856910 
# 
# From -- ./inp_files/4099.got.cif
#   From: 2010.05.17/outbox.cif.g08.bks.cpg/sg43_3_cif.got.tgz:4099.got - 2010.06.03 19:21:55.
