data_PCOD9372872
_publ_section_title
;
Structure prediction by ZEFSAII (Michael W. Deem and Ramdas Pophale) SiO2 
 PCOD9372872
Probable space group: F D D 2
;
_chemical_formula_sum "Si O2"
_cell_formula_units_Z 64
_cell_length_a 12.276124
_cell_length_b 24.307692
_cell_length_c 8.471294
_cell_angle_alpha 90.000000
_cell_angle_beta 90.000000
_cell_angle_gamma 90.000000
_cell_volume 2527.870058
_symmetry_space_group_name_H-M "F D D 2"
_symmetry_group_IT_number 43
_symmetry_cell_setting 'orthorhombic'
loop_
_space_group_symop_operation_xyz
x,y,z
-x,-y,z
1/4-x,1/4+y,1/4+z
1/4+x,1/4-y,1/4+z
x,1/2+y,1/2+z
-x,1/2-y,1/2+z
1/4-x,3/4+y,3/4+z
1/4+x,3/4-y,3/4+z
1/2+x,y,1/2+z
1/2-x,-y,1/2+z
3/4-x,1/4+y,3/4+z
3/4+x,1/4-y,3/4+z
1/2+x,1/2+y,z
1/2-x,1/2-y,z
3/4-x,3/4+y,1/4+z
3/4+x,3/4-y,1/4+z
loop_
_atom_site_type_symbol
_atom_site_label
_atom_site_fract_x
_atom_site_fract_y
_atom_site_fract_z
Si Si1 0.758888 0.685908 0.064460
Si Si2 0.881411 0.245197 0.090290
Si Si3 0.664403 0.853125 0.385092
Si Si4 0.778370 0.932820 0.627477
O O1 0.750000 0.750000 0.025403
O O2 0.655456 0.647620 0.037874
O O3 0.771132 0.680522 0.253491
O O4 0.863876 0.665298 0.970773
O O5 0.750000 0.250000 0.103865
O O6 0.936294 0.231649 0.257457
O O7 0.904151 0.191674 0.981311
O O8 0.939641 0.295221 0.001533
O O9 0.732451 0.884802 0.517666
#
# Coordination Sequence:
#
# PCOD9372872 Si02
#       4
#    16  16  16  16
#     4  12  28  50  78 116 160 207 268 334 402 483
#     4  12  27  48  79 112 156 205 264 325 393 476
#     4  12  25  48  78 112 155 210 263 328 400 479
#     4  12  28  50  78 115 159 209 263 331 403 478
#
# _framework density 25.31776
#
# number of rings (size 3 to 8) (size 9 to 14) (size 15 to 20)
#    0.000    0.000    2.500    7.500    3.500    2.000 
#    0.000    0.000    0.000    0.000    0.000    0.000 
#    0.000    0.000    0.000    0.000    0.000    0.000 
#
# Total GULP energy -89751.763463 kJ/mol
# GULP energy per Si atom -5609.485216 kJ/mol
# Density = 2.526014 g / cm^3
# Si number density = 25.317760 Si / 1000 Ang^3
#
#
#
# Elastic Constant Matrix: (Units=GPa)
#
#
# Indices 1 2 3 4 5 6 
#
# 1 122.2732 39.0631 29.1707 0.0000 0.0000 0.0000
# 2 39.0631 101.4401 20.5039 0.0000 0.0000 0.0000
# 3 29.1707 20.5039 115.7095 0.0000 0.0000 0.0000
# 4 0.0000 0.0000 0.0000 43.0763 0.0000 0.0000
# 5 0.0000 0.0000 0.0000 0.0000 61.1223 0.0000
# 6 0.0000 0.0000 0.0000 0.0000 0.0000 30.4809
#
#
#
# Elastic Compliance Matrix: (Units=1/GPa)
#
#
# Indices 1 2 3 4 5 6 
#
# 1 0.009692 -0.003359 -0.001848 0.000000 0.000000 0.000000
# 2 -0.003359 0.011388 -0.001171 0.000000 0.000000 0.000000
# 3 -0.001848 -0.001171 0.009316 0.000000 0.000000 0.000000
# 4 0.000000 0.000000 0.000000 0.023215 0.000000 0.000000
# 5 0.000000 0.000000 0.000000 0.000000 0.016361 0.000000
# 6 0.000000 0.000000 0.000000 0.000000 0.000000 0.032807
#
#
# Mechanical properties :
#
#
# Convention : Reuss Voigt Hill
#
# Bulk Modulus (GPa) = 56.69014 57.43313 57.06164
# Shear Modulus (GPa) = 41.18081 43.64823 42.41452
#
# Velocity S-wave (km/s) = 4.03744 4.15663 4.09747
# Velocity P-wave (km/s) = 6.64640 6.76542 6.70617
#
# Compressibility (1/GPa) = 0.01763975
#
# Stress axis : x y z
#
# Youngs Moduli (GPa) = 103.17349 87.81018 107.34402
#
# Poissons Ratio (x) = 0.29494 0.19840
# Poissons Ratio (y) = 0.34654 0.12573
# Poissons Ratio (z) = 0.19070 0.10285
#
# Static dielectric constant tensor:
#      x y z
#    x 2.060590 0.000000 0.000000 
#    y 0.000000 1.965840 0.000000 
#    z 0.000000 0.000000 1.919580 
# 
# From -- ./inp_files/2258.got.cif
#   From: 2010.05.17/outbox.cif.g08.bks.cpg/sg43_2_cif.got.tgz:2258.got - 2010.06.03 19:21:55.
