data_PCOD9372884
_publ_section_title
;
Structure prediction by ZEFSAII (Michael W. Deem and Ramdas Pophale) SiO2 
 PCOD9372884
Probable space group: F D D 2
;
_chemical_formula_sum "Si O2"
_cell_formula_units_Z 64
_cell_length_a 17.823880
_cell_length_b 20.015105
_cell_length_c 6.876641
_cell_angle_alpha 90.000000
_cell_angle_beta 90.000000
_cell_angle_gamma 90.000000
_cell_volume 2453.219876
_symmetry_space_group_name_H-M "F D D 2"
_symmetry_group_IT_number 43
_symmetry_cell_setting 'orthorhombic'
loop_
_space_group_symop_operation_xyz
x,y,z
-x,-y,z
1/4-x,1/4+y,1/4+z
1/4+x,1/4-y,1/4+z
x,1/2+y,1/2+z
-x,1/2-y,1/2+z
1/4-x,3/4+y,3/4+z
1/4+x,3/4-y,3/4+z
1/2+x,y,1/2+z
1/2-x,-y,1/2+z
3/4-x,1/4+y,3/4+z
3/4+x,1/4-y,3/4+z
1/2+x,1/2+y,z
1/2-x,1/2-y,z
3/4-x,3/4+y,1/4+z
3/4+x,3/4-y,1/4+z
loop_
_atom_site_type_symbol
_atom_site_label
_atom_site_fract_x
_atom_site_fract_y
_atom_site_fract_z
Si Si1 0.855901 0.564841 0.482930
Si Si2 0.630997 0.085106 0.067516
Si Si3 0.034413 0.911038 0.652216
Si Si4 0.998724 0.782883 0.894712
O O1 0.876009 0.628755 0.610031
O O2 0.660936 0.640710 0.723677
O O3 0.827451 0.507800 0.631638
O O4 0.924608 0.555346 0.335757
O O5 0.545950 0.059894 0.096443
O O6 0.785494 0.069893 0.833393
O O7 0.685719 0.022520 0.096000
O O8 0.009649 0.837656 0.730456
#
# Coordination Sequence:
#
# PCOD9372884 Si02
#       4
#    16  16  16  16
#     4  12  26  48  83 119 159 225 277 345 413 501
#     4  12  26  48  80 118 167 222 277 341 418 495
#     4  12  27  49  79 119 162 219 284 341 410 510
#     4  12  25  53  80 112 175 218 264 357 420 472
#
# _framework density 26.088163999999999
#
# number of rings (size 3 to 8) (size 9 to 14) (size 15 to 20)
#    0.000    0.000    7.500    1.500    0.000    1.000 
#    0.000    0.000    5.500    0.000    0.000    0.000 
#    0.000    0.000    0.000    0.000    0.000    0.000 
#
# Total GULP energy -89479.401439 kJ/mol
# GULP energy per Si atom -5592.462590 kJ/mol
# Density = 2.602879 g / cm^3
# Si number density = 26.088164 Si / 1000 Ang^3
#
#
#
# Elastic Constant Matrix: (Units=GPa)
#
#
# Indices 1 2 3 4 5 6 
#
# 1 165.3096 16.3667 49.7988 -0.0004 0.0001 0.0002
# 2 16.3667 68.7426 31.0411 -0.0005 0.0001 0.0003
# 3 49.7988 31.0411 170.5934 0.0018 -0.0012 -0.0007
# 4 -0.0004 -0.0005 0.0018 36.2560 -0.0007 -0.0006
# 5 0.0001 0.0001 -0.0012 -0.0007 60.2592 0.0000
# 6 0.0002 0.0003 -0.0007 -0.0006 0.0000 60.7751
#
#
#
# Elastic Compliance Matrix: (Units=1/GPa)
#
#
# Indices 1 2 3 4 5 6 
#
# 1 0.006670 -0.000772 -0.001807 0.000000 0.000000 0.000000
# 2 -0.000772 0.015939 -0.002675 0.000000 0.000000 0.000000
# 3 -0.001807 -0.002675 0.006876 0.000000 0.000000 0.000000
# 4 0.000000 0.000000 0.000000 0.027582 0.000000 0.000000
# 5 0.000000 0.000000 0.000000 0.000000 0.016595 0.000000
# 6 0.000000 0.000000 0.000000 0.000000 0.000000 0.016454
#
#
# Mechanical properties :
#
#
# Convention : Reuss Voigt Hill
#
# Bulk Modulus (GPa) = 52.69417 66.56210 59.62814
# Shear Modulus (GPa) = 46.75162 51.95400 49.35281
#
# Velocity S-wave (km/s) = 4.23787 4.46744 4.35417
# Velocity P-wave (km/s) = 6.64743 7.22360 6.94150
#
# Compressibility (1/GPa) = 0.01897743
#
# Stress axis : x y z
#
# Youngs Moduli (GPa) = 149.92676 62.74046 145.43465
#
# Poissons Ratio (x) = 0.04845 0.26273
# Poissons Ratio (y) = 0.11578 0.38900
# Poissons Ratio (z) = 0.27085 0.16782
#
# Static dielectric constant tensor:
#      x y z
#    x 2.114780 0.000000 0.000000 
#    y 0.000000 2.137650 0.000000 
#    z 0.000000 0.000000 2.141780 
# 
# From -- ./inp_files/2272.got.cif
#   From: 2010.05.17/outbox.cif.g08.bks.cpg/sg43_2_cif.got.tgz:2272.got - 2010.06.03 19:21:55.
