data_PCOD9372745
_publ_section_title
;
Structure prediction by ZEFSAII (Michael W. Deem and Ramdas Pophale) SiO2 
 PCOD9372745
Probable space group: F D D 2
;
_chemical_formula_sum "Si O2"
_cell_formula_units_Z 64
_cell_length_a 15.044202
_cell_length_b 11.852774
_cell_length_c 15.269311
_cell_angle_alpha 90.000000
_cell_angle_beta 90.000000
_cell_angle_gamma 90.000000
_cell_volume 2722.755227
_symmetry_space_group_name_H-M "F D D 2"
_symmetry_group_IT_number 43
_symmetry_cell_setting 'orthorhombic'
loop_
_space_group_symop_operation_xyz
x,y,z
-x,-y,z
1/4-x,1/4+y,1/4+z
1/4+x,1/4-y,1/4+z
x,1/2+y,1/2+z
-x,1/2-y,1/2+z
1/4-x,3/4+y,3/4+z
1/4+x,3/4-y,3/4+z
1/2+x,y,1/2+z
1/2-x,-y,1/2+z
3/4-x,1/4+y,3/4+z
3/4+x,1/4-y,3/4+z
1/2+x,1/2+y,z
1/2-x,1/2-y,z
3/4-x,3/4+y,1/4+z
3/4+x,3/4-y,1/4+z
loop_
_atom_site_type_symbol
_atom_site_label
_atom_site_fract_x
_atom_site_fract_y
_atom_site_fract_z
Si Si1 0.271023 0.373676 0.975750
Si Si2 0.093616 0.482805 0.044443
Si Si3 0.355042 0.764041 0.041304
Si Si4 0.853799 0.273826 0.846866
O O1 0.250000 0.250000 0.015500
O O2 0.314061 0.342149 0.879927
O O3 0.175373 0.432514 0.991091
O O4 0.339960 0.454400 0.025976
O O5 0.122792 0.609454 0.069810
O O6 0.000000 0.500000 0.993928
O O7 0.250000 0.750000 0.035125
O O8 0.389749 0.658626 0.094473
O O9 0.389909 0.742570 0.942660
O O10 0.750000 0.250000 0.837195
#
# Coordination Sequence:
#
# PCOD9372745 Si02
#       4
#    16  16  16  16
#     4  11  28  47  78 119 159 205 267 334 399 475
#     4  11  28  48  79 114 161 206 266 330 403 478
#     4  11  26  48  72 110 154 212 267 331 397 484
#     4  11  28  44  77 111 158 212 269 329 404 478
#
# _framework density 23.505602
#
# number of rings (size 3 to 8) (size 9 to 14) (size 15 to 20)
#    0.000    1.000    2.500    0.000   17.500    3.000 
#    0.000    0.000    0.000    0.000    0.000    0.000 
#    0.000    0.000    0.000    0.000    0.000    0.000 
#
# Total GULP energy -89375.570617 kJ/mol
# GULP energy per Si atom -5585.973164 kJ/mol
# Density = 2.345210 g / cm^3
# Si number density = 23.505602 Si / 1000 Ang^3
#
#
#
# Elastic Constant Matrix: (Units=GPa)
#
#
# Indices 1 2 3 4 5 6 
#
# 1 141.8667 72.4948 48.5862 0.0000 0.0000 0.0000
# 2 72.4948 164.1873 37.0003 0.0000 0.0000 0.0000
# 3 48.5862 37.0003 117.1607 0.0000 0.0000 0.0000
# 4 0.0000 0.0000 0.0000 32.1281 0.0000 0.0000
# 5 0.0000 0.0000 0.0000 0.0000 42.7365 0.0000
# 6 0.0000 0.0000 0.0000 0.0000 0.0000 58.0961
#
#
#
# Elastic Compliance Matrix: (Units=1/GPa)
#
#
# Indices 1 2 3 4 5 6 
#
# 1 0.009970 -0.003736 -0.002955 0.000000 0.000000 0.000000
# 2 -0.003736 0.007957 -0.000964 0.000000 0.000000 0.000000
# 3 -0.002955 -0.000964 0.010065 0.000000 0.000000 0.000000
# 4 0.000000 0.000000 0.000000 0.031125 0.000000 0.000000
# 5 0.000000 0.000000 0.000000 0.000000 0.023399 0.000000
# 6 0.000000 0.000000 0.000000 0.000000 0.000000 0.017213
#
#
# Mechanical properties :
#
#
# Convention : Reuss Voigt Hill
#
# Bulk Modulus (GPa) = 78.84338 82.15303 80.49821
# Shear Modulus (GPa) = 41.92289 44.26770 43.09530
#
# Velocity S-wave (km/s) = 4.22776 4.34439 4.28647
# Velocity P-wave (km/s) = 7.57939 7.75830 7.66937
#
# Compressibility (1/GPa) = 0.01268337
#
# Stress axis : x y z
#
# Youngs Moduli (GPa) = 100.30062 125.66805 99.35555
#
# Poissons Ratio (x) = 0.46953 0.29355
# Poissons Ratio (y) = 0.37475 0.09574
# Poissons Ratio (z) = 0.29635 0.12109
#
# Static dielectric constant tensor:
#      x y z
#    x 1.860110 0.000000 0.000000 
#    y 0.000000 1.810250 0.000000 
#    z 0.000000 0.000000 1.982570 
# 
# From -- ./inp_files/9401.got.cif
#   From: 2010.05.17/outbox.cif.g08.bks.cpg/sg43_5_cif.got.tgz:9401.got - 2010.06.03 19:21:55.
