data_PCOD9372926
_publ_section_title
;
Structure prediction by ZEFSAII (Michael W. Deem and Ramdas Pophale) SiO2 
 PCOD9372926
Probable space group: F D D 2
;
_chemical_formula_sum "Si O2"
_cell_formula_units_Z 48
_cell_length_a 6.813010
_cell_length_b 12.861521
_cell_length_c 17.583533
_cell_angle_alpha 90.000000
_cell_angle_beta 90.000000
_cell_angle_gamma 90.000000
_cell_volume 1540.768881
_symmetry_space_group_name_H-M "F D D 2"
_symmetry_group_IT_number 43
_symmetry_cell_setting 'orthorhombic'
loop_
_space_group_symop_operation_xyz
x,y,z
-x,-y,z
1/4-x,1/4+y,1/4+z
1/4+x,1/4-y,1/4+z
x,1/2+y,1/2+z
-x,1/2-y,1/2+z
1/4-x,3/4+y,3/4+z
1/4+x,3/4-y,3/4+z
1/2+x,y,1/2+z
1/2-x,-y,1/2+z
3/4-x,1/4+y,3/4+z
3/4+x,1/4-y,3/4+z
1/2+x,1/2+y,z
1/2-x,1/2-y,z
3/4-x,3/4+y,1/4+z
3/4+x,3/4-y,1/4+z
loop_
_atom_site_type_symbol
_atom_site_label
_atom_site_fract_x
_atom_site_fract_y
_atom_site_fract_z
Si Si1 0.974206 0.169003 0.914590
Si Si2 0.029292 0.885806 0.318338
Si Si3 0.969562 0.382145 0.259574
O O1 0.250000 0.250000 0.985375
O O2 0.900785 0.123474 0.835543
O O3 0.840345 0.150971 0.988296
O O4 0.999540 0.387255 0.035040
O O5 0.909566 0.658512 0.187974
O O6 0.991296 0.789465 0.377640
O O7 0.000000 0.000000 0.354980
#
# Coordination Sequence:
#
# PCOD9372926 Si02
#       3
#    16  16  16
#     4  12  32  58  91 138 187 249 316 388 482 559
#     4  12  30  56  91 134 189 247 314 390 472 568
#     4  12  28  54  85 133 184 245 309 388 466 569
#
# _framework density 31.153276000000002
#
# number of rings (size 3 to 8) (size 9 to 14) (size 15 to 20)
#    0.000    0.000    3.333    3.000    9.333    0.000 
#    6.000    0.000    0.000    0.000    0.000    0.000 
#    0.000    0.000    0.000    0.000    0.000    0.000 
#
# Total GULP energy -66801.892417 kJ/mol
# GULP energy per Si atom -5566.824368 kJ/mol
# Density = 3.108237 g / cm^3
# Si number density = 31.153276 Si / 1000 Ang^3
#
#
#
# Elastic Constant Matrix: (Units=GPa)
#
#
# Indices 1 2 3 4 5 6 
#
# 1 207.4085 67.8474 129.1367 0.0000 0.0000 0.0000
# 2 67.8474 173.7117 77.9790 0.0000 0.0000 0.0000
# 3 129.1367 77.9790 329.6845 0.0000 0.0000 0.0000
# 4 0.0000 0.0000 0.0000 108.1940 0.0000 0.0000
# 5 0.0000 0.0000 0.0000 0.0000 74.1479 0.0000
# 6 0.0000 0.0000 0.0000 0.0000 0.0000 35.0590
#
#
#
# Elastic Compliance Matrix: (Units=1/GPa)
#
#
# Indices 1 2 3 4 5 6 
#
# 1 0.006763 -0.001625 -0.002265 0.000000 0.000000 0.000000
# 2 -0.001625 0.006831 -0.000979 0.000000 0.000000 0.000000
# 3 -0.002265 -0.000979 0.004152 0.000000 0.000000 0.000000
# 4 0.000000 0.000000 0.000000 0.009243 0.000000 0.000000
# 5 0.000000 0.000000 0.000000 0.000000 0.013487 0.000000
# 6 0.000000 0.000000 0.000000 0.000000 0.000000 0.028523
#
#
# Mechanical properties :
#
#
# Convention : Reuss Voigt Hill
#
# Bulk Modulus (GPa) = 124.87242 140.08121 132.47681
# Shear Modulus (GPa) = 61.42108 72.53629 66.97868
#
# Velocity S-wave (km/s) = 4.44506 4.83055 4.64181
# Velocity P-wave (km/s) = 8.15567 8.72783 8.44660
#
# Compressibility (1/GPa) = 0.00800817
#
# Stress axis : x y z
#
# Youngs Moduli (GPa) = 147.86383 146.39453 240.85303
#
# Poissons Ratio (x) = 0.23786 0.54547
# Poissons Ratio (y) = 0.24025 0.23585
# Poissons Ratio (z) = 0.33487 0.14336
#
# Static dielectric constant tensor:
#      x y z
#    x 2.312540 0.000000 0.000000 
#    y 0.000000 2.253030 0.000000 
#    z 0.000000 0.000000 2.328710 
# 
# From -- ./inp_files/16842.got.cif
#   From: 2010.05.17/outbox.cif.g08.bks.cpg/sg43_9_cif.got.tgz:16842.got - 2010.06.03 19:21:55.
