data_PCOD9372263
_publ_section_title
;
Structure prediction by ZEFSAII (Michael W. Deem and Ramdas Pophale) SiO2 
 PCOD9372263
Probable space group: F D D 2
;
_chemical_formula_sum "Si O2"
_cell_formula_units_Z 120
_cell_length_a 29.017869
_cell_length_b 15.731667
_cell_length_c 11.250797
_cell_angle_alpha 90.000000
_cell_angle_beta 90.000000
_cell_angle_gamma 90.000000
_cell_volume 5135.982667
_symmetry_space_group_name_H-M "F D D 2"
_symmetry_group_IT_number 43
_symmetry_cell_setting 'orthorhombic'
loop_
_space_group_symop_operation_xyz
x,y,z
-x,-y,z
1/4-x,1/4+y,1/4+z
1/4+x,1/4-y,1/4+z
x,1/2+y,1/2+z
-x,1/2-y,1/2+z
1/4-x,3/4+y,3/4+z
1/4+x,3/4-y,3/4+z
1/2+x,y,1/2+z
1/2-x,-y,1/2+z
3/4-x,1/4+y,3/4+z
3/4+x,1/4-y,3/4+z
1/2+x,1/2+y,z
1/2-x,1/2-y,z
3/4-x,3/4+y,1/4+z
3/4+x,3/4-y,1/4+z
loop_
_atom_site_type_symbol
_atom_site_label
_atom_site_fract_x
_atom_site_fract_y
_atom_site_fract_z
Si Si1 0.871771 0.031861 0.821730
Si Si2 0.925429 0.395913 0.979001
Si Si3 0.551095 0.221278 0.778590
Si Si4 0.466332 0.111487 0.682780
Si Si5 0.500000 0.500000 0.385071
Si Si6 0.970052 0.604588 0.410456
Si Si7 0.151199 0.990153 0.431611
Si Si8 0.676743 0.868981 0.111262
O O1 0.834712 0.005453 0.921090
O O2 0.920132 0.068975 0.870987
O O3 0.847069 0.099898 0.734593
O O4 0.892104 0.939820 0.783143
O O5 0.920758 0.347528 0.854418
O O6 0.899181 0.486069 0.979035
O O7 0.978649 0.427085 0.969117
O O8 0.910184 0.326725 0.076416
O O9 0.507539 0.173630 0.722246
O O10 0.536071 0.296789 0.867272
O O11 0.464632 0.041907 0.787830
O O12 0.475658 0.083214 0.549174
O O13 0.420982 0.166424 0.661392
O O14 0.021726 0.581920 0.364258
O O15 0.180308 0.955872 0.540870
#
# Coordination Sequence:
#
# PCOD9372263 Si02
#       8
#    16  16  16  16   8  16  16  16
#     4  12  26  45  70 109 145 188 252 308 366 452
#     4  11  25  45  71 105 138 192 242 309 373 448
#     4  11  23  44  72 104 143 185 244 304 374 447
#     4  11  23  43  72 103 144 192 242 309 372 456
#     4  10  26  46  72 110 142 192 260 312 372 458
#     4  12  24  46  74 104 148 196 246 309 380 451
#     4  12  24  46  69 102 145 192 245 304 380 447
#     4  12  27  46  72 106 147 202 246 309 376 454
#
# _framework density 23.364563
#
# number of rings (size 3 to 8) (size 9 to 14) (size 15 to 20)
#    0.000    0.533    5.333    2.800    1.867    0.000 
#    7.200    0.000    0.000    0.000    0.000    0.000 
#    0.000    0.000    0.000    0.000    0.000    0.000 
#
# Total GULP energy -167057.175754 kJ/mol
# GULP energy per Si atom -5568.572525 kJ/mol
# Density = 2.331138 g / cm^3
# Si number density = 23.364563 Si / 1000 Ang^3
#
#
#
# Elastic Constant Matrix: (Units=GPa)
#
#
# Indices 1 2 3 4 5 6 
#
# 1 102.9546 26.9490 35.9075 0.0000 0.0000 0.0000
# 2 26.9490 74.1849 16.8660 0.0000 0.0000 0.0000
# 3 35.9075 16.8660 57.5783 0.0000 0.0000 0.0000
# 4 0.0000 0.0000 0.0000 17.2044 0.0000 0.0000
# 5 0.0000 0.0000 0.0000 0.0000 25.7522 0.0000
# 6 0.0000 0.0000 0.0000 0.0000 0.0000 58.2315
#
#
#
# Elastic Compliance Matrix: (Units=1/GPa)
#
#
# Indices 1 2 3 4 5 6 
#
# 1 0.013044 -0.003095 -0.007228 0.000000 0.000000 0.000000
# 2 -0.003095 0.015176 -0.002515 0.000000 0.000000 0.000000
# 3 -0.007228 -0.002515 0.022612 0.000000 0.000000 0.000000
# 4 0.000000 0.000000 0.000000 0.058125 0.000000 0.000000
# 5 0.000000 0.000000 0.000000 0.000000 0.038832 0.000000
# 6 0.000000 0.000000 0.000000 0.000000 0.000000 0.017173
#
#
# Mechanical properties :
#
#
# Convention : Reuss Voigt Hill
#
# Bulk Modulus (GPa) = 39.75290 43.79585 41.77438
# Shear Modulus (GPa) = 25.12271 30.57065 27.84668
#
# Velocity S-wave (km/s) = 3.28266 3.62113 3.45604
# Velocity P-wave (km/s) = 5.60526 6.02235 5.81754
#
# Compressibility (1/GPa) = 0.02515540
#
# Stress axis : x y z
#
# Youngs Moduli (GPa) = 76.66277 65.89335 44.22424
#
# Poissons Ratio (x) = 0.20395 0.31966
# Poissons Ratio (y) = 0.23729 0.11123
# Poissons Ratio (z) = 0.55412 0.16573
#
# Static dielectric constant tensor:
#      x y z
#    x 2.278950 0.000000 0.000000 
#    y 0.000000 2.005560 0.000000 
#    z 0.000000 0.000000 1.873430 
# 
# From -- ./inp_files/8363.got.cif
#   From: 2010.05.17/outbox.cif.g08.bks.cpg/sg43_5_cif.got.tgz:8363.got - 2010.06.03 19:21:55.
