data_PCOD9372388
_publ_section_title
;
Structure prediction by ZEFSAII (Michael W. Deem and Ramdas Pophale) SiO2 
 PCOD9372388
Probable space group: F D D 2
;
_chemical_formula_sum "Si O2"
_cell_formula_units_Z 120
_cell_length_a 25.112094
_cell_length_b 9.596643
_cell_length_c 26.987373
_cell_angle_alpha 90.000000
_cell_angle_beta 90.000000
_cell_angle_gamma 90.000000
_cell_volume 6503.735626
_symmetry_space_group_name_H-M "F D D 2"
_symmetry_group_IT_number 43
_symmetry_cell_setting 'orthorhombic'
loop_
_space_group_symop_operation_xyz
x,y,z
-x,-y,z
1/4-x,1/4+y,1/4+z
1/4+x,1/4-y,1/4+z
x,1/2+y,1/2+z
-x,1/2-y,1/2+z
1/4-x,3/4+y,3/4+z
1/4+x,3/4-y,3/4+z
1/2+x,y,1/2+z
1/2-x,-y,1/2+z
3/4-x,1/4+y,3/4+z
3/4+x,1/4-y,3/4+z
1/2+x,1/2+y,z
1/2-x,1/2-y,z
3/4-x,3/4+y,1/4+z
3/4+x,3/4-y,1/4+z
loop_
_atom_site_type_symbol
_atom_site_label
_atom_site_fract_x
_atom_site_fract_y
_atom_site_fract_z
Si Si1 0.638062 0.684535 0.148730
Si Si2 0.812392 0.586338 0.308997
Si Si3 0.027334 0.699177 0.888428
Si Si4 0.076180 0.223118 0.946154
Si Si5 0.375066 0.997312 0.914834
Si Si6 0.396560 0.513978 0.236616
Si Si7 0.312129 0.422429 0.315476
Si Si8 0.750000 0.250000 0.054135
O O1 0.598772 0.716873 0.103617
O O2 0.685789 0.584205 0.130049
O O3 0.607842 0.594633 0.191065
O O4 0.660613 0.823479 0.173158
O O5 0.829955 0.534872 0.255200
O O6 0.750523 0.547372 0.315714
O O7 0.817243 0.754983 0.310196
O O8 0.068060 0.578820 0.905859
O O9 0.999757 0.635754 0.839675
O O10 0.983327 0.736098 0.928998
O O11 0.114768 0.342008 0.925173
O O12 0.351126 0.915452 0.961602
O O13 0.339917 0.968962 0.866374
O O14 0.344171 0.491947 0.270237
O O15 0.447568 0.490777 0.270777
#
# Coordination Sequence:
#
# PCOD9372388 Si02
#       8
#    16  16  16  16  16  16  16   8
#     4  11  24  40  63  94 134 167 216 259 324 388
#     4  11  23  38  67  96 124 172 214 260 318 391
#     4  11  21  42  64  95 124 167 211 272 311 389
#     4  12  24  41  65  96 131 169 214 269 327 372
#     4  11  23  41  62  92 131 161 217 269 317 383
#     4  11  22  39  66  94 123 171 211 266 320 383
#     4  11  21  41  66  93 126 166 219 262 314 389
#     4  12  22  38  74  96 126 162 224 264 332 378
#
# _framework density 18.450935000000001
#
# number of rings (size 3 to 8) (size 9 to 14) (size 15 to 20)
#    0.000    0.800    6.667    2.000    3.733    2.133 
#    0.000    2.000    0.000    0.000    0.000    0.000 
#    0.000    0.000    0.000    0.000    0.000    0.000 
#
# Total GULP energy -167655.546673 kJ/mol
# GULP energy per Si atom -5588.518222 kJ/mol
# Density = 1.840894 g / cm^3
# Si number density = 18.450935 Si / 1000 Ang^3
#
#
#
# Elastic Constant Matrix: (Units=GPa)
#
#
# Indices 1 2 3 4 5 6 
#
# 1 62.1828 31.7191 65.9108 0.0000 0.0000 0.0000
# 2 31.7191 88.9537 33.0125 0.0000 0.0000 0.0000
# 3 65.9108 33.0125 138.1785 0.0000 0.0000 0.0000
# 4 0.0000 0.0000 0.0000 26.2371 0.0000 0.0000
# 5 0.0000 0.0000 0.0000 0.0000 30.4836 0.0000
# 6 0.0000 0.0000 0.0000 0.0000 0.0000 15.3266
#
#
#
# Elastic Compliance Matrix: (Units=1/GPa)
#
#
# Indices 1 2 3 4 5 6 
#
# 1 0.036236 -0.007140 -0.015579 0.000000 0.000000 0.000000
# 2 -0.007140 0.013742 0.000122 0.000000 0.000000 0.000000
# 3 -0.015579 0.000122 0.014639 0.000000 0.000000 0.000000
# 4 0.000000 0.000000 0.000000 0.038114 0.000000 0.000000
# 5 0.000000 0.000000 0.000000 0.000000 0.032805 0.000000
# 6 0.000000 0.000000 0.000000 0.000000 0.000000 0.065246
#
#
# Mechanical properties :
#
#
# Convention : Reuss Voigt Hill
#
# Bulk Modulus (GPa) = 51.47935 61.17776 56.32856
# Shear Modulus (GPa) = 19.80597 24.98765 22.39681
#
# Velocity S-wave (km/s) = 3.27989 3.68404 3.48783
# Velocity P-wave (km/s) = 6.50422 7.16416 6.84215
#
# Compressibility (1/GPa) = 0.01942526
#
# Stress axis : x y z
#
# Youngs Moduli (GPa) = 27.59661 72.76854 68.31118
#
# Poissons Ratio (x) = 0.51953 1.06421
# Poissons Ratio (y) = 0.19703 -0.00836
# Poissons Ratio (z) = 0.42993 -0.00890
#
# Static dielectric constant tensor:
#      x y z
#    x 1.637110 0.000000 0.000000 
#    y 0.000000 1.628920 0.000000 
#    z 0.000000 0.000000 1.626860 
# 
# From -- ./inp_files/20537.got.cif
#   From: 2010.05.17/outbox.cif.g08.bks.cpg/sg43_11_cif.got.tgz:20537.got - 2010.06.03 19:21:55.
