data_PCOD9372110
_publ_section_title
;
Structure prediction by ZEFSAII (Michael W. Deem and Ramdas Pophale) SiO2 
 PCOD9372110
Probable space group: F D D 2
;
_chemical_formula_sum "Si O2"
_cell_formula_units_Z 80
_cell_length_a 20.320996
_cell_length_b 19.116985
_cell_length_c 7.882297
_cell_angle_alpha 90.000000
_cell_angle_beta 90.000000
_cell_angle_gamma 90.000000
_cell_volume 3062.084594
_symmetry_space_group_name_H-M "F D D 2"
_symmetry_group_IT_number 43
_symmetry_cell_setting 'orthorhombic'
loop_
_space_group_symop_operation_xyz
x,y,z
-x,-y,z
1/4-x,1/4+y,1/4+z
1/4+x,1/4-y,1/4+z
x,1/2+y,1/2+z
-x,1/2-y,1/2+z
1/4-x,3/4+y,3/4+z
1/4+x,3/4-y,3/4+z
1/2+x,y,1/2+z
1/2-x,-y,1/2+z
3/4-x,1/4+y,3/4+z
3/4+x,1/4-y,3/4+z
1/2+x,1/2+y,z
1/2-x,1/2-y,z
3/4-x,3/4+y,1/4+z
3/4+x,3/4-y,1/4+z
loop_
_atom_site_type_symbol
_atom_site_label
_atom_site_fract_x
_atom_site_fract_y
_atom_site_fract_z
Si Si1 0.206365 0.353790 0.208580
Si Si2 0.334216 0.875457 0.306759
Si Si3 0.750000 0.250000 0.966607
Si Si4 0.500000 0.500000 0.691833
Si Si5 0.988624 0.741709 0.856322
Si Si6 0.645609 0.474356 0.307712
O O1 0.128826 0.369788 0.225608
O O2 0.249958 0.320984 0.355678
O O3 0.236729 0.425713 0.143634
O O4 0.202789 0.291929 0.068730
O O5 0.284135 0.811498 0.337324
O O6 0.298094 0.945048 0.248830
O O7 0.380420 0.848681 0.152434
O O8 0.676782 0.256670 0.042139
O O9 0.944464 0.734819 0.687334
O O10 0.064335 0.718137 0.881504
#
# Coordination Sequence:
#
# PCOD9372110 Si02
#       6
#    16  16   8   8  16  16
#     4  10  24  45  74 113 155 212 263 333 400 485
#     4  11  23  47  77 113 160 213 268 331 409 484
#     4  11  27  48  76 120 158 208 270 334 398 490
#     4  11  23  46  76 112 160 214 268 330 412 486
#     4  11  26  49  80 116 160 208 265 334 407 484
#     4  11  27  48  75 116 159 207 260 333 405 482
#
# _framework density 26.125992
#
# number of rings (size 3 to 8) (size 9 to 14) (size 15 to 20)
#    0.000    1.200    0.000    5.400    8.400    1.600 
#    0.000    0.000    0.000    0.000    0.000    0.000 
#    0.000    0.000    0.000    0.000    0.000    0.000 
#
# Total GULP energy -111676.132119 kJ/mol
# GULP energy per Si atom -5583.806606 kJ/mol
# Density = 2.606653 g / cm^3
# Si number density = 26.125992 Si / 1000 Ang^3
#
#
#
# Elastic Constant Matrix: (Units=GPa)
#
#
# Indices 1 2 3 4 5 6 
#
# 1 177.2352 29.0754 55.7353 0.0006 -0.0008 -0.0001
# 2 29.0754 111.8106 19.8139 0.0013 -0.0016 -0.0003
# 3 55.7353 19.8139 58.2393 0.0037 -0.0043 -0.0014
# 4 0.0006 0.0013 0.0037 26.0901 -0.0023 -0.0007
# 5 -0.0008 -0.0016 -0.0043 -0.0023 41.0632 0.0008
# 6 -0.0001 -0.0003 -0.0014 -0.0007 0.0008 43.2706
#
#
#
# Elastic Compliance Matrix: (Units=1/GPa)
#
#
# Indices 1 2 3 4 5 6 
#
# 1 0.008135 -0.000783 -0.007519 0.000001 -0.000001 0.000000
# 2 -0.000783 0.009593 -0.002514 0.000000 0.000000 0.000000
# 3 -0.007519 -0.002514 0.025222 -0.000003 0.000002 0.000001
# 4 0.000001 0.000000 -0.000003 0.038329 0.000002 0.000001
# 5 -0.000001 0.000000 0.000002 0.000002 0.024353 0.000000
# 6 0.000000 0.000000 0.000001 0.000001 0.000000 0.023110
#
#
# Mechanical properties :
#
#
# Convention : Reuss Voigt Hill
#
# Bulk Modulus (GPa) = 46.91075 61.83714 54.37394
# Shear Modulus (GPa) = 31.75011 38.26216 35.00614
#
# Velocity S-wave (km/s) = 3.48985 3.83106 3.66443
# Velocity P-wave (km/s) = 5.85093 6.57948 6.22587
#
# Compressibility (1/GPa) = 0.02131708
#
# Stress axis : x y z
#
# Youngs Moduli (GPa) = 122.92281 104.24408 39.64849
#
# Poissons Ratio (x) = 0.08163 0.29812
# Poissons Ratio (y) = 0.09625 0.09969
# Poissons Ratio (z) = 0.92426 0.26210
#
# Static dielectric constant tensor:
#      x y z
#    x 2.121090 0.000000 0.000000 
#    y 0.000000 1.980050 0.000000 
#    z 0.000000 0.000000 2.313990 
# 
# From -- ./inp_files/3673.got.cif
#   From: 2010.05.17/outbox.cif.g08.bks.cpg/sg43_2_cif.got.tgz:3673.got - 2010.06.03 19:21:55.
