data_PCOD9372470
_publ_section_title
;
Structure prediction by ZEFSAII (Michael W. Deem and Ramdas Pophale) SiO2 
 PCOD9372470
Probable space group: F D D 2
;
_chemical_formula_sum "Si O2"
_cell_formula_units_Z 88
_cell_length_a 16.792462
_cell_length_b 25.650073
_cell_length_c 8.874696
_cell_angle_alpha 90.000000
_cell_angle_beta 90.000000
_cell_angle_gamma 90.000000
_cell_volume 3822.578960
_symmetry_space_group_name_H-M "F D D 2"
_symmetry_group_IT_number 43
_symmetry_cell_setting 'orthorhombic'
loop_
_space_group_symop_operation_xyz
x,y,z
-x,-y,z
1/4-x,1/4+y,1/4+z
1/4+x,1/4-y,1/4+z
x,1/2+y,1/2+z
-x,1/2-y,1/2+z
1/4-x,3/4+y,3/4+z
1/4+x,3/4-y,3/4+z
1/2+x,y,1/2+z
1/2-x,-y,1/2+z
3/4-x,1/4+y,3/4+z
3/4+x,1/4-y,3/4+z
1/2+x,1/2+y,z
1/2-x,1/2-y,z
3/4-x,3/4+y,1/4+z
3/4+x,3/4-y,1/4+z
loop_
_atom_site_type_symbol
_atom_site_label
_atom_site_fract_x
_atom_site_fract_y
_atom_site_fract_z
Si Si1 0.622533 0.499483 0.174080
Si Si2 0.437146 0.079292 0.191750
Si Si3 0.946363 0.114656 0.194401
Si Si4 0.501237 0.170185 0.386206
Si Si5 0.750000 0.750000 0.184692
Si Si6 0.690793 0.816325 0.684203
O O1 0.602999 0.438601 0.166037
O O2 0.709246 0.523087 0.143839
O O3 0.592367 0.518306 0.337440
O O4 0.564599 0.524968 0.047698
O O5 0.466287 0.136143 0.248546
O O6 0.346123 0.078285 0.139782
O O7 0.453812 0.040637 0.330871
O O8 0.492628 0.059414 0.057892
O O9 0.883586 0.155389 0.261802
O O10 0.018824 0.102727 0.305654
O O11 0.974377 0.140368 0.038715
#
# Coordination Sequence:
#
# PCOD9372470 Si02
#       6
#    16  16  16  16   8  16
#     4  11  23  46  71  97 131 194 222 278 338 430
#     4  12  25  45  64 108 131 179 220 300 339 408
#     4  11  22  44  68  98 130 189 222 272 337 421
#     4  11  24  47  74  97 144 177 236 277 353 407
#     4  12  24  44  72  90 140 174 236 272 352 404
#     4  11  24  42  68  94 138 169 224 282 340 391
#
# _framework density 23.021108999999999
#
# number of rings (size 3 to 8) (size 9 to 14) (size 15 to 20)
#    0.000    0.727    3.636    4.364    2.545    0.000 
#   13.091    0.000    0.000    0.000    0.000    0.000 
#    0.000    0.000    0.000    0.000    0.000    0.000 
#
# Total GULP energy -123137.543526 kJ/mol
# GULP energy per Si atom -5597.161069 kJ/mol
# Density = 2.296871 g / cm^3
# Si number density = 23.021109 Si / 1000 Ang^3
#
#
#
# Elastic Constant Matrix: (Units=GPa)
#
#
# Indices 1 2 3 4 5 6 
#
# 1 109.4476 6.7676 6.9670 0.0000 0.0000 0.0000
# 2 6.7676 44.2126 -9.9381 0.0000 0.0000 0.0000
# 3 6.9670 -9.9381 61.3244 0.0000 0.0000 0.0000
# 4 0.0000 0.0000 0.0000 -11.8550 0.0000 0.0000
# 5 0.0000 0.0000 0.0000 0.0000 25.1785 0.0000
# 6 0.0000 0.0000 0.0000 0.0000 0.0000 22.1559
#
#
#
# Elastic Compliance Matrix: (Units=1/GPa)
#
#
# Indices 1 2 3 4 5 6 
#
# 1 0.009329 -0.001729 -0.001340 0.000000 0.000000 0.000000
# 2 -0.001729 0.023794 0.004052 0.000000 0.000000 0.000000
# 3 -0.001340 0.004052 0.017116 0.000000 0.000000 0.000000
# 4 0.000000 0.000000 0.000000 -0.084353 0.000000 0.000000
# 5 0.000000 0.000000 0.000000 0.000000 0.039716 0.000000
# 6 0.000000 0.000000 0.000000 0.000000 0.000000 0.045135
#
#
# Mechanical properties :
#
#
# Convention : Reuss Voigt Hill
#
# Bulk Modulus (GPa) = 19.15547 24.73084 21.94316
# Shear Modulus (GPa) = 75.56038 21.17508 48.36773
#
# Velocity S-wave (km/s) = 5.73528 3.03613 4.58866
# Velocity P-wave (km/s) = 7.22474 4.80175 6.13407
#
# Compressibility (1/GPa) = 0.05220440
#
# Stress axis : x y z
#
# Youngs Moduli (GPa) = 107.19234 42.02820 58.42594
#
# Poissons Ratio (x) = 0.07268 0.07830
# Poissons Ratio (y) = 0.18536 -0.23676
# Poissons Ratio (z) = 0.14365 -0.17031
#
# Static dielectric constant tensor:
#      x y z
#    x 1.855290 0.000000 0.000000 
#    y 0.000000 1.920800 0.000000 
#    z 0.000000 0.000000 1.833570 
# 
# From -- ./inp_files/2926.got.cif
#   From: 2010.05.17/outbox.cif.g08.bks.cpg/sg43_2_cif.got.tgz:2926.got - 2010.06.03 19:21:55.
