data_PCOD9372799
_publ_section_title
;
Structure prediction by ZEFSAII (Michael W. Deem and Ramdas Pophale) SiO2 
 PCOD9372799
Probable space group: F D D 2
;
_chemical_formula_sum "Si O2"
_cell_formula_units_Z 88
_cell_length_a 32.834464
_cell_length_b 23.000678
_cell_length_c 5.247378
_cell_angle_alpha 90.000000
_cell_angle_beta 90.000000
_cell_angle_gamma 90.000000
_cell_volume 3962.898229
_symmetry_space_group_name_H-M "F D D 2"
_symmetry_group_IT_number 43
_symmetry_cell_setting 'orthorhombic'
loop_
_space_group_symop_operation_xyz
x,y,z
-x,-y,z
1/4-x,1/4+y,1/4+z
1/4+x,1/4-y,1/4+z
x,1/2+y,1/2+z
-x,1/2-y,1/2+z
1/4-x,3/4+y,3/4+z
1/4+x,3/4-y,3/4+z
1/2+x,y,1/2+z
1/2-x,-y,1/2+z
3/4-x,1/4+y,3/4+z
3/4+x,1/4-y,3/4+z
1/2+x,1/2+y,z
1/2-x,1/2-y,z
3/4-x,3/4+y,1/4+z
3/4+x,3/4-y,1/4+z
loop_
_atom_site_type_symbol
_atom_site_label
_atom_site_fract_x
_atom_site_fract_y
_atom_site_fract_z
Si Si1 0.977519 0.397990 0.377440
Si Si2 0.524800 0.233176 0.260051
Si Si3 0.750000 0.250000 0.272703
Si Si4 0.397554 0.186274 0.849665
Si Si5 0.403706 0.956379 0.597000
Si Si6 0.942012 0.073434 0.158849
O O1 0.967989 0.335973 0.257703
O O2 0.976615 0.452814 0.190424
O O3 0.943947 0.415874 0.586090
O O4 0.023799 0.397600 0.480109
O O5 0.492933 0.246883 0.488032
O O6 0.565420 0.268147 0.330887
O O7 0.781437 0.286379 0.107142
O O8 0.366467 0.202163 0.623342
O O9 0.415752 0.123015 0.788222
O O10 0.376700 0.186095 0.124974
O O11 0.414852 0.023367 0.532857
#
# Coordination Sequence:
#
# PCOD9372799 Si02
#       6
#    16  16   8  16  16  16
#     4  12  26  46  81 107 147 200 263 309 364 464
#     4  12  27  50  75 110 149 203 251 300 383 454
#     4  12  22  48  82 110 140 200 264 314 358 436
#     4  12  30  48  74 113 159 192 243 324 385 443
#     4  12  28  48  73 114 146 203 243 315 385 438
#     4  12  26  50  77 109 151 200 261 312 369 463
#
# _framework density 22.205969
#
# number of rings (size 3 to 8) (size 9 to 14) (size 15 to 20)
#    0.000    0.000    5.455    3.273    7.636    0.000 
#    0.000    0.000    0.000    0.000    0.000    0.000 
#    0.000    0.000    0.000    0.000    0.000    0.000 
#
# Total GULP energy -123253.033522 kJ/mol
# GULP energy per Si atom -5602.410615 kJ/mol
# Density = 2.215543 g / cm^3
# Si number density = 22.205969 Si / 1000 Ang^3
#
#
#
# Elastic Constant Matrix: (Units=GPa)
#
#
# Indices 1 2 3 4 5 6 
#
# 1 66.9412 18.7328 -3.5864 0.0203 -4.4540 -0.0072
# 2 18.7328 156.6740 -5.6471 0.0698 -4.5795 0.0021
# 3 -3.5864 -5.6471 53.8099 0.1082 -3.4339 0.0150
# 4 0.0203 0.0698 0.1082 110.9351 10.6645 0.0492
# 5 -4.4540 -4.5795 -3.4339 10.6645-8030.0272 -2.5300
# 6 -0.0072 0.0021 0.0150 0.0492 -2.5300 17.2903
#
#
#
# Elastic Compliance Matrix: (Units=1/GPa)
#
#
# Indices 1 2 3 4 5 6 
#
# 1 0.015493 -0.001822 0.000841 -0.000002 -0.000008 0.000005
# 2 -0.001822 0.006621 0.000573 -0.000004 -0.000003 -0.000002
# 3 0.000841 0.000573 0.018700 -0.000018 -0.000009 -0.000017
# 4 -0.000002 -0.000004 -0.000018 0.009013 0.000012 -0.000024
# 5 -0.000008 -0.000003 -0.000009 0.000012 -0.000125 -0.000018
# 6 0.000005 -0.000002 -0.000017 -0.000024 -0.000018 0.057833
#
#
# Mechanical properties :
#
#
# Convention : Reuss Voigt Hill
#
# Bulk Modulus (GPa) = 25.00177 32.93598 28.96888
# Shear Modulus (GPa) = 41.08979 -1562.49865 -760.70443
#
# Velocity S-wave (km/s) = 4.30629 -26.55497 -18.52866
# Velocity P-wave (km/s) = 6.00075 30.41970 21.08731
#
# Compressibility (1/GPa) = 0.03999716
#
# Stress axis : x y z
#
# Youngs Moduli (GPa) = 64.54540 151.03123 53.47699
#
# Poissons Ratio (x) = 0.27523 -0.04497
# Poissons Ratio (y) = 0.11762 -0.03065
# Poissons Ratio (z) = -0.05427 -0.08657
#
# Static dielectric constant tensor:
#      x y z
#    x 4.287280 0.001150 0.001160 
#    y 0.001150 1.740930 -0.000030 
#    z 0.001160 -0.000030 1.827130 
# 
# From -- ./inp_files/1019.got.cif
#   From: 2010.05.17/outbox.cif.g08.bks.cpg/sg43_1_cif.got.tgz:1019.got - 2010.06.03 19:21:55.
