data_PCOD9372962
_publ_section_title
;
Structure prediction by ZEFSAII (Michael W. Deem and Ramdas Pophale) SiO2 
 PCOD9372962
Probable space group: F D D 2
;
_chemical_formula_sum "Si O2"
_cell_formula_units_Z 28
_cell_length_a 15.000000
_cell_length_b 24.000000
_cell_length_c 15.000000
_cell_angle_alpha 90.000000
_cell_angle_beta 90.000000
_cell_angle_gamma 90.000000
_cell_volume 5400.000000
_symmetry_space_group_name_H-M "F D D 2"
_symmetry_group_IT_number 43
_symmetry_cell_setting 'orthorhombic'
loop_
_space_group_symop_operation_xyz
x,y,z
-x,-y,z
1/4-x,1/4+y,1/4+z
1/4+x,1/4-y,1/4+z
x,1/2+y,1/2+z
-x,1/2-y,1/2+z
1/4-x,3/4+y,3/4+z
1/4+x,3/4-y,3/4+z
1/2+x,y,1/2+z
1/2-x,-y,1/2+z
3/4-x,1/4+y,3/4+z
3/4+x,1/4-y,3/4+z
1/2+x,1/2+y,z
1/2-x,1/2-y,z
3/4-x,3/4+y,1/4+z
3/4+x,3/4-y,1/4+z
loop_
_atom_site_type_symbol
_atom_site_label
_atom_site_fract_x
_atom_site_fract_y
_atom_site_fract_z
Si Si1 0.398298 0.504175 0.296200
Si Si2 0.444749 0.150281 0.198068
Si Si3 0.918872 0.150586 0.958661
Si Si4 0.398781 0.291620 0.913562
Si Si5 0.477940 0.680847 0.493535
Si Si6 0.353295 0.319774 0.723286
Si Si7 0.712983 0.811843 0.308499
O O1 0.500000 0.500000 0.264868
O O2 0.354786 0.443966 0.286348
O O3 0.329777 0.546448 0.246075
O O4 0.400490 0.524644 0.396764
O O5 0.408334 0.087797 0.217274
O O6 0.547552 0.154132 0.223451
O O7 0.374036 0.190945 0.244616
O O8 0.445559 0.166761 0.093809
O O9 0.832472 0.154424 0.892696
O O10 0.003457 0.179026 0.908279
O O11 0.959770 0.095735 0.005041
O O12 0.418045 0.230658 0.952880
O O13 0.348086 0.290960 0.819362
O O14 0.463775 0.620286 0.450039
O O15 0.750000 0.750000 0.327462
#
# Coordination Sequence:
#
# PCOD9372962 Si02
#       7
#    16  16  16  16  16  16  16
#     4  10  22  44  61  85 135 169 217 276 336 414
#     4   9  19  36  60  92 133 162 210 279 329 397
#     4  10  22  43  65  96 133 180 224 287 341 413
#     4   9  18  37  60  89 129 161 214 266 333 396
#     4   9  20  38  64  93 120 171 219 271 335 405
#     4  10  19  39  61  92 125 165 215 273 333 400
#     4  11  23  41  70 102 139 180 236 285 356 417
#
# _framework density 5.1851849999999997
#
# number of rings (size 3 to 8) (size 9 to 14) (size 15 to 20)
#    0.000    2.286    1.429    0.429    0.000    5.143 
#   15.429    0.000    0.000    0.000    0.000    0.000 
#    0.000    0.000    0.000    0.000    0.000    0.000 
#
# Total GULP energy -155957.912832 kJ/mol
# GULP energy per Si atom -5569.925458 kJ/mol
# Density = 0.517338 g / cm^3
# Si number density = 5.185185 Si / 1000 Ang^3
#
#
#
# Elastic Constant Matrix: (Units=GPa)
#
#
# Indices 1 2 3 4 5 6 
#
# 1 103.3271 32.5051 15.1687 0.0000 0.0000 0.0000
# 2 32.5051 85.5842 51.3608 0.0000 0.0000 0.0000
# 3 15.1687 51.3608 70.8549 0.0000 0.0000 0.0000
# 4 0.0000 0.0000 0.0000 22.1974 0.0000 0.0000
# 5 0.0000 0.0000 0.0000 0.0000 -1.8356 0.0000
# 6 0.0000 0.0000 0.0000 0.0000 0.0000 29.2503
#
#
#
# Elastic Compliance Matrix: (Units=1/GPa)
#
#
# Indices 1 2 3 4 5 6 
#
# 1 0.011048 -0.004915 0.001197 0.000000 0.000000 0.000000
# 2 -0.004915 0.022867 -0.015524 0.000000 0.000000 0.000000
# 3 0.001197 -0.015524 0.025110 0.000000 0.000000 0.000000
# 4 0.000000 0.000000 0.000000 0.045050 0.000000 0.000000
# 5 0.000000 0.000000 0.000000 0.000000 -0.544792 0.000000
# 6 0.000000 0.000000 0.000000 0.000000 0.000000 0.034188
#
#
# Mechanical properties :
#
#
# Convention : Reuss Voigt Hill
#
# Bulk Modulus (GPa) = 48.67818 50.87060 49.77439
# Shear Modulus (GPa) = -13.84277 20.63787 3.39755
#
# Velocity S-wave (km/s) = -2.58625 3.15785 1.28127
# Velocity P-wave (km/s) = 3.82133 6.15436 5.12244
#
# Compressibility (1/GPa) = 0.02054308
#
# Stress axis : x y z
#
# Youngs Moduli (GPa) = 90.51136 43.73110 39.82533
#
# Poissons Ratio (x) = 0.21493 -0.04768
# Poissons Ratio (y) = 0.44484 0.61823
# Poissons Ratio (z) = -0.10837 0.67886
#
# Static dielectric constant tensor:
#      x y z
#    x 1.760260 0.000000 0.000000 
#    y 0.000000 1.732480 0.000000 
#    z 0.000000 0.000000 1.833540 
# 
# From -- ./inp_files/10184.got.cif
#   From: 2010.05.17/outbox.ucp.g08.bks.cvg/sg43_6_cif.got.tgz:10184.got - 2010.06.11 16:31:01.
