data_PCOD9372439
_publ_section_title
;
Structure prediction by ZEFSAII (Michael W. Deem and Ramdas Pophale) SiO2 
 PCOD9372439
Probable space group: F D D 2
;
_chemical_formula_sum "Si O2"
_cell_formula_units_Z 64
_cell_length_a 14.681096
_cell_length_b 18.195092
_cell_length_c 9.518947
_cell_angle_alpha 90.000000
_cell_angle_beta 90.000000
_cell_angle_gamma 90.000000
_cell_volume 2542.738174
_symmetry_space_group_name_H-M "F D D 2"
_symmetry_group_IT_number 43
_symmetry_cell_setting 'orthorhombic'
loop_
_space_group_symop_operation_xyz
x,y,z
-x,-y,z
1/4-x,1/4+y,1/4+z
1/4+x,1/4-y,1/4+z
x,1/2+y,1/2+z
-x,1/2-y,1/2+z
1/4-x,3/4+y,3/4+z
1/4+x,3/4-y,3/4+z
1/2+x,y,1/2+z
1/2-x,-y,1/2+z
3/4-x,1/4+y,3/4+z
3/4+x,1/4-y,3/4+z
1/2+x,1/2+y,z
1/2-x,1/2-y,z
3/4-x,3/4+y,1/4+z
3/4+x,3/4-y,1/4+z
loop_
_atom_site_type_symbol
_atom_site_label
_atom_site_fract_x
_atom_site_fract_y
_atom_site_fract_z
Si Si1 0.644987 0.949770 0.045340
Si Si2 0.928089 0.865587 0.099924
Si Si3 0.090636 0.237674 0.320414
Si Si4 0.131816 0.114605 0.518348
O O1 0.654150 0.905467 0.191044
O O2 0.751394 0.969305 0.020281
O O3 0.600113 0.031222 0.046426
O O4 0.605168 0.902180 0.919422
O O5 0.869887 0.807033 0.189739
O O6 0.029476 0.857649 0.165881
O O7 0.903887 0.949459 0.130734
O O8 0.071292 0.175002 0.435704
#
# Coordination Sequence:
#
# PCOD9372439 Si02
#       4
#    16  16  16  16
#     4  11  24  44  67 101 141 187 240 299 360 433
#     4  11  23  42  67  99 139 186 239 298 361 431
#     4  11  22  41  66  98 137 182 237 298 355 429
#     4  11  24  43  70 102 143 191 240 299 370 437
#
# _framework density 25.169716999999999
#
# number of rings (size 3 to 8) (size 9 to 14) (size 15 to 20)
#    0.000    1.000    0.000    8.250    0.000    4.000 
#    0.000    8.750    0.000    0.000    0.000    0.000 
#    0.000    0.000    0.000    0.000    0.000    0.000 
#
# Total GULP energy -89384.116568 kJ/mol
# GULP energy per Si atom -5586.507285 kJ/mol
# Density = 2.511243 g / cm^3
# Si number density = 25.169717 Si / 1000 Ang^3
#
#
#
# Elastic Constant Matrix: (Units=GPa)
#
#
# Indices 1 2 3 4 5 6 
#
# 1 48.2798 45.0827 6.8628 0.0000 0.0000 0.0000
# 2 45.0827 162.7465 48.4540 0.0000 0.0000 0.0000
# 3 6.8628 48.4540 147.1478 0.0000 0.0000 0.0000
# 4 0.0000 0.0000 0.0000 63.3756 0.0000 0.0000
# 5 0.0000 0.0000 0.0000 0.0000 11.9511 0.0000
# 6 0.0000 0.0000 0.0000 0.0000 0.0000 35.6949
#
#
#
# Elastic Compliance Matrix: (Units=1/GPa)
#
#
# Indices 1 2 3 4 5 6 
#
# 1 0.028195 -0.008225 0.001393 0.000000 0.000000 0.000000
# 2 -0.008225 0.009212 -0.002650 0.000000 0.000000 0.000000
# 3 0.001393 -0.002650 0.007603 0.000000 0.000000 0.000000
# 4 0.000000 0.000000 0.000000 0.015779 0.000000 0.000000
# 5 0.000000 0.000000 0.000000 0.000000 0.083674 0.000000
# 6 0.000000 0.000000 0.000000 0.000000 0.000000 0.028015
#
#
# Mechanical properties :
#
#
# Convention : Reuss Voigt Hill
#
# Bulk Modulus (GPa) = 38.39156 62.10814 50.24985
# Shear Modulus (GPa) = 24.98446 39.38930 32.18688
#
# Velocity S-wave (km/s) = 3.15404 3.96023 3.57990
# Velocity P-wave (km/s) = 5.34323 6.75578 6.09060
#
# Compressibility (1/GPa) = 0.02604739
#
# Stress axis : x y z
#
# Youngs Moduli (GPa) = 35.46719 108.55509 131.51963
#
# Poissons Ratio (x) = 0.89289 -0.18327
# Poissons Ratio (y) = 0.29173 0.34849
# Poissons Ratio (z) = -0.04942 0.28764
#
# Static dielectric constant tensor:
#      x y z
#    x 2.170100 0.000000 0.000000 
#    y 0.000000 2.000790 0.000000 
#    z 0.000000 0.000000 2.015390 
# 
# From -- ./inp_files/2604.got.cif
#   From: 2010.05.17/outbox.cif.g08.bks.cpg/sg43_2_cif.got.tgz:2604.got - 2010.06.03 19:21:55.
