data_PCOD9372477
_publ_section_title
;
Structure prediction by ZEFSAII (Michael W. Deem and Ramdas Pophale) SiO2 
 PCOD9372477
Probable space group: F D D 2
;
_chemical_formula_sum "Si O2"
_cell_formula_units_Z 120
_cell_length_a 24.915765
_cell_length_b 26.418315
_cell_length_c 8.697114
_cell_angle_alpha 90.000000
_cell_angle_beta 90.000000
_cell_angle_gamma 90.000000
_cell_volume 5724.723337
_symmetry_space_group_name_H-M "F D D 2"
_symmetry_group_IT_number 43
_symmetry_cell_setting 'orthorhombic'
loop_
_space_group_symop_operation_xyz
x,y,z
-x,-y,z
1/4-x,1/4+y,1/4+z
1/4+x,1/4-y,1/4+z
x,1/2+y,1/2+z
-x,1/2-y,1/2+z
1/4-x,3/4+y,3/4+z
1/4+x,3/4-y,3/4+z
1/2+x,y,1/2+z
1/2-x,-y,1/2+z
3/4-x,1/4+y,3/4+z
3/4+x,1/4-y,3/4+z
1/2+x,1/2+y,z
1/2-x,1/2-y,z
3/4-x,3/4+y,1/4+z
3/4+x,3/4-y,1/4+z
loop_
_atom_site_type_symbol
_atom_site_label
_atom_site_fract_x
_atom_site_fract_y
_atom_site_fract_z
Si Si1 0.594627 0.518483 0.179050
Si Si2 0.310159 0.053142 0.654428
Si Si3 0.825362 0.922635 0.983575
Si Si4 0.235677 0.991407 0.465169
Si Si5 0.250000 0.250000 0.194509
Si Si6 0.797619 0.810633 0.931241
Si Si7 0.364879 0.471711 0.666142
Si Si8 0.052748 0.078648 0.468114
O O1 0.628964 0.466429 0.176551
O O2 0.568407 0.538797 0.335064
O O3 0.636911 0.560616 0.122213
O O4 0.549479 0.513091 0.051560
O O5 0.301896 0.112923 0.666229
O O6 0.282099 0.032857 0.498747
O O7 0.280222 0.022611 0.791901
O O8 0.826194 0.864031 0.948172
O O9 0.843814 0.953516 0.831476
O O10 0.764641 0.939978 0.021894
O O11 0.183937 0.010291 0.558045
O O12 0.235999 0.203572 0.082918
O O13 0.842045 0.767057 0.920509
O O14 0.754198 0.814168 0.794350
O O15 0.399022 0.426489 0.590650
#
# Coordination Sequence:
#
# PCOD9372477 Si02
#       8
#    16  16  16  16   8  16  16  16
#     4  11  27  46  69 104 148 177 232 297 348 421
#     4  11  25  47  70 102 140 185 236 289 347 416
#     4  11  25  46  70 104 135 190 239 280 358 419
#     4  11  22  45  67  98 139 181 233 292 336 419
#     4  12  26  48  70 102 146 184 226 294 368 412
#     4  12  25  46  73  99 140 188 234 291 349 431
#     4  12  24  43  69 100 143 181 231 294 354 413
#     4  12  25  45  69 108 137 188 239 282 357 415
#
# _framework density 20.961711999999999
#
# number of rings (size 3 to 8) (size 9 to 14) (size 15 to 20)
#    0.000    0.533    6.667    0.000    5.600    1.067 
#    7.200    0.000    0.000    0.000    0.000    0.000 
#    0.000    0.000    0.000    0.000    0.000    0.000 
#
# Total GULP energy -167646.652598 kJ/mol
# GULP energy per Si atom -5588.221753 kJ/mol
# Density = 2.091400 g / cm^3
# Si number density = 20.961712 Si / 1000 Ang^3
#
#
#
# Elastic Constant Matrix: (Units=GPa)
#
#
# Indices 1 2 3 4 5 6 
#
# 1 74.9880 34.6099 24.3999 0.0036 -0.0020 -0.0004
# 2 34.6099 105.6307 20.3216 0.0000 0.0007 0.0005
# 3 24.3999 20.3216 51.3689 0.0039 -0.0004 0.0010
# 4 0.0036 0.0000 0.0039 19.4015 -0.0014 0.0001
# 5 -0.0020 0.0007 -0.0004 -0.0014 46.3855 -0.0008
# 6 -0.0004 0.0005 0.0010 0.0001 -0.0008 19.8288
#
#
#
# Elastic Compliance Matrix: (Units=1/GPa)
#
#
# Indices 1 2 3 4 5 6 
#
# 1 0.017539 -0.004485 -0.006557 -0.000002 0.000001 0.000001
# 2 -0.004485 0.011394 -0.002377 0.000001 0.000000 0.000000
# 3 -0.006557 -0.002377 0.023522 -0.000003 0.000000 -0.000001
# 4 -0.000002 0.000001 -0.000003 0.051543 0.000002 0.000000
# 5 0.000001 0.000000 0.000000 0.000002 0.021558 0.000001
# 6 0.000001 0.000000 -0.000001 0.000000 0.000001 0.050432
#
#
# Mechanical properties :
#
#
# Convention : Reuss Voigt Hill
#
# Bulk Modulus (GPa) = 39.03654 43.40557 41.22106
# Shear Modulus (GPa) = 23.65593 27.30024 25.47808
#
# Velocity S-wave (km/s) = 3.36300 3.61277 3.49012
# Velocity P-wave (km/s) = 5.80887 6.17696 5.99574
#
# Compressibility (1/GPa) = 0.02561702
#
# Stress axis : x y z
#
# Youngs Moduli (GPa) = 57.01584 87.76684 42.51400
#
# Poissons Ratio (x) = 0.39366 0.27874
# Poissons Ratio (y) = 0.25573 0.10105
# Poissons Ratio (z) = 0.37383 0.20862
#
# Static dielectric constant tensor:
#      x y z
#    x 1.779380 0.000000 0.000000 
#    y 0.000000 1.732400 0.000000 
#    z 0.000000 0.000000 1.791830 
# 
# From -- ./inp_files/3895.got.cif
#   From: 2010.05.17/outbox.cif.g08.bks.cpg/sg43_2_cif.got.tgz:3895.got - 2010.06.03 19:21:55.
