data_PCOD9372732
_publ_section_title
;
Structure prediction by ZEFSAII (Michael W. Deem and Ramdas Pophale) SiO2 
 PCOD9372732
Probable space group: F D D 2
;
_chemical_formula_sum "Si O2"
_cell_formula_units_Z 120
_cell_length_a 17.740287
_cell_length_b 17.740224
_cell_length_c 17.925829
_cell_angle_alpha 90.000000
_cell_angle_beta 90.000000
_cell_angle_gamma 90.000000
_cell_volume 5641.557124
_symmetry_space_group_name_H-M "F D D 2"
_symmetry_group_IT_number 43
_symmetry_cell_setting 'orthorhombic'
loop_
_space_group_symop_operation_xyz
x,y,z
-x,-y,z
1/4-x,1/4+y,1/4+z
1/4+x,1/4-y,1/4+z
x,1/2+y,1/2+z
-x,1/2-y,1/2+z
1/4-x,3/4+y,3/4+z
1/4+x,3/4-y,3/4+z
1/2+x,y,1/2+z
1/2-x,-y,1/2+z
3/4-x,1/4+y,3/4+z
3/4+x,1/4-y,3/4+z
1/2+x,1/2+y,z
1/2-x,1/2-y,z
3/4-x,3/4+y,1/4+z
3/4+x,3/4-y,1/4+z
loop_
_atom_site_type_symbol
_atom_site_label
_atom_site_fract_x
_atom_site_fract_y
_atom_site_fract_z
Si Si1 0.396448 0.739525 0.143340
Si Si2 0.876427 0.738721 0.001721
Si Si3 0.250000 0.250000 0.746399
Si Si4 0.383130 0.479359 0.230338
Si Si5 0.760475 0.396449 0.349458
Si Si6 0.229360 0.633130 0.512460
Si Si7 0.257308 0.992692 0.121399
Si Si8 0.511279 0.873573 0.741077
O O1 0.322172 0.745329 0.192836
O O2 0.429399 0.820601 0.121399
O O3 0.456133 0.692442 0.190303
O O4 0.386976 0.701759 0.063318
O O5 0.915863 0.747233 0.920306
O O6 0.942442 0.706134 0.052496
O O7 0.838228 0.812512 0.038070
O O8 0.806220 0.680795 0.000668
O O9 0.245329 0.177828 0.799962
O O10 0.312770 0.498739 0.178394
O O11 0.437488 0.411770 0.204728
O O12 0.430796 0.556219 0.242130
O O13 0.798241 0.386977 0.429480
O O14 0.248739 0.562770 0.564405
O O15 0.252767 0.915862 0.072492
#
# Coordination Sequence:
#
# PCOD9372732 Si02
#       8
#    16  16   8  16  16  16  16  16
#     4  12  25  44  69 104 136 184 228 296 349 426
#     4  11  26  45  68 101 139 181 237 290 354 428
#     4  12  28  40  72 104 144 180 242 284 376 416
#     4  11  26  45  69  99 141 183 232 295 355 432
#     4  12  25  44  69 104 136 184 228 296 349 426
#     4  11  26  45  69  99 141 183 232 295 355 432
#     4  12  26  44  72 102 138 190 236 292 368 424
#     4  11  26  45  68 101 139 181 237 290 354 428
#
# _framework density 21.270723
#
# number of rings (size 3 to 8) (size 9 to 14) (size 15 to 20)
#    0.000    0.533    2.667    4.800   11.200    0.000 
#    0.000    0.000    0.000    3.200    0.000    0.000 
#    0.000    0.000    0.000    0.000    0.000    0.000 
#
# Total GULP energy -167682.342403 kJ/mol
# GULP energy per Si atom -5589.411413 kJ/mol
# Density = 2.122231 g / cm^3
# Si number density = 21.270723 Si / 1000 Ang^3
#
#
#
# Elastic Constant Matrix: (Units=GPa)
#
#
# Indices 1 2 3 4 5 6 
#
# 1 110.3153 72.3531 57.6599 0.0000 0.0000 0.0000
# 2 72.3531 110.3116 57.6593 0.0000 0.0000 0.0000
# 3 57.6599 57.6593 130.0957 0.0000 0.0000 0.0000
# 4 0.0000 0.0000 0.0000 59.0417 0.0000 0.0000
# 5 0.0000 0.0000 0.0000 0.0000 59.0288 0.0000
# 6 0.0000 0.0000 0.0000 0.0000 0.0000 35.2177
#
#
#
# Elastic Compliance Matrix: (Units=1/GPa)
#
#
# Indices 1 2 3 4 5 6 
#
# 1 0.016972 -0.009371 -0.003369 0.000000 0.000000 0.000000
# 2 -0.009371 0.016973 -0.003369 0.000000 0.000000 0.000000
# 3 -0.003369 -0.003369 0.010673 0.000000 0.000000 0.000000
# 4 0.000000 0.000000 0.000000 0.016937 0.000000 0.000000
# 5 0.000000 0.000000 0.000000 0.000000 0.016941 0.000000
# 6 0.000000 0.000000 0.000000 0.000000 0.000000 0.028395
#
#
# Mechanical properties :
#
#
# Convention : Reuss Voigt Hill
#
# Bulk Modulus (GPa) = 80.64702 80.67414 80.66058
# Shear Modulus (GPa) = 34.90607 41.52765 38.21686
#
# Velocity S-wave (km/s) = 4.05537 4.42332 4.24333
# Velocity P-wave (km/s) = 7.74112 8.00608 7.87471
#
# Compressibility (1/GPa) = 0.01239971
#
# Stress axis : x y z
#
# Youngs Moduli (GPa) = 58.92063 58.91839 93.69466
#
# Poissons Ratio (x) = 0.55212 0.31565
# Poissons Ratio (y) = 0.55214 0.31566
# Poissons Ratio (z) = 0.19850 0.19850
#
# Static dielectric constant tensor:
#      x y z
#    x 1.752400 0.000000 0.000000 
#    y 0.000000 1.752410 0.000000 
#    z 0.000000 0.000000 1.828220 
# 
# From -- ./inp_files/14286.got.cif
#   From: 2010.05.17/outbox.cif.g08.bks.cpg/sg43_8_cif.got.tgz:14286.got - 2010.06.03 19:21:55.
