data_PCOD9372425
_publ_section_title
;
Structure prediction by ZEFSAII (Michael W. Deem and Ramdas Pophale) SiO2 
 PCOD9372425
Probable space group: F D D 2
;
_chemical_formula_sum "Si O2"
_cell_formula_units_Z 96
_cell_length_a 13.473449
_cell_length_b 13.219662
_cell_length_c 24.584787
_cell_angle_alpha 90.000000
_cell_angle_beta 90.000000
_cell_angle_gamma 90.000000
_cell_volume 4378.905612
_symmetry_space_group_name_H-M "F D D 2"
_symmetry_group_IT_number 43
_symmetry_cell_setting 'orthorhombic'
loop_
_space_group_symop_operation_xyz
x,y,z
-x,-y,z
1/4-x,1/4+y,1/4+z
1/4+x,1/4-y,1/4+z
x,1/2+y,1/2+z
-x,1/2-y,1/2+z
1/4-x,3/4+y,3/4+z
1/4+x,3/4-y,3/4+z
1/2+x,y,1/2+z
1/2-x,-y,1/2+z
3/4-x,1/4+y,3/4+z
3/4+x,1/4-y,3/4+z
1/2+x,1/2+y,z
1/2-x,1/2-y,z
3/4-x,3/4+y,1/4+z
3/4+x,3/4-y,1/4+z
loop_
_atom_site_type_symbol
_atom_site_label
_atom_site_fract_x
_atom_site_fract_y
_atom_site_fract_z
Si Si1 0.417255 0.909824 0.538360
Si Si2 0.255328 0.474889 0.583545
Si Si3 0.643097 0.687521 0.930504
Si Si4 0.974980 0.253482 0.626177
Si Si5 0.330802 0.663612 0.164158
Si Si6 0.442789 0.392066 0.533087
O O1 0.304492 0.949684 0.545435
O O2 0.409941 0.829384 0.488652
O O3 0.434868 0.851642 0.595454
O O4 0.500000 0.000000 0.530213
O O5 0.324929 0.513497 0.633252
O O6 0.171462 0.409997 0.613344
O O7 0.328645 0.409329 0.547440
O O8 0.750000 0.750000 0.933526
O O9 0.656746 0.572296 0.909554
O O10 0.063235 0.284656 0.666131
O O11 0.015656 0.184423 0.576911
O O12 0.250000 0.750000 0.153971
O O13 0.301451 0.611565 0.220423
O O14 0.500000 0.500000 0.537901
#
# Coordination Sequence:
#
# PCOD9372425 Si02
#       6
#    16  16  16  16  16  16
#     4  12  30  46  67 108 150 188 231 288 371 428
#     4  12  23  46  68 101 142 175 232 292 347 424
#     4  12  26  48  77 107 133 187 252 292 349 424
#     4  12  23  46  68 101 142 175 232 292 347 424
#     4  11  22  39  70  97 130 178 224 287 350 409
#     4  11  22  43  70 100 129 175 237 291 340 407
#
# _framework density 21.923286000000001
#
# number of rings (size 3 to 8) (size 9 to 14) (size 15 to 20)
#    0.000    0.333    6.667    2.000    4.667    2.667 
#    0.000    1.667    0.000    0.000    0.000    0.000 
#    0.000    0.000    0.000    0.000    0.000    0.000 
#
# Total GULP energy -133991.976079 kJ/mol
# GULP energy per Si atom -5582.999003 kJ/mol
# Density = 2.187339 g / cm^3
# Si number density = 21.923286 Si / 1000 Ang^3
#
#
#
# Elastic Constant Matrix: (Units=GPa)
#
#
# Indices 1 2 3 4 5 6 
#
# 1 47.5684 4.1302 -0.8880 0.0000 0.0000 0.0000
# 2 4.1302 40.5350 8.9343 0.0000 0.0000 0.0000
# 3 -0.8880 8.9343 82.7126 0.0000 0.0000 0.0000
# 4 0.0000 0.0000 0.0000 69.1380 0.0000 0.0000
# 5 0.0000 0.0000 0.0000 0.0000 36.5664 0.0000
# 6 0.0000 0.0000 0.0000 0.0000 0.0000 28.7708
#
#
#
# Elastic Compliance Matrix: (Units=1/GPa)
#
#
# Indices 1 2 3 4 5 6 
#
# 1 0.021228 -0.002267 0.000473 0.000000 0.000000 0.000000
# 2 -0.002267 0.025514 -0.002780 0.000000 0.000000 0.000000
# 3 0.000473 -0.002780 0.012395 0.000000 0.000000 0.000000
# 4 0.000000 0.000000 0.000000 0.014464 0.000000 0.000000
# 5 0.000000 0.000000 0.000000 0.000000 0.027347 0.000000
# 6 0.000000 0.000000 0.000000 0.000000 0.000000 0.034757
#
#
# Mechanical properties :
#
#
# Convention : Reuss Voigt Hill
#
# Bulk Modulus (GPa) = 20.00479 21.68546 20.84513
# Shear Modulus (GPa) = 30.95630 37.47101 34.21365
#
# Velocity S-wave (km/s) = 3.76177 4.13872 3.95474
# Velocity P-wave (km/s) = 5.29270 5.72290 5.51200
#
# Compressibility (1/GPa) = 0.04998802
#
# Stress axis : x y z
#
# Youngs Moduli (GPa) = 47.10752 39.19442 80.67480
#
# Poissons Ratio (x) = 0.08886 -0.03814
# Poissons Ratio (y) = 0.10680 0.22430
# Poissons Ratio (z) = -0.02227 0.10897
#
# Static dielectric constant tensor:
#      x y z
#    x 1.734990 0.000000 0.000000 
#    y 0.000000 1.828080 0.000000 
#    z 0.000000 0.000000 1.768420 
# 
# From -- ./inp_files/17575.got.cif
#   From: 2010.05.17/outbox.cif.g08.bks.cpg/sg43_9_cif.got.tgz:17575.got - 2010.06.03 19:21:55.
