data_PCOD9372971
_publ_section_title
;
Structure prediction by ZEFSAII (Michael W. Deem and Ramdas Pophale) SiO2 
 PCOD9372971
Probable space group: F D D 2
;
_chemical_formula_sum "Si O2"
_cell_formula_units_Z 30
_cell_length_a 18.000000
_cell_length_b 27.000000
_cell_length_c 12.000000
_cell_angle_alpha 90.000000
_cell_angle_beta 90.000000
_cell_angle_gamma 90.000000
_cell_volume 5832.000000
_symmetry_space_group_name_H-M "F D D 2"
_symmetry_group_IT_number 43
_symmetry_cell_setting 'orthorhombic'
loop_
_space_group_symop_operation_xyz
x,y,z
-x,-y,z
1/4-x,1/4+y,1/4+z
1/4+x,1/4-y,1/4+z
x,1/2+y,1/2+z
-x,1/2-y,1/2+z
1/4-x,3/4+y,3/4+z
1/4+x,3/4-y,3/4+z
1/2+x,y,1/2+z
1/2-x,-y,1/2+z
3/4-x,1/4+y,3/4+z
3/4+x,1/4-y,3/4+z
1/2+x,1/2+y,z
1/2-x,1/2-y,z
3/4-x,3/4+y,1/4+z
3/4+x,3/4-y,1/4+z
loop_
_atom_site_type_symbol
_atom_site_label
_atom_site_fract_x
_atom_site_fract_y
_atom_site_fract_z
Si Si1 0.482195 0.580875 0.430550
Si Si2 0.298941 0.454388 0.103870
Si Si3 0.750000 0.250000 0.993308
Si Si4 0.644660 0.199305 0.806443
Si Si5 0.797500 0.409516 0.842132
Si Si6 0.119896 0.903631 0.820690
Si Si7 0.118135 0.831454 0.316502
Si Si8 0.125579 0.469763 0.104602
O O1 0.514194 0.546531 0.328736
O O2 0.430161 0.626271 0.382437
O O3 0.551018 0.596311 0.512722
O O4 0.427729 0.545760 0.503087
O O5 0.331670 0.507072 0.060587
O O6 0.310308 0.446303 0.237885
O O7 0.334564 0.401802 0.062214
O O8 0.211334 0.456031 0.079855
O O9 0.695434 0.224171 0.902818
O O10 0.650531 0.140232 0.838807
O O11 0.659243 0.187641 0.674642
O O12 0.709429 0.396368 0.837134
O O13 0.817443 0.432686 0.959969
O O14 0.105594 0.935481 0.710256
O O15 0.129556 0.778802 0.379038
#
# Coordination Sequence:
#
# PCOD9372971 Si02
#       8
#    16  16   8  16  16  16  16  16
#     4  12  28  47  74 107 147 194 240 308 356 441
#     4  10  23  40  71  99 142 186 241 296 354 434
#     4  12  22  46  70 106 142 184 236 300 364 420
#     4  11  22  41  71 102 135 184 231 295 369 415
#     4  10  22  39  67 104 145 178 234 302 354 425
#     4  10  24  45  67 105 144 185 240 293 363 429
#     4  12  26  46  76 105 147 189 249 293 373 431
#     4  11  26  48  67 104 145 194 238 297 357 439
#
# _framework density 5.1440330000000003
#
# number of rings (size 3 to 8) (size 9 to 14) (size 15 to 20)
#    0.000    1.067    2.667    2.400    7.467    1.067 
#    4.800    0.000    0.000    0.000    0.000    0.000 
#    0.000    0.000    0.000    0.000    0.000    0.000 
#
# Total GULP energy -167113.558048 kJ/mol
# GULP energy per Si atom -5570.451935 kJ/mol
# Density = 0.513232 g / cm^3
# Si number density = 5.144033 Si / 1000 Ang^3
#
#
#
# Elastic Constant Matrix: (Units=GPa)
#
#
# Indices 1 2 3 4 5 6 
#
# 1 82.7503 38.1884 26.6572 0.0000 0.0000 0.0000
# 2 38.1884 122.8990 34.0315 0.0000 0.0000 0.0000
# 3 26.6572 34.0315 77.0865 0.0000 0.0000 0.0000
# 4 0.0000 0.0000 0.0000 20.6428 0.0000 0.0000
# 5 0.0000 0.0000 0.0000 0.0000 36.4401 0.0000
# 6 0.0000 0.0000 0.0000 0.0000 0.0000 36.7004
#
#
#
# Elastic Compliance Matrix: (Units=1/GPa)
#
#
# Indices 1 2 3 4 5 6 
#
# 1 0.014912 -0.003652 -0.003544 0.000000 0.000000 0.000000
# 2 -0.003652 0.010164 -0.003224 0.000000 0.000000 0.000000
# 3 -0.003544 -0.003224 0.015622 0.000000 0.000000 0.000000
# 4 0.000000 0.000000 0.000000 0.048443 0.000000 0.000000
# 5 0.000000 0.000000 0.000000 0.000000 0.027442 0.000000
# 6 0.000000 0.000000 0.000000 0.000000 0.000000 0.027248
#
#
# Mechanical properties :
#
#
# Convention : Reuss Voigt Hill
#
# Bulk Modulus (GPa) = 50.36220 53.38776 51.87498
# Shear Modulus (GPa) = 29.19008 31.01390 30.10199
#
# Velocity S-wave (km/s) = 3.77057 3.88658 3.82901
# Velocity P-wave (km/s) = 6.59435 6.79289 6.69436
#
# Compressibility (1/GPa) = 0.01985616
#
# Stress axis : x y z
#
# Youngs Moduli (GPa) = 67.06141 98.38239 64.01408
#
# Poissons Ratio (x) = 0.35930 0.22689
# Poissons Ratio (y) = 0.24491 0.20641
# Poissons Ratio (z) = 0.23769 0.31722
#
# Static dielectric constant tensor:
#      x y z
#    x 1.797450 0.000000 0.000000 
#    y 0.000000 1.773500 0.000000 
#    z 0.000000 0.000000 1.762110 
# 
# From -- ./inp_files/6813.got.cif
#   From: 2010.05.17/outbox.ucp.g08.bks.cvg/sg43_4_cif.got.tgz:6813.got - 2010.06.11 16:31:01.
