data_PCOD9372992
_publ_section_title
;
Structure prediction by ZEFSAII (Michael W. Deem and Ramdas Pophale) SiO2 
 PCOD9372992
Probable space group: I M M 2
;
_chemical_formula_sum "Si O2"
_cell_formula_units_Z 40
_cell_length_a 26.649310
_cell_length_b 9.860367
_cell_length_c 7.050239
_cell_angle_alpha 90.000000
_cell_angle_beta 90.000000
_cell_angle_gamma 90.000000
_cell_volume 1852.605240
_symmetry_space_group_name_H-M "I M M 2"
_symmetry_group_IT_number 44
_symmetry_cell_setting 'orthorhombic'
loop_
_space_group_symop_operation_xyz
x,y,z
-x,-y,z
-x,y,z
x,-y,z
1/2+x,1/2+y,1/2+z
1/2-x,1/2-y,1/2+z
1/2-x,1/2+y,1/2+z
1/2+x,1/2-y,1/2+z
loop_
_atom_site_type_symbol
_atom_site_label
_atom_site_fract_x
_atom_site_fract_y
_atom_site_fract_z
Si Si1 0.890174 0.847308 0.626750
Si Si2 0.000000 0.338287 0.232903
Si Si3 0.306194 0.346523 0.674488
Si Si4 0.194039 0.343582 0.525448
Si Si5 0.413823 0.349897 0.668395
Si Si6 0.500000 0.338161 0.116525
O O1 0.845123 0.741860 0.651615
O O2 0.901702 0.847983 0.396839
O O3 0.945520 0.818986 0.713316
O O4 0.874754 0.000000 0.675919
O O5 0.951128 0.273152 0.135941
O O6 0.000000 0.500000 0.240512
O O7 0.000000 0.267611 0.441524
O O8 0.305995 0.500000 0.761388
O O9 0.252677 0.334053 0.576505
O O10 0.359628 0.339570 0.568565
O O11 0.308822 0.224904 0.821419
O O12 0.179173 0.500000 0.526150
O O13 0.435365 0.500000 0.628594
O O14 0.500000 0.500000 0.059217
#
# Coordination Sequence:
#
# PCOD9372992 Si02
#       6
#     8   4   8   8   8   4
#     4   8  14  25  40  58  83 114 144 176 215 258
#     4  10  16  20  32  58  85 104 133 178 218 252
#     4   9  19  33  46  64  91 120 150 182 217 262
#     4  10  19  30  46  68  91 116 149 186 221 259
#     4   8  14  26  40  53  78 115 144 168 208 260
#     4   8  14  24  36  52  79 114 143 166 206 262
#
# _framework density 21.591217
#
# number of rings (size 3 to 8) (size 9 to 14) (size 15 to 20)
#    0.000    3.200    0.000    3.900    0.000    8.800 
#    0.000    0.000    0.000    0.000    0.000    1.400 
#    0.000    3.200    0.000    0.000    0.000    0.000 
#
# Total GULP energy -111399.093860 kJ/mol
# GULP energy per Si atom -5569.954693 kJ/mol
# Density = 2.154207 g / cm^3
# Si number density = 21.591217 Si / 1000 Ang^3
#
#
#
# Elastic Constant Matrix: (Units=GPa)
#
#
# Indices 1 2 3 4 5 6 
#
# 1 171.1678 107.2176 -7.9280 0.0000 0.0000 0.0000
# 2 107.2176 187.4509 26.4715 0.0000 0.0000 0.0000
# 3 -7.9280 26.4715 33.7855 0.0001 0.0000 0.0000
# 4 0.0000 0.0000 0.0001 14.7653 0.0000 0.0000
# 5 0.0000 0.0000 0.0000 0.0000 9.8275 0.0000
# 6 0.0000 0.0000 0.0000 0.0000 0.0000 44.1772
#
#
#
# Elastic Compliance Matrix: (Units=1/GPa)
#
#
# Indices 1 2 3 4 5 6 
#
# 1 0.010854 -0.007385 0.008333 0.000000 0.000000 0.000000
# 2 -0.007385 0.011023 -0.010370 0.000000 0.000000 0.000000
# 3 0.008333 -0.010370 0.039679 0.000000 0.000000 0.000000
# 4 0.000000 0.000000 0.000000 0.067726 0.000000 0.000000
# 5 0.000000 0.000000 0.000000 0.000000 0.101756 0.000000
# 6 0.000000 0.000000 0.000000 0.000000 0.000000 0.022636
#
#
# Mechanical properties :
#
#
# Convention : Reuss Voigt Hill
#
# Bulk Modulus (GPa) = 23.41197 71.54738 47.47967
# Shear Modulus (GPa) = 17.43643 31.53018 24.48330
#
# Velocity S-wave (km/s) = 2.84486 3.82556 3.37107
# Velocity P-wave (km/s) = 4.65379 7.26102 6.09837
#
# Compressibility (1/GPa) = 0.04271319
#
# Stress axis : x y z
#
# Youngs Moduli (GPa) = 92.13020 90.71678 25.20220
#
# Poissons Ratio (x) = 0.66996 -0.21002
# Poissons Ratio (y) = 0.68040 0.26135
# Poissons Ratio (z) = -0.76776 0.94073
#
# Static dielectric constant tensor:
#      x y z
#    x 1.892350 0.000000 0.000000 
#    y 0.000000 1.718520 0.000000 
#    z 0.000000 0.000000 1.935120 
# 
# From -- ./inp_files/9626.got.cif
#   From: 2010.05.17/outbox.cif.g08.bks.cpg/sg44_5_cif.got.tgz:9626.got - 2010.06.03 19:37:08.
