data_PCOD9372003
_publ_section_title
;
Structure prediction by ZEFSAII (Michael W. Deem and Ramdas Pophale) SiO2 
 PCOD9372003
Probable space group: F D D 2
;
_chemical_formula_sum "Si O2"
_cell_formula_units_Z 104
_cell_length_a 14.068461
_cell_length_b 19.454866
_cell_length_c 19.718548
_cell_angle_alpha 90.000000
_cell_angle_beta 90.000000
_cell_angle_gamma 90.000000
_cell_volume 5396.967053
_symmetry_space_group_name_H-M "F D D 2"
_symmetry_group_IT_number 43
_symmetry_cell_setting 'orthorhombic'
loop_
_space_group_symop_operation_xyz
x,y,z
-x,-y,z
1/4-x,1/4+y,1/4+z
1/4+x,1/4-y,1/4+z
x,1/2+y,1/2+z
-x,1/2-y,1/2+z
1/4-x,3/4+y,3/4+z
1/4+x,3/4-y,3/4+z
1/2+x,y,1/2+z
1/2-x,-y,1/2+z
3/4-x,1/4+y,3/4+z
3/4+x,1/4-y,3/4+z
1/2+x,1/2+y,z
1/2-x,1/2-y,z
3/4-x,3/4+y,1/4+z
3/4+x,3/4-y,1/4+z
loop_
_atom_site_type_symbol
_atom_site_label
_atom_site_fract_x
_atom_site_fract_y
_atom_site_fract_z
Si Si1 0.250000 0.750000 0.125000
Si Si2 0.324772 0.192405 0.273789
Si Si3 0.237988 0.174838 0.756045
Si Si4 0.222370 0.902700 0.551025
Si Si5 0.304840 0.047551 0.203548
Si Si6 0.750000 0.250000 0.906692
Si Si7 0.750000 0.750000 0.012992
Si Si8 0.641819 0.952602 0.764331
O O1 0.262800 0.686715 0.176743
O O2 0.159608 0.737340 0.077963
O O3 0.250000 0.250000 0.245940
O O4 0.439483 0.191876 0.264259
O O5 0.296091 0.118784 0.245022
O O6 0.310772 0.203239 0.354847
O O7 0.250000 0.250000 0.788493
O O8 0.127690 0.157055 0.762500
O O9 0.310334 0.119155 0.784232
O O10 0.208234 0.934901 0.624955
O O11 0.243128 0.820858 0.555327
O O12 0.406486 0.012770 0.218070
O O13 0.225370 0.997621 0.232752
O O14 0.687663 0.201759 0.955319
#
# Coordination Sequence:
#
# PCOD9372003 Si02
#       8
#     8  16  16  16  16   8   8  16
#     4   9  26  43  68 103 126 177 234 278 342 391
#     4   9  21  39  59  97 126 168 224 264 338 395
#     4  10  25  45  65  99 129 177 221 281 342 398
#     4  11  22  43  65  94 134 175 222 274 343 401
#     4  11  22  38  66  92 130 180 212 282 333 395
#     4   9  20  41  62  91 130 173 220 280 332 397
#     4  10  24  40  60  98 128 168 226 268 330 412
#     4  11  21  44  68  94 133 175 229 282 335 404
#
# _framework density 19.270081999999999
#
# number of rings (size 3 to 8) (size 9 to 14) (size 15 to 20)
#    0.923    0.923    3.077    0.000    4.308    3.692 
#    5.538    0.000    0.000    0.000    0.000    0.000 
#    0.000    0.000    0.000    0.000    0.000    0.000 
#
# Total GULP energy -144768.116843 kJ/mol
# GULP energy per Si atom -5568.004494 kJ/mol
# Density = 1.922622 g / cm^3
# Si number density = 19.270082 Si / 1000 Ang^3
#
#
#
# Elastic Constant Matrix: (Units=GPa)
#
#
# Indices 1 2 3 4 5 6 
#
# 1 130.1265 55.5521 20.4940 0.0000 0.0000 0.0000
# 2 55.5521 94.1983 19.2542 0.0000 0.0000 0.0000
# 3 20.4940 19.2542 51.7702 0.0000 0.0000 0.0000
# 4 0.0000 0.0000 0.0000 22.7203 0.0000 0.0000
# 5 0.0000 0.0000 0.0000 0.0000 20.3732 0.0000
# 6 0.0000 0.0000 0.0000 0.0000 0.0000 38.1382
#
#
#
# Elastic Compliance Matrix: (Units=1/GPa)
#
#
# Indices 1 2 3 4 5 6 
#
# 1 0.010458 -0.005759 -0.001998 0.000000 0.000000 0.000000
# 2 -0.005759 0.014661 -0.003173 0.000000 0.000000 0.000000
# 3 -0.001998 -0.003173 0.021287 0.000000 0.000000 0.000000
# 4 0.000000 0.000000 0.000000 0.044014 0.000000 0.000000
# 5 0.000000 0.000000 0.000000 0.000000 0.049084 0.000000
# 6 0.000000 0.000000 0.000000 0.000000 0.000000 0.026220
#
#
# Mechanical properties :
#
#
# Convention : Reuss Voigt Hill
#
# Bulk Modulus (GPa) = 40.73970 51.85507 46.29739
# Shear Modulus (GPa) = 25.54068 28.29930 26.91999
#
# Velocity S-wave (km/s) = 3.64456 3.83634 3.74168
# Velocity P-wave (km/s) = 6.23681 6.82579 6.53793
#
# Compressibility (1/GPa) = 0.02454608
#
# Stress axis : x y z
#
# Youngs Moduli (GPa) = 95.61930 68.20913 46.97676
#
# Poissons Ratio (x) = 0.39283 0.09386
# Poissons Ratio (y) = 0.55068 0.14905
# Poissons Ratio (z) = 0.19106 0.21641
#
# Static dielectric constant tensor:
#      x y z
#    x 1.634400 0.000000 0.000000 
#    y 0.000000 1.693080 0.000000 
#    z 0.000000 0.000000 1.664260 
# 
# From -- ./inp_files/17657.got.cif
#   From: 2010.05.17/outbox.cif.g08.bks.cpg/sg43_9_cif.got.tgz:17657.got - 2010.06.03 19:21:55.
