data_PCOD9372162
_publ_section_title
;
Structure prediction by ZEFSAII (Michael W. Deem and Ramdas Pophale) SiO2 
 PCOD9372162
Probable space group: F D D 2
;
_chemical_formula_sum "Si O2"
_cell_formula_units_Z 72
_cell_length_a 16.038201
_cell_length_b 24.325270
_cell_length_c 7.456038
_cell_angle_alpha 90.000000
_cell_angle_beta 90.000000
_cell_angle_gamma 90.000000
_cell_volume 2908.850720
_symmetry_space_group_name_H-M "F D D 2"
_symmetry_group_IT_number 43
_symmetry_cell_setting 'orthorhombic'
loop_
_space_group_symop_operation_xyz
x,y,z
-x,-y,z
1/4-x,1/4+y,1/4+z
1/4+x,1/4-y,1/4+z
x,1/2+y,1/2+z
-x,1/2-y,1/2+z
1/4-x,3/4+y,3/4+z
1/4+x,3/4-y,3/4+z
1/2+x,y,1/2+z
1/2-x,-y,1/2+z
3/4-x,1/4+y,3/4+z
3/4+x,1/4-y,3/4+z
1/2+x,1/2+y,z
1/2-x,1/2-y,z
3/4-x,3/4+y,1/4+z
3/4+x,3/4-y,1/4+z
loop_
_atom_site_type_symbol
_atom_site_label
_atom_site_fract_x
_atom_site_fract_y
_atom_site_fract_z
Si Si1 0.133031 0.795739 0.960610
Si Si2 0.302944 0.068486 0.670735
Si Si3 0.750000 0.750000 0.763394
Si Si4 0.157299 0.644212 0.257813
Si Si5 0.984182 0.872580 0.038635
O O1 0.074270 0.745530 0.905146
O O2 0.211690 0.814307 0.839240
O O3 0.176621 0.777341 0.144566
O O4 0.072473 0.847863 0.982374
O O5 0.216449 0.090807 0.756549
O O6 0.375666 0.091681 0.804811
O O7 0.291114 0.090057 0.469131
O O8 0.792192 0.804177 0.843451
O O9 0.076469 0.638149 0.374789
#
# Coordination Sequence:
#
# PCOD9372162 Si02
#       5
#    16  16   8  16  16
#     4  11  27  47  75 109 151 196 249 317 388 448
#     4  11  26  48  73 105 156 190 251 327 380 455
#     4  10  24  48  70 104 150 196 236 322 390 438
#     4  11  25  46  73 107 142 199 253 304 386 451
#     4  12  26  48  74 111 143 203 256 305 384 463
#
# _framework density 24.752044999999999
#
# number of rings (size 3 to 8) (size 9 to 14) (size 15 to 20)
#    0.000    0.889    2.222    2.667   12.444    0.000 
#    4.000    0.000    0.000    0.000    0.000    0.000 
#    0.000    0.000    0.000    0.000    0.000    0.000 
#
# Total GULP energy -100547.679997 kJ/mol
# GULP energy per Si atom -5585.982222 kJ/mol
# Density = 2.469571 g / cm^3
# Si number density = 24.752045 Si / 1000 Ang^3
#
#
#
# Elastic Constant Matrix: (Units=GPa)
#
#
# Indices 1 2 3 4 5 6 
#
# 1 136.6054 43.4867 10.9783 0.0000 0.0000 0.0000
# 2 43.4867 61.1431 -0.4224 0.0000 0.0000 0.0000
# 3 10.9783 -0.4224 61.7312 0.0000 0.0000 0.0000
# 4 0.0000 0.0000 0.0000 0.7529 0.0000 0.0000
# 5 0.0000 0.0000 0.0000 0.0000 13.9575 0.0000
# 6 0.0000 0.0000 0.0000 0.0000 0.0000 49.3450
#
#
#
# Elastic Compliance Matrix: (Units=1/GPa)
#
#
# Indices 1 2 3 4 5 6 
#
# 1 0.009651 -0.006876 -0.001763 0.000000 0.000000 0.000000
# 2 -0.006876 0.021255 0.001368 0.000000 0.000000 0.000000
# 3 -0.001763 0.001368 0.016522 0.000001 0.000000 0.000000
# 4 0.000000 0.000000 0.000001 1.328249 -0.000001 0.000000
# 5 0.000000 0.000000 0.000000 -0.000001 0.071646 0.000000
# 6 0.000000 0.000000 0.000000 0.000000 0.000000 0.020265
#
#
# Mechanical properties :
#
#
# Convention : Reuss Voigt Hill
#
# Bulk Modulus (GPa) = 30.40836 40.84054 35.62445
# Shear Modulus (GPa) = 3.34875 26.50689 14.92782
#
# Velocity S-wave (km/s) = 1.16441 3.27601 2.45846
# Velocity P-wave (km/s) = 3.75761 5.55386 4.74157
#
# Compressibility (1/GPa) = 0.03288570
#
# Stress axis : x y z
#
# Youngs Moduli (GPa) = 103.61562 47.04749 60.52450
#
# Poissons Ratio (x) = 0.32351 0.10673
# Poissons Ratio (y) = 0.71249 -0.08282
# Poissons Ratio (z) = 0.18272 -0.06438
#
# Static dielectric constant tensor:
#      x y z
#    x 2.001280 0.000000 0.000000 
#    y 0.000000 2.066330 0.000000 
#    z 0.000000 0.000000 1.989650 
# 
# From -- ./inp_files/2314.got.cif
#   From: 2010.05.17/outbox.cif.g08.bks.cpg/sg43_2_cif.got.tgz:2314.got - 2010.06.03 19:21:55.
