data_PCOD9372661
_publ_section_title
;
Structure prediction by ZEFSAII (Michael W. Deem and Ramdas Pophale) SiO2 
 PCOD9372661
Probable space group: F D D 2
;
_chemical_formula_sum "Si O2"
_cell_formula_units_Z 104
_cell_length_a 8.552412
_cell_length_b 21.782810
_cell_length_c 21.869940
_cell_angle_alpha 90.000000
_cell_angle_beta 90.000000
_cell_angle_gamma 90.000000
_cell_volume 4074.272843
_symmetry_space_group_name_H-M "F D D 2"
_symmetry_group_IT_number 43
_symmetry_cell_setting 'orthorhombic'
loop_
_space_group_symop_operation_xyz
x,y,z
-x,-y,z
1/4-x,1/4+y,1/4+z
1/4+x,1/4-y,1/4+z
x,1/2+y,1/2+z
-x,1/2-y,1/2+z
1/4-x,3/4+y,3/4+z
1/4+x,3/4-y,3/4+z
1/2+x,y,1/2+z
1/2-x,-y,1/2+z
3/4-x,1/4+y,3/4+z
3/4+x,1/4-y,3/4+z
1/2+x,1/2+y,z
1/2-x,1/2-y,z
3/4-x,3/4+y,1/4+z
3/4+x,3/4-y,1/4+z
loop_
_atom_site_type_symbol
_atom_site_label
_atom_site_fract_x
_atom_site_fract_y
_atom_site_fract_z
Si Si1 0.488164 0.810702 0.191550
Si Si2 0.907384 0.779531 0.381582
Si Si3 0.755076 0.384589 0.241734
Si Si4 0.750000 0.250000 0.108136
Si Si5 0.460648 0.336252 0.930859
Si Si6 0.684733 0.931873 0.496255
Si Si7 0.324179 0.009929 0.301577
O O1 0.413836 0.846416 0.248189
O O2 0.336753 0.797315 0.151740
O O3 0.594615 0.860940 0.159759
O O4 0.565464 0.746844 0.210520
O O5 0.750000 0.750000 0.410624
O O6 0.978267 0.830556 0.426311
O O7 0.870429 0.805652 0.314479
O O8 0.011741 0.717738 0.382335
O O9 0.611232 0.340514 0.254881
O O10 0.764301 0.442454 0.285308
O O11 0.594858 0.283329 0.078917
O O12 0.602468 0.378472 0.956822
O O13 0.399486 0.299616 0.990641
O O14 0.500000 0.000000 0.329938
#
# Coordination Sequence:
#
# PCOD9372661 Si02
#       7
#    16  16  16   8  16  16  16
#     4  12  26  49  68 111 158 200 259 339 397 483
#     4  11  25  47  79 115 148 212 266 331 414 473
#     4  11  24  47  74 109 157 198 262 337 387 487
#     4  12  28  46  76 114 154 214 264 314 426 468
#     4  11  25  49  78 111 157 203 271 334 393 489
#     4  12  25  47  80 108 160 207 264 335 409 482
#     4  11  25  49  80 114 152 213 268 331 408 479
#
# _framework density 25.526026999999999
#
# number of rings (size 3 to 8) (size 9 to 14) (size 15 to 20)
#    0.000    0.615    4.615    2.308    6.462    2.462 
#    8.308    0.000    0.000    0.000    0.000    0.000 
#    0.000    0.000    0.000    0.000    0.000    0.000 
#
# Total GULP energy -145156.360472 kJ/mol
# GULP energy per Si atom -5582.936941 kJ/mol
# Density = 2.546793 g / cm^3
# Si number density = 25.526027 Si / 1000 Ang^3
#
#
#
# Elastic Constant Matrix: (Units=GPa)
#
#
# Indices 1 2 3 4 5 6 
#
# 1 89.9749 12.0607 9.5833 0.0000 0.0000 0.0000
# 2 12.0607 144.0928 13.9159 0.0000 0.0000 0.0000
# 3 9.5833 13.9159 59.3901 0.0000 0.0000 0.0000
# 4 0.0000 0.0000 0.0000 10.4507 0.0000 0.0000
# 5 0.0000 0.0000 0.0000 0.0000 28.8790 0.0000
# 6 0.0000 0.0000 0.0000 0.0000 0.0000 68.5113
#
#
#
# Elastic Compliance Matrix: (Units=1/GPa)
#
#
# Indices 1 2 3 4 5 6 
#
# 1 0.011397 -0.000794 -0.001653 0.000000 0.000000 0.000000
# 2 -0.000794 0.007156 -0.001549 0.000000 0.000000 0.000000
# 3 -0.001653 -0.001549 0.017467 0.000000 0.000000 0.000000
# 4 0.000000 0.000000 0.000000 0.095688 0.000000 0.000000
# 5 0.000000 0.000000 0.000000 0.000000 0.034627 0.000000
# 6 0.000000 0.000000 0.000000 0.000000 0.000000 0.014596
#
#
# Mechanical properties :
#
#
# Convention : Reuss Voigt Hill
#
# Bulk Modulus (GPa) = 35.67783 40.50863 38.09323
# Shear Modulus (GPa) = 25.21873 38.76140 31.99007
#
# Velocity S-wave (km/s) = 3.14660 3.90103 3.54394
# Velocity P-wave (km/s) = 5.21621 6.01620 5.63043
#
# Compressibility (1/GPa) = 0.02802861
#
# Stress axis : x y z
#
# Youngs Moduli (GPa) = 87.74449 139.74270 57.24959
#
# Poissons Ratio (x) = 0.11100 0.09463
# Poissons Ratio (y) = 0.06969 0.08866
# Poissons Ratio (z) = 0.14503 0.21640
#
# Static dielectric constant tensor:
#      x y z
#    x 2.162760 0.000000 0.000000 
#    y 0.000000 1.976640 0.000000 
#    z 0.000000 0.000000 2.115110 
# 
# From -- ./inp_files/24307.got.cif
#   From: 2010.05.17/outbox.cif.g08.bks.cpg/sg43_13_cif.got.tgz:24307.got - 2010.06.03 19:21:55.
