data_PCOD9372044
_publ_section_title
;
Structure prediction by ZEFSAII (Michael W. Deem and Ramdas Pophale) SiO2 
 PCOD9372044
Probable space group: F D D 2
;
_chemical_formula_sum "Si O2"
_cell_formula_units_Z 72
_cell_length_a 6.755714
_cell_length_b 17.656049
_cell_length_c 21.652970
_cell_angle_alpha 90.000000
_cell_angle_beta 90.000000
_cell_angle_gamma 90.000000
_cell_volume 2582.749316
_symmetry_space_group_name_H-M "F D D 2"
_symmetry_group_IT_number 43
_symmetry_cell_setting 'orthorhombic'
loop_
_space_group_symop_operation_xyz
x,y,z
-x,-y,z
1/4-x,1/4+y,1/4+z
1/4+x,1/4-y,1/4+z
x,1/2+y,1/2+z
-x,1/2-y,1/2+z
1/4-x,3/4+y,3/4+z
1/4+x,3/4-y,3/4+z
1/2+x,y,1/2+z
1/2-x,-y,1/2+z
3/4-x,1/4+y,3/4+z
3/4+x,1/4-y,3/4+z
1/2+x,1/2+y,z
1/2-x,1/2-y,z
3/4-x,3/4+y,1/4+z
3/4+x,3/4-y,1/4+z
loop_
_atom_site_type_symbol
_atom_site_label
_atom_site_fract_x
_atom_site_fract_y
_atom_site_fract_z
Si Si1 0.673129 0.915050 0.447380
Si Si2 0.546888 0.588373 0.593799
Si Si3 0.250000 0.750000 0.969176
Si Si4 0.271158 0.578910 0.477115
Si Si5 0.341853 0.939932 0.828514
O O1 0.772569 0.831972 0.440347
O O2 0.466257 0.913454 0.482593
O O3 0.659645 0.933183 0.373826
O O4 0.793231 0.987260 0.471986
O O5 0.500000 0.500000 0.605608
O O6 0.542466 0.627952 0.661451
O O7 0.606027 0.393727 0.536963
O O8 0.763753 0.616981 0.570442
O O9 0.436598 0.732770 0.013845
O O10 0.500000 0.000000 0.857205
#
# Coordination Sequence:
#
# PCOD9372044 Si02
#       5
#    16  16   8  16  16
#     4  11  25  50  78 117 168 228 284 362 446 522
#     4  12  28  49  85 124 173 227 296 361 452 528
#     4  10  24  42  80 110 158 216 282 344 434 510
#     4  11  28  50  78 123 177 226 296 367 443 535
#     4  10  24  45  77 113 158 217 280 357 426 516
#
# _framework density 27.877269999999999
#
# number of rings (size 3 to 8) (size 9 to 14) (size 15 to 20)
#    0.667    0.444    2.222    1.333   12.444    0.000 
#    4.000    0.000    0.000    0.000    0.000    0.000 
#    0.000    0.000    0.000    0.000    0.000    0.000 
#
# Total GULP energy -100248.480499 kJ/mol
# GULP energy per Si atom -5569.360028 kJ/mol
# Density = 2.781382 g / cm^3
# Si number density = 27.877270 Si / 1000 Ang^3
#
#
#
# Elastic Constant Matrix: (Units=GPa)
#
#
# Indices 1 2 3 4 5 6 
#
# 1 133.5110 41.9074 75.1471 0.0000 0.0000 0.0000
# 2 41.9074 252.0573 68.1964 0.0000 0.0000 0.0000
# 3 75.1471 68.1964 169.6298 0.0000 0.0000 0.0000
# 4 0.0000 0.0000 0.0000 50.7384 0.0000 0.0000
# 5 0.0000 0.0000 0.0000 0.0000 66.9163 0.0000
# 6 0.0000 0.0000 0.0000 0.0000 0.0000 32.8843
#
#
#
# Elastic Compliance Matrix: (Units=1/GPa)
#
#
# Indices 1 2 3 4 5 6 
#
# 1 0.010039 -0.000523 -0.004237 0.000000 0.000000 0.000000
# 2 -0.000523 0.004479 -0.001569 0.000000 0.000000 0.000000
# 3 -0.004237 -0.001569 0.008403 0.000000 0.000000 0.000000
# 4 0.000000 0.000000 0.000000 0.019709 0.000000 0.000000
# 5 0.000000 0.000000 0.000000 0.000000 0.014944 0.000000
# 6 0.000000 0.000000 0.000000 0.000000 0.000000 0.030410
#
#
# Mechanical properties :
#
#
# Convention : Reuss Voigt Hill
#
# Bulk Modulus (GPa) = 97.43740 102.85554 100.14647
# Shear Modulus (GPa) = 48.04808 54.77096 51.40952
#
# Velocity S-wave (km/s) = 4.15608 4.43732 4.29900
# Velocity P-wave (km/s) = 7.61963 7.95167 7.78742
#
# Compressibility (1/GPa) = 0.01026300
#
# Stress axis : x y z
#
# Youngs Moduli (GPa) = 99.61139 223.27529 119.00350
#
# Poissons Ratio (x) = 0.11670 0.50424
# Poissons Ratio (y) = 0.05207 0.18672
# Poissons Ratio (z) = 0.42207 0.35033
#
# Static dielectric constant tensor:
#      x y z
#    x 2.310610 0.000000 0.000000 
#    y 0.000000 2.254360 0.000000 
#    z 0.000000 0.000000 2.408910 
# 
# From -- ./inp_files/24054.got.cif
#   From: 2010.05.17/outbox.cif.g08.bks.cpg/sg43_13_cif.got.tgz:24054.got - 2010.06.03 19:21:55.
