data_PCOD9372681
_publ_section_title
;
Structure prediction by ZEFSAII (Michael W. Deem and Ramdas Pophale) SiO2 
 PCOD9372681
Probable space group: F D D 2
;
_chemical_formula_sum "Si O2"
_cell_formula_units_Z 120
_cell_length_a 10.756469
_cell_length_b 27.524051
_cell_length_c 16.560361
_cell_angle_alpha 90.000000
_cell_angle_beta 90.000000
_cell_angle_gamma 90.000000
_cell_volume 4902.886996
_symmetry_space_group_name_H-M "F D D 2"
_symmetry_group_IT_number 43
_symmetry_cell_setting 'orthorhombic'
loop_
_space_group_symop_operation_xyz
x,y,z
-x,-y,z
1/4-x,1/4+y,1/4+z
1/4+x,1/4-y,1/4+z
x,1/2+y,1/2+z
-x,1/2-y,1/2+z
1/4-x,3/4+y,3/4+z
1/4+x,3/4-y,3/4+z
1/2+x,y,1/2+z
1/2-x,-y,1/2+z
3/4-x,1/4+y,3/4+z
3/4+x,1/4-y,3/4+z
1/2+x,1/2+y,z
1/2-x,1/2-y,z
3/4-x,3/4+y,1/4+z
3/4+x,3/4-y,1/4+z
loop_
_atom_site_type_symbol
_atom_site_label
_atom_site_fract_x
_atom_site_fract_y
_atom_site_fract_z
Si Si1 0.500000 0.000000 0.542701
Si Si2 0.144236 0.950756 0.184276
Si Si3 0.008848 0.790099 0.033154
Si Si4 0.393816 0.196863 0.825930
Si Si5 0.182777 0.537657 0.406601
Si Si6 0.123328 0.695120 0.274240
Si Si7 0.507120 0.854340 0.679988
Si Si8 0.725461 0.882682 0.147348
O O1 0.433448 0.036709 0.603775
O O2 0.603624 0.021254 0.483955
O O3 0.284454 0.934904 0.158107
O O4 0.073061 0.903022 0.212711
O O5 0.154897 0.000249 0.236761
O O6 0.063084 0.828215 0.099762
O O7 0.924445 0.753486 0.087380
O O8 0.949409 0.825932 0.965717
O O9 0.260029 0.176921 0.798177
O O10 0.384646 0.254725 0.822961
O O11 0.480454 0.182825 0.751986
O O12 0.327674 0.543844 0.433735
O O13 0.122321 0.589396 0.388127
O O14 0.024704 0.658889 0.311536
O O15 0.363087 0.863793 0.663761
#
# Coordination Sequence:
#
# PCOD9372681 Si02
#       8
#     8  16  16  16  16  16  16  16
#     4  12  22  48  74 104 156 206 256 312 404 488
#     4  12  25  46  79 110 154 209 265 327 403 479
#     4  12  25  48  74 127 151 198 278 341 380 486
#     4  11  24  49  73 102 156 207 242 320 410 467
#     4  12  25  46  79 110 154 209 265 327 403 479
#     4  11  24  49  73 102 156 207 242 320 410 467
#     4  12  26  49  77 115 158 209 266 331 408 488
#     4  12  26  49  77 115 158 209 266 331 408 488
#
# _framework density 24.475376000000001
#
# number of rings (size 3 to 8) (size 9 to 14) (size 15 to 20)
#    0.000    0.267    4.000    5.600    1.867    1.067 
#   14.400    0.000    0.000    0.000    0.000    0.000 
#    0.000    0.000    0.000    0.000    0.000    0.000 
#
# Total GULP energy -167585.480034 kJ/mol
# GULP energy per Si atom -5586.182668 kJ/mol
# Density = 2.441967 g / cm^3
# Si number density = 24.475376 Si / 1000 Ang^3
#
#
#
# Elastic Constant Matrix: (Units=GPa)
#
#
# Indices 1 2 3 4 5 6 
#
# 1 112.2758 27.2022 8.8201 0.0000 0.0000 0.0000
# 2 27.2022 115.3060 30.6223 0.0000 0.0000 0.0000
# 3 8.8201 30.6223 58.4750 0.0000 0.0000 0.0000
# 4 0.0000 0.0000 0.0000 32.2100 0.0000 0.0000
# 5 0.0000 0.0000 0.0000 0.0000 23.9362 0.0000
# 6 0.0000 0.0000 0.0000 0.0000 0.0000 35.5206
#
#
#
# Elastic Compliance Matrix: (Units=1/GPa)
#
#
# Indices 1 2 3 4 5 6 
#
# 1 0.009451 -0.002150 -0.000300 0.000000 0.000000 0.000000
# 2 -0.002150 0.010563 -0.005207 0.000000 0.000000 0.000000
# 3 -0.000300 -0.005207 0.019873 0.000000 0.000000 0.000000
# 4 0.000000 0.000000 0.000000 0.031046 0.000000 0.000000
# 5 0.000000 0.000000 0.000000 0.000000 0.041778 0.000000
# 6 0.000000 0.000000 0.000000 0.000000 0.000000 0.028153
#
#
# Mechanical properties :
#
#
# Convention : Reuss Voigt Hill
#
# Bulk Modulus (GPa) = 40.69428 46.59401 43.64414
# Shear Modulus (GPa) = 30.41942 32.96085 31.69013
#
# Velocity S-wave (km/s) = 3.52924 3.67371 3.60220
# Velocity P-wave (km/s) = 5.76803 6.08879 5.93058
#
# Compressibility (1/GPa) = 0.02457348
#
# Stress axis : x y z
#
# Youngs Moduli (GPa) = 105.80785 94.67275 50.31844
#
# Poissons Ratio (x) = 0.20355 0.01508
# Poissons Ratio (y) = 0.22749 0.26202
# Poissons Ratio (z) = 0.03170 0.49298
#
# Static dielectric constant tensor:
#      x y z
#    x 2.074990 0.000000 0.000000 
#    y 0.000000 1.989090 0.000000 
#    z 0.000000 0.000000 1.945160 
# 
# From -- ./inp_files/13473.got.cif
#   From: 2010.05.17/outbox.cif.g08.bks.cpg/sg43_7_cif.got.tgz:13473.got - 2010.06.03 19:21:55.
