data_PCOD9372502
_publ_section_title
;
Structure prediction by ZEFSAII (Michael W. Deem and Ramdas Pophale) SiO2 
 PCOD9372502
Probable space group: F D D 2
;
_chemical_formula_sum "Si O2"
_cell_formula_units_Z 80
_cell_length_a 30.072374
_cell_length_b 13.646577
_cell_length_c 7.467089
_cell_angle_alpha 90.000000
_cell_angle_beta 90.000000
_cell_angle_gamma 90.000000
_cell_volume 3064.381076
_symmetry_space_group_name_H-M "F D D 2"
_symmetry_group_IT_number 43
_symmetry_cell_setting 'orthorhombic'
loop_
_space_group_symop_operation_xyz
x,y,z
-x,-y,z
1/4-x,1/4+y,1/4+z
1/4+x,1/4-y,1/4+z
x,1/2+y,1/2+z
-x,1/2-y,1/2+z
1/4-x,3/4+y,3/4+z
1/4+x,3/4-y,3/4+z
1/2+x,y,1/2+z
1/2-x,-y,1/2+z
3/4-x,1/4+y,3/4+z
3/4+x,1/4-y,3/4+z
1/2+x,1/2+y,z
1/2-x,1/2-y,z
3/4-x,3/4+y,1/4+z
3/4+x,3/4-y,1/4+z
loop_
_atom_site_type_symbol
_atom_site_label
_atom_site_fract_x
_atom_site_fract_y
_atom_site_fract_z
Si Si1 0.833821 0.763060 0.984490
Si Si2 0.183248 0.895575 0.119638
Si Si3 0.415501 0.651933 0.076035
Si Si4 0.029329 0.884445 0.418796
Si Si5 0.565917 0.181854 0.447378
O O1 0.928962 0.755775 0.488318
O O2 0.806689 0.823823 0.836119
O O3 0.832281 0.827231 0.163167
O O4 0.886048 0.765411 0.935208
O O5 0.135803 0.843541 0.138666
O O6 0.227586 0.839020 0.175250
O O7 0.188514 0.905348 0.905611
O O8 0.445340 0.603414 0.230819
O O9 0.316744 0.657101 0.555248
O O10 0.029274 0.764452 0.417889
#
# Coordination Sequence:
#
# PCOD9372502 Si02
#       5
#    16  16  16  16  16
#     4  11  23  48  80 116 160 216 275 341 418 508
#     4  11  24  50  80 114 162 219 268 349 427 497
#     4  11  25  46  83 111 168 211 267 354 416 496
#     4  12  26  48  84 120 156 216 277 343 422 510
#     4  11  22  48  82 113 163 214 275 343 419 499
#
# _framework density 26.106414000000001
#
# number of rings (size 3 to 8) (size 9 to 14) (size 15 to 20)
#    0.000    0.800    4.000    4.800    2.800    0.000 
#    3.600    9.000   35.200    0.000    0.000    0.000 
#    0.000    0.000    0.000    0.000    0.000    0.000 
#
# Total GULP energy -112085.575341 kJ/mol
# GULP energy per Si atom -5604.278767 kJ/mol
# Density = 2.604699 g / cm^3
# Si number density = 26.106414 Si / 1000 Ang^3
#
#
#
# Elastic Constant Matrix: (Units=GPa)
#
#
# Indices 1 2 3 4 5 6 
#
# 1 165.8145 31.5551 64.5036 0.0000 0.0000 0.0000
# 2 31.5551 105.3562 61.4976 0.0000 0.0000 0.0000
# 3 64.5036 61.4976 157.7992 0.0000 0.0000 0.0000
# 4 0.0000 0.0000 0.0000 75.1958 0.0000 0.0000
# 5 0.0000 0.0000 0.0000 0.0000 19.4068 0.0000
# 6 0.0000 0.0000 0.0000 0.0000 0.0000 20.8315
#
#
#
# Elastic Compliance Matrix: (Units=1/GPa)
#
#
# Indices 1 2 3 4 5 6 
#
# 1 0.007197 -0.000567 -0.002721 0.000000 0.000000 0.000000
# 2 -0.000567 0.012331 -0.004574 0.000000 0.000000 0.000000
# 3 -0.002721 -0.004574 0.009232 0.000000 0.000000 0.000000
# 4 0.000000 0.000000 0.000000 0.013299 0.000000 0.000000
# 5 0.000000 0.000000 0.000000 0.000000 0.051528 0.000000
# 6 0.000000 0.000000 0.000000 0.000000 0.000000 0.048004
#
#
# Mechanical properties :
#
#
# Convention : Reuss Voigt Hill
#
# Bulk Modulus (GPa) = 76.70932 82.67584 79.69258
# Shear Modulus (GPa) = 30.92885 41.18106 36.05496
#
# Velocity S-wave (km/s) = 3.44571 3.97600 3.72032
# Velocity P-wave (km/s) = 6.72887 7.26743 7.00333
#
# Compressibility (1/GPa) = 0.01303622
#
# Stress axis : x y z
#
# Youngs Moduli (GPa) = 138.94150 81.09400 108.32001
#
# Poissons Ratio (x) = 0.04602 0.29473
# Poissons Ratio (y) = 0.07884 0.49544
# Poissons Ratio (z) = 0.37804 0.37091
#
# Static dielectric constant tensor:
#      x y z
#    x 2.071820 0.000000 0.000000 
#    y 0.000000 2.132750 0.000000 
#    z 0.000000 0.000000 2.010070 
# 
# From -- ./inp_files/1366.got.cif
#   From: 2010.05.17/outbox.cif.g08.bks.cpg/sg43_1_cif.got.tgz:1366.got - 2010.06.03 19:21:55.
