data_PCOD9372346
_publ_section_title
;
Structure prediction by ZEFSAII (Michael W. Deem and Ramdas Pophale) SiO2 
 PCOD9372346
Probable space group: F D D 2
;
_chemical_formula_sum "Si O2"
_cell_formula_units_Z 112
_cell_length_a 34.105482
_cell_length_b 10.016464
_cell_length_c 14.057547
_cell_angle_alpha 90.000000
_cell_angle_beta 90.000000
_cell_angle_gamma 90.000000
_cell_volume 4802.287652
_symmetry_space_group_name_H-M "F D D 2"
_symmetry_group_IT_number 43
_symmetry_cell_setting 'orthorhombic'
loop_
_space_group_symop_operation_xyz
x,y,z
-x,-y,z
1/4-x,1/4+y,1/4+z
1/4+x,1/4-y,1/4+z
x,1/2+y,1/2+z
-x,1/2-y,1/2+z
1/4-x,3/4+y,3/4+z
1/4+x,3/4-y,3/4+z
1/2+x,y,1/2+z
1/2-x,-y,1/2+z
3/4-x,1/4+y,3/4+z
3/4+x,1/4-y,3/4+z
1/2+x,1/2+y,z
1/2-x,1/2-y,z
3/4-x,3/4+y,1/4+z
3/4+x,3/4-y,1/4+z
loop_
_atom_site_type_symbol
_atom_site_label
_atom_site_fract_x
_atom_site_fract_y
_atom_site_fract_z
Si Si1 0.636079 0.681900 0.583390
Si Si2 0.993380 0.151563 0.492420
Si Si3 0.954259 0.774950 0.809582
Si Si4 0.975581 0.863284 0.250659
Si Si5 0.574998 0.670237 0.441757
Si Si6 0.399763 0.496838 0.740436
Si Si7 0.175818 0.019229 0.871563
O O1 0.671634 0.590599 0.545835
O O2 0.610876 0.744195 0.496520
O O3 0.653398 0.781205 0.663267
O O4 0.608076 0.582385 0.642200
O O5 0.972897 0.244858 0.413060
O O6 0.961042 0.148458 0.573479
O O7 0.038052 0.191836 0.512490
O O8 0.000000 0.000000 0.457285
O O9 0.932856 0.915213 0.796973
O O10 0.990775 0.748941 0.740738
O O11 0.949385 0.820295 0.342037
O O12 0.946431 0.863037 0.161764
O O13 0.000000 0.000000 0.259434
O O14 0.410973 0.644191 0.709941
O O15 0.359778 0.499365 0.799995
#
# Coordination Sequence:
#
# PCOD9372346 Si02
#       7
#    16  16  16  16  16  16  16
#     4  12  19  37  67 100 125 174 219 298 343 410
#     4  11  20  39  64 100 135 180 231 296 339 413
#     4  11  21  40  67  97 136 166 229 294 347 404
#     4  11  26  46  66  96 137 190 235 296 352 429
#     4  11  23  38  67  97 134 169 237 287 345 409
#     4  12  23  41  66 107 135 177 231 293 357 431
#     4  12  26  41  71  99 142 191 228 294 363 429
#
# _framework density 23.322219
#
# number of rings (size 3 to 8) (size 9 to 14) (size 15 to 20)
#    0.000    0.571    7.143    1.714    4.000    1.143 
#    0.000    0.000   12.571    0.000    0.000    0.000 
#    0.000    0.000    0.000    0.000    0.000    0.000 
#
# Total GULP energy -156102.318572 kJ/mol
# GULP energy per Si atom -5575.082806 kJ/mol
# Density = 2.326914 g / cm^3
# Si number density = 23.322219 Si / 1000 Ang^3
#
#
#
# Elastic Constant Matrix: (Units=GPa)
#
#
# Indices 1 2 3 4 5 6 
#
# 1 157.3373 34.6090 61.1724 0.0000 0.0000 0.0000
# 2 34.6090 34.1641 34.2493 0.0000 0.0000 0.0000
# 3 61.1724 34.2493 77.3488 0.0000 0.0000 0.0000
# 4 0.0000 0.0000 0.0000 19.3785 0.0000 0.0000
# 5 0.0000 0.0000 0.0000 0.0000 42.6396 0.0000
# 6 0.0000 0.0000 0.0000 0.0000 0.0000 34.9414
#
#
#
# Elastic Compliance Matrix: (Units=1/GPa)
#
#
# Indices 1 2 3 4 5 6 
#
# 1 0.009436 -0.003736 -0.005808 0.000000 0.000000 0.000000
# 2 -0.003736 0.054114 -0.021007 0.000000 0.000000 0.000000
# 3 -0.005808 -0.021007 0.026823 0.000000 0.000000 0.000000
# 4 0.000000 0.000000 0.000000 0.051604 0.000000 0.000000
# 5 0.000000 0.000000 0.000000 0.000000 0.023452 0.000000
# 6 0.000000 0.000000 0.000000 0.000000 0.000000 0.028619
#
#
# Mechanical properties :
#
#
# Convention : Reuss Voigt Hill
#
# Bulk Modulus (GPa) = 34.16246 58.76795 46.46521
# Shear Modulus (GPa) = 18.87451 28.64651 23.76051
#
# Velocity S-wave (km/s) = 2.84789 3.50850 3.19532
# Velocity P-wave (km/s) = 5.04914 6.45490 5.79481
#
# Compressibility (1/GPa) = 0.02927189
#
# Stress axis : x y z
#
# Youngs Moduli (GPa) = 105.97976 18.47944 37.28084
#
# Poissons Ratio (x) = 0.06904 0.21653
# Poissons Ratio (y) = 0.39594 0.78314
# Poissons Ratio (z) = 0.61554 0.38819
#
# Static dielectric constant tensor:
#      x y z
#    x 1.910840 0.000000 0.000000 
#    y 0.000000 1.894010 0.000000 
#    z 0.000000 0.000000 1.945090 
# 
# From -- ./inp_files/11681.got.cif
#   From: 2010.05.17/outbox.cif.g08.bks.cpg/sg43_6_cif.got.tgz:11681.got - 2010.06.03 19:21:55.
