data_PCOD9372285
_publ_section_title
;
Structure prediction by ZEFSAII (Michael W. Deem and Ramdas Pophale) SiO2 
 PCOD9372285
Probable space group: F D D 2
;
_chemical_formula_sum "Si O2"
_cell_formula_units_Z 112
_cell_length_a 10.930432
_cell_length_b 14.412296
_cell_length_c 31.251967
_cell_angle_alpha 90.000000
_cell_angle_beta 90.000000
_cell_angle_gamma 90.000000
_cell_volume 4923.204285
_symmetry_space_group_name_H-M "F D D 2"
_symmetry_group_IT_number 43
_symmetry_cell_setting 'orthorhombic'
loop_
_space_group_symop_operation_xyz
x,y,z
-x,-y,z
1/4-x,1/4+y,1/4+z
1/4+x,1/4-y,1/4+z
x,1/2+y,1/2+z
-x,1/2-y,1/2+z
1/4-x,3/4+y,3/4+z
1/4+x,3/4-y,3/4+z
1/2+x,y,1/2+z
1/2-x,-y,1/2+z
3/4-x,1/4+y,3/4+z
3/4+x,1/4-y,3/4+z
1/2+x,1/2+y,z
1/2-x,1/2-y,z
3/4-x,3/4+y,1/4+z
3/4+x,3/4-y,1/4+z
loop_
_atom_site_type_symbol
_atom_site_label
_atom_site_fract_x
_atom_site_fract_y
_atom_site_fract_z
Si Si1 0.880162 0.531225 0.712460
Si Si2 0.345585 0.391829 0.290720
Si Si3 0.930633 0.411091 0.353992
Si Si4 0.392004 0.237765 0.713944
Si Si5 0.342883 0.536500 0.364727
Si Si6 0.679875 0.565311 0.029184
Si Si7 0.607470 0.271410 0.405976
O O1 0.871598 0.458234 0.750577
O O2 0.914643 0.633185 0.727965
O O3 0.746786 0.540172 0.691043
O O4 0.000000 0.500000 0.684653
O O5 0.379669 0.455149 0.331890
O O6 0.203341 0.362294 0.282506
O O7 0.411473 0.291846 0.293594
O O8 0.792367 0.441102 0.348575
O O9 0.936069 0.323195 0.384462
O O10 0.000000 0.500000 0.372144
O O11 0.987694 0.377031 0.310015
O O12 0.250000 0.250000 0.726242
O O13 0.403267 0.245127 0.662704
O O14 0.493075 0.304787 0.735119
O O15 0.394795 0.640429 0.373733
O O16 0.750000 0.250000 0.418827
#
# Coordination Sequence:
#
# PCOD9372285 Si02
#       7
#    16  16  16  16  16  16  16
#     4  12  27  48  74 115 150 209 248 321 389 468
#     4  11  27  49  78 108 157 200 256 319 387 474
#     4  11  25  46  75 110 145 201 255 324 375 465
#     4  12  28  48  76 113 156 202 258 322 390 471
#     4  11  26  50  73 113 149 201 256 319 391 459
#     4  11  27  50  73 114 148 208 256 318 389 463
#     4  10  26  48  78 111 154 200 254 322 386 465
#
# _framework density 22.749412
#
# number of rings (size 3 to 8) (size 9 to 14) (size 15 to 20)
#    0.000    0.857    4.286    0.000   12.000    1.143 
#    0.000    0.000    0.000    0.000    0.000    0.000 
#    0.000    0.000    0.000    0.000    0.000    0.000 
#
# Total GULP energy -156275.181906 kJ/mol
# GULP energy per Si atom -5581.256497 kJ/mol
# Density = 2.269763 g / cm^3
# Si number density = 22.749412 Si / 1000 Ang^3
#
#
#
# Elastic Constant Matrix: (Units=GPa)
#
#
# Indices 1 2 3 4 5 6 
#
# 1 138.7333 56.8171 53.7407 0.0000 0.0000 0.0000
# 2 56.8171 178.3896 38.3887 0.0000 0.0000 0.0000
# 3 53.7407 38.3887 47.2908 0.0000 0.0000 0.0000
# 4 0.0000 0.0000 0.0000 26.2611 0.0000 0.0000
# 5 0.0000 0.0000 0.0000 0.0000 29.2788 0.0000
# 6 0.0000 0.0000 0.0000 0.0000 0.0000 45.1960
#
#
#
# Elastic Compliance Matrix: (Units=1/GPa)
#
#
# Indices 1 2 3 4 5 6 
#
# 1 0.013075 -0.001172 -0.013907 0.000000 0.000000 0.000000
# 2 -0.001172 0.006897 -0.004267 0.000000 0.000000 0.000000
# 3 -0.013907 -0.004267 0.040414 0.000000 0.000000 0.000000
# 4 0.000000 0.000000 0.000000 0.038079 0.000000 0.000000
# 5 0.000000 0.000000 0.000000 0.000000 0.034154 0.000000
# 6 0.000000 0.000000 0.000000 0.000000 0.000000 0.022126
#
#
# Mechanical properties :
#
#
# Convention : Reuss Voigt Hill
#
# Bulk Modulus (GPa) = 46.09666 73.58963 59.84314
# Shear Modulus (GPa) = 24.91655 34.51166 29.71411
#
# Velocity S-wave (km/s) = 3.31306 3.89914 3.61799
# Velocity P-wave (km/s) = 5.91117 7.25873 6.61933
#
# Compressibility (1/GPa) = 0.02169355
#
# Stress axis : x y z
#
# Youngs Moduli (GPa) = 76.48090 144.98615 24.74386
#
# Poissons Ratio (x) = 0.16987 0.34412
# Poissons Ratio (y) = 0.08961 0.10559
# Poissons Ratio (z) = 1.06365 0.61872
#
# Static dielectric constant tensor:
#      x y z
#    x 1.891480 0.000000 0.000000 
#    y 0.000000 1.846520 0.000000 
#    z 0.000000 0.000000 1.840610 
# 
# From -- ./inp_files/28640.got.cif
#   From: 2010.05.17/outbox.cif.g08.bks.cpg/sg43_15_cif.got.tgz:28640.got - 2010.06.03 19:21:55.
