data_PCOD9372651
_publ_section_title
;
Structure prediction by ZEFSAII (Michael W. Deem and Ramdas Pophale) SiO2 
 PCOD9372651
Probable space group: F D D 2
;
_chemical_formula_sum "Si O2"
_cell_formula_units_Z 88
_cell_length_a 6.705930
_cell_length_b 27.353375
_cell_length_c 22.634712
_cell_angle_alpha 90.000000
_cell_angle_beta 90.000000
_cell_angle_gamma 90.000000
_cell_volume 4151.881103
_symmetry_space_group_name_H-M "F D D 2"
_symmetry_group_IT_number 43
_symmetry_cell_setting 'orthorhombic'
loop_
_space_group_symop_operation_xyz
x,y,z
-x,-y,z
1/4-x,1/4+y,1/4+z
1/4+x,1/4-y,1/4+z
x,1/2+y,1/2+z
-x,1/2-y,1/2+z
1/4-x,3/4+y,3/4+z
1/4+x,3/4-y,3/4+z
1/2+x,y,1/2+z
1/2-x,-y,1/2+z
3/4-x,1/4+y,3/4+z
3/4+x,1/4-y,3/4+z
1/2+x,1/2+y,z
1/2-x,1/2-y,z
3/4-x,3/4+y,1/4+z
3/4+x,3/4-y,1/4+z
loop_
_atom_site_type_symbol
_atom_site_label
_atom_site_fract_x
_atom_site_fract_y
_atom_site_fract_z
Si Si1 0.090196 0.791001 0.785890
Si Si2 0.705938 0.088165 0.182947
Si Si3 0.578202 0.449247 0.294518
Si Si4 0.024533 0.136636 0.098870
Si Si5 0.171858 0.570390 0.405365
Si Si6 0.500000 0.000000 0.115920
O O1 0.250000 0.750000 0.804270
O O2 0.151123 0.845416 0.803964
O O3 0.074470 0.789579 0.715302
O O4 0.892397 0.779871 0.822268
O O5 0.778747 0.079485 0.249574
O O6 0.899215 0.107630 0.148305
O O7 0.538148 0.129285 0.171783
O O8 0.624017 0.037757 0.155796
O O9 0.500000 0.500000 0.267931
O O10 0.382476 0.419747 0.313776
O O11 0.705072 0.456696 0.354114
O O12 0.204854 0.165745 0.129743
#
# Coordination Sequence:
#
# PCOD9372651 Si02
#       6
#    16  16  16  16  16   8
#     4  12  26  43  74 105 141 185 240 295 358 432
#     4  11  25  45  71 102 140 186 237 294 350 431
#     4  11  28  45  70 104 144 180 237 294 360 429
#     4  11  24  47  71 105 139 188 235 292 363 430
#     4  11  26  45  71 102 141 189 232 291 362 427
#     4  12  26  44  74 106 142 184 244 294 356 426
#
# _framework density 21.195212000000001
#
# number of rings (size 3 to 8) (size 9 to 14) (size 15 to 20)
#    0.000    0.727    3.636    2.182    8.909    4.364 
#    0.000    0.000    0.000    0.000    0.000    0.000 
#    0.000    0.000    0.000    0.000    0.000    0.000 
#
# Total GULP energy -123096.703350 kJ/mol
# GULP energy per Si atom -5595.304698 kJ/mol
# Density = 2.114697 g / cm^3
# Si number density = 21.195212 Si / 1000 Ang^3
#
#
#
# Elastic Constant Matrix: (Units=GPa)
#
#
# Indices 1 2 3 4 5 6 
#
# 1 112.9468 9.5047 29.3300 0.0000 0.0000 0.0000
# 2 9.5047 31.4498 -9.4227 0.0000 0.0000 0.0000
# 3 29.3300 -9.4227 87.9594 0.0000 0.0000 0.0000
# 4 0.0000 0.0000 0.0000 282.8641 0.0000 0.0000
# 5 0.0000 0.0000 0.0000 0.0000 -0.2798 0.0000
# 6 0.0000 0.0000 0.0000 0.0000 0.0000 8.6216
#
#
#
# Elastic Compliance Matrix: (Units=1/GPa)
#
#
# Indices 1 2 3 4 5 6 
#
# 1 0.010213 -0.004243 -0.003860 0.000000 0.000000 0.000000
# 2 -0.004243 0.034614 0.005123 0.000000 0.000000 0.000000
# 3 -0.003860 0.005123 0.013205 0.000000 0.000000 0.000000
# 4 0.000000 0.000000 0.000000 0.003535 0.000000 0.000000
# 5 0.000000 0.000000 0.000000 0.000000 -3.573422 0.000000
# 6 0.000000 0.000000 0.000000 0.000000 0.000000 0.115988
#
#
# Mechanical properties :
#
#
# Convention : Reuss Voigt Hill
#
# Bulk Modulus (GPa) = 19.20443 32.35332 25.77888
# Shear Modulus (GPa) = -1.48256 71.77076 35.14410
#
# Velocity S-wave (km/s) = -0.83726 5.82540 4.07641
# Velocity P-wave (km/s) = 2.85408 7.78104 5.86048
#
# Compressibility (1/GPa) = 0.05207131
#
# Stress axis : x y z
#
# Youngs Moduli (GPa) = 97.91254 28.89006 75.72975
#
# Poissons Ratio (x) = 0.12259 0.29233
# Poissons Ratio (y) = 0.41546 -0.38796
# Poissons Ratio (z) = 0.37796 -0.14800
#
# Static dielectric constant tensor:
#      x y z
#    x 1.754100 0.000000 0.000000 
#    y 0.000000 0.760630 0.000000 
#    z 0.000000 0.000000 1.768640 
# 
# From -- ./inp_files/19553.got.cif
#   From: 2010.05.17/outbox.cif.g08.bks.cpg/sg43_10_cif.got.tgz:19553.got - 2010.06.03 19:21:55.
