data_PCOD9372077
_publ_section_title
;
Structure prediction by ZEFSAII (Michael W. Deem and Ramdas Pophale) SiO2 
 PCOD9372077
Probable space group: F D D 2
;
_chemical_formula_sum "Si O2"
_cell_formula_units_Z 72
_cell_length_a 14.267535
_cell_length_b 18.989381
_cell_length_c 11.298713
_cell_angle_alpha 90.000000
_cell_angle_beta 90.000000
_cell_angle_gamma 90.000000
_cell_volume 3061.179047
_symmetry_space_group_name_H-M "F D D 2"
_symmetry_group_IT_number 43
_symmetry_cell_setting 'orthorhombic'
loop_
_space_group_symop_operation_xyz
x,y,z
-x,-y,z
1/4-x,1/4+y,1/4+z
1/4+x,1/4-y,1/4+z
x,1/2+y,1/2+z
-x,1/2-y,1/2+z
1/4-x,3/4+y,3/4+z
1/4+x,3/4-y,3/4+z
1/2+x,y,1/2+z
1/2-x,-y,1/2+z
3/4-x,1/4+y,3/4+z
3/4+x,1/4-y,3/4+z
1/2+x,1/2+y,z
1/2-x,1/2-y,z
3/4-x,3/4+y,1/4+z
3/4+x,3/4-y,1/4+z
loop_
_atom_site_type_symbol
_atom_site_label
_atom_site_fract_x
_atom_site_fract_y
_atom_site_fract_z
Si Si1 0.750000 0.250000 0.628760
Si Si2 0.372055 0.321518 0.987513
Si Si3 0.730457 0.957629 0.758380
Si Si4 0.338682 0.717708 0.849352
Si Si5 0.926357 0.564836 0.961742
O O1 0.732812 0.185280 0.541310
O O2 0.668863 0.239641 0.727084
O O3 0.424263 0.250574 0.028004
O O4 0.417473 0.388647 0.051352
O O5 0.362361 0.321884 0.846506
O O6 0.761216 0.885413 0.695243
O O7 0.677738 0.012002 0.672330
O O8 0.660210 0.943345 0.868951
O O9 0.250000 0.750000 0.919511
O O10 0.000000 0.500000 0.956859
#
# Coordination Sequence:
#
# PCOD9372077 Si02
#       5
#     8  16  16  16  16
#     4  10  24  44  70 104 140 196 256 300 382 454
#     4  12  25  49  78 109 153 206 261 320 388 476
#     4  12  29  49  80 116 159 207 264 332 395 477
#     4  10  26  44  76 107 152 200 261 310 387 465
#     4  12  29  50  79 116 164 204 263 331 405 467
#
# _framework density 23.520351000000002
#
# number of rings (size 3 to 8) (size 9 to 14) (size 15 to 20)
#    0.667    0.000    1.111    4.667   12.444    1.778 
#    0.000    0.000    0.000    0.000    0.000    0.000 
#    0.000    0.000    0.000    0.000    0.000    0.000 
#
# Total GULP energy -100283.911504 kJ/mol
# GULP energy per Si atom -5571.328417 kJ/mol
# Density = 2.346682 g / cm^3
# Si number density = 23.520351 Si / 1000 Ang^3
#
#
#
# Elastic Constant Matrix: (Units=GPa)
#
#
# Indices 1 2 3 4 5 6 
#
# 1 82.9480 25.4530 20.5202 0.0000 0.0000 0.0000
# 2 25.4530 145.5937 10.8676 0.0000 0.0000 0.0000
# 3 20.5202 10.8676 91.4178 0.0000 0.0000 0.0000
# 4 0.0000 0.0000 0.0000 16.8042 0.0000 0.0000
# 5 0.0000 0.0000 0.0000 0.0000 43.5740 0.0000
# 6 0.0000 0.0000 0.0000 0.0000 0.0000 51.3176
#
#
#
# Elastic Compliance Matrix: (Units=1/GPa)
#
#
# Indices 1 2 3 4 5 6 
#
# 1 0.013392 -0.002136 -0.002752 0.000000 0.000000 0.000000
# 2 -0.002136 0.007271 -0.000385 0.000000 0.000000 0.000000
# 3 -0.002752 -0.000385 0.011602 0.000000 0.000000 0.000000
# 4 0.000000 0.000000 0.000000 0.059509 0.000000 0.000000
# 5 0.000000 0.000000 0.000000 0.000000 0.022949 0.000000
# 6 0.000000 0.000000 0.000000 0.000000 0.000000 0.019486
#
#
# Mechanical properties :
#
#
# Convention : Reuss Voigt Hill
#
# Bulk Modulus (GPa) = 46.04228 48.18234 47.11231
# Shear Modulus (GPa) = 32.89579 39.88041 36.38810
#
# Velocity S-wave (km/s) = 3.74386 4.12220 3.93757
# Velocity P-wave (km/s) = 6.18923 6.57165 6.38330
#
# Compressibility (1/GPa) = 0.02171917
#
# Stress axis : x y z
#
# Youngs Moduli (GPa) = 74.67164 137.54139 86.18974
#
# Poissons Ratio (x) = 0.29376 0.23721
# Poissons Ratio (y) = 0.15948 0.03317
# Poissons Ratio (z) = 0.20551 0.05294
#
# Static dielectric constant tensor:
#      x y z
#    x 2.094770 0.000000 0.000000 
#    y 0.000000 1.633980 0.000000 
#    z 0.000000 0.000000 1.850660 
# 
# From -- ./inp_files/6011.got.cif
#   From: 2010.05.17/outbox.cif.g08.bks.cpg/sg43_4_cif.got.tgz:6011.got - 2010.06.03 19:21:55.
