data_PCOD9372974
_publ_section_title
;
Structure prediction by ZEFSAII (Michael W. Deem and Ramdas Pophale) SiO2 
 PCOD9372974
Probable space group: F D D 2
;
_chemical_formula_sum "Si O2"
_cell_formula_units_Z 30
_cell_length_a 27.000000
_cell_length_b 9.000000
_cell_length_c 24.000000
_cell_angle_alpha 90.000000
_cell_angle_beta 90.000000
_cell_angle_gamma 90.000000
_cell_volume 5832.000000
_symmetry_space_group_name_H-M "F D D 2"
_symmetry_group_IT_number 43
_symmetry_cell_setting 'orthorhombic'
loop_
_space_group_symop_operation_xyz
x,y,z
-x,-y,z
1/4-x,1/4+y,1/4+z
1/4+x,1/4-y,1/4+z
x,1/2+y,1/2+z
-x,1/2-y,1/2+z
1/4-x,3/4+y,3/4+z
1/4+x,3/4-y,3/4+z
1/2+x,y,1/2+z
1/2-x,-y,1/2+z
3/4-x,1/4+y,3/4+z
3/4+x,1/4-y,3/4+z
1/2+x,1/2+y,z
1/2-x,1/2-y,z
3/4-x,3/4+y,1/4+z
3/4+x,3/4-y,1/4+z
loop_
_atom_site_type_symbol
_atom_site_label
_atom_site_fract_x
_atom_site_fract_y
_atom_site_fract_z
Si Si1 0.193144 0.475321 0.366480
Si Si2 0.590160 0.356972 0.823633
Si Si3 0.250000 0.750000 0.947580
Si Si4 0.523545 0.836278 0.994824
Si Si5 0.810220 0.261881 0.453873
Si Si6 0.426508 0.726721 0.942853
Si Si7 0.855460 0.312363 0.157724
Si Si8 0.160957 0.277500 0.531609
O O1 0.147757 0.377580 0.341516
O O2 0.229988 0.376806 0.404991
O O3 0.213890 0.544409 0.308742
O O4 0.176419 0.603763 0.410490
O O5 0.576567 0.456553 0.768786
O O6 0.568190 0.372167 0.886585
O O7 0.575277 0.192180 0.803165
O O8 0.204286 0.716470 0.990503
O O9 0.479895 0.734045 0.971316
O O10 0.567517 0.845256 0.948258
O O11 0.500000 0.000000 0.996494
O O12 0.750000 0.250000 0.452595
O O13 0.840700 0.121243 0.428335
O O14 0.407403 0.890799 0.922592
O O15 0.386509 0.693403 0.991477
O O16 0.848940 0.316952 0.089341
#
# Coordination Sequence:
#
# PCOD9372974 Si02
#       8
#    16  16   8  16  16  16  16  16
#     4  12  26  45  69  98 145 181 240 292 368 427
#     4  11  23  49  64  99 143 180 226 304 353 435
#     4  12  26  44  72 102 136 194 236 310 348 436
#     4  10  23  44  67  99 134 180 231 294 352 424
#     4  12  27  45  71 105 144 186 242 298 366 439
#     4  10  23  42  69  99 131 180 238 283 350 430
#     4  10  25  42  69 100 137 183 226 296 359 420
#     4  11  25  42  71 100 137 181 246 285 366 426
#
# _framework density 5.1440330000000003
#
# number of rings (size 3 to 8) (size 9 to 14) (size 15 to 20)
#    0.000    1.067    4.000    0.400   14.000    0.000 
#    2.400    0.000    0.000    0.000    0.000    0.000 
#    0.000    0.000    0.000    0.000    0.000    0.000 
#
# Total GULP energy -167290.563923 kJ/mol
# GULP energy per Si atom -5576.352131 kJ/mol
# Density = 0.513232 g / cm^3
# Si number density = 5.144033 Si / 1000 Ang^3
#
#
#
# Elastic Constant Matrix: (Units=GPa)
#
#
# Indices 1 2 3 4 5 6 
#
# 1 99.0463 -1.4973 41.4667 0.0000 0.0000 0.0000
# 2 -1.4973 26.4093 10.6728 0.0000 0.0000 0.0000
# 3 41.4667 10.6728 207.7258 0.0000 0.0000 0.0000
# 4 0.0000 0.0000 0.0000 47.7121 0.0000 0.0000
# 5 0.0000 0.0000 0.0000 0.0000 49.7589 0.0000
# 6 0.0000 0.0000 0.0000 0.0000 0.0000 30.6351
#
#
#
# Elastic Compliance Matrix: (Units=1/GPa)
#
#
# Indices 1 2 3 4 5 6 
#
# 1 0.011079 0.001554 -0.002291 0.000000 0.000000 0.000000
# 2 0.001554 0.038886 -0.002308 0.000000 0.000000 0.000000
# 3 -0.002291 -0.002308 0.005390 0.000000 0.000000 0.000000
# 4 0.000000 0.000000 0.000000 0.020959 0.000000 0.000000
# 5 0.000000 0.000000 0.000000 0.000000 0.020097 0.000000
# 6 0.000000 0.000000 0.000000 0.000000 0.000000 0.032642
#
#
# Mechanical properties :
#
#
# Convention : Reuss Voigt Hill
#
# Bulk Modulus (GPa) = 20.29854 48.27398 34.28626
# Shear Modulus (GPa) = 32.98881 44.45714 38.72298
#
# Velocity S-wave (km/s) = 4.00841 4.65329 4.34284
# Velocity P-wave (km/s) = 5.59550 7.23760 6.46887
#
# Compressibility (1/GPa) = 0.04926464
#
# Stress axis : x y z
#
# Youngs Moduli (GPa) = 90.25968 25.71591 185.52645
#
# Poissons Ratio (x) = -0.03997 0.42513
# Poissons Ratio (y) = -0.14028 0.42824
# Poissons Ratio (z) = 0.20683 0.05936
#
# Static dielectric constant tensor:
#      x y z
#    x 1.772700 0.000000 0.000000 
#    y 0.000000 1.782180 0.000000 
#    z 0.000000 0.000000 1.728370 
# 
# From -- ./inp_files/22820.got.cif
#   From: 2010.05.17/outbox.ucp.g08.bks.cvg/sg43_12_cif.got.tgz:22820.got - 2010.06.11 16:31:01.
