data_PCOD9372306
_publ_section_title
;
Structure prediction by ZEFSAII (Michael W. Deem and Ramdas Pophale) SiO2 
 PCOD9372306
Probable space group: F D D 2
;
_chemical_formula_sum "Si O2"
_cell_formula_units_Z 64
_cell_length_a 26.429411
_cell_length_b 4.941491
_cell_length_c 20.578847
_cell_angle_alpha 90.000000
_cell_angle_beta 90.000000
_cell_angle_gamma 90.000000
_cell_volume 2687.611753
_symmetry_space_group_name_H-M "F D D 2"
_symmetry_group_IT_number 43
_symmetry_cell_setting 'orthorhombic'
loop_
_space_group_symop_operation_xyz
x,y,z
-x,-y,z
1/4-x,1/4+y,1/4+z
1/4+x,1/4-y,1/4+z
x,1/2+y,1/2+z
-x,1/2-y,1/2+z
1/4-x,3/4+y,3/4+z
1/4+x,3/4-y,3/4+z
1/2+x,y,1/2+z
1/2-x,-y,1/2+z
3/4-x,1/4+y,3/4+z
3/4+x,1/4-y,3/4+z
1/2+x,1/2+y,z
1/2-x,1/2-y,z
3/4-x,3/4+y,1/4+z
3/4+x,3/4-y,1/4+z
loop_
_atom_site_type_symbol
_atom_site_label
_atom_site_fract_x
_atom_site_fract_y
_atom_site_fract_z
Si Si1 0.500000 0.000000 0.099360
Si Si2 0.656816 0.191716 0.023467
Si Si3 0.750000 0.250000 0.932554
Si Si4 0.191632 0.221582 0.096217
Si Si5 0.200215 0.912659 0.223226
O O1 0.521425 0.758387 0.142907
O O2 0.465656 0.825719 0.049235
O O3 0.704390 0.148793 0.976758
O O4 0.608324 0.090422 0.983466
O O5 0.662702 0.493204 0.053563
O O6 0.663536 0.000479 0.085358
O O7 0.250000 0.250000 0.073935
O O8 0.194928 0.153647 0.172329
O O9 0.250000 0.750000 0.196854
#
# Coordination Sequence:
#
# PCOD9372306 Si02
#       5
#     8  16   8  16  16
#     4  10  28  45  72 105 154 192 250 306 390 458
#     4  12  27  45  78 109 146 200 255 318 389 450
#     4  12  24  49  70 107 150 194 248 318 382 462
#     4  12  25  50  74 109 147 198 260 318 376 461
#     4  10  28  47  74 110 151 203 249 318 387 463
#
# _framework density 23.812964999999998
#
# number of rings (size 3 to 8) (size 9 to 14) (size 15 to 20)
#    0.750    0.000    2.500    3.000    8.750    4.000 
#    0.000    0.000    0.000    0.000    0.000    0.000 
#    0.000    0.000    0.000    0.000    0.000    0.000 
#
# Total GULP energy -89106.173722 kJ/mol
# GULP energy per Si atom -5569.135858 kJ/mol
# Density = 2.375877 g / cm^3
# Si number density = 23.812965 Si / 1000 Ang^3
#
#
#
# Elastic Constant Matrix: (Units=GPa)
#
#
# Indices 1 2 3 4 5 6 
#
# 1 147.2419 21.5088 35.8126 0.0018 -0.0004 -0.0027
# 2 21.5088 91.1830 37.4928 0.0150 -0.0020 -0.0080
# 3 35.8126 37.4928 103.6992 0.0033 -0.0001 -0.0007
# 4 0.0018 0.0150 0.0033 5.1339 -0.0023 -0.0045
# 5 -0.0004 -0.0020 -0.0001 -0.0023 14.7513 0.0024
# 6 -0.0027 -0.0080 -0.0007 -0.0045 0.0024 21.3240
#
#
#
# Elastic Compliance Matrix: (Units=1/GPa)
#
#
# Indices 1 2 3 4 5 6 
#
# 1 0.007467 -0.000823 -0.002281 0.000001 0.000000 0.000001
# 2 -0.000823 0.012973 -0.004406 -0.000035 0.000002 0.000005
# 3 -0.002281 -0.004406 0.012024 0.000006 -0.000001 -0.000002
# 4 0.000001 -0.000035 0.000006 0.194785 0.000030 0.000041
# 5 0.000000 0.000002 -0.000001 0.000030 0.067791 -0.000007
# 6 0.000001 0.000005 -0.000002 0.000041 -0.000007 0.046896
#
#
# Mechanical properties :
#
#
# Convention : Reuss Voigt Hill
#
# Bulk Modulus (GPa) = 57.33018 59.08362 58.20690
# Shear Modulus (GPa) = 13.78285 24.72916 19.25600
#
# Velocity S-wave (km/s) = 2.40843 3.22603 2.84674
# Velocity P-wave (km/s) = 5.64460 6.22429 5.94152
#
# Compressibility (1/GPa) = 0.01744282
#
# Stress axis : x y z
#
# Youngs Moduli (GPa) = 133.92991 77.08397 83.16705
#
# Poissons Ratio (x) = 0.06347 0.18969
# Poissons Ratio (y) = 0.11028 0.36644
# Poissons Ratio (z) = 0.30548 0.33963
#
# Static dielectric constant tensor:
#      x y z
#    x 1.905960 0.000000 0.000000 
#    y 0.000000 1.977540 -0.000010 
#    z 0.000000 -0.000010 1.910420 
# 
# From -- ./inp_files/15173.got.cif
#   From: 2010.05.17/outbox.cif.g08.bks.cpg/sg43_8_cif.got.tgz:15173.got - 2010.06.03 19:21:55.
