data_PCOD9372012
_publ_section_title
;
Structure prediction by ZEFSAII (Michael W. Deem and Ramdas Pophale) SiO2 
 PCOD9372012
Probable space group: F D D 2
;
_chemical_formula_sum "Si O2"
_cell_formula_units_Z 56
_cell_length_a 4.583340
_cell_length_b 27.349945
_cell_length_c 17.378688
_cell_angle_alpha 90.000000
_cell_angle_beta 90.000000
_cell_angle_gamma 90.000000
_cell_volume 2178.489740
_symmetry_space_group_name_H-M "F D D 2"
_symmetry_group_IT_number 43
_symmetry_cell_setting 'orthorhombic'
loop_
_space_group_symop_operation_xyz
x,y,z
-x,-y,z
1/4-x,1/4+y,1/4+z
1/4+x,1/4-y,1/4+z
x,1/2+y,1/2+z
-x,1/2-y,1/2+z
1/4-x,3/4+y,3/4+z
1/4+x,3/4-y,3/4+z
1/2+x,y,1/2+z
1/2-x,-y,1/2+z
3/4-x,1/4+y,3/4+z
3/4+x,1/4-y,3/4+z
1/2+x,1/2+y,z
1/2-x,1/2-y,z
3/4-x,3/4+y,1/4+z
3/4+x,3/4-y,1/4+z
loop_
_atom_site_type_symbol
_atom_site_label
_atom_site_fract_x
_atom_site_fract_y
_atom_site_fract_z
Si Si1 0.760698 0.656261 0.243200
Si Si2 0.000000 0.500000 0.796073
Si Si3 0.000000 0.000000 0.078532
Si Si4 0.500000 0.500000 0.687303
Si Si5 0.010698 0.906261 0.381405
O O1 0.884731 0.705958 0.279967
O O2 0.500000 0.670735 0.187303
O O3 0.625000 0.625000 0.312303
O O4 1.000000 0.631690 0.187303
O O5 0.739357 0.476729 0.744808
O O6 0.134731 0.455958 0.844638
O O7 0.739357 0.023271 0.129798
#
# Coordination Sequence:
#
# PCOD9372012 Si02
#       5
#    16   8   8   8  16
#     4  12  27  46  73 106 146 188 241 298 361 430
#     4  11  24  45  74  99 149 186 244 284 375 419
#     4  11  24  45  74  99 149 186 244 284 375 419
#     4  10  24  40  76 104 136 186 238 298 352 424
#     4  12  27  46  73 106 146 188 241 298 361 430
#
# _framework density 25.705880000000001
#
# number of rings (size 3 to 8) (size 9 to 14) (size 15 to 20)
#    0.000    0.571    0.000    6.857   12.000    0.000 
#    0.000    0.000    0.000    0.000    0.000    0.000 
#    0.000    0.000    0.000    0.000    0.000    0.000 
#
# Total GULP energy -78210.952210 kJ/mol
# GULP energy per Si atom -5586.496586 kJ/mol
# Density = 2.564737 g / cm^3
# Si number density = 25.705880 Si / 1000 Ang^3
#
#
#
# Elastic Constant Matrix: (Units=GPa)
#
#
# Indices 1 2 3 4 5 6 
#
# 1 148.5674 11.6272 61.2941 0.0000 0.0000 0.0000
# 2 11.6272 109.1939 68.5904 0.0000 0.0000 0.0000
# 3 61.2941 68.5904 158.3589 0.0000 0.0000 0.0000
# 4 0.0000 0.0000 0.0000 -15.5310 0.0000 0.0000
# 5 0.0000 0.0000 0.0000 0.0000 84.1268 0.0000
# 6 0.0000 0.0000 0.0000 0.0000 0.0000 19.9720
#
#
#
# Elastic Compliance Matrix: (Units=1/GPa)
#
#
# Indices 1 2 3 4 5 6 
#
# 1 0.008194 0.001538 -0.003838 0.000000 0.000000 0.000000
# 2 0.001538 0.012870 -0.006170 0.000000 0.000000 0.000000
# 3 -0.003838 -0.006170 0.010472 0.000000 0.000000 0.000000
# 4 0.000000 0.000000 0.000000 -0.064387 0.000000 0.000000
# 5 0.000000 0.000000 0.000000 0.000000 0.011887 0.000000
# 6 0.000000 0.000000 0.000000 0.000000 0.000000 0.050070
#
#
# Mechanical properties :
#
#
# Convention : Reuss Voigt Hill
#
# Bulk Modulus (GPa) = 68.50420 77.68263 73.09341
# Shear Modulus (GPa) = 98.21250 36.02079 67.11664
#
# Velocity S-wave (km/s) = 6.18783 3.74741 5.11528
# Velocity P-wave (km/s) = 8.81812 7.00068 7.96143
#
# Compressibility (1/GPa) = 0.01459765
#
# Stress axis : x y z
#
# Youngs Moduli (GPa) = 122.04196 77.70179 95.48827
#
# Poissons Ratio (x) = -0.11952 0.36646
# Poissons Ratio (y) = -0.18772 0.58913
# Poissons Ratio (z) = 0.46837 0.47939
#
# Static dielectric constant tensor:
#      x y z
#    x 1.982710 0.000000 0.000000 
#    y 0.000000 1.939100 0.000000 
#    z 0.000000 0.000000 2.108320 
# 
# From -- ./inp_files/8632.got.cif
#   From: 2010.05.17/outbox.cif.g08.bks.cpg/sg43_5_cif.got.tgz:8632.got - 2010.06.03 19:21:55.
