data_PCOD9372828
_publ_section_title
;
Structure prediction by ZEFSAII (Michael W. Deem and Ramdas Pophale) SiO2 
 PCOD9372828
Probable space group: F D D 2
;
_chemical_formula_sum "Si O2"
_cell_formula_units_Z 96
_cell_length_a 16.032471
_cell_length_b 25.954276
_cell_length_c 8.865204
_cell_angle_alpha 90.000000
_cell_angle_beta 90.000000
_cell_angle_gamma 90.000000
_cell_volume 3688.910473
_symmetry_space_group_name_H-M "F D D 2"
_symmetry_group_IT_number 43
_symmetry_cell_setting 'orthorhombic'
loop_
_space_group_symop_operation_xyz
x,y,z
-x,-y,z
1/4-x,1/4+y,1/4+z
1/4+x,1/4-y,1/4+z
x,1/2+y,1/2+z
-x,1/2-y,1/2+z
1/4-x,3/4+y,3/4+z
1/4+x,3/4-y,3/4+z
1/2+x,y,1/2+z
1/2-x,-y,1/2+z
3/4-x,1/4+y,3/4+z
3/4+x,1/4-y,3/4+z
1/2+x,1/2+y,z
1/2-x,1/2-y,z
3/4-x,3/4+y,1/4+z
3/4+x,3/4-y,1/4+z
loop_
_atom_site_type_symbol
_atom_site_label
_atom_site_fract_x
_atom_site_fract_y
_atom_site_fract_z
Si Si1 0.829159 0.620265 0.237550
Si Si2 0.248299 0.401135 0.703798
Si Si3 0.155567 0.679689 0.754690
Si Si4 0.647382 0.532896 0.134892
Si Si5 0.646229 0.308521 0.233089
Si Si6 0.933314 0.794236 0.749003
O O1 0.738462 0.645368 0.265729
O O2 0.864496 0.573701 0.339395
O O3 0.885926 0.668056 0.277475
O O4 0.835381 0.599492 0.070918
O O5 0.166419 0.403806 0.600287
O O6 0.231623 0.341185 0.753308
O O7 0.326252 0.415020 0.594358
O O8 0.222647 0.441694 0.836042
O O9 0.159870 0.736593 0.824581
O O10 0.629440 0.551436 0.304344
O O11 0.742888 0.519702 0.100745
O O12 0.640390 0.247133 0.265538
#
# Coordination Sequence:
#
# PCOD9372828 Si02
#       6
#    16  16  16  16  16  16
#     4  12  27  47  76 109 155 195 264 317 392 468
#     4  12  26  43  79 107 147 194 254 317 389 464
#     4  12  24  46  75 109 145 202 254 317 385 477
#     4  12  26  47  77 108 149 202 258 316 389 472
#     4  12  26  50  74 110 148 204 257 318 391 472
#     4  12  26  47  76 110 148 205 248 323 394 477
#
# _framework density 26.023942999999999
#
# number of rings (size 3 to 8) (size 9 to 14) (size 15 to 20)
#    0.000    0.000    6.667    2.500    4.667    0.000 
#    0.000    0.833    0.000    0.000    0.000    0.000 
#    0.000    0.000    0.000    0.000    0.000    0.000 
#
# Total GULP energy -133972.428734 kJ/mol
# GULP energy per Si atom -5582.184531 kJ/mol
# Density = 2.596471 g / cm^3
# Si number density = 26.023943 Si / 1000 Ang^3
#
#
#
# Elastic Constant Matrix: (Units=GPa)
#
#
# Indices 1 2 3 4 5 6 
#
# 1 101.0351 39.7563 28.1700 0.0000 0.0000 0.0000
# 2 39.7563 177.5255 54.0939 0.0000 0.0000 0.0000
# 3 28.1700 54.0939 121.5087 0.0000 0.0000 0.0000
# 4 0.0000 0.0000 0.0000 51.3239 0.0000 0.0000
# 5 0.0000 0.0000 0.0000 0.0000 24.7263 0.0000
# 6 0.0000 0.0000 0.0000 0.0000 0.0000 45.3995
#
#
#
# Elastic Compliance Matrix: (Units=1/GPa)
#
#
# Indices 1 2 3 4 5 6 
#
# 1 0.011151 -0.001978 -0.001705 0.000000 0.000000 0.000000
# 2 -0.001978 0.006868 -0.002599 0.000000 0.000000 0.000000
# 3 -0.001705 -0.002599 0.009782 0.000000 0.000000 0.000000
# 4 0.000000 0.000000 0.000000 0.019484 0.000000 0.000000
# 5 0.000000 0.000000 0.000000 0.000000 0.040443 0.000000
# 6 0.000000 0.000000 0.000000 0.000000 0.000000 0.022027
#
#
# Mechanical properties :
#
#
# Convention : Reuss Voigt Hill
#
# Bulk Modulus (GPa) = 65.62505 71.56775 68.59640
# Shear Modulus (GPa) = 39.24743 42.82654 41.03699
#
# Velocity S-wave (km/s) = 3.88768 4.06107 3.97532
# Velocity P-wave (km/s) = 6.73973 7.03919 6.89109
#
# Compressibility (1/GPa) = 0.01523808
#
# Stress axis : x y z
#
# Youngs Moduli (GPa) = 89.67719 145.60617 102.22769
#
# Poissons Ratio (x) = 0.28798 0.17427
# Poissons Ratio (y) = 0.17736 0.26568
# Poissons Ratio (z) = 0.15288 0.37842
#
# Static dielectric constant tensor:
#      x y z
#    x 2.043060 0.000000 0.000000 
#    y 0.000000 2.215520 0.000000 
#    z 0.000000 0.000000 2.196100 
# 
# From -- ./inp_files/3322.got.cif
#   From: 2010.05.17/outbox.cif.g08.bks.cpg/sg43_2_cif.got.tgz:3322.got - 2010.06.03 19:21:55.
