data_PCOD9372978
_publ_section_title
;
Structure prediction by ZEFSAII (Michael W. Deem and Ramdas Pophale) SiO2 
 PCOD9372978
Probable space group: F D D 2
;
_chemical_formula_sum "Si O2"
_cell_formula_units_Z 28
_cell_length_a 30.000000
_cell_length_b 12.000000
_cell_length_c 15.000000
_cell_angle_alpha 90.000000
_cell_angle_beta 90.000000
_cell_angle_gamma 90.000000
_cell_volume 5400.000000
_symmetry_space_group_name_H-M "F D D 2"
_symmetry_group_IT_number 43
_symmetry_cell_setting 'orthorhombic'
loop_
_space_group_symop_operation_xyz
x,y,z
-x,-y,z
1/4-x,1/4+y,1/4+z
1/4+x,1/4-y,1/4+z
x,1/2+y,1/2+z
-x,1/2-y,1/2+z
1/4-x,3/4+y,3/4+z
1/4+x,3/4-y,3/4+z
1/2+x,y,1/2+z
1/2-x,-y,1/2+z
3/4-x,1/4+y,3/4+z
3/4+x,1/4-y,3/4+z
1/2+x,1/2+y,z
1/2-x,1/2-y,z
3/4-x,3/4+y,1/4+z
3/4+x,3/4-y,1/4+z
loop_
_atom_site_type_symbol
_atom_site_label
_atom_site_fract_x
_atom_site_fract_y
_atom_site_fract_z
Si Si1 0.408959 0.175904 0.375000
Si Si2 0.507201 0.231070 0.443088
Si Si3 0.821772 0.831678 0.622722
Si Si4 0.243960 0.615442 0.882990
Si Si5 0.658724 0.003511 0.968510
Si Si6 0.674294 0.876166 0.500817
Si Si7 0.046320 0.049822 0.806903
O O1 0.454355 0.222268 0.421536
O O2 0.364441 0.167145 0.434313
O O3 0.401688 0.270201 0.300875
O O4 0.422738 0.053397 0.337858
O O5 0.531788 0.347704 0.418765
O O6 0.510094 0.197920 0.545414
O O7 0.531220 0.131344 0.387927
O O8 0.859922 0.775443 0.682927
O O9 0.809054 0.727352 0.560710
O O10 0.844285 0.923588 0.558136
O O11 0.250000 0.750000 0.871782
O O12 0.194033 0.574257 0.908096
O O13 0.279738 0.581146 0.957732
O O14 0.680737 0.883863 0.988749
O O15 0.000000 0.000000 0.770825
#
# Coordination Sequence:
#
# PCOD9372978 Si02
#       7
#    16  16  16  16  16  16  16
#     4  11  25  42  69 105 137 182 235 291 346 423
#     4  10  24  43  69  98 140 181 232 287 356 406
#     4  11  24  46  67 100 139 184 222 292 344 423
#     4  12  24  43  72 104 137 185 238 294 348 426
#     4  11  24  44  69  99 142 180 233 286 356 411
#     4  12  26  41  74 100 140 180 239 283 354 415
#     4   9  20  42  66  95 142 182 224 293 348 415
#
# _framework density 5.1851849999999997
#
# number of rings (size 3 to 8) (size 9 to 14) (size 15 to 20)
#    0.000    1.143    1.429    5.571    6.000    1.143 
#    2.571    0.000    0.000    0.000    0.000    0.000 
#    0.000    0.000    0.000    0.000    0.000    0.000 
#
# Total GULP energy -156425.957664 kJ/mol
# GULP energy per Si atom -5586.641345 kJ/mol
# Density = 0.517338 g / cm^3
# Si number density = 5.185185 Si / 1000 Ang^3
#
#
#
# Elastic Constant Matrix: (Units=GPa)
#
#
# Indices 1 2 3 4 5 6 
#
# 1 64.1591 14.9582 3.9354 0.0000 0.0000 0.0000
# 2 14.9582 84.0984 7.0201 0.0000 0.0000 0.0000
# 3 3.9354 7.0201 41.2257 0.0000 0.0000 0.0000
# 4 0.0000 0.0000 0.0000 31.8660 0.0000 0.0000
# 5 0.0000 0.0000 0.0000 0.0000 24.3324 0.0000
# 6 0.0000 0.0000 0.0000 0.0000 0.0000 42.3465
#
#
#
# Elastic Compliance Matrix: (Units=1/GPa)
#
#
# Indices 1 2 3 4 5 6 
#
# 1 0.016308 -0.002811 -0.001078 0.000000 0.000000 0.000000
# 2 -0.002811 0.012547 -0.001868 0.000000 0.000000 0.000000
# 3 -0.001078 -0.001868 0.024678 0.000000 0.000000 0.000000
# 4 0.000000 0.000000 0.000000 0.031381 0.000000 0.000000
# 5 0.000000 0.000000 0.000000 0.000000 0.041097 0.000000
# 6 0.000000 0.000000 0.000000 0.000000 0.000000 0.023615
#
#
# Mechanical properties :
#
#
# Convention : Reuss Voigt Hill
#
# Bulk Modulus (GPa) = 23.79917 26.81230 25.30573
# Shear Modulus (GPa) = 28.54768 30.61362 29.58065
#
# Velocity S-wave (km/s) = 3.71402 3.84606 3.78062
# Velocity P-wave (km/s) = 5.46731 5.71650 5.59329
#
# Compressibility (1/GPa) = 0.04201827
#
# Stress axis : x y z
#
# Youngs Moduli (GPa) = 61.32092 79.70235 40.52231
#
# Poissons Ratio (x) = 0.22401 0.04369
# Poissons Ratio (y) = 0.17235 0.07570
# Poissons Ratio (z) = 0.06611 0.14890
#
# Static dielectric constant tensor:
#      x y z
#    x 1.740400 0.000000 0.000000 
#    y 0.000000 1.722470 0.000000 
#    z 0.000000 0.000000 1.812820 
# 
# From -- ./inp_files/9800.got.cif
#   From: 2010.05.17/outbox.ucp.g08.bks.cvg/sg43_5_cif.got.tgz:9800.got - 2010.06.11 16:31:01.
