data_PCOD9372123
_publ_section_title
;
Structure prediction by ZEFSAII (Michael W. Deem and Ramdas Pophale) SiO2 
 PCOD9372123
Probable space group: F D D 2
;
_chemical_formula_sum "Si O2"
_cell_formula_units_Z 72
_cell_length_a 9.826735
_cell_length_b 12.239587
_cell_length_c 26.229700
_cell_angle_alpha 90.000000
_cell_angle_beta 90.000000
_cell_angle_gamma 90.000000
_cell_volume 3154.781835
_symmetry_space_group_name_H-M "F D D 2"
_symmetry_group_IT_number 43
_symmetry_cell_setting 'orthorhombic'
loop_
_space_group_symop_operation_xyz
x,y,z
-x,-y,z
1/4-x,1/4+y,1/4+z
1/4+x,1/4-y,1/4+z
x,1/2+y,1/2+z
-x,1/2-y,1/2+z
1/4-x,3/4+y,3/4+z
1/4+x,3/4-y,3/4+z
1/2+x,y,1/2+z
1/2-x,-y,1/2+z
3/4-x,1/4+y,3/4+z
3/4+x,1/4-y,3/4+z
1/2+x,1/2+y,z
1/2-x,1/2-y,z
3/4-x,3/4+y,1/4+z
3/4+x,3/4-y,1/4+z
loop_
_atom_site_type_symbol
_atom_site_label
_atom_site_fract_x
_atom_site_fract_y
_atom_site_fract_z
Si Si1 0.994809 0.128168 0.278240
Si Si2 0.143207 0.038085 0.635927
Si Si3 0.849673 0.007253 0.438316
Si Si4 0.000000 0.000000 0.045612
Si Si5 0.848960 0.850679 0.127207
O O1 0.140403 0.181618 0.265029
O O2 0.962639 0.151756 0.337318
O O3 0.894966 0.195626 0.241874
O O4 0.000000 0.000000 0.268096
O O5 0.088448 0.112598 0.682773
O O6 0.249846 0.943531 0.651693
O O7 0.000000 0.000000 0.612824
O O8 0.727789 0.947844 0.408043
O O9 0.000000 0.000000 0.414898
O O10 0.082513 0.086353 0.080012
O O11 0.750000 0.750000 0.113684
#
# Coordination Sequence:
#
# PCOD9372123 Si02
#       5
#    16  16  16   8  16
#     4  11  26  45  71 106 149 194 252 313 379 453
#     4  11  23  45  73 104 148 194 248 311 384 453
#     4  12  26  45  71 106 146 195 253 312 379 446
#     4  10  24  46  70 104 146 188 246 318 370 442
#     4  11  23  44  75 104 140 199 247 306 385 450
#
# _framework density 22.822498
#
# number of rings (size 3 to 8) (size 9 to 14) (size 15 to 20)
#    0.000    0.889    2.222    5.333    6.222    0.000 
#    0.000    1.111    0.000    0.000    0.000    0.000 
#    0.000    0.000    0.000    0.000    0.000    0.000 
#
# Total GULP energy -100359.603122 kJ/mol
# GULP energy per Si atom -5575.533507 kJ/mol
# Density = 2.277055 g / cm^3
# Si number density = 22.822498 Si / 1000 Ang^3
#
#
#
# Elastic Constant Matrix: (Units=GPa)
#
#
# Indices 1 2 3 4 5 6 
#
# 1 159.5880 65.5483 28.9243 0.0000 0.0000 0.0000
# 2 65.5483 179.8463 59.0707 0.0000 0.0000 0.0000
# 3 28.9243 59.0707 52.7322 0.0000 0.0000 0.0000
# 4 0.0000 0.0000 0.0000 14.7937 0.0000 0.0000
# 5 0.0000 0.0000 0.0000 0.0000 17.0042 0.0000
# 6 0.0000 0.0000 0.0000 0.0000 0.0000 43.3828
#
#
#
# Elastic Compliance Matrix: (Units=1/GPa)
#
#
# Indices 1 2 3 4 5 6 
#
# 1 0.007460 -0.002175 -0.001655 0.000000 0.000000 0.000000
# 2 -0.002175 0.009431 -0.009372 0.000000 0.000000 0.000000
# 3 -0.001655 -0.009372 0.030370 0.000000 0.000000 0.000000
# 4 0.000000 0.000000 0.000000 0.067596 0.000000 0.000000
# 5 0.000000 0.000000 0.000000 0.000000 0.058809 0.000000
# 6 0.000000 0.000000 0.000000 0.000000 0.000000 0.023051
#
#
# Mechanical properties :
#
#
# Convention : Reuss Voigt Hill
#
# Bulk Modulus (GPa) = 47.94637 77.69479 62.82058
# Shear Modulus (GPa) = 21.73226 30.94436 26.33831
#
# Velocity S-wave (km/s) = 3.08917 3.68621 3.40082
# Velocity P-wave (km/s) = 5.81188 7.22734 6.55791
#
# Compressibility (1/GPa) = 0.02085664
#
# Stress axis : x y z
#
# Youngs Moduli (GPa) = 134.05700 106.03041 32.92743
#
# Poissons Ratio (x) = 0.23063 0.05450
# Poissons Ratio (y) = 0.29160 0.30859
# Poissons Ratio (z) = 0.22187 0.99370
#
# Static dielectric constant tensor:
#      x y z
#    x 2.014910 0.000000 0.000000 
#    y 0.000000 1.913800 0.000000 
#    z 0.000000 0.000000 1.817430 
# 
# From -- ./inp_files/28359.got.cif
#   From: 2010.05.17/outbox.cif.g08.bks.cpg/sg43_15_cif.got.tgz:28359.got - 2010.06.03 19:21:55.
