data_PCOD9372061
_publ_section_title
;
Structure prediction by ZEFSAII (Michael W. Deem and Ramdas Pophale) SiO2 
 PCOD9372061
Probable space group: F D D 2
;
_chemical_formula_sum "Si O2"
_cell_formula_units_Z 80
_cell_length_a 26.238610
_cell_length_b 13.783359
_cell_length_c 9.702704
_cell_angle_alpha 90.000000
_cell_angle_beta 90.000000
_cell_angle_gamma 90.000000
_cell_volume 3509.042877
_symmetry_space_group_name_H-M "F D D 2"
_symmetry_group_IT_number 43
_symmetry_cell_setting 'orthorhombic'
loop_
_space_group_symop_operation_xyz
x,y,z
-x,-y,z
1/4-x,1/4+y,1/4+z
1/4+x,1/4-y,1/4+z
x,1/2+y,1/2+z
-x,1/2-y,1/2+z
1/4-x,3/4+y,3/4+z
1/4+x,3/4-y,3/4+z
1/2+x,y,1/2+z
1/2-x,-y,1/2+z
3/4-x,1/4+y,3/4+z
3/4+x,1/4-y,3/4+z
1/2+x,1/2+y,z
1/2-x,1/2-y,z
3/4-x,3/4+y,1/4+z
3/4+x,3/4-y,1/4+z
loop_
_atom_site_type_symbol
_atom_site_label
_atom_site_fract_x
_atom_site_fract_y
_atom_site_fract_z
Si Si1 0.334424 0.455084 0.755030
Si Si2 0.877391 0.500000 0.963268
Si Si3 0.500000 0.667142 0.963268
Si Si4 0.915576 0.794916 0.421506
Si Si5 0.330922 0.250000 0.213268
O O1 0.339202 0.339595 0.769789
O O2 0.342362 0.468938 0.591197
O O3 0.282772 0.506549 0.802787
O O4 0.381057 0.506507 0.834078
O O5 0.910798 0.410406 0.906746
O O6 0.842362 0.531062 0.835339
O O7 0.467228 0.743451 0.873749
O O8 0.544889 0.591097 0.927128
O O9 0.455111 0.591097 0.999407
O O10 0.868943 0.743493 0.342458
#
# Coordination Sequence:
#
# PCOD9372061 Si02
#       5
#    16  16  16  16  16
#     4  11  23  47  69 100 140 179 228 292 332 412
#     4  10  24  44  66  97 145 168 217 303 342 378
#     4  11  24  41  74 104 132 191 232 269 356 406
#     4  11  23  47  69 100 140 179 228 292 332 412
#     4  11  24  47  70 103 137 184 239 281 322 430
#
# _framework density 22.79824
#
# number of rings (size 3 to 8) (size 9 to 14) (size 15 to 20)
#    0.000    1.200    4.000    1.200    0.000    2.400 
#    0.000    0.000    0.000    0.000    0.000    0.000 
#    0.000    0.000    0.000    0.000    0.000    0.000 
#
# Total GULP energy -111362.098700 kJ/mol
# GULP energy per Si atom -5568.104935 kJ/mol
# Density = 2.274635 g / cm^3
# Si number density = 22.798240 Si / 1000 Ang^3
#
#
#
# Elastic Constant Matrix: (Units=GPa)
#
#
# Indices 1 2 3 4 5 6 
#
# 1 163.6392 54.8398 23.4898 0.0000 0.0000 0.0000
# 2 54.8398 154.9972 -9.1156 0.0000 0.0000 0.0000
# 3 23.4898 -9.1156 100.0404 0.0000 0.0000 0.0000
# 4 0.0000 0.0000 0.0000 8.3555 0.0000 0.0000
# 5 0.0000 0.0000 0.0000 0.0000 -3.2277 0.0000
# 6 0.0000 0.0000 0.0000 0.0000 0.0000 15.4454
#
#
#
# Elastic Compliance Matrix: (Units=1/GPa)
#
#
# Indices 1 2 3 4 5 6 
#
# 1 0.007296 -0.002697 -0.001959 0.000000 0.000000 0.000000
# 2 -0.002697 0.007483 0.001315 0.000000 0.000000 0.000000
# 3 -0.001959 0.001315 0.010576 0.000000 0.000000 0.000000
# 4 0.000000 0.000000 0.000000 0.119682 0.000000 0.000000
# 5 0.000000 0.000000 0.000000 0.000000 -0.309823 0.000000
# 6 0.000000 0.000000 0.000000 0.000000 0.000000 0.064744
#
#
# Mechanical properties :
#
#
# Convention : Reuss Voigt Hill
#
# Bulk Modulus (GPa) = 53.55026 61.90053 57.72540
# Shear Modulus (GPa) = -57.38134 27.41217 -14.98458
#
# Velocity S-wave (km/s) = -5.02233 3.47130 -2.56651
# Velocity P-wave (km/s) = 3.17679 6.57852 4.07338
#
# Compressibility (1/GPa) = 0.01867404
#
# Stress axis : x y z
#
# Youngs Moduli (GPa) = 137.06383 133.63374 94.55621
#
# Poissons Ratio (x) = 0.36035 0.18522
# Poissons Ratio (y) = 0.36960 -0.12434
# Poissons Ratio (z) = 0.26848 -0.17573
#
# Static dielectric constant tensor:
#      x y z
#    x 1.836060 0.000000 0.000000 
#    y 0.000000 1.915190 0.000000 
#    z 0.000000 0.000000 1.862530 
# 
# From -- ./inp_files/7440.got.cif
#   From: 2010.05.17/outbox.cif.g08.bks.cpg/sg43_4_cif.got.tgz:7440.got - 2010.06.03 19:21:55.
