data_PCOD9372858
_publ_section_title
;
Structure prediction by ZEFSAII (Michael W. Deem and Ramdas Pophale) SiO2 
 PCOD9372858
Probable space group: F D D 2
;
_chemical_formula_sum "Si O2"
_cell_formula_units_Z 40
_cell_length_a 8.757929
_cell_length_b 20.539475
_cell_length_c 7.215356
_cell_angle_alpha 90.000000
_cell_angle_beta 90.000000
_cell_angle_gamma 90.000000
_cell_volume 1297.921786
_symmetry_space_group_name_H-M "F D D 2"
_symmetry_group_IT_number 43
_symmetry_cell_setting 'orthorhombic'
loop_
_space_group_symop_operation_xyz
x,y,z
-x,-y,z
1/4-x,1/4+y,1/4+z
1/4+x,1/4-y,1/4+z
x,1/2+y,1/2+z
-x,1/2-y,1/2+z
1/4-x,3/4+y,3/4+z
1/4+x,3/4-y,3/4+z
1/2+x,y,1/2+z
1/2-x,-y,1/2+z
3/4-x,1/4+y,3/4+z
3/4+x,1/4-y,3/4+z
1/2+x,1/2+y,z
1/2-x,1/2-y,z
3/4-x,3/4+y,1/4+z
3/4+x,3/4-y,1/4+z
loop_
_atom_site_type_symbol
_atom_site_label
_atom_site_fract_x
_atom_site_fract_y
_atom_site_fract_z
Si Si1 0.303423 0.389510 0.547760
Si Si2 0.060901 0.709992 0.352407
Si Si3 0.000000 0.500000 0.446586
O O1 0.378552 0.364555 0.360580
O O2 0.351561 0.464790 0.556453
O O3 0.382736 0.344007 0.707210
O O4 0.141567 0.707554 0.553447
O O5 0.877104 0.714199 0.323354
#
# Coordination Sequence:
#
# PCOD9372858 Si02
#       3
#    16  16   8
#     4  12  24  51  84 119 169 218 285 344 426 501
#     4  12  26  55  79 132 158 241 261 382 390 555
#     4  12  28  52  86 112 184 206 304 316 470 460
#
# _framework density 30.818498000000002
#
# number of rings (size 3 to 8) (size 9 to 14) (size 15 to 20)
#    0.000    0.000    8.000    0.000    0.000    4.800 
#   14.400    0.000    0.000    0.000    0.000    0.000 
#    0.000    0.000    0.000    0.000    0.000    0.000 
#
# Total GULP energy -56025.871501 kJ/mol
# GULP energy per Si atom -5602.587150 kJ/mol
# Density = 3.074835 g / cm^3
# Si number density = 30.818498 Si / 1000 Ang^3
#
#
#
# Elastic Constant Matrix: (Units=GPa)
#
#
# Indices 1 2 3 4 5 6 
#
# 1 280.0540 57.0906 100.1883 0.0000 0.0000 0.0000
# 2 57.0906 218.9100 87.2212 0.0000 0.0000 0.0000
# 3 100.1883 87.2212 282.5248 0.0000 0.0000 0.0000
# 4 0.0000 0.0000 0.0000 75.3503 0.0000 0.0000
# 5 0.0000 0.0000 0.0000 0.0000 86.0736 0.0000
# 6 0.0000 0.0000 0.0000 0.0000 0.0000 73.8174
#
#
#
# Elastic Compliance Matrix: (Units=1/GPa)
#
#
# Indices 1 2 3 4 5 6 
#
# 1 0.004150 -0.000566 -0.001297 0.000000 0.000000 0.000000
# 2 -0.000566 0.005286 -0.001431 0.000000 0.000000 0.000000
# 3 -0.001297 -0.001431 0.004441 0.000000 0.000000 0.000000
# 4 0.000000 0.000000 0.000000 0.013271 0.000000 0.000000
# 5 0.000000 0.000000 0.000000 0.000000 0.011618 0.000000
# 6 0.000000 0.000000 0.000000 0.000000 0.000000 0.013547
#
#
# Mechanical properties :
#
#
# Convention : Reuss Voigt Hill
#
# Bulk Modulus (GPa) = 137.18486 141.16544 139.17515
# Shear Modulus (GPa) = 81.52461 82.84750 82.18605
#
# Velocity S-wave (km/s) = 5.14884 5.19045 5.16969
# Velocity P-wave (km/s) = 8.94192 9.04577 8.99399
#
# Compressibility (1/GPa) = 0.00728943
#
# Stress axis : x y z
#
# Youngs Moduli (GPa) = 240.96073 189.18424 225.15609
#
# Poissons Ratio (x) = 0.10698 0.29205
# Poissons Ratio (y) = 0.13626 0.32227
# Poissons Ratio (z) = 0.31255 0.27078
#
# Static dielectric constant tensor:
#      x y z
#    x 2.586720 0.000000 0.000000 
#    y 0.000000 2.450350 0.000000 
#    z 0.000000 0.000000 2.347690 
# 
# From -- ./inp_files/1649.got.cif
#   From: 2010.05.17/outbox.cif.g08.bks.cpg/sg43_1_cif.got.tgz:1649.got - 2010.06.03 19:21:55.
