data_PCOD9372781
_publ_section_title
;
Structure prediction by ZEFSAII (Michael W. Deem and Ramdas Pophale) SiO2 
 PCOD9372781
Probable space group: F D D 2
;
_chemical_formula_sum "Si O2"
_cell_formula_units_Z 80
_cell_length_a 7.134310
_cell_length_b 34.585831
_cell_length_c 13.680940
_cell_angle_alpha 90.000000
_cell_angle_beta 90.000000
_cell_angle_gamma 90.000000
_cell_volume 3375.717768
_symmetry_space_group_name_H-M "F D D 2"
_symmetry_group_IT_number 43
_symmetry_cell_setting 'orthorhombic'
loop_
_space_group_symop_operation_xyz
x,y,z
-x,-y,z
1/4-x,1/4+y,1/4+z
1/4+x,1/4-y,1/4+z
x,1/2+y,1/2+z
-x,1/2-y,1/2+z
1/4-x,3/4+y,3/4+z
1/4+x,3/4-y,3/4+z
1/2+x,y,1/2+z
1/2-x,-y,1/2+z
3/4-x,1/4+y,3/4+z
3/4+x,1/4-y,3/4+z
1/2+x,1/2+y,z
1/2-x,1/2-y,z
3/4-x,3/4+y,1/4+z
3/4+x,3/4-y,1/4+z
loop_
_atom_site_type_symbol
_atom_site_label
_atom_site_fract_x
_atom_site_fract_y
_atom_site_fract_z
Si Si1 0.494549 0.580910 0.873680
Si Si2 0.987062 0.755910 0.870620
Si Si3 0.250000 0.250000 0.714960
Si Si4 0.952507 0.665105 0.455564
Si Si5 0.155020 0.449129 0.790695
Si Si6 0.250000 0.250000 0.231481
O O1 0.322130 0.576987 0.801562
O O2 0.474916 0.620475 0.931291
O O3 0.685970 0.581690 0.814037
O O4 0.517481 0.541170 0.931389
O O5 0.250000 0.750000 0.851247
O O6 0.750000 0.750000 0.844299
O O7 0.982861 0.802724 0.877941
O O8 0.002981 0.733566 0.974962
O O9 0.200321 0.215252 0.637767
O O10 0.493462 0.243716 0.750682
O O11 0.741099 0.676583 0.474701
#
# Coordination Sequence:
#
# PCOD9372781 Si02
#       6
#    16  16   8  16  16   8
#     4  12  28  46  73 106 151 196 251 312 380 451
#     4  12  23  45  80 108 144 198 253 308 380 451
#     4  12  23  45  84 110 148 206 255 305 384 454
#     4  12  26  49  70 111 153 194 251 317 374 451
#     4  12  25  50  76 110 153 202 254 312 377 459
#     4  12  21  45  72  98 140 192 241 305 374 444
#
# _framework density 23.698663
#
# number of rings (size 3 to 8) (size 9 to 14) (size 15 to 20)
#    0.000    0.000    6.000    4.800    0.000    1.600 
#    3.600    0.000    0.000    0.000    0.000    0.000 
#    0.000    0.000    0.000    0.000    0.000    0.000 
#
# Total GULP energy -111489.288681 kJ/mol
# GULP energy per Si atom -5574.464434 kJ/mol
# Density = 2.364472 g / cm^3
# Si number density = 23.698663 Si / 1000 Ang^3
#
#
#
# Elastic Constant Matrix: (Units=GPa)
#
#
# Indices 1 2 3 4 5 6 
#
# 1 139.0812 56.5077 46.8090 0.0000 0.0000 0.0000
# 2 56.5077 158.3746 54.6899 0.0000 0.0000 0.0000
# 3 46.8090 54.6899 105.3557 0.0000 0.0000 0.0000
# 4 0.0000 0.0000 0.0000 17.0805 0.0000 0.0000
# 5 0.0000 0.0000 0.0000 0.0000 58.2603 0.0000
# 6 0.0000 0.0000 0.0000 0.0000 0.0000 29.1826
#
#
#
# Elastic Compliance Matrix: (Units=1/GPa)
#
#
# Indices 1 2 3 4 5 6 
#
# 1 0.009066 -0.002246 -0.002862 0.000000 0.000000 0.000000
# 2 -0.002246 0.008250 -0.003284 0.000000 0.000000 0.000000
# 3 -0.002862 -0.003284 0.012468 0.000000 0.000000 0.000000
# 4 0.000000 0.000000 0.000000 0.058546 0.000000 0.000000
# 5 0.000000 0.000000 0.000000 0.000000 0.017164 0.000000
# 6 0.000000 0.000000 0.000000 0.000000 0.000000 0.034267
#
#
# Mechanical properties :
#
#
# Convention : Reuss Voigt Hill
#
# Bulk Modulus (GPa) = 76.93188 79.86943 78.40065
# Shear Modulus (GPa) = 31.07914 37.22501 34.15207
#
# Velocity S-wave (km/s) = 3.62530 3.96759 3.80030
# Velocity P-wave (km/s) = 7.07508 7.40029 7.23951
#
# Compressibility (1/GPa) = 0.01299851
#
# Stress axis : x y z
#
# Youngs Moduli (GPa) = 110.30302 121.21446 80.20498
#
# Poissons Ratio (x) = 0.27230 0.22953
# Poissons Ratio (y) = 0.24779 0.26342
# Poissons Ratio (z) = 0.31567 0.39811
#
# Static dielectric constant tensor:
#      x y z
#    x 4.014800 0.000000 0.000000 
#    y 0.000000 1.809240 0.000000 
#    z 0.000000 0.000000 1.920220 
# 
# From -- ./inp_files/23614.got.cif
#   From: 2010.05.17/outbox.cif.g08.bks.cpg/sg43_12_cif.got.tgz:23614.got - 2010.06.03 19:21:55.
