data_PCOD9372430
_publ_section_title
;
Structure prediction by ZEFSAII (Michael W. Deem and Ramdas Pophale) SiO2 
 PCOD9372430
Probable space group: F D D 2
;
_chemical_formula_sum "Si O2"
_cell_formula_units_Z 112
_cell_length_a 14.450972
_cell_length_b 11.895781
_cell_length_c 29.049672
_cell_angle_alpha 90.000000
_cell_angle_beta 90.000000
_cell_angle_gamma 90.000000
_cell_volume 4993.801241
_symmetry_space_group_name_H-M "F D D 2"
_symmetry_group_IT_number 43
_symmetry_cell_setting 'orthorhombic'
loop_
_space_group_symop_operation_xyz
x,y,z
-x,-y,z
1/4-x,1/4+y,1/4+z
1/4+x,1/4-y,1/4+z
x,1/2+y,1/2+z
-x,1/2-y,1/2+z
1/4-x,3/4+y,3/4+z
1/4+x,3/4-y,3/4+z
1/2+x,y,1/2+z
1/2-x,-y,1/2+z
3/4-x,1/4+y,3/4+z
3/4+x,1/4-y,3/4+z
1/2+x,1/2+y,z
1/2-x,1/2-y,z
3/4-x,3/4+y,1/4+z
3/4+x,3/4-y,1/4+z
loop_
_atom_site_type_symbol
_atom_site_label
_atom_site_fract_x
_atom_site_fract_y
_atom_site_fract_z
Si Si1 0.000000 0.500000 0.769290
Si Si2 0.082870 0.647352 0.845144
Si Si3 0.117110 0.339228 0.452062
Si Si4 0.000000 0.000000 0.122607
Si Si5 0.976511 0.370421 0.332959
Si Si6 0.656995 0.723811 0.679817
Si Si7 0.779312 0.441384 0.479567
Si Si8 0.157936 0.957777 0.669578
O O1 0.978902 0.400054 0.804283
O O2 0.908865 0.503687 0.737545
O O3 0.191709 0.668328 0.839685
O O4 0.043038 0.771627 0.851677
O O5 0.082331 0.561293 0.887700
O O6 0.182601 0.318066 0.407405
O O7 0.144868 0.458139 0.475273
O O8 0.008543 0.328058 0.441154
O O9 0.988507 0.349902 0.278500
O O10 0.000000 0.500000 0.341586
O O11 0.892690 0.345271 0.368480
O O12 0.750000 0.750000 0.708805
O O13 0.559904 0.740909 0.703924
O O14 0.656338 0.592566 0.666221
O O15 0.829385 0.339564 0.453234
#
# Coordination Sequence:
#
# PCOD9372430 Si02
#       8
#     8  16  16   8  16  16  16  16
#     4  11  24  42  70 110 146 186 262 322 376 459
#     4  12  23  43  72 107 145 200 250 324 381 461
#     4  11  23  43  73 107 149 194 253 315 380 463
#     4  11  22  40  68 108 136 194 252 312 384 457
#     4  12  25  46  72 107 155 198 254 319 383 468
#     4  12  24  47  76 108 152 201 256 315 395 461
#     4  12  27  49  74 114 155 205 258 319 397 477
#     4  12  26  48  77 110 151 205 251 325 401 465
#
# _framework density 22.427804999999999
#
# number of rings (size 3 to 8) (size 9 to 14) (size 15 to 20)
#    0.000    0.286    6.429    2.571    2.000    1.143 
#    0.000    2.857    0.000    0.000    0.000    0.000 
#    0.000    0.000    0.000    0.000    0.000    0.000 
#
# Total GULP energy -155985.112689 kJ/mol
# GULP energy per Si atom -5570.896882 kJ/mol
# Density = 2.237676 g / cm^3
# Si number density = 22.427805 Si / 1000 Ang^3
#
#
#
# Elastic Constant Matrix: (Units=GPa)
#
#
# Indices 1 2 3 4 5 6 
#
# 1 105.9212 27.9252 35.4854 0.0000 0.0000 0.0000
# 2 27.9252 158.7944 41.4586 0.0000 0.0000 0.0000
# 3 35.4854 41.4586 114.4316 0.0000 0.0000 0.0000
# 4 0.0000 0.0000 0.0000 26.4720 0.0000 0.0000
# 5 0.0000 0.0000 0.0000 0.0000 -7.3925 0.0000
# 6 0.0000 0.0000 0.0000 0.0000 0.0000 37.6375
#
#
#
# Elastic Compliance Matrix: (Units=1/GPa)
#
#
# Indices 1 2 3 4 5 6 
#
# 1 0.010714 -0.001123 -0.002916 0.000000 0.000000 0.000000
# 2 -0.001123 0.007073 -0.002214 0.000000 0.000000 0.000000
# 3 -0.002916 -0.002214 0.010445 0.000000 0.000000 0.000000
# 4 0.000000 0.000000 0.000000 0.037776 0.000000 0.000000
# 5 0.000000 0.000000 0.000000 0.000000 -0.135272 0.000000
# 6 0.000000 0.000000 0.000000 0.000000 0.000000 0.026569
#
#
# Mechanical properties :
#
#
# Convention : Reuss Voigt Hill
#
# Bulk Modulus (GPa) = 63.58705 65.43173 64.50939
# Shear Modulus (GPa) = -200.42430 29.62860 -85.39785
#
# Velocity S-wave (km/s) = -9.46352 3.63859 -6.17733
# Velocity P-wave (km/s) = 9.53926 6.84764 4.69613
#
# Compressibility (1/GPa) = 0.01572647
#
# Stress axis : x y z
#
# Youngs Moduli (GPa) = 93.33774 141.38167 95.73766
#
# Poissons Ratio (x) = 0.15876 0.27913
# Poissons Ratio (y) = 0.10481 0.21200
# Poissons Ratio (z) = 0.27213 0.31307
#
# Static dielectric constant tensor:
#      x y z
#    x 1.909890 0.000000 0.000000 
#    y 0.000000 1.928060 0.000000 
#    z 0.000000 0.000000 1.941680 
# 
# From -- ./inp_files/29127.got.cif
#   From: 2010.05.17/outbox.cif.g08.bks.cpg/sg43_15_cif.got.tgz:29127.got - 2010.06.03 19:21:55.
