data_PCOD9372570
_publ_section_title
;
Structure prediction by ZEFSAII (Michael W. Deem and Ramdas Pophale) SiO2 
 PCOD9372570
Probable space group: F D D 2
;
_chemical_formula_sum "Si O2"
_cell_formula_units_Z 88
_cell_length_a 25.377171
_cell_length_b 11.911481
_cell_length_c 11.376132
_cell_angle_alpha 90.000000
_cell_angle_beta 90.000000
_cell_angle_gamma 90.000000
_cell_volume 3438.773657
_symmetry_space_group_name_H-M "F D D 2"
_symmetry_group_IT_number 43
_symmetry_cell_setting 'orthorhombic'
loop_
_space_group_symop_operation_xyz
x,y,z
-x,-y,z
1/4-x,1/4+y,1/4+z
1/4+x,1/4-y,1/4+z
x,1/2+y,1/2+z
-x,1/2-y,1/2+z
1/4-x,3/4+y,3/4+z
1/4+x,3/4-y,3/4+z
1/2+x,y,1/2+z
1/2-x,-y,1/2+z
3/4-x,1/4+y,3/4+z
3/4+x,1/4-y,3/4+z
1/2+x,1/2+y,z
1/2-x,1/2-y,z
3/4-x,3/4+y,1/4+z
3/4+x,3/4-y,1/4+z
loop_
_atom_site_type_symbol
_atom_site_label
_atom_site_fract_x
_atom_site_fract_y
_atom_site_fract_z
Si Si1 0.515029 0.784630 0.173100
Si Si2 0.868546 0.429345 0.554694
Si Si3 0.181636 0.111214 0.295288
Si Si4 0.250000 0.250000 0.759597
Si Si5 0.599234 0.943918 0.896645
Si Si6 0.325591 0.553592 0.599714
O O1 0.573401 0.763712 0.221792
O O2 0.486787 0.682951 0.099936
O O3 0.513646 0.891756 0.086511
O O4 0.479577 0.824827 0.285366
O O5 0.832135 0.374255 0.656647
O O6 0.908736 0.524895 0.600421
O O7 0.905403 0.349072 0.474863
O O8 0.143419 0.008888 0.327740
O O9 0.199070 0.273396 0.680667
O O10 0.578155 0.831042 0.841602
O O11 0.629454 0.903313 0.012816
#
# Coordination Sequence:
#
# PCOD9372570 Si02
#       6
#    16  16  16   8  16  16
#     4  11  27  46  76 108 145 204 252 306 382 476
#     4  12  26  46  75 106 155 191 243 321 384 442
#     4  11  26  46  68 111 149 185 253 311 375 458
#     4  12  24  44  80 100 138 198 262 292 382 460
#     4  11  23  45  72 102 145 197 245 312 362 461
#     4  11  24  45  72 107 147 191 254 304 373 459
#
# _framework density 25.590519
#
# number of rings (size 3 to 8) (size 9 to 14) (size 15 to 20)
#    0.000    0.727    1.818    6.545    7.636    0.000 
#    0.000    1.818    0.000    0.000    0.000    0.000 
#    0.000    0.000    0.000    0.000    0.000    0.000 
#
# Total GULP energy -123023.401392 kJ/mol
# GULP energy per Si atom -5591.972791 kJ/mol
# Density = 2.553227 g / cm^3
# Si number density = 25.590519 Si / 1000 Ang^3
#
#
#
# Elastic Constant Matrix: (Units=GPa)
#
#
# Indices 1 2 3 4 5 6 
#
# 1 160.1923 10.7924 21.2075 0.0000 0.0000 0.0000
# 2 10.7924 61.7964 -10.2404 0.0000 0.0000 0.0000
# 3 21.2075 -10.2404 78.5741 0.0000 0.0000 0.0000
# 4 0.0000 0.0000 0.0000 38.0894 0.0000 0.0000
# 5 0.0000 0.0000 0.0000 0.0000 30.9731 0.0000
# 6 0.0000 0.0000 0.0000 0.0000 0.0000 36.2370
#
#
#
# Elastic Compliance Matrix: (Units=1/GPa)
#
#
# Indices 1 2 3 4 5 6 
#
# 1 0.006604 -0.001481 -0.001975 0.000000 0.000000 0.000000
# 2 -0.001481 0.016871 0.002598 0.000000 0.000000 0.000000
# 3 -0.001975 0.002598 0.013599 0.000000 0.000000 0.000000
# 4 0.000000 0.000000 0.000000 0.026254 0.000000 0.000000
# 5 0.000000 0.000000 0.000000 0.000000 0.032286 0.000000
# 6 0.000000 0.000000 0.000000 0.000000 0.000000 0.027596
#
#
# Mechanical properties :
#
#
# Convention : Reuss Voigt Hill
#
# Bulk Modulus (GPa) = 28.28162 38.23131 33.25646
# Shear Modulus (GPa) = 36.57342 39.64679 38.11010
#
# Velocity S-wave (km/s) = 3.78455 3.94036 3.86324
# Velocity P-wave (km/s) = 5.49297 5.97277 5.73788
#
# Compressibility (1/GPa) = 0.03535865
#
# Stress axis : x y z
#
# Youngs Moduli (GPa) = 151.42881 59.27210 73.53668
#
# Poissons Ratio (x) = 0.08776 0.14526
# Poissons Ratio (y) = 0.22421 -0.19108
# Poissons Ratio (z) = 0.29913 -0.15402
#
# Static dielectric constant tensor:
#      x y z
#    x 1.949530 0.000000 0.000000 
#    y 0.000000 2.060910 0.000000 
#    z 0.000000 0.000000 2.149120 
# 
# From -- ./inp_files/5758.got.cif
#   From: 2010.05.17/outbox.cif.g08.bks.cpg/sg43_3_cif.got.tgz:5758.got - 2010.06.03 19:21:55.
