data_PCOD9372270
_publ_section_title
;
Structure prediction by ZEFSAII (Michael W. Deem and Ramdas Pophale) SiO2 
 PCOD9372270
Probable space group: F D D 2
;
_chemical_formula_sum "Si O2"
_cell_formula_units_Z 56
_cell_length_a 23.759494
_cell_length_b 19.527754
_cell_length_c 4.775059
_cell_angle_alpha 90.000000
_cell_angle_beta 90.000000
_cell_angle_gamma 90.000000
_cell_volume 2215.481995
_symmetry_space_group_name_H-M "F D D 2"
_symmetry_group_IT_number 43
_symmetry_cell_setting 'orthorhombic'
loop_
_space_group_symop_operation_xyz
x,y,z
-x,-y,z
1/4-x,1/4+y,1/4+z
1/4+x,1/4-y,1/4+z
x,1/2+y,1/2+z
-x,1/2-y,1/2+z
1/4-x,3/4+y,3/4+z
1/4+x,3/4-y,3/4+z
1/2+x,y,1/2+z
1/2-x,-y,1/2+z
3/4-x,1/4+y,3/4+z
3/4+x,1/4-y,3/4+z
1/2+x,1/2+y,z
1/2-x,1/2-y,z
3/4-x,3/4+y,1/4+z
3/4+x,3/4-y,1/4+z
loop_
_atom_site_type_symbol
_atom_site_label
_atom_site_fract_x
_atom_site_fract_y
_atom_site_fract_z
Si Si1 0.686979 0.537956 0.931590
Si Si2 0.480306 0.355771 0.274388
Si Si3 0.500000 0.500000 0.195759
Si Si4 0.890233 0.450067 0.947409
O O1 0.725651 0.593527 0.775297
O O2 0.629193 0.537036 0.758428
O O3 0.718185 0.465949 0.879120
O O4 0.664236 0.546277 0.246412
O O5 0.496119 0.421904 0.083083
O O6 0.420303 0.377123 0.408630
O O7 0.441396 0.500312 0.367386
#
# Coordination Sequence:
#
# PCOD9372270 Si02
#       4
#    16  16   8  16
#     4  12  25  47  75 109 151 193 248 304 383 425
#     4  10  26  46  77 110 152 190 256 307 367 456
#     4   8  24  48  68 116 140 196 246 304 368 446
#     4  10  27  43  76 105 152 194 239 307 370 446
#
# _framework density 25.276668000000001
#
# number of rings (size 3 to 8) (size 9 to 14) (size 15 to 20)
#    1.714    0.000    0.000    1.714    8.000    5.714 
#    0.000    0.000    0.000    0.000    0.000    0.000 
#    0.000    0.000    0.000    0.000    0.000    0.000 
#
# Total GULP energy -78077.337116 kJ/mol
# GULP energy per Si atom -5576.952651 kJ/mol
# Density = 2.521914 g / cm^3
# Si number density = 25.276668 Si / 1000 Ang^3
#
#
#
# Elastic Constant Matrix: (Units=GPa)
#
#
# Indices 1 2 3 4 5 6 
#
# 1 126.6628 29.7005 1.6486 0.0181 -0.0042 -0.0090
# 2 29.7005 146.4917 26.2849 0.0186 -0.0035 -0.0050
# 3 1.6486 26.2849 63.3826 0.0509 -0.0116 -0.0337
# 4 0.0181 0.0186 0.0509 24.8536 -0.0039 -0.0166
# 5 -0.0042 -0.0035 -0.0116 -0.0039 14.3387 0.0048
# 6 -0.0090 -0.0050 -0.0337 -0.0166 0.0048 55.9314
#
#
#
# Elastic Compliance Matrix: (Units=1/GPa)
#
#
# Indices 1 2 3 4 5 6 
#
# 1 0.008305 -0.001777 0.000521 -0.000006 0.000002 0.000001
# 2 -0.001777 0.007755 -0.003170 0.000002 -0.000001 -0.000001
# 3 0.000521 -0.003170 0.017078 -0.000033 0.000013 0.000010
# 4 -0.000006 0.000002 -0.000033 0.040236 0.000011 0.000012
# 5 0.000002 -0.000001 0.000013 0.000011 0.069742 -0.000006
# 6 0.000001 -0.000001 0.000010 0.000012 -0.000006 0.017879
#
#
# Mechanical properties :
#
#
# Convention : Reuss Voigt Hill
#
# Bulk Modulus (GPa) = 41.17560 50.20056 45.68808
# Shear Modulus (GPa) = 28.09892 37.61828 32.85860
#
# Velocity S-wave (km/s) = 3.33777 3.86198 3.60940
# Velocity P-wave (km/s) = 5.58387 6.30794 5.95691
#
# Compressibility (1/GPa) = 0.02428623
#
# Stress axis : x y z
#
# Youngs Moduli (GPa) = 120.41024 128.94170 58.55398
#
# Poissons Ratio (x) = 0.22916 -0.03051
# Poissons Ratio (y) = 0.21400 0.18561
# Poissons Ratio (z) = -0.06274 0.40874
#
# Static dielectric constant tensor:
#      x y z
#    x 1.975210 0.000020 0.000000 
#    y 0.000020 2.040870 0.000000 
#    z 0.000000 0.000000 1.979560 
# 
# From -- ./inp_files/671.got.cif
#   From: 2010.05.17/outbox.cif.g08.bks.cpg/sg43_1_cif.got.tgz:671.got - 2010.06.03 19:21:55.
