data_PCOD9372895
_publ_section_title
;
Structure prediction by ZEFSAII (Michael W. Deem and Ramdas Pophale) SiO2 
 PCOD9372895
Probable space group: F D D 2
;
_chemical_formula_sum "Si O2"
_cell_formula_units_Z 88
_cell_length_a 15.950266
_cell_length_b 28.361413
_cell_length_c 8.032552
_cell_angle_alpha 90.000000
_cell_angle_beta 90.000000
_cell_angle_gamma 90.000000
_cell_volume 3633.702268
_symmetry_space_group_name_H-M "F D D 2"
_symmetry_group_IT_number 43
_symmetry_cell_setting 'orthorhombic'
loop_
_space_group_symop_operation_xyz
x,y,z
-x,-y,z
1/4-x,1/4+y,1/4+z
1/4+x,1/4-y,1/4+z
x,1/2+y,1/2+z
-x,1/2-y,1/2+z
1/4-x,3/4+y,3/4+z
1/4+x,3/4-y,3/4+z
1/2+x,y,1/2+z
1/2-x,-y,1/2+z
3/4-x,1/4+y,3/4+z
3/4+x,1/4-y,3/4+z
1/2+x,1/2+y,z
1/2-x,1/2-y,z
3/4-x,3/4+y,1/4+z
3/4+x,3/4-y,1/4+z
loop_
_atom_site_type_symbol
_atom_site_label
_atom_site_fract_x
_atom_site_fract_y
_atom_site_fract_z
Si Si1 0.652264 0.173643 0.616920
Si Si2 0.929048 0.106440 0.513232
Si Si3 0.658245 0.829207 0.553737
Si Si4 0.519651 0.687593 0.603056
Si Si5 0.743130 0.037939 0.986091
Si Si6 0.000000 0.000000 0.091054
O O1 0.689941 0.172965 0.432351
O O2 0.637278 0.121676 0.700747
O O3 0.558163 0.193271 0.600372
O O4 0.702902 0.210466 0.730628
O O5 0.843364 0.094727 0.422312
O O6 0.005862 0.098384 0.386679
O O7 0.933593 0.159153 0.585753
O O8 0.594450 0.812894 0.697607
O O9 0.686341 0.782381 0.451224
O O10 0.515827 0.732795 0.715308
O O11 0.534553 0.702124 0.413192
#
# Coordination Sequence:
#
# PCOD9372895 Si02
#       6
#    16  16  16  16  16   8
#     4  12  29  49  82 121 159 217 270 338 399 498
#     4  12  29  50  81 114 162 207 272 327 408 478
#     4  12  27  53  82 121 160 216 262 346 401 495
#     4  12  28  49  78 116 155 214 257 338 390 489
#     4  12  26  50  81 113 162 201 270 323 412 469
#     4  12  30  52  84 120 174 210 276 336 422 484
#
# _framework density 24.217724
#
# number of rings (size 3 to 8) (size 9 to 14) (size 15 to 20)
#    0.000    0.000    1.818    6.545   10.182    3.636 
#    0.000    0.000    0.000    0.000    0.000    0.000 
#    0.000    0.000    0.000    0.000    0.000    0.000 
#
# Total GULP energy -123178.698023 kJ/mol
# GULP energy per Si atom -5599.031728 kJ/mol
# Density = 2.416260 g / cm^3
# Si number density = 24.217724 Si / 1000 Ang^3
#
#
#
# Elastic Constant Matrix: (Units=GPa)
#
#
# Indices 1 2 3 4 5 6 
#
# 1 79.0161 52.3972 39.0676 0.0000 -0.0001 0.0000
# 2 52.3972 155.9441 52.5073 0.0000 0.0000 0.0000
# 3 39.0676 52.5073 132.0518 0.0000 -0.0002 0.0000
# 4 0.0000 0.0000 0.0000 24.2516 0.0000 0.0000
# 5 -0.0001 0.0000 -0.0002 0.0000 24.4694 0.0000
# 6 0.0000 0.0000 0.0000 0.0000 0.0000 53.0231
#
#
#
# Elastic Compliance Matrix: (Units=1/GPa)
#
#
# Indices 1 2 3 4 5 6 
#
# 1 0.017422 -0.004755 -0.003264 0.000000 0.000000 0.000000
# 2 -0.004755 0.008702 -0.002053 0.000000 0.000000 0.000000
# 3 -0.003264 -0.002053 0.009355 0.000000 0.000000 0.000000
# 4 0.000000 0.000000 0.000000 0.041234 0.000000 0.000000
# 5 0.000000 0.000000 0.000000 0.000000 0.040867 0.000000
# 6 0.000000 0.000000 0.000000 0.000000 0.000000 0.018860
#
#
# Mechanical properties :
#
#
# Convention : Reuss Voigt Hill
#
# Bulk Modulus (GPa) = 65.21072 72.77292 68.99182
# Shear Modulus (GPa) = 30.92224 35.21814 33.07019
#
# Velocity S-wave (km/s) = 3.57717 3.81757 3.69933
# Velocity P-wave (km/s) = 6.63678 7.03893 6.84081
#
# Compressibility (1/GPa) = 0.01533490
#
# Stress axis : x y z
#
# Youngs Moduli (GPa) = 57.39711 114.92183 106.89738
#
# Poissons Ratio (x) = 0.54646 0.34888
# Poissons Ratio (y) = 0.27293 0.21948
# Poissons Ratio (z) = 0.18733 0.23596
#
# Static dielectric constant tensor:
#      x y z
#    x 1.926210 0.000000 0.000000 
#    y 0.000000 2.003910 0.000000 
#    z 0.000000 0.000000 1.979560 
# 
# From -- ./inp_files/2905.got.cif
#   From: 2010.05.17/outbox.cif.g08.bks.cpg/sg43_2_cif.got.tgz:2905.got - 2010.06.03 19:21:55.
