data_PCOD9372342
_publ_section_title
;
Structure prediction by ZEFSAII (Michael W. Deem and Ramdas Pophale) SiO2 
 PCOD9372342
Probable space group: F D D 2
;
_chemical_formula_sum "Si O2"
_cell_formula_units_Z 104
_cell_length_a 25.721288
_cell_length_b 8.920918
_cell_length_c 20.161933
_cell_angle_alpha 90.000000
_cell_angle_beta 90.000000
_cell_angle_gamma 90.000000
_cell_volume 4626.306764
_symmetry_space_group_name_H-M "F D D 2"
_symmetry_group_IT_number 43
_symmetry_cell_setting 'orthorhombic'
loop_
_space_group_symop_operation_xyz
x,y,z
-x,-y,z
1/4-x,1/4+y,1/4+z
1/4+x,1/4-y,1/4+z
x,1/2+y,1/2+z
-x,1/2-y,1/2+z
1/4-x,3/4+y,3/4+z
1/4+x,3/4-y,3/4+z
1/2+x,y,1/2+z
1/2-x,-y,1/2+z
3/4-x,1/4+y,3/4+z
3/4+x,1/4-y,3/4+z
1/2+x,1/2+y,z
1/2-x,1/2-y,z
3/4-x,3/4+y,1/4+z
3/4+x,3/4-y,1/4+z
loop_
_atom_site_type_symbol
_atom_site_label
_atom_site_fract_x
_atom_site_fract_y
_atom_site_fract_z
Si Si1 0.197863 0.187821 0.603640
Si Si2 0.379841 0.432739 0.250855
Si Si3 0.895487 0.531148 0.984409
Si Si4 0.715928 0.890558 0.031033
Si Si5 0.000000 0.500000 0.052136
Si Si6 0.333897 0.221280 0.362465
Si Si7 0.740787 0.515996 0.393648
O O1 0.250000 0.250000 0.635064
O O2 0.184769 0.287008 0.538521
O O3 0.151526 0.205406 0.655373
O O4 0.209342 0.018011 0.585516
O O5 0.359115 0.605065 0.254297
O O6 0.354942 0.297638 0.294692
O O7 0.379425 0.407242 0.171449
O O8 0.844756 0.624705 0.007379
O O9 0.951722 0.574113 0.013470
O O10 0.750000 0.750000 0.053603
O O11 0.747534 0.956169 0.967879
O O12 0.023980 0.625223 0.099826
O O13 0.303768 0.360083 0.396610
O O14 0.289755 0.094900 0.358507
#
# Coordination Sequence:
#
# PCOD9372342 Si02
#       7
#    16  16  16  16   8  16  16
#     4  11  21  39  69  98 137 189 245 296 370 455
#     4  11  20  38  68 101 136 184 242 298 360 448
#     4  11  23  40  70 101 139 193 243 298 378 454
#     4  11  24  42  70 101 142 188 248 309 368 441
#     4  12  24  44  68  98 140 186 238 300 374 442
#     4  11  22  39  67 101 134 184 241 300 363 432
#     4  11  22  40  67  97 133 182 240 302 356 446
#
# _framework density 22.480135000000001
#
# number of rings (size 3 to 8) (size 9 to 14) (size 15 to 20)
#    0.000    0.923    7.692    0.923    2.154    0.000 
#    5.538    0.000    6.769    0.000    0.000    0.000 
#    0.000    0.000    0.000    0.000    0.000    0.000 
#
# Total GULP energy -144880.894894 kJ/mol
# GULP energy per Si atom -5572.342111 kJ/mol
# Density = 2.242897 g / cm^3
# Si number density = 22.480135 Si / 1000 Ang^3
#
#
#
# Elastic Constant Matrix: (Units=GPa)
#
#
# Indices 1 2 3 4 5 6 
#
# 1 105.6387 40.6520 37.9844 0.0000 0.0000 0.0000
# 2 40.6520 56.1359 40.7395 0.0000 0.0000 0.0000
# 3 37.9844 40.7395 103.8445 0.0000 0.0000 0.0000
# 4 0.0000 0.0000 0.0000 18.1379 0.0000 0.0000
# 5 0.0000 0.0000 0.0000 0.0000 -12.5495 0.0000
# 6 0.0000 0.0000 0.0000 0.0000 0.0000 38.9386
#
#
#
# Elastic Compliance Matrix: (Units=1/GPa)
#
#
# Indices 1 2 3 4 5 6 
#
# 1 0.013292 -0.008524 -0.001518 0.000000 0.000000 0.000000
# 2 -0.008524 0.030371 -0.008797 0.000000 0.000000 0.000000
# 3 -0.001518 -0.008797 0.013636 0.000000 0.000000 0.000000
# 4 0.000000 0.000000 0.000000 0.055133 0.000000 0.000000
# 5 0.000000 0.000000 0.000000 0.000000 -0.079684 0.000000
# 6 0.000000 0.000000 0.000000 0.000000 0.000000 0.025681
#
#
# Mechanical properties :
#
#
# Convention : Reuss Voigt Hill
#
# Bulk Modulus (GPa) = 50.96496 56.04121 53.50308
# Shear Modulus (GPa) = 48.70964 18.65493 33.68228
#
# Velocity S-wave (km/s) = 4.65992 2.88382 3.87500
# Velocity P-wave (km/s) = 7.18843 6.00599 6.62365
#
# Compressibility (1/GPa) = 0.01962133
#
# Stress axis : x y z
#
# Youngs Moduli (GPa) = 75.23102 32.92588 73.33454
#
# Poissons Ratio (x) = 0.28067 0.11131
# Poissons Ratio (y) = 0.64130 0.64512
# Poissons Ratio (z) = 0.11419 0.28965
#
# Static dielectric constant tensor:
#      x y z
#    x 1.915400 0.000000 0.000000 
#    y 0.000000 1.809320 0.000000 
#    z 0.000000 0.000000 1.890800 
# 
# From -- ./inp_files/18852.got.cif
#   From: 2010.05.17/outbox.cif.g08.bks.cpg/sg43_10_cif.got.tgz:18852.got - 2010.06.03 19:21:55.
