data_PCOD9372721
_publ_section_title
;
Structure prediction by ZEFSAII (Michael W. Deem and Ramdas Pophale) SiO2 
 PCOD9372721
Probable space group: F D D 2
;
_chemical_formula_sum "Si O2"
_cell_formula_units_Z 88
_cell_length_a 12.456129
_cell_length_b 24.858562
_cell_length_c 11.082619
_cell_angle_alpha 90.000000
_cell_angle_beta 90.000000
_cell_angle_gamma 90.000000
_cell_volume 3431.638273
_symmetry_space_group_name_H-M "F D D 2"
_symmetry_group_IT_number 43
_symmetry_cell_setting 'orthorhombic'
loop_
_space_group_symop_operation_xyz
x,y,z
-x,-y,z
1/4-x,1/4+y,1/4+z
1/4+x,1/4-y,1/4+z
x,1/2+y,1/2+z
-x,1/2-y,1/2+z
1/4-x,3/4+y,3/4+z
1/4+x,3/4-y,3/4+z
1/2+x,y,1/2+z
1/2-x,-y,1/2+z
3/4-x,1/4+y,3/4+z
3/4+x,1/4-y,3/4+z
1/2+x,1/2+y,z
1/2-x,1/2-y,z
3/4-x,3/4+y,1/4+z
3/4+x,3/4-y,1/4+z
loop_
_atom_site_type_symbol
_atom_site_label
_atom_site_fract_x
_atom_site_fract_y
_atom_site_fract_z
Si Si1 0.096534 0.209096 0.125000
Si Si2 0.250000 0.250000 0.927158
Si Si3 0.516221 0.897691 0.564277
Si Si4 0.679633 0.433014 0.262583
Si Si5 0.300612 0.464722 0.099403
Si Si6 0.835029 0.838685 0.768941
O O1 0.016518 0.164107 0.074819
O O2 0.189728 0.174476 0.192407
O O3 0.049292 0.248121 0.227493
O O4 0.152925 0.241134 0.018058
O O5 0.250675 0.198727 0.839143
O O6 0.613045 0.904022 0.657584
O O7 0.411794 0.932241 0.600334
O O8 0.788561 0.398571 0.280676
O O9 0.606423 0.428515 0.381553
O O10 0.695228 0.492437 0.208853
O O11 0.199413 0.425060 0.080360
#
# Coordination Sequence:
#
# PCOD9372721 Si02
#       6
#    16   8  16  16  16  16
#     4  11  25  50  77 115 156 203 271 318 397 486
#     4  12  30  48  76 114 160 214 260 328 404 474
#     4  11  25  47  87 111 157 212 260 332 395 480
#     4  11  27  56  75 121 160 206 276 325 418 483
#     4  11  27  50  81 117 157 217 258 342 397 485
#     4  12  32  46  82 112 165 207 265 340 400 489
#
# _framework density 25.643727999999999
#
# number of rings (size 3 to 8) (size 9 to 14) (size 15 to 20)
#    0.000    0.727    1.818    3.818   15.273    0.000 
#    0.000    0.000    0.000    0.000    0.000    0.000 
#    0.000    0.000    0.000    0.000    0.000    0.000 
#
# Total GULP energy -123336.332248 kJ/mol
# GULP energy per Si atom -5606.196920 kJ/mol
# Density = 2.558536 g / cm^3
# Si number density = 25.643728 Si / 1000 Ang^3
#
#
#
# Elastic Constant Matrix: (Units=GPa)
#
#
# Indices 1 2 3 4 5 6 
#
# 1 118.7076 84.2953 23.6878 0.0000 0.0000 0.0000
# 2 84.2953 199.7994 63.1986 0.0000 0.0000 0.0000
# 3 23.6878 63.1986 139.1491 0.0000 0.0000 0.0000
# 4 0.0000 0.0000 0.0000 35.7214 0.0000 0.0000
# 5 0.0000 0.0000 0.0000 0.0000 21.8994 0.0000
# 6 0.0000 0.0000 0.0000 0.0000 0.0000 61.1755
#
#
#
# Elastic Compliance Matrix: (Units=1/GPa)
#
#
# Indices 1 2 3 4 5 6 
#
# 1 0.012038 -0.005174 0.000301 0.000000 0.000000 0.000000
# 2 -0.005174 0.008068 -0.002784 0.000000 0.000000 0.000000
# 3 0.000301 -0.002784 0.008400 0.000000 0.000000 0.000000
# 4 0.000000 0.000000 0.000000 0.027994 0.000000 0.000000
# 5 0.000000 0.000000 0.000000 0.000000 0.045663 0.000000
# 6 0.000000 0.000000 0.000000 0.000000 0.000000 0.016346
#
#
# Mechanical properties :
#
#
# Convention : Reuss Voigt Hill
#
# Bulk Modulus (GPa) = 75.80301 88.89104 82.34702
# Shear Modulus (GPa) = 36.17371 42.85758 39.51564
#
# Velocity S-wave (km/s) = 3.75990 4.09255 3.92975
# Velocity P-wave (km/s) = 6.96228 7.55454 7.26445
#
# Compressibility (1/GPa) = 0.01319209
#
# Stress axis : x y z
#
# Youngs Moduli (GPa) = 83.06916 123.93964 119.05221
#
# Poissons Ratio (x) = 0.64126 -0.03579
# Poissons Ratio (y) = 0.42980 0.33141
# Poissons Ratio (z) = -0.02497 0.34502
#
# Static dielectric constant tensor:
#      x y z
#    x 2.029280 0.000000 0.000000 
#    y 0.000000 2.031820 0.000000 
#    z 0.000000 0.000000 2.076120 
# 
# From -- ./inp_files/6156.got.cif
#   From: 2010.05.17/outbox.cif.g08.bks.cpg/sg43_4_cif.got.tgz:6156.got - 2010.06.03 19:21:55.
