data_PCOD9372272
_publ_section_title
;
Structure prediction by ZEFSAII (Michael W. Deem and Ramdas Pophale) SiO2 
 PCOD9372272
Probable space group: F D D 2
;
_chemical_formula_sum "Si O2"
_cell_formula_units_Z 88
_cell_length_a 16.004326
_cell_length_b 28.956781
_cell_length_c 7.488924
_cell_angle_alpha 90.000000
_cell_angle_beta 90.000000
_cell_angle_gamma 90.000000
_cell_volume 3470.620230
_symmetry_space_group_name_H-M "F D D 2"
_symmetry_group_IT_number 43
_symmetry_cell_setting 'orthorhombic'
loop_
_space_group_symop_operation_xyz
x,y,z
-x,-y,z
1/4-x,1/4+y,1/4+z
1/4+x,1/4-y,1/4+z
x,1/2+y,1/2+z
-x,1/2-y,1/2+z
1/4-x,3/4+y,3/4+z
1/4+x,3/4-y,3/4+z
1/2+x,y,1/2+z
1/2-x,-y,1/2+z
3/4-x,1/4+y,3/4+z
3/4+x,1/4-y,3/4+z
1/2+x,1/2+y,z
1/2-x,1/2-y,z
3/4-x,3/4+y,1/4+z
3/4+x,3/4-y,1/4+z
loop_
_atom_site_type_symbol
_atom_site_label
_atom_site_fract_x
_atom_site_fract_y
_atom_site_fract_z
Si Si1 0.863146 0.152377 0.235850
Si Si2 0.866458 0.320318 0.517893
Si Si3 0.989150 0.866008 0.769386
Si Si4 0.036620 0.189806 0.356815
Si Si5 0.858272 0.461099 0.627862
Si Si6 0.250000 0.250000 0.121140
O O1 0.782462 0.152894 0.364968
O O2 0.849788 0.097452 0.194670
O O3 0.943094 0.169173 0.350647
O O4 0.863770 0.182727 0.055126
O O5 0.904037 0.350385 0.360530
O O6 0.802302 0.352211 0.630140
O O7 0.942958 0.309491 0.646327
O O8 0.817698 0.273592 0.492629
O O9 0.042644 0.819012 0.759173
O O10 0.061303 0.240621 0.424049
O O11 0.939190 0.472059 0.507003
#
# Coordination Sequence:
#
# PCOD9372272 Si02
#       6
#    16  16  16  16  16   8
#     4  12  27  48  78 118 160 221 278 344 422 507
#     4  11  22  46  71 109 149 212 262 334 416 484
#     4  12  25  45  79 109 161 209 274 339 416 496
#     4  11  25  47  79 109 165 215 269 352 415 498
#     4  11  26  48  80 121 168 216 281 348 430 508
#     4  10  26  46  84 112 164 218 266 344 424 498
#
# _framework density 25.355699000000001
#
# number of rings (size 3 to 8) (size 9 to 14) (size 15 to 20)
#    0.000    0.727    3.636    2.182    7.636    1.455 
#    0.000    0.000    0.000    0.000    0.000    0.000 
#    0.000    0.000    0.000    0.000    0.000    0.000 
#
# Total GULP energy -122578.570928 kJ/mol
# GULP energy per Si atom -5571.753224 kJ/mol
# Density = 2.529799 g / cm^3
# Si number density = 25.355699 Si / 1000 Ang^3
#
#
#
# Elastic Constant Matrix: (Units=GPa)
#
#
# Indices 1 2 3 4 5 6 
#
# 1 161.4838 68.7246 33.8346 0.0000 -0.0001 0.0000
# 2 68.7246 146.1875 43.7797 0.0000 0.0000 0.0000
# 3 33.8346 43.7797 86.4932 0.0000 -0.0002 0.0000
# 4 0.0000 0.0000 0.0000 41.4600 0.0000 0.0000
# 5 -0.0001 0.0000 -0.0002 0.0000 29.1543 0.0000
# 6 0.0000 0.0000 0.0000 0.0000 0.0000 68.5690
#
#
#
# Elastic Compliance Matrix: (Units=1/GPa)
#
#
# Indices 1 2 3 4 5 6 
#
# 1 0.007888 -0.003281 -0.001425 0.000000 0.000000 0.000000
# 2 -0.003281 0.009428 -0.003488 0.000000 0.000000 0.000000
# 3 -0.001425 -0.003488 0.013885 0.000000 0.000000 0.000000
# 4 0.000000 0.000000 0.000000 0.024120 0.000000 0.000000
# 5 0.000000 0.000000 0.000000 0.000000 0.034300 0.000000
# 6 0.000000 0.000000 0.000000 0.000000 0.000000 0.014584
#
#
# Mechanical properties :
#
#
# Convention : Reuss Voigt Hill
#
# Bulk Modulus (GPa) = 67.51624 76.31580 71.91602
# Shear Modulus (GPa) = 39.83126 44.35836 42.09481
#
# Velocity S-wave (km/s) = 3.96776 4.18717 4.07894
# Velocity P-wave (km/s) = 6.90480 7.31710 7.11394
#
# Compressibility (1/GPa) = 0.01481125
#
# Stress axis : x y z
#
# Youngs Moduli (GPa) = 126.78189 106.06854 72.02246
#
# Poissons Ratio (x) = 0.34806 0.10260
# Poissons Ratio (y) = 0.41603 0.25124
# Poissons Ratio (z) = 0.18060 0.37001
#
# Static dielectric constant tensor:
#      x y z
#    x 2.071980 0.000000 0.000000 
#    y 0.000000 2.098440 0.000000 
#    z 0.000000 0.000000 2.130060 
# 
# From -- ./inp_files/2908.got.cif
#   From: 2010.05.17/outbox.cif.g08.bks.cpg/sg43_2_cif.got.tgz:2908.got - 2010.06.03 19:21:55.
