data_PCOD9372889
_publ_section_title
;
Structure prediction by ZEFSAII (Michael W. Deem and Ramdas Pophale) SiO2 
 PCOD9372889
Probable space group: F D D 2
;
_chemical_formula_sum "Si O2"
_cell_formula_units_Z 104
_cell_length_a 26.688269
_cell_length_b 17.258676
_cell_length_c 9.106301
_cell_angle_alpha 90.000000
_cell_angle_beta 90.000000
_cell_angle_gamma 90.000000
_cell_volume 4194.400375
_symmetry_space_group_name_H-M "F D D 2"
_symmetry_group_IT_number 43
_symmetry_cell_setting 'orthorhombic'
loop_
_space_group_symop_operation_xyz
x,y,z
-x,-y,z
1/4-x,1/4+y,1/4+z
1/4+x,1/4-y,1/4+z
x,1/2+y,1/2+z
-x,1/2-y,1/2+z
1/4-x,3/4+y,3/4+z
1/4+x,3/4-y,3/4+z
1/2+x,y,1/2+z
1/2-x,-y,1/2+z
3/4-x,1/4+y,3/4+z
3/4+x,1/4-y,3/4+z
1/2+x,1/2+y,z
1/2-x,1/2-y,z
3/4-x,3/4+y,1/4+z
3/4+x,3/4-y,1/4+z
loop_
_atom_site_type_symbol
_atom_site_label
_atom_site_fract_x
_atom_site_fract_y
_atom_site_fract_z
Si Si1 0.176333 0.801934 0.070690
Si Si2 0.772309 0.087973 0.260656
Si Si3 0.333423 0.856305 0.701092
Si Si4 0.785803 0.476131 0.508759
Si Si5 0.750000 0.250000 0.825920
Si Si6 0.900539 0.765074 0.002087
Si Si7 0.120393 0.160201 0.699538
O O1 0.221289 0.836529 0.166499
O O2 0.159710 0.724940 0.153650
O O3 0.128425 0.861879 0.057524
O O4 0.202507 0.782842 0.917200
O O5 0.740900 0.087725 0.408559
O O6 0.827304 0.076580 0.329494
O O7 0.758083 0.024385 0.135592
O O8 0.327616 0.931388 0.598110
O O9 0.279104 0.825060 0.754810
O O10 0.352208 0.787622 0.597307
O O11 0.807011 0.528261 0.376313
O O12 0.901660 0.818381 0.859262
O O13 0.894038 0.675472 0.954130
#
# Coordination Sequence:
#
# PCOD9372889 Si02
#       7
#    16  16  16  16   8  16  16
#     4  12  27  51  78 114 165 213 273 341 421 500
#     4  12  27  46  76 110 156 203 269 327 407 492
#     4  12  27  51  78 114 165 213 273 341 421 500
#     4  12  27  46  76 110 156 203 269 327 407 492
#     4  12  32  44  86 120 168 220 280 348 432 486
#     4  12  26  47  78 111 156 205 261 336 419 479
#     4  12  26  47  78 111 156 205 261 336 419 479
#
# _framework density 24.794962999999999
#
# number of rings (size 3 to 8) (size 9 to 14) (size 15 to 20)
#    0.000    0.000    6.154    2.769    6.462    0.000 
#    0.000    0.000    0.000    0.000    0.000    0.000 
#    0.000    0.000    0.000    0.000    0.000    0.000 
#
# Total GULP energy -145093.572388 kJ/mol
# GULP energy per Si atom -5580.522015 kJ/mol
# Density = 2.473853 g / cm^3
# Si number density = 24.794963 Si / 1000 Ang^3
#
#
#
# Elastic Constant Matrix: (Units=GPa)
#
#
# Indices 1 2 3 4 5 6 
#
# 1 51.7276 -7.5875 25.2165 0.0000 0.0000 0.0000
# 2 -7.5875 74.8703 7.8070 0.0000 0.0000 0.0000
# 3 25.2165 7.8070 129.1263 0.0000 0.0000 0.0000
# 4 0.0000 0.0000 0.0000 42.4559 0.0000 0.0000
# 5 0.0000 0.0000 0.0000 0.0000 51.7967 0.0000
# 6 0.0000 0.0000 0.0000 0.0000 0.0000 35.3460
#
#
#
# Elastic Compliance Matrix: (Units=1/GPa)
#
#
# Indices 1 2 3 4 5 6 
#
# 1 0.021888 0.002681 -0.004436 0.000000 0.000000 0.000000
# 2 0.002681 0.013770 -0.001356 0.000000 0.000000 0.000000
# 3 -0.004436 -0.001356 0.008693 0.000000 0.000000 0.000000
# 4 0.000000 0.000000 0.000000 0.023554 0.000000 0.000000
# 5 0.000000 0.000000 0.000000 0.000000 0.019306 0.000000
# 6 0.000000 0.000000 0.000000 0.000000 0.000000 0.028292
#
#
# Mechanical properties :
#
#
# Convention : Reuss Voigt Hill
#
# Bulk Modulus (GPa) = 26.22829 34.06624 30.14727
# Shear Modulus (GPa) = 37.19284 41.27226 39.23255
#
# Velocity S-wave (km/s) = 3.87721 4.08431 3.98210
# Velocity P-wave (km/s) = 5.53576 6.00092 5.77303
#
# Compressibility (1/GPa) = 0.03812677
#
# Stress axis : x y z
#
# Youngs Moduli (GPa) = 45.68714 72.62423 115.03878
#
# Poissons Ratio (x) = -0.19469 0.51037
# Poissons Ratio (y) = -0.12248 0.15600
# Poissons Ratio (z) = 0.20269 0.09848
#
# Static dielectric constant tensor:
#      x y z
#    x 2.081090 0.000000 0.000000 
#    y 0.000000 1.970760 0.000000 
#    z 0.000000 0.000000 1.950540 
# 
# From -- ./inp_files/4232.got.cif
#   From: 2010.05.17/outbox.cif.g08.bks.cpg/sg43_3_cif.got.tgz:4232.got - 2010.06.03 19:21:55.
