data_PCOD9372559
_publ_section_title
;
Structure prediction by ZEFSAII (Michael W. Deem and Ramdas Pophale) SiO2 
 PCOD9372559
Probable space group: F D D 2
;
_chemical_formula_sum "Si O2"
_cell_formula_units_Z 88
_cell_length_a 8.174124
_cell_length_b 21.139115
_cell_length_c 19.615797
_cell_angle_alpha 90.000000
_cell_angle_beta 90.000000
_cell_angle_gamma 90.000000
_cell_volume 3389.487069
_symmetry_space_group_name_H-M "F D D 2"
_symmetry_group_IT_number 43
_symmetry_cell_setting 'orthorhombic'
loop_
_space_group_symop_operation_xyz
x,y,z
-x,-y,z
1/4-x,1/4+y,1/4+z
1/4+x,1/4-y,1/4+z
x,1/2+y,1/2+z
-x,1/2-y,1/2+z
1/4-x,3/4+y,3/4+z
1/4+x,3/4-y,3/4+z
1/2+x,y,1/2+z
1/2-x,-y,1/2+z
3/4-x,1/4+y,3/4+z
3/4+x,1/4-y,3/4+z
1/2+x,1/2+y,z
1/2-x,1/2-y,z
3/4-x,3/4+y,1/4+z
3/4+x,3/4-y,1/4+z
loop_
_atom_site_type_symbol
_atom_site_label
_atom_site_fract_x
_atom_site_fract_y
_atom_site_fract_z
Si Si1 0.000000 0.500000 0.395950
Si Si2 0.750000 0.750000 0.607484
Si Si3 0.988314 0.187960 0.333154
Si Si4 0.750000 0.750000 0.918292
Si Si5 0.790527 0.134586 0.210833
Si Si6 0.203517 0.939641 0.785132
Si Si7 0.198470 0.068399 0.008329
O O1 0.922513 0.551846 0.347158
O O2 0.858820 0.467711 0.440203
O O3 0.757454 0.692737 0.660062
O O4 0.602652 0.767247 0.557933
O O5 0.812647 0.194956 0.370237
O O6 0.934078 0.146585 0.266412
O O7 0.086064 0.165908 0.401291
O O8 0.030537 0.259103 0.309093
O O9 0.613987 0.721269 0.967123
O O10 0.611143 0.137529 0.248878
O O11 0.204998 0.864132 0.775712
#
# Coordination Sequence:
#
# PCOD9372559 Si02
#       7
#     8   8  16   8  16  16  16
#     4  11  26  48  70 116 155 202 274 334 413 492
#     4  12  25  54  74 114 165 216 272 338 428 483
#     4  12  26  46  77 116 161 219 276 335 423 500
#     4  11  23  44  74 118 148 214 274 332 413 505
#     4  12  25  47  80 109 161 219 271 343 414 503
#     4  11  27  45  81 111 157 213 270 342 407 507
#     4  12  25  47  74 113 158 212 270 341 411 492
#
# _framework density 25.962631999999999
#
# number of rings (size 3 to 8) (size 9 to 14) (size 15 to 20)
#    0.000    0.364    7.273    0.000   10.182    0.000 
#    0.000    0.909    0.000    0.000    0.000    0.000 
#    0.000    0.000    0.000    0.000    0.000    0.000 
#
# Total GULP energy -122805.418655 kJ/mol
# GULP energy per Si atom -5582.064484 kJ/mol
# Density = 2.590354 g / cm^3
# Si number density = 25.962632 Si / 1000 Ang^3
#
#
#
# Elastic Constant Matrix: (Units=GPa)
#
#
# Indices 1 2 3 4 5 6 
#
# 1 77.1960 3.2575 48.4758 0.0000 0.0000 0.0000
# 2 3.2575 92.1493 60.4456 0.0000 0.0000 0.0000
# 3 48.4758 60.4456 184.0006 0.0000 0.0000 0.0000
# 4 0.0000 0.0000 0.0000 31.0937 0.0000 0.0000
# 5 0.0000 0.0000 0.0000 0.0000 -125.4532 0.0000
# 6 0.0000 0.0000 0.0000 0.0000 0.0000 24.4006
#
#
#
# Elastic Compliance Matrix: (Units=1/GPa)
#
#
# Indices 1 2 3 4 5 6 
#
# 1 0.016076 0.002817 -0.005161 0.000000 0.000000 0.000000
# 2 0.002817 0.014326 -0.005448 0.000000 0.000000 0.000000
# 3 -0.005161 -0.005448 0.008584 0.000000 0.000000 0.000000
# 4 0.000000 0.000000 0.000000 0.032161 0.000000 0.000000
# 5 0.000000 0.000000 0.000000 0.000000 -0.007971 0.000000
# 6 0.000000 0.000000 0.000000 0.000000 0.000000 0.040983
#
#
# Mechanical properties :
#
#
# Convention : Reuss Voigt Hill
#
# Bulk Modulus (GPa) = 42.73152 64.18931 53.46041
# Shear Modulus (GPa) = 39.20228 2.08602 20.64415
#
# Velocity S-wave (km/s) = 3.89002 0.89734 2.82290
# Velocity P-wave (km/s) = 6.05566 5.08439 5.59115
#
# Compressibility (1/GPa) = 0.02340193
#
# Stress axis : x y z
#
# Youngs Moduli (GPa) = 62.20528 69.80186 116.49323
#
# Poissons Ratio (x) = -0.19662 0.60117
# Poissons Ratio (y) = -0.17522 0.63470
# Poissons Ratio (z) = 0.32102 0.38031
#
# Static dielectric constant tensor:
#      x y z
#    x 2.231900 0.000000 0.000000 
#    y 0.000000 1.936530 0.000000 
#    z 0.000000 0.000000 2.048130 
# 
# From -- ./inp_files/16406.got.cif
#   From: 2010.05.17/outbox.cif.g08.bks.cpg/sg43_9_cif.got.tgz:16406.got - 2010.06.03 19:21:55.
