data_PCOD9372841
_publ_section_title
;
Structure prediction by ZEFSAII (Michael W. Deem and Ramdas Pophale) SiO2 
 PCOD9372841
Probable space group: F D D 2
;
_chemical_formula_sum "Si O2"
_cell_formula_units_Z 120
_cell_length_a 25.279357
_cell_length_b 24.617182
_cell_length_c 8.476067
_cell_angle_alpha 90.000000
_cell_angle_beta 90.000000
_cell_angle_gamma 90.000000
_cell_volume 5274.711861
_symmetry_space_group_name_H-M "F D D 2"
_symmetry_group_IT_number 43
_symmetry_cell_setting 'orthorhombic'
loop_
_space_group_symop_operation_xyz
x,y,z
-x,-y,z
1/4-x,1/4+y,1/4+z
1/4+x,1/4-y,1/4+z
x,1/2+y,1/2+z
-x,1/2-y,1/2+z
1/4-x,3/4+y,3/4+z
1/4+x,3/4-y,3/4+z
1/2+x,y,1/2+z
1/2-x,-y,1/2+z
3/4-x,1/4+y,3/4+z
3/4+x,1/4-y,3/4+z
1/2+x,1/2+y,z
1/2-x,1/2-y,z
3/4-x,3/4+y,1/4+z
3/4+x,3/4-y,1/4+z
loop_
_atom_site_type_symbol
_atom_site_label
_atom_site_fract_x
_atom_site_fract_y
_atom_site_fract_z
Si Si1 0.250000 0.750000 0.375000
Si Si2 0.300301 0.436824 0.546224
Si Si3 0.334700 0.829181 0.906846
Si Si4 0.177866 0.941546 0.972668
Si Si5 0.970946 0.605764 0.327165
Si Si6 0.667572 0.397921 0.621349
Si Si7 0.144039 0.742304 0.182103
Si Si8 0.905113 0.191774 0.634161
O O1 0.264975 0.802509 0.477991
O O2 0.196801 0.760829 0.273116
O O3 0.311027 0.373328 0.525442
O O4 0.240041 0.447789 0.500458
O O5 0.344974 0.466035 0.440236
O O6 0.311308 0.452643 0.726530
O O7 0.395479 0.840761 0.855624
O O8 0.300404 0.835785 0.747422
O O9 0.337359 0.774311 0.007715
O O10 0.166233 0.914863 0.804321
O O11 0.152104 0.001317 0.970163
O O12 0.929110 0.643513 0.237802
O O13 0.020609 0.646496 0.334457
O O14 0.632342 0.439538 0.519666
O O15 0.649752 0.336021 0.587882
#
# Coordination Sequence:
#
# PCOD9372841 Si02
#       8
#     8  16  16  16  16  16  16  16
#     4  12  26  52  78 108 154 200 248 308 392 448
#     4  12  27  48  76 109 149 202 249 307 382 455
#     4  12  28  48  72 115 151 189 259 314 380 441
#     4  12  28  47  74 109 152 196 250 315 373 456
#     4  12  27  47  76 107 149 202 246 312 375 455
#     4  12  24  48  73 105 148 196 253 300 380 452
#     4  12  27  48  76 114 147 198 251 312 381 455
#     4  12  26  48  74 106 149 197 251 302 378 454
#
# _framework density 22.750059
#
# number of rings (size 3 to 8) (size 9 to 14) (size 15 to 20)
#    0.000    0.000    6.667    1.600    7.467    1.600 
#    0.000    0.000    0.000    0.000    0.000    0.000 
#    0.000    0.000    0.000    0.000    0.000    0.000 
#
# Total GULP energy -167768.690432 kJ/mol
# GULP energy per Si atom -5592.289681 kJ/mol
# Density = 2.269828 g / cm^3
# Si number density = 22.750059 Si / 1000 Ang^3
#
#
#
# Elastic Constant Matrix: (Units=GPa)
#
#
# Indices 1 2 3 4 5 6 
#
# 1 111.7019 6.6611 4.8293 -0.0002 0.0004 -0.0002
# 2 6.6611 39.7310 -3.7846 -0.0015 0.0015 0.0005
# 3 4.8293 -3.7846 67.5839 -0.0084 0.0029 0.0031
# 4 -0.0002 -0.0015 -0.0084 31.6242 0.0043 0.0032
# 5 0.0004 0.0015 0.0029 0.0043 23.0622 -0.0015
# 6 -0.0002 0.0005 0.0031 0.0032 -0.0015 31.4952
#
#
#
# Elastic Compliance Matrix: (Units=1/GPa)
#
#
# Indices 1 2 3 4 5 6 
#
# 1 0.009079 -0.001592 -0.000738 0.000000 0.000000 0.000000
# 2 -0.001592 0.025584 0.001546 0.000002 -0.000002 -0.000001
# 3 -0.000738 0.001546 0.014936 0.000004 -0.000002 -0.000002
# 4 0.000000 0.000002 0.000004 0.031621 -0.000006 -0.000003
# 5 0.000000 -0.000002 -0.000002 -0.000006 0.043361 0.000002
# 6 0.000000 -0.000001 -0.000002 -0.000003 0.000002 0.031751
#
#
# Mechanical properties :
#
#
# Convention : Reuss Voigt Hill
#
# Bulk Modulus (GPa) = 20.82005 26.04760 23.43382
# Shear Modulus (GPa) = 28.75047 31.32370 30.03709
#
# Velocity S-wave (km/s) = 3.55879 3.71464 3.63755
# Velocity P-wave (km/s) = 5.10472 5.46556 5.28822
#
# Compressibility (1/GPa) = 0.04803063
#
# Stress axis : x y z
#
# Youngs Moduli (GPa) = 110.14106 39.08755 66.95347
#
# Poissons Ratio (x) = 0.06225 0.04941
# Poissons Ratio (y) = 0.17540 -0.10354
# Poissons Ratio (z) = 0.08128 -0.06045
#
# Static dielectric constant tensor:
#      x y z
#    x 1.882380 0.000000 0.000000 
#    y 0.000000 1.842390 0.000000 
#    z 0.000000 0.000000 1.847770 
# 
# From -- ./inp_files/3913.got.cif
#   From: 2010.05.17/outbox.cif.g08.bks.cpg/sg43_2_cif.got.tgz:3913.got - 2010.06.03 19:21:55.
