data_PCOD9372220
_publ_section_title
;
Structure prediction by ZEFSAII (Michael W. Deem and Ramdas Pophale) SiO2 
 PCOD9372220
Probable space group: F D D 2
;
_chemical_formula_sum "Si O2"
_cell_formula_units_Z 96
_cell_length_a 24.813239
_cell_length_b 8.438987
_cell_length_c 20.187549
_cell_angle_alpha 90.000000
_cell_angle_beta 90.000000
_cell_angle_gamma 90.000000
_cell_volume 4227.244525
_symmetry_space_group_name_H-M "F D D 2"
_symmetry_group_IT_number 43
_symmetry_cell_setting 'orthorhombic'
loop_
_space_group_symop_operation_xyz
x,y,z
-x,-y,z
1/4-x,1/4+y,1/4+z
1/4+x,1/4-y,1/4+z
x,1/2+y,1/2+z
-x,1/2-y,1/2+z
1/4-x,3/4+y,3/4+z
1/4+x,3/4-y,3/4+z
1/2+x,y,1/2+z
1/2-x,-y,1/2+z
3/4-x,1/4+y,3/4+z
3/4+x,1/4-y,3/4+z
1/2+x,1/2+y,z
1/2-x,1/2-y,z
3/4-x,3/4+y,1/4+z
3/4+x,3/4-y,1/4+z
loop_
_atom_site_type_symbol
_atom_site_label
_atom_site_fract_x
_atom_site_fract_y
_atom_site_fract_z
Si Si1 0.500000 0.000000 0.238940
Si Si2 0.366181 0.240021 0.845244
Si Si3 0.186934 0.220057 0.339015
Si Si4 0.000000 0.000000 0.526713
Si Si5 0.030648 0.326306 0.465864
Si Si6 0.331864 0.502220 0.451382
Si Si7 0.091614 0.929729 0.844256
O O1 0.524993 0.152047 0.202409
O O2 0.450196 0.052674 0.284729
O O3 0.303775 0.257517 0.822160
O O4 0.369051 0.111142 0.903570
O O5 0.397534 0.221727 0.775315
O O6 0.393112 0.399798 0.873971
O O7 0.250000 0.250000 0.340705
O O8 0.180592 0.094478 0.279855
O O9 0.148518 0.362813 0.320837
O O10 0.173056 0.157769 0.410979
O O11 0.999351 0.838210 0.482586
O O12 0.063558 0.319040 0.398321
O O13 0.000000 0.500000 0.460196
#
# Coordination Sequence:
#
# PCOD9372220 Si02
#       7
#     8  16  16   8  16  16  16
#     4  10  25  46  74 102 140 197 248 302 378 461
#     4  11  25  43  73 100 144 190 244 307 373 458
#     4  11  25  42  66 103 143 190 242 312 374 457
#     4  12  23  44  72 106 140 203 250 306 368 465
#     4  11  24  43  71 102 145 188 253 307 381 450
#     4  11  25  45  69 105 140 189 248 304 384 457
#     4  11  25  45  70 104 145 194 244 316 379 456
#
# _framework density 22.709827000000001
#
# number of rings (size 3 to 8) (size 9 to 14) (size 15 to 20)
#    0.000    1.000    2.500    3.500    9.333    0.000 
#    0.000    0.000    0.000    0.000    0.000    0.000 
#    0.000    0.000    0.000    0.000    0.000    0.000 
#
# Total GULP energy -133943.802947 kJ/mol
# GULP energy per Si atom -5580.991789 kJ/mol
# Density = 2.265814 g / cm^3
# Si number density = 22.709827 Si / 1000 Ang^3
#
#
#
# Elastic Constant Matrix: (Units=GPa)
#
#
# Indices 1 2 3 4 5 6 
#
# 1 86.1034 27.8559 3.0954 0.0000 0.0000 0.0000
# 2 27.8559 73.9138 12.0373 0.0000 0.0000 0.0000
# 3 3.0954 12.0373 52.2805 0.0000 0.0000 0.0000
# 4 0.0000 0.0000 0.0000 24.9279 0.0000 0.0000
# 5 0.0000 0.0000 0.0000 0.0000 57.8016 0.0000
# 6 0.0000 0.0000 0.0000 0.0000 0.0000 36.9940
#
#
#
# Elastic Compliance Matrix: (Units=1/GPa)
#
#
# Indices 1 2 3 4 5 6 
#
# 1 0.013234 -0.005049 0.000379 0.000000 0.000000 0.000000
# 2 -0.005049 0.015983 -0.003381 0.000000 0.000000 0.000000
# 3 0.000379 -0.003381 0.019884 0.000000 0.000000 0.000000
# 4 0.000000 0.000000 0.000000 0.040116 0.000000 0.000000
# 5 0.000000 0.000000 0.000000 0.000000 0.017301 0.000000
# 6 0.000000 0.000000 0.000000 0.000000 0.000000 0.027031
#
#
# Mechanical properties :
#
#
# Convention : Reuss Voigt Hill
#
# Bulk Modulus (GPa) = 30.30496 33.14164 31.72330
# Shear Modulus (GPa) = 31.12369 35.23198 33.17784
#
# Velocity S-wave (km/s) = 3.70604 3.94305 3.82638
# Velocity P-wave (km/s) = 5.62906 5.94604 5.78972
#
# Compressibility (1/GPa) = 0.03299790
#
# Stress axis : x y z
#
# Youngs Moduli (GPa) = 75.56408 62.56746 50.29268
#
# Poissons Ratio (x) = 0.31591 -0.01906
# Poissons Ratio (y) = 0.38153 0.17004
# Poissons Ratio (z) = -0.02864 0.21154
#
# Static dielectric constant tensor:
#      x y z
#    x 1.756330 0.000000 0.000000 
#    y 0.000000 1.939140 0.000000 
#    z 0.000000 0.000000 1.888400 
# 
# From -- ./inp_files/16504.got.cif
#   From: 2010.05.17/outbox.cif.g08.bks.cpg/sg43_9_cif.got.tgz:16504.got - 2010.06.03 19:21:55.
