data_PCOD9372094
_publ_section_title
;
Structure prediction by ZEFSAII (Michael W. Deem and Ramdas Pophale) SiO2 
 PCOD9372094
Probable space group: F D D 2
;
_chemical_formula_sum "Si O2"
_cell_formula_units_Z 88
_cell_length_a 25.458306
_cell_length_b 17.427199
_cell_length_c 8.355895
_cell_angle_alpha 90.000000
_cell_angle_beta 90.000000
_cell_angle_gamma 90.000000
_cell_volume 3707.234573
_symmetry_space_group_name_H-M "F D D 2"
_symmetry_group_IT_number 43
_symmetry_cell_setting 'orthorhombic'
loop_
_space_group_symop_operation_xyz
x,y,z
-x,-y,z
1/4-x,1/4+y,1/4+z
1/4+x,1/4-y,1/4+z
x,1/2+y,1/2+z
-x,1/2-y,1/2+z
1/4-x,3/4+y,3/4+z
1/4+x,3/4-y,3/4+z
1/2+x,y,1/2+z
1/2-x,-y,1/2+z
3/4-x,1/4+y,3/4+z
3/4+x,1/4-y,3/4+z
1/2+x,1/2+y,z
1/2-x,1/2-y,z
3/4-x,3/4+y,1/4+z
3/4+x,3/4-y,1/4+z
loop_
_atom_site_type_symbol
_atom_site_label
_atom_site_fract_x
_atom_site_fract_y
_atom_site_fract_z
Si Si1 0.750000 0.750000 0.794860
Si Si2 0.888041 0.619091 0.521811
Si Si3 0.927167 0.841645 0.990141
Si Si4 0.522460 0.860407 0.268049
Si Si5 0.389576 0.687249 0.537863
Si Si6 0.353333 0.782424 0.093043
O O1 0.700053 0.741912 0.680433
O O2 0.753500 0.677102 0.912102
O O3 0.832170 0.603246 0.430868
O O4 0.931808 0.611073 0.385585
O O5 0.899756 0.559161 0.659760
O O6 0.888950 0.706104 0.588758
O O7 0.904718 0.920987 0.918678
O O8 0.980129 0.825863 0.891535
O O9 0.889593 0.768457 0.951638
O O10 0.554662 0.812567 0.133751
O O11 0.382320 0.613393 0.426497
#
# Coordination Sequence:
#
# PCOD9372094 Si02
#       6
#     8  16  16  16  16  16
#     4  10  26  46  74 104 144 198 246 298 362 456
#     4  11  25  43  72 106 139 182 243 302 367 431
#     4  11  24  44  73  98 145 187 234 304 359 437
#     4  10  25  44  72 102 148 191 245 291 376 435
#     4  10  24  45  67 104 138 191 238 291 365 436
#     4  11  25  46  67 105 139 182 240 303 361 426
#
# _framework density 23.737372000000001
#
# number of rings (size 3 to 8) (size 9 to 14) (size 15 to 20)
#    0.000    1.455    0.000    3.273   15.273    2.909 
#    6.545    0.000    0.000    0.000    0.000    0.000 
#    0.000    0.000    0.000    0.000    0.000    0.000 
#
# Total GULP energy -122771.972056 kJ/mol
# GULP energy per Si atom -5580.544184 kJ/mol
# Density = 2.368334 g / cm^3
# Si number density = 23.737372 Si / 1000 Ang^3
#
#
#
# Elastic Constant Matrix: (Units=GPa)
#
#
# Indices 1 2 3 4 5 6 
#
# 1 64.5766 21.7952 38.3568 0.0000 0.0000 0.0000
# 2 21.7952 127.2641 44.1355 0.0000 0.0000 0.0000
# 3 38.3568 44.1355 143.3021 0.0000 0.0000 0.0000
# 4 0.0000 0.0000 0.0000 46.4464 0.0000 0.0000
# 5 0.0000 0.0000 0.0000 0.0000 23.9066 0.0000
# 6 0.0000 0.0000 0.0000 0.0000 0.0000 26.0662
#
#
#
# Elastic Compliance Matrix: (Units=1/GPa)
#
#
# Indices 1 2 3 4 5 6 
#
# 1 0.018715 -0.001643 -0.004503 0.000000 0.000000 0.000000
# 2 -0.001643 0.008942 -0.002314 0.000000 0.000000 0.000000
# 3 -0.004503 -0.002314 0.008896 0.000000 0.000000 0.000000
# 4 0.000000 0.000000 0.000000 0.021530 0.000000 0.000000
# 5 0.000000 0.000000 0.000000 0.000000 0.041830 0.000000
# 6 0.000000 0.000000 0.000000 0.000000 0.000000 0.038364
#
#
# Mechanical properties :
#
#
# Convention : Reuss Voigt Hill
#
# Bulk Modulus (GPa) = 50.93822 60.41310 55.67566
# Shear Modulus (GPa) = 30.91352 34.67419 32.79385
#
# Velocity S-wave (km/s) = 3.61267 3.82611 3.72092
# Velocity P-wave (km/s) = 6.23759 6.71005 6.47813
#
# Compressibility (1/GPa) = 0.01963163
#
# Stress axis : x y z
#
# Youngs Moduli (GPa) = 53.43339 111.83630 112.40637
#
# Poissons Ratio (x) = 0.18379 0.50618
# Poissons Ratio (y) = 0.08781 0.26011
# Poissons Ratio (z) = 0.24062 0.25879
#
# Static dielectric constant tensor:
#      x y z
#    x 1.938840 0.000000 0.000000 
#    y 0.000000 1.924790 0.000000 
#    z 0.000000 0.000000 1.981280 
# 
# From -- ./inp_files/4690.got.cif
#   From: 2010.05.17/outbox.cif.g08.bks.cpg/sg43_3_cif.got.tgz:4690.got - 2010.06.03 19:21:55.
