data_PCOD9372230
_publ_section_title
;
Structure prediction by ZEFSAII (Michael W. Deem and Ramdas Pophale) SiO2 
 PCOD9372230
Probable space group: F D D 2
;
_chemical_formula_sum "Si O2"
_cell_formula_units_Z 56
_cell_length_a 8.544113
_cell_length_b 17.522599
_cell_length_c 16.630610
_cell_angle_alpha 90.000000
_cell_angle_beta 90.000000
_cell_angle_gamma 90.000000
_cell_volume 2489.852872
_symmetry_space_group_name_H-M "F D D 2"
_symmetry_group_IT_number 43
_symmetry_cell_setting 'orthorhombic'
loop_
_space_group_symop_operation_xyz
x,y,z
-x,-y,z
1/4-x,1/4+y,1/4+z
1/4+x,1/4-y,1/4+z
x,1/2+y,1/2+z
-x,1/2-y,1/2+z
1/4-x,3/4+y,3/4+z
1/4+x,3/4-y,3/4+z
1/2+x,y,1/2+z
1/2-x,-y,1/2+z
3/4-x,1/4+y,3/4+z
3/4+x,1/4-y,3/4+z
1/2+x,1/2+y,z
1/2-x,1/2-y,z
3/4-x,3/4+y,1/4+z
3/4+x,3/4-y,1/4+z
loop_
_atom_site_type_symbol
_atom_site_label
_atom_site_fract_x
_atom_site_fract_y
_atom_site_fract_z
Si Si1 0.750000 0.750000 0.616040
Si Si2 0.716674 0.838752 0.109249
Si Si3 0.582909 0.276808 0.956065
Si Si4 0.907035 0.392155 0.182295
O O1 0.611239 0.771270 0.552425
O O2 0.788402 0.822072 0.670928
O O3 0.750000 0.750000 0.124163
O O4 0.810009 0.889450 0.172149
O O5 0.539133 0.870917 0.117703
O O6 0.750243 0.855971 0.016230
O O7 0.750000 0.250000 0.921886
O O8 0.443082 0.220084 0.929355
#
# Coordination Sequence:
#
# PCOD9372230 Si02
#       4
#     8  16  16  16
#     4  10  26  48  74 106 142 194 242 298 366 438
#     4  12  27  46  74 109 147 189 247 299 368 430
#     4  10  25  48  72 102 144 191 244 292 364 436
#     4  12  26  46  76 106 150 189 245 304 369 435
#
# _framework density 22.491289999999999
#
# number of rings (size 3 to 8) (size 9 to 14) (size 15 to 20)
#    0.857    0.000    2.857    2.571    8.000    3.429 
#    0.000    0.000    0.000    0.000    0.000    0.000 
#    0.000    0.000    0.000    0.000    0.000    0.000 
#
# Total GULP energy -78141.683366 kJ/mol
# GULP energy per Si atom -5581.548812 kJ/mol
# Density = 2.244010 g / cm^3
# Si number density = 22.491290 Si / 1000 Ang^3
#
#
#
# Elastic Constant Matrix: (Units=GPa)
#
#
# Indices 1 2 3 4 5 6 
#
# 1 75.6276 27.4552 13.8679 0.0000 0.0000 0.0000
# 2 27.4552 194.8270 80.7783 0.0000 0.0000 0.0000
# 3 13.8679 80.7783 81.6040 0.0000 0.0000 0.0000
# 4 0.0000 0.0000 0.0000 34.9818 0.0000 0.0000
# 5 0.0000 0.0000 0.0000 0.0000 -5.0222 0.0000
# 6 0.0000 0.0000 0.0000 0.0000 0.0000 39.8259
#
#
#
# Elastic Compliance Matrix: (Units=1/GPa)
#
#
# Indices 1 2 3 4 5 6 
#
# 1 0.013961 -0.001668 -0.000721 0.000000 0.000000 0.000000
# 2 -0.001668 0.008905 -0.008532 0.000000 0.000000 0.000000
# 3 -0.000721 -0.008532 0.020822 0.000000 0.000000 0.000000
# 4 0.000000 0.000000 0.000000 0.028586 0.000000 0.000000
# 5 0.000000 0.000000 0.000000 0.000000 -0.199115 0.000000
# 6 0.000000 0.000000 0.000000 0.000000 0.000000 0.025109
#
#
# Mechanical properties :
#
#
# Convention : Reuss Voigt Hill
#
# Bulk Modulus (GPa) = 45.77502 66.25127 56.01314
# Shear Modulus (GPa) = -68.86267 29.28757 -19.78755
#
# Velocity S-wave (km/s) = -5.53931 3.61248 -2.96934
# Velocity P-wave (km/s) = 4.52939 6.84984 3.63352
#
# Compressibility (1/GPa) = 0.02184597
#
# Stress axis : x y z
#
# Youngs Moduli (GPa) = 71.63029 112.29417 48.02606
#
# Poissons Ratio (x) = 0.18735 0.03462
# Poissons Ratio (y) = 0.11951 0.40974
# Poissons Ratio (z) = 0.05164 0.95804
#
# Static dielectric constant tensor:
#      x y z
#    x 1.982220 0.000000 0.000000 
#    y 0.000000 1.777350 0.000000 
#    z 0.000000 0.000000 1.754290 
# 
# From -- ./inp_files/16208.got.cif
#   From: 2010.05.17/outbox.cif.g08.bks.cpg/sg43_9_cif.got.tgz:16208.got - 2010.06.03 19:21:55.
