data_PCOD9372707
_publ_section_title
;
Structure prediction by ZEFSAII (Michael W. Deem and Ramdas Pophale) SiO2 
 PCOD9372707
Probable space group: F D D 2
;
_chemical_formula_sum "Si O2"
_cell_formula_units_Z 96
_cell_length_a 19.399452
_cell_length_b 24.410426
_cell_length_c 9.043834
_cell_angle_alpha 90.000000
_cell_angle_beta 90.000000
_cell_angle_gamma 90.000000
_cell_volume 4282.697529
_symmetry_space_group_name_H-M "F D D 2"
_symmetry_group_IT_number 43
_symmetry_cell_setting 'orthorhombic'
loop_
_space_group_symop_operation_xyz
x,y,z
-x,-y,z
1/4-x,1/4+y,1/4+z
1/4+x,1/4-y,1/4+z
x,1/2+y,1/2+z
-x,1/2-y,1/2+z
1/4-x,3/4+y,3/4+z
1/4+x,3/4-y,3/4+z
1/2+x,y,1/2+z
1/2-x,-y,1/2+z
3/4-x,1/4+y,3/4+z
3/4+x,1/4-y,3/4+z
1/2+x,1/2+y,z
1/2-x,1/2-y,z
3/4-x,3/4+y,1/4+z
3/4+x,3/4-y,1/4+z
loop_
_atom_site_type_symbol
_atom_site_label
_atom_site_fract_x
_atom_site_fract_y
_atom_site_fract_z
Si Si1 0.447809 0.139774 0.015840
Si Si2 0.146359 0.273668 0.095656
Si Si3 0.674399 0.479926 0.086326
Si Si4 0.283448 0.843021 0.585147
Si Si5 0.611731 0.130489 0.992935
Si Si6 0.217791 0.561079 0.832453
O O1 0.416672 0.201159 0.003955
O O2 0.443272 0.123048 0.186070
O O3 0.528598 0.129859 0.985567
O O4 0.397679 0.108917 0.901139
O O5 0.122202 0.276811 0.264101
O O6 0.210452 0.312327 0.062730
O O7 0.165438 0.209793 0.086226
O O8 0.623862 0.432739 0.141826
O O9 0.707940 0.508918 0.227472
O O10 0.726184 0.454852 0.960553
O O11 0.271792 0.886760 0.719358
O O12 0.648703 0.078327 0.921027
#
# Coordination Sequence:
#
# PCOD9372707 Si02
#       6
#    16  16  16  16  16  16
#     4  12  25  50  79 111 153 204 260 325 405 482
#     4  11  25  46  76 110 146 201 262 312 404 472
#     4  12  27  47  76 111 151 210 266 326 400 485
#     4  11  26  48  77 110 158 199 255 333 392 484
#     4  12  27  50  73 112 157 199 263 327 399 479
#     4  12  28  47  76 110 154 202 263 328 399 482
#
# _framework density 22.415778
#
# number of rings (size 3 to 8) (size 9 to 14) (size 15 to 20)
#    0.000    0.333    6.667    1.000    4.667    1.333 
#    3.000    0.000    0.000    0.000    0.000    0.000 
#    0.000    0.000    0.000    0.000    0.000    0.000 
#
# Total GULP energy -133641.827767 kJ/mol
# GULP energy per Si atom -5568.409490 kJ/mol
# Density = 2.236476 g / cm^3
# Si number density = 22.415778 Si / 1000 Ang^3
#
#
#
# Elastic Constant Matrix: (Units=GPa)
#
#
# Indices 1 2 3 4 5 6 
#
# 1 142.8460 50.0263 46.3480 0.0000 0.0000 0.0000
# 2 50.0263 102.2307 52.2846 0.0000 0.0000 0.0000
# 3 46.3480 52.2846 142.6946 -0.0001 0.0001 0.0000
# 4 0.0000 0.0000 -0.0001 44.0003 0.0000 0.0000
# 5 0.0000 0.0000 0.0001 0.0000 46.9735 0.0000
# 6 0.0000 0.0000 0.0000 0.0000 0.0000 19.0260
#
#
#
# Elastic Compliance Matrix: (Units=1/GPa)
#
#
# Indices 1 2 3 4 5 6 
#
# 1 0.008722 -0.003469 -0.001562 0.000000 0.000000 0.000000
# 2 -0.003469 0.013418 -0.003789 0.000000 0.000000 0.000000
# 3 -0.001562 -0.003789 0.008904 0.000000 0.000000 0.000000
# 4 0.000000 0.000000 0.000000 0.022727 0.000000 0.000000
# 5 0.000000 0.000000 0.000000 0.000000 0.021289 0.000000
# 6 0.000000 0.000000 0.000000 0.000000 0.000000 0.052560
#
#
# Mechanical properties :
#
#
# Convention : Reuss Voigt Hill
#
# Bulk Modulus (GPa) = 74.61432 76.12101 75.36767
# Shear Modulus (GPa) = 33.39386 37.94078 35.66732
#
# Velocity S-wave (km/s) = 3.86391 4.11858 3.99328
# Velocity P-wave (km/s) = 7.29830 7.52657 7.41332
#
# Compressibility (1/GPa) = 0.01340225
#
# Stress axis : x y z
#
# Youngs Moduli (GPa) = 114.64795 74.52872 112.31225
#
# Poissons Ratio (x) = 0.25858 0.17541
# Poissons Ratio (y) = 0.39777 0.42560
# Poissons Ratio (z) = 0.17906 0.28242
#
# Static dielectric constant tensor:
#      x y z
#    x 1.887850 0.000000 0.000000 
#    y 0.000000 1.850160 0.000000 
#    z 0.000000 0.000000 1.899240 
# 
# From -- ./inp_files/3305.got.cif
#   From: 2010.05.17/outbox.cif.g08.bks.cpg/sg43_2_cif.got.tgz:3305.got - 2010.06.03 19:21:55.
