data_PCOD9372431
_publ_section_title
;
Structure prediction by ZEFSAII (Michael W. Deem and Ramdas Pophale) SiO2 
 PCOD9372431
Probable space group: F D D 2
;
_chemical_formula_sum "Si O2"
_cell_formula_units_Z 96
_cell_length_a 16.791674
_cell_length_b 19.846009
_cell_length_c 14.060024
_cell_angle_alpha 90.000000
_cell_angle_beta 90.000000
_cell_angle_gamma 90.000000
_cell_volume 4685.470847
_symmetry_space_group_name_H-M "F D D 2"
_symmetry_group_IT_number 43
_symmetry_cell_setting 'orthorhombic'
loop_
_space_group_symop_operation_xyz
x,y,z
-x,-y,z
1/4-x,1/4+y,1/4+z
1/4+x,1/4-y,1/4+z
x,1/2+y,1/2+z
-x,1/2-y,1/2+z
1/4-x,3/4+y,3/4+z
1/4+x,3/4-y,3/4+z
1/2+x,y,1/2+z
1/2-x,-y,1/2+z
3/4-x,1/4+y,3/4+z
3/4+x,1/4-y,3/4+z
1/2+x,1/2+y,z
1/2-x,1/2-y,z
3/4-x,3/4+y,1/4+z
3/4+x,3/4-y,1/4+z
loop_
_atom_site_type_symbol
_atom_site_label
_atom_site_fract_x
_atom_site_fract_y
_atom_site_fract_z
Si Si1 0.187180 0.072989 0.478800
Si Si2 0.240362 0.327361 0.638227
Si Si3 0.023030 0.232857 0.051416
Si Si4 0.272361 0.559843 0.600297
Si Si5 0.547260 0.438573 0.773213
Si Si6 0.557783 0.884581 0.083673
O O1 0.097385 0.087530 0.438519
O O2 0.228467 0.126007 0.551526
O O3 0.237121 0.063460 0.382516
O O4 0.196272 0.001913 0.535883
O O5 0.250000 0.250000 0.607873
O O6 0.298497 0.339524 0.727304
O O7 0.113688 0.213935 0.031449
O O8 0.022046 0.310012 0.084153
O O9 0.987020 0.221390 0.947047
O O10 0.208931 0.612559 0.560390
O O11 0.349382 0.609104 0.610768
O O12 0.500000 0.500000 0.820557
O O13 0.516262 0.429161 0.664690
#
# Coordination Sequence:
#
# PCOD9372431 Si02
#       6
#    16  16  16  16  16  16
#     4  12  28  48  71 104 149 193 240 296 369 439
#     4  12  28  46  75 106 141 186 245 302 364 435
#     4  11  25  43  65 101 143 180 231 287 360 429
#     4  11  23  42  70  98 134 180 234 292 348 426
#     4  11  23  39  68 100 135 175 233 291 353 413
#     4  11  22  40  69 101 130 170 235 303 347 411
#
# _framework density 20.488869000000001
#
# number of rings (size 3 to 8) (size 9 to 14) (size 15 to 20)
#    0.000    0.667    6.667    0.500    9.333    0.000 
#    0.000    0.833    0.000    0.000    0.000    0.000 
#    0.000    0.000    0.000    0.000    0.000    0.000 
#
# Total GULP energy -133738.028918 kJ/mol
# GULP energy per Si atom -5572.417872 kJ/mol
# Density = 2.044224 g / cm^3
# Si number density = 20.488869 Si / 1000 Ang^3
#
#
#
# Elastic Constant Matrix: (Units=GPa)
#
#
# Indices 1 2 3 4 5 6 
#
# 1 16.4629 38.0733 29.9274 0.0000 0.0000 0.0000
# 2 38.0733 136.1943 45.5872 0.0000 0.0000 0.0000
# 3 29.9274 45.5872 121.9694 0.0000 0.0000 0.0000
# 4 0.0000 0.0000 0.0000 32.9799 0.0000 0.0000
# 5 0.0000 0.0000 0.0000 0.0000 15.0781 0.0000
# 6 0.0000 0.0000 0.0000 0.0000 0.0000 22.2448
#
#
#
# Elastic Compliance Matrix: (Units=1/GPa)
#
#
# Indices 1 2 3 4 5 6 
#
# 1 0.327608 -0.073925 -0.052754 0.000000 0.000000 0.000000
# 2 -0.073925 0.025074 0.008767 0.000000 0.000000 0.000000
# 3 -0.052754 0.008767 0.017866 0.000000 0.000000 0.000000
# 4 0.000000 0.000000 0.000000 0.030322 0.000000 0.000000
# 5 0.000000 0.000000 0.000000 0.000000 0.066321 0.000000
# 6 0.000000 0.000000 0.000000 0.000000 0.000000 0.044954
#
#
# Mechanical properties :
#
#
# Convention : Reuss Voigt Hill
#
# Bulk Modulus (GPa) = 7.42262 55.75581 31.58921
# Shear Modulus (GPa) = 6.30616 24.79648 15.55132
#
# Velocity S-wave (km/s) = 1.75628 3.48263 2.75801
# Velocity P-wave (km/s) = 2.78268 6.59116 5.05899
#
# Compressibility (1/GPa) = 0.13472330
#
# Stress axis : x y z
#
# Youngs Moduli (GPa) = 3.05243 39.88243 55.97191
#
# Poissons Ratio (x) = 2.94831 2.95275
# Poissons Ratio (y) = 0.22565 -0.49072
# Poissons Ratio (z) = 0.16103 -0.34966
#
# Static dielectric constant tensor:
#      x y z
#    x 1.767270 0.000000 0.000000 
#    y 0.000000 1.761330 0.000000 
#    z 0.000000 0.000000 1.808520 
# 
# From -- ./inp_files/7095.got.cif
#   From: 2010.05.17/outbox.cif.g08.bks.cpg/sg43_4_cif.got.tgz:7095.got - 2010.06.03 19:21:55.
