data_PCOD9372886
_publ_section_title
;
Structure prediction by ZEFSAII (Michael W. Deem and Ramdas Pophale) SiO2 
 PCOD9372886
Probable space group: F D D 2
;
_chemical_formula_sum "Si O2"
_cell_formula_units_Z 72
_cell_length_a 13.423098
_cell_length_b 16.860789
_cell_length_c 14.930354
_cell_angle_alpha 90.000000
_cell_angle_beta 90.000000
_cell_angle_gamma 90.000000
_cell_volume 3379.097784
_symmetry_space_group_name_H-M "F D D 2"
_symmetry_group_IT_number 43
_symmetry_cell_setting 'orthorhombic'
loop_
_space_group_symop_operation_xyz
x,y,z
-x,-y,z
1/4-x,1/4+y,1/4+z
1/4+x,1/4-y,1/4+z
x,1/2+y,1/2+z
-x,1/2-y,1/2+z
1/4-x,3/4+y,3/4+z
1/4+x,3/4-y,3/4+z
1/2+x,y,1/2+z
1/2-x,-y,1/2+z
3/4-x,1/4+y,3/4+z
3/4+x,1/4-y,3/4+z
1/2+x,1/2+y,z
1/2-x,1/2-y,z
3/4-x,3/4+y,1/4+z
3/4+x,3/4-y,1/4+z
loop_
_atom_site_type_symbol
_atom_site_label
_atom_site_fract_x
_atom_site_fract_y
_atom_site_fract_z
Si Si1 0.750000 0.250000 0.394570
Si Si2 0.787567 0.881006 0.030278
Si Si3 0.561937 0.080523 0.843395
Si Si4 0.323169 0.464550 0.524241
Si Si5 0.256210 0.844653 0.735592
O O1 0.736439 0.324664 0.458338
O O2 0.844254 0.260262 0.331314
O O3 0.753751 0.859025 0.129551
O O4 0.760505 0.970552 0.002441
O O5 0.906008 0.868915 0.026776
O O6 0.478517 0.148421 0.835586
O O7 0.647434 0.109810 0.774518
O O8 0.500000 0.000000 0.823404
O O9 0.619958 0.070496 0.937760
O O10 0.250000 0.750000 0.754809
#
# Coordination Sequence:
#
# PCOD9372886 Si02
#       5
#     8  16  16  16  16
#     4  12  26  46  74 100 146 194 254 310 376 466
#     4  12  26  47  75 107 148 197 255 314 384 463
#     4  12  28  48  76 113 157 200 256 317 390 467
#     4  12  27  49  73 110 150 201 254 316 392 459
#     4  12  26  48  77 112 147 202 255 321 387 463
#
# _framework density 21.307462000000001
#
# number of rings (size 3 to 8) (size 9 to 14) (size 15 to 20)
#    0.000    0.000    6.667    2.667    3.111    1.778 
#    0.000    0.000    0.000    0.000    0.000    0.000 
#    0.000    0.000    0.000    0.000    0.000    0.000 
#
# Total GULP energy -100630.288330 kJ/mol
# GULP energy per Si atom -5590.571574 kJ/mol
# Density = 2.125897 g / cm^3
# Si number density = 21.307462 Si / 1000 Ang^3
#
#
#
# Elastic Constant Matrix: (Units=GPa)
#
#
# Indices 1 2 3 4 5 6 
#
# 1 113.1437 17.8137 20.0342 0.0000 0.0000 0.0000
# 2 17.8137 70.5403 28.1054 0.0000 0.0000 0.0000
# 3 20.0342 28.1054 100.8121 0.0000 0.0000 0.0000
# 4 0.0000 0.0000 0.0000 24.3435 0.0000 0.0000
# 5 0.0000 0.0000 0.0000 0.0000 38.7548 0.0000
# 6 0.0000 0.0000 0.0000 0.0000 0.0000 44.3315
#
#
#
# Elastic Compliance Matrix: (Units=1/GPa)
#
#
# Indices 1 2 3 4 5 6 
#
# 1 0.009365 -0.001826 -0.001352 0.000000 0.000000 0.000000
# 2 -0.001826 0.016304 -0.004182 0.000000 0.000000 0.000000
# 3 -0.001352 -0.004182 0.011354 0.000000 0.000000 0.000000
# 4 0.000000 0.000000 0.000000 0.041079 0.000000 0.000000
# 5 0.000000 0.000000 0.000000 0.000000 0.025803 0.000000
# 6 0.000000 0.000000 0.000000 0.000000 0.000000 0.022557
#
#
# Mechanical properties :
#
#
# Convention : Reuss Voigt Hill
#
# Bulk Modulus (GPa) = 44.83942 46.26696 45.55319
# Shear Modulus (GPa) = 33.64330 36.05548 34.84939
#
# Velocity S-wave (km/s) = 3.97790 4.11804 4.04858
# Velocity P-wave (km/s) = 6.49523 6.66124 6.57876
#
# Compressibility (1/GPa) = 0.02230181
#
# Stress axis : x y z
#
# Youngs Moduli (GPa) = 106.77768 61.33505 88.07371
#
# Poissons Ratio (x) = 0.11202 0.11907
# Poissons Ratio (y) = 0.19501 0.36836
# Poissons Ratio (z) = 0.14436 0.25653
#
# Static dielectric constant tensor:
#      x y z
#    x 1.707990 0.000000 0.000000 
#    y 0.000000 1.799880 0.000000 
#    z 0.000000 0.000000 1.729670 
# 
# From -- ./inp_files/9948.got.cif
#   From: 2010.05.17/outbox.cif.g08.bks.cpg/sg43_5_cif.got.tgz:9948.got - 2010.06.03 19:21:55.
