data_PCOD9372598
_publ_section_title
;
Structure prediction by ZEFSAII (Michael W. Deem and Ramdas Pophale) SiO2 
 PCOD9372598
Probable space group: F D D 2
;
_chemical_formula_sum "Si O2"
_cell_formula_units_Z 120
_cell_length_a 16.558903
_cell_length_b 26.978257
_cell_length_c 11.196882
_cell_angle_alpha 90.000000
_cell_angle_beta 90.000000
_cell_angle_gamma 90.000000
_cell_volume 5001.986911
_symmetry_space_group_name_H-M "F D D 2"
_symmetry_group_IT_number 43
_symmetry_cell_setting 'orthorhombic'
loop_
_space_group_symop_operation_xyz
x,y,z
-x,-y,z
1/4-x,1/4+y,1/4+z
1/4+x,1/4-y,1/4+z
x,1/2+y,1/2+z
-x,1/2-y,1/2+z
1/4-x,3/4+y,3/4+z
1/4+x,3/4-y,3/4+z
1/2+x,y,1/2+z
1/2-x,-y,1/2+z
3/4-x,1/4+y,3/4+z
3/4+x,1/4-y,3/4+z
1/2+x,1/2+y,z
1/2-x,1/2-y,z
3/4-x,3/4+y,1/4+z
3/4+x,3/4-y,1/4+z
loop_
_atom_site_type_symbol
_atom_site_label
_atom_site_fract_x
_atom_site_fract_y
_atom_site_fract_z
Si Si1 0.750000 0.250000 0.686491
Si Si2 0.239868 0.674812 0.471149
Si Si3 0.824873 0.423778 0.143706
Si Si4 0.466136 0.174713 0.488813
Si Si5 0.847571 0.499651 0.574557
Si Si6 0.646708 0.963759 0.067546
Si Si7 0.443625 0.854965 0.734314
Si Si8 0.003129 0.819779 0.651964
O O1 0.769666 0.295221 0.594905
O O2 0.816711 0.231632 0.777962
O O3 0.332427 0.667062 0.432517
O O4 0.190258 0.705311 0.373325
O O5 0.208977 0.618734 0.463805
O O6 0.829795 0.478559 0.082899
O O7 0.775216 0.384960 0.062712
O O8 0.775702 0.427185 0.266070
O O9 0.427492 0.228312 0.452796
O O10 0.542048 0.179062 0.396085
O O11 0.514730 0.161487 0.609220
O O12 0.384806 0.140834 0.475835
O O13 0.842226 0.557801 0.555912
O O14 0.794524 0.476297 0.467127
O O15 0.660563 0.941606 0.936612
#
# Coordination Sequence:
#
# PCOD9372598 Si02
#       8
#     8  16  16  16  16  16  16  16
#     4  12  24  42  74 116 144 200 266 336 396 480
#     4  12  24  42  74 109 150 188 267 334 400 484
#     4  12  24  48  70 108 151 208 255 328 410 477
#     4  11  28  49  76 114 153 214 271 333 415 482
#     4  11  26  44  79 108 155 202 259 338 398 474
#     4  11  24  44  75 103 147 194 257 336 399 473
#     4  12  28  50  77 107 163 211 270 331 406 500
#     4  11  24  42  67 109 143 196 256 326 396 468
#
# _framework density 23.990468
#
# number of rings (size 3 to 8) (size 9 to 14) (size 15 to 20)
#    0.000    0.533    5.333    2.400   11.200    0.000 
#    0.000    0.000    2.933    0.000    0.000    0.000 
#    0.000    0.000    0.000    0.000    0.000    0.000 
#
# Total GULP energy -167144.059287 kJ/mol
# GULP energy per Si atom -5571.468643 kJ/mol
# Density = 2.393586 g / cm^3
# Si number density = 23.990468 Si / 1000 Ang^3
#
#
#
# Elastic Constant Matrix: (Units=GPa)
#
#
# Indices 1 2 3 4 5 6 
#
# 1 118.1036 22.2484 51.1853 0.0000 0.0000 0.0000
# 2 22.2484 94.4225 -2.2672 0.0000 0.0000 0.0000
# 3 51.1853 -2.2672 65.8717 0.0000 0.0000 0.0000
# 4 0.0000 0.0000 0.0000 -12.0842 0.0000 0.0000
# 5 0.0000 0.0000 0.0000 0.0000 38.9528 0.0000
# 6 0.0000 0.0000 0.0000 0.0000 0.0000 35.1107
#
#
#
# Elastic Compliance Matrix: (Units=1/GPa)
#
#
# Indices 1 2 3 4 5 6 
#
# 1 0.013847 -0.003524 -0.010881 0.000000 0.000000 0.000000
# 2 -0.003524 0.011496 0.003134 0.000000 0.000000 0.000000
# 3 -0.010881 0.003134 0.023744 0.000000 0.000000 0.000000
# 4 0.000000 0.000000 0.000000 -0.082753 0.000000 0.000000
# 5 0.000000 0.000000 0.000000 0.000000 0.025672 0.000000
# 6 0.000000 0.000000 0.000000 0.000000 0.000000 0.028481
#
#
# Mechanical properties :
#
#
# Convention : Reuss Voigt Hill
#
# Bulk Modulus (GPa) = 37.67163 46.74786 42.20974
# Shear Modulus (GPa) = 96.38109 26.21127 61.29618
#
# Velocity S-wave (km/s) = 6.34523 3.30899 5.06021
# Velocity P-wave (km/s) = 8.33183 5.84188 7.19538
#
# Compressibility (1/GPa) = 0.02654518
#
# Stress axis : x y z
#
# Youngs Moduli (GPa) = 72.21985 86.98478 42.11637
#
# Poissons Ratio (x) = 0.30652 0.45826
# Poissons Ratio (y) = 0.25449 -0.13199
# Poissons Ratio (z) = 0.78581 -0.27260
#
# Static dielectric constant tensor:
#      x y z
#    x 2.272960 0.000000 0.000000 
#    y 0.000000 1.999970 0.000000 
#    z 0.000000 0.000000 1.972260 
# 
# From -- ./inp_files/6807.got.cif
#   From: 2010.05.17/outbox.cif.g08.bks.cpg/sg43_4_cif.got.tgz:6807.got - 2010.06.03 19:21:55.
