data_PCOD9372674
_publ_section_title
;
Structure prediction by ZEFSAII (Michael W. Deem and Ramdas Pophale) SiO2 
 PCOD9372674
Probable space group: F D D 2
;
_chemical_formula_sum "Si O2"
_cell_formula_units_Z 112
_cell_length_a 25.828698
_cell_length_b 13.320582
_cell_length_c 13.882439
_cell_angle_alpha 90.000000
_cell_angle_beta 90.000000
_cell_angle_gamma 90.000000
_cell_volume 4776.298806
_symmetry_space_group_name_H-M "F D D 2"
_symmetry_group_IT_number 43
_symmetry_cell_setting 'orthorhombic'
loop_
_space_group_symop_operation_xyz
x,y,z
-x,-y,z
1/4-x,1/4+y,1/4+z
1/4+x,1/4-y,1/4+z
x,1/2+y,1/2+z
-x,1/2-y,1/2+z
1/4-x,3/4+y,3/4+z
1/4+x,3/4-y,3/4+z
1/2+x,y,1/2+z
1/2-x,-y,1/2+z
3/4-x,1/4+y,3/4+z
3/4+x,1/4-y,3/4+z
1/2+x,1/2+y,z
1/2-x,1/2-y,z
3/4-x,3/4+y,1/4+z
3/4+x,3/4-y,1/4+z
loop_
_atom_site_type_symbol
_atom_site_label
_atom_site_fract_x
_atom_site_fract_y
_atom_site_fract_z
Si Si1 0.383822 0.028862 0.599220
Si Si2 0.250000 0.250000 0.047750
Si Si3 0.822975 0.576942 0.408826
Si Si4 0.188627 0.426716 0.125062
Si Si5 0.205430 0.043742 0.427082
Si Si6 0.572568 0.402649 0.642924
Si Si7 0.000000 0.500000 0.988447
Si Si8 0.782669 0.539097 0.718355
O O1 0.362321 0.070335 0.498667
O O2 0.417978 0.114079 0.650752
O O3 0.333117 0.005526 0.662101
O O4 0.414155 0.923468 0.594463
O O5 0.216474 0.173889 0.981308
O O6 0.208302 0.313535 0.106752
O O7 0.763441 0.584813 0.442379
O O8 0.826074 0.464404 0.367279
O O9 0.130629 0.437266 0.163240
O O10 0.233308 0.473914 0.190110
O O11 0.188912 0.482858 0.021326
O O12 0.207512 0.971284 0.332773
O O13 0.546957 0.462006 0.555166
O O14 0.979672 0.402386 0.935595
#
# Coordination Sequence:
#
# PCOD9372674 Si02
#       8
#    16   8  16  16  16  16   8  16
#     4  12  27  48  77 107 155 200 254 316 392 452
#     4  11  24  50  72 111 150 186 264 323 364 475
#     4  12  26  49  74 111 151 203 255 323 379 466
#     4  12  28  45  79 108 148 204 247 313 394 453
#     4  12  25  51  73 107 155 192 260 313 383 460
#     4  11  25  45  76 104 146 198 248 314 382 435
#     4  11  24  48  72  99 152 188 250 317 362 459
#     4  12  26  50  71 114 145 197 258 311 383 471
#
# _framework density 23.449119
#
# number of rings (size 3 to 8) (size 9 to 14) (size 15 to 20)
#    0.000    0.286    5.714    2.143    8.000    1.143 
#    2.571    0.000    0.000    0.000    0.000    0.000 
#    0.000    0.000    0.000    0.000    0.000    0.000 
#
# Total GULP energy -156864.521177 kJ/mol
# GULP energy per Si atom -5602.304328 kJ/mol
# Density = 2.339575 g / cm^3
# Si number density = 23.449119 Si / 1000 Ang^3
#
#
#
# Elastic Constant Matrix: (Units=GPa)
#
#
# Indices 1 2 3 4 5 6 
#
# 1 145.7248 41.1158 6.6461 0.0000 0.0000 0.0000
# 2 41.1158 98.7109 12.3073 0.0000 0.0000 0.0000
# 3 6.6461 12.3073 68.0965 0.0000 0.0000 0.0000
# 4 0.0000 0.0000 0.0000 32.2768 0.0000 0.0000
# 5 0.0000 0.0000 0.0000 0.0000 22.7923 0.0000
# 6 0.0000 0.0000 0.0000 0.0000 0.0000 44.6162
#
#
#
# Elastic Compliance Matrix: (Units=1/GPa)
#
#
# Indices 1 2 3 4 5 6 
#
# 1 0.007778 -0.003218 -0.000178 0.000000 0.000000 0.000000
# 2 -0.003218 0.011695 -0.001800 0.000000 0.000000 0.000000
# 3 -0.000178 -0.001800 0.015028 0.000000 0.000000 0.000000
# 4 0.000000 0.000000 0.000000 0.030982 0.000000 0.000000
# 5 0.000000 0.000000 0.000000 0.000000 0.043874 0.000000
# 6 0.000000 0.000000 0.000000 0.000000 0.000000 0.022413
#
#
# Mechanical properties :
#
#
# Convention : Reuss Voigt Hill
#
# Bulk Modulus (GPa) = 41.47459 48.07450 44.77455
# Shear Modulus (GPa) = 33.28943 36.76794 35.02868
#
# Velocity S-wave (km/s) = 3.77191 3.96408 3.86919
# Velocity P-wave (km/s) = 6.05765 6.44190 6.25273
#
# Compressibility (1/GPa) = 0.02411115
#
# Stress axis : x y z
#
# Youngs Moduli (GPa) = 128.56425 85.50492 66.54405
#
# Poissons Ratio (x) = 0.27513 0.01182
# Poissons Ratio (y) = 0.41368 0.11976
# Poissons Ratio (z) = 0.02283 0.15388
#
# Static dielectric constant tensor:
#      x y z
#    x 1.853830 0.000000 0.000000 
#    y 0.000000 1.865130 0.000000 
#    z 0.000000 0.000000 1.888980 
# 
# From -- ./inp_files/11529.got.cif
#   From: 2010.05.17/outbox.cif.g08.bks.cpg/sg43_6_cif.got.tgz:11529.got - 2010.06.03 19:21:55.
