data_PCOD9372149
_publ_section_title
;
Structure prediction by ZEFSAII (Michael W. Deem and Ramdas Pophale) SiO2 
 PCOD9372149
Probable space group: F D D 2
;
_chemical_formula_sum "Si O2"
_cell_formula_units_Z 48
_cell_length_a 9.902449
_cell_length_b 11.359248
_cell_length_c 15.250396
_cell_angle_alpha 90.000000
_cell_angle_beta 90.000000
_cell_angle_gamma 90.000000
_cell_volume 1715.431247
_symmetry_space_group_name_H-M "F D D 2"
_symmetry_group_IT_number 43
_symmetry_cell_setting 'orthorhombic'
loop_
_space_group_symop_operation_xyz
x,y,z
-x,-y,z
1/4-x,1/4+y,1/4+z
1/4+x,1/4-y,1/4+z
x,1/2+y,1/2+z
-x,1/2-y,1/2+z
1/4-x,3/4+y,3/4+z
1/4+x,3/4-y,3/4+z
1/2+x,y,1/2+z
1/2-x,-y,1/2+z
3/4-x,1/4+y,3/4+z
3/4+x,1/4-y,3/4+z
1/2+x,1/2+y,z
1/2-x,1/2-y,z
3/4-x,3/4+y,1/4+z
3/4+x,3/4-y,1/4+z
loop_
_atom_site_type_symbol
_atom_site_label
_atom_site_fract_x
_atom_site_fract_y
_atom_site_fract_z
Si Si1 0.097422 0.751697 0.597970
Si Si2 0.693186 0.127012 0.976838
Si Si3 0.345315 0.423900 0.655249
O O1 0.250000 0.750000 0.632655
O O2 0.109754 0.748628 0.493025
O O3 0.037101 0.638513 0.643623
O O4 0.982293 0.848727 0.630402
O O5 0.750000 0.250000 0.016060
O O6 0.544828 0.118019 0.937727
O O7 0.694786 0.032659 0.057032
#
# Coordination Sequence:
#
# PCOD9372149 Si02
#       3
#    16  16  16
#     4  11  26  46  74 111 148 195 253 312 375 445
#     4  11  24  47  77 110 150 200 248 305 378 456
#     4  10  24  47  74 105 147 193 246 307 371 441
#
# _framework density 27.981300999999998
#
# number of rings (size 3 to 8) (size 9 to 14) (size 15 to 20)
#    0.000    1.333    0.000    5.000    0.000   17.333 
#    0.000    0.000    0.000    0.000    0.000    0.000 
#    0.000    0.000    0.000    0.000    0.000    0.000 
#
# Total GULP energy -66800.993251 kJ/mol
# GULP energy per Si atom -5566.749438 kJ/mol
# Density = 2.791761 g / cm^3
# Si number density = 27.981301 Si / 1000 Ang^3
#
#
#
# Elastic Constant Matrix: (Units=GPa)
#
#
# Indices 1 2 3 4 5 6 
#
# 1 217.9236 31.1021 82.0457 0.0000 0.0000 0.0000
# 2 31.1021 48.2919 48.7757 0.0000 0.0000 0.0000
# 3 82.0457 48.7757 260.7350 0.0000 0.0000 0.0000
# 4 0.0000 0.0000 0.0000 95.5550 0.0000 0.0000
# 5 0.0000 0.0000 0.0000 0.0000 50.6195 0.0000
# 6 0.0000 0.0000 0.0000 0.0000 0.0000 51.8551
#
#
#
# Elastic Compliance Matrix: (Units=1/GPa)
#
#
# Indices 1 2 3 4 5 6 
#
# 1 0.005383 -0.002165 -0.001289 0.000000 0.000000 0.000000
# 2 -0.002165 0.026402 -0.004258 0.000000 0.000000 0.000000
# 3 -0.001289 -0.004258 0.005037 0.000000 0.000000 0.000000
# 4 0.000000 0.000000 0.000000 0.010465 0.000000 0.000000
# 5 0.000000 0.000000 0.000000 0.000000 0.019755 0.000000
# 6 0.000000 0.000000 0.000000 0.000000 0.000000 0.019284
#
#
# Mechanical properties :
#
#
# Convention : Reuss Voigt Hill
#
# Bulk Modulus (GPa) = 46.73080 94.53307 70.63193
# Shear Modulus (GPa) = 45.92037 63.94107 54.93072
#
# Velocity S-wave (km/s) = 4.05546 4.78550 4.43552
# Velocity P-wave (km/s) = 6.21819 8.02448 7.17838
#
# Compressibility (1/GPa) = 0.02139916
#
# Stress axis : x y z
#
# Youngs Moduli (GPa) = 185.76980 37.87550 198.51604
#
# Poissons Ratio (x) = 0.08201 0.25586
# Poissons Ratio (y) = 0.40222 0.84524
# Poissons Ratio (z) = 0.23943 0.16127
#
# Static dielectric constant tensor:
#      x y z
#    x 2.193310 0.000000 0.000000 
#    y 0.000000 2.215240 0.000000 
#    z 0.000000 0.000000 2.092550 
# 
# From -- ./inp_files/8807.got.cif
#   From: 2010.05.17/outbox.cif.g08.bks.cpg/sg43_5_cif.got.tgz:8807.got - 2010.06.03 19:21:55.
