data_PCOD9372341
_publ_section_title
;
Structure prediction by ZEFSAII (Michael W. Deem and Ramdas Pophale) SiO2 
 PCOD9372341
Probable space group: F D D 2
;
_chemical_formula_sum "Si O2"
_cell_formula_units_Z 112
_cell_length_a 11.782140
_cell_length_b 30.211608
_cell_length_c 15.716224
_cell_angle_alpha 90.000000
_cell_angle_beta 90.000000
_cell_angle_gamma 90.000000
_cell_volume 5594.306156
_symmetry_space_group_name_H-M "F D D 2"
_symmetry_group_IT_number 43
_symmetry_cell_setting 'orthorhombic'
loop_
_space_group_symop_operation_xyz
x,y,z
-x,-y,z
1/4-x,1/4+y,1/4+z
1/4+x,1/4-y,1/4+z
x,1/2+y,1/2+z
-x,1/2-y,1/2+z
1/4-x,3/4+y,3/4+z
1/4+x,3/4-y,3/4+z
1/2+x,y,1/2+z
1/2-x,-y,1/2+z
3/4-x,1/4+y,3/4+z
3/4+x,1/4-y,3/4+z
1/2+x,1/2+y,z
1/2-x,1/2-y,z
3/4-x,3/4+y,1/4+z
3/4+x,3/4-y,1/4+z
loop_
_atom_site_type_symbol
_atom_site_label
_atom_site_fract_x
_atom_site_fract_y
_atom_site_fract_z
Si Si1 0.836264 0.853931 0.197790
Si Si2 0.396575 0.098648 0.142369
Si Si3 0.688870 0.293330 0.801192
Si Si4 0.394632 0.532136 0.798605
Si Si5 0.204257 0.926126 0.469041
Si Si6 0.091253 0.737156 0.066140
Si Si7 0.028598 0.562348 0.738328
O O1 0.728911 0.880735 0.159658
O O2 0.778903 0.831347 0.279300
O O3 0.868697 0.818256 0.125093
O O4 0.934539 0.887073 0.228103
O O5 0.408870 0.058935 0.210286
O O6 0.384707 0.085924 0.043337
O O7 0.494559 0.134110 0.166511
O O8 0.750000 0.250000 0.767041
O O9 0.568550 0.303526 0.760521
O O10 0.675476 0.290807 0.901522
O O11 0.500000 0.500000 0.814966
O O12 0.285896 0.500664 0.794222
O O13 0.155969 0.962716 0.405906
O O14 0.158161 0.783861 0.060957
O O15 0.149076 0.701734 0.002127
#
# Coordination Sequence:
#
# PCOD9372341 Si02
#       7
#    16  16  16  16  16  16  16
#     4  11  20  40  69  99 130 177 239 284 337 416
#     4  11  21  41  68  97 134 179 232 287 341 410
#     4  11  20  38  67 100 126 169 235 282 328 405
#     4  12  23  42  72 107 142 181 239 303 351 413
#     4  11  23  41  66  95 136 180 232 282 345 420
#     4  11  24  43  64  95 147 178 220 297 362 410
#     4  11  23  44  65  95 141 185 214 288 354 417
#
# _framework density 20.020356
#
# number of rings (size 3 to 8) (size 9 to 14) (size 15 to 20)
#    0.000    0.857    5.714    3.857    0.000    0.000 
#    5.143    0.000    0.000    0.000    0.000    0.000 
#    0.000    0.000    0.000    0.000    0.000    0.000 
#
# Total GULP energy -156207.244010 kJ/mol
# GULP energy per Si atom -5578.830143 kJ/mol
# Density = 1.997479 g / cm^3
# Si number density = 20.020356 Si / 1000 Ang^3
#
#
#
# Elastic Constant Matrix: (Units=GPa)
#
#
# Indices 1 2 3 4 5 6 
#
# 1 77.9807 47.6479 34.1704 0.0000 0.0000 0.0000
# 2 47.6479 113.8811 65.0022 0.0000 0.0000 0.0000
# 3 34.1704 65.0022 120.5341 0.0000 0.0000 0.0000
# 4 0.0000 0.0000 0.0000 30.7974 0.0000 0.0000
# 5 0.0000 0.0000 0.0000 0.0000 10.6212 0.0000
# 6 0.0000 0.0000 0.0000 0.0000 0.0000 43.3712
#
#
#
# Elastic Compliance Matrix: (Units=1/GPa)
#
#
# Indices 1 2 3 4 5 6 
#
# 1 0.017403 -0.006451 -0.001455 0.000000 0.000000 0.000000
# 2 -0.006451 0.015077 -0.006302 0.000000 0.000000 0.000000
# 3 -0.001455 -0.006302 0.012107 0.000000 0.000000 0.000000
# 4 0.000000 0.000000 0.000000 0.032470 0.000000 0.000000
# 5 0.000000 0.000000 0.000000 0.000000 0.094151 0.000000
# 6 0.000000 0.000000 0.000000 0.000000 0.000000 0.023057
#
#
# Mechanical properties :
#
#
# Convention : Reuss Voigt Hill
#
# Bulk Modulus (GPa) = 61.83536 67.33743 64.58639
# Shear Modulus (GPa) = 21.92286 27.99633 24.95959
#
# Velocity S-wave (km/s) = 3.31271 3.74357 3.53471
# Velocity P-wave (km/s) = 6.75169 7.23832 6.99924
#
# Compressibility (1/GPa) = 0.01617198
#
# Stress axis : x y z
#
# Youngs Moduli (GPa) = 57.46194 66.32417 82.59376
#
# Poissons Ratio (x) = 0.42786 0.12014
# Poissons Ratio (y) = 0.37069 0.52052
# Poissons Ratio (z) = 0.08358 0.41799
#
# Static dielectric constant tensor:
#      x y z
#    x 1.723030 0.000000 0.000000 
#    y 0.000000 1.776610 0.000000 
#    z 0.000000 0.000000 1.743670 
# 
# From -- ./inp_files/9764.got.cif
#   From: 2010.05.17/outbox.cif.g08.bks.cpg/sg43_5_cif.got.tgz:9764.got - 2010.06.03 19:21:55.
