data_PCOD9372241
_publ_section_title
;
Structure prediction by ZEFSAII (Michael W. Deem and Ramdas Pophale) SiO2 
 PCOD9372241
Probable space group: F D D 2
;
_chemical_formula_sum "Si O2"
_cell_formula_units_Z 96
_cell_length_a 24.154042
_cell_length_b 9.705958
_cell_length_c 14.634097
_cell_angle_alpha 90.000000
_cell_angle_beta 90.000000
_cell_angle_gamma 90.000000
_cell_volume 3430.790147
_symmetry_space_group_name_H-M "F D D 2"
_symmetry_group_IT_number 43
_symmetry_cell_setting 'orthorhombic'
loop_
_space_group_symop_operation_xyz
x,y,z
-x,-y,z
1/4-x,1/4+y,1/4+z
1/4+x,1/4-y,1/4+z
x,1/2+y,1/2+z
-x,1/2-y,1/2+z
1/4-x,3/4+y,3/4+z
1/4+x,3/4-y,3/4+z
1/2+x,y,1/2+z
1/2-x,-y,1/2+z
3/4-x,1/4+y,3/4+z
3/4+x,1/4-y,3/4+z
1/2+x,1/2+y,z
1/2-x,1/2-y,z
3/4-x,3/4+y,1/4+z
3/4+x,3/4-y,1/4+z
loop_
_atom_site_type_symbol
_atom_site_label
_atom_site_fract_x
_atom_site_fract_y
_atom_site_fract_z
Si Si1 0.552350 0.100821 0.294410
Si Si2 0.124242 0.180825 0.436716
Si Si3 0.015952 0.357860 0.572720
Si Si4 0.814516 0.221315 0.356238
Si Si5 0.848590 0.019303 0.909004
Si Si6 0.009778 0.164292 0.397288
O O1 0.646736 0.331157 0.271809
O O2 0.534763 0.242642 0.345043
O O3 0.500000 0.000000 0.297991
O O4 0.602080 0.013406 0.337401
O O5 0.180701 0.143190 0.384223
O O6 0.127708 0.344383 0.459752
O O7 0.072817 0.178900 0.365401
O O8 0.185575 0.885407 0.438901
O O9 0.014754 0.239614 0.496120
O O10 0.000000 0.500000 0.521467
O O11 0.962253 0.323304 0.632561
O O12 0.750000 0.250000 0.332194
O O13 0.834327 0.355689 0.413564
O O14 0.000000 0.000000 0.393056
#
# Coordination Sequence:
#
# PCOD9372241 Si02
#       6
#    16  16  16  16  16  16
#     4  11  26  53  87 130 180 245 312 376 470 551
#     4  11  25  51  91 134 179 233 312 385 459 561
#     4  10  25  49  90 132 176 235 304 383 471 558
#     4  11  27  54  88 135 187 242 302 390 465 560
#     4  11  25  50  88 127 178 239 303 380 466 557
#     4  12  26  54  90 132 179 242 317 384 456 552
#
# _framework density 27.981891999999998
#
# number of rings (size 3 to 8) (size 9 to 14) (size 15 to 20)
#    0.000    1.000    1.667    3.000    2.333    5.333 
#    9.000    0.000    3.667    5.000    0.000    0.000 
#    0.000    0.000    0.000    0.000    0.000    0.000 
#
# Total GULP energy -133800.344047 kJ/mol
# GULP energy per Si atom -5575.014335 kJ/mol
# Density = 2.791820 g / cm^3
# Si number density = 27.981892 Si / 1000 Ang^3
#
#
#
# Elastic Constant Matrix: (Units=GPa)
#
#
# Indices 1 2 3 4 5 6 
#
# 1 201.3635 47.6911 73.5347 0.0000 0.0000 0.0000
# 2 47.6911 272.9729 69.9660 0.0000 0.0000 0.0000
# 3 73.5347 69.9660 115.3834 0.0000 0.0000 0.0000
# 4 0.0000 0.0000 0.0000 -6.3906 0.0000 0.0000
# 5 0.0000 0.0000 0.0000 0.0000 121.5533 0.0000
# 6 0.0000 0.0000 0.0000 0.0000 0.0000 46.3049
#
#
#
# Elastic Compliance Matrix: (Units=1/GPa)
#
#
# Indices 1 2 3 4 5 6 
#
# 1 0.006474 -0.000087 -0.004073 0.000000 0.000000 0.000000
# 2 -0.000087 0.004339 -0.002575 0.000000 0.000000 0.000000
# 3 -0.004073 -0.002575 0.012824 0.000000 0.000000 0.000000
# 4 0.000000 0.000000 0.000000 -0.156481 0.000000 0.000000
# 5 0.000000 0.000000 0.000000 0.000000 0.008227 0.000000
# 6 0.000000 0.000000 0.000000 0.000000 0.000000 0.021596
#
#
# Mechanical properties :
#
#
# Convention : Reuss Voigt Hill
#
# Bulk Modulus (GPa) = 98.36920 108.01148 103.19034
# Shear Modulus (GPa) = -58.03105 58.86205 0.41550
#
# Velocity S-wave (km/s) = -4.55893 4.59145 0.38576
# Velocity P-wave (km/s) = 2.74211 8.17269 6.09557
#
# Compressibility (1/GPa) = 0.01016578
#
# Stress axis : x y z
#
# Youngs Moduli (GPa) = 154.45753 230.48474 77.97662
#
# Poissons Ratio (x) = 0.02007 0.31762
# Poissons Ratio (y) = 0.01345 0.20082
# Poissons Ratio (z) = 0.62915 0.59359
#
# Static dielectric constant tensor:
#      x y z
#    x 2.158430 0.000000 0.000000 
#    y 0.000000 2.352180 0.000000 
#    z 0.000000 0.000000 2.250510 
# 
# From -- ./inp_files/26302.got.cif
#   From: 2010.05.17/outbox.cif.g08.bks.cpg/sg43_14_cif.got.tgz:26302.got - 2010.06.03 19:21:55.
