data_PCOD9372571
_publ_section_title
;
Structure prediction by ZEFSAII (Michael W. Deem and Ramdas Pophale) SiO2 
 PCOD9372571
Probable space group: F D D 2
;
_chemical_formula_sum "Si O2"
_cell_formula_units_Z 96
_cell_length_a 15.252216
_cell_length_b 21.198703
_cell_length_c 12.379349
_cell_angle_alpha 90.000000
_cell_angle_beta 90.000000
_cell_angle_gamma 90.000000
_cell_volume 4002.580214
_symmetry_space_group_name_H-M "F D D 2"
_symmetry_group_IT_number 43
_symmetry_cell_setting 'orthorhombic'
loop_
_space_group_symop_operation_xyz
x,y,z
-x,-y,z
1/4-x,1/4+y,1/4+z
1/4+x,1/4-y,1/4+z
x,1/2+y,1/2+z
-x,1/2-y,1/2+z
1/4-x,3/4+y,3/4+z
1/4+x,3/4-y,3/4+z
1/2+x,y,1/2+z
1/2-x,-y,1/2+z
3/4-x,1/4+y,3/4+z
3/4+x,1/4-y,3/4+z
1/2+x,1/2+y,z
1/2-x,1/2-y,z
3/4-x,3/4+y,1/4+z
3/4+x,3/4-y,1/4+z
loop_
_atom_site_type_symbol
_atom_site_label
_atom_site_fract_x
_atom_site_fract_y
_atom_site_fract_z
Si Si1 0.623772 0.901516 0.409620
Si Si2 0.142331 0.541285 0.312918
Si Si3 0.584832 0.167046 0.055887
Si Si4 0.089699 0.527907 0.088121
Si Si5 0.210014 0.185528 0.377510
Si Si6 0.801270 0.591208 0.063063
O O1 0.712673 0.863632 0.395374
O O2 0.602457 0.906999 0.536272
O O3 0.545158 0.863619 0.348465
O O4 0.634822 0.973876 0.368533
O O5 0.239783 0.557542 0.272457
O O6 0.074264 0.543003 0.214070
O O7 0.112944 0.606169 0.371371
O O8 0.576816 0.168071 0.185918
O O9 0.604959 0.093729 0.029510
O O10 0.658798 0.202274 0.988139
O O11 0.168055 0.478112 0.098664
O O12 0.000000 0.500000 0.042135
O O13 0.250000 0.250000 0.331809
#
# Coordination Sequence:
#
# PCOD9372571 Si02
#       6
#    16  16  16  16  16  16
#     4  12  29  49  81 112 157 210 259 338 399 491
#     4  11  24  44  74 108 146 194 263 307 390 466
#     4  11  28  44  73 109 149 202 249 323 384 482
#     4  11  23  45  72 109 142 193 253 313 381 459
#     4  12  32  51  74 116 161 205 263 326 422 476
#     4  11  25  46  79 108 146 198 263 318 384 471
#
# _framework density 23.984528000000001
#
# number of rings (size 3 to 8) (size 9 to 14) (size 15 to 20)
#    0.000    0.667    1.667    4.500   16.333    0.667 
#    0.000    0.000    0.000    0.000    0.000    0.000 
#    0.000    0.000    0.000    0.000    0.000    0.000 
#
# Total GULP energy -134020.043422 kJ/mol
# GULP energy per Si atom -5584.168476 kJ/mol
# Density = 2.392994 g / cm^3
# Si number density = 23.984528 Si / 1000 Ang^3
#
#
#
# Elastic Constant Matrix: (Units=GPa)
#
#
# Indices 1 2 3 4 5 6 
#
# 1 104.2516 34.4099 14.2377 0.0000 0.0000 0.0000
# 2 34.4099 101.9842 12.5860 0.0000 0.0000 0.0000
# 3 14.2377 12.5860 77.4812 0.0000 0.0000 0.0000
# 4 0.0000 0.0000 0.0000 24.4151 0.0000 0.0000
# 5 0.0000 0.0000 0.0000 0.0000 45.2469 0.0000
# 6 0.0000 0.0000 0.0000 0.0000 0.0000 43.1911
#
#
#
# Elastic Compliance Matrix: (Units=1/GPa)
#
#
# Indices 1 2 3 4 5 6 
#
# 1 0.010950 -0.003517 -0.001441 0.000000 0.000000 0.000000
# 2 -0.003517 0.011135 -0.001163 0.000000 0.000000 0.000000
# 3 -0.001441 -0.001163 0.013360 0.000000 0.000000 0.000000
# 4 0.000000 0.000000 0.000000 0.040958 0.000000 0.000000
# 5 0.000000 0.000000 0.000000 0.000000 0.022101 0.000000
# 6 0.000000 0.000000 0.000000 0.000000 0.000000 0.023153
#
#
# Mechanical properties :
#
#
# Convention : Reuss Voigt Hill
#
# Bulk Modulus (GPa) = 43.09440 45.13159 44.11299
# Shear Modulus (GPa) = 35.30266 37.40286 36.35276
#
# Velocity S-wave (km/s) = 3.84069 3.95328 3.89739
# Velocity P-wave (km/s) = 6.13795 6.30045 6.21973
#
# Compressibility (1/GPa) = 0.02320487
#
# Stress axis : x y z
#
# Youngs Moduli (GPa) = 91.32683 89.80326 74.85047
#
# Poissons Ratio (x) = 0.31581 0.10785
# Poissons Ratio (y) = 0.32116 0.08702
# Poissons Ratio (z) = 0.13159 0.10441
#
# Static dielectric constant tensor:
#      x y z
#    x 1.127860 0.000000 0.000000 
#    y 0.000000 2.013270 0.000000 
#    z 0.000000 0.000000 2.019440 
# 
# From -- ./inp_files/10098.got.cif
#   From: 2010.05.17/outbox.cif.g08.bks.cpg/sg43_6_cif.got.tgz:10098.got - 2010.06.03 19:21:55.
