data_PCOD9372317
_publ_section_title
;
Structure prediction by ZEFSAII (Michael W. Deem and Ramdas Pophale) SiO2 
 PCOD9372317
Probable space group: F D D 2
;
_chemical_formula_sum "Si O2"
_cell_formula_units_Z 96
_cell_length_a 12.787961
_cell_length_b 23.387275
_cell_length_c 18.701855
_cell_angle_alpha 90.000000
_cell_angle_beta 90.000000
_cell_angle_gamma 90.000000
_cell_volume 5593.267768
_symmetry_space_group_name_H-M "F D D 2"
_symmetry_group_IT_number 43
_symmetry_cell_setting 'orthorhombic'
loop_
_space_group_symop_operation_xyz
x,y,z
-x,-y,z
1/4-x,1/4+y,1/4+z
1/4+x,1/4-y,1/4+z
x,1/2+y,1/2+z
-x,1/2-y,1/2+z
1/4-x,3/4+y,3/4+z
1/4+x,3/4-y,3/4+z
1/2+x,y,1/2+z
1/2-x,-y,1/2+z
3/4-x,1/4+y,3/4+z
3/4+x,1/4-y,3/4+z
1/2+x,1/2+y,z
1/2-x,1/2-y,z
3/4-x,3/4+y,1/4+z
3/4+x,3/4-y,1/4+z
loop_
_atom_site_type_symbol
_atom_site_label
_atom_site_fract_x
_atom_site_fract_y
_atom_site_fract_z
Si Si1 0.383229 0.341898 0.622080
Si Si2 0.384339 0.476260 0.646708
Si Si3 0.195979 0.466927 0.741905
Si Si4 0.942205 0.126687 0.166522
Si Si5 0.875210 0.496832 0.987983
Si Si6 0.413976 0.916885 0.784247
O O1 0.391402 0.407667 0.641558
O O2 0.463117 0.323868 0.559907
O O3 0.403371 0.299870 0.687923
O O4 0.267914 0.333210 0.585342
O O5 0.500000 0.500000 0.658705
O O6 0.301393 0.489953 0.707718
O O7 0.340129 0.497767 0.570183
O O8 0.134590 0.425790 0.686989
O O9 0.124806 0.519467 0.767462
O O10 0.906795 0.186718 0.202369
O O11 0.926006 0.136513 0.081865
O O12 0.048735 0.111163 0.209300
O O13 0.000000 0.500000 0.991838
#
# Coordination Sequence:
#
# PCOD9372317 Si02
#       6
#    16  16  16  16  16  16
#     4  11  19  35  60  88 111 150 195 250 296 347
#     4  11  24  36  56  90 119 153 198 247 298 356
#     4  11  20  36  56  87 122 150 193 249 298 352
#     4  11  18  32  54  91 118 144 198 245 306 352
#     4  11  17  30  56  85 112 142 192 245 291 341
#     4  11  21  33  58  90 120 152 191 256 305 347
#
# _framework density 17.163492000000002
#
# number of rings (size 3 to 8) (size 9 to 14) (size 15 to 20)
#    0.000    1.000    8.333    2.000    2.333    0.000 
#    0.000    1.667    0.000    0.000    0.000    0.000 
#    0.000    0.000    0.000    0.000    0.000    0.000 
#
# Total GULP energy -133757.767946 kJ/mol
# GULP energy per Si atom -5573.240331 kJ/mol
# Density = 1.712443 g / cm^3
# Si number density = 17.163492 Si / 1000 Ang^3
#
#
#
# Elastic Constant Matrix: (Units=GPa)
#
#
# Indices 1 2 3 4 5 6 
#
# 1 50.9168 28.1112 29.9183 0.0000 0.0000 0.0000
# 2 28.1112 107.3684 21.4279 0.0000 0.0000 0.0000
# 3 29.9183 21.4279 67.0365 0.0000 0.0000 0.0000
# 4 0.0000 0.0000 0.0000 31.9553 0.0000 0.0000
# 5 0.0000 0.0000 0.0000 0.0000 27.8253 0.0000
# 6 0.0000 0.0000 0.0000 0.0000 0.0000 6.0166
#
#
#
# Elastic Compliance Matrix: (Units=1/GPa)
#
#
# Indices 1 2 3 4 5 6 
#
# 1 0.029290 -0.005405 -0.011344 0.000000 0.000000 0.000000
# 2 -0.005405 0.010946 -0.001087 0.000000 0.000000 0.000000
# 3 -0.011344 -0.001087 0.020328 0.000000 0.000000 0.000000
# 4 0.000000 0.000000 0.000000 0.031294 0.000000 0.000000
# 5 0.000000 0.000000 0.000000 0.000000 0.035938 0.000000
# 6 0.000000 0.000000 0.000000 0.000000 0.000000 0.166206
#
#
# Mechanical properties :
#
#
# Convention : Reuss Voigt Hill
#
# Bulk Modulus (GPa) = 40.17420 42.69295 41.43358
# Shear Modulus (GPa) = 14.79426 22.88374 18.83900
#
# Velocity S-wave (km/s) = 2.93910 3.65537 3.31663
# Velocity P-wave (km/s) = 5.91400 6.53788 6.23375
#
# Compressibility (1/GPa) = 0.02489159
#
# Stress axis : x y z
#
# Youngs Moduli (GPa) = 34.14179 91.36074 49.19421
#
# Poissons Ratio (x) = 0.49376 0.55808
# Poissons Ratio (y) = 0.18452 0.05346
# Poissons Ratio (z) = 0.38732 0.09928
#
# Static dielectric constant tensor:
#      x y z
#    x 1.590980 0.000000 0.000000 
#    y 0.000000 1.586950 0.000000 
#    z 0.000000 0.000000 1.642270 
# 
# From -- ./inp_files/14820.got.cif
#   From: 2010.05.17/outbox.cif.g08.bks.cpg/sg43_8_cif.got.tgz:14820.got - 2010.06.03 19:21:55.
