data_PCOD9372243
_publ_section_title
;
Structure prediction by ZEFSAII (Michael W. Deem and Ramdas Pophale) SiO2 
 PCOD9372243
Probable space group: F D D 2
;
_chemical_formula_sum "Si O2"
_cell_formula_units_Z 64
_cell_length_a 29.300222
_cell_length_b 6.888756
_cell_length_c 12.650980
_cell_angle_alpha 90.000000
_cell_angle_beta 90.000000
_cell_angle_gamma 90.000000
_cell_volume 2553.500119
_symmetry_space_group_name_H-M "F D D 2"
_symmetry_group_IT_number 43
_symmetry_cell_setting 'orthorhombic'
loop_
_space_group_symop_operation_xyz
x,y,z
-x,-y,z
1/4-x,1/4+y,1/4+z
1/4+x,1/4-y,1/4+z
x,1/2+y,1/2+z
-x,1/2-y,1/2+z
1/4-x,3/4+y,3/4+z
1/4+x,3/4-y,3/4+z
1/2+x,y,1/2+z
1/2-x,-y,1/2+z
3/4-x,1/4+y,3/4+z
3/4+x,1/4-y,3/4+z
1/2+x,1/2+y,z
1/2-x,1/2-y,z
3/4-x,3/4+y,1/4+z
3/4+x,3/4-y,1/4+z
loop_
_atom_site_type_symbol
_atom_site_label
_atom_site_fract_x
_atom_site_fract_y
_atom_site_fract_z
Si Si1 0.581781 0.299506 0.319790
Si Si2 0.540512 0.157042 0.744686
Si Si3 0.436337 0.973991 0.124387
Si Si4 0.503321 0.778601 0.462448
O O1 0.582486 0.514499 0.268229
O O2 0.468990 0.226081 0.351783
O O3 0.563109 0.151849 0.231971
O O4 0.633433 0.251339 0.346395
O O5 0.545460 0.311248 0.652287
O O6 0.500000 0.000000 0.732331
O O7 0.465633 0.853100 0.039438
O O8 0.453244 0.206999 0.919419
O O9 0.500000 0.000000 0.499356
#
# Coordination Sequence:
#
# PCOD9372243 Si02
#       4
#    16  16  16  16
#     4  11  27  53  81 131 170 226 303 361 450 535
#     4  10  25  54  78 123 172 221 302 351 438 538
#     4  12  27  53  88 125 180 230 291 377 440 535
#     4  11  25  54  85 122 173 232 288 358 445 526
#
# _framework density 25.063637
#
# number of rings (size 3 to 8) (size 9 to 14) (size 15 to 20)
#    0.000    1.000    2.500    1.500    3.500    5.000 
#   58.500    0.000    0.000    0.000    0.000    0.000 
#    0.000    0.000    0.000    0.000    0.000    0.000 
#
# Total GULP energy -89639.689669 kJ/mol
# GULP energy per Si atom -5602.480604 kJ/mol
# Density = 2.500659 g / cm^3
# Si number density = 25.063637 Si / 1000 Ang^3
#
#
#
# Elastic Constant Matrix: (Units=GPa)
#
#
# Indices 1 2 3 4 5 6 
#
# 1 153.9884 58.4068 76.5833 0.0000 0.0000 0.0000
# 2 58.4068 196.0888 78.0464 0.0000 0.0000 0.0000
# 3 76.5833 78.0464 176.9802 0.0000 0.0000 0.0000
# 4 0.0000 0.0000 0.0000 59.1459 0.0000 0.0000
# 5 0.0000 0.0000 0.0000 0.0000 41.0920 0.0000
# 6 0.0000 0.0000 0.0000 0.0000 0.0000 35.9943
#
#
#
# Elastic Compliance Matrix: (Units=1/GPa)
#
#
# Indices 1 2 3 4 5 6 
#
# 1 0.008540 -0.001301 -0.003122 0.000000 0.000000 0.000000
# 2 -0.001301 0.006384 -0.002252 0.000000 0.000000 0.000000
# 3 -0.003122 -0.002252 0.007994 0.000000 0.000000 0.000000
# 4 0.000000 0.000000 0.000000 0.016907 0.000000 0.000000
# 5 0.000000 0.000000 0.000000 0.000000 0.024336 0.000000
# 6 0.000000 0.000000 0.000000 0.000000 0.000000 0.027782
#
#
# Mechanical properties :
#
#
# Convention : Reuss Voigt Hill
#
# Bulk Modulus (GPa) = 104.51378 105.90336 105.20857
# Shear Modulus (GPa) = 46.09042 48.18116 47.13579
#
# Velocity S-wave (km/s) = 4.29293 4.38922 4.34134
# Velocity P-wave (km/s) = 8.14630 8.24818 8.19740
#
# Compressibility (1/GPa) = 0.00956812
#
# Stress axis : x y z
#
# Youngs Moduli (GPa) = 117.09542 156.64957 125.08954
#
# Poissons Ratio (x) = 0.20384 0.39048
# Poissons Ratio (y) = 0.15237 0.28171
# Poissons Ratio (z) = 0.36553 0.35278
#
# Static dielectric constant tensor:
#      x y z
#    x 2.015140 0.000000 0.000000 
#    y 0.000000 1.997410 0.000000 
#    z 0.000000 0.000000 2.018650 
# 
# From -- ./inp_files/15158.got.cif
#   From: 2010.05.17/outbox.cif.g08.bks.cpg/sg43_8_cif.got.tgz:15158.got - 2010.06.03 19:21:55.
