data_PCOD9372129
_publ_section_title
;
Structure prediction by ZEFSAII (Michael W. Deem and Ramdas Pophale) SiO2 
 PCOD9372129
Probable space group: F D D 2
;
_chemical_formula_sum "Si O2"
_cell_formula_units_Z 88
_cell_length_a 25.644021
_cell_length_b 17.658421
_cell_length_c 7.336953
_cell_angle_alpha 90.000000
_cell_angle_beta 90.000000
_cell_angle_gamma 90.000000
_cell_volume 3322.413843
_symmetry_space_group_name_H-M "F D D 2"
_symmetry_group_IT_number 43
_symmetry_cell_setting 'orthorhombic'
loop_
_space_group_symop_operation_xyz
x,y,z
-x,-y,z
1/4-x,1/4+y,1/4+z
1/4+x,1/4-y,1/4+z
x,1/2+y,1/2+z
-x,1/2-y,1/2+z
1/4-x,3/4+y,3/4+z
1/4+x,3/4-y,3/4+z
1/2+x,y,1/2+z
1/2-x,-y,1/2+z
3/4-x,1/4+y,3/4+z
3/4+x,1/4-y,3/4+z
1/2+x,1/2+y,z
1/2-x,1/2-y,z
3/4-x,3/4+y,1/4+z
3/4+x,3/4-y,1/4+z
loop_
_atom_site_type_symbol
_atom_site_label
_atom_site_fract_x
_atom_site_fract_y
_atom_site_fract_z
Si Si1 0.062243 0.245498 0.775400
Si Si2 0.060300 0.754014 0.704988
Si Si3 0.890501 0.473494 0.727706
Si Si4 0.250000 0.750000 0.168384
Si Si5 0.563963 0.084385 0.383500
Si Si6 0.542164 0.423341 0.753415
O O1 0.101495 0.291296 0.646635
O O2 0.076468 0.155516 0.755476
O O3 0.177869 0.251180 0.043664
O O4 0.001060 0.262904 0.738041
O O5 0.103368 0.722717 0.847764
O O6 0.068685 0.751619 0.490803
O O7 0.067908 0.843368 0.746440
O O8 0.913275 0.412094 0.585179
O O9 0.945832 0.500911 0.809809
O O10 0.240061 0.682564 0.314579
O O11 0.501562 0.085321 0.407628
#
# Coordination Sequence:
#
# PCOD9372129 Si02
#       6
#    16  16  16   8  16  16
#     4  11  25  50  75 115 154 207 257 328 395 463
#     4  11  25  48  77 114 159 199 261 327 394 462
#     4  12  26  46  79 112 157 208 258 319 391 473
#     4  10  24  46  72 114 148 210 260 304 386 478
#     4   9  22  46  74 102 152 201 257 315 381 462
#     4   9  22  50  75 102 157 201 261 328 369 470
#
# _framework density 26.486764999999998
#
# number of rings (size 3 to 8) (size 9 to 14) (size 15 to 20)
#    0.000    1.818    1.818    1.091    7.636    1.455 
#   19.636    0.000    0.000    0.000    0.000    0.000 
#    0.000    0.000    0.000    0.000    0.000    0.000 
#
# Total GULP energy -122653.204342 kJ/mol
# GULP energy per Si atom -5575.145652 kJ/mol
# Density = 2.642648 g / cm^3
# Si number density = 26.486765 Si / 1000 Ang^3
#
#
#
# Elastic Constant Matrix: (Units=GPa)
#
#
# Indices 1 2 3 4 5 6 
#
# 1 225.3944 0.0168 117.0984 -0.0001 0.0001 0.0000
# 2 0.0168 64.8665 6.0987 -0.0005 0.0004 0.0002
# 3 117.0984 6.0987 171.5987 -0.0012 0.0008 0.0003
# 4 -0.0001 -0.0005 -0.0012 37.4692 0.0004 0.0001
# 5 0.0001 0.0004 0.0008 0.0004 -3.7137 -0.0001
# 6 0.0000 0.0002 0.0003 0.0001 -0.0001 -3.0343
#
#
#
# Elastic Compliance Matrix: (Units=1/GPa)
#
#
# Indices 1 2 3 4 5 6 
#
# 1 0.006886 0.000441 -0.004715 0.000000 -0.000001 0.000000
# 2 0.000441 0.015496 -0.000852 0.000000 0.000002 0.000001
# 3 -0.004715 -0.000852 0.009075 0.000000 0.000002 0.000001
# 4 0.000000 0.000000 0.000000 0.026689 0.000003 0.000001
# 5 -0.000001 0.000002 0.000002 0.000003 -0.269272 0.000008
# 6 0.000000 0.000001 0.000001 0.000001 0.000008 -0.329570
#
#
# Mechanical properties :
#
#
# Convention : Reuss Voigt Hill
#
# Bulk Modulus (GPa) = 47.15427 78.69859 62.92643
# Shear Modulus (GPa) = -9.55335 28.72063 9.58364
#
# Velocity S-wave (km/s) = -1.90123 3.29650 1.90424
# Velocity P-wave (km/s) = 3.60861 6.65328 5.35202
#
# Compressibility (1/GPa) = 0.02120699
#
# Stress axis : x y z
#
# Youngs Moduli (GPa) = 145.22111 64.53163 110.19124
#
# Poissons Ratio (x) = -0.02849 0.51952
# Poissons Ratio (y) = -0.06411 0.09389
# Poissons Ratio (z) = 0.68468 0.05498
#
# Static dielectric constant tensor:
#      x y z
#    x 2.233050 0.000000 0.000000 
#    y 0.000000 2.219290 0.000000 
#    z 0.000000 0.000000 2.099810 
# 
# From -- ./inp_files/3952.got.cif
#   From: 2010.05.17/outbox.cif.g08.bks.cpg/sg43_2_cif.got.tgz:3952.got - 2010.06.03 19:21:55.
