data_PCOD9372975
_publ_section_title
;
Structure prediction by ZEFSAII (Michael W. Deem and Ramdas Pophale) SiO2 
 PCOD9372975
Probable space group: F D D 2
;
_chemical_formula_sum "Si O2"
_cell_formula_units_Z 30
_cell_length_a 27.000000
_cell_length_b 18.000000
_cell_length_c 12.000000
_cell_angle_alpha 90.000000
_cell_angle_beta 90.000000
_cell_angle_gamma 90.000000
_cell_volume 5832.000000
_symmetry_space_group_name_H-M "F D D 2"
_symmetry_group_IT_number 43
_symmetry_cell_setting 'orthorhombic'
loop_
_space_group_symop_operation_xyz
x,y,z
-x,-y,z
1/4-x,1/4+y,1/4+z
1/4+x,1/4-y,1/4+z
x,1/2+y,1/2+z
-x,1/2-y,1/2+z
1/4-x,3/4+y,3/4+z
1/4+x,3/4-y,3/4+z
1/2+x,y,1/2+z
1/2-x,-y,1/2+z
3/4-x,1/4+y,3/4+z
3/4+x,1/4-y,3/4+z
1/2+x,1/2+y,z
1/2-x,1/2-y,z
3/4-x,3/4+y,1/4+z
3/4+x,3/4-y,1/4+z
loop_
_atom_site_type_symbol
_atom_site_label
_atom_site_fract_x
_atom_site_fract_y
_atom_site_fract_z
Si Si1 0.500000 0.000000 0.428610
Si Si2 0.217422 0.910780 0.373085
Si Si3 0.455525 0.142804 0.296369
Si Si4 0.092940 0.211254 0.839391
Si Si5 0.690977 0.767874 0.749592
Si Si6 0.504859 0.290765 0.396417
Si Si7 0.913252 0.906335 0.037880
Si Si8 0.038336 0.566086 0.770187
O O1 0.523790 0.929931 0.361407
O O2 0.451332 0.969968 0.494118
O O3 0.268843 0.882893 0.426597
O O4 0.183858 0.940835 0.473094
O O5 0.187694 0.845212 0.314451
O O6 0.235430 0.962238 0.272655
O O7 0.480037 0.218483 0.342006
O O8 0.396770 0.158719 0.296290
O O9 0.150674 0.217520 0.811025
O O10 0.064062 0.284564 0.881870
O O11 0.081379 0.155282 0.940666
O O12 0.750000 0.750000 0.752275
O O13 0.678538 0.779254 0.618660
O O14 0.488262 0.365772 0.334251
O O15 0.933001 0.899269 0.164932
O O16 0.000000 0.500000 0.736847
#
# Coordination Sequence:
#
# PCOD9372975 Si02
#       8
#     8  16  16  16  16  16  16  16
#     4  12  26  50  68 112 152 190 254 300 372 452
#     4  10  23  44  66 100 140 178 247 298 361 441
#     4  11  27  44  72 105 143 196 241 311 372 438
#     4  11  25  41  73 103 136 193 238 302 377 433
#     4  10  23  43  68 100 136 186 242 300 362 444
#     4  10  24  47  69 103 140 189 245 303 368 449
#     4  12  26  45  72 106 147 196 240 308 378 443
#     4  10  24  47  70 102 144 190 243 304 369 450
#
# _framework density 5.1440330000000003
#
# number of rings (size 3 to 8) (size 9 to 14) (size 15 to 20)
#    0.000    1.333    3.333    0.800   10.267    4.267 
#    2.400    0.000    0.000    0.000    0.000    0.000 
#    0.000    0.000    0.000    0.000    0.000    0.000 
#
# Total GULP energy -167029.609788 kJ/mol
# GULP energy per Si atom -5567.653660 kJ/mol
# Density = 0.513232 g / cm^3
# Si number density = 5.144033 Si / 1000 Ang^3
#
#
#
# Elastic Constant Matrix: (Units=GPa)
#
#
# Indices 1 2 3 4 5 6 
#
# 1 136.7546 32.5920 37.2948 0.0000 0.0000 0.0000
# 2 32.5920 74.1850 34.2015 0.0000 0.0000 0.0000
# 3 37.2948 34.2015 105.4471 0.0000 0.0000 0.0000
# 4 0.0000 0.0000 0.0000 21.1443 0.0000 0.0000
# 5 0.0000 0.0000 0.0000 0.0000 20.0994 0.0000
# 6 0.0000 0.0000 0.0000 0.0000 0.0000 21.9017
#
#
#
# Elastic Compliance Matrix: (Units=1/GPa)
#
#
# Indices 1 2 3 4 5 6 
#
# 1 0.008554 -0.002779 -0.002124 0.000000 0.000000 0.000000
# 2 -0.002779 0.016753 -0.004451 0.000000 0.000000 0.000000
# 3 -0.002124 -0.004451 0.011678 0.000000 0.000000 0.000000
# 4 0.000000 0.000000 0.000000 0.047294 0.000000 0.000000
# 5 0.000000 0.000000 0.000000 0.000000 0.049753 0.000000
# 6 0.000000 0.000000 0.000000 0.000000 0.000000 0.045659
#
#
# Mechanical properties :
#
#
# Convention : Reuss Voigt Hill
#
# Bulk Modulus (GPa) = 54.71238 58.28479 56.49859
# Shear Modulus (GPa) = 24.45107 26.78230 25.61669
#
# Velocity S-wave (km/s) = 3.45094 3.61171 3.53224
# Velocity P-wave (km/s) = 6.52124 6.76613 6.64482
#
# Compressibility (1/GPa) = 0.01827740
#
# Stress axis : x y z
#
# Youngs Moduli (GPa) = 116.90605 59.69226 85.62886
#
# Poissons Ratio (x) = 0.16587 0.18188
# Poissons Ratio (y) = 0.32485 0.38112
# Poissons Ratio (z) = 0.24832 0.26568
#
# Static dielectric constant tensor:
#      x y z
#    x 1.769190 0.000000 0.000000 
#    y 0.000000 1.776570 0.000000 
#    z 0.000000 0.000000 1.820310 
# 
# From -- ./inp_files/7976.got.cif
#   From: 2010.05.17/outbox.ucp.g08.bks.cvg/sg43_4_cif.got.tgz:7976.got - 2010.06.11 16:31:01.
