data_PCOD9372613
_publ_section_title
;
Structure prediction by ZEFSAII (Michael W. Deem and Ramdas Pophale) SiO2 
 PCOD9372613
Probable space group: F D D 2
;
_chemical_formula_sum "Si O2"
_cell_formula_units_Z 96
_cell_length_a 26.123721
_cell_length_b 9.411655
_cell_length_c 17.878643
_cell_angle_alpha 90.000000
_cell_angle_beta 90.000000
_cell_angle_gamma 90.000000
_cell_volume 4395.776353
_symmetry_space_group_name_H-M "F D D 2"
_symmetry_group_IT_number 43
_symmetry_cell_setting 'orthorhombic'
loop_
_space_group_symop_operation_xyz
x,y,z
-x,-y,z
1/4-x,1/4+y,1/4+z
1/4+x,1/4-y,1/4+z
x,1/2+y,1/2+z
-x,1/2-y,1/2+z
1/4-x,3/4+y,3/4+z
1/4+x,3/4-y,3/4+z
1/2+x,y,1/2+z
1/2-x,-y,1/2+z
3/4-x,1/4+y,3/4+z
3/4+x,1/4-y,3/4+z
1/2+x,1/2+y,z
1/2-x,1/2-y,z
3/4-x,3/4+y,1/4+z
3/4+x,3/4-y,1/4+z
loop_
_atom_site_type_symbol
_atom_site_label
_atom_site_fract_x
_atom_site_fract_y
_atom_site_fract_z
Si Si1 0.832177 0.473729 0.988260
Si Si2 0.429149 0.687655 0.493960
Si Si3 0.131733 0.276678 0.205387
Si Si4 0.550115 0.982083 0.857168
Si Si5 0.868648 0.013506 0.121260
Si Si6 0.980598 0.659401 0.154876
O O1 0.848488 0.354180 0.928742
O O2 0.777668 0.526027 0.954193
O O3 0.874518 0.599819 0.999615
O O4 0.834241 0.381254 0.063996
O O5 0.416842 0.835053 0.452125
O O6 0.459726 0.590871 0.436279
O O7 0.460387 0.709724 0.571631
O O8 0.138979 0.147970 0.147430
O O9 0.141776 0.223376 0.289119
O O10 0.072328 0.324775 0.200693
O O11 0.500000 0.000000 0.807655
O O12 0.568474 0.141086 0.868006
O O13 0.000000 0.500000 0.142087
#
# Coordination Sequence:
#
# PCOD9372613 Si02
#       6
#    16  16  16  16  16  16
#     4  11  25  44  72 102 145 199 245 311 381 459
#     4  11  25  44  72 103 141 191 253 305 381 454
#     4  12  23  45  68 106 142 191 247 314 379 452
#     4  11  24  45  67 101 142 191 246 305 377 462
#     4  11  25  43  72 100 149 194 243 311 387 443
#     4  12  25  43  74 107 145 196 257 309 384 465
#
# _framework density 21.839144999999998
#
# number of rings (size 3 to 8) (size 9 to 14) (size 15 to 20)
#    0.000    0.667    5.000    2.500    2.333    1.333 
#    0.000    2.500    0.000    0.000    0.000    0.000 
#    0.000    0.000    0.000    0.000    0.000    0.000 
#
# Total GULP energy -133638.835189 kJ/mol
# GULP energy per Si atom -5568.284800 kJ/mol
# Density = 2.178944 g / cm^3
# Si number density = 21.839145 Si / 1000 Ang^3
#
#
#
# Elastic Constant Matrix: (Units=GPa)
#
#
# Indices 1 2 3 4 5 6 
#
# 1 77.3309 43.6838 10.8315 0.0000 0.0000 0.0000
# 2 43.6838 108.4216 4.7266 0.0000 0.0000 0.0000
# 3 10.8315 4.7266 64.7275 0.0000 0.0000 0.0000
# 4 0.0000 0.0000 0.0000 44.1005 0.0000 0.0000
# 5 0.0000 0.0000 0.0000 0.0000 29.3514 0.0000
# 6 0.0000 0.0000 0.0000 0.0000 0.0000 -5.8448
#
#
#
# Elastic Compliance Matrix: (Units=1/GPa)
#
#
# Indices 1 2 3 4 5 6 
#
# 1 0.017095 -0.006785 -0.002365 0.000000 0.000000 0.000000
# 2 -0.006785 0.011945 0.000263 0.000000 0.000000 0.000000
# 3 -0.002365 0.000263 0.015826 0.000000 0.000000 0.000000
# 4 0.000000 0.000000 0.000000 0.022675 0.000000 0.000000
# 5 0.000000 0.000000 0.000000 0.000000 0.034070 0.000000
# 6 0.000000 0.000000 0.000000 0.000000 0.000000 -0.171093
#
#
# Mechanical properties :
#
#
# Convention : Reuss Voigt Hill
#
# Bulk Modulus (GPa) = 36.91014 40.99600 38.95307
# Shear Modulus (GPa) = -117.16338 26.27062 -45.44638
#
# Velocity S-wave (km/s) = -7.33245 3.47207 -4.56670
# Velocity P-wave (km/s) = 7.39924 5.90646 3.15139
#
# Compressibility (1/GPa) = 0.02709283
#
# Stress axis : x y z
#
# Youngs Moduli (GPa) = 58.49523 83.71415 63.18725
#
# Poissons Ratio (x) = 0.56798 0.14946
# Poissons Ratio (y) = 0.39688 -0.01662
# Poissons Ratio (z) = 0.13836 -0.02202
#
# Static dielectric constant tensor:
#      x y z
#    x 1.930120 0.000000 0.000000 
#    y 0.000000 1.800670 0.000000 
#    z 0.000000 0.000000 1.980290 
# 
# From -- ./inp_files/16472.got.cif
#   From: 2010.05.17/outbox.cif.g08.bks.cpg/sg43_9_cif.got.tgz:16472.got - 2010.06.03 19:21:55.
