data_PCOD9372622
_publ_section_title
;
Structure prediction by ZEFSAII (Michael W. Deem and Ramdas Pophale) SiO2 
 PCOD9372622
Probable space group: F D D 2
;
_chemical_formula_sum "Si O2"
_cell_formula_units_Z 120
_cell_length_a 25.524907
_cell_length_b 11.768273
_cell_length_c 17.282242
_cell_angle_alpha 90.000000
_cell_angle_beta 90.000000
_cell_angle_gamma 90.000000
_cell_volume 5191.310258
_symmetry_space_group_name_H-M "F D D 2"
_symmetry_group_IT_number 43
_symmetry_cell_setting 'orthorhombic'
loop_
_space_group_symop_operation_xyz
x,y,z
-x,-y,z
1/4-x,1/4+y,1/4+z
1/4+x,1/4-y,1/4+z
x,1/2+y,1/2+z
-x,1/2-y,1/2+z
1/4-x,3/4+y,3/4+z
1/4+x,3/4-y,3/4+z
1/2+x,y,1/2+z
1/2-x,-y,1/2+z
3/4-x,1/4+y,3/4+z
3/4+x,1/4-y,3/4+z
1/2+x,1/2+y,z
1/2-x,1/2-y,z
3/4-x,3/4+y,1/4+z
3/4+x,3/4-y,1/4+z
loop_
_atom_site_type_symbol
_atom_site_label
_atom_site_fract_x
_atom_site_fract_y
_atom_site_fract_z
Si Si1 0.361660 0.411903 0.358030
Si Si2 0.450930 0.917069 0.750117
Si Si3 0.211979 0.883753 0.373580
Si Si4 0.988657 0.268063 0.339248
Si Si5 0.056830 0.559407 0.572003
Si Si6 0.250000 0.250000 0.022982
Si Si7 0.798966 0.948391 0.751940
Si Si8 0.378495 0.990899 0.020313
O O1 0.404820 0.466563 0.302830
O O2 0.310353 0.488280 0.371653
O O3 0.347363 0.294171 0.317096
O O4 0.381999 0.408688 0.445553
O O5 0.471222 0.802208 0.787601
O O6 0.437656 0.901718 0.661001
O O7 0.500000 0.000000 0.752739
O O8 0.220713 0.827981 0.457296
O O9 0.167648 0.809782 0.332856
O O10 0.263626 0.895124 0.320785
O O11 0.009874 0.396815 0.333431
O O12 0.985153 0.212076 0.424202
O O13 0.929200 0.254668 0.306385
O O14 0.064950 0.671922 0.521834
O O15 0.000000 0.500000 0.559614
O O16 0.847765 0.862850 0.743418
#
# Coordination Sequence:
#
# PCOD9372622 Si02
#       8
#    16  16  16  16  16   8  16  16
#     4  12  24  44  74 106 141 187 248 300 369 441
#     4  11  24  45  72 104 143 184 240 300 360 430
#     4  12  23  45  74 103 140 194 246 305 369 447
#     4  12  28  45  71 106 149 187 241 306 372 442
#     4  11  24  45  72 100 145 191 235 300 371 443
#     4  12  26  46  74 102 150 196 238 304 388 438
#     4  12  26  44  73 106 147 192 244 304 372 445
#     4  12  24  43  73 106 141 189 251 300 363 450
#
# _framework density 23.115552000000001
#
# number of rings (size 3 to 8) (size 9 to 14) (size 15 to 20)
#    0.000    0.267    4.000    6.400    0.933    2.133 
#    0.000    0.000    0.000    0.000    0.000    0.000 
#    0.000    0.000    0.000    0.000    0.000    0.000 
#
# Total GULP energy -167615.035569 kJ/mol
# GULP energy per Si atom -5587.167852 kJ/mol
# Density = 2.306294 g / cm^3
# Si number density = 23.115552 Si / 1000 Ang^3
#
#
#
# Elastic Constant Matrix: (Units=GPa)
#
#
# Indices 1 2 3 4 5 6 
#
# 1 53.4223 6.7583 5.8884 0.0000 0.0000 0.0000
# 2 6.7583 97.6348 -14.9544 0.0000 0.0000 0.0000
# 3 5.8884 -14.9544 33.5652 0.0000 0.0000 0.0000
# 4 0.0000 0.0000 0.0000 34.0435 0.0000 0.0000
# 5 0.0000 0.0000 0.0000 0.0000 7.8135 0.0000
# 6 0.0000 0.0000 0.0000 0.0000 0.0000 27.6931
#
#
#
# Elastic Compliance Matrix: (Units=1/GPa)
#
#
# Indices 1 2 3 4 5 6 
#
# 1 0.019447 -0.002006 -0.004305 0.000000 0.000000 0.000000
# 2 -0.002006 0.011199 0.005341 0.000000 0.000000 0.000000
# 3 -0.004305 0.005341 0.032928 0.000000 0.000000 0.000000
# 4 0.000000 0.000000 0.000000 0.029374 0.000000 0.000000
# 5 0.000000 0.000000 0.000000 0.000000 0.127984 0.000000
# 6 0.000000 0.000000 0.000000 0.000000 0.000000 0.036110
#
#
# Mechanical properties :
#
#
# Convention : Reuss Voigt Hill
#
# Bulk Modulus (GPa) = 16.22440 20.00076 18.11258
# Shear Modulus (GPa) = 17.88745 26.37202 22.12973
#
# Velocity S-wave (km/s) = 2.78479 3.38135 3.09747
# Velocity P-wave (km/s) = 4.16823 4.89040 4.54369
#
# Compressibility (1/GPa) = 0.06163557
#
# Stress axis : x y z
#
# Youngs Moduli (GPa) = 51.42175 89.29204 30.36945
#
# Poissons Ratio (x) = 0.17908 0.13075
# Poissons Ratio (y) = 0.10313 -0.16222
# Poissons Ratio (z) = 0.22138 -0.47695
#
# Static dielectric constant tensor:
#      x y z
#    x 1.893710 0.000000 0.000000 
#    y 0.000000 1.948240 0.000000 
#    z 0.000000 0.000000 1.871740 
# 
# From -- ./inp_files/15088.got.cif
#   From: 2010.05.17/outbox.cif.g08.bks.cpg/sg43_8_cif.got.tgz:15088.got - 2010.06.03 19:21:55.
