data_PCOD9372702
_publ_section_title
;
Structure prediction by ZEFSAII (Michael W. Deem and Ramdas Pophale) SiO2 
 PCOD9372702
Probable space group: F D D 2
;
_chemical_formula_sum "Si O2"
_cell_formula_units_Z 88
_cell_length_a 17.272447
_cell_length_b 21.955163
_cell_length_c 8.330838
_cell_angle_alpha 90.000000
_cell_angle_beta 90.000000
_cell_angle_gamma 90.000000
_cell_volume 3159.215299
_symmetry_space_group_name_H-M "F D D 2"
_symmetry_group_IT_number 43
_symmetry_cell_setting 'orthorhombic'
loop_
_space_group_symop_operation_xyz
x,y,z
-x,-y,z
1/4-x,1/4+y,1/4+z
1/4+x,1/4-y,1/4+z
x,1/2+y,1/2+z
-x,1/2-y,1/2+z
1/4-x,3/4+y,3/4+z
1/4+x,3/4-y,3/4+z
1/2+x,y,1/2+z
1/2-x,-y,1/2+z
3/4-x,1/4+y,3/4+z
3/4+x,1/4-y,3/4+z
1/2+x,1/2+y,z
1/2-x,1/2-y,z
3/4-x,3/4+y,1/4+z
3/4+x,3/4-y,1/4+z
loop_
_atom_site_type_symbol
_atom_site_label
_atom_site_fract_x
_atom_site_fract_y
_atom_site_fract_z
Si Si1 0.750000 0.750000 0.683880
Si Si2 0.594508 0.555947 0.166974
Si Si3 0.017767 0.760027 0.701604
Si Si4 0.855482 0.921352 0.738932
Si Si5 0.616127 0.448231 0.636129
Si Si6 0.050754 0.367667 0.642265
O O1 0.676717 0.767876 0.577490
O O2 0.716098 0.696666 0.792852
O O3 0.654954 0.519533 0.057857
O O4 0.507472 0.576240 0.122591
O O5 0.642067 0.612757 0.242349
O O6 0.022268 0.806504 0.552957
O O7 0.004660 0.692015 0.639730
O O8 0.942625 0.778631 0.797662
O O9 0.883773 0.874714 0.878348
O O10 0.845955 0.890362 0.563422
O O11 0.896991 0.988515 0.738292
#
# Coordination Sequence:
#
# PCOD9372702 Si02
#       6
#     8  16  16  16  16  16
#     4  12  24  46  74 106 146 206 264 312 394 490
#     4  12  27  46  76 109 150 204 260 333 397 494
#     4  11  27  45  75 104 158 193 258 339 405 468
#     4  11  25  45  76 106 152 202 259 329 395 484
#     4  11  26  46  76 111 146 206 263 320 398 486
#     4  11  25  47  73 107 149 202 263 322 404 486
#
# _framework density 27.855018999999999
#
# number of rings (size 3 to 8) (size 9 to 14) (size 15 to 20)
#    0.000    0.727    5.455    2.182   12.727    0.000 
#    0.000    0.909    0.000    0.000    0.000    0.000 
#    0.000    0.000    0.000    0.000    0.000    0.000 
#
# Total GULP energy -122660.903621 kJ/mol
# GULP energy per Si atom -5575.495619 kJ/mol
# Density = 2.779162 g / cm^3
# Si number density = 27.855019 Si / 1000 Ang^3
#
#
#
# Elastic Constant Matrix: (Units=GPa)
#
#
# Indices 1 2 3 4 5 6 
#
# 1 107.3258 14.6806 37.7919 0.0000 0.0000 0.0000
# 2 14.6806 159.9075 0.9732 0.0000 0.0000 0.0000
# 3 37.7919 0.9732 87.8693 0.0000 -0.0001 0.0000
# 4 0.0000 0.0000 0.0000 29.0601 0.0000 0.0000
# 5 0.0000 0.0000 -0.0001 0.0000 37.8674 0.0000
# 6 0.0000 0.0000 0.0000 0.0000 0.0000 54.4883
#
#
#
# Elastic Compliance Matrix: (Units=1/GPa)
#
#
# Indices 1 2 3 4 5 6 
#
# 1 0.011136 -0.000993 -0.004778 0.000000 0.000000 0.000000
# 2 -0.000993 0.006343 0.000357 0.000000 0.000000 0.000000
# 3 -0.004778 0.000357 0.013432 0.000000 0.000000 0.000000
# 4 0.000000 0.000000 0.000000 0.034412 0.000000 0.000000
# 5 0.000000 0.000000 0.000000 0.000000 0.026408 0.000000
# 6 0.000000 0.000000 0.000000 0.000000 0.000000 0.018353
#
#
# Mechanical properties :
#
#
# Convention : Reuss Voigt Hill
#
# Bulk Modulus (GPa) = 49.79897 51.33264 50.56580
# Shear Modulus (GPa) = 39.18329 44.39361 41.78845
#
# Velocity S-wave (km/s) = 3.75465 3.99650 3.87746
# Velocity P-wave (km/s) = 6.05915 6.30591 6.18376
#
# Compressibility (1/GPa) = 0.02008074
#
# Stress axis : x y z
#
# Youngs Moduli (GPa) = 89.79966 157.66323 74.45038
#
# Poissons Ratio (x) = 0.15660 0.35576
# Poissons Ratio (y) = 0.08920 -0.02658
# Poissons Ratio (z) = 0.42910 -0.05628
#
# Static dielectric constant tensor:
#      x y z
#    x 2.078070 0.000000 0.000000 
#    y 0.000000 2.330610 0.000000 
#    z 0.000000 0.000000 2.385680 
# 
# From -- ./inp_files/6196.got.cif
#   From: 2010.05.17/outbox.cif.g08.bks.cpg/sg43_4_cif.got.tgz:6196.got - 2010.06.03 19:21:55.
