data_PCOD9372798
_publ_section_title
;
Structure prediction by ZEFSAII (Michael W. Deem and Ramdas Pophale) SiO2 
 PCOD9372798
Probable space group: F D D 2
;
_chemical_formula_sum "Si O2"
_cell_formula_units_Z 104
_cell_length_a 31.888585
_cell_length_b 8.221782
_cell_length_c 16.073947
_cell_angle_alpha 90.000000
_cell_angle_beta 90.000000
_cell_angle_gamma 90.000000
_cell_volume 4214.283405
_symmetry_space_group_name_H-M "F D D 2"
_symmetry_group_IT_number 43
_symmetry_cell_setting 'orthorhombic'
loop_
_space_group_symop_operation_xyz
x,y,z
-x,-y,z
1/4-x,1/4+y,1/4+z
1/4+x,1/4-y,1/4+z
x,1/2+y,1/2+z
-x,1/2-y,1/2+z
1/4-x,3/4+y,3/4+z
1/4+x,3/4-y,3/4+z
1/2+x,y,1/2+z
1/2-x,-y,1/2+z
3/4-x,1/4+y,3/4+z
3/4+x,1/4-y,3/4+z
1/2+x,1/2+y,z
1/2-x,1/2-y,z
3/4-x,3/4+y,1/4+z
3/4+x,3/4-y,1/4+z
loop_
_atom_site_type_symbol
_atom_site_label
_atom_site_fract_x
_atom_site_fract_y
_atom_site_fract_z
Si Si1 0.949850 0.246707 0.281130
Si Si2 0.925292 0.018720 0.126497
Si Si3 0.326974 0.554249 0.268000
Si Si4 0.890028 0.553156 0.292140
Si Si5 0.750000 0.750000 0.823537
Si Si6 0.899930 0.582681 0.904626
Si Si7 0.038224 0.773493 0.703810
O O1 0.930969 0.159163 0.197975
O O2 0.923323 0.406625 0.306594
O O3 0.942196 0.123673 0.355758
O O4 0.997742 0.283888 0.262198
O O5 0.927348 0.113383 0.038472
O O6 0.886985 0.889796 0.113395
O O7 0.961092 0.895343 0.155427
O O8 0.280200 0.625829 0.277328
O O9 0.344616 0.650640 0.188819
O O10 0.362280 0.601515 0.337883
O O11 0.858650 0.461923 0.227841
O O12 0.919196 0.692122 0.252397
O O13 0.717557 0.659300 0.883886
#
# Coordination Sequence:
#
# PCOD9372798 Si02
#       7
#    16  16  16  16   8  16  16
#     4  12  25  50  77 114 160 209 266 325 406 480
#     4  12  27  45  80 118 154 208 263 325 404 493
#     4  12  25  47  78 111 159 205 265 322 407 466
#     4  12  24  45  83 117 150 207 274 327 394 484
#     4  12  22  48  80 112 154 210 252 332 394 482
#     4  12  24  49  75 112 153 206 260 334 382 479
#     4  12  23  46  80 117 154 206 264 324 407 481
#
# _framework density 24.677976999999998
#
# number of rings (size 3 to 8) (size 9 to 14) (size 15 to 20)
#    0.000    0.000    7.692    2.308    4.308    0.000 
#    2.769    0.000    3.385    0.000    0.000    0.000 
#    0.000    0.000    0.000    0.000    0.000    0.000 
#
# Total GULP energy -145211.889981 kJ/mol
# GULP energy per Si atom -5585.072692 kJ/mol
# Density = 2.462181 g / cm^3
# Si number density = 24.677977 Si / 1000 Ang^3
#
#
#
# Elastic Constant Matrix: (Units=GPa)
#
#
# Indices 1 2 3 4 5 6 
#
# 1 75.7140 18.4620 15.3864 0.0000 0.0000 0.0000
# 2 18.4620 127.4826 43.8011 0.0000 0.0000 0.0000
# 3 15.3864 43.8011 62.4016 0.0000 0.0000 0.0000
# 4 0.0000 0.0000 0.0000 36.2986 0.0000 0.0000
# 5 0.0000 0.0000 0.0000 0.0000 20.5783 0.0000
# 6 0.0000 0.0000 0.0000 0.0000 0.0000 46.1416
#
#
#
# Elastic Compliance Matrix: (Units=1/GPa)
#
#
# Indices 1 2 3 4 5 6 
#
# 1 0.014023 -0.001111 -0.002678 0.000000 0.000000 0.000000
# 2 -0.001111 0.010425 -0.007044 0.000000 0.000000 0.000000
# 3 -0.002678 -0.007044 0.021630 0.000000 0.000000 0.000000
# 4 0.000000 0.000000 0.000000 0.027549 0.000000 0.000000
# 5 0.000000 0.000000 0.000000 0.000000 0.048595 0.000000
# 6 0.000000 0.000000 0.000000 0.000000 0.000000 0.021672
#
#
# Mechanical properties :
#
#
# Convention : Reuss Voigt Hill
#
# Bulk Modulus (GPa) = 40.96231 46.76636 43.86433
# Shear Modulus (GPa) = 28.78581 33.13361 30.95971
#
# Velocity S-wave (km/s) = 3.41905 3.66818 3.54580
# Velocity P-wave (km/s) = 5.67638 6.07721 5.88021
#
# Compressibility (1/GPa) = 0.02441269
#
# Stress axis : x y z
#
# Youngs Moduli (GPa) = 71.31328 95.92138 46.23257
#
# Poissons Ratio (x) = 0.10653 0.12381
# Poissons Ratio (y) = 0.07920 0.32565
# Poissons Ratio (z) = 0.19098 0.67565
#
# Static dielectric constant tensor:
#      x y z
#    x 2.043860 0.000000 0.000000 
#    y 0.000000 2.050640 0.000000 
#    z 0.000000 0.000000 1.978580 
# 
# From -- ./inp_files/18987.got.cif
#   From: 2010.05.17/outbox.cif.g08.bks.cpg/sg43_10_cif.got.tgz:18987.got - 2010.06.03 19:21:55.
