data_PCOD9372337
_publ_section_title
;
Structure prediction by ZEFSAII (Michael W. Deem and Ramdas Pophale) SiO2 
 PCOD9372337
Probable space group: F D D 2
;
_chemical_formula_sum "Si O2"
_cell_formula_units_Z 96
_cell_length_a 20.963113
_cell_length_b 6.896621
_cell_length_c 30.013651
_cell_angle_alpha 90.000000
_cell_angle_beta 90.000000
_cell_angle_gamma 90.000000
_cell_volume 4339.212949
_symmetry_space_group_name_H-M "F D D 2"
_symmetry_group_IT_number 43
_symmetry_cell_setting 'orthorhombic'
loop_
_space_group_symop_operation_xyz
x,y,z
-x,-y,z
1/4-x,1/4+y,1/4+z
1/4+x,1/4-y,1/4+z
x,1/2+y,1/2+z
-x,1/2-y,1/2+z
1/4-x,3/4+y,3/4+z
1/4+x,3/4-y,3/4+z
1/2+x,y,1/2+z
1/2-x,-y,1/2+z
3/4-x,1/4+y,3/4+z
3/4+x,1/4-y,3/4+z
1/2+x,1/2+y,z
1/2-x,1/2-y,z
3/4-x,3/4+y,1/4+z
3/4+x,3/4-y,1/4+z
loop_
_atom_site_type_symbol
_atom_site_label
_atom_site_fract_x
_atom_site_fract_y
_atom_site_fract_z
Si Si1 0.557290 0.728669 0.463550
Si Si2 0.477615 0.791302 0.866577
Si Si3 0.836880 0.068023 0.726233
Si Si4 0.811610 0.605104 0.808798
Si Si5 0.103724 0.576048 0.574387
Si Si6 0.131006 0.920117 0.632887
O O1 0.563339 0.673819 0.412194
O O2 0.481287 0.716736 0.470840
O O3 0.586314 0.631359 0.507584
O O4 0.576521 0.953040 0.466901
O O5 0.428038 0.723655 0.830111
O O6 0.541347 0.665698 0.877371
O O7 0.500000 0.000000 0.852082
O O8 0.851256 0.056216 0.778204
O O9 0.880607 0.014868 0.683940
O O10 0.750000 0.750000 0.812476
O O11 0.810305 0.369164 0.818408
O O12 0.858122 0.676559 0.846966
O O13 0.095660 0.722433 0.616486
#
# Coordination Sequence:
#
# PCOD9372337 Si02
#       6
#    16  16  16  16  16  16
#     4   9  18  36  63  94 116 155 214 266 305 366
#     4  11  20  37  64  94 121 158 213 268 314 370
#     4   9  19  36  63  90 123 160 206 258 314 376
#     4  11  23  39  61  92 126 163 212 260 318 386
#     4  11  22  39  62  91 127 160 203 267 318 380
#     4  11  22  40  64  91 126 167 208 262 326 380
#
# _framework density 22.123829000000001
#
# number of rings (size 3 to 8) (size 9 to 14) (size 15 to 20)
#    0.000    1.667    3.333    2.000    0.000    3.333 
#    0.000    1.667    3.667    0.000    0.000    0.000 
#    0.000    0.000    0.000    0.000    0.000    0.000 
#
# Total GULP energy -133667.522236 kJ/mol
# GULP energy per Si atom -5569.480093 kJ/mol
# Density = 2.207347 g / cm^3
# Si number density = 22.123829 Si / 1000 Ang^3
#
#
#
# Elastic Constant Matrix: (Units=GPa)
#
#
# Indices 1 2 3 4 5 6 
#
# 1 39.1952 17.4112 41.2240 -0.0004 -0.0002 0.0019
# 2 17.4112 83.7241 15.9331 -0.0002 -0.0003 0.0029
# 3 41.2240 15.9331 148.7806 0.0003 0.0000 -0.0001
# 4 -0.0004 -0.0002 0.0003 10.8917 0.0000 0.0006
# 5 -0.0002 -0.0003 0.0000 0.0000 34.2841 0.0002
# 6 0.0019 0.0029 -0.0001 0.0006 0.0002 40.7332
#
#
#
# Elastic Compliance Matrix: (Units=1/GPa)
#
#
# Indices 1 2 3 4 5 6 
#
# 1 0.038890 -0.006163 -0.010116 0.000001 0.000000 -0.000001
# 2 -0.006163 0.013169 0.000297 0.000000 0.000000 -0.000001
# 3 -0.010116 0.000297 0.009492 -0.000001 0.000000 0.000000
# 4 0.000001 0.000000 -0.000001 0.091813 0.000000 -0.000001
# 5 0.000000 0.000000 0.000000 0.000000 0.029168 0.000000
# 6 -0.000001 -0.000001 0.000000 -0.000001 0.000000 0.024550
#
#
# Mechanical properties :
#
#
# Convention : Reuss Voigt Hill
#
# Bulk Modulus (GPa) = 33.79582 46.75962 40.27772
# Shear Modulus (GPa) = 20.08774 30.32388 25.20581
#
# Velocity S-wave (km/s) = 3.01652 3.70624 3.37902
# Velocity P-wave (km/s) = 5.23846 6.28460 5.78523
#
# Compressibility (1/GPa) = 0.02958946
#
# Stress axis : x y z
#
# Youngs Moduli (GPa) = 25.71348 75.93603 105.34828
#
# Poissons Ratio (x) = 0.46796 1.06567
# Poissons Ratio (y) = 0.15846 -0.03131
# Poissons Ratio (z) = 0.26011 -0.02257
#
# Static dielectric constant tensor:
#      x y z
#    x 1.815960 0.000000 0.000000 
#    y 0.000000 1.980970 0.000000 
#    z 0.000000 0.000000 1.824410 
# 
# From -- ./inp_files/26296.got.cif
#   From: 2010.05.17/outbox.cif.g08.bks.cpg/sg43_14_cif.got.tgz:26296.got - 2010.06.03 19:21:55.
