data_PCOD9372097
_publ_section_title
;
Structure prediction by ZEFSAII (Michael W. Deem and Ramdas Pophale) SiO2 
 PCOD9372097
Probable space group: F D D 2
;
_chemical_formula_sum "Si O2"
_cell_formula_units_Z 80
_cell_length_a 12.165040
_cell_length_b 24.501298
_cell_length_c 12.664580
_cell_angle_alpha 90.000000
_cell_angle_beta 90.000000
_cell_angle_gamma 90.000000
_cell_volume 3774.795472
_symmetry_space_group_name_H-M "F D D 2"
_symmetry_group_IT_number 43
_symmetry_cell_setting 'orthorhombic'
loop_
_space_group_symop_operation_xyz
x,y,z
-x,-y,z
1/4-x,1/4+y,1/4+z
1/4+x,1/4-y,1/4+z
x,1/2+y,1/2+z
-x,1/2-y,1/2+z
1/4-x,3/4+y,3/4+z
1/4+x,3/4-y,3/4+z
1/2+x,y,1/2+z
1/2-x,-y,1/2+z
3/4-x,1/4+y,3/4+z
3/4+x,1/4-y,3/4+z
1/2+x,1/2+y,z
1/2-x,1/2-y,z
3/4-x,3/4+y,1/4+z
3/4+x,3/4-y,1/4+z
loop_
_atom_site_type_symbol
_atom_site_label
_atom_site_fract_x
_atom_site_fract_y
_atom_site_fract_z
Si Si1 0.128484 0.003163 0.604640
Si Si2 0.760695 0.106492 0.093390
Si Si3 0.003728 0.434735 0.654877
Si Si4 0.035779 0.841795 0.778374
Si Si5 0.392902 0.675141 0.540976
O O1 0.185254 0.056298 0.551091
O O2 0.144447 0.017593 0.729227
O O3 0.196637 0.950212 0.574793
O O4 0.000000 0.000000 0.580855
O O5 0.885073 0.085524 0.099019
O O6 0.716048 0.112770 0.212791
O O7 0.747447 0.158879 0.021375
O O8 0.000000 0.500000 0.657272
O O9 0.897610 0.413022 0.593157
O O10 0.979354 0.900736 0.786353
O O11 0.060828 0.826439 0.657570
#
# Coordination Sequence:
#
# PCOD9372097 Si02
#       5
#    16  16  16  16  16
#     4  10  24  46  69 105 139 187 243 289 360 432
#     4  10  25  49  67 105 142 183 240 289 356 442
#     4  12  24  49  71 106 142 184 239 299 370 426
#     4  12  23  46  74 101 146 187 238 309 363 430
#     4  10  24  45  68 104 143 186 246 286 366 438
#
# _framework density 21.193200999999998
#
# number of rings (size 3 to 8) (size 9 to 14) (size 15 to 20)
#    1.200    0.000    2.000    3.600    2.800    0.800 
#   18.000    0.000    0.000    0.000    0.000    0.000 
#    0.000    0.000    0.000    0.000    0.000    0.000 
#
# Total GULP energy -111758.724796 kJ/mol
# GULP energy per Si atom -5587.936240 kJ/mol
# Density = 2.114496 g / cm^3
# Si number density = 21.193201 Si / 1000 Ang^3
#
#
#
# Elastic Constant Matrix: (Units=GPa)
#
#
# Indices 1 2 3 4 5 6 
#
# 1 157.2511 11.9948 46.3390 0.0000 0.0000 0.0000
# 2 11.9948 40.8430 24.8761 0.0000 0.0000 0.0000
# 3 46.3390 24.8761 106.1711 0.0000 0.0000 0.0000
# 4 0.0000 0.0000 0.0000 27.4894 0.0000 0.0000
# 5 0.0000 0.0000 0.0000 0.0000 6.7988 0.0000
# 6 0.0000 0.0000 0.0000 0.0000 0.0000 38.6903
#
#
#
# Elastic Compliance Matrix: (Units=1/GPa)
#
#
# Indices 1 2 3 4 5 6 
#
# 1 0.007300 -0.000237 -0.003131 0.000000 0.000000 0.000000
# 2 -0.000237 0.028567 -0.006590 0.000000 0.000000 0.000000
# 3 -0.003131 -0.006590 0.012329 0.000000 0.000000 0.000000
# 4 0.000000 0.000000 0.000000 0.036378 0.000000 0.000000
# 5 0.000000 0.000000 0.000000 0.000000 0.147085 0.000000
# 6 0.000000 0.000000 0.000000 0.000000 0.000000 0.025846
#
#
# Mechanical properties :
#
#
# Convention : Reuss Voigt Hill
#
# Bulk Modulus (GPa) = 35.35917 52.29836 43.82876
# Shear Modulus (GPa) = 17.43087 29.33271 23.38179
#
# Velocity S-wave (km/s) = 2.87099 3.72433 3.32515
# Velocity P-wave (km/s) = 5.26408 6.57455 5.95547
#
# Compressibility (1/GPa) = 0.02828121
#
# Stress axis : x y z
#
# Youngs Moduli (GPa) = 136.98920 35.00506 81.10886
#
# Poissons Ratio (x) = 0.00830 0.25391
# Poissons Ratio (y) = 0.03249 0.53450
# Poissons Ratio (z) = 0.42884 0.23068
#
# Static dielectric constant tensor:
#      x y z
#    x 1.757760 0.000000 0.000000 
#    y 0.000000 1.786130 0.000000 
#    z 0.000000 0.000000 1.745660 
# 
# From -- ./inp_files/5702.got.cif
#   From: 2010.05.17/outbox.cif.g08.bks.cpg/sg43_3_cif.got.tgz:5702.got - 2010.06.03 19:21:55.
