data_PCOD9372336
_publ_section_title
;
Structure prediction by ZEFSAII (Michael W. Deem and Ramdas Pophale) SiO2 
 PCOD9372336
Probable space group: F D D 2
;
_chemical_formula_sum "Si O2"
_cell_formula_units_Z 104
_cell_length_a 9.323022
_cell_length_b 32.828523
_cell_length_c 13.080712
_cell_angle_alpha 90.000000
_cell_angle_beta 90.000000
_cell_angle_gamma 90.000000
_cell_volume 4003.496347
_symmetry_space_group_name_H-M "F D D 2"
_symmetry_group_IT_number 43
_symmetry_cell_setting 'orthorhombic'
loop_
_space_group_symop_operation_xyz
x,y,z
-x,-y,z
1/4-x,1/4+y,1/4+z
1/4+x,1/4-y,1/4+z
x,1/2+y,1/2+z
-x,1/2-y,1/2+z
1/4-x,3/4+y,3/4+z
1/4+x,3/4-y,3/4+z
1/2+x,y,1/2+z
1/2-x,-y,1/2+z
3/4-x,1/4+y,3/4+z
3/4+x,1/4-y,3/4+z
1/2+x,1/2+y,z
1/2-x,1/2-y,z
3/4-x,3/4+y,1/4+z
3/4+x,3/4-y,1/4+z
loop_
_atom_site_type_symbol
_atom_site_label
_atom_site_fract_x
_atom_site_fract_y
_atom_site_fract_z
Si Si1 0.579042 0.314328 0.012380
Si Si2 0.250000 0.250000 0.654764
Si Si3 0.502408 0.861809 0.696651
Si Si4 0.295735 0.892801 0.269292
Si Si5 0.973172 0.545822 0.479052
Si Si6 0.458033 0.319076 0.731916
Si Si7 0.217666 0.205645 0.979676
O O1 0.651219 0.279257 0.082316
O O2 0.493781 0.346970 0.081713
O O3 0.695861 0.342984 0.962897
O O4 0.448173 0.298438 0.946029
O O5 0.356407 0.279391 0.719673
O O6 0.671754 0.866828 0.714380
O O7 0.411518 0.825757 0.754874
O O8 0.400065 0.856225 0.299596
O O9 0.218712 0.914769 0.363268
O O10 0.401551 0.924088 0.209472
O O11 0.125630 0.564442 0.504894
O O12 0.000000 0.500000 0.520795
O O13 0.967067 0.542112 0.354849
O O14 0.250000 0.250000 0.939662
#
# Coordination Sequence:
#
# PCOD9372336 Si02
#       7
#    16   8  16  16  16  16  16
#     4  11  22  36  62  88 122 158 211 259 319 379
#     4  12  20  36  62  92 108 152 214 260 310 380
#     4  11  20  37  57  90 118 160 202 259 314 379
#     4  11  20  37  57  90 118 160 202 259 314 379
#     4   9  19  35  58  86 119 156 205 261 313 376
#     4  11  22  36  62  88 122 158 211 259 319 379
#     4   9  19  35  58  86 119 156 205 261 313 376
#
# _framework density 25.977294000000001
#
# number of rings (size 3 to 8) (size 9 to 14) (size 15 to 20)
#    0.000    1.538    3.077    4.615    0.000    0.000 
#    0.000    0.000    3.385    0.000    0.000    0.000 
#    0.000    0.000    0.000    0.000    0.000    0.000 
#
# Total GULP energy -145137.622026 kJ/mol
# GULP energy per Si atom -5582.216232 kJ/mol
# Density = 2.591817 g / cm^3
# Si number density = 25.977294 Si / 1000 Ang^3
#
#
#
# Elastic Constant Matrix: (Units=GPa)
#
#
# Indices 1 2 3 4 5 6 
#
# 1 154.8787 65.0844 2.3233 0.0000 0.0000 0.0000
# 2 65.0844 160.6705 14.5676 0.0000 0.0000 0.0000
# 3 2.3233 14.5676 33.0346 0.0000 0.0000 0.0000
# 4 0.0000 0.0000 0.0000 30.7151 0.0000 0.0000
# 5 0.0000 0.0000 0.0000 0.0000 11.6147 0.0000
# 6 0.0000 0.0000 0.0000 0.0000 0.0000 69.0030
#
#
#
# Elastic Compliance Matrix: (Units=1/GPa)
#
#
# Indices 1 2 3 4 5 6 
#
# 1 0.007806 -0.003242 0.000881 0.000000 0.000000 0.000000
# 2 -0.003242 0.007829 -0.003225 0.000000 0.000000 0.000000
# 3 0.000881 -0.003225 0.031631 0.000000 0.000000 0.000000
# 4 0.000000 0.000000 0.000000 0.032557 0.000000 0.000000
# 5 0.000000 0.000000 0.000000 0.000000 0.086098 0.000000
# 6 0.000000 0.000000 0.000000 0.000000 0.000000 0.014492
#
#
# Mechanical properties :
#
#
# Convention : Reuss Voigt Hill
#
# Bulk Modulus (GPa) = 27.70472 56.94825 42.32648
# Shear Modulus (GPa) = 24.55587 40.04046 32.29817
#
# Velocity S-wave (km/s) = 3.07788 3.93028 3.52990
# Velocity P-wave (km/s) = 4.82900 6.52427 5.73957
#
# Compressibility (1/GPa) = 0.03609494
#
# Stress axis : x y z
#
# Youngs Moduli (GPa) = 128.11069 127.72249 31.61414
#
# Poissons Ratio (x) = 0.41405 -0.02784
# Poissons Ratio (y) = 0.41531 0.10194
# Poissons Ratio (z) = -0.11281 0.41186
#
# Static dielectric constant tensor:
#      x y z
#    x 2.909850 0.000000 0.000000 
#    y 0.000000 2.044500 0.000000 
#    z 0.000000 0.000000 2.173960 
# 
# From -- ./inp_files/16545.got.cif
#   From: 2010.05.17/outbox.cif.g08.bks.cpg/sg43_9_cif.got.tgz:16545.got - 2010.06.03 19:21:55.
