data_PCOD9372621
_publ_section_title
;
Structure prediction by ZEFSAII (Michael W. Deem and Ramdas Pophale) SiO2 
 PCOD9372621
Probable space group: F D D 2
;
_chemical_formula_sum "Si O2"
_cell_formula_units_Z 72
_cell_length_a 20.953801
_cell_length_b 5.944047
_cell_length_c 23.882490
_cell_angle_alpha 90.000000
_cell_angle_beta 90.000000
_cell_angle_gamma 90.000000
_cell_volume 2974.573156
_symmetry_space_group_name_H-M "F D D 2"
_symmetry_group_IT_number 43
_symmetry_cell_setting 'orthorhombic'
loop_
_space_group_symop_operation_xyz
x,y,z
-x,-y,z
1/4-x,1/4+y,1/4+z
1/4+x,1/4-y,1/4+z
x,1/2+y,1/2+z
-x,1/2-y,1/2+z
1/4-x,3/4+y,3/4+z
1/4+x,3/4-y,3/4+z
1/2+x,y,1/2+z
1/2-x,-y,1/2+z
3/4-x,1/4+y,3/4+z
3/4+x,1/4-y,3/4+z
1/2+x,1/2+y,z
1/2-x,1/2-y,z
3/4-x,3/4+y,1/4+z
3/4+x,3/4-y,1/4+z
loop_
_atom_site_type_symbol
_atom_site_label
_atom_site_fract_x
_atom_site_fract_y
_atom_site_fract_z
Si Si1 0.686465 0.100432 0.250000
Si Si2 0.803831 0.562839 0.578708
Si Si3 0.250000 0.750000 0.675227
Si Si4 0.431179 0.070281 0.210150
Si Si5 0.570987 0.595429 0.112931
O O1 0.750000 0.250000 0.243047
O O2 0.702891 0.872163 0.217355
O O3 0.617539 0.140635 0.220559
O O4 0.676793 0.036473 0.314378
O O5 0.750000 0.750000 0.570319
O O6 0.779715 0.428306 0.632843
O O7 0.806702 0.420364 0.521929
O O8 0.878557 0.598530 0.594098
O O9 0.411071 0.272844 0.169181
O O10 0.500000 0.000000 0.187187
O O11 0.500000 0.500000 0.116038
#
# Coordination Sequence:
#
# PCOD9372621 Si02
#       5
#    16  16   8  16  16
#     4  11  25  45  72 104 144 193 239 293 363 437
#     4  11  25  45  72 104 144 193 239 293 363 437
#     4  12  22  48  68 106 140 192 240 290 344 462
#     4  11  24  45  71 108 146 184 242 306 364 425
#     4  11  24  45  71 108 146 184 242 306 364 425
#
# _framework density 24.205151999999998
#
# number of rings (size 3 to 8) (size 9 to 14) (size 15 to 20)
#    0.000    0.889    4.444    2.000    0.000    5.333 
#    0.000    0.000    0.000    0.000    0.000    0.000 
#    0.000    0.000    0.000    0.000    0.000    0.000 
#
# Total GULP energy -100472.009965 kJ/mol
# GULP energy per Si atom -5581.778331 kJ/mol
# Density = 2.415006 g / cm^3
# Si number density = 24.205152 Si / 1000 Ang^3
#
#
#
# Elastic Constant Matrix: (Units=GPa)
#
#
# Indices 1 2 3 4 5 6 
#
# 1 188.1127 49.0713 -1.3600 0.0001 -0.0001 0.0001
# 2 49.0713 42.5704 5.7067 0.0008 0.0000 0.0000
# 3 -1.3600 5.7067 100.7426 0.0000 0.0001 0.0000
# 4 0.0001 0.0008 0.0000 22.5796 0.0003 -0.0003
# 5 -0.0001 0.0000 0.0001 0.0003 42.4306 0.0001
# 6 0.0001 0.0000 0.0000 -0.0003 0.0001 45.2654
#
#
#
# Elastic Compliance Matrix: (Units=1/GPa)
#
#
# Indices 1 2 3 4 5 6 
#
# 1 0.007638 -0.008886 0.000606 0.000000 0.000000 0.000000
# 2 -0.008886 0.034008 -0.002046 -0.000001 0.000000 0.000000
# 3 0.000606 -0.002046 0.010050 0.000000 0.000000 0.000000
# 4 0.000000 -0.000001 0.000000 0.044288 0.000000 0.000000
# 5 0.000000 0.000000 0.000000 0.000000 0.023568 0.000000
# 6 0.000000 0.000000 0.000000 0.000000 0.000000 0.022092
#
#
# Mechanical properties :
#
#
# Convention : Reuss Voigt Hill
#
# Bulk Modulus (GPa) = 32.21167 48.69574 40.45371
# Shear Modulus (GPa) = 28.96120 40.58896 34.77508
#
# Velocity S-wave (km/s) = 3.46278 4.09941 3.79447
# Velocity P-wave (km/s) = 5.41521 6.52445 5.99554
#
# Compressibility (1/GPa) = 0.03104465
#
# Stress axis : x y z
#
# Youngs Moduli (GPa) = 130.91751 29.40488 99.49855
#
# Poissons Ratio (x) = 0.26130 -0.06034
# Poissons Ratio (y) = 1.16335 0.20361
# Poissons Ratio (z) = -0.07940 0.06017
#
# Static dielectric constant tensor:
#      x y z
#    x 2.187980 0.000000 0.000000 
#    y 0.000000 1.936540 0.000000 
#    z 0.000000 0.000000 1.824130 
# 
# From -- ./inp_files/15656.got.cif
#   From: 2010.05.17/outbox.cif.g08.bks.cpg/sg43_8_cif.got.tgz:15656.got - 2010.06.03 19:21:55.
