data_PCOD9372526
_publ_section_title
;
Structure prediction by ZEFSAII (Michael W. Deem and Ramdas Pophale) SiO2 
 PCOD9372526
Probable space group: F D D 2
;
_chemical_formula_sum "Si O2"
_cell_formula_units_Z 96
_cell_length_a 26.380473
_cell_length_b 9.974700
_cell_length_c 15.941246
_cell_angle_alpha 90.000000
_cell_angle_beta 90.000000
_cell_angle_gamma 90.000000
_cell_volume 4194.736495
_symmetry_space_group_name_H-M "F D D 2"
_symmetry_group_IT_number 43
_symmetry_cell_setting 'orthorhombic'
loop_
_space_group_symop_operation_xyz
x,y,z
-x,-y,z
1/4-x,1/4+y,1/4+z
1/4+x,1/4-y,1/4+z
x,1/2+y,1/2+z
-x,1/2-y,1/2+z
1/4-x,3/4+y,3/4+z
1/4+x,3/4-y,3/4+z
1/2+x,y,1/2+z
1/2-x,-y,1/2+z
3/4-x,1/4+y,3/4+z
3/4+x,1/4-y,3/4+z
1/2+x,1/2+y,z
1/2-x,1/2-y,z
3/4-x,3/4+y,1/4+z
3/4+x,3/4-y,1/4+z
loop_
_atom_site_type_symbol
_atom_site_label
_atom_site_fract_x
_atom_site_fract_y
_atom_site_fract_z
Si Si1 0.298768 0.064170 0.000000
Si Si2 0.991931 0.792514 0.925586
Si Si3 0.000000 0.500000 0.557201
Si Si4 0.827428 0.259230 0.947754
Si Si5 0.500000 0.500000 0.611178
Si Si6 0.174244 0.359170 0.624869
Si Si7 0.911978 0.626996 0.995130
O O1 0.274454 0.135226 0.919675
O O2 0.353987 0.125263 0.022893
O O3 0.306214 0.904893 0.980368
O O4 0.264009 0.090716 0.080852
O O5 0.936709 0.764335 0.964248
O O6 0.022712 0.655632 0.913348
O O7 0.018635 0.885666 0.993543
O O8 0.043876 0.541590 0.620897
O O9 0.882849 0.289069 0.911452
O O10 0.825655 0.157807 0.025364
O O11 0.452806 0.561188 0.558480
O O12 0.160127 0.215681 0.662310
#
# Coordination Sequence:
#
# PCOD9372526 Si02
#       7
#    16  16   8  16   8  16  16
#     4  11  25  42  70 100 140 184 239 295 353 436
#     4  12  23  47  66  99 144 181 231 285 353 422
#     4  12  27  43  66 104 146 186 226 293 349 426
#     4  11  24  44  71 106 135 183 239 292 352 422
#     4  12  23  41  66 106 136 190 236 293 365 424
#     4  11  23  43  76 102 133 184 235 292 349 424
#     4  11  23  42  73 100 132 180 241 294 353 426
#
# _framework density 22.885825000000001
#
# number of rings (size 3 to 8) (size 9 to 14) (size 15 to 20)
#    0.000    0.667    3.333    4.500    7.000    0.000 
#   12.000    0.000    0.000    0.000    0.000    0.000 
#    0.000    0.000    0.000    0.000    0.000    0.000 
#
# Total GULP energy -134185.796181 kJ/mol
# GULP energy per Si atom -5591.074841 kJ/mol
# Density = 2.283374 g / cm^3
# Si number density = 22.885825 Si / 1000 Ang^3
#
#
#
# Elastic Constant Matrix: (Units=GPa)
#
#
# Indices 1 2 3 4 5 6 
#
# 1 74.8084 -0.9083 23.3855 0.0000 0.0000 0.0000
# 2 -0.9083 38.4941 26.2827 0.0000 0.0000 0.0000
# 3 23.3855 26.2827 153.0537 0.0000 0.0000 0.0000
# 4 0.0000 0.0000 0.0000 43.5285 0.0000 0.0000
# 5 0.0000 0.0000 0.0000 0.0000 19.0658 0.0000
# 6 0.0000 0.0000 0.0000 0.0000 0.0000 27.0462
#
#
#
# Elastic Compliance Matrix: (Units=1/GPa)
#
#
# Indices 1 2 3 4 5 6 
#
# 1 0.014180 0.002055 -0.002519 0.000000 0.000000 0.000000
# 2 0.002055 0.029726 -0.005419 0.000000 0.000000 0.000000
# 3 -0.002519 -0.005419 0.007849 0.000000 0.000000 0.000000
# 4 0.000000 0.000000 0.000000 0.022973 0.000000 0.000000
# 5 0.000000 0.000000 0.000000 0.000000 0.052450 0.000000
# 6 0.000000 0.000000 0.000000 0.000000 0.000000 0.036974
#
#
# Mechanical properties :
#
#
# Convention : Reuss Voigt Hill
#
# Bulk Modulus (GPa) = 25.00699 40.43065 32.71882
# Shear Modulus (GPa) = 26.42027 32.43451 29.42739
#
# Velocity S-wave (km/s) = 3.40139 3.76870 3.58974
# Velocity P-wave (km/s) = 5.13580 6.05327 5.61331
#
# Compressibility (1/GPa) = 0.03998881
#
# Stress axis : x y z
#
# Youngs Moduli (GPa) = 70.52171 33.64038 127.40304
#
# Poissons Ratio (x) = -0.06912 0.32099
# Poissons Ratio (y) = -0.14491 0.69035
# Poissons Ratio (z) = 0.17768 0.18228
#
# Static dielectric constant tensor:
#      x y z
#    x 1.938050 0.000000 0.000000 
#    y 0.000000 1.894030 0.000000 
#    z 0.000000 0.000000 1.806260 
# 
# From -- ./inp_files/9751.got.cif
#   From: 2010.05.17/outbox.cif.g08.bks.cpg/sg43_5_cif.got.tgz:9751.got - 2010.06.03 19:21:55.
