data_PCOD9372366
_publ_section_title
;
Structure prediction by ZEFSAII (Michael W. Deem and Ramdas Pophale) SiO2 
 PCOD9372366
Probable space group: F D D 2
;
_chemical_formula_sum "Si O2"
_cell_formula_units_Z 56
_cell_length_a 5.066483
_cell_length_b 34.916402
_cell_length_c 12.511810
_cell_angle_alpha 90.000000
_cell_angle_beta 90.000000
_cell_angle_gamma 90.000000
_cell_volume 2213.381193
_symmetry_space_group_name_H-M "F D D 2"
_symmetry_group_IT_number 43
_symmetry_cell_setting 'orthorhombic'
loop_
_space_group_symop_operation_xyz
x,y,z
-x,-y,z
1/4-x,1/4+y,1/4+z
1/4+x,1/4-y,1/4+z
x,1/2+y,1/2+z
-x,1/2-y,1/2+z
1/4-x,3/4+y,3/4+z
1/4+x,3/4-y,3/4+z
1/2+x,y,1/2+z
1/2-x,-y,1/2+z
3/4-x,1/4+y,3/4+z
3/4+x,1/4-y,3/4+z
1/2+x,1/2+y,z
1/2-x,1/2-y,z
3/4-x,3/4+y,1/4+z
3/4+x,3/4-y,1/4+z
loop_
_atom_site_type_symbol
_atom_site_label
_atom_site_fract_x
_atom_site_fract_y
_atom_site_fract_z
Si Si1 0.745631 0.522393 0.502890
Si Si2 0.402324 0.831551 0.478841
Si Si3 0.000000 0.500000 0.219251
Si Si4 0.639613 0.903903 0.594165
O O1 0.500000 0.500000 0.452707
O O2 0.711845 0.515332 0.632027
O O3 0.000000 0.500000 0.468863
O O4 0.754290 0.568049 0.500828
O O5 0.348803 0.789008 0.523963
O O6 0.545088 0.863230 0.550418
O O7 0.617799 0.826712 0.384809
O O8 0.125524 0.847751 0.431274
#
# Coordination Sequence:
#
# PCOD9372366 Si02
#       4
#    16  16   8  16
#     4   9  15  30  54  81 106 149 210 243 281 368
#     4  11  22  37  63  90 128 159 218 258 321 373
#     4   8  18  32  58  82 110 164 206 244 290 392
#     4  11  21  37  59  95 119 163 208 271 310 377
#
# _framework density 25.300659
#
# number of rings (size 3 to 8) (size 9 to 14) (size 15 to 20)
#    0.857    1.143    2.857    1.714    0.000    0.000 
#    0.000    0.000    3.143    0.000    7.429    0.000 
#    0.000    0.000    0.000    0.000    0.000    0.000 
#
# Total GULP energy -78149.609628 kJ/mol
# GULP energy per Si atom -5582.114973 kJ/mol
# Density = 2.524307 g / cm^3
# Si number density = 25.300659 Si / 1000 Ang^3
#
#
#
# Elastic Constant Matrix: (Units=GPa)
#
#
# Indices 1 2 3 4 5 6 
#
# 1 177.7196 68.2260 21.5402 0.0000 0.0000 0.0000
# 2 68.2260 256.1897 65.7439 0.0000 0.0000 0.0000
# 3 21.5402 65.7439 49.6351 0.0000 0.0000 0.0000
# 4 0.0000 0.0000 0.0000 96.2930 0.0000 0.0000
# 5 0.0000 0.0000 0.0000 0.0000 88.2340 0.0000
# 6 0.0000 0.0000 0.0000 0.0000 0.0000 53.4757
#
#
#
# Elastic Compliance Matrix: (Units=1/GPa)
#
#
# Indices 1 2 3 4 5 6 
#
# 1 0.006287 -0.001476 -0.000774 0.000000 0.000000 0.000000
# 2 -0.001476 0.006260 -0.007651 0.000000 0.000000 0.000000
# 3 -0.000774 -0.007651 0.030617 0.000000 0.000000 0.000000
# 4 0.000000 0.000000 0.000000 0.010385 0.000000 0.000000
# 5 0.000000 0.000000 0.000000 0.000000 0.011333 0.000000
# 6 0.000000 0.000000 0.000000 0.000000 0.000000 0.018700
#
#
# Mechanical properties :
#
#
# Convention : Reuss Voigt Hill
#
# Bulk Modulus (GPa) = 42.80292 88.28496 65.54394
# Shear Modulus (GPa) = 44.97597 69.46951 57.22274
#
# Velocity S-wave (km/s) = 4.22080 5.24568 4.76090
# Velocity P-wave (km/s) = 6.38028 8.46520 7.49559
#
# Compressibility (1/GPa) = 0.02336289
#
# Stress axis : x y z
#
# Youngs Moduli (GPa) = 159.05418 159.75077 32.66194
#
# Poissons Ratio (x) = 0.23576 0.02527
# Poissons Ratio (y) = 0.23473 0.24989
# Poissons Ratio (z) = 0.12306 1.22223
#
# Static dielectric constant tensor:
#      x y z
#    x 1.884320 0.000000 0.000000 
#    y 0.000000 2.003780 0.000000 
#    z 0.000000 0.000000 2.141060 
# 
# From -- ./inp_files/8609.got.cif
#   From: 2010.05.17/outbox.cif.g08.bks.cpg/sg43_5_cif.got.tgz:8609.got - 2010.06.03 19:21:55.
