data_PCOD9372894
_publ_section_title
;
Structure prediction by ZEFSAII (Michael W. Deem and Ramdas Pophale) SiO2 
 PCOD9372894
Probable space group: F D D 2
;
_chemical_formula_sum "Si O2"
_cell_formula_units_Z 40
_cell_length_a 23.382304
_cell_length_b 4.796248
_cell_length_c 13.795160
_cell_angle_alpha 90.000000
_cell_angle_beta 90.000000
_cell_angle_gamma 90.000000
_cell_volume 1547.090344
_symmetry_space_group_name_H-M "F D D 2"
_symmetry_group_IT_number 43
_symmetry_cell_setting 'orthorhombic'
loop_
_space_group_symop_operation_xyz
x,y,z
-x,-y,z
1/4-x,1/4+y,1/4+z
1/4+x,1/4-y,1/4+z
x,1/2+y,1/2+z
-x,1/2-y,1/2+z
1/4-x,3/4+y,3/4+z
1/4+x,3/4-y,3/4+z
1/2+x,y,1/2+z
1/2-x,-y,1/2+z
3/4-x,1/4+y,3/4+z
3/4+x,1/4-y,3/4+z
1/2+x,1/2+y,z
1/2-x,1/2-y,z
3/4-x,3/4+y,1/4+z
3/4+x,3/4-y,1/4+z
loop_
_atom_site_type_symbol
_atom_site_label
_atom_site_fract_x
_atom_site_fract_y
_atom_site_fract_z
Si Si1 0.405670 0.418690 0.838080
Si Si2 0.923130 0.134357 0.046469
Si Si3 0.250000 0.250000 0.925179
O O1 0.349801 0.607818 0.845439
O O2 0.379578 0.112502 0.812143
O O3 0.447045 0.514384 0.751563
O O4 0.434546 0.514525 0.938697
O O5 0.975919 0.269915 0.101087
#
# Coordination Sequence:
#
# PCOD9372894 Si02
#       3
#    16  16   8
#     4  12  26  50  79 117 163 212 277 337 403 497
#     4  12  26  50  79 117 163 212 277 337 403 497
#     4  12  28  50  88 112 168 226 264 342 428 466
#
# _framework density 25.854987999999999
#
# number of rings (size 3 to 8) (size 9 to 14) (size 15 to 20)
#    0.000    0.000    8.000    0.000    0.000   12.800 
#    0.000    0.000    0.000    0.000    0.000    0.000 
#    0.000    0.000    0.000    0.000    0.000    0.000 
#
# Total GULP energy -55774.132477 kJ/mol
# GULP energy per Si atom -5577.413248 kJ/mol
# Density = 2.579614 g / cm^3
# Si number density = 25.854988 Si / 1000 Ang^3
#
#
#
# Elastic Constant Matrix: (Units=GPa)
#
#
# Indices 1 2 3 4 5 6 
#
# 1 131.0380 19.2957 40.7187 0.0007 -0.0005 -0.0022
# 2 19.2957 133.9877 55.3654 0.0040 0.0012 -0.0029
# 3 40.7187 55.3654 203.8205 0.0013 -0.0001 -0.0017
# 4 0.0007 0.0040 0.0013 40.6036 -0.0007 -0.0007
# 5 -0.0005 0.0012 -0.0001 -0.0007 86.6554 0.0008
# 6 -0.0022 -0.0029 -0.0017 -0.0007 0.0008 25.2050
#
#
#
# Elastic Compliance Matrix: (Units=1/GPa)
#
#
# Indices 1 2 3 4 5 6 
#
# 1 0.008174 -0.000566 -0.001479 0.000000 0.000000 0.000001
# 2 -0.000566 0.008446 -0.002181 -0.000001 0.000000 0.000001
# 3 -0.001479 -0.002181 0.005794 0.000000 0.000000 0.000000
# 4 0.000000 -0.000001 0.000000 0.024628 0.000000 0.000001
# 5 0.000000 0.000000 0.000000 0.000000 0.011540 0.000000
# 6 0.000001 0.000001 0.000000 0.000001 0.000000 0.039675
#
#
# Mechanical properties :
#
#
# Convention : Reuss Voigt Hill
#
# Bulk Modulus (GPa) = 71.62347 77.73398 74.67872
# Shear Modulus (GPa) = 44.89744 54.05722 49.47733
#
# Velocity S-wave (km/s) = 4.17167 4.57747 4.37927
# Velocity P-wave (km/s) = 7.13904 7.62026 7.38357
#
# Compressibility (1/GPa) = 0.01396190
#
# Stress axis : x y z
#
# Youngs Moduli (GPa) = 122.33322 118.39655 172.58271
#
# Poissons Ratio (x) = 0.06700 0.25531
# Poissons Ratio (y) = 0.06923 0.37645
# Poissons Ratio (z) = 0.18097 0.25825
#
# Static dielectric constant tensor:
#      x y z
#    x 1.972220 0.000000 0.000000 
#    y 0.000000 2.083380 0.000000 
#    z 0.000000 0.000000 2.227310 
# 
# From -- ./inp_files/170.got.cif
#   From: 2010.05.17/outbox.cif.g08.bks.cpg/sg43_1_cif.got.tgz:170.got - 2010.06.03 19:21:55.
