data_PCOD9372291
_publ_section_title
;
Structure prediction by ZEFSAII (Michael W. Deem and Ramdas Pophale) SiO2 
 PCOD9372291
Probable space group: F D D 2
;
_chemical_formula_sum "Si O2"
_cell_formula_units_Z 72
_cell_length_a 13.985803
_cell_length_b 13.142519
_cell_length_c 14.737618
_cell_angle_alpha 90.000000
_cell_angle_beta 90.000000
_cell_angle_gamma 90.000000
_cell_volume 2708.902135
_symmetry_space_group_name_H-M "F D D 2"
_symmetry_group_IT_number 43
_symmetry_cell_setting 'orthorhombic'
loop_
_space_group_symop_operation_xyz
x,y,z
-x,-y,z
1/4-x,1/4+y,1/4+z
1/4+x,1/4-y,1/4+z
x,1/2+y,1/2+z
-x,1/2-y,1/2+z
1/4-x,3/4+y,3/4+z
1/4+x,3/4-y,3/4+z
1/2+x,y,1/2+z
1/2-x,-y,1/2+z
3/4-x,1/4+y,3/4+z
3/4+x,1/4-y,3/4+z
1/2+x,1/2+y,z
1/2-x,1/2-y,z
3/4-x,3/4+y,1/4+z
3/4+x,3/4-y,1/4+z
loop_
_atom_site_type_symbol
_atom_site_label
_atom_site_fract_x
_atom_site_fract_y
_atom_site_fract_z
Si Si1 0.600803 0.898204 0.605670
Si Si2 0.734585 0.043240 0.327307
Si Si3 0.750000 0.750000 0.209075
Si Si4 0.689718 0.638870 0.552493
Si Si5 0.679023 0.942834 0.137571
O O1 0.509875 0.822873 0.602043
O O2 0.589119 0.938527 0.706380
O O3 0.703002 0.841973 0.590536
O O4 0.587307 0.982768 0.528977
O O5 0.838120 0.091832 0.349024
O O6 0.663821 0.122244 0.375190
O O7 0.694092 0.019415 0.224202
O O8 0.754531 0.851780 0.150459
O O9 0.690979 0.515178 0.551450
#
# Coordination Sequence:
#
# PCOD9372291 Si02
#       5
#    16  16   8  16  16
#     4  11  26  45  81 108 164 204 276 329 411 500
#     4  11  26  48  72 114 152 214 264 344 409 491
#     4  10  26  50  72 116 150 218 260 334 416 492
#     4  12  25  47  75 116 153 213 265 344 408 495
#     4  11  26  49  75 111 160 203 278 340 414 493
#
# _framework density 26.579031000000001
#
# number of rings (size 3 to 8) (size 9 to 14) (size 15 to 20)
#    0.000    0.889    2.222    2.667    6.222    7.111 
#    4.000    0.000    0.000    0.000    0.000    0.000 
#    0.000    0.000    0.000    0.000    0.000    0.000 
#
# Total GULP energy -100203.890855 kJ/mol
# GULP energy per Si atom -5566.882825 kJ/mol
# Density = 2.651854 g / cm^3
# Si number density = 26.579031 Si / 1000 Ang^3
#
#
#
# Elastic Constant Matrix: (Units=GPa)
#
#
# Indices 1 2 3 4 5 6 
#
# 1 177.9371 47.1258 42.3486 0.0000 0.0000 0.0000
# 2 47.1258 103.2994 22.2513 0.0000 0.0000 0.0000
# 3 42.3486 22.2513 64.9299 0.0000 0.0000 0.0000
# 4 0.0000 0.0000 0.0000 31.5747 0.0000 0.0000
# 5 0.0000 0.0000 0.0000 0.0000 28.6074 0.0000
# 6 0.0000 0.0000 0.0000 0.0000 0.0000 69.3851
#
#
#
# Elastic Compliance Matrix: (Units=1/GPa)
#
#
# Indices 1 2 3 4 5 6 
#
# 1 0.007184 -0.002449 -0.003846 0.000000 0.000000 0.000000
# 2 -0.002449 0.011287 -0.002271 0.000000 0.000000 0.000000
# 3 -0.003846 -0.002271 0.018688 0.000000 0.000000 0.000000
# 4 0.000000 0.000000 0.000000 0.031671 0.000000 0.000000
# 5 0.000000 0.000000 0.000000 0.000000 0.034956 0.000000
# 6 0.000000 0.000000 0.000000 0.000000 0.000000 0.014412
#
#
# Mechanical properties :
#
#
# Convention : Reuss Voigt Hill
#
# Bulk Modulus (GPa) = 49.93256 63.29088 56.61172
# Shear Modulus (GPa) = 35.20984 41.54281 38.37632
#
# Velocity S-wave (km/s) = 3.64362 3.95776 3.80393
# Velocity P-wave (km/s) = 6.04388 6.68948 6.37486
#
# Compressibility (1/GPa) = 0.02002701
#
# Stress axis : x y z
#
# Youngs Moduli (GPa) = 139.19942 88.59813 53.51006
#
# Poissons Ratio (x) = 0.21696 0.20582
# Poissons Ratio (y) = 0.34088 0.12151
# Poissons Ratio (z) = 0.53540 0.20119
#
# Static dielectric constant tensor:
#      x y z
#    x 2.170850 0.000000 0.000000 
#    y 0.000000 2.246540 0.000000 
#    z 0.000000 0.000000 2.270510 
# 
# From -- ./inp_files/13738.got.cif
#   From: 2010.05.17/outbox.cif.g08.bks.cpg/sg43_7_cif.got.tgz:13738.got - 2010.06.03 19:21:55.
