data_PCOD9372460
_publ_section_title
;
Structure prediction by ZEFSAII (Michael W. Deem and Ramdas Pophale) SiO2 
 PCOD9372460
Probable space group: F D D 2
;
_chemical_formula_sum "Si O2"
_cell_formula_units_Z 96
_cell_length_a 21.134029
_cell_length_b 14.664012
_cell_length_c 12.525374
_cell_angle_alpha 90.000000
_cell_angle_beta 90.000000
_cell_angle_gamma 90.000000
_cell_volume 3881.734333
_symmetry_space_group_name_H-M "F D D 2"
_symmetry_group_IT_number 43
_symmetry_cell_setting 'orthorhombic'
loop_
_space_group_symop_operation_xyz
x,y,z
-x,-y,z
1/4-x,1/4+y,1/4+z
1/4+x,1/4-y,1/4+z
x,1/2+y,1/2+z
-x,1/2-y,1/2+z
1/4-x,3/4+y,3/4+z
1/4+x,3/4-y,3/4+z
1/2+x,y,1/2+z
1/2-x,-y,1/2+z
3/4-x,1/4+y,3/4+z
3/4+x,1/4-y,3/4+z
1/2+x,1/2+y,z
1/2-x,1/2-y,z
3/4-x,3/4+y,1/4+z
3/4+x,3/4-y,1/4+z
loop_
_atom_site_type_symbol
_atom_site_label
_atom_site_fract_x
_atom_site_fract_y
_atom_site_fract_z
Si Si1 0.621855 0.458210 0.246190
Si Si2 0.993271 0.610496 0.635107
Si Si3 0.156644 0.936890 0.629624
Si Si4 0.546219 0.342824 0.895506
Si Si5 0.642113 0.992121 0.360110
Si Si6 0.070550 0.534934 0.961014
O O1 0.563147 0.390653 0.220475
O O2 0.648353 0.516981 0.146916
O O3 0.599507 0.522216 0.342140
O O4 0.678019 0.386175 0.261185
O O5 0.970672 0.645971 0.520783
O O6 0.000000 0.500000 0.624740
O O7 0.053334 0.675796 0.659982
O O8 0.229189 0.926514 0.591567
O O9 0.158249 0.000409 0.734431
O O10 0.125101 0.839233 0.660532
O O11 0.112408 0.974547 0.538645
O O12 0.576983 0.436578 0.861647
O O13 0.000000 0.500000 0.955075
#
# Coordination Sequence:
#
# PCOD9372460 Si02
#       6
#    16  16  16  16  16  16
#     4  12  26  47  73 111 147 201 248 322 382 463
#     4  11  22  43  70 110 143 184 254 307 381 443
#     4  11  27  48  71 107 148 199 252 308 383 458
#     4  11  24  45  73 106 145 194 251 308 379 450
#     4  11  24  44  77 107 147 194 251 314 374 457
#     4  12  30  48  75 107 157 198 256 308 395 461
#
# _framework density 24.731213
#
# number of rings (size 3 to 8) (size 9 to 14) (size 15 to 20)
#    0.000    0.667    3.333    4.000    7.000    4.000 
#    0.000    0.000    0.000    0.000    0.000    0.000 
#    0.000    0.000    0.000    0.000    0.000    0.000 
#
# Total GULP energy -134155.616187 kJ/mol
# GULP energy per Si atom -5589.817341 kJ/mol
# Density = 2.467492 g / cm^3
# Si number density = 24.731213 Si / 1000 Ang^3
#
#
#
# Elastic Constant Matrix: (Units=GPa)
#
#
# Indices 1 2 3 4 5 6 
#
# 1 99.9479 29.4544 21.1680 0.0000 0.0000 0.0000
# 2 29.4544 88.2722 5.1397 0.0000 0.0000 0.0000
# 3 21.1680 5.1397 56.3494 0.0000 0.0000 0.0000
# 4 0.0000 0.0000 0.0000 56.4494 0.0000 0.0000
# 5 0.0000 0.0000 0.0000 0.0000 35.8182 0.0000
# 6 0.0000 0.0000 0.0000 0.0000 0.0000 37.1709
#
#
#
# Elastic Compliance Matrix: (Units=1/GPa)
#
#
# Indices 1 2 3 4 5 6 
#
# 1 0.011995 -0.003760 -0.004163 0.000000 0.000000 0.000000
# 2 -0.003760 0.012568 0.000266 0.000000 0.000000 0.000000
# 3 -0.004163 0.000266 0.019286 0.000000 0.000000 0.000000
# 4 0.000000 0.000000 0.000000 0.017715 0.000000 0.000000
# 5 0.000000 0.000000 0.000000 0.000000 0.027919 0.000000
# 6 0.000000 0.000000 0.000000 0.000000 0.000000 0.026903
#
#
# Mechanical properties :
#
#
# Convention : Reuss Voigt Hill
#
# Bulk Modulus (GPa) = 35.04482 39.56598 37.30540
# Shear Modulus (GPa) = 35.40807 38.47486 36.94147
#
# Velocity S-wave (km/s) = 3.78791 3.94854 3.86906
# Velocity P-wave (km/s) = 5.77339 6.06804 5.92255
#
# Compressibility (1/GPa) = 0.02853489
#
# Stress axis : x y z
#
# Youngs Moduli (GPa) = 83.36816 79.56884 51.85106
#
# Poissons Ratio (x) = 0.29918 0.21586
# Poissons Ratio (y) = 0.31347 -0.01380
# Poissons Ratio (z) = 0.34706 -0.02118
#
# Static dielectric constant tensor:
#      x y z
#    x 2.021910 0.000000 0.000000 
#    y 0.000000 1.781200 0.000000 
#    z 0.000000 0.000000 1.945690 
# 
# From -- ./inp_files/10066.got.cif
#   From: 2010.05.17/outbox.cif.g08.bks.cpg/sg43_6_cif.got.tgz:10066.got - 2010.06.03 19:21:55.
