data_PCOD9372837
_publ_section_title
;
Structure prediction by ZEFSAII (Michael W. Deem and Ramdas Pophale) SiO2 
 PCOD9372837
Probable space group: F D D 2
;
_chemical_formula_sum "Si O2"
_cell_formula_units_Z 88
_cell_length_a 10.833083
_cell_length_b 27.355855
_cell_length_c 11.059772
_cell_angle_alpha 90.000000
_cell_angle_beta 90.000000
_cell_angle_gamma 90.000000
_cell_volume 3277.544053
_symmetry_space_group_name_H-M "F D D 2"
_symmetry_group_IT_number 43
_symmetry_cell_setting 'orthorhombic'
loop_
_space_group_symop_operation_xyz
x,y,z
-x,-y,z
1/4-x,1/4+y,1/4+z
1/4+x,1/4-y,1/4+z
x,1/2+y,1/2+z
-x,1/2-y,1/2+z
1/4-x,3/4+y,3/4+z
1/4+x,3/4-y,3/4+z
1/2+x,y,1/2+z
1/2-x,-y,1/2+z
3/4-x,1/4+y,3/4+z
3/4+x,1/4-y,3/4+z
1/2+x,1/2+y,z
1/2-x,1/2-y,z
3/4-x,3/4+y,1/4+z
3/4+x,3/4-y,1/4+z
loop_
_atom_site_type_symbol
_atom_site_label
_atom_site_fract_x
_atom_site_fract_y
_atom_site_fract_z
Si Si1 0.000000 0.500000 0.724431
Si Si2 0.835267 0.677115 0.881978
Si Si3 0.560769 0.322332 0.906877
Si Si4 0.863004 0.812211 0.665663
Si Si5 0.092611 0.930813 0.845276
Si Si6 0.778727 0.001567 0.014772
O O1 0.884997 0.479691 0.641191
O O2 0.974790 0.549824 0.793817
O O3 0.732476 0.688166 0.780699
O O4 0.859087 0.619412 0.881798
O O5 0.549227 0.788252 0.852045
O O6 0.780273 0.687755 0.016166
O O7 0.603647 0.376899 0.902984
O O8 0.503711 0.310424 0.773513
O O9 0.453873 0.317294 0.001112
O O10 0.928801 0.756998 0.651894
O O11 0.112883 0.969239 0.949147
#
# Coordination Sequence:
#
# PCOD9372837 Si02
#       6
#     8  16  16  16  16  16
#     4  12  26  48  76 104 154 204 254 322 390 476
#     4  12  25  47  77 109 155 202 261 321 383 473
#     4  12  28  49  73 113 153 199 265 320 393 469
#     4  12  24  47  73 109 148 197 259 311 387 466
#     4  12  26  50  75 112 157 200 263 325 384 472
#     4  12  26  49  74 111 155 205 250 318 398 455
#
# _framework density 26.849374000000001
#
# number of rings (size 3 to 8) (size 9 to 14) (size 15 to 20)
#    0.000    0.000    7.273    1.091    5.091    0.000 
#    6.545    0.000    0.000    0.000    0.000    0.000 
#    0.000    0.000    0.000    0.000    0.000    0.000 
#
# Total GULP energy -122741.886539 kJ/mol
# GULP energy per Si atom -5579.176661 kJ/mol
# Density = 2.678826 g / cm^3
# Si number density = 26.849374 Si / 1000 Ang^3
#
#
#
# Elastic Constant Matrix: (Units=GPa)
#
#
# Indices 1 2 3 4 5 6 
#
# 1 114.5623 112.5646 49.2373 0.0000 0.0000 0.0000
# 2 112.5646 229.3651 100.7433 0.0000 0.0000 0.0000
# 3 49.2373 100.7433 125.1272 0.0000 0.0000 0.0000
# 4 0.0000 0.0000 0.0000 59.1127 0.0000 0.0000
# 5 0.0000 0.0000 0.0000 0.0000 33.6770 0.0000
# 6 0.0000 0.0000 0.0000 0.0000 0.0000 57.1885
#
#
#
# Elastic Compliance Matrix: (Units=1/GPa)
#
#
# Indices 1 2 3 4 5 6 
#
# 1 0.016858 -0.008292 0.000043 0.000000 0.000000 0.000000
# 2 -0.008292 0.010824 -0.005452 0.000000 0.000000 0.000000
# 3 0.000043 -0.005452 0.012364 0.000000 0.000000 0.000000
# 4 0.000000 0.000000 0.000000 0.016917 0.000000 0.000000
# 5 0.000000 0.000000 0.000000 0.000000 0.029694 0.000000
# 6 0.000000 0.000000 0.000000 0.000000 0.000000 0.017486
#
#
# Mechanical properties :
#
#
# Convention : Reuss Voigt Hill
#
# Bulk Modulus (GPa) = 79.08919 110.46057 94.77488
# Shear Modulus (GPa) = 36.82972 43.76292 40.29632
#
# Velocity S-wave (km/s) = 3.70769 4.04163 3.87826
# Velocity P-wave (km/s) = 6.91736 7.93788 7.44512
#
# Compressibility (1/GPa) = 0.01264395
#
# Stress axis : x y z
#
# Youngs Moduli (GPa) = 59.31895 92.38886 80.87736
#
# Poissons Ratio (x) = 0.76609 -0.00344
# Poissons Ratio (y) = 0.49187 0.44092
# Poissons Ratio (z) = -0.00252 0.50367
#
# Static dielectric constant tensor:
#      x y z
#    x 2.244210 0.000000 0.000000 
#    y 0.000000 1.993940 0.000000 
#    z 0.000000 0.000000 2.161620 
# 
# From -- ./inp_files/6225.got.cif
#   From: 2010.05.17/outbox.cif.g08.bks.cpg/sg43_4_cif.got.tgz:6225.got - 2010.06.03 19:21:55.
