data_PCOD9372640
_publ_section_title
;
Structure prediction by ZEFSAII (Michael W. Deem and Ramdas Pophale) SiO2 
 PCOD9372640
Probable space group: F D D 2
;
_chemical_formula_sum "Si O2"
_cell_formula_units_Z 80
_cell_length_a 18.455947
_cell_length_b 8.094630
_cell_length_c 22.422208
_cell_angle_alpha 90.000000
_cell_angle_beta 90.000000
_cell_angle_gamma 90.000000
_cell_volume 3349.744738
_symmetry_space_group_name_H-M "F D D 2"
_symmetry_group_IT_number 43
_symmetry_cell_setting 'orthorhombic'
loop_
_space_group_symop_operation_xyz
x,y,z
-x,-y,z
1/4-x,1/4+y,1/4+z
1/4+x,1/4-y,1/4+z
x,1/2+y,1/2+z
-x,1/2-y,1/2+z
1/4-x,3/4+y,3/4+z
1/4+x,3/4-y,3/4+z
1/2+x,y,1/2+z
1/2-x,-y,1/2+z
3/4-x,1/4+y,3/4+z
3/4+x,1/4-y,3/4+z
1/2+x,1/2+y,z
1/2-x,1/2-y,z
3/4-x,3/4+y,1/4+z
3/4+x,3/4-y,1/4+z
loop_
_atom_site_type_symbol
_atom_site_label
_atom_site_fract_x
_atom_site_fract_y
_atom_site_fract_z
Si Si1 0.250000 0.250000 0.414300
Si Si2 0.348919 0.397549 0.505444
Si Si3 0.054155 0.159564 0.998817
Si Si4 0.635425 0.947557 0.575029
Si Si5 0.250000 0.750000 0.250010
Si Si6 0.031825 0.682515 0.363612
O O1 0.279690 0.386095 0.461874
O O2 0.179832 0.247182 0.370727
O O3 0.365449 0.221205 0.537024
O O4 0.422183 0.452817 0.472215
O O5 0.333793 0.519150 0.560089
O O6 0.020595 0.322542 0.029794
O O7 0.063846 0.199522 0.929389
O O8 0.000000 0.000000 0.001833
O O9 0.127549 0.094954 0.027326
O O10 0.711887 0.951685 0.607221
O O11 0.000000 0.500000 0.358950
#
# Coordination Sequence:
#
# PCOD9372640 Si02
#       6
#     8  16  16  16   8  16
#     4  12  26  43  84 108 156 215 256 336 414 478
#     4  12  26  48  75 118 154 207 276 331 409 483
#     4  11  24  46  73 108 151 198 253 323 394 472
#     4  12  24  49  72 109 159 207 262 328 403 488
#     4  12  24  45  76 106 150 201 260 326 400 482
#     4  11  26  44  74 109 155 206 263 333 401 480
#
# _framework density 23.882418000000001
#
# number of rings (size 3 to 8) (size 9 to 14) (size 15 to 20)
#    0.000    0.400    5.000    2.400    8.400    0.000 
#    0.000    0.000    2.200    0.000    0.000    0.000 
#    0.000    0.000    0.000    0.000    0.000    0.000 
#
# Total GULP energy -111476.649639 kJ/mol
# GULP energy per Si atom -5573.832482 kJ/mol
# Density = 2.382806 g / cm^3
# Si number density = 23.882418 Si / 1000 Ang^3
#
#
#
# Elastic Constant Matrix: (Units=GPa)
#
#
# Indices 1 2 3 4 5 6 
#
# 1 91.8725 8.1636 41.1108 0.0000 0.0000 0.0000
# 2 8.1636 156.3770 27.9275 0.0000 0.0000 0.0000
# 3 41.1108 27.9275 142.1726 0.0000 0.0000 0.0000
# 4 0.0000 0.0000 0.0000 31.7552 0.0000 0.0000
# 5 0.0000 0.0000 0.0000 0.0000 -15.6829 0.0000
# 6 0.0000 0.0000 0.0000 0.0000 0.0000 48.0565
#
#
#
# Elastic Compliance Matrix: (Units=1/GPa)
#
#
# Indices 1 2 3 4 5 6 
#
# 1 0.012502 -0.000007 -0.003614 0.000000 0.000000 0.000000
# 2 -0.000007 0.006627 -0.001300 0.000000 0.000000 0.000000
# 3 -0.003614 -0.001300 0.008334 0.000000 0.000000 0.000000
# 4 0.000000 0.000000 0.000000 0.031491 0.000000 0.000000
# 5 0.000000 0.000000 0.000000 0.000000 -0.063764 0.000000
# 6 0.000000 0.000000 0.000000 0.000000 0.000000 0.020809
#
#
# Mechanical properties :
#
#
# Convention : Reuss Voigt Hill
#
# Bulk Modulus (GPa) = 56.74696 60.53621 58.64159
# Shear Modulus (GPa) = 157.65238 33.70710 95.67974
#
# Velocity S-wave (km/s) = 8.13359 3.76091 6.33639
# Velocity P-wave (km/s) = 10.58393 6.65296 8.83972
#
# Compressibility (1/GPa) = 0.01762209
#
# Stress axis : x y z
#
# Youngs Moduli (GPa) = 79.98477 150.89096 119.99081
#
# Poissons Ratio (x) = 0.00110 0.43362
# Poissons Ratio (y) = 0.00058 0.15595
# Poissons Ratio (z) = 0.28905 0.19611
#
# Static dielectric constant tensor:
#      x y z
#    x 1.963420 0.000000 0.000000 
#    y 0.000000 1.985430 0.000000 
#    z 0.000000 0.000000 1.954720 
# 
# From -- ./inp_files/22305.got.cif
#   From: 2010.05.17/outbox.cif.g08.bks.cpg/sg43_12_cif.got.tgz:22305.got - 2010.06.03 19:21:55.
