data_PCOD9372856
_publ_section_title
;
Structure prediction by ZEFSAII (Michael W. Deem and Ramdas Pophale) SiO2 
 PCOD9372856
Probable space group: F D D 2
;
_chemical_formula_sum "Si O2"
_cell_formula_units_Z 64
_cell_length_a 7.058954
_cell_length_b 21.411919
_cell_length_c 18.079743
_cell_angle_alpha 90.000000
_cell_angle_beta 90.000000
_cell_angle_gamma 90.000000
_cell_volume 2732.676339
_symmetry_space_group_name_H-M "F D D 2"
_symmetry_group_IT_number 43
_symmetry_cell_setting 'orthorhombic'
loop_
_space_group_symop_operation_xyz
x,y,z
-x,-y,z
1/4-x,1/4+y,1/4+z
1/4+x,1/4-y,1/4+z
x,1/2+y,1/2+z
-x,1/2-y,1/2+z
1/4-x,3/4+y,3/4+z
1/4+x,3/4-y,3/4+z
1/2+x,y,1/2+z
1/2-x,-y,1/2+z
3/4-x,1/4+y,3/4+z
3/4+x,1/4-y,3/4+z
1/2+x,1/2+y,z
1/2-x,1/2-y,z
3/4-x,3/4+y,1/4+z
3/4+x,3/4-y,1/4+z
loop_
_atom_site_type_symbol
_atom_site_label
_atom_site_fract_x
_atom_site_fract_y
_atom_site_fract_z
Si Si1 0.167700 0.042647 0.527330
Si Si2 0.359229 0.402869 0.798594
Si Si3 0.799315 0.652919 0.213193
Si Si4 0.972742 0.242543 0.937925
O O1 0.367194 0.056829 0.487480
O O2 0.212748 0.012703 0.606539
O O3 0.924716 0.890065 0.541518
O O4 0.000000 0.000000 0.491141
O O5 0.382462 0.424865 0.882680
O O6 0.532206 0.357117 0.772781
O O7 0.328839 0.461170 0.744390
O O8 0.751851 0.580240 0.200858
O O9 0.750000 0.250000 0.945610
#
# Coordination Sequence:
#
# PCOD9372856 Si02
#       4
#    16  16  16  16
#     4  12  26  49  79 114 156 205 262 323 391 470
#     4  12  25  49  78 112 153 206 263 318 393 464
#     4  12  27  49  77 113 156 207 260 324 394 464
#     4  12  24  51  82 109 156 211 257 324 400 469
#
# _framework density 23.420262999999998
#
# number of rings (size 3 to 8) (size 9 to 14) (size 15 to 20)
#    0.000    0.000    7.500    2.250    0.000    0.000 
#    9.000    0.000    0.000    0.000    0.000    0.000 
#    0.000    0.000    0.000    0.000    0.000    0.000 
#
# Total GULP energy -89587.283378 kJ/mol
# GULP energy per Si atom -5599.205211 kJ/mol
# Density = 2.336696 g / cm^3
# Si number density = 23.420263 Si / 1000 Ang^3
#
#
#
# Elastic Constant Matrix: (Units=GPa)
#
#
# Indices 1 2 3 4 5 6 
#
# 1 144.9507 45.3192 43.3542 0.0000 0.0000 0.0000
# 2 45.3192 133.1488 47.9030 0.0000 0.0000 0.0000
# 3 43.3542 47.9030 108.8556 0.0000 0.0000 0.0000
# 4 0.0000 0.0000 0.0000 55.4081 0.0000 0.0000
# 5 0.0000 0.0000 0.0000 0.0000 6.3444 0.0000
# 6 0.0000 0.0000 0.0000 0.0000 0.0000 68.5231
#
#
#
# Elastic Compliance Matrix: (Units=1/GPa)
#
#
# Indices 1 2 3 4 5 6 
#
# 1 0.008228 -0.001927 -0.002429 0.000000 0.000000 0.000000
# 2 -0.001927 0.009374 -0.003358 0.000000 0.000000 0.000000
# 3 -0.002429 -0.003358 0.011632 0.000000 0.000000 0.000000
# 4 0.000000 0.000000 0.000000 0.018048 0.000000 0.000000
# 5 0.000000 0.000000 0.000000 0.000000 0.157620 0.000000
# 6 0.000000 0.000000 0.000000 0.000000 0.000000 0.014594
#
#
# Mechanical properties :
#
#
# Convention : Reuss Voigt Hill
#
# Bulk Modulus (GPa) = 72.42985 73.34534 72.88760
# Shear Modulus (GPa) = 20.87467 42.74703 31.81085
#
# Velocity S-wave (km/s) = 2.98872 4.27689 3.68946
# Velocity P-wave (km/s) = 6.55005 7.46820 7.02415
#
# Compressibility (1/GPa) = 0.01380646
#
# Stress axis : x y z
#
# Youngs Moduli (GPa) = 121.53966 106.67576 85.97256
#
# Poissons Ratio (x) = 0.20551 0.20884
# Poissons Ratio (y) = 0.23415 0.28869
# Poissons Ratio (z) = 0.29523 0.35821
#
# Static dielectric constant tensor:
#      x y z
#    x 2.030380 0.000000 0.000000 
#    y 0.000000 1.889150 0.000000 
#    z 0.000000 0.000000 1.841580 
# 
# From -- ./inp_files/3097.got.cif
#   From: 2010.05.17/outbox.cif.g08.bks.cpg/sg43_2_cif.got.tgz:3097.got - 2010.06.03 19:21:55.
