data_PCOD9372666
_publ_section_title
;
Structure prediction by ZEFSAII (Michael W. Deem and Ramdas Pophale) SiO2 
 PCOD9372666
Probable space group: F D D 2
;
_chemical_formula_sum "Si O2"
_cell_formula_units_Z 64
_cell_length_a 9.951843
_cell_length_b 22.344047
_cell_length_c 9.839289
_cell_angle_alpha 90.000000
_cell_angle_beta 90.000000
_cell_angle_gamma 90.000000
_cell_volume 2187.908065
_symmetry_space_group_name_H-M "F D D 2"
_symmetry_group_IT_number 43
_symmetry_cell_setting 'orthorhombic'
loop_
_space_group_symop_operation_xyz
x,y,z
-x,-y,z
1/4-x,1/4+y,1/4+z
1/4+x,1/4-y,1/4+z
x,1/2+y,1/2+z
-x,1/2-y,1/2+z
1/4-x,3/4+y,3/4+z
1/4+x,3/4-y,3/4+z
1/2+x,y,1/2+z
1/2-x,-y,1/2+z
3/4-x,1/4+y,3/4+z
3/4+x,1/4-y,3/4+z
1/2+x,1/2+y,z
1/2-x,1/2-y,z
3/4-x,3/4+y,1/4+z
3/4+x,3/4-y,1/4+z
loop_
_atom_site_type_symbol
_atom_site_label
_atom_site_fract_x
_atom_site_fract_y
_atom_site_fract_z
Si Si1 0.583534 0.686308 0.672150
Si Si2 0.327465 0.689750 0.553375
Si Si3 0.440152 0.435682 0.129761
Si Si4 0.094646 0.315879 0.648244
O O1 0.488938 0.689939 0.538532
O O2 0.536228 0.623419 0.738463
O O3 0.744747 0.683463 0.671865
O O4 0.550725 0.754640 0.723100
O O5 0.250000 0.750000 0.507356
O O6 0.307414 0.686178 0.716772
O O7 0.500000 0.500000 0.166095
O O8 0.316436 0.436721 0.235577
O O9 0.518331 0.376392 0.182524
#
# Coordination Sequence:
#
# PCOD9372666 Si02
#       4
#    16  16  16  16
#     4  11  25  50  74 115 149 204 255 326 388 457
#     4  11  27  50  74 114 155 201 259 322 391 460
#     4  11  24  47  76 111 148 208 256 316 388 465
#     4  11  25  48  78 110 153 202 262 318 390 469
#
# _framework density 29.251687
#
# number of rings (size 3 to 8) (size 9 to 14) (size 15 to 20)
#    0.000    1.000    2.500    3.000   10.500    0.000 
#    9.000    0.000    5.500    0.000    0.000    0.000 
#    0.000    0.000    0.000    0.000    0.000    0.000 
#
# Total GULP energy -89248.408231 kJ/mol
# GULP energy per Si atom -5578.025514 kJ/mol
# Density = 2.918511 g / cm^3
# Si number density = 29.251687 Si / 1000 Ang^3
#
#
#
# Elastic Constant Matrix: (Units=GPa)
#
#
# Indices 1 2 3 4 5 6 
#
# 1 98.9658 76.1678 -2.7509 0.0000 0.0000 0.0000
# 2 76.1678 356.7129 77.4353 0.0000 0.0000 0.0000
# 3 -2.7509 77.4353 101.7372 0.0000 0.0000 0.0000
# 4 0.0000 0.0000 0.0000 61.1934 0.0000 0.0000
# 5 0.0000 0.0000 0.0000 0.0000 25.0693 0.0000
# 6 0.0000 0.0000 0.0000 0.0000 0.0000 72.5518
#
#
#
# Elastic Compliance Matrix: (Units=1/GPa)
#
#
# Indices 1 2 3 4 5 6 
#
# 1 0.012768 -0.003356 0.002899 0.000000 0.000000 0.000000
# 2 -0.003356 0.004240 -0.003318 0.000000 0.000000 0.000000
# 3 0.002899 -0.003318 0.012433 0.000000 0.000000 0.000000
# 4 0.000000 0.000000 0.000000 0.016342 0.000000 0.000000
# 5 0.000000 0.000000 0.000000 0.000000 0.039889 0.000000
# 6 0.000000 0.000000 0.000000 0.000000 0.000000 0.013783
#
#
# Mechanical properties :
#
#
# Convention : Reuss Voigt Hill
#
# Bulk Modulus (GPa) = 45.67831 95.45782 70.56806
# Shear Modulus (GPa) = 43.74394 58.86716 51.30555
#
# Velocity S-wave (km/s) = 3.87128 4.49089 4.19254
# Velocity P-wave (km/s) = 5.96925 7.71977 6.90024
#
# Compressibility (1/GPa) = 0.02189223
#
# Stress axis : x y z
#
# Youngs Moduli (GPa) = 78.32261 235.83916 80.43030
#
# Poissons Ratio (x) = 0.79139 -0.23319
# Poissons Ratio (y) = 0.26282 0.26687
# Poissons Ratio (z) = -0.22708 0.78253
#
# Static dielectric constant tensor:
#      x y z
#    x 2.505890 0.000000 0.000000 
#    y 0.000000 2.235220 0.000000 
#    z 0.000000 0.000000 2.359420 
# 
# From -- ./inp_files/5484.got.cif
#   From: 2010.05.17/outbox.cif.g08.bks.cpg/sg43_3_cif.got.tgz:5484.got - 2010.06.03 19:21:55.
