data_PCOD9372986
_publ_section_title
;
Structure prediction by ZEFSAII (Michael W. Deem and Ramdas Pophale) SiO2 
 PCOD9372986
Probable space group: F D D 2
;
_chemical_formula_sum "Si O2"
_cell_formula_units_Z 28
_cell_length_a 30.000000
_cell_length_b 15.000000
_cell_length_c 12.000000
_cell_angle_alpha 90.000000
_cell_angle_beta 90.000000
_cell_angle_gamma 90.000000
_cell_volume 5400.000000
_symmetry_space_group_name_H-M "F D D 2"
_symmetry_group_IT_number 43
_symmetry_cell_setting 'orthorhombic'
loop_
_space_group_symop_operation_xyz
x,y,z
-x,-y,z
1/4-x,1/4+y,1/4+z
1/4+x,1/4-y,1/4+z
x,1/2+y,1/2+z
-x,1/2-y,1/2+z
1/4-x,3/4+y,3/4+z
1/4+x,3/4-y,3/4+z
1/2+x,y,1/2+z
1/2-x,-y,1/2+z
3/4-x,1/4+y,3/4+z
3/4+x,1/4-y,3/4+z
1/2+x,1/2+y,z
1/2-x,1/2-y,z
3/4-x,3/4+y,1/4+z
3/4+x,3/4-y,1/4+z
loop_
_atom_site_type_symbol
_atom_site_label
_atom_site_fract_x
_atom_site_fract_y
_atom_site_fract_z
Si Si1 0.500000 0.500000 0.864590
Si Si2 0.587937 0.069827 0.612807
Si Si3 0.472745 0.763485 0.098057
Si Si4 0.922089 0.605167 0.495963
Si Si5 0.675154 0.333602 0.468118
Si Si6 0.102233 0.198931 0.909869
Si Si7 0.016430 0.305965 0.846914
Si Si8 0.000000 0.000000 0.250769
O O1 0.464926 0.561691 0.931935
O O2 0.530857 0.560310 0.787690
O O3 0.631743 0.098930 0.680115
O O4 0.582470 0.146186 0.517538
O O5 0.542193 0.039946 0.677770
O O6 0.600815 0.979227 0.551726
O O7 0.441452 0.848614 0.123707
O O8 0.496624 0.741261 0.222852
O O9 0.443216 0.675557 0.080278
O O10 0.493765 0.780927 0.970590
O O11 0.649208 0.245491 0.432365
O O12 0.643188 0.380882 0.557785
O O13 0.066532 0.271509 0.868038
O O14 0.013404 0.412277 0.823055
#
# Coordination Sequence:
#
# PCOD9372986 Si02
#       8
#     8  16  16  16  16  16  16   8
#     4  12  23  49  70 112 148 210 270 320 390 486
#     4  12  25  47  74 112 153 210 263 324 387 495
#     4  11  26  48  74 112 153 208 256 330 399 476
#     4  12  26  44  77 108 154 206 270 324 395 481
#     4  11  26  43  75 104 153 197 259 326 390 474
#     4  11  23  47  70 108 148 205 253 317 391 465
#     4  11  26  48  76 108 158 206 258 330 396 478
#     4  12  27  45  76 118 156 204 264 326 406 468
#
# _framework density 5.1851849999999997
#
# number of rings (size 3 to 8) (size 9 to 14) (size 15 to 20)
#    0.000    0.571    4.286    3.000    4.000    2.857 
#    5.143    0.000    0.000    0.000    0.000    0.000 
#    0.000    0.000    0.000    0.000    0.000    0.000 
#
# Total GULP energy -156040.484383 kJ/mol
# GULP energy per Si atom -5572.874442 kJ/mol
# Density = 0.517338 g / cm^3
# Si number density = 5.185185 Si / 1000 Ang^3
#
#
#
# Elastic Constant Matrix: (Units=GPa)
#
#
# Indices 1 2 3 4 5 6 
#
# 1 88.0269 35.3517 45.6360 0.0000 0.0000 0.0000
# 2 35.3517 134.2655 46.7585 0.0000 0.0000 0.0000
# 3 45.6360 46.7585 128.0553 0.0000 0.0000 0.0000
# 4 0.0000 0.0000 0.0000 58.5875 0.0000 0.0000
# 5 0.0000 0.0000 0.0000 0.0000 33.9070 0.0000
# 6 0.0000 0.0000 0.0000 0.0000 0.0000 46.2281
#
#
#
# Elastic Compliance Matrix: (Units=1/GPa)
#
#
# Indices 1 2 3 4 5 6 
#
# 1 0.014538 -0.002318 -0.004335 0.000000 0.000000 0.000000
# 2 -0.002318 0.008903 -0.002425 0.000000 0.000000 0.000000
# 3 -0.004335 -0.002425 0.010239 0.000000 0.000000 0.000000
# 4 0.000000 0.000000 0.000000 0.017068 0.000000 0.000000
# 5 0.000000 0.000000 0.000000 0.000000 0.029492 0.000000
# 6 0.000000 0.000000 0.000000 0.000000 0.000000 0.021632
#
#
# Mechanical properties :
#
#
# Convention : Reuss Voigt Hill
#
# Bulk Modulus (GPa) = 64.41123 67.31556 65.86340
# Shear Modulus (GPa) = 39.93504 42.58462 41.25983
#
# Velocity S-wave (km/s) = 4.39274 4.53613 4.46501
# Velocity P-wave (km/s) = 7.53997 7.74348 7.64240
#
# Compressibility (1/GPa) = 0.01552524
#
# Stress axis : x y z
#
# Youngs Moduli (GPa) = 68.78320 112.32530 97.66385
#
# Poissons Ratio (x) = 0.26041 0.42334
# Poissons Ratio (y) = 0.15946 0.23679
# Poissons Ratio (z) = 0.29815 0.27234
#
# Static dielectric constant tensor:
#      x y z
#    x 1.767120 0.000000 0.000000 
#    y 0.000000 1.769930 0.000000 
#    z 0.000000 0.000000 1.828000 
# 
# From -- ./inp_files/6357.got.cif
#   From: 2010.05.17/outbox.ucp.g08.bks.cvg/sg43_4_cif.got.tgz:6357.got - 2010.06.11 16:31:01.
