data_PCOD9372838
_publ_section_title
;
Structure prediction by ZEFSAII (Michael W. Deem and Ramdas Pophale) SiO2 
 PCOD9372838
Probable space group: F D D 2
;
_chemical_formula_sum "Si O2"
_cell_formula_units_Z 72
_cell_length_a 7.841950
_cell_length_b 22.781899
_cell_length_c 14.930902
_cell_angle_alpha 90.000000
_cell_angle_beta 90.000000
_cell_angle_gamma 90.000000
_cell_volume 2667.473023
_symmetry_space_group_name_H-M "F D D 2"
_symmetry_group_IT_number 43
_symmetry_cell_setting 'orthorhombic'
loop_
_space_group_symop_operation_xyz
x,y,z
-x,-y,z
1/4-x,1/4+y,1/4+z
1/4+x,1/4-y,1/4+z
x,1/2+y,1/2+z
-x,1/2-y,1/2+z
1/4-x,3/4+y,3/4+z
1/4+x,3/4-y,3/4+z
1/2+x,y,1/2+z
1/2-x,-y,1/2+z
3/4-x,1/4+y,3/4+z
3/4+x,1/4-y,3/4+z
1/2+x,1/2+y,z
1/2-x,1/2-y,z
3/4-x,3/4+y,1/4+z
3/4+x,3/4-y,1/4+z
loop_
_atom_site_type_symbol
_atom_site_label
_atom_site_fract_x
_atom_site_fract_y
_atom_site_fract_z
Si Si1 0.396604 0.704102 0.455670
Si Si2 0.500000 0.500000 0.363073
Si Si3 0.376388 0.401064 0.215489
Si Si4 0.732777 0.089469 0.402217
Si Si5 0.640199 0.202382 0.813041
O O1 0.250000 0.750000 0.466792
O O2 0.354342 0.644862 0.405237
O O3 0.441316 0.681597 0.553082
O O4 0.530739 0.734349 0.389318
O O5 0.409872 0.451553 0.293151
O O6 0.359898 0.534029 0.425504
O O7 0.187420 0.371995 0.194998
O O8 0.477228 0.416331 0.125343
O O9 0.461371 0.341037 0.251051
O O10 0.750000 0.250000 0.759218
#
# Coordination Sequence:
#
# PCOD9372838 Si02
#       5
#    16   8  16  16  16
#     4  12  25  49  77 110 157 213 264 328 406 472
#     4  12  24  52  80 114 170 202 266 344 400 476
#     4  12  26  48  79 109 157 206 263 329 401 471
#     4  12  26  48  78 112 154 211 264 327 405 480
#     4  12  24  47  73 111 153 200 260 332 391 475
#
# _framework density 26.991838999999999
#
# number of rings (size 3 to 8) (size 9 to 14) (size 15 to 20)
#    0.000    0.000    5.556    4.000    0.000    2.667 
#    6.000    0.000    0.000    0.000    0.000    0.000 
#    0.000    0.000    0.000    0.000    0.000    0.000 
#
# Total GULP energy -100332.681600 kJ/mol
# GULP energy per Si atom -5574.037867 kJ/mol
# Density = 2.693040 g / cm^3
# Si number density = 26.991839 Si / 1000 Ang^3
#
#
#
# Elastic Constant Matrix: (Units=GPa)
#
#
# Indices 1 2 3 4 5 6 
#
# 1 85.3171 -2.4183 14.7565 0.0000 0.0000 0.0000
# 2 -2.4183 124.0783 18.3582 0.0000 0.0000 0.0000
# 3 14.7565 18.3582 43.3338 0.0000 0.0000 0.0000
# 4 0.0000 0.0000 0.0000 47.6332 0.0000 0.0000
# 5 0.0000 0.0000 0.0000 0.0000 -20.4772 0.0000
# 6 0.0000 0.0000 0.0000 0.0000 0.0000 66.6959
#
#
#
# Elastic Compliance Matrix: (Units=1/GPa)
#
#
# Indices 1 2 3 4 5 6 
#
# 1 0.012556 0.000936 -0.004672 0.000000 0.000000 0.000000
# 2 0.000936 0.008668 -0.003991 0.000000 0.000000 0.000000
# 3 -0.004672 -0.003991 0.026358 0.000000 0.000000 0.000000
# 4 0.000000 0.000000 0.000000 0.020994 0.000000 0.000000
# 5 0.000000 0.000000 0.000000 0.000000 -0.048835 0.000000
# 6 0.000000 0.000000 0.000000 0.000000 0.000000 0.014993
#
#
# Mechanical properties :
#
#
# Convention : Reuss Voigt Hill
#
# Bulk Modulus (GPa) = 31.12547 34.90243 33.01395
# Shear Modulus (GPa) = 82.10462 33.57258 57.83860
#
# Velocity S-wave (km/s) = 5.52126 3.53059 4.63408
# Velocity P-wave (km/s) = 7.22511 5.43865 6.39457
#
# Compressibility (1/GPa) = 0.03212803
#
# Stress axis : x y z
#
# Youngs Moduli (GPa) = 79.64573 115.36477 37.93856
#
# Poissons Ratio (x) = -0.10798 0.17725
# Poissons Ratio (y) = -0.07455 0.15141
# Poissons Ratio (z) = 0.37211 0.46042
#
# Static dielectric constant tensor:
#      x y z
#    x 2.321620 0.000000 0.000000 
#    y 0.000000 2.145100 0.000000 
#    z 0.000000 0.000000 2.106710 
# 
# From -- ./inp_files/12552.got.cif
#   From: 2010.05.17/outbox.cif.g08.bks.cpg/sg43_7_cif.got.tgz:12552.got - 2010.06.03 19:21:55.
