data_PCOD9372983
_publ_section_title
;
Structure prediction by ZEFSAII (Michael W. Deem and Ramdas Pophale) SiO2 
 PCOD9372983
Probable space group: F D D 2
;
_chemical_formula_sum "Si O2"
_cell_formula_units_Z 30
_cell_length_a 9.000000
_cell_length_b 24.000000
_cell_length_c 27.000000
_cell_angle_alpha 90.000000
_cell_angle_beta 90.000000
_cell_angle_gamma 90.000000
_cell_volume 5832.000000
_symmetry_space_group_name_H-M "F D D 2"
_symmetry_group_IT_number 43
_symmetry_cell_setting 'orthorhombic'
loop_
_space_group_symop_operation_xyz
x,y,z
-x,-y,z
1/4-x,1/4+y,1/4+z
1/4+x,1/4-y,1/4+z
x,1/2+y,1/2+z
-x,1/2-y,1/2+z
1/4-x,3/4+y,3/4+z
1/4+x,3/4-y,3/4+z
1/2+x,y,1/2+z
1/2-x,-y,1/2+z
3/4-x,1/4+y,3/4+z
3/4+x,1/4-y,3/4+z
1/2+x,1/2+y,z
1/2-x,1/2-y,z
3/4-x,3/4+y,1/4+z
3/4+x,3/4-y,1/4+z
loop_
_atom_site_type_symbol
_atom_site_label
_atom_site_fract_x
_atom_site_fract_y
_atom_site_fract_z
Si Si1 0.000000 0.000000 0.740260
Si Si2 0.198611 0.656787 0.037589
Si Si3 0.592186 0.779546 0.791938
Si Si4 0.246992 0.923071 0.203407
Si Si5 0.326132 0.808831 0.858729
Si Si6 0.139848 0.540918 0.466257
Si Si7 0.211074 0.898295 0.778007
Si Si8 0.908091 0.558156 0.902381
O O1 0.887769 0.964761 0.704860
O O2 0.095463 0.951164 0.771434
O O3 0.155086 0.592946 0.022310
O O4 0.368000 0.667835 0.020723
O O5 0.184350 0.671465 0.095865
O O6 0.072837 0.687258 0.006864
O O7 0.750000 0.750000 0.800667
O O8 0.492322 0.794678 0.839336
O O9 0.498940 0.739399 0.755812
O O10 0.107777 0.930533 0.165936
O O11 0.299951 0.860349 0.188230
O O12 0.250000 0.750000 0.849427
O O13 0.241918 0.859022 0.828637
O O14 0.088435 0.600477 0.488664
O O15 0.236825 0.546596 0.416490
O O16 0.000000 0.500000 0.460221
O O17 0.000000 0.500000 0.910494
#
# Coordination Sequence:
#
# PCOD9372983 Si02
#       8
#     8  16  16  16  16  16  16  16
#     4  12  30  46  74 110 158 190 246 312 378 444
#     4  11  26  47  71 105 149 201 243 305 383 448
#     4  11  21  40  76 105 140 188 245 314 370 431
#     4  12  27  49  72 108 147 200 247 305 372 451
#     4  11  23  44  76 107 145 196 253 307 366 451
#     4  12  21  45  75 110 144 190 255 314 365 436
#     4  11  23  47  73 107 150 193 243 314 372 443
#     4  12  27  47  74 107 148 195 250 306 378 451
#
# _framework density 5.1440330000000003
#
# number of rings (size 3 to 8) (size 9 to 14) (size 15 to 20)
#    0.000    0.533    8.000    2.000    4.667    0.000 
#    1.200    1.333    0.000    0.000    0.000    0.000 
#    0.000    0.000    0.000    0.000    0.000    0.000 
#
# Total GULP energy -167106.840378 kJ/mol
# GULP energy per Si atom -5570.228013 kJ/mol
# Density = 0.513232 g / cm^3
# Si number density = 5.144033 Si / 1000 Ang^3
#
#
#
# Elastic Constant Matrix: (Units=GPa)
#
#
# Indices 1 2 3 4 5 6 
#
# 1 122.8986 63.4895 56.3092 0.0000 0.0000 0.0000
# 2 63.4895 148.6719 27.4699 0.0000 0.0000 0.0000
# 3 56.3092 27.4699 66.7106 0.0000 0.0000 0.0000
# 4 0.0000 0.0000 0.0000 17.3037 0.0000 0.0000
# 5 0.0000 0.0000 0.0000 0.0000 37.8927 0.0000
# 6 0.0000 0.0000 0.0000 0.0000 0.0000 44.8906
#
#
#
# Elastic Compliance Matrix: (Units=1/GPa)
#
#
# Indices 1 2 3 4 5 6 
#
# 1 0.015737 -0.004617 -0.011382 0.000000 0.000000 0.000000
# 2 -0.004617 0.008635 0.000342 0.000000 0.000000 0.000000
# 3 -0.011382 0.000342 0.024457 0.000000 0.000000 0.000000
# 4 0.000000 0.000000 0.000000 0.057791 0.000000 0.000000
# 5 0.000000 0.000000 0.000000 0.000000 0.026390 0.000000
# 6 0.000000 0.000000 0.000000 0.000000 0.000000 0.022276
#
#
# Mechanical properties :
#
#
# Convention : Reuss Voigt Hill
#
# Bulk Modulus (GPa) = 57.09893 70.31312 63.70602
# Shear Modulus (GPa) = 25.98214 32.75156 29.36685
#
# Velocity S-wave (km/s) = 3.55735 3.99397 3.78197
# Velocity P-wave (km/s) = 6.68456 7.45087 7.07809
#
# Compressibility (1/GPa) = 0.01751346
#
# Stress axis : x y z
#
# Youngs Moduli (GPa) = 63.54394 115.80909 40.88846
#
# Poissons Ratio (x) = 0.53474 0.46540
# Poissons Ratio (y) = 0.29341 -0.01398
# Poissons Ratio (z) = 0.72326 -0.03958
#
# Static dielectric constant tensor:
#      x y z
#    x 1.761000 0.000000 0.000000 
#    y 0.000000 1.797930 0.000000 
#    z 0.000000 0.000000 1.826510 
# 
# From -- ./inp_files/24482.got.cif
#   From: 2010.05.17/outbox.ucp.g08.bks.cvg/sg43_13_cif.got.tgz:24482.got - 2010.06.11 16:31:01.
