data_PCOD9372794
_publ_section_title
;
Structure prediction by ZEFSAII (Michael W. Deem and Ramdas Pophale) SiO2 
 PCOD9372794
Probable space group: F D D 2
;
_chemical_formula_sum "Si O2"
_cell_formula_units_Z 72
_cell_length_a 19.068172
_cell_length_b 26.733032
_cell_length_c 6.545993
_cell_angle_alpha 90.000000
_cell_angle_beta 90.000000
_cell_angle_gamma 90.000000
_cell_volume 3336.820274
_symmetry_space_group_name_H-M "F D D 2"
_symmetry_group_IT_number 43
_symmetry_cell_setting 'orthorhombic'
loop_
_space_group_symop_operation_xyz
x,y,z
-x,-y,z
1/4-x,1/4+y,1/4+z
1/4+x,1/4-y,1/4+z
x,1/2+y,1/2+z
-x,1/2-y,1/2+z
1/4-x,3/4+y,3/4+z
1/4+x,3/4-y,3/4+z
1/2+x,y,1/2+z
1/2-x,-y,1/2+z
3/4-x,1/4+y,3/4+z
3/4+x,1/4-y,3/4+z
1/2+x,1/2+y,z
1/2-x,1/2-y,z
3/4-x,3/4+y,1/4+z
3/4+x,3/4-y,1/4+z
loop_
_atom_site_type_symbol
_atom_site_label
_atom_site_fract_x
_atom_site_fract_y
_atom_site_fract_z
Si Si1 0.771230 0.822064 0.148040
Si Si2 0.696756 0.567888 0.256681
Si Si3 0.581678 0.237182 0.655549
Si Si4 0.000000 0.000000 0.257628
Si Si5 0.845720 0.208153 0.316244
O O1 0.781186 0.881010 0.149559
O O2 0.847217 0.795568 0.143873
O O3 0.742342 0.797719 0.359117
O O4 0.717329 0.808471 0.965631
O O5 0.764081 0.546950 0.376970
O O6 0.633107 0.580034 0.412225
O O7 0.675102 0.524332 0.097602
O O8 0.592733 0.271964 0.458682
O O9 0.065170 0.999658 0.413167
#
# Coordination Sequence:
#
# PCOD9372794 Si02
#       5
#    16  16  16   8  16
#     4  12  27  46  77 109 144 203 257 289 383 456
#     4  12  29  45  75 110 155 193 243 315 376 436
#     4  12  25  48  69 109 151 192 248 309 371 439
#     4  12  22  46  74 102 140 192 250 302 352 444
#     4  12  24  48  73 101 150 193 238 316 360 436
#
# _framework density 21.577428999999999
#
# number of rings (size 3 to 8) (size 9 to 14) (size 15 to 20)
#    0.000    0.000    8.889    0.000    6.222    5.333 
#    0.000    0.000    0.000    0.000    0.000    0.000 
#    0.000    0.000    0.000    0.000    0.000    0.000 
#
# Total GULP energy -100452.168760 kJ/mol
# GULP energy per Si atom -5580.676042 kJ/mol
# Density = 2.152832 g / cm^3
# Si number density = 21.577429 Si / 1000 Ang^3
#
#
#
# Elastic Constant Matrix: (Units=GPa)
#
#
# Indices 1 2 3 4 5 6 
#
# 1 134.0191 49.3012 69.5377 -0.0011 0.0013 -0.0006
# 2 49.3012 114.8544 41.8357 -0.0007 0.0013 -0.0006
# 3 69.5377 41.8357 114.6450 -0.0030 0.0047 -0.0015
# 4 -0.0011 -0.0007 -0.0030 3.7970 0.0009 -0.0014
# 5 0.0013 0.0013 0.0047 0.0009 31.9663 0.0013
# 6 -0.0006 -0.0006 -0.0015 -0.0014 0.0013 16.6973
#
#
#
# Elastic Compliance Matrix: (Units=1/GPa)
#
#
# Indices 1 2 3 4 5 6 
#
# 1 0.011615 -0.002791 -0.006027 -0.000002 0.000001 0.000000
# 2 -0.002791 0.010712 -0.002216 0.000000 0.000000 0.000000
# 3 -0.006027 -0.002216 0.013187 0.000008 -0.000002 0.000001
# 4 -0.000002 0.000000 0.000008 0.263368 -0.000007 0.000022
# 5 0.000001 0.000000 -0.000002 -0.000007 0.031283 -0.000002
# 6 0.000000 0.000000 0.000001 0.000022 -0.000002 0.059890
#
#
# Mechanical properties :
#
#
# Convention : Reuss Voigt Hill
#
# Bulk Modulus (GPa) = 74.36867 76.09640 75.23254
# Shear Modulus (GPa) = 12.00178 24.01502 18.00840
#
# Velocity S-wave (km/s) = 2.36099 3.33974 2.89207
# Velocity P-wave (km/s) = 6.47867 7.08626 6.78926
#
# Compressibility (1/GPa) = 0.01344652
#
# Stress axis : x y z
#
# Youngs Moduli (GPa) = 86.09301 93.35489 75.83246
#
# Poissons Ratio (x) = 0.26051 0.45704
# Poissons Ratio (y) = 0.24025 0.16807
# Poissons Ratio (z) = 0.51888 0.20690
#
# Static dielectric constant tensor:
#      x y z
#    x 1.827920 0.000000 0.000000 
#    y 0.000000 1.746880 0.000000 
#    z 0.000000 0.000000 1.807930 
# 
# From -- ./inp_files/724.got.cif
#   From: 2010.05.17/outbox.cif.g08.bks.cpg/sg43_1_cif.got.tgz:724.got - 2010.06.03 19:21:55.
