data_PCOD9372307
_publ_section_title
;
Structure prediction by ZEFSAII (Michael W. Deem and Ramdas Pophale) SiO2 
 PCOD9372307
Probable space group: F D D 2
;
_chemical_formula_sum "Si O2"
_cell_formula_units_Z 56
_cell_length_a 5.070353
_cell_length_b 34.828236
_cell_length_c 13.192218
_cell_angle_alpha 90.000000
_cell_angle_beta 90.000000
_cell_angle_gamma 90.000000
_cell_volume 2329.632917
_symmetry_space_group_name_H-M "F D D 2"
_symmetry_group_IT_number 43
_symmetry_cell_setting 'orthorhombic'
loop_
_space_group_symop_operation_xyz
x,y,z
-x,-y,z
1/4-x,1/4+y,1/4+z
1/4+x,1/4-y,1/4+z
x,1/2+y,1/2+z
-x,1/2-y,1/2+z
1/4-x,3/4+y,3/4+z
1/4+x,3/4-y,3/4+z
1/2+x,y,1/2+z
1/2-x,-y,1/2+z
3/4-x,1/4+y,3/4+z
3/4+x,1/4-y,3/4+z
1/2+x,1/2+y,z
1/2-x,1/2-y,z
3/4-x,3/4+y,1/4+z
3/4+x,3/4-y,1/4+z
loop_
_atom_site_type_symbol
_atom_site_label
_atom_site_fract_x
_atom_site_fract_y
_atom_site_fract_z
Si Si1 0.310927 0.441343 0.959710
Si Si2 0.483099 0.182305 0.985579
Si Si3 0.573708 0.850621 0.783065
Si Si4 0.250000 0.750000 0.859707
O O1 0.390534 0.445760 0.841729
O O2 0.530857 0.414425 0.012138
O O3 0.305939 0.478855 0.030424
O O4 0.025693 0.422094 0.962182
O O5 0.320815 0.162292 0.894297
O O6 0.618422 0.218433 0.931764
O O7 0.664603 0.145625 0.012636
#
# Coordination Sequence:
#
# PCOD9372307 Si02
#       4
#    16  16  16   8
#     4  11  27  48  70 109 145 191 237 305 357 438
#     4  11  25  47  76 107 146 194 240 309 356 438
#     4  11  26  44  76 106 140 188 252 287 366 432
#     4  10  28  46  72 112 150 188 246 296 382 420
#
# _framework density 24.038119999999999
#
# number of rings (size 3 to 8) (size 9 to 14) (size 15 to 20)
#    0.000    1.143    2.857    0.000    8.000   16.000 
#    0.000    0.000    0.000    0.000    0.000    0.000 
#    0.000    0.000    0.000    0.000    0.000    0.000 
#
# Total GULP energy -78164.233332 kJ/mol
# GULP energy per Si atom -5583.159524 kJ/mol
# Density = 2.398341 g / cm^3
# Si number density = 24.038120 Si / 1000 Ang^3
#
#
#
# Elastic Constant Matrix: (Units=GPa)
#
#
# Indices 1 2 3 4 5 6 
#
# 1 43.3670 20.8558 -9.9534 0.0000 0.0000 0.0000
# 2 20.8558 163.9319 49.8412 0.0000 0.0000 0.0000
# 3 -9.9534 49.8412 183.6978 0.0000 0.0000 0.0000
# 4 0.0000 0.0000 0.0000 51.2065 0.0000 0.0000
# 5 0.0000 0.0000 0.0000 0.0000 25.9684 0.0000
# 6 0.0000 0.0000 0.0000 0.0000 0.0000 18.3561
#
#
#
# Elastic Compliance Matrix: (Units=1/GPa)
#
#
# Indices 1 2 3 4 5 6 
#
# 1 0.025550 -0.004002 0.002470 0.000000 0.000000 0.000000
# 2 -0.004002 0.007275 -0.002191 0.000000 0.000000 0.000000
# 3 0.002470 -0.002191 0.006172 0.000000 0.000000 0.000000
# 4 0.000000 0.000000 0.000000 0.019529 0.000000 0.000000
# 5 0.000000 0.000000 0.000000 0.000000 0.038508 0.000000
# 6 0.000000 0.000000 0.000000 0.000000 0.000000 0.054478
#
#
# Mechanical properties :
#
#
# Convention : Reuss Voigt Hill
#
# Bulk Modulus (GPa) = 31.69258 56.94266 44.31762
# Shear Modulus (GPa) = 29.50297 41.12307 35.31302
#
# Velocity S-wave (km/s) = 3.50714 4.14060 3.83697
# Velocity P-wave (km/s) = 5.44178 6.82637 6.17302
#
# Compressibility (1/GPa) = 0.03155313
#
# Stress axis : x y z
#
# Youngs Moduli (GPa) = 39.13843 137.45226 162.02301
#
# Poissons Ratio (x) = 0.55003 -0.40022
# Poissons Ratio (y) = 0.15662 0.35495
# Poissons Ratio (z) = -0.09668 0.30112
#
# Static dielectric constant tensor:
#      x y z
#    x 1.930600 0.000000 0.000000 
#    y 0.000000 1.942000 0.000000 
#    z 0.000000 0.000000 2.003120 
# 
# From -- ./inp_files/8611.got.cif
#   From: 2010.05.17/outbox.cif.g08.bks.cpg/sg43_5_cif.got.tgz:8611.got - 2010.06.03 19:21:55.
