data_PCOD9372953
_publ_section_title
;
Structure prediction by ZEFSAII (Michael W. Deem and Ramdas Pophale) SiO2 
 PCOD9372953
Probable space group: F D D 2
;
_chemical_formula_sum "Si O2"
_cell_formula_units_Z 80
_cell_length_a 23.549134
_cell_length_b 23.118890
_cell_length_c 6.122697
_cell_angle_alpha 90.000000
_cell_angle_beta 90.000000
_cell_angle_gamma 90.000000
_cell_volume 3333.378939
_symmetry_space_group_name_H-M "F D D 2"
_symmetry_group_IT_number 43
_symmetry_cell_setting 'orthorhombic'
loop_
_space_group_symop_operation_xyz
x,y,z
-x,-y,z
1/4-x,1/4+y,1/4+z
1/4+x,1/4-y,1/4+z
x,1/2+y,1/2+z
-x,1/2-y,1/2+z
1/4-x,3/4+y,3/4+z
1/4+x,3/4-y,3/4+z
1/2+x,y,1/2+z
1/2-x,-y,1/2+z
3/4-x,1/4+y,3/4+z
3/4+x,1/4-y,3/4+z
1/2+x,1/2+y,z
1/2-x,1/2-y,z
3/4-x,3/4+y,1/4+z
3/4+x,3/4-y,1/4+z
loop_
_atom_site_type_symbol
_atom_site_label
_atom_site_fract_x
_atom_site_fract_y
_atom_site_fract_z
Si Si1 0.045871 0.333176 0.277170
Si Si2 0.080670 0.939997 0.010041
Si Si3 0.915954 0.446457 0.745092
Si Si4 0.063477 0.163474 0.004464
Si Si5 0.863906 0.900913 0.634798
O O1 0.043716 0.402116 0.340285
O O2 0.102461 0.310759 0.395498
O O3 0.990751 0.307620 0.393717
O O4 0.059559 0.327256 0.021832
O O5 0.139939 0.951160 0.880779
O O6 0.094681 0.896358 0.208449
O O7 0.060400 0.997960 0.124044
O O8 0.949805 0.388559 0.676638
O O9 0.902375 0.447030 0.002456
O O10 0.096296 0.131289 0.808464
#
# Coordination Sequence:
#
# PCOD9372953 Si02
#       5
#    16  16  16  16  16
#     4   9  19  36  55  77 112 145 183 233 278 332
#     4   9  19  36  55  78 110 147 185 230 279 334
#     4   9  19  36  55  77 112 145 183 233 278 332
#     4   9  19  36  55  78 110 147 185 230 279 334
#     4   8  18  32  54  78 110 146 176 236 284 320
#
# _framework density 23.999673999999999
#
# number of rings (size 3 to 8) (size 9 to 14) (size 15 to 20)
#    0.000    4.000    0.000    0.000    0.000   13.600 
#    3.600    0.000    0.000    0.000    0.000    0.000 
#    0.000    0.000    0.000    0.000    0.000    0.000 
#
# Total GULP energy -111485.199914 kJ/mol
# GULP energy per Si atom -5574.259996 kJ/mol
# Density = 2.394505 g / cm^3
# Si number density = 23.999674 Si / 1000 Ang^3
#
#
#
# Elastic Constant Matrix: (Units=GPa)
#
#
# Indices 1 2 3 4 5 6 
#
# 1 114.0327 0.8262 36.2914 -0.0125 0.0092 0.0084
# 2 0.8262 71.6977 23.9387 -0.0327 0.0238 0.0235
# 3 36.2914 23.9387 137.2016 -0.0401 0.0247 0.0217
# 4 -0.0125 -0.0327 -0.0401 34.4422 0.0162 0.0179
# 5 0.0092 0.0238 0.0247 0.0162 32.3210 -0.0129
# 6 0.0084 0.0235 0.0217 0.0179 -0.0129 5.1882
#
#
#
# Elastic Compliance Matrix: (Units=1/GPa)
#
#
# Indices 1 2 3 4 5 6 
#
# 1 0.009617 0.000784 -0.002681 0.000001 -0.000001 -0.000008
# 2 0.000784 0.014874 -0.002803 0.000011 -0.000009 -0.000057
# 3 -0.002681 -0.002803 0.008487 0.000006 -0.000004 -0.000018
# 4 0.000001 0.000011 0.000006 0.029034 -0.000015 -0.000100
# 5 -0.000001 -0.000009 -0.000004 -0.000015 0.030940 0.000077
# 6 -0.000008 -0.000057 -0.000018 -0.000100 0.000077 0.192747
#
#
# Mechanical properties :
#
#
# Convention : Reuss Voigt Hill
#
# Bulk Modulus (GPa) = 42.40961 49.44941 45.92951
# Shear Modulus (GPa) = 16.50403 31.84865 24.17634
#
# Velocity S-wave (km/s) = 2.62520 3.64681 3.17734
# Velocity P-wave (km/s) = 5.18635 6.19526 5.71312
#
# Compressibility (1/GPa) = 0.02357956
#
# Stress axis : x y z
#
# Youngs Moduli (GPa) = 103.98426 67.23053 117.83292
#
# Poissons Ratio (x) = -0.05272 0.31586
# Poissons Ratio (y) = -0.08154 0.33024
# Poissons Ratio (z) = 0.27874 0.18842
#
# Static dielectric constant tensor:
#      x y z
#    x 1.986420 0.000000 0.000000 
#    y 0.000000 2.042130 0.000000 
#    z 0.000000 0.000000 1.975660 
# 
# From -- ./inp_files/1191.got.cif
#   From: 2010.05.17/outbox.cif.g08.bks.cpg/sg43_1_cif.got.tgz:1191.got - 2010.06.03 19:21:55.
