data_PCOD9372410
_publ_section_title
;
Structure prediction by ZEFSAII (Michael W. Deem and Ramdas Pophale) SiO2 
 PCOD9372410
Probable space group: F D D 2
;
_chemical_formula_sum "Si O2"
_cell_formula_units_Z 64
_cell_length_a 21.358879
_cell_length_b 5.455049
_cell_length_c 21.396388
_cell_angle_alpha 90.000000
_cell_angle_beta 90.000000
_cell_angle_gamma 90.000000
_cell_volume 2492.973007
_symmetry_space_group_name_H-M "F D D 2"
_symmetry_group_IT_number 43
_symmetry_cell_setting 'orthorhombic'
loop_
_space_group_symop_operation_xyz
x,y,z
-x,-y,z
1/4-x,1/4+y,1/4+z
1/4+x,1/4-y,1/4+z
x,1/2+y,1/2+z
-x,1/2-y,1/2+z
1/4-x,3/4+y,3/4+z
1/4+x,3/4-y,3/4+z
1/2+x,y,1/2+z
1/2-x,-y,1/2+z
3/4-x,1/4+y,3/4+z
3/4+x,1/4-y,3/4+z
1/2+x,1/2+y,z
1/2-x,1/2-y,z
3/4-x,3/4+y,1/4+z
3/4+x,3/4-y,1/4+z
loop_
_atom_site_type_symbol
_atom_site_label
_atom_site_fract_x
_atom_site_fract_y
_atom_site_fract_z
Si Si1 0.683373 0.663653 0.513140
Si Si2 0.948384 0.310071 0.954653
Si Si3 0.982040 0.246902 0.587912
Si Si4 0.413961 0.570213 0.833765
O O1 0.750000 0.750000 0.487847
O O2 0.623346 0.607994 0.469012
O O3 0.695770 0.412097 0.550677
O O4 0.665411 0.904912 0.554622
O O5 0.936774 0.095940 0.905058
O O6 0.000000 0.500000 0.927447
O O7 0.979338 0.254658 0.022228
O O8 0.908538 0.244322 0.579583
O O9 0.000000 0.500000 0.617303
O O10 0.000000 0.000000 0.623382
#
# Coordination Sequence:
#
# PCOD9372410 Si02
#       4
#    16  16  16  16
#     4  12  27  49  70 115 165 196 272 353 392 500
#     4  11  25  49  83 111 159 223 270 329 430 488
#     4  11  21  44  74 103 154 202 263 334 391 488
#     4  12  25  47  79 111 153 211 272 329 410 492
#
# _framework density 25.672158
#
# number of rings (size 3 to 8) (size 9 to 14) (size 15 to 20)
#    0.000    0.500    7.500    1.500    0.000    9.000 
#    0.000    2.500    0.000    0.000    0.000    0.000 
#    0.000    0.000    0.000    0.000    0.000    0.000 
#
# Total GULP energy -89441.742658 kJ/mol
# GULP energy per Si atom -5590.108916 kJ/mol
# Density = 2.561373 g / cm^3
# Si number density = 25.672158 Si / 1000 Ang^3
#
#
#
# Elastic Constant Matrix: (Units=GPa)
#
#
# Indices 1 2 3 4 5 6 
#
# 1 213.4381 51.2985 51.4182 -0.0001 -0.0002 0.0004
# 2 51.2985 221.0730 46.0600 0.0000 0.0002 0.0001
# 3 51.4182 46.0600 103.7687 0.0000 0.0001 -0.0001
# 4 -0.0001 0.0000 0.0000 9.8650 0.0000 0.0000
# 5 -0.0002 0.0002 0.0001 0.0000 4.1163 0.0001
# 6 0.0004 0.0001 -0.0001 0.0000 0.0001 61.7780
#
#
#
# Elastic Compliance Matrix: (Units=1/GPa)
#
#
# Indices 1 2 3 4 5 6 
#
# 1 0.005437 -0.000772 -0.002352 0.000000 0.000000 0.000000
# 2 -0.000772 0.005094 -0.001879 0.000000 0.000000 0.000000
# 3 -0.002352 -0.001879 0.011636 0.000000 0.000000 0.000000
# 4 0.000000 0.000000 0.000000 0.101368 0.000000 0.000000
# 5 0.000000 0.000000 0.000000 0.000000 0.242935 0.000000
# 6 0.000000 0.000000 0.000000 0.000000 0.000000 0.016187
#
#
# Mechanical properties :
#
#
# Convention : Reuss Voigt Hill
#
# Bulk Modulus (GPa) = 82.21619 92.87033 87.54326
# Shear Modulus (GPa) = 12.60348 41.11874 26.86111
#
# Velocity S-wave (km/s) = 2.21812 4.00645 3.23819
# Velocity P-wave (km/s) = 6.21732 7.59317 6.93943
#
# Compressibility (1/GPa) = 0.01216305
#
# Stress axis : x y z
#
# Youngs Moduli (GPa) = 183.91842 196.31427 85.94054
#
# Poissons Ratio (x) = 0.15150 0.20210
# Poissons Ratio (y) = 0.14193 0.16145
# Poissons Ratio (z) = 0.43251 0.36880
#
# Static dielectric constant tensor:
#      x y z
#    x 2.054420 0.000000 0.000000 
#    y 0.000000 2.103380 0.000000 
#    z 0.000000 0.000000 1.999290 
# 
# From -- ./inp_files/19332.got.cif
#   From: 2010.05.17/outbox.cif.g08.bks.cpg/sg43_10_cif.got.tgz:19332.got - 2010.06.03 19:21:55.
