data_PCOD9372245
_publ_section_title
;
Structure prediction by ZEFSAII (Michael W. Deem and Ramdas Pophale) SiO2 
 PCOD9372245
Probable space group: F D D 2
;
_chemical_formula_sum "Si O2"
_cell_formula_units_Z 112
_cell_length_a 12.624098
_cell_length_b 13.084083
_cell_length_c 28.516925
_cell_angle_alpha 90.000000
_cell_angle_beta 90.000000
_cell_angle_gamma 90.000000
_cell_volume 4710.275844
_symmetry_space_group_name_H-M "F D D 2"
_symmetry_group_IT_number 43
_symmetry_cell_setting 'orthorhombic'
loop_
_space_group_symop_operation_xyz
x,y,z
-x,-y,z
1/4-x,1/4+y,1/4+z
1/4+x,1/4-y,1/4+z
x,1/2+y,1/2+z
-x,1/2-y,1/2+z
1/4-x,3/4+y,3/4+z
1/4+x,3/4-y,3/4+z
1/2+x,y,1/2+z
1/2-x,-y,1/2+z
3/4-x,1/4+y,3/4+z
3/4+x,1/4-y,3/4+z
1/2+x,1/2+y,z
1/2-x,1/2-y,z
3/4-x,3/4+y,1/4+z
3/4+x,3/4-y,1/4+z
loop_
_atom_site_type_symbol
_atom_site_label
_atom_site_fract_x
_atom_site_fract_y
_atom_site_fract_z
Si Si1 0.479235 0.618551 0.206710
Si Si2 0.930539 0.769489 0.298656
Si Si3 0.148925 0.183278 0.823609
Si Si4 0.628114 0.274454 0.078886
Si Si5 0.660871 0.671725 0.987446
Si Si6 0.282008 0.458429 0.897667
Si Si7 0.240689 0.919106 0.241483
O O1 0.500000 0.500000 0.203875
O O2 0.527659 0.665990 0.253958
O O3 0.543731 0.677320 0.166501
O O4 0.350730 0.630196 0.209562
O O5 0.037796 0.739399 0.325593
O O6 0.862998 0.852580 0.327352
O O7 0.883733 0.664967 0.276255
O O8 0.250000 0.250000 0.840524
O O9 0.144968 0.083443 0.856219
O O10 0.179292 0.155606 0.769731
O O11 0.750000 0.250000 0.076256
O O12 0.582257 0.216930 0.123856
O O13 0.572266 0.223108 0.034253
O O14 0.750000 0.750000 0.006131
O O15 0.708110 0.614320 0.942289
O O16 0.561984 0.740196 0.970927
#
# Coordination Sequence:
#
# PCOD9372245 Si02
#       7
#    16  16  16  16  16  16  16
#     4  11  21  44  67 100 131 178 234 287 333 413
#     4  11  20  39  71  93 129 175 236 279 331 404
#     4  11  20  39  67 100 131 174 224 290 330 405
#     4  11  21  44  70 104 125 176 241 289 335 407
#     4  11  24  41  60 103 139 175 222 283 342 412
#     4  10  26  40  62  99 148 171 217 286 357 395
#     4  11  21  39  71  94 132 179 233 275 336 402
#
# _framework density 23.777799999999999
#
# number of rings (size 3 to 8) (size 9 to 14) (size 15 to 20)
#    0.000    1.143    5.714    1.286    0.000    2.857 
#    5.143    0.000    6.286    0.000    0.000    0.000 
#    0.000    0.000    0.000    0.000    0.000    0.000 
#
# Total GULP energy -156439.482703 kJ/mol
# GULP energy per Si atom -5587.124382 kJ/mol
# Density = 2.372368 g / cm^3
# Si number density = 23.777800 Si / 1000 Ang^3
#
#
#
# Elastic Constant Matrix: (Units=GPa)
#
#
# Indices 1 2 3 4 5 6 
#
# 1 42.1028 3.1414 14.6717 0.0000 0.0000 0.0000
# 2 3.1414 114.3120 30.8980 0.0000 0.0000 0.0000
# 3 14.6717 30.8980 57.6433 0.0000 0.0000 0.0000
# 4 0.0000 0.0000 0.0000 17.9486 0.0000 0.0000
# 5 0.0000 0.0000 0.0000 0.0000 9.7382 0.0000
# 6 0.0000 0.0000 0.0000 0.0000 0.0000 39.1781
#
#
#
# Elastic Compliance Matrix: (Units=1/GPa)
#
#
# Indices 1 2 3 4 5 6 
#
# 1 0.026219 0.001267 -0.007352 0.000000 0.000000 0.000000
# 2 0.001267 0.010291 -0.005839 0.000000 0.000000 0.000000
# 3 -0.007352 -0.005839 0.022349 0.000000 0.000000 0.000000
# 4 0.000000 0.000000 0.000000 0.055715 0.000000 0.000000
# 5 0.000000 0.000000 0.000000 0.000000 0.102688 0.000000
# 6 0.000000 0.000000 0.000000 0.000000 0.000000 0.025524
#
#
# Mechanical properties :
#
#
# Convention : Reuss Voigt Hill
#
# Bulk Modulus (GPa) = 28.56272 34.60891 31.58581
# Shear Modulus (GPa) = 17.96582 24.39611 21.18096
#
# Velocity S-wave (km/s) = 2.75175 3.20660 2.98784
# Velocity P-wave (km/s) = 4.70474 5.31944 5.02151
#
# Compressibility (1/GPa) = 0.03501067
#
# Stress axis : x y z
#
# Youngs Moduli (GPa) = 38.14025 97.16861 44.74430
#
# Poissons Ratio (x) = -0.12310 0.32898
# Poissons Ratio (y) = -0.04832 0.26125
# Poissons Ratio (z) = 0.28042 0.56735
#
# Static dielectric constant tensor:
#      x y z
#    x 1.913870 0.000000 0.000000 
#    y 0.000000 1.982090 0.000000 
#    z 0.000000 0.000000 1.948160 
# 
# From -- ./inp_files/29080.got.cif
#   From: 2010.05.17/outbox.cif.g08.bks.cpg/sg43_15_cif.got.tgz:29080.got - 2010.06.03 19:21:55.
