data_PCOD9372180
_publ_section_title
;
Structure prediction by ZEFSAII (Michael W. Deem and Ramdas Pophale) SiO2 
 PCOD9372180
Probable space group: F D D 2
;
_chemical_formula_sum "Si O2"
_cell_formula_units_Z 64
_cell_length_a 6.688435
_cell_length_b 23.345497
_cell_length_c 17.527710
_cell_angle_alpha 90.000000
_cell_angle_beta 90.000000
_cell_angle_gamma 90.000000
_cell_volume 2736.861460
_symmetry_space_group_name_H-M "F D D 2"
_symmetry_group_IT_number 43
_symmetry_cell_setting 'orthorhombic'
loop_
_space_group_symop_operation_xyz
x,y,z
-x,-y,z
1/4-x,1/4+y,1/4+z
1/4+x,1/4-y,1/4+z
x,1/2+y,1/2+z
-x,1/2-y,1/2+z
1/4-x,3/4+y,3/4+z
1/4+x,3/4-y,3/4+z
1/2+x,y,1/2+z
1/2-x,-y,1/2+z
3/4-x,1/4+y,3/4+z
3/4+x,1/4-y,3/4+z
1/2+x,1/2+y,z
1/2-x,1/2-y,z
3/4-x,3/4+y,1/4+z
3/4+x,3/4-y,1/4+z
loop_
_atom_site_type_symbol
_atom_site_label
_atom_site_fract_x
_atom_site_fract_y
_atom_site_fract_z
Si Si1 0.917364 0.670219 0.622900
Si Si2 0.250000 0.750000 0.910913
Si Si3 0.824366 0.920206 0.040155
Si Si4 0.416157 0.351227 0.515134
Si Si5 0.000000 0.500000 0.410684
O O1 0.006444 0.622519 0.567933
O O2 0.068259 0.722662 0.613789
O O3 0.691813 0.668493 0.592893
O O4 0.924755 0.651588 0.710921
O O5 0.413607 0.718117 0.857169
O O6 0.373487 0.795933 0.961181
O O7 0.629582 0.880115 0.033191
O O8 0.893977 0.952745 0.964444
#
# Coordination Sequence:
#
# PCOD9372180 Si02
#       5
#    16   8  16  16   8
#     4  11  25  46  69 113 147 190 264 309 377 470
#     4   9  24  48  74 112 150 195 258 302 389 458
#     4  10  24  49  71 106 153 198 249 324 374 453
#     4  11  25  45  76 108 150 197 253 314 380 462
#     4  11  24  48  76 104 152 205 248 318 397 446
#
# _framework density 23.384450000000001
#
# number of rings (size 3 to 8) (size 9 to 14) (size 15 to 20)
#    0.000    1.500    2.500    0.000    7.000    1.000 
#    0.000    5.000    0.000    0.000    0.000    0.000 
#    0.000    0.000    0.000    0.000    0.000    0.000 
#
# Total GULP energy -89212.118542 kJ/mol
# GULP energy per Si atom -5575.757409 kJ/mol
# Density = 2.333123 g / cm^3
# Si number density = 23.384450 Si / 1000 Ang^3
#
#
#
# Elastic Constant Matrix: (Units=GPa)
#
#
# Indices 1 2 3 4 5 6 
#
# 1 137.8630 54.5461 60.1015 0.0000 0.0000 0.0000
# 2 54.5461 83.9879 23.7786 0.0000 0.0000 0.0000
# 3 60.1015 23.7786 86.2891 0.0000 0.0000 0.0000
# 4 0.0000 0.0000 0.0000 -6.5144 0.0000 0.0000
# 5 0.0000 0.0000 0.0000 0.0000 26.3109 0.0000
# 6 0.0000 0.0000 0.0000 0.0000 0.0000 61.2473
#
#
#
# Elastic Compliance Matrix: (Units=1/GPa)
#
#
# Indices 1 2 3 4 5 6 
#
# 1 0.012925 -0.006340 -0.007255 0.000000 0.000000 0.000000
# 2 -0.006340 0.016024 0.000000 0.000000 0.000000 0.000000
# 3 -0.007255 0.000000 0.016642 0.000000 0.000000 0.000000
# 4 0.000000 0.000000 0.000000 -0.153507 0.000000 0.000000
# 5 0.000000 0.000000 0.000000 0.000000 0.038007 0.000000
# 6 0.000000 0.000000 0.000000 0.000000 0.000000 0.016327
#
#
# Mechanical properties :
#
#
# Convention : Reuss Voigt Hill
#
# Bulk Modulus (GPa) = 54.34488 64.99917 59.67202
# Shear Modulus (GPa) = -246.82011 27.52304 -109.64854
#
# Velocity S-wave (km/s) = -10.28484 3.43444 -6.85502
# Velocity P-wave (km/s) = 10.85113 6.60177 6.08949
#
# Compressibility (1/GPa) = 0.01840100
#
# Stress axis : x y z
#
# Youngs Moduli (GPa) = 77.36935 62.40654 60.08780
#
# Poissons Ratio (x) = 0.39566 0.43596
# Poissons Ratio (y) = 0.49053 -0.00001
# Poissons Ratio (z) = 0.56134 -0.00001
#
# Static dielectric constant tensor:
#      x y z
#    x 1.951930 0.000000 0.000000 
#    y 0.000000 1.938090 0.000000 
#    z 0.000000 0.000000 1.897040 
# 
# From -- ./inp_files/12161.got.cif
#   From: 2010.05.17/outbox.cif.g08.bks.cpg/sg43_7_cif.got.tgz:12161.got - 2010.06.03 19:21:55.
