data_PCOD9372719
_publ_section_title
;
Structure prediction by ZEFSAII (Michael W. Deem and Ramdas Pophale) SiO2 
 PCOD9372719
Probable space group: F D D 2
;
_chemical_formula_sum "Si O2"
_cell_formula_units_Z 80
_cell_length_a 15.479553
_cell_length_b 21.755614
_cell_length_c 9.752982
_cell_angle_alpha 90.000000
_cell_angle_beta 90.000000
_cell_angle_gamma 90.000000
_cell_volume 3284.484244
_symmetry_space_group_name_H-M "F D D 2"
_symmetry_group_IT_number 43
_symmetry_cell_setting 'orthorhombic'
loop_
_space_group_symop_operation_xyz
x,y,z
-x,-y,z
1/4-x,1/4+y,1/4+z
1/4+x,1/4-y,1/4+z
x,1/2+y,1/2+z
-x,1/2-y,1/2+z
1/4-x,3/4+y,3/4+z
1/4+x,3/4-y,3/4+z
1/2+x,y,1/2+z
1/2-x,-y,1/2+z
3/4-x,1/4+y,3/4+z
3/4+x,1/4-y,3/4+z
1/2+x,1/2+y,z
1/2-x,1/2-y,z
3/4-x,3/4+y,1/4+z
3/4+x,3/4-y,1/4+z
loop_
_atom_site_type_symbol
_atom_site_label
_atom_site_fract_x
_atom_site_fract_y
_atom_site_fract_z
Si Si1 0.909097 0.133444 0.139440
Si Si2 0.519848 0.428387 0.399695
Si Si3 0.282945 0.571842 0.480486
Si Si4 0.733182 0.988050 0.251269
Si Si5 0.058003 0.939376 0.869137
O O1 0.818366 0.150598 0.209393
O O2 0.970329 0.106145 0.255154
O O3 0.944192 0.194784 0.068046
O O4 0.909708 0.084289 0.016700
O O5 0.500000 0.500000 0.380373
O O6 0.613325 0.423288 0.470049
O O7 0.258315 0.516916 0.588077
O O8 0.241727 0.550611 0.335980
O O9 0.243217 0.633988 0.544139
O O10 0.641442 0.957533 0.282574
O O11 0.000000 0.000000 0.883359
#
# Coordination Sequence:
#
# PCOD9372719 Si02
#       5
#    16  16  16  16  16
#     4  11  25  47  77 114 156 209 262 324 396 481
#     4  12  26  49  77 116 156 210 266 327 403 480
#     4  11  29  47  81 115 160 206 269 323 405 473
#     4  11  26  49  73 114 159 206 260 327 396 468
#     4  11  27  47  78 116 160 205 260 332 402 473
#
# _framework density 24.356945
#
# number of rings (size 3 to 8) (size 9 to 14) (size 15 to 20)
#    0.000    0.800    4.000    0.600   11.200    2.400 
#    0.000    0.000    0.000    0.000    0.000    0.000 
#    0.000    0.000    0.000    0.000    0.000    0.000 
#
# Total GULP energy -112031.748125 kJ/mol
# GULP energy per Si atom -5601.587406 kJ/mol
# Density = 2.430151 g / cm^3
# Si number density = 24.356945 Si / 1000 Ang^3
#
#
#
# Elastic Constant Matrix: (Units=GPa)
#
#
# Indices 1 2 3 4 5 6 
#
# 1 137.5419 31.3268 -2.4053 0.0000 0.0000 0.0000
# 2 31.3268 90.5991 20.4033 0.0000 0.0000 0.0000
# 3 -2.4053 20.4033 24.7889 0.0000 0.0000 0.0000
# 4 0.0000 0.0000 0.0000 34.8985 0.0000 0.0000
# 5 0.0000 0.0000 0.0000 0.0000 24.8191 0.0000
# 6 0.0000 0.0000 0.0000 0.0000 0.0000 50.0632
#
#
#
# Elastic Compliance Matrix: (Units=1/GPa)
#
#
# Indices 1 2 3 4 5 6 
#
# 1 0.008178 -0.003691 0.003831 0.000000 0.000000 0.000000
# 2 -0.003691 0.015215 -0.012881 0.000000 0.000000 0.000000
# 3 0.003831 -0.012881 0.051314 0.000000 0.000000 0.000000
# 4 0.000000 0.000000 0.000000 0.028655 0.000000 0.000000
# 5 0.000000 0.000000 0.000000 0.000000 0.040292 0.000000
# 6 0.000000 0.000000 0.000000 0.000000 0.000000 0.019975
#
#
# Mechanical properties :
#
#
# Convention : Reuss Voigt Hill
#
# Bulk Modulus (GPa) = 20.31433 39.06440 29.68936
# Shear Modulus (GPa) = 24.32886 35.52982 29.92934
#
# Velocity S-wave (km/s) = 3.16388 3.82345 3.50920
# Velocity P-wave (km/s) = 4.65889 5.96363 5.35117
#
# Compressibility (1/GPa) = 0.04922634
#
# Stress axis : x y z
#
# Youngs Moduli (GPa) = 122.27812 65.72651 19.48773
#
# Poissons Ratio (x) = 0.24257 -0.07466
# Poissons Ratio (y) = 0.45127 0.25102
# Poissons Ratio (z) = -0.46846 0.84662
#
# Static dielectric constant tensor:
#      x y z
#    x 1.898950 0.000000 0.000000 
#    y 0.000000 1.958880 0.000000 
#    z 0.000000 0.000000 1.935660 
# 
# From -- ./inp_files/6061.got.cif
#   From: 2010.05.17/outbox.cif.g08.bks.cpg/sg43_4_cif.got.tgz:6061.got - 2010.06.03 19:21:55.
