data_PCOD9372161
_publ_section_title
;
Structure prediction by ZEFSAII (Michael W. Deem and Ramdas Pophale) SiO2 
 PCOD9372161
Probable space group: F D D 2
;
_chemical_formula_sum "Si O2"
_cell_formula_units_Z 88
_cell_length_a 16.436411
_cell_length_b 23.916630
_cell_length_c 9.558423
_cell_angle_alpha 90.000000
_cell_angle_beta 90.000000
_cell_angle_gamma 90.000000
_cell_volume 3757.450113
_symmetry_space_group_name_H-M "F D D 2"
_symmetry_group_IT_number 43
_symmetry_cell_setting 'orthorhombic'
loop_
_space_group_symop_operation_xyz
x,y,z
-x,-y,z
1/4-x,1/4+y,1/4+z
1/4+x,1/4-y,1/4+z
x,1/2+y,1/2+z
-x,1/2-y,1/2+z
1/4-x,3/4+y,3/4+z
1/4+x,3/4-y,3/4+z
1/2+x,y,1/2+z
1/2-x,-y,1/2+z
3/4-x,1/4+y,3/4+z
3/4+x,1/4-y,3/4+z
1/2+x,1/2+y,z
1/2-x,1/2-y,z
3/4-x,3/4+y,1/4+z
3/4+x,3/4-y,1/4+z
loop_
_atom_site_type_symbol
_atom_site_label
_atom_site_fract_x
_atom_site_fract_y
_atom_site_fract_z
Si Si1 0.333549 0.637465 0.604300
Si Si2 0.865691 0.023860 0.528439
Si Si3 0.360387 0.273319 0.470964
Si Si4 0.212041 0.341818 0.404423
Si Si5 0.976605 0.171664 0.394358
Si Si6 0.250000 0.250000 0.003266
O O1 0.306631 0.577625 0.540466
O O2 0.325079 0.627654 0.770351
O O3 0.417302 0.647850 0.515560
O O4 0.285683 0.695898 0.582177
O O5 0.912642 0.028394 0.383155
O O6 0.929262 0.024642 0.655015
O O7 0.823004 0.964013 0.544455
O O8 0.300445 0.312368 0.380892
O O9 0.347738 0.209723 0.430840
O O10 0.452381 0.292359 0.462635
O O11 0.228715 0.378181 0.542126
#
# Coordination Sequence:
#
# PCOD9372161 Si02
#       6
#    16  16  16  16  16   8
#     4  11  26  47  76 109 149 198 247 314 381 461
#     4  11  26  43  75 105 147 196 242 309 374 454
#     4  11  26  46  74 107 149 199 254 309 379 457
#     4  11  26  48  75 106 152 198 250 320 382 454
#     4  11  28  45  72 113 145 198 257 308 385 461
#     4  10  24  48  70 104 146 188 248 298 382 448
#
# _framework density 23.420138000000001
#
# number of rings (size 3 to 8) (size 9 to 14) (size 15 to 20)
#    0.000    1.091    1.818    2.182   10.182    2.909 
#    0.000    0.000    0.000    0.000    0.000    0.000 
#    0.000    0.000    0.000    0.000    0.000    0.000 
#
# Total GULP energy -122875.870845 kJ/mol
# GULP energy per Si atom -5585.266857 kJ/mol
# Density = 2.336683 g / cm^3
# Si number density = 23.420138 Si / 1000 Ang^3
#
#
#
# Elastic Constant Matrix: (Units=GPa)
#
#
# Indices 1 2 3 4 5 6 
#
# 1 58.6663 5.6502 20.6887 0.0000 0.0000 0.0000
# 2 5.6502 55.9150 2.2077 0.0000 0.0000 0.0000
# 3 20.6887 2.2077 96.6264 0.0000 0.0000 0.0000
# 4 0.0000 0.0000 0.0000 31.2249 0.0000 0.0000
# 5 0.0000 0.0000 0.0000 0.0000 27.5587 0.0000
# 6 0.0000 0.0000 0.0000 0.0000 0.0000 9.7176
#
#
#
# Elastic Compliance Matrix: (Units=1/GPa)
#
#
# Indices 1 2 3 4 5 6 
#
# 1 0.018602 -0.001724 -0.003944 0.000000 0.000000 0.000000
# 2 -0.001724 0.018060 -0.000043 0.000000 0.000000 0.000000
# 3 -0.003944 -0.000043 0.011194 0.000000 0.000000 0.000000
# 4 0.000000 0.000000 0.000000 0.032026 0.000000 0.000000
# 5 0.000000 0.000000 0.000000 0.000000 0.036286 0.000000
# 6 0.000000 0.000000 0.000000 0.000000 0.000000 0.102906
#
#
# Mechanical properties :
#
#
# Convention : Reuss Voigt Hill
#
# Bulk Modulus (GPa) = 27.44630 29.81122 28.62876
# Shear Modulus (GPa) = 20.60647 25.87765 23.24206
#
# Velocity S-wave (km/s) = 2.96946 3.32766 3.15365
# Velocity P-wave (km/s) = 4.84783 5.24604 5.05086
#
# Compressibility (1/GPa) = 0.03643478
#
# Stress axis : x y z
#
# Youngs Moduli (GPa) = 53.75675 55.37035 89.32975
#
# Poissons Ratio (x) = 0.09546 0.35228
# Poissons Ratio (y) = 0.09268 0.00389
# Poissons Ratio (z) = 0.21199 0.00241
#
# Static dielectric constant tensor:
#      x y z
#    x 1.882410 0.000000 0.000000 
#    y 0.000000 1.912030 0.000000 
#    z 0.000000 0.000000 1.879140 
# 
# From -- ./inp_files/3211.got.cif
#   From: 2010.05.17/outbox.cif.g08.bks.cpg/sg43_2_cif.got.tgz:3211.got - 2010.06.03 19:21:55.
