data_PCOD9372221
_publ_section_title
;
Structure prediction by ZEFSAII (Michael W. Deem and Ramdas Pophale) SiO2 
 PCOD9372221
Probable space group: F D D 2
;
_chemical_formula_sum "Si O2"
_cell_formula_units_Z 120
_cell_length_a 24.271855
_cell_length_b 13.330674
_cell_length_c 17.411008
_cell_angle_alpha 90.000000
_cell_angle_beta 90.000000
_cell_angle_gamma 90.000000
_cell_volume 5633.508994
_symmetry_space_group_name_H-M "F D D 2"
_symmetry_group_IT_number 43
_symmetry_cell_setting 'orthorhombic'
loop_
_space_group_symop_operation_xyz
x,y,z
-x,-y,z
1/4-x,1/4+y,1/4+z
1/4+x,1/4-y,1/4+z
x,1/2+y,1/2+z
-x,1/2-y,1/2+z
1/4-x,3/4+y,3/4+z
1/4+x,3/4-y,3/4+z
1/2+x,y,1/2+z
1/2-x,-y,1/2+z
3/4-x,1/4+y,3/4+z
3/4+x,1/4-y,3/4+z
1/2+x,1/2+y,z
1/2-x,1/2-y,z
3/4-x,3/4+y,1/4+z
3/4+x,3/4-y,1/4+z
loop_
_atom_site_type_symbol
_atom_site_label
_atom_site_fract_x
_atom_site_fract_y
_atom_site_fract_z
Si Si1 0.119273 0.645959 0.578590
Si Si2 0.359020 0.738054 0.096346
Si Si3 0.034553 0.238707 0.682981
Si Si4 0.208488 0.441674 0.766454
Si Si5 0.270272 0.135151 0.221386
Si Si6 0.553672 0.071286 0.307121
Si Si7 0.170428 0.449523 0.496641
Si Si8 0.250000 0.750000 0.174611
O O1 0.059232 0.629229 0.544117
O O2 0.145032 0.748343 0.546945
O O3 0.153743 0.553267 0.540577
O O4 0.114640 0.668020 0.670190
O O5 0.407546 0.711930 0.157519
O O6 0.393529 0.804196 0.035629
O O7 0.339666 0.636581 0.057524
O O8 0.303747 0.787224 0.128250
O O9 0.014196 0.193679 0.601380
O O10 0.049883 0.151644 0.741220
O O11 0.983967 0.297551 0.720017
O O12 0.225532 0.546305 0.725761
O O13 0.227648 0.344147 0.722470
O O14 0.250000 0.250000 0.224679
O O15 0.302734 0.127708 0.141028
O O16 0.500000 0.000000 0.304921
#
# Coordination Sequence:
#
# PCOD9372221 Si02
#       8
#    16  16  16  16  16  16  16   8
#     4  12  24  43  74 107 145 200 252 315 381 446
#     4  10  28  48  72 110 146 199 247 312 375 458
#     4  10  25  47  69 106 149 190 244 317 376 446
#     4  10  26  50  70 107 154 191 252 303 386 451
#     4  11  24  45  73 109 149 194 249 322 381 443
#     4  11  24  40  71 109 141 194 253 308 373 454
#     4  12  25  46  75 108 152 197 256 314 387 457
#     4  12  28  50  80 106 148 210 246 312 386 458
#
# _framework density 21.301112
#
# number of rings (size 3 to 8) (size 9 to 14) (size 15 to 20)
#    0.800    0.267    4.000    0.800    8.400    1.067 
#    3.600    0.000    0.000    0.000    0.000    0.000 
#    0.000    0.000    0.000    0.000    0.000    0.000 
#
# Total GULP energy -167380.897694 kJ/mol
# GULP energy per Si atom -5579.363256 kJ/mol
# Density = 2.125263 g / cm^3
# Si number density = 21.301112 Si / 1000 Ang^3
#
#
#
# Elastic Constant Matrix: (Units=GPa)
#
#
# Indices 1 2 3 4 5 6 
#
# 1 133.3431 54.3409 35.3969 0.0000 0.0000 0.0000
# 2 54.3409 107.4408 74.4893 0.0000 0.0000 0.0000
# 3 35.3969 74.4893 103.8377 0.0000 0.0000 0.0000
# 4 0.0000 0.0000 0.0000 37.8084 0.0000 0.0000
# 5 0.0000 0.0000 0.0000 0.0000 37.1532 0.0000
# 6 0.0000 0.0000 0.0000 0.0000 0.0000 35.8222
#
#
#
# Elastic Compliance Matrix: (Units=1/GPa)
#
#
# Indices 1 2 3 4 5 6 
#
# 1 0.009455 -0.005068 0.000413 0.000000 0.000000 0.000000
# 2 -0.005068 0.021234 -0.013504 0.000000 0.000000 0.000000
# 3 0.000413 -0.013504 0.019177 0.000000 0.000000 0.000000
# 4 0.000000 0.000000 0.000000 0.026449 0.000000 0.000000
# 5 0.000000 0.000000 0.000000 0.000000 0.026916 0.000000
# 6 0.000000 0.000000 0.000000 0.000000 0.000000 0.027916
#
#
# Mechanical properties :
#
#
# Convention : Reuss Voigt Hill
#
# Bulk Modulus (GPa) = 73.82271 74.78621 74.30446
# Shear Modulus (GPa) = 29.07271 34.18307 31.62789
#
# Velocity S-wave (km/s) = 3.69839 4.01029 3.85749
# Velocity P-wave (km/s) = 7.27801 7.52519 7.40263
#
# Compressibility (1/GPa) = 0.01354597
#
# Stress axis : x y z
#
# Youngs Moduli (GPa) = 105.75939 47.09501 52.14481
#
# Poissons Ratio (x) = 0.23870 -0.02152
# Poissons Ratio (y) = 0.53603 0.70419
# Poissons Ratio (z) = -0.04364 0.63599
#
# Static dielectric constant tensor:
#      x y z
#    x 1.822460 0.000000 0.000000 
#    y 0.000000 1.719740 0.000000 
#    z 0.000000 0.000000 1.800080 
# 
# From -- ./inp_files/14880.got.cif
#   From: 2010.05.17/outbox.cif.g08.bks.cpg/sg43_8_cif.got.tgz:14880.got - 2010.06.03 19:21:55.
