data_PCOD9372173
_publ_section_title
;
Structure prediction by ZEFSAII (Michael W. Deem and Ramdas Pophale) SiO2 
 PCOD9372173
Probable space group: F D D 2
;
_chemical_formula_sum "Si O2"
_cell_formula_units_Z 72
_cell_length_a 12.155615
_cell_length_b 16.238277
_cell_length_c 13.632411
_cell_angle_alpha 90.000000
_cell_angle_beta 90.000000
_cell_angle_gamma 90.000000
_cell_volume 2690.850397
_symmetry_space_group_name_H-M "F D D 2"
_symmetry_group_IT_number 43
_symmetry_cell_setting 'orthorhombic'
loop_
_space_group_symop_operation_xyz
x,y,z
-x,-y,z
1/4-x,1/4+y,1/4+z
1/4+x,1/4-y,1/4+z
x,1/2+y,1/2+z
-x,1/2-y,1/2+z
1/4-x,3/4+y,3/4+z
1/4+x,3/4-y,3/4+z
1/2+x,y,1/2+z
1/2-x,-y,1/2+z
3/4-x,1/4+y,3/4+z
3/4+x,1/4-y,3/4+z
1/2+x,1/2+y,z
1/2-x,1/2-y,z
3/4-x,3/4+y,1/4+z
3/4+x,3/4-y,1/4+z
loop_
_atom_site_type_symbol
_atom_site_label
_atom_site_fract_x
_atom_site_fract_y
_atom_site_fract_z
Si Si1 0.629580 0.494838 0.701340
Si Si2 0.750000 0.750000 0.267142
Si Si3 0.300560 0.967001 0.854654
Si Si4 0.843819 0.821293 0.739843
Si Si5 0.841339 0.142126 0.933076
O O1 0.500000 0.500000 0.719349
O O2 0.690483 0.453511 0.791741
O O3 0.639503 0.445357 0.599433
O O4 0.684238 0.585676 0.710781
O O5 0.837232 0.704747 0.340437
O O6 0.817675 0.819043 0.205394
O O7 0.280137 0.898303 0.936434
O O8 0.393846 0.948089 0.778731
O O9 0.312085 0.050867 0.910840
O O10 0.750000 0.750000 0.728305
#
# Coordination Sequence:
#
# PCOD9372173 Si02
#       5
#    16   8  16  16  16
#     4  11  27  48  76 111 157 203 252 316 396 468
#     4  10  24  48  76 108 142 206 252 314 372 464
#     4  11  26  45  75 108 149 190 258 313 380 453
#     4  11  27  48  76 111 157 203 252 316 396 468
#     4  10  26  44  72 108 150 192 250 308 384 446
#
# _framework density 26.757339999999999
#
# number of rings (size 3 to 8) (size 9 to 14) (size 15 to 20)
#    0.000    1.333    0.000    2.667   12.444    7.111 
#    0.000    0.000    0.000    0.000    0.000    0.000 
#    0.000    0.000    0.000    0.000    0.000    0.000 
#
# Total GULP energy -100494.749870 kJ/mol
# GULP energy per Si atom -5583.041659 kJ/mol
# Density = 2.669644 g / cm^3
# Si number density = 26.757340 Si / 1000 Ang^3
#
#
#
# Elastic Constant Matrix: (Units=GPa)
#
#
# Indices 1 2 3 4 5 6 
#
# 1 91.0322 24.1840 46.1922 0.0000 0.0000 0.0000
# 2 24.1840 127.5158 36.4956 0.0000 0.0000 0.0000
# 3 46.1922 36.4956 143.6383 0.0000 0.0000 0.0000
# 4 0.0000 0.0000 0.0000 29.1873 0.0000 0.0000
# 5 0.0000 0.0000 0.0000 0.0000 45.9716 0.0000
# 6 0.0000 0.0000 0.0000 0.0000 0.0000 42.6643
#
#
#
# Elastic Compliance Matrix: (Units=1/GPa)
#
#
# Indices 1 2 3 4 5 6 
#
# 1 0.013357 -0.001406 -0.003938 0.000000 0.000000 0.000000
# 2 -0.001406 0.008605 -0.001734 0.000000 0.000000 0.000000
# 3 -0.003938 -0.001734 0.008669 0.000000 0.000000 0.000000
# 4 0.000000 0.000000 0.000000 0.034261 0.000000 0.000000
# 5 0.000000 0.000000 0.000000 0.000000 0.021753 0.000000
# 6 0.000000 0.000000 0.000000 0.000000 0.000000 0.023439
#
#
# Mechanical properties :
#
#
# Convention : Reuss Voigt Hill
#
# Bulk Modulus (GPa) = 60.70089 63.99221 62.34655
# Shear Modulus (GPa) = 38.54087 40.58562 39.56324
#
# Velocity S-wave (km/s) = 3.79936 3.89884 3.84942
# Velocity P-wave (km/s) = 6.47933 6.65099 6.56572
#
# Compressibility (1/GPa) = 0.01647422
#
# Stress axis : x y z
#
# Youngs Moduli (GPa) = 74.86707 116.20903 115.35320
#
# Poissons Ratio (x) = 0.16340 0.45428
# Poissons Ratio (y) = 0.10527 0.20005
# Poissons Ratio (z) = 0.29484 0.20153
#
# Static dielectric constant tensor:
#      x y z
#    x 2.268010 0.000000 0.000000 
#    y 0.000000 2.238810 0.000000 
#    z 0.000000 0.000000 2.096910 
# 
# From -- ./inp_files/9970.got.cif
#   From: 2010.05.17/outbox.cif.g08.bks.cpg/sg43_5_cif.got.tgz:9970.got - 2010.06.03 19:21:55.
