data_PCOD9372801
_publ_section_title
;
Structure prediction by ZEFSAII (Michael W. Deem and Ramdas Pophale) SiO2 
 PCOD9372801
Probable space group: F D D 2
;
_chemical_formula_sum "Si O2"
_cell_formula_units_Z 56
_cell_length_a 13.807733
_cell_length_b 27.267899
_cell_length_c 6.644678
_cell_angle_alpha 90.000000
_cell_angle_beta 90.000000
_cell_angle_gamma 90.000000
_cell_volume 2501.773553
_symmetry_space_group_name_H-M "F D D 2"
_symmetry_group_IT_number 43
_symmetry_cell_setting 'orthorhombic'
loop_
_space_group_symop_operation_xyz
x,y,z
-x,-y,z
1/4-x,1/4+y,1/4+z
1/4+x,1/4-y,1/4+z
x,1/2+y,1/2+z
-x,1/2-y,1/2+z
1/4-x,3/4+y,3/4+z
1/4+x,3/4-y,3/4+z
1/2+x,y,1/2+z
1/2-x,-y,1/2+z
3/4-x,1/4+y,3/4+z
3/4+x,1/4-y,3/4+z
1/2+x,1/2+y,z
1/2-x,1/2-y,z
3/4-x,3/4+y,1/4+z
3/4+x,3/4-y,1/4+z
loop_
_atom_site_type_symbol
_atom_site_label
_atom_site_fract_x
_atom_site_fract_y
_atom_site_fract_z
Si Si1 0.912287 0.275062 0.665050
Si Si2 0.044002 0.818648 0.469803
Si Si3 0.515200 0.427959 0.594986
Si Si4 0.500000 0.500000 0.228547
O O1 0.980194 0.230730 0.591259
O O2 0.846372 0.298259 0.488767
O O3 0.841029 0.251152 0.829759
O O4 0.979014 0.315881 0.769919
O O5 0.157742 0.813219 0.427904
O O6 0.028190 0.869800 0.578768
O O7 0.514517 0.453774 0.376863
#
# Coordination Sequence:
#
# PCOD9372801 Si02
#       4
#    16  16  16   8
#     4  12  27  50  77 112 155 200 256 324 380 463
#     4  12  27  47  77 110 151 202 253 317 389 452
#     4  12  27  49  73 113 150 202 262 311 387 463
#     4  12  22  52  74 104 156 196 252 324 370 460
#
# _framework density 22.384121
#
# number of rings (size 3 to 8) (size 9 to 14) (size 15 to 20)
#    0.000    0.000    5.714    3.429    8.000    2.286 
#    0.000    0.000    0.000    0.000    0.000    0.000 
#    0.000    0.000    0.000    0.000    0.000    0.000 
#
# Total GULP energy -78368.428507 kJ/mol
# GULP energy per Si atom -5597.744893 kJ/mol
# Density = 2.233317 g / cm^3
# Si number density = 22.384121 Si / 1000 Ang^3
#
#
#
# Elastic Constant Matrix: (Units=GPa)
#
#
# Indices 1 2 3 4 5 6 
#
# 1 78.2404 45.9752 34.2090 0.0000 0.0000 0.0000
# 2 45.9752 125.9024 54.3746 0.0000 0.0000 0.0000
# 3 34.2090 54.3746 101.5499 0.0000 -0.0001 0.0000
# 4 0.0000 0.0000 0.0000 36.0340 0.0000 0.0000
# 5 0.0000 0.0000 -0.0001 0.0000 47.1326 0.0000
# 6 0.0000 0.0000 0.0000 0.0000 0.0000 35.9665
#
#
#
# Elastic Compliance Matrix: (Units=1/GPa)
#
#
# Indices 1 2 3 4 5 6 
#
# 1 0.017003 -0.004859 -0.003126 0.000000 0.000000 0.000000
# 2 -0.004859 0.011720 -0.004639 0.000000 0.000000 0.000000
# 3 -0.003126 -0.004639 0.013384 0.000000 0.000000 0.000000
# 4 0.000000 0.000000 0.000000 0.027752 0.000000 0.000000
# 5 0.000000 0.000000 0.000000 0.000000 0.021217 0.000000
# 6 0.000000 0.000000 0.000000 0.000000 0.000000 0.027804
#
#
# Mechanical properties :
#
#
# Convention : Reuss Voigt Hill
#
# Bulk Modulus (GPa) = 59.31155 63.86781 61.58968
# Shear Modulus (GPa) = 33.38956 35.23555 34.31256
#
# Velocity S-wave (km/s) = 3.86639 3.97184 3.91947
# Velocity P-wave (km/s) = 6.81811 7.04475 6.93236
#
# Compressibility (1/GPa) = 0.01686012
#
# Stress axis : x y z
#
# Youngs Moduli (GPa) = 58.81285 85.32166 74.71419
#
# Poissons Ratio (x) = 0.41456 0.23357
# Poissons Ratio (y) = 0.28576 0.34659
# Poissons Ratio (z) = 0.18386 0.39579
#
# Static dielectric constant tensor:
#      x y z
#    x 1.847410 0.000000 0.000000 
#    y 0.000000 1.801570 0.000000 
#    z 0.000000 0.000000 1.896800 
# 
# From -- ./inp_files/317.got.cif
#   From: 2010.05.17/outbox.cif.g08.bks.cpg/sg43_1_cif.got.tgz:317.got - 2010.06.03 19:21:55.
