data_PCOD9372065
_publ_section_title
;
Structure prediction by ZEFSAII (Michael W. Deem and Ramdas Pophale) SiO2 
 PCOD9372065
Probable space group: F D D 2
;
_chemical_formula_sum "Si O2"
_cell_formula_units_Z 120
_cell_length_a 22.391379
_cell_length_b 8.878041
_cell_length_c 27.857182
_cell_angle_alpha 90.000000
_cell_angle_beta 90.000000
_cell_angle_gamma 90.000000
_cell_volume 5537.773247
_symmetry_space_group_name_H-M "F D D 2"
_symmetry_group_IT_number 43
_symmetry_cell_setting 'orthorhombic'
loop_
_space_group_symop_operation_xyz
x,y,z
-x,-y,z
1/4-x,1/4+y,1/4+z
1/4+x,1/4-y,1/4+z
x,1/2+y,1/2+z
-x,1/2-y,1/2+z
1/4-x,3/4+y,3/4+z
1/4+x,3/4-y,3/4+z
1/2+x,y,1/2+z
1/2-x,-y,1/2+z
3/4-x,1/4+y,3/4+z
3/4+x,1/4-y,3/4+z
1/2+x,1/2+y,z
1/2-x,1/2-y,z
3/4-x,3/4+y,1/4+z
3/4+x,3/4-y,1/4+z
loop_
_atom_site_type_symbol
_atom_site_label
_atom_site_fract_x
_atom_site_fract_y
_atom_site_fract_z
Si Si1 0.200972 0.120231 0.571300
Si Si2 0.028620 0.360461 0.383411
Si Si3 0.672964 0.022519 0.962101
Si Si4 0.843159 0.428274 0.852881
Si Si5 0.000000 0.500000 0.234853
Si Si6 0.203304 0.860899 0.204303
Si Si7 0.644347 0.121664 0.551555
Si Si8 0.011389 0.675603 0.532012
O O1 0.250000 0.250000 0.574236
O O2 0.139233 0.181780 0.595143
O O3 0.231156 0.980829 0.600206
O O4 0.193348 0.089617 0.513873
O O5 0.060412 0.240921 0.416709
O O6 0.077864 0.436468 0.349903
O O7 0.000000 0.500000 0.410884
O O8 0.671982 0.100659 0.909247
O O9 0.602148 0.012606 0.970329
O O10 0.711064 0.871500 0.956498
O O11 0.875537 0.297522 0.819817
O O12 0.778164 0.448937 0.829497
O O13 0.948747 0.594462 0.264621
O O14 0.250000 0.750000 0.180452
O O15 0.234730 0.951765 0.246367
O O16 0.582250 0.193757 0.536379
O O17 0.000000 0.500000 0.518487
#
# Coordination Sequence:
#
# PCOD9372065 Si02
#       8
#    16  16  16  16   8  16  16  16
#     4  12  22  42  72 101 136 188 242 300 355 426
#     4  12  23  41  69 102 138 183 242 298 357 431
#     4  12  24  42  71 102 145 183 238 299 365 426
#     4  11  23  45  68 104 143 185 240 295 356 438
#     4  12  24  46  68 108 142 188 240 298 358 432
#     4  12  24  44  70 103 138 185 242 295 359 430
#     4  11  21  42  70  94 141 184 231 291 353 420
#     4  10  24  44  67  98 144 189 228 293 362 430
#
# _framework density 21.669360000000001
#
# number of rings (size 3 to 8) (size 9 to 14) (size 15 to 20)
#    0.000    0.533    6.000    2.400    0.000    1.600 
#    1.200    2.667    0.000    0.000    0.000    0.000 
#    0.000    0.000    0.000    0.000    0.000    0.000 
#
# Total GULP energy -167041.681554 kJ/mol
# GULP energy per Si atom -5568.056052 kJ/mol
# Density = 2.162004 g / cm^3
# Si number density = 21.669360 Si / 1000 Ang^3
#
#
#
# Elastic Constant Matrix: (Units=GPa)
#
#
# Indices 1 2 3 4 5 6 
#
# 1 167.3284 54.3877 44.7859 0.0000 0.0000 0.0000
# 2 54.3877 84.0190 26.9119 0.0000 0.0000 0.0000
# 3 44.7859 26.9119 115.1110 0.0000 0.0000 0.0000
# 4 0.0000 0.0000 0.0000 16.6344 0.0000 0.0000
# 5 0.0000 0.0000 0.0000 0.0000 21.3465 0.0000
# 6 0.0000 0.0000 0.0000 0.0000 0.0000 28.7216
#
#
#
# Elastic Compliance Matrix: (Units=1/GPa)
#
#
# Indices 1 2 3 4 5 6 
#
# 1 0.007994 -0.004517 -0.002054 0.000000 0.000000 0.000000
# 2 -0.004517 0.015418 -0.001847 0.000000 0.000000 0.000000
# 3 -0.002054 -0.001847 0.009918 0.000000 0.000000 0.000000
# 4 0.000000 0.000000 0.000000 0.060116 0.000000 0.000000
# 5 0.000000 0.000000 0.000000 0.000000 0.046846 0.000000
# 6 0.000000 0.000000 0.000000 0.000000 0.000000 0.034817
#
#
# Mechanical properties :
#
#
# Convention : Reuss Voigt Hill
#
# Bulk Modulus (GPa) = 60.62948 68.73660 64.68304
# Shear Modulus (GPa) = 25.32362 29.36537 27.34449
#
# Velocity S-wave (km/s) = 3.42224 3.68524 3.55617
# Velocity P-wave (km/s) = 6.60725 7.06381 6.83934
#
# Compressibility (1/GPa) = 0.01649363
#
# Stress axis : x y z
#
# Youngs Moduli (GPa) = 125.08979 64.86093 100.82306
#
# Poissons Ratio (x) = 0.29297 0.20712
# Poissons Ratio (y) = 0.56502 0.18623
# Poissons Ratio (z) = 0.25697 0.11981
#
# Static dielectric constant tensor:
#      x y z
#    x 1.813890 0.000000 0.000000 
#    y 0.000000 1.878770 0.000000 
#    z 0.000000 0.000000 1.842130 
# 
# From -- ./inp_files/29876.got.cif
#   From: 2010.05.17/outbox.cif.g08.bks.cpg/sg43_15_cif.got.tgz:29876.got - 2010.06.03 19:21:55.
