data_PCOD9372912
_publ_section_title
;
Structure prediction by ZEFSAII (Michael W. Deem and Ramdas Pophale) SiO2 
 PCOD9372912
Probable space group: F D D 2
;
_chemical_formula_sum "Si O2"
_cell_formula_units_Z 72
_cell_length_a 16.199224
_cell_length_b 18.821257
_cell_length_c 9.461043
_cell_angle_alpha 90.000000
_cell_angle_beta 90.000000
_cell_angle_gamma 90.000000
_cell_volume 2884.575112
_symmetry_space_group_name_H-M "F D D 2"
_symmetry_group_IT_number 43
_symmetry_cell_setting 'orthorhombic'
loop_
_space_group_symop_operation_xyz
x,y,z
-x,-y,z
1/4-x,1/4+y,1/4+z
1/4+x,1/4-y,1/4+z
x,1/2+y,1/2+z
-x,1/2-y,1/2+z
1/4-x,3/4+y,3/4+z
1/4+x,3/4-y,3/4+z
1/2+x,y,1/2+z
1/2-x,-y,1/2+z
3/4-x,1/4+y,3/4+z
3/4+x,1/4-y,3/4+z
1/2+x,1/2+y,z
1/2-x,1/2-y,z
3/4-x,3/4+y,1/4+z
3/4+x,3/4-y,1/4+z
loop_
_atom_site_type_symbol
_atom_site_label
_atom_site_fract_x
_atom_site_fract_y
_atom_site_fract_z
Si Si1 0.120049 0.003837 0.401990
Si Si2 0.000000 0.000000 0.147104
Si Si3 0.286620 0.534039 0.788943
Si Si4 0.705412 0.650329 0.137831
Si Si5 0.647299 0.836421 0.927586
O O1 0.072354 0.021117 0.256413
O O2 0.121118 0.918561 0.417406
O O3 0.215895 0.026345 0.403726
O O4 0.082540 0.049732 0.528337
O O5 0.032195 0.939691 0.038883
O O6 0.235201 0.570255 0.663306
O O7 0.364733 0.582636 0.830612
O O8 0.323505 0.458458 0.747677
O O9 0.773857 0.674841 0.026704
#
# Coordination Sequence:
#
# PCOD9372912 Si02
#       5
#    16   8  16  16  16
#     4  12  31  50  85 122 173 214 285 352 430 508
#     4  12  28  50  78 122 170 218 278 354 428 516
#     4  12  28  50  85 120 164 218 280 342 428 510
#     4  12  27  51  84 115 169 222 282 343 432 511
#     4  12  28  52  83 120 164 219 280 345 425 510
#
# _framework density 24.960346999999999
#
# number of rings (size 3 to 8) (size 9 to 14) (size 15 to 20)
#    0.000    0.000    4.444    2.667   12.444    0.000 
#    0.000    0.000    0.000    0.000    0.000    0.000 
#    0.000    0.000    0.000    0.000    0.000    0.000 
#
# Total GULP energy -100850.588755 kJ/mol
# GULP energy per Si atom -5602.810486 kJ/mol
# Density = 2.490354 g / cm^3
# Si number density = 24.960347 Si / 1000 Ang^3
#
#
#
# Elastic Constant Matrix: (Units=GPa)
#
#
# Indices 1 2 3 4 5 6 
#
# 1 115.6057 0.5180 26.6475 0.0000 0.0000 0.0000
# 2 0.5180 88.5231 3.0793 0.0000 0.0000 0.0000
# 3 26.6475 3.0793 141.3382 0.0000 0.0000 0.0000
# 4 0.0000 0.0000 0.0000 49.2139 0.0000 0.0000
# 5 0.0000 0.0000 0.0000 0.0000 10.2983 0.0000
# 6 0.0000 0.0000 0.0000 0.0000 0.0000 15.1326
#
#
#
# Elastic Compliance Matrix: (Units=1/GPa)
#
#
# Indices 1 2 3 4 5 6 
#
# 1 0.009043 0.000006 -0.001705 0.000000 0.000000 0.000000
# 2 0.000006 0.011305 -0.000248 0.000000 0.000000 0.000000
# 3 -0.001705 -0.000248 0.007402 0.000000 0.000000 0.000000
# 4 0.000000 0.000000 0.000000 0.020319 0.000000 0.000000
# 5 0.000000 0.000000 0.000000 0.000000 0.097104 0.000000
# 6 0.000000 0.000000 0.000000 0.000000 0.000000 0.066082
#
#
# Mechanical properties :
#
#
# Convention : Reuss Voigt Hill
#
# Bulk Modulus (GPa) = 41.91498 45.10630 43.51064
# Shear Modulus (GPa) = 22.41141 35.94378 29.17760
#
# Velocity S-wave (km/s) = 2.99972 3.79890 3.42271
# Velocity P-wave (km/s) = 5.36906 6.11167 5.75236
#
# Compressibility (1/GPa) = 0.02385782
#
# Stress axis : x y z
#
# Youngs Moduli (GPa) = 110.58161 88.45599 135.09689
#
# Poissons Ratio (x) = -0.00057 0.23035
# Poissons Ratio (y) = -0.00071 0.03344
# Poissons Ratio (z) = 0.18855 0.02189
#
# Static dielectric constant tensor:
#      x y z
#    x 1.959800 0.000000 0.000000 
#    y 0.000000 2.036890 0.000000 
#    z 0.000000 0.000000 2.005160 
# 
# From -- ./inp_files/2667.got.cif
#   From: 2010.05.17/outbox.cif.g08.bks.cpg/sg43_2_cif.got.tgz:2667.got - 2010.06.03 19:21:55.
