data_PCOD9372459
_publ_section_title
;
Structure prediction by ZEFSAII (Michael W. Deem and Ramdas Pophale) SiO2 
 PCOD9372459
Probable space group: F D D 2
;
_chemical_formula_sum "Si O2"
_cell_formula_units_Z 56
_cell_length_a 23.982622
_cell_length_b 9.811574
_cell_length_c 11.529013
_cell_angle_alpha 90.000000
_cell_angle_beta 90.000000
_cell_angle_gamma 90.000000
_cell_volume 2712.860580
_symmetry_space_group_name_H-M "F D D 2"
_symmetry_group_IT_number 43
_symmetry_cell_setting 'orthorhombic'
loop_
_space_group_symop_operation_xyz
x,y,z
-x,-y,z
1/4-x,1/4+y,1/4+z
1/4+x,1/4-y,1/4+z
x,1/2+y,1/2+z
-x,1/2-y,1/2+z
1/4-x,3/4+y,3/4+z
1/4+x,3/4-y,3/4+z
1/2+x,y,1/2+z
1/2-x,-y,1/2+z
3/4-x,1/4+y,3/4+z
3/4+x,1/4-y,3/4+z
1/2+x,1/2+y,z
1/2-x,1/2-y,z
3/4-x,3/4+y,1/4+z
3/4+x,3/4-y,1/4+z
loop_
_atom_site_type_symbol
_atom_site_label
_atom_site_fract_x
_atom_site_fract_y
_atom_site_fract_z
Si Si1 0.000000 0.500000 0.657001
Si Si2 0.081491 0.272128 0.734487
Si Si3 0.274187 0.610951 0.681898
Si Si4 0.203258 0.365678 0.756475
O O1 0.958095 0.594612 0.727385
O O2 0.965339 0.405332 0.565539
O O3 0.074303 0.200095 0.858515
O O4 0.144832 0.310975 0.709220
O O5 0.059268 0.171338 0.635352
O O6 0.250000 0.750000 0.627543
O O7 0.226754 0.495538 0.686854
O O8 0.250000 0.250000 0.757288
#
# Coordination Sequence:
#
# PCOD9372459 Si02
#       4
#     8  16  16  16
#     4   8  22  42  64 102 126 176 218 268 344 396
#     4  11  22  43  69  94 138 177 220 289 332 401
#     4   9  21  45  62  97 137 167 227 273 333 406
#     4  11  24  42  66 101 131 181 231 272 348 405
#
# _framework density 20.642417999999999
#
# number of rings (size 3 to 8) (size 9 to 14) (size 15 to 20)
#    0.857    1.143    0.000    2.571    6.000    0.000 
#   20.571    0.000    0.000    0.000    0.000    0.000 
#    0.000    0.000    0.000    0.000    0.000    0.000 
#
# Total GULP energy -78117.072712 kJ/mol
# GULP energy per Si atom -5579.790908 kJ/mol
# Density = 2.059543 g / cm^3
# Si number density = 20.642418 Si / 1000 Ang^3
#
#
#
# Elastic Constant Matrix: (Units=GPa)
#
#
# Indices 1 2 3 4 5 6 
#
# 1 94.1254 78.9680 22.9099 0.0000 0.0000 0.0000
# 2 78.9680 153.9944 31.5507 0.0000 0.0000 0.0000
# 3 22.9099 31.5507 55.1528 0.0000 0.0000 0.0000
# 4 0.0000 0.0000 0.0000 15.5842 0.0000 0.0000
# 5 0.0000 0.0000 0.0000 0.0000 23.0481 0.0000
# 6 0.0000 0.0000 0.0000 0.0000 0.0000 19.6009
#
#
#
# Elastic Compliance Matrix: (Units=1/GPa)
#
#
# Indices 1 2 3 4 5 6 
#
# 1 0.018975 -0.009193 -0.002623 0.000000 0.000000 0.000000
# 2 -0.009193 0.011810 -0.002937 0.000000 0.000000 0.000000
# 3 -0.002623 -0.002937 0.020901 0.000000 0.000000 0.000000
# 4 0.000000 0.000000 0.000000 0.064167 0.000000 0.000000
# 5 0.000000 0.000000 0.000000 0.000000 0.043388 0.000000
# 6 0.000000 0.000000 0.000000 0.000000 0.000000 0.051018
#
#
# Mechanical properties :
#
#
# Convention : Reuss Voigt Hill
#
# Bulk Modulus (GPa) = 45.08658 63.34775 54.21717
# Shear Modulus (GPa) = 20.22989 22.96958 21.59973
#
# Velocity S-wave (km/s) = 3.13392 3.33939 3.23828
# Velocity P-wave (km/s) = 5.91476 6.75451 6.34854
#
# Compressibility (1/GPa) = 0.02217955
#
# Stress axis : x y z
#
# Youngs Moduli (GPa) = 52.70034 84.67635 47.84387
#
# Poissons Ratio (x) = 0.77843 0.12550
# Poissons Ratio (y) = 0.48447 0.14053
# Poissons Ratio (z) = 0.13824 0.24871
#
# Static dielectric constant tensor:
#      x y z
#    x 1.675230 0.000000 0.000000 
#    y 0.000000 1.756530 0.000000 
#    z 0.000000 0.000000 1.766310 
# 
# From -- ./inp_files/5228.got.cif
#   From: 2010.05.17/outbox.cif.g08.bks.cpg/sg43_3_cif.got.tgz:5228.got - 2010.06.03 19:21:55.
