data_PCOD9372138
_publ_section_title
;
Structure prediction by ZEFSAII (Michael W. Deem and Ramdas Pophale) SiO2 
 PCOD9372138
Probable space group: F D D 2
;
_chemical_formula_sum "Si O2"
_cell_formula_units_Z 80
_cell_length_a 18.251036
_cell_length_b 20.606077
_cell_length_c 8.780001
_cell_angle_alpha 90.000000
_cell_angle_beta 90.000000
_cell_angle_gamma 90.000000
_cell_volume 3302.002559
_symmetry_space_group_name_H-M "F D D 2"
_symmetry_group_IT_number 43
_symmetry_cell_setting 'orthorhombic'
loop_
_space_group_symop_operation_xyz
x,y,z
-x,-y,z
1/4-x,1/4+y,1/4+z
1/4+x,1/4-y,1/4+z
x,1/2+y,1/2+z
-x,1/2-y,1/2+z
1/4-x,3/4+y,3/4+z
1/4+x,3/4-y,3/4+z
1/2+x,y,1/2+z
1/2-x,-y,1/2+z
3/4-x,1/4+y,3/4+z
3/4+x,1/4-y,3/4+z
1/2+x,1/2+y,z
1/2-x,1/2-y,z
3/4-x,3/4+y,1/4+z
3/4+x,3/4-y,1/4+z
loop_
_atom_site_type_symbol
_atom_site_label
_atom_site_fract_x
_atom_site_fract_y
_atom_site_fract_z
Si Si1 0.073312 0.567344 0.399670
Si Si2 0.953147 0.297804 0.034293
Si Si3 0.500000 0.500000 0.627298
Si Si4 0.788647 0.426943 0.579754
Si Si5 0.250000 0.250000 0.384824
Si Si6 0.702715 0.152177 0.121275
O O1 0.060264 0.535620 0.234305
O O2 0.145292 0.598795 0.472449
O O3 0.065149 0.506801 0.514901
O O4 0.008086 0.619414 0.404472
O O5 0.880092 0.341318 0.058940
O O6 0.987172 0.290091 0.201768
O O7 0.939057 0.228242 0.958680
O O8 0.010962 0.335771 0.926439
O O9 0.539317 0.449366 0.516706
O O10 0.250395 0.312747 0.489723
#
# Coordination Sequence:
#
# PCOD9372138 Si02
#       6
#    16  16   8  16   8  16
#     4  11  25  49  73 111 150 202 247 319 375 452
#     4  12  28  47  76 112 152 200 255 311 379 455
#     4  10  24  46  80  98 160 194 256 306 388 438
#     4  12  28  47  76 112 152 200 255 311 379 455
#     4  10  24  46  76 102 148 194 246 320 372 442
#     4  11  25  49  73 111 150 202 247 319 375 452
#
# _framework density 24.227720999999999
#
# number of rings (size 3 to 8) (size 9 to 14) (size 15 to 20)
#    0.000    0.800    4.000    1.200    5.600    4.800 
#    0.000    0.000    0.000    0.000    0.000    0.000 
#    0.000    0.000    0.000    0.000    0.000    0.000 
#
# Total GULP energy -111660.977491 kJ/mol
# GULP energy per Si atom -5583.048875 kJ/mol
# Density = 2.417258 g / cm^3
# Si number density = 24.227721 Si / 1000 Ang^3
#
#
#
# Elastic Constant Matrix: (Units=GPa)
#
#
# Indices 1 2 3 4 5 6 
#
# 1 115.8918 27.8970 29.7189 0.0000 0.0000 0.0000
# 2 27.8970 100.1158 45.7544 0.0000 0.0000 0.0000
# 3 29.7189 45.7544 127.9465 0.0001 -0.0001 -0.0001
# 4 0.0000 0.0000 0.0001 39.3019 -0.0001 0.0000
# 5 0.0000 0.0000 -0.0001 -0.0001 3.8124 0.0000
# 6 0.0000 0.0000 -0.0001 0.0000 0.0000 19.9631
#
#
#
# Elastic Compliance Matrix: (Units=1/GPa)
#
#
# Indices 1 2 3 4 5 6 
#
# 1 0.009485 -0.001956 -0.001504 0.000000 0.000000 0.000000
# 2 -0.001956 0.012343 -0.003960 0.000000 0.000000 0.000000
# 3 -0.001504 -0.003960 0.009581 0.000000 0.000000 0.000000
# 4 0.000000 0.000000 0.000000 0.025444 0.000001 0.000000
# 5 0.000000 0.000000 0.000000 0.000001 0.262300 0.000000
# 6 0.000000 0.000000 0.000000 0.000000 0.000000 0.050092
#
#
# Mechanical properties :
#
#
# Convention : Reuss Voigt Hill
#
# Bulk Modulus (GPa) = 60.34705 61.18831 60.76768
# Shear Modulus (GPa) = 12.83343 28.65441 20.74392
#
# Velocity S-wave (km/s) = 2.30402 3.44279 2.92927
# Velocity P-wave (km/s) = 5.66042 6.41202 6.04791
#
# Compressibility (1/GPa) = 0.01657082
#
# Stress axis : x y z
#
# Youngs Moduli (GPa) = 105.42801 81.01741 104.37261
#
# Poissons Ratio (x) = 0.15845 0.15695
# Poissons Ratio (y) = 0.20619 0.41328
# Poissons Ratio (z) = 0.15854 0.32080
#
# Static dielectric constant tensor:
#      x y z
#    x 2.103540 0.000000 0.000000 
#    y 0.000000 1.943490 0.000000 
#    z 0.000000 0.000000 1.909680 
# 
# From -- ./inp_files/3185.got.cif
#   From: 2010.05.17/outbox.cif.g08.bks.cpg/sg43_2_cif.got.tgz:3185.got - 2010.06.03 19:21:55.
