data_PCOD9372282
_publ_section_title
;
Structure prediction by ZEFSAII (Michael W. Deem and Ramdas Pophale) SiO2 
 PCOD9372282
Probable space group: F D D 2
;
_chemical_formula_sum "Si O2"
_cell_formula_units_Z 112
_cell_length_a 11.313211
_cell_length_b 26.110411
_cell_length_c 15.348565
_cell_angle_alpha 90.000000
_cell_angle_beta 90.000000
_cell_angle_gamma 90.000000
_cell_volume 4533.852352
_symmetry_space_group_name_H-M "F D D 2"
_symmetry_group_IT_number 43
_symmetry_cell_setting 'orthorhombic'
loop_
_space_group_symop_operation_xyz
x,y,z
-x,-y,z
1/4-x,1/4+y,1/4+z
1/4+x,1/4-y,1/4+z
x,1/2+y,1/2+z
-x,1/2-y,1/2+z
1/4-x,3/4+y,3/4+z
1/4+x,3/4-y,3/4+z
1/2+x,y,1/2+z
1/2-x,-y,1/2+z
3/4-x,1/4+y,3/4+z
3/4+x,1/4-y,3/4+z
1/2+x,1/2+y,z
1/2-x,1/2-y,z
3/4-x,3/4+y,1/4+z
3/4+x,3/4-y,1/4+z
loop_
_atom_site_type_symbol
_atom_site_label
_atom_site_fract_x
_atom_site_fract_y
_atom_site_fract_z
Si Si1 0.154432 0.292695 0.283950
Si Si2 0.597662 0.058735 0.347493
Si Si3 0.037339 0.445149 0.931176
Si Si4 0.323342 0.371179 0.325495
Si Si5 0.417791 0.621682 0.264531
Si Si6 0.084401 0.678014 0.348361
Si Si7 0.839620 0.539172 0.286047
O O1 0.250000 0.250000 0.306127
O O2 0.102921 0.285560 0.187691
O O3 0.226094 0.344601 0.267064
O O4 0.053312 0.306494 0.351463
O O5 0.611558 0.118514 0.331228
O O6 0.455657 0.050466 0.344185
O O7 0.665545 0.022369 0.279426
O O8 0.099759 0.411896 0.853250
O O9 0.000000 0.500000 0.893430
O O10 0.115920 0.457092 0.015197
O O11 0.929980 0.412364 0.978267
O O12 0.451190 0.358248 0.288094
O O13 0.312177 0.345114 0.420633
O O14 0.275712 0.430074 0.320320
O O15 0.132519 0.692240 0.441617
#
# Coordination Sequence:
#
# PCOD9372282 Si02
#       7
#    16  16  16  16  16  16  16
#     4  12  25  42  72 112 143 197 251 321 387 454
#     4  11  23  44  72 111 149 196 254 319 382 457
#     4  11  29  51  77 107 159 209 263 321 393 471
#     4  11  21  45  73 104 157 191 257 320 384 462
#     4  10  26  48  73 107 150 209 255 313 392 479
#     4  12  26  46  72 110 154 193 257 321 386 463
#     4  11  23  42  77 112 149 196 252 318 392 447
#
# _framework density 24.703053000000001
#
# number of rings (size 3 to 8) (size 9 to 14) (size 15 to 20)
#    0.000    0.857    4.286    1.714    8.000    1.714 
#    2.571    0.000    0.000    0.000    0.000    0.000 
#    0.000    0.000    0.000    0.000    0.000    0.000 
#
# Total GULP energy -156079.655367 kJ/mol
# GULP energy per Si atom -5574.273406 kJ/mol
# Density = 2.464683 g / cm^3
# Si number density = 24.703053 Si / 1000 Ang^3
#
#
#
# Elastic Constant Matrix: (Units=GPa)
#
#
# Indices 1 2 3 4 5 6 
#
# 1 86.9104 15.1675 21.8158 0.0000 0.0000 0.0000
# 2 15.1675 115.1778 17.5190 0.0000 0.0000 0.0000
# 3 21.8158 17.5190 118.8824 0.0000 0.0000 0.0000
# 4 0.0000 0.0000 0.0000 26.5522 0.0000 0.0000
# 5 0.0000 0.0000 0.0000 0.0000 45.6647 0.0000
# 6 0.0000 0.0000 0.0000 0.0000 0.0000 27.9915
#
#
#
# Elastic Compliance Matrix: (Units=1/GPa)
#
#
# Indices 1 2 3 4 5 6 
#
# 1 0.012249 -0.001300 -0.002056 0.000000 0.000000 0.000000
# 2 -0.001300 0.009019 -0.001091 0.000000 0.000000 0.000000
# 3 -0.002056 -0.001091 0.008950 0.000000 0.000000 0.000000
# 4 0.000000 0.000000 0.000000 0.037662 0.000000 0.000000
# 5 0.000000 0.000000 0.000000 0.000000 0.021899 0.000000
# 6 0.000000 0.000000 0.000000 0.000000 0.000000 0.035725
#
#
# Mechanical properties :
#
#
# Convention : Reuss Voigt Hill
#
# Bulk Modulus (GPa) = 46.89512 47.77502 47.33507
# Shear Modulus (GPa) = 35.33425 37.80624 36.57024
#
# Velocity S-wave (km/s) = 3.78611 3.91631 3.85176
# Velocity P-wave (km/s) = 6.17557 6.31124 6.24377
#
# Compressibility (1/GPa) = 0.02132418
#
# Stress axis : x y z
#
# Youngs Moduli (GPa) = 81.63822 110.87290 111.73559
#
# Poissons Ratio (x) = 0.14417 0.22975
# Poissons Ratio (y) = 0.10616 0.12185
# Poissons Ratio (z) = 0.16786 0.12091
#
# Static dielectric constant tensor:
#      x y z
#    x 2.058630 0.000000 0.000000 
#    y 0.000000 2.179970 0.000000 
#    z 0.000000 0.000000 1.993040 
# 
# From -- ./inp_files/9794.got.cif
#   From: 2010.05.17/outbox.cif.g08.bks.cpg/sg43_5_cif.got.tgz:9794.got - 2010.06.03 19:21:55.
