data_PCOD9372054
_publ_section_title
;
Structure prediction by ZEFSAII (Michael W. Deem and Ramdas Pophale) SiO2 
 PCOD9372054
Probable space group: F D D 2
;
_chemical_formula_sum "Si O2"
_cell_formula_units_Z 88
_cell_length_a 27.682023
_cell_length_b 10.034005
_cell_length_c 12.101873
_cell_angle_alpha 90.000000
_cell_angle_beta 90.000000
_cell_angle_gamma 90.000000
_cell_volume 3361.435089
_symmetry_space_group_name_H-M "F D D 2"
_symmetry_group_IT_number 43
_symmetry_cell_setting 'orthorhombic'
loop_
_space_group_symop_operation_xyz
x,y,z
-x,-y,z
1/4-x,1/4+y,1/4+z
1/4+x,1/4-y,1/4+z
x,1/2+y,1/2+z
-x,1/2-y,1/2+z
1/4-x,3/4+y,3/4+z
1/4+x,3/4-y,3/4+z
1/2+x,y,1/2+z
1/2-x,-y,1/2+z
3/4-x,1/4+y,3/4+z
3/4+x,1/4-y,3/4+z
1/2+x,1/2+y,z
1/2-x,1/2-y,z
3/4-x,3/4+y,1/4+z
3/4+x,3/4-y,1/4+z
loop_
_atom_site_type_symbol
_atom_site_label
_atom_site_fract_x
_atom_site_fract_y
_atom_site_fract_z
Si Si1 0.679108 0.748846 0.100440
Si Si2 0.927797 0.427125 0.957767
Si Si3 0.434142 0.206663 0.649830
Si Si4 0.074343 0.364356 0.128149
Si Si5 0.000000 0.500000 0.525723
Si Si6 0.483041 0.767392 0.796977
O O1 0.625911 0.793521 0.131715
O O2 0.713799 0.822681 0.187721
O O3 0.700890 0.597343 0.110364
O O4 0.678790 0.737639 0.966543
O O5 0.936288 0.319205 0.054844
O O6 0.936836 0.571578 0.011343
O O7 0.871785 0.423742 0.922250
O O8 0.962415 0.395719 0.855916
O O9 0.462976 0.080827 0.601425
O O10 0.460422 0.241968 0.766980
O O11 0.036952 0.257020 0.172499
#
# Coordination Sequence:
#
# PCOD9372054 Si02
#       6
#    16  16  16  16   8  16
#     4  10  24  45  76 112 154 203 267 317 398 480
#     4  12  27  51  76 116 162 204 266 338 397 477
#     4  12  29  50  77 113 158 205 265 332 404 482
#     4  10  24  43  78 109 159 203 261 325 394 470
#     4  12  26  46  82 106 154 208 260 326 404 478
#     4  10  27  50  76 113 155 207 268 318 401 482
#
# _framework density 26.179295
#
# number of rings (size 3 to 8) (size 9 to 14) (size 15 to 20)
#    1.091    0.000    1.818    2.182   10.182    0.727 
#    6.545    0.000    0.000    0.000    0.000    0.000 
#    0.000    0.000    0.000    0.000    0.000    0.000 
#
# Total GULP energy -122725.681166 kJ/mol
# GULP energy per Si atom -5578.440053 kJ/mol
# Density = 2.611971 g / cm^3
# Si number density = 26.179295 Si / 1000 Ang^3
#
#
#
# Elastic Constant Matrix: (Units=GPa)
#
#
# Indices 1 2 3 4 5 6 
#
# 1 130.6840 58.0816 56.8646 0.0000 0.0000 0.0000
# 2 58.0816 80.1998 57.9227 0.0000 0.0000 0.0000
# 3 56.8646 57.9227 124.1732 0.0000 0.0000 0.0000
# 4 0.0000 0.0000 0.0000 11.2632 0.0000 0.0000
# 5 0.0000 0.0000 0.0000 0.0000 53.1339 0.0000
# 6 0.0000 0.0000 0.0000 0.0000 0.0000 27.6459
#
#
#
# Elastic Compliance Matrix: (Units=1/GPa)
#
#
# Indices 1 2 3 4 5 6 
#
# 1 0.011639 -0.006906 -0.002108 0.000000 0.000000 0.000000
# 2 -0.006906 0.022902 -0.007520 0.000000 0.000000 0.000000
# 3 -0.002108 -0.007520 0.012527 0.000000 0.000000 0.000000
# 4 0.000000 0.000000 0.000000 0.088785 0.000000 0.000000
# 5 0.000000 0.000000 0.000000 0.000000 0.018820 0.000000
# 6 0.000000 0.000000 0.000000 0.000000 0.000000 0.036172
#
#
# Mechanical properties :
#
#
# Convention : Reuss Voigt Hill
#
# Bulk Modulus (GPa) = 71.44090 75.64389 73.54239
# Shear Modulus (GPa) = 21.87412 29.22111 25.54762
#
# Velocity S-wave (km/s) = 2.89372 3.34457 3.12728
# Velocity P-wave (km/s) = 6.20590 6.62360 6.41815
#
# Compressibility (1/GPa) = 0.01399758
#
# Stress axis : x y z
#
# Youngs Moduli (GPa) = 85.91846 43.66469 79.82895
#
# Poissons Ratio (x) = 0.30156 0.16832
# Poissons Ratio (y) = 0.59338 0.60033
# Poissons Ratio (z) = 0.18116 0.32837
#
# Static dielectric constant tensor:
#      x y z
#    x 2.009310 0.000000 0.000000 
#    y 0.000000 2.304520 0.000000 
#    z 0.000000 0.000000 2.176270 
# 
# From -- ./inp_files/8221.got.cif
#   From: 2010.05.17/outbox.cif.g08.bks.cpg/sg43_5_cif.got.tgz:8221.got - 2010.06.03 19:21:55.
