data_PCOD9372525
_publ_section_title
;
Structure prediction by ZEFSAII (Michael W. Deem and Ramdas Pophale) SiO2 
 PCOD9372525
Probable space group: F D D 2
;
_chemical_formula_sum "Si O2"
_cell_formula_units_Z 96
_cell_length_a 18.881879
_cell_length_b 9.498456
_cell_length_c 26.045177
_cell_angle_alpha 90.000000
_cell_angle_beta 90.000000
_cell_angle_gamma 90.000000
_cell_volume 4671.168555
_symmetry_space_group_name_H-M "F D D 2"
_symmetry_group_IT_number 43
_symmetry_cell_setting 'orthorhombic'
loop_
_space_group_symop_operation_xyz
x,y,z
-x,-y,z
1/4-x,1/4+y,1/4+z
1/4+x,1/4-y,1/4+z
x,1/2+y,1/2+z
-x,1/2-y,1/2+z
1/4-x,3/4+y,3/4+z
1/4+x,3/4-y,3/4+z
1/2+x,y,1/2+z
1/2-x,-y,1/2+z
3/4-x,1/4+y,3/4+z
3/4+x,1/4-y,3/4+z
1/2+x,1/2+y,z
1/2-x,1/2-y,z
3/4-x,3/4+y,1/4+z
3/4+x,3/4-y,1/4+z
loop_
_atom_site_type_symbol
_atom_site_label
_atom_site_fract_x
_atom_site_fract_y
_atom_site_fract_z
Si Si1 0.328349 0.067896 0.543160
Si Si2 0.890536 0.045057 0.934177
Si Si3 0.221805 0.891097 0.278702
Si Si4 0.775795 0.516558 0.176521
Si Si5 0.569631 0.869015 0.820642
Si Si6 0.550824 0.623838 0.093377
O O1 0.357951 0.102550 0.486836
O O2 0.244398 0.038999 0.540843
O O3 0.321109 0.210055 0.577155
O O4 0.382529 0.952730 0.565375
O O5 0.832698 0.037858 0.889875
O O6 0.952694 0.149343 0.914710
O O7 0.923539 0.892587 0.945541
O O8 0.250000 0.750000 0.304421
O O9 0.138987 0.861685 0.285307
O O10 0.253238 0.910769 0.221627
O O11 0.251838 0.029034 0.307415
O O12 0.812923 0.447047 0.127334
O O13 0.500000 0.500000 0.113020
#
# Coordination Sequence:
#
# PCOD9372525 Si02
#       6
#    16  16  16  16  16  16
#     4  11  23  44  69 102 139 182 243 300 355 441
#     4  11  23  42  72  99 134 193 242 288 367 453
#     4  12  26  45  71 100 146 188 240 301 375 438
#     4  11  23  43  70 100 142 191 238 298 375 434
#     4  11  24  43  67 103 144 176 239 308 360 422
#     4  12  23  44  73 102 138 188 241 303 366 438
#
# _framework density 20.551603
#
# number of rings (size 3 to 8) (size 9 to 14) (size 15 to 20)
#    0.000    0.667    6.667    1.000    4.667    0.000 
#    3.000    0.000    0.000    0.000    0.000    0.000 
#    0.000    0.000    0.000    0.000    0.000    0.000 
#
# Total GULP energy -133655.559306 kJ/mol
# GULP energy per Si atom -5568.981638 kJ/mol
# Density = 2.050483 g / cm^3
# Si number density = 20.551603 Si / 1000 Ang^3
#
#
#
# Elastic Constant Matrix: (Units=GPa)
#
#
# Indices 1 2 3 4 5 6 
#
# 1 133.4004 31.5567 35.7663 0.0000 0.0000 0.0000
# 2 31.5567 65.2293 22.5389 0.0000 0.0000 0.0000
# 3 35.7663 22.5389 90.3331 0.0000 0.0000 0.0000
# 4 0.0000 0.0000 0.0000 28.2703 0.0000 0.0000
# 5 0.0000 0.0000 0.0000 0.0000 26.3493 0.0000
# 6 0.0000 0.0000 0.0000 0.0000 0.0000 32.9588
#
#
#
# Elastic Compliance Matrix: (Units=1/GPa)
#
#
# Indices 1 2 3 4 5 6 
#
# 1 0.009038 -0.003432 -0.002722 0.000000 0.000000 0.000000
# 2 -0.003432 0.018080 -0.003152 0.000000 0.000000 0.000000
# 3 -0.002722 -0.003152 0.012935 0.000000 0.000000 0.000000
# 4 0.000000 0.000000 0.000000 0.035373 0.000000 0.000000
# 5 0.000000 0.000000 0.000000 0.000000 0.037952 0.000000
# 6 0.000000 0.000000 0.000000 0.000000 0.000000 0.030341
#
#
# Mechanical properties :
#
#
# Convention : Reuss Voigt Hill
#
# Bulk Modulus (GPa) = 46.64227 52.07629 49.35928
# Shear Modulus (GPa) = 29.50253 30.78907 30.14580
#
# Velocity S-wave (km/s) = 3.79296 3.87477 3.83408
# Velocity P-wave (km/s) = 6.47507 6.73890 6.60830
#
# Compressibility (1/GPa) = 0.02143978
#
# Stress axis : x y z
#
# Youngs Moduli (GPa) = 110.64531 55.30970 77.31256
#
# Poissons Ratio (x) = 0.18981 0.21046
# Poissons Ratio (y) = 0.37971 0.24372
# Poissons Ratio (z) = 0.30120 0.17436
#
# Static dielectric constant tensor:
#      x y z
#    x 1.900400 0.000000 0.000000 
#    y 0.000000 1.830360 0.000000 
#    z 0.000000 0.000000 1.728030 
# 
# From -- ./inp_files/26310.got.cif
#   From: 2010.05.17/outbox.cif.g08.bks.cpg/sg43_14_cif.got.tgz:26310.got - 2010.06.03 19:21:55.
