data_PCOD9372563
_publ_section_title
;
Structure prediction by ZEFSAII (Michael W. Deem and Ramdas Pophale) SiO2 
 PCOD9372563
Probable space group: F D D 2
;
_chemical_formula_sum "Si O2"
_cell_formula_units_Z 96
_cell_length_a 9.396448
_cell_length_b 20.245727
_cell_length_c 21.907716
_cell_angle_alpha 90.000000
_cell_angle_beta 90.000000
_cell_angle_gamma 90.000000
_cell_volume 4167.678345
_symmetry_space_group_name_H-M "F D D 2"
_symmetry_group_IT_number 43
_symmetry_cell_setting 'orthorhombic'
loop_
_space_group_symop_operation_xyz
x,y,z
-x,-y,z
1/4-x,1/4+y,1/4+z
1/4+x,1/4-y,1/4+z
x,1/2+y,1/2+z
-x,1/2-y,1/2+z
1/4-x,3/4+y,3/4+z
1/4+x,3/4-y,3/4+z
1/2+x,y,1/2+z
1/2-x,-y,1/2+z
3/4-x,1/4+y,3/4+z
3/4+x,1/4-y,3/4+z
1/2+x,1/2+y,z
1/2-x,1/2-y,z
3/4-x,3/4+y,1/4+z
3/4+x,3/4-y,1/4+z
loop_
_atom_site_type_symbol
_atom_site_label
_atom_site_fract_x
_atom_site_fract_y
_atom_site_fract_z
Si Si1 0.420438 0.236016 0.581700
Si Si2 0.952662 0.107899 0.160433
Si Si3 0.389825 0.713930 0.258257
Si Si4 0.750900 0.935529 0.200186
Si Si5 0.033761 0.824949 0.691620
Si Si6 0.642186 0.555422 0.647326
O O1 0.250000 0.250000 0.582702
O O2 0.450043 0.164522 0.610007
O O3 0.472500 0.226204 0.512600
O O4 0.504642 0.286848 0.626731
O O5 0.934744 0.148593 0.223173
O O6 0.812742 0.066057 0.150229
O O7 0.101110 0.071347 0.165078
O O8 0.250000 0.750000 0.230864
O O9 0.504947 0.771235 0.244604
O O10 0.354401 0.691622 0.326225
O O11 0.683027 0.862040 0.202849
O O12 0.632999 0.978892 0.165893
O O13 0.921095 0.885532 0.688121
#
# Coordination Sequence:
#
# PCOD9372563 Si02
#       6
#    16  16  16  16  16  16
#     4  11  23  48  77  97 144 203 231 291 367 427
#     4  11  23  46  71 103 138 185 243 285 354 431
#     4  11  23  44  76  97 136 190 231 292 346 415
#     4  12  28  42  69 113 141 183 235 307 353 414
#     4  11  25  48  70 105 143 184 243 284 355 427
#     4  12  24  44  71 101 138 187 233 285 353 428
#
# _framework density 23.034407999999999
#
# number of rings (size 3 to 8) (size 9 to 14) (size 15 to 20)
#    0.000    0.667    3.333    5.000    4.667    4.000 
#    6.000    0.000    0.000    0.000    0.000    0.000 
#    0.000    0.000    0.000    0.000    0.000    0.000 
#
# Total GULP energy -134075.175463 kJ/mol
# GULP energy per Si atom -5586.465644 kJ/mol
# Density = 2.298198 g / cm^3
# Si number density = 23.034408 Si / 1000 Ang^3
#
#
#
# Elastic Constant Matrix: (Units=GPa)
#
#
# Indices 1 2 3 4 5 6 
#
# 1 60.1801 -6.2643 -26.5310 0.0000 0.0000 0.0000
# 2 -6.2643 84.2481 -17.8384 0.0000 0.0000 0.0000
# 3 -26.5310 -17.8384 63.4193 0.0000 0.0000 0.0000
# 4 0.0000 0.0000 0.0000 13.1702 0.0000 0.0000
# 5 0.0000 0.0000 0.0000 0.0000 20.5773 0.0000
# 6 0.0000 0.0000 0.0000 0.0000 0.0000 51.4972
#
#
#
# Elastic Compliance Matrix: (Units=1/GPa)
#
#
# Indices 1 2 3 4 5 6 
#
# 1 0.021412 0.003710 0.010001 0.000000 0.000000 0.000000
# 2 0.003710 0.013264 0.005283 0.000000 0.000000 0.000000
# 3 0.010001 0.005283 0.021438 0.000000 0.000000 0.000000
# 4 0.000000 0.000000 0.000000 0.075929 0.000000 0.000000
# 5 0.000000 0.000000 0.000000 0.000000 0.048597 0.000000
# 6 0.000000 0.000000 0.000000 0.000000 0.000000 0.019419
#
#
# Mechanical properties :
#
#
# Convention : Reuss Voigt Hill
#
# Bulk Modulus (GPa) = 10.62690 11.84224 11.23457
# Shear Modulus (GPa) = 25.84794 34.28100 30.06447
#
# Velocity S-wave (km/s) = 3.35348 3.86197 3.61667
# Velocity P-wave (km/s) = 4.42921 5.00387 4.72528
#
# Compressibility (1/GPa) = 0.09410085
#
# Stress axis : x y z
#
# Youngs Moduli (GPa) = 46.70284 75.39151 46.64645
#
# Poissons Ratio (x) = -0.27968 -0.46651
# Poissons Ratio (y) = -0.17325 -0.24642
# Poissons Ratio (z) = -0.46707 -0.39828
#
# Static dielectric constant tensor:
#      x y z
#    x 1.913960 0.000000 0.000000 
#    y 0.000000 1.918020 0.000000 
#    z 0.000000 0.000000 1.890560 
# 
# From -- ./inp_files/24226.got.cif
#   From: 2010.05.17/outbox.cif.g08.bks.cpg/sg43_13_cif.got.tgz:24226.got - 2010.06.03 19:21:55.
