data_PCOD9372022
_publ_section_title
;
Structure prediction by ZEFSAII (Michael W. Deem and Ramdas Pophale) SiO2 
 PCOD9372022
Probable space group: F D D 2
;
_chemical_formula_sum "Si O2"
_cell_formula_units_Z 64
_cell_length_a 30.342801
_cell_length_b 4.935040
_cell_length_c 17.799566
_cell_angle_alpha 90.000000
_cell_angle_beta 90.000000
_cell_angle_gamma 90.000000
_cell_volume 2665.359284
_symmetry_space_group_name_H-M "F D D 2"
_symmetry_group_IT_number 43
_symmetry_cell_setting 'orthorhombic'
loop_
_space_group_symop_operation_xyz
x,y,z
-x,-y,z
1/4-x,1/4+y,1/4+z
1/4+x,1/4-y,1/4+z
x,1/2+y,1/2+z
-x,1/2-y,1/2+z
1/4-x,3/4+y,3/4+z
1/4+x,3/4-y,3/4+z
1/2+x,y,1/2+z
1/2-x,-y,1/2+z
3/4-x,1/4+y,3/4+z
3/4+x,1/4-y,3/4+z
1/2+x,1/2+y,z
1/2-x,1/2-y,z
3/4-x,3/4+y,1/4+z
3/4+x,3/4-y,1/4+z
loop_
_atom_site_type_symbol
_atom_site_label
_atom_site_fract_x
_atom_site_fract_y
_atom_site_fract_z
Si Si1 0.750000 0.750000 0.202050
Si Si2 0.340762 0.562175 0.754501
Si Si3 0.000000 0.500000 0.841275
Si Si4 0.344726 0.150411 0.887178
Si Si5 0.673979 0.371734 0.978759
O O1 0.706782 0.805175 0.250911
O O2 0.743909 0.499750 0.146734
O O3 0.356721 0.465072 0.671767
O O4 0.379139 0.782763 0.771058
O O5 0.341703 0.301265 0.807850
O O6 0.958189 0.500327 0.786339
O O7 0.313066 0.345059 0.939208
O O8 0.334343 0.846123 0.912721
#
# Coordination Sequence:
#
# PCOD9372022 Si02
#       5
#     8  16   8  16  16
#     4  12  28  41  78 101 160 190 268 314 386 460
#     4  10  26  45  71 110 145 199 248 320 383 456
#     4  12  26  49  70 109 144 212 256 312 386 470
#     4  10  24  41  75  99 150 187 252 307 390 444
#     4  10  25  42  75  99 147 191 252 310 372 461
#
# _framework density 24.011775
#
# number of rings (size 3 to 8) (size 9 to 14) (size 15 to 20)
#    1.500    0.000    0.000    3.000   10.500    1.000 
#    0.000    0.000    0.000    0.000    0.000    0.000 
#    0.000    0.000    0.000    0.000    0.000    0.000 
#
# Total GULP energy -89376.278561 kJ/mol
# GULP energy per Si atom -5586.017410 kJ/mol
# Density = 2.395712 g / cm^3
# Si number density = 24.011775 Si / 1000 Ang^3
#
#
#
# Elastic Constant Matrix: (Units=GPa)
#
#
# Indices 1 2 3 4 5 6 
#
# 1 115.8244 10.9350 50.5571 0.0019 -0.0001 -0.0016
# 2 10.9350 155.5237 35.6006 0.0036 -0.0010 -0.0033
# 3 50.5571 35.6006 112.8047 0.0016 -0.0004 -0.0010
# 4 0.0019 0.0036 0.0016 43.1423 -0.0009 -0.0022
# 5 -0.0001 -0.0010 -0.0004 -0.0009 46.7481 0.0009
# 6 -0.0016 -0.0033 -0.0010 -0.0022 0.0009 19.4330
#
#
#
# Elastic Compliance Matrix: (Units=1/GPa)
#
#
# Indices 1 2 3 4 5 6 
#
# 1 0.010754 0.000374 -0.004938 0.000000 0.000000 0.000001
# 2 0.000374 0.006944 -0.002359 -0.000001 0.000000 0.000001
# 3 -0.004938 -0.002359 0.011822 0.000000 0.000000 0.000000
# 4 0.000000 -0.000001 0.000000 0.023179 0.000000 0.000003
# 5 0.000000 0.000000 0.000000 0.000000 0.021391 -0.000001
# 6 0.000001 0.000001 0.000000 0.000003 -0.000001 0.051459
#
#
# Mechanical properties :
#
#
# Convention : Reuss Voigt Hill
#
# Bulk Modulus (GPa) = 63.79789 64.25979 64.02884
# Shear Modulus (GPa) = 34.57361 41.00202 37.78782
#
# Velocity S-wave (km/s) = 3.79867 4.13677 3.97132
# Velocity P-wave (km/s) = 6.77251 7.04536 6.91028
#
# Compressibility (1/GPa) = 0.01567450
#
# Stress axis : x y z
#
# Youngs Moduli (GPa) = 92.99094 144.01779 84.58532
#
# Poissons Ratio (x) = -0.05389 0.41766
# Poissons Ratio (y) = -0.03480 0.19954
# Poissons Ratio (z) = 0.45916 0.33975
#
# Static dielectric constant tensor:
#      x y z
#    x 1.895990 0.000000 0.000000 
#    y 0.000000 1.930470 0.000000 
#    z 0.000000 0.000000 2.026690 
# 
# From -- ./inp_files/15164.got.cif
#   From: 2010.05.17/outbox.cif.g08.bks.cpg/sg43_8_cif.got.tgz:15164.got - 2010.06.03 19:21:55.
