data_PCOD9372581
_publ_section_title
;
Structure prediction by ZEFSAII (Michael W. Deem and Ramdas Pophale) SiO2 
 PCOD9372581
Probable space group: F D D 2
;
_chemical_formula_sum "Si O2"
_cell_formula_units_Z 56
_cell_length_a 12.063008
_cell_length_b 14.331449
_cell_length_c 14.058810
_cell_angle_alpha 90.000000
_cell_angle_beta 90.000000
_cell_angle_gamma 90.000000
_cell_volume 2430.492471
_symmetry_space_group_name_H-M "F D D 2"
_symmetry_group_IT_number 43
_symmetry_cell_setting 'orthorhombic'
loop_
_space_group_symop_operation_xyz
x,y,z
-x,-y,z
1/4-x,1/4+y,1/4+z
1/4+x,1/4-y,1/4+z
x,1/2+y,1/2+z
-x,1/2-y,1/2+z
1/4-x,3/4+y,3/4+z
1/4+x,3/4-y,3/4+z
1/2+x,y,1/2+z
1/2-x,-y,1/2+z
3/4-x,1/4+y,3/4+z
3/4+x,1/4-y,3/4+z
1/2+x,1/2+y,z
1/2-x,1/2-y,z
3/4-x,3/4+y,1/4+z
3/4+x,3/4-y,1/4+z
loop_
_atom_site_type_symbol
_atom_site_label
_atom_site_fract_x
_atom_site_fract_y
_atom_site_fract_z
Si Si1 0.370361 0.980677 0.667520
Si Si2 0.750000 0.750000 0.899984
Si Si3 0.697563 0.926526 0.018751
Si Si4 0.858618 0.685703 0.627711
O O1 0.326354 0.086789 0.671437
O O2 0.500000 0.000000 0.648919
O O3 0.306497 0.929496 0.583829
O O4 0.355245 0.929837 0.768149
O O5 0.657649 0.699733 0.835134
O O6 0.693292 0.829284 0.963929
O O7 0.697763 0.011002 0.942251
O O8 0.750000 0.750000 0.626547
#
# Coordination Sequence:
#
# PCOD9372581 Si02
#       4
#    16   8  16  16
#     4  11  26  45  74 108 151 197 249 307 379 452
#     4  12  30  50  80 108 162 200 264 328 388 468
#     4  12  27  48  77 114 152 202 260 322 390 454
#     4  11  23  47  74 105 143 202 246 304 372 455
#
# _framework density 23.040597999999999
#
# number of rings (size 3 to 8) (size 9 to 14) (size 15 to 20)
#    0.000    0.571    1.429    6.857    8.000    2.286 
#    0.000    0.000    0.000    0.000    0.000    0.000 
#    0.000    0.000    0.000    0.000    0.000    0.000 
#
# Total GULP energy -78438.876362 kJ/mol
# GULP energy per Si atom -5602.776883 kJ/mol
# Density = 2.298816 g / cm^3
# Si number density = 23.040598 Si / 1000 Ang^3
#
#
#
# Elastic Constant Matrix: (Units=GPa)
#
#
# Indices 1 2 3 4 5 6 
#
# 1 109.5262 8.3886 69.6050 0.0000 0.0000 0.0000
# 2 8.3886 97.3253 25.5780 0.0000 0.0000 0.0000
# 3 69.6050 25.5780 147.7722 0.0000 0.0000 0.0000
# 4 0.0000 0.0000 0.0000 53.2803 0.0000 0.0000
# 5 0.0000 0.0000 0.0000 0.0000 29.9489 0.0000
# 6 0.0000 0.0000 0.0000 0.0000 0.0000 31.3194
#
#
#
# Elastic Compliance Matrix: (Units=1/GPa)
#
#
# Indices 1 2 3 4 5 6 
#
# 1 0.013055 0.000514 -0.006239 0.000000 0.000000 0.000000
# 2 0.000514 0.010785 -0.002109 0.000000 0.000000 0.000000
# 3 -0.006239 -0.002109 0.010071 0.000000 0.000000 0.000000
# 4 0.000000 0.000000 0.000000 0.018769 0.000000 0.000000
# 5 0.000000 0.000000 0.000000 0.000000 0.033390 0.000000
# 6 0.000000 0.000000 0.000000 0.000000 0.000000 0.031929
#
#
# Mechanical properties :
#
#
# Convention : Reuss Voigt Hill
#
# Bulk Modulus (GPa) = 54.81101 62.41858 58.61479
# Shear Modulus (GPa) = 35.77896 39.64653 37.71274
#
# Velocity S-wave (km/s) = 3.94492 4.15266 4.05012
# Velocity P-wave (km/s) = 6.67760 7.08112 6.88232
#
# Compressibility (1/GPa) = 0.01824451
#
# Stress axis : x y z
#
# Youngs Moduli (GPa) = 76.59609 92.72349 99.29747
#
# Poissons Ratio (x) = -0.04768 0.61947
# Poissons Ratio (y) = -0.03939 0.20942
# Poissons Ratio (z) = 0.47785 0.19555
#
# Static dielectric constant tensor:
#      x y z
#    x 1.908100 0.000000 0.000000 
#    y 0.000000 1.779980 0.000000 
#    z 0.000000 0.000000 1.860890 
# 
# From -- ./inp_files/5848.got.cif
#   From: 2010.05.17/outbox.cif.g08.bks.cpg/sg43_3_cif.got.tgz:5848.got - 2010.06.03 19:21:55.
