data_PCOD9372942
_publ_section_title
;
Structure prediction by ZEFSAII (Michael W. Deem and Ramdas Pophale) SiO2 
 PCOD9372942
Probable space group: F D D 2
;
_chemical_formula_sum "Si O2"
_cell_formula_units_Z 64
_cell_length_a 11.158277
_cell_length_b 11.158275
_cell_length_c 15.742155
_cell_angle_alpha 90.000000
_cell_angle_beta 90.000000
_cell_angle_gamma 90.000000
_cell_volume 1960.010433
_symmetry_space_group_name_H-M "F D D 2"
_symmetry_group_IT_number 43
_symmetry_cell_setting 'orthorhombic'
loop_
_space_group_symop_operation_xyz
x,y,z
-x,-y,z
1/4-x,1/4+y,1/4+z
1/4+x,1/4-y,1/4+z
x,1/2+y,1/2+z
-x,1/2-y,1/2+z
1/4-x,3/4+y,3/4+z
1/4+x,3/4-y,3/4+z
1/2+x,y,1/2+z
1/2-x,-y,1/2+z
3/4-x,1/4+y,3/4+z
3/4+x,1/4-y,3/4+z
1/2+x,1/2+y,z
1/2-x,1/2-y,z
3/4-x,3/4+y,1/4+z
3/4+x,3/4-y,1/4+z
loop_
_atom_site_type_symbol
_atom_site_label
_atom_site_fract_x
_atom_site_fract_y
_atom_site_fract_z
Si Si1 0.268744 0.482137 0.330180
Si Si2 0.364738 0.885262 0.202285
Si Si3 0.750000 0.250000 0.698549
Si Si4 0.000000 0.000000 0.206022
Si Si5 0.732137 0.018744 0.574391
O O1 0.279558 0.602541 0.387112
O O2 0.156550 0.505811 0.267100
O O3 0.259217 0.366862 0.393011
O O4 0.505811 0.343450 0.387471
O O5 0.115189 0.013079 0.267763
O O6 0.236922 0.134811 0.136808
O O7 0.633138 0.259217 0.761560
O O8 0.102541 0.720442 0.267459
#
# Coordination Sequence:
#
# PCOD9372942 Si02
#       5
#    16  16   8   8  16
#     4  12  30  58  92 135 188 254 326 416 501 601
#     4  12  30  56  92 130 182 246 326 404 494 586
#     4  12  30  59  92 137 194 254 326 411 508 602
#     4  12  30  59  92 137 194 254 326 411 508 602
#     4  12  30  58  92 135 188 254 326 416 501 601
#
# _framework density 32.652887
#
# number of rings (size 3 to 8) (size 9 to 14) (size 15 to 20)
#    0.000    0.000    0.000    6.000    0.000   21.000 
#    0.000    0.000    0.000    0.000    0.000    0.000 
#    0.000    0.000    0.000    0.000    0.000    0.000 
#
# Total GULP energy -89260.581633 kJ/mol
# GULP energy per Si atom -5578.786352 kJ/mol
# Density = 3.257857 g / cm^3
# Si number density = 32.652887 Si / 1000 Ang^3
#
#
#
# Elastic Constant Matrix: (Units=GPa)
#
#
# Indices 1 2 3 4 5 6 
#
# 1 230.3422 77.7019 156.4885 0.0000 0.0000 0.0000
# 2 77.7019 230.3424 156.4886 0.0000 0.0000 0.0000
# 3 156.4885 156.4886 285.5741 0.0000 0.0000 0.0000
# 4 0.0000 0.0000 0.0000 139.0773 0.0000 0.0000
# 5 0.0000 0.0000 0.0000 0.0000 139.0773 0.0000
# 6 0.0000 0.0000 0.0000 0.0000 0.0000 30.8819
#
#
#
# Elastic Compliance Matrix: (Units=1/GPa)
#
#
# Indices 1 2 3 4 5 6 
#
# 1 0.006938 0.000386 -0.004013 0.000000 0.000000 0.000000
# 2 0.000386 0.006938 -0.004013 0.000000 0.000000 0.000000
# 3 -0.004013 -0.004013 0.007900 0.000000 0.000000 0.000000
# 4 0.000000 0.000000 0.000000 0.007190 0.000000 0.000000
# 5 0.000000 0.000000 0.000000 0.000000 0.007190 0.000000
# 6 0.000000 0.000000 0.000000 0.000000 0.000000 0.032381
#
#
# Mechanical properties :
#
#
# Convention : Reuss Voigt Hill
#
# Bulk Modulus (GPa) = 153.97402 169.73518 161.85460
# Shear Modulus (GPa) = 58.15104 85.51263 71.83183
#
# Velocity S-wave (km/s) = 4.22463 5.12301 4.69536
# Velocity P-wave (km/s) = 8.42934 9.33210 8.89219
#
# Compressibility (1/GPa) = 0.00649460
#
# Stress axis : x y z
#
# Youngs Moduli (GPa) = 144.14153 144.14167 126.57954
#
# Poissons Ratio (x) = -0.05568 0.50801
# Poissons Ratio (y) = -0.05568 0.50801
# Poissons Ratio (z) = 0.57849 0.57849
#
# Static dielectric constant tensor:
#      x y z
#    x 2.628330 0.000000 0.000000 
#    y 0.000000 2.628330 0.000000 
#    z 0.000000 0.000000 2.564660 
# 
# From -- ./inp_files/13170.got.cif
#   From: 2010.05.17/outbox.cif.g08.bks.cpg/sg43_7_cif.got.tgz:13170.got - 2010.06.03 19:21:55.
