data_PCOD9372286
_publ_section_title
;
Structure prediction by ZEFSAII (Michael W. Deem and Ramdas Pophale) SiO2 
 PCOD9372286
Probable space group: F D D 2
;
_chemical_formula_sum "Si O2"
_cell_formula_units_Z 56
_cell_length_a 23.753091
_cell_length_b 19.157749
_cell_length_c 4.936885
_cell_angle_alpha 90.000000
_cell_angle_beta 90.000000
_cell_angle_gamma 90.000000
_cell_volume 2246.557933
_symmetry_space_group_name_H-M "F D D 2"
_symmetry_group_IT_number 43
_symmetry_cell_setting 'orthorhombic'
loop_
_space_group_symop_operation_xyz
x,y,z
-x,-y,z
1/4-x,1/4+y,1/4+z
1/4+x,1/4-y,1/4+z
x,1/2+y,1/2+z
-x,1/2-y,1/2+z
1/4-x,3/4+y,3/4+z
1/4+x,3/4-y,3/4+z
1/2+x,y,1/2+z
1/2-x,-y,1/2+z
3/4-x,1/4+y,3/4+z
3/4+x,1/4-y,3/4+z
1/2+x,1/2+y,z
1/2-x,1/2-y,z
3/4-x,3/4+y,1/4+z
3/4+x,3/4-y,1/4+z
loop_
_atom_site_type_symbol
_atom_site_label
_atom_site_fract_x
_atom_site_fract_y
_atom_site_fract_z
Si Si1 0.969836 0.721091 0.359260
Si Si2 0.817490 0.853998 0.744499
Si Si3 0.111822 0.020940 0.813904
Si Si4 0.500000 0.000000 0.611523
O O1 0.969548 0.644614 0.221906
O O2 0.905239 0.742349 0.310068
O O3 0.993081 0.730567 0.658013
O O4 0.860308 0.914966 0.650111
O O5 0.856978 0.798120 0.890085
O O6 0.778710 0.810520 0.542462
O O7 0.050091 0.031906 0.932436
#
# Coordination Sequence:
#
# PCOD9372286 Si02
#       4
#    16  16  16   8
#     4  10  26  48  79 116 158 212 270 328 406 486
#     4  10  27  46  78 113 160 212 267 342 410 487
#     4  10  27  46  76 115 153 210 268 337 412 485
#     4  12  26  48  74 114 164 202 284 340 410 490
#
# _framework density 24.927021
#
# number of rings (size 3 to 8) (size 9 to 14) (size 15 to 20)
#    1.714    0.000    0.000    0.857   12.000    4.571 
#    0.000    0.000    0.000    0.000    0.000    0.000 
#    0.000    0.000    0.000    0.000    0.000    0.000 
#
# Total GULP energy -78286.635202 kJ/mol
# GULP energy per Si atom -5591.902514 kJ/mol
# Density = 2.487029 g / cm^3
# Si number density = 24.927021 Si / 1000 Ang^3
#
#
#
# Elastic Constant Matrix: (Units=GPa)
#
#
# Indices 1 2 3 4 5 6 
#
# 1 175.9590 55.5146 33.8285 0.0033 0.0030 -0.0003
# 2 55.5146 172.9713 35.2503 0.0047 0.0006 -0.0004
# 3 33.8285 35.2503 71.6929 0.0098 -0.0118 -0.0013
# 4 0.0033 0.0047 0.0098 39.3837 -0.0013 -0.0014
# 5 0.0030 0.0006 -0.0118 -0.0013 1.7882 0.0010
# 6 -0.0003 -0.0004 -0.0013 -0.0014 0.0010 62.2042
#
#
#
# Elastic Compliance Matrix: (Units=1/GPa)
#
#
# Indices 1 2 3 4 5 6 
#
# 1 0.006654 -0.001662 -0.002322 0.000000 -0.000026 0.000000
# 2 -0.001662 0.006840 -0.002579 0.000000 -0.000017 0.000000
# 3 -0.002322 -0.002579 0.016312 -0.000004 0.000113 0.000000
# 4 0.000000 0.000000 -0.000004 0.025391 0.000018 0.000001
# 5 -0.000026 -0.000017 0.000113 0.000018 0.559234 -0.000009
# 6 0.000000 0.000000 0.000000 0.000001 -0.000009 0.016076
#
#
# Mechanical properties :
#
#
# Convention : Reuss Voigt Hill
#
# Bulk Modulus (GPa) = 59.95426 74.42334 67.18880
# Shear Modulus (GPa) = 7.70184 40.41053 24.05619
#
# Velocity S-wave (km/s) = 1.75968 4.03072 3.10992
# Velocity P-wave (km/s) = 5.31345 7.18217 6.31729
#
# Compressibility (1/GPa) = 0.01667938
#
# Stress axis : x y z
#
# Youngs Moduli (GPa) = 150.28352 146.19045 61.30351
#
# Poissons Ratio (x) = 0.24301 0.14237
# Poissons Ratio (y) = 0.24982 0.15810
# Poissons Ratio (z) = 0.34902 0.37702
#
# Static dielectric constant tensor:
#      x y z
#    x 1.981100 0.000000 0.000000 
#    y 0.000000 1.975440 0.000000 
#    z 0.000000 0.000000 1.979090 
# 
# From -- ./inp_files/329.got.cif
#   From: 2010.05.17/outbox.cif.g08.bks.cpg/sg43_1_cif.got.tgz:329.got - 2010.06.03 19:21:55.
