data_PCOD9372029
_publ_section_title
;
Structure prediction by ZEFSAII (Michael W. Deem and Ramdas Pophale) SiO2 
 PCOD9372029
Probable space group: F D D 2
;
_chemical_formula_sum "Si O2"
_cell_formula_units_Z 120
_cell_length_a 22.318992
_cell_length_b 16.137978
_cell_length_c 14.431213
_cell_angle_alpha 90.000000
_cell_angle_beta 90.000000
_cell_angle_gamma 90.000000
_cell_volume 5197.883392
_symmetry_space_group_name_H-M "F D D 2"
_symmetry_group_IT_number 43
_symmetry_cell_setting 'orthorhombic'
loop_
_space_group_symop_operation_xyz
x,y,z
-x,-y,z
1/4-x,1/4+y,1/4+z
1/4+x,1/4-y,1/4+z
x,1/2+y,1/2+z
-x,1/2-y,1/2+z
1/4-x,3/4+y,3/4+z
1/4+x,3/4-y,3/4+z
1/2+x,y,1/2+z
1/2-x,-y,1/2+z
3/4-x,1/4+y,3/4+z
3/4+x,1/4-y,3/4+z
1/2+x,1/2+y,z
1/2-x,1/2-y,z
3/4-x,3/4+y,1/4+z
3/4+x,3/4-y,1/4+z
loop_
_atom_site_type_symbol
_atom_site_label
_atom_site_fract_x
_atom_site_fract_y
_atom_site_fract_z
Si Si1 0.598180 0.257930 0.954400
Si Si2 0.057840 0.248881 0.729464
Si Si3 0.443037 0.054063 0.995217
Si Si4 0.467546 0.319551 0.934763
Si Si5 0.750000 0.750000 0.228117
Si Si6 0.125738 0.939867 0.010657
Si Si7 0.794566 0.324002 0.038324
Si Si8 0.196672 0.531698 0.355548
O O1 0.530256 0.281292 0.969353
O O2 0.595907 0.204983 0.860129
O O3 0.628878 0.349461 0.963611
O O4 0.637187 0.204149 0.023739
O O5 0.130316 0.242745 0.723591
O O6 0.045886 0.213393 0.832523
O O7 0.036425 0.344051 0.729624
O O8 0.013942 0.211070 0.651214
O O9 0.431084 0.128595 0.065077
O O10 0.500000 0.000000 0.027417
O O11 0.464208 0.091432 0.896682
O O12 0.474961 0.418577 0.926719
O O13 0.430396 0.284277 0.022364
O O14 0.693194 0.713944 0.281061
O O15 0.155594 0.004267 0.940949
O O16 0.750000 0.250000 0.012009
#
# Coordination Sequence:
#
# PCOD9372029 Si02
#       8
#    16  16  16  16   8  16  16  16
#     4  11  25  41  70 104 142 187 242 313 369 448
#     4  12  26  47  76 106 143 201 244 309 387 442
#     4  11  28  47  72 107 148 194 249 309 375 466
#     4  11  24  46  70 101 142 185 243 304 367 451
#     4  10  24  42  68 102 140 184 234 294 370 440
#     4  11  24  44  69 106 144 189 244 305 372 444
#     4  11  26  45  73 107 146 190 254 316 377 447
#     4  12  25  47  74 102 148 192 244 307 374 448
#
# _framework density 23.086320000000001
#
# number of rings (size 3 to 8) (size 9 to 14) (size 15 to 20)
#    0.000    0.800    2.667    3.200   10.267    0.000 
#    1.200    0.000    0.000    0.000    0.000    0.000 
#    0.000    0.000    0.000    0.000    0.000    0.000 
#
# Total GULP energy -167437.777730 kJ/mol
# GULP energy per Si atom -5581.259258 kJ/mol
# Density = 2.303377 g / cm^3
# Si number density = 23.086320 Si / 1000 Ang^3
#
#
#
# Elastic Constant Matrix: (Units=GPa)
#
#
# Indices 1 2 3 4 5 6 
#
# 1 62.7320 3.3912 6.1276 0.0000 0.0000 0.0000
# 2 3.3912 68.3380 23.2803 0.0000 0.0000 0.0000
# 3 6.1276 23.2803 99.5700 0.0000 0.0000 0.0000
# 4 0.0000 0.0000 0.0000 14.2111 0.0000 0.0000
# 5 0.0000 0.0000 0.0000 0.0000 25.5614 0.0000
# 6 0.0000 0.0000 0.0000 0.0000 0.0000 33.3145
#
#
#
# Elastic Compliance Matrix: (Units=1/GPa)
#
#
# Indices 1 2 3 4 5 6 
#
# 1 0.016053 -0.000500 -0.000871 0.000000 0.000000 0.000000
# 2 -0.000500 0.015915 -0.003690 0.000000 0.000000 0.000000
# 3 -0.000871 -0.003690 0.010960 0.000000 0.000000 0.000000
# 4 0.000000 0.000000 0.000000 0.070367 0.000000 0.000000
# 5 0.000000 0.000000 0.000000 0.000000 0.039121 0.000000
# 6 0.000000 0.000000 0.000000 0.000000 0.000000 0.030017
#
#
# Mechanical properties :
#
#
# Convention : Reuss Voigt Hill
#
# Bulk Modulus (GPa) = 30.48300 32.91537 31.69918
# Shear Modulus (GPa) = 24.57111 27.80680 26.18896
#
# Velocity S-wave (km/s) = 3.26592 3.47431 3.37173
# Velocity P-wave (km/s) = 5.23968 5.51207 5.37760
#
# Compressibility (1/GPa) = 0.03280517
#
# Stress axis : x y z
#
# Youngs Moduli (GPa) = 62.29394 62.83342 91.24403
#
# Poissons Ratio (x) = 0.03141 0.07948
# Poissons Ratio (y) = 0.03114 0.33672
# Poissons Ratio (z) = 0.05426 0.23188
#
# Static dielectric constant tensor:
#      x y z
#    x 1.928960 0.000000 0.000000 
#    y 0.000000 1.882020 0.000000 
#    z 0.000000 0.000000 1.827950 
# 
# From -- ./inp_files/11326.got.cif
#   From: 2010.05.17/outbox.cif.g08.bks.cpg/sg43_6_cif.got.tgz:11326.got - 2010.06.03 19:21:55.
