data_PCOD9372618
_publ_section_title
;
Structure prediction by ZEFSAII (Michael W. Deem and Ramdas Pophale) SiO2 
 PCOD9372618
Probable space group: F D D 2
;
_chemical_formula_sum "Si O2"
_cell_formula_units_Z 72
_cell_length_a 15.632132
_cell_length_b 18.658298
_cell_length_c 10.889938
_cell_angle_alpha 90.000000
_cell_angle_beta 90.000000
_cell_angle_gamma 90.000000
_cell_volume 3176.257079
_symmetry_space_group_name_H-M "F D D 2"
_symmetry_group_IT_number 43
_symmetry_cell_setting 'orthorhombic'
loop_
_space_group_symop_operation_xyz
x,y,z
-x,-y,z
1/4-x,1/4+y,1/4+z
1/4+x,1/4-y,1/4+z
x,1/2+y,1/2+z
-x,1/2-y,1/2+z
1/4-x,3/4+y,3/4+z
1/4+x,3/4-y,3/4+z
1/2+x,y,1/2+z
1/2-x,-y,1/2+z
3/4-x,1/4+y,3/4+z
3/4+x,1/4-y,3/4+z
1/2+x,1/2+y,z
1/2-x,1/2-y,z
3/4-x,3/4+y,1/4+z
3/4+x,3/4-y,1/4+z
loop_
_atom_site_type_symbol
_atom_site_label
_atom_site_fract_x
_atom_site_fract_y
_atom_site_fract_z
Si Si1 0.562794 0.608286 0.863780
Si Si2 0.849107 0.499728 0.012648
Si Si3 0.500000 0.000000 0.195436
Si Si4 0.166867 0.087969 0.265876
Si Si5 0.850835 0.501605 0.536704
O O1 0.607729 0.663816 0.772137
O O2 0.489010 0.568007 0.785301
O O3 0.516342 0.652725 0.972797
O O4 0.622420 0.546576 0.919653
O O5 0.855666 0.459430 0.883973
O O6 0.750499 0.486908 0.046241
O O7 0.920688 0.478057 0.110516
O O8 0.122777 0.046585 0.152920
O O9 0.140197 0.169914 0.285340
#
# Coordination Sequence:
#
# PCOD9372618 Si02
#       5
#    16  16   8  16  16
#     4  11  24  48  77 102 143 200 242 288 364 452
#     4  11  27  42  72 105 148 182 242 302 357 419
#     4  12  26  48  72 108 146 194 242 298 368 430
#     4  11  24  45  69 111 139 186 236 310 354 424
#     4  11  24  45  75 101 141 191 245 285 364 433
#
# _framework density 22.668189000000002
#
# number of rings (size 3 to 8) (size 9 to 14) (size 15 to 20)
#    0.000    0.889    2.222    4.000    9.333    1.778 
#    4.000    0.000    0.000    0.000    0.000    0.000 
#    0.000    0.000    0.000    0.000    0.000    0.000 
#
# Total GULP energy -100453.577448 kJ/mol
# GULP energy per Si atom -5580.754303 kJ/mol
# Density = 2.261660 g / cm^3
# Si number density = 22.668189 Si / 1000 Ang^3
#
#
#
# Elastic Constant Matrix: (Units=GPa)
#
#
# Indices 1 2 3 4 5 6 
#
# 1 80.6865 19.5641 36.6543 0.0000 0.0000 0.0000
# 2 19.5641 177.5955 81.0112 0.0000 0.0000 0.0000
# 3 36.6543 81.0112 117.7914 0.0000 0.0000 0.0000
# 4 0.0000 0.0000 0.0000 54.0982 0.0000 0.0000
# 5 0.0000 0.0000 0.0000 0.0000 20.4658 0.0000
# 6 0.0000 0.0000 0.0000 0.0000 0.0000 16.4624
#
#
#
# Elastic Compliance Matrix: (Units=1/GPa)
#
#
# Indices 1 2 3 4 5 6 
#
# 1 0.014489 0.000671 -0.004970 0.000000 0.000000 0.000000
# 2 0.000671 0.008236 -0.005873 0.000000 0.000000 0.000000
# 3 -0.004970 -0.005873 0.014075 0.000000 0.000000 0.000000
# 4 0.000000 0.000000 0.000000 0.018485 0.000000 0.000000
# 5 0.000000 0.000000 0.000000 0.000000 0.048862 0.000000
# 6 0.000000 0.000000 0.000000 0.000000 0.000000 0.060744
#
#
# Mechanical properties :
#
#
# Convention : Reuss Voigt Hill
#
# Bulk Modulus (GPa) = 60.76893 72.28138 66.52515
# Shear Modulus (GPa) = 26.21633 34.12820 30.17227
#
# Velocity S-wave (km/s) = 3.40446 3.88436 3.65230
# Velocity P-wave (km/s) = 6.50538 7.21620 6.86999
#
# Compressibility (1/GPa) = 0.01645578
#
# Stress axis : x y z
#
# Youngs Moduli (GPa) = 69.01900 121.41998 71.04603
#
# Poissons Ratio (x) = -0.08148 0.35311
# Poissons Ratio (y) = -0.04632 0.41726
# Poissons Ratio (z) = 0.34303 0.71311
#
# Static dielectric constant tensor:
#      x y z
#    x 1.897100 0.000000 0.000000 
#    y 0.000000 1.904100 0.000000 
#    z 0.000000 0.000000 1.891580 
# 
# From -- ./inp_files/2659.got.cif
#   From: 2010.05.17/outbox.cif.g08.bks.cpg/sg43_2_cif.got.tgz:2659.got - 2010.06.03 19:21:55.
