data_PCOD9372991
_publ_section_title
;
Structure prediction by ZEFSAII (Michael W. Deem and Ramdas Pophale) SiO2 
 PCOD9372991
Probable space group: I M M 2
;
_chemical_formula_sum "Si O2"
_cell_formula_units_Z 38
_cell_length_a 14.093245
_cell_length_b 19.613868
_cell_length_c 7.005790
_cell_angle_alpha 90.000000
_cell_angle_beta 90.000000
_cell_angle_gamma 90.000000
_cell_volume 1936.561819
_symmetry_space_group_name_H-M "I M M 2"
_symmetry_group_IT_number 44
_symmetry_cell_setting 'orthorhombic'
loop_
_space_group_symop_operation_xyz
x,y,z
-x,-y,z
-x,y,z
x,-y,z
1/2+x,1/2+y,1/2+z
1/2-x,1/2-y,1/2+z
1/2-x,1/2+y,1/2+z
1/2+x,1/2-y,1/2+z
loop_
_atom_site_type_symbol
_atom_site_label
_atom_site_fract_x
_atom_site_fract_y
_atom_site_fract_z
Si Si1 0.105828 0.500000 0.044780
Si Si2 0.000000 0.874415 0.068634
Si Si3 0.500000 0.850985 0.077841
Si Si4 0.500000 0.000000 0.917302
Si Si5 0.153422 0.351939 0.897328
Si Si6 0.659738 0.419957 0.837089
Si Si7 0.500000 0.781835 0.665150
Si Si8 0.000000 0.921512 0.656268
O O1 0.089767 0.500000 0.272657
O O2 0.145415 0.428965 0.977543
O O3 0.000000 0.500000 0.962097
O O4 0.092823 0.911057 0.152778
O O5 0.000000 0.798893 0.154170
O O6 0.000000 0.874263 0.840610
O O7 0.592428 0.838222 0.207349
O O8 0.500000 0.811028 0.879097
O O9 0.500000 0.931196 0.032602
O O10 0.264518 0.357715 0.845941
O O11 0.095244 0.308619 0.055371
O O12 0.692815 0.500000 0.834387
O O13 0.591231 0.412674 0.020860
O O14 0.000000 0.000000 0.725106
#
# Coordination Sequence:
#
# PCOD9372991 Si02
#       8
#     4   4   4   2   8   8   4   4
#     4  10  15  34  55  78 130 154 195 262 305 368
#     4  11  24  46  59  89 120 169 211 255 312 378
#     4  11  20  34  60  85 126 177 195 244 318 374
#     4  10  16  30  56  82 118 166 200 244 308 382
#     4  11  21  37  58  91 123 162 203 255 312 370
#     4  10  22  40  67  94 121 152 212 274 309 355
#     4  11  24  42  57  84 135 169 205 242 306 399
#     4   9  20  43  70  87 118 159 201 267 324 350
#
# _framework density 19.622404
#
# number of rings (size 3 to 8) (size 9 to 14) (size 15 to 20)
#    0.316    1.263    5.263    2.211    0.000    5.053 
#    7.579    0.000    0.000    0.000    0.000    0.000 
#    0.000    0.000    0.000    0.000    0.000    0.000 
#
# Total GULP energy -105785.083463 kJ/mol
# GULP energy per Si atom -5567.635972 kJ/mol
# Density = 1.957774 g / cm^3
# Si number density = 19.622404 Si / 1000 Ang^3
#
#
#
# Elastic Constant Matrix: (Units=GPa)
#
#
# Indices 1 2 3 4 5 6 
#
# 1 92.9430 10.3688 21.1629 0.0000 0.0000 0.0000
# 2 10.3688 69.0151 20.5911 0.0000 0.0000 0.0000
# 3 21.1629 20.5911 117.9962 0.0000 0.0000 0.0000
# 4 0.0000 0.0000 0.0000 -6.7096 0.0000 0.0000
# 5 0.0000 0.0000 0.0000 0.0000 7.2932 0.0000
# 6 0.0000 0.0000 0.0000 0.0000 0.0000 10.0580
#
#
#
# Elastic Compliance Matrix: (Units=1/GPa)
#
#
# Indices 1 2 3 4 5 6 
#
# 1 0.011304 -0.001153 -0.001826 0.000000 0.000000 0.000000
# 2 -0.001153 0.015403 -0.002481 0.000000 0.000000 0.000000
# 3 -0.001826 -0.002481 0.009235 0.000000 0.000000 0.000000
# 4 0.000000 0.000000 0.000000 -0.149041 0.000000 0.000000
# 5 0.000000 0.000000 0.000000 0.000000 0.137115 0.000000
# 6 0.000000 0.000000 0.000000 0.000000 0.000000 0.099423
#
#
# Mechanical properties :
#
#
# Convention : Reuss Voigt Hill
#
# Bulk Modulus (GPa) = 39.96643 42.68890 41.32766
# Shear Modulus (GPa) = 35.03826 17.31708 26.17767
#
# Velocity S-wave (km/s) = 4.23025 2.97394 3.65646
# Velocity P-wave (km/s) = 6.65372 5.79610 6.23966
#
# Compressibility (1/GPa) = 0.02502100
#
# Stress axis : x y z
#
# Youngs Moduli (GPa) = 88.46611 64.92193 108.27997
#
# Poissons Ratio (x) = 0.07488 0.19773
# Poissons Ratio (y) = 0.10204 0.26865
# Poissons Ratio (z) = 0.16155 0.16108
#
# Static dielectric constant tensor:
#      x y z
#    x 1.823190 0.000000 0.000000 
#    y 0.000000 1.671210 0.000000 
#    z 0.000000 0.000000 1.681270 
# 
# From -- ./inp_files/1498.got.cif
#   From: 2010.05.17/outbox.cif.g08.bks.cpg/sg44_1_cif.got.tgz:1498.got - 2010.06.03 19:37:08.
