data_PCOD9372829
_publ_section_title
;
Structure prediction by ZEFSAII (Michael W. Deem and Ramdas Pophale) SiO2 
 PCOD9372829
Probable space group: F D D 2
;
_chemical_formula_sum "Si O2"
_cell_formula_units_Z 72
_cell_length_a 26.396590
_cell_length_b 20.785614
_cell_length_c 5.033941
_cell_angle_alpha 90.000000
_cell_angle_beta 90.000000
_cell_angle_gamma 90.000000
_cell_volume 2761.969039
_symmetry_space_group_name_H-M "F D D 2"
_symmetry_group_IT_number 43
_symmetry_cell_setting 'orthorhombic'
loop_
_space_group_symop_operation_xyz
x,y,z
-x,-y,z
1/4-x,1/4+y,1/4+z
1/4+x,1/4-y,1/4+z
x,1/2+y,1/2+z
-x,1/2-y,1/2+z
1/4-x,3/4+y,3/4+z
1/4+x,3/4-y,3/4+z
1/2+x,y,1/2+z
1/2-x,-y,1/2+z
3/4-x,1/4+y,3/4+z
3/4+x,1/4-y,3/4+z
1/2+x,1/2+y,z
1/2-x,1/2-y,z
3/4-x,3/4+y,1/4+z
3/4+x,3/4-y,1/4+z
loop_
_atom_site_type_symbol
_atom_site_label
_atom_site_fract_x
_atom_site_fract_y
_atom_site_fract_z
Si Si1 0.282392 0.491604 0.889610
Si Si2 0.530133 0.898640 0.994022
Si Si3 0.871159 0.296684 0.460393
Si Si4 0.750000 0.250000 0.838833
Si Si5 0.324266 0.168085 0.956269
O O1 0.245152 0.523622 0.668674
O O2 0.294481 0.425218 0.737096
O O3 0.334961 0.530314 0.923823
O O4 0.564295 0.924967 0.238703
O O5 0.469686 0.895988 0.013123
O O6 0.534727 0.953279 0.772800
O O7 0.896182 0.354706 0.294634
O O8 0.859160 0.225470 0.346860
O O9 0.710612 0.296467 0.681168
#
# Coordination Sequence:
#
# PCOD9372829 Si02
#       5
#    16  16  16   8  16
#     4  12  28  50  76 116 156 199 264 328 384 473
#     4  12  25  48  73 108 152 199 258 322 392 472
#     4  12  24  48  76 106 153 205 257 316 404 461
#     4  12  24  46  76 102 154 200 248 332 390 464
#     4  12  25  49  71 110 149 200 262 326 389 477
#
# _framework density 26.068360999999999
#
# number of rings (size 3 to 8) (size 9 to 14) (size 15 to 20)
#    0.000    0.000    8.889    1.333    0.000    1.778 
#    8.000    0.000    0.000    0.000    0.000    0.000 
#    0.000    0.000    0.000    0.000    0.000    0.000 
#
# Total GULP energy -100249.780498 kJ/mol
# GULP energy per Si atom -5569.432250 kJ/mol
# Density = 2.600903 g / cm^3
# Si number density = 26.068361 Si / 1000 Ang^3
#
#
#
# Elastic Constant Matrix: (Units=GPa)
#
#
# Indices 1 2 3 4 5 6 
#
# 1 136.3553 52.6523 23.4650 0.0459 -0.0040 0.0087
# 2 52.6523 164.7450 12.2360 0.0369 0.0022 0.0151
# 3 23.4650 12.2360 71.9406 0.0630 -0.0062 0.0089
# 4 0.0459 0.0369 0.0630 29.4696 -0.0025 0.0045
# 5 -0.0040 0.0022 -0.0062 -0.0025 7.5267 0.0044
# 6 0.0087 0.0151 0.0089 0.0045 0.0044 48.0753
#
#
#
# Elastic Compliance Matrix: (Units=1/GPa)
#
#
# Indices 1 2 3 4 5 6 
#
# 1 0.008761 -0.002621 -0.002412 -0.000005 0.000003 0.000000
# 2 -0.002621 0.006932 -0.000324 -0.000004 -0.000004 -0.000002
# 3 -0.002412 -0.000324 0.014742 -0.000027 0.000011 -0.000002
# 4 -0.000005 -0.000004 -0.000027 0.033933 0.000011 -0.000003
# 5 0.000003 -0.000004 0.000011 0.000011 0.132860 -0.000012
# 6 0.000000 -0.000002 -0.000002 -0.000003 -0.000012 0.020801
#
#
# Mechanical properties :
#
#
# Convention : Reuss Voigt Hill
#
# Bulk Modulus (GPa) = 50.70681 61.08308 55.89494
# Shear Modulus (GPa) = 21.24801 35.99349 28.62075
#
# Velocity S-wave (km/s) = 2.85807 3.71986 3.31707
# Velocity P-wave (km/s) = 5.51227 6.47553 6.01322
#
# Compressibility (1/GPa) = 0.01972122
#
# Stress axis : x y z
#
# Youngs Moduli (GPa) = 114.14455 144.26536 67.83263
#
# Poissons Ratio (x) = 0.37809 0.16360
# Poissons Ratio (y) = 0.29915 0.02199
# Poissons Ratio (z) = 0.27529 0.04676
#
# Static dielectric constant tensor:
#      x y z
#    x 2.098800 0.000010 0.000030 
#    y 0.000010 2.093800 -0.000010 
#    z 0.000030 -0.000010 2.114740 
# 
# From -- ./inp_files/704.got.cif
#   From: 2010.05.17/outbox.cif.g08.bks.cpg/sg43_1_cif.got.tgz:704.got - 2010.06.03 19:21:55.
