data_PCOD9372150
_publ_section_title
;
Structure prediction by ZEFSAII (Michael W. Deem and Ramdas Pophale) SiO2 
 PCOD9372150
Probable space group: F D D 2
;
_chemical_formula_sum "Si O2"
_cell_formula_units_Z 64
_cell_length_a 18.927263
_cell_length_b 13.355415
_cell_length_c 10.172660
_cell_angle_alpha 90.000000
_cell_angle_beta 90.000000
_cell_angle_gamma 90.000000
_cell_volume 2571.459767
_symmetry_space_group_name_H-M "F D D 2"
_symmetry_group_IT_number 43
_symmetry_cell_setting 'orthorhombic'
loop_
_space_group_symop_operation_xyz
x,y,z
-x,-y,z
1/4-x,1/4+y,1/4+z
1/4+x,1/4-y,1/4+z
x,1/2+y,1/2+z
-x,1/2-y,1/2+z
1/4-x,3/4+y,3/4+z
1/4+x,3/4-y,3/4+z
1/2+x,y,1/2+z
1/2-x,-y,1/2+z
3/4-x,1/4+y,3/4+z
3/4+x,1/4-y,3/4+z
1/2+x,1/2+y,z
1/2-x,1/2-y,z
3/4-x,3/4+y,1/4+z
3/4+x,3/4-y,1/4+z
loop_
_atom_site_type_symbol
_atom_site_label
_atom_site_fract_x
_atom_site_fract_y
_atom_site_fract_z
Si Si1 0.046800 0.097450 0.329700
Si Si2 0.069443 0.552842 0.264837
Si Si3 0.441507 0.855015 0.539494
Si Si4 0.315402 0.469290 0.445942
O O1 0.989061 0.185857 0.311887
O O2 0.887355 0.906638 0.428332
O O3 0.077016 0.093325 0.179428
O O4 0.000000 0.000000 0.354837
O O5 0.134381 0.478512 0.253588
O O6 0.058220 0.569292 0.420227
O O7 0.080378 0.663662 0.208822
O O8 0.000000 0.500000 0.206898
O O9 0.517123 0.806122 0.569947
#
# Coordination Sequence:
#
# PCOD9372150 Si02
#       4
#    16  16  16  16
#     4  10  24  47  74 110 149 204 261 323 388 474
#     4  12  24  45  70 110 155 205 263 328 404 471
#     4  10  25  43  72 104 151 207 259 318 398 478
#     4  10  26  45  76 111 149 206 260 330 386 479
#
# _framework density 24.888587999999999
#
# number of rings (size 3 to 8) (size 9 to 14) (size 15 to 20)
#    1.500    0.000    0.000    3.750    7.000    2.000 
#    0.000    1.250    0.000    0.000    0.000    0.000 
#    0.000    0.000    0.000    0.000    0.000    0.000 
#
# Total GULP energy -89463.904948 kJ/mol
# GULP energy per Si atom -5591.494059 kJ/mol
# Density = 2.483194 g / cm^3
# Si number density = 24.888588 Si / 1000 Ang^3
#
#
#
# Elastic Constant Matrix: (Units=GPa)
#
#
# Indices 1 2 3 4 5 6 
#
# 1 199.7773 78.8053 35.7624 0.0000 0.0000 0.0000
# 2 78.8053 99.3397 22.3311 0.0000 0.0000 0.0000
# 3 35.7624 22.3311 79.9627 0.0000 0.0000 0.0000
# 4 0.0000 0.0000 0.0000 37.9085 0.0000 0.0000
# 5 0.0000 0.0000 0.0000 0.0000 31.9471 0.0000
# 6 0.0000 0.0000 0.0000 0.0000 0.0000 58.3518
#
#
#
# Elastic Compliance Matrix: (Units=1/GPa)
#
#
# Indices 1 2 3 4 5 6 
#
# 1 0.007524 -0.005561 -0.001812 0.000000 0.000000 0.000000
# 2 -0.005561 0.014851 -0.001660 0.000000 0.000000 0.000000
# 3 -0.001812 -0.001660 0.013780 0.000000 0.000000 0.000000
# 4 0.000000 0.000000 0.000000 0.026379 0.000000 0.000000
# 5 0.000000 0.000000 0.000000 0.000000 0.031302 0.000000
# 6 0.000000 0.000000 0.000000 0.000000 0.000000 0.017137
#
#
# Mechanical properties :
#
#
# Convention : Reuss Voigt Hill
#
# Bulk Modulus (GPa) = 55.28476 72.54192 63.91334
# Shear Modulus (GPa) = 37.01810 41.78687 39.40249
#
# Velocity S-wave (km/s) = 3.86080 4.10195 3.98320
# Velocity P-wave (km/s) = 6.49119 7.18642 6.84763
#
# Compressibility (1/GPa) = 0.01808817
#
# Stress axis : x y z
#
# Youngs Moduli (GPa) = 132.91565 67.33421 72.56986
#
# Poissons Ratio (x) = 0.37445 0.13148
# Poissons Ratio (y) = 0.73916 0.12049
# Poissons Ratio (z) = 0.24081 0.11180
#
# Static dielectric constant tensor:
#      x y z
#    x 2.058390 0.000000 0.000000 
#    y 0.000000 1.899920 0.000000 
#    z 0.000000 0.000000 2.015890 
# 
# From -- ./inp_files/5932.got.cif
#   From: 2010.05.17/outbox.cif.g08.bks.cpg/sg43_3_cif.got.tgz:5932.got - 2010.06.03 19:21:55.
