data_PCOD9372636
_publ_section_title
;
Structure prediction by ZEFSAII (Michael W. Deem and Ramdas Pophale) SiO2 
 PCOD9372636
Probable space group: F D D 2
;
_chemical_formula_sum "Si O2"
_cell_formula_units_Z 104
_cell_length_a 9.709393
_cell_length_b 24.706433
_cell_length_c 19.846414
_cell_angle_alpha 90.000000
_cell_angle_beta 90.000000
_cell_angle_gamma 90.000000
_cell_volume 4760.846457
_symmetry_space_group_name_H-M "F D D 2"
_symmetry_group_IT_number 43
_symmetry_cell_setting 'orthorhombic'
loop_
_space_group_symop_operation_xyz
x,y,z
-x,-y,z
1/4-x,1/4+y,1/4+z
1/4+x,1/4-y,1/4+z
x,1/2+y,1/2+z
-x,1/2-y,1/2+z
1/4-x,3/4+y,3/4+z
1/4+x,3/4-y,3/4+z
1/2+x,y,1/2+z
1/2-x,-y,1/2+z
3/4-x,1/4+y,3/4+z
3/4+x,1/4-y,3/4+z
1/2+x,1/2+y,z
1/2-x,1/2-y,z
3/4-x,3/4+y,1/4+z
3/4+x,3/4-y,1/4+z
loop_
_atom_site_type_symbol
_atom_site_label
_atom_site_fract_x
_atom_site_fract_y
_atom_site_fract_z
Si Si1 0.250000 0.250000 0.668840
Si Si2 0.465305 0.917062 0.628683
Si Si3 0.297278 0.012096 0.677709
Si Si4 0.250000 0.750000 0.376819
Si Si5 0.564416 0.589868 0.528251
Si Si6 0.121956 0.408447 0.497982
Si Si7 0.510326 0.712918 0.570474
Si Si8 0.000000 0.000000 0.905150
O O1 0.207231 0.303596 0.711234
O O2 0.376282 0.272140 0.625441
O O3 0.609048 0.935958 0.662578
O O4 0.392761 0.881197 0.684994
O O5 0.507120 0.895642 0.555050
O O6 0.365336 0.968914 0.627046
O O7 0.135968 0.014386 0.666785
O O8 0.305186 0.999690 0.756937
O O9 0.269063 0.802900 0.331108
O O10 0.730591 0.588202 0.535579
O O11 0.518446 0.651562 0.541257
O O12 0.080489 0.461937 0.457638
O O13 0.363092 0.722940 0.605618
#
# Coordination Sequence:
#
# PCOD9372636 Si02
#       8
#     8  16  16   8  16  16  16   8
#     4  11  26  50  76 106 154 203 262 322 386 487
#     4  11  26  45  79 106 150 204 263 315 394 480
#     4  11  24  46  71 109 150 200 254 317 391 476
#     4  11  25  46  72 108 151 189 256 318 378 472
#     4  11  26  45  76 106 147 204 258 316 394 471
#     4  12  26  49  76 112 150 208 262 323 398 482
#     4  12  27  48  77 113 153 207 257 329 404 473
#     4  12  29  50  74 116 163 192 268 336 398 471
#
# _framework density 21.844854999999999
#
# number of rings (size 3 to 8) (size 9 to 14) (size 15 to 20)
#    0.000    0.615    4.615    2.308    8.615    0.000 
#    0.000    0.000    0.000    0.000    0.000    0.000 
#    0.000    0.000    0.000    0.000    0.000    0.000 
#
# Total GULP energy -144990.807964 kJ/mol
# GULP energy per Si atom -5576.569537 kJ/mol
# Density = 2.179514 g / cm^3
# Si number density = 21.844855 Si / 1000 Ang^3
#
#
#
# Elastic Constant Matrix: (Units=GPa)
#
#
# Indices 1 2 3 4 5 6 
#
# 1 78.2620 23.6804 24.4971 0.0000 0.0000 0.0000
# 2 23.6804 99.8113 31.6599 0.0000 0.0000 0.0000
# 3 24.4971 31.6599 115.2164 0.0000 0.0000 0.0000
# 4 0.0000 0.0000 0.0000 30.8717 0.0000 0.0000
# 5 0.0000 0.0000 0.0000 0.0000 44.2280 0.0000
# 6 0.0000 0.0000 0.0000 0.0000 0.0000 25.5475
#
#
#
# Elastic Compliance Matrix: (Units=1/GPa)
#
#
# Indices 1 2 3 4 5 6 
#
# 1 0.014306 -0.002661 -0.002310 0.000000 0.000000 0.000000
# 2 -0.002661 0.011471 -0.002586 0.000000 0.000000 0.000000
# 3 -0.002310 -0.002586 0.009881 0.000000 0.000000 0.000000
# 4 0.000000 0.000000 0.000000 0.032392 0.000000 0.000000
# 5 0.000000 0.000000 0.000000 0.000000 0.022610 0.000000
# 6 0.000000 0.000000 0.000000 0.000000 0.000000 0.039143
#
#
# Mechanical properties :
#
#
# Convention : Reuss Voigt Hill
#
# Bulk Modulus (GPa) = 48.68039 50.32940 49.50490
# Shear Modulus (GPa) = 32.94548 34.35959 33.65253
#
# Velocity S-wave (km/s) = 3.88771 3.97027 3.92921
# Velocity P-wave (km/s) = 6.51808 6.64130 6.57998
#
# Compressibility (1/GPa) = 0.02054215
#
# Stress axis : x y z
#
# Youngs Moduli (GPa) = 69.90051 87.17934 101.20228
#
# Poissons Ratio (x) = 0.23201 0.23382
# Poissons Ratio (y) = 0.18602 0.26172
# Poissons Ratio (z) = 0.16150 0.22546
#
# Static dielectric constant tensor:
#      x y z
#    x 1.768050 0.000000 0.000000 
#    y 0.000000 1.952910 0.000000 
#    z 0.000000 0.000000 1.824550 
# 
# From -- ./inp_files/16591.got.cif
#   From: 2010.05.17/outbox.cif.g08.bks.cpg/sg43_9_cif.got.tgz:16591.got - 2010.06.03 19:21:55.
