data_PCOD9372175
_publ_section_title
;
Structure prediction by ZEFSAII (Michael W. Deem and Ramdas Pophale) SiO2 
 PCOD9372175
Probable space group: F D D 2
;
_chemical_formula_sum "Si O2"
_cell_formula_units_Z 56
_cell_length_a 10.347640
_cell_length_b 10.160768
_cell_length_c 20.160053
_cell_angle_alpha 90.000000
_cell_angle_beta 90.000000
_cell_angle_gamma 90.000000
_cell_volume 2119.627355
_symmetry_space_group_name_H-M "F D D 2"
_symmetry_group_IT_number 43
_symmetry_cell_setting 'orthorhombic'
loop_
_space_group_symop_operation_xyz
x,y,z
-x,-y,z
1/4-x,1/4+y,1/4+z
1/4+x,1/4-y,1/4+z
x,1/2+y,1/2+z
-x,1/2-y,1/2+z
1/4-x,3/4+y,3/4+z
1/4+x,3/4-y,3/4+z
1/2+x,y,1/2+z
1/2-x,-y,1/2+z
3/4-x,1/4+y,3/4+z
3/4+x,1/4-y,3/4+z
1/2+x,1/2+y,z
1/2-x,1/2-y,z
3/4-x,3/4+y,1/4+z
3/4+x,3/4-y,1/4+z
loop_
_atom_site_type_symbol
_atom_site_label
_atom_site_fract_x
_atom_site_fract_y
_atom_site_fract_z
Si Si1 0.750000 0.750000 0.341861
Si Si2 0.453366 0.269200 0.661151
Si Si3 0.124724 0.905879 0.272304
Si Si4 0.379487 0.334496 0.986827
O O1 0.797632 0.873383 0.381842
O O2 0.858622 0.690551 0.294820
O O3 0.391453 0.356527 0.602533
O O4 0.391216 0.231154 0.732504
O O5 0.596851 0.326903 0.672685
O O6 0.245273 0.992344 0.243386
O O7 0.000000 0.000000 0.263725
O O8 0.250000 0.250000 0.991860
#
# Coordination Sequence:
#
# PCOD9372175 Si02
#       4
#     8  16  16  16
#     4  10  24  48  78 108 164 214 260 340 420 488
#     4  11  24  49  80 119 160 214 279 337 418 499
#     4  11  26  50  81 117 164 219 266 345 421 496
#     4  11  27  51  77 120 159 211 276 340 409 499
#
# _framework density 26.419736
#
# number of rings (size 3 to 8) (size 9 to 14) (size 15 to 20)
#    0.000    1.143    1.429    3.429    4.000    4.571 
#   12.857    0.000    0.000    0.000    0.000    0.000 
#    0.000    0.000    0.000    0.000    0.000    0.000 
#
# Total GULP energy -78267.042535 kJ/mol
# GULP energy per Si atom -5590.503038 kJ/mol
# Density = 2.635960 g / cm^3
# Si number density = 26.419736 Si / 1000 Ang^3
#
#
#
# Elastic Constant Matrix: (Units=GPa)
#
#
# Indices 1 2 3 4 5 6 
#
# 1 178.5557 36.4867 32.5366 0.0000 0.0000 0.0000
# 2 36.4867 125.2838 34.3738 0.0000 0.0000 0.0000
# 3 32.5366 34.3738 142.1853 0.0000 0.0000 0.0000
# 4 0.0000 0.0000 0.0000 55.6870 0.0000 0.0000
# 5 0.0000 0.0000 0.0000 0.0000 68.7141 0.0000
# 6 0.0000 0.0000 0.0000 0.0000 0.0000 39.1753
#
#
#
# Elastic Compliance Matrix: (Units=1/GPa)
#
#
# Indices 1 2 3 4 5 6 
#
# 1 0.006094 -0.001491 -0.001034 0.000000 0.000000 0.000000
# 2 -0.001491 0.008914 -0.001814 0.000000 0.000000 0.000000
# 3 -0.001034 -0.001814 0.007708 0.000000 0.000000 0.000000
# 4 0.000000 0.000000 0.000000 0.017958 0.000000 0.000000
# 5 0.000000 0.000000 0.000000 0.000000 0.014553 0.000000
# 6 0.000000 0.000000 0.000000 0.000000 0.000000 0.025526
#
#
# Mechanical properties :
#
#
# Convention : Reuss Voigt Hill
#
# Bulk Modulus (GPa) = 71.23462 72.53547 71.88504
# Shear Modulus (GPa) = 53.12986 55.55712 54.34349
#
# Velocity S-wave (km/s) = 4.48927 4.59067 4.54026
# Velocity P-wave (km/s) = 7.34116 7.45746 7.39954
#
# Compressibility (1/GPa) = 0.01403812
#
# Stress axis : x y z
#
# Youngs Moduli (GPa) = 164.10740 112.18654 129.73261
#
# Poissons Ratio (x) = 0.16727 0.13414
# Poissons Ratio (y) = 0.24468 0.23530
# Poissons Ratio (z) = 0.16968 0.20348
#
# Static dielectric constant tensor:
#      x y z
#    x 2.022460 0.000000 0.000000 
#    y 0.000000 2.029980 0.000000 
#    z 0.000000 0.000000 2.249970 
# 
# From -- ./inp_files/16853.got.cif
#   From: 2010.05.17/outbox.cif.g08.bks.cpg/sg43_9_cif.got.tgz:16853.got - 2010.06.03 19:21:55.
