data_PCOD9372614
_publ_section_title
;
Structure prediction by ZEFSAII (Michael W. Deem and Ramdas Pophale) SiO2 
 PCOD9372614
Probable space group: F D D 2
;
_chemical_formula_sum "Si O2"
_cell_formula_units_Z 64
_cell_length_a 5.250498
_cell_length_b 19.386950
_cell_length_c 24.339451
_cell_angle_alpha 90.000000
_cell_angle_beta 90.000000
_cell_angle_gamma 90.000000
_cell_volume 2477.540518
_symmetry_space_group_name_H-M "F D D 2"
_symmetry_group_IT_number 43
_symmetry_cell_setting 'orthorhombic'
loop_
_space_group_symop_operation_xyz
x,y,z
-x,-y,z
1/4-x,1/4+y,1/4+z
1/4+x,1/4-y,1/4+z
x,1/2+y,1/2+z
-x,1/2-y,1/2+z
1/4-x,3/4+y,3/4+z
1/4+x,3/4-y,3/4+z
1/2+x,y,1/2+z
1/2-x,-y,1/2+z
3/4-x,1/4+y,3/4+z
3/4+x,1/4-y,3/4+z
1/2+x,1/2+y,z
1/2-x,1/2-y,z
3/4-x,3/4+y,1/4+z
3/4+x,3/4-y,1/4+z
loop_
_atom_site_type_symbol
_atom_site_label
_atom_site_fract_x
_atom_site_fract_y
_atom_site_fract_z
Si Si1 0.743017 0.416555 0.933920
Si Si2 0.515181 0.579553 0.658925
Si Si3 0.075807 0.689110 0.804195
Si Si4 0.498582 0.712371 0.064390
O O1 0.490584 0.370424 0.923385
O O2 0.990184 0.367666 0.934074
O O3 0.758668 0.465211 0.880872
O O4 0.738786 0.455686 0.991556
O O5 0.500000 0.500000 0.675279
O O6 0.587201 0.577429 0.593529
O O7 0.250000 0.750000 0.828497
O O8 0.233890 0.618165 0.801423
O O9 0.750000 0.750000 0.045804
O O10 0.250000 0.750000 0.041938
#
# Coordination Sequence:
#
# PCOD9372614 Si02
#       4
#    16  16  16  16
#     4  11  25  44  69 103 139 187 239 297 359 432
#     4  11  24  45  69 103 146 186 236 299 363 430
#     4  11  26  46  74 105 141 189 243 296 361 434
#     4  11  24  45  67  97 136 178 226 286 349 418
#
# _framework density 25.832068
#
# number of rings (size 3 to 8) (size 9 to 14) (size 15 to 20)
#    0.000    1.000    0.000    7.500    0.000   12.000 
#    0.000    0.000    0.000    0.000    0.000    0.000 
#    0.000    0.000    0.000    0.000    0.000    0.000 
#
# Total GULP energy -89800.714973 kJ/mol
# GULP energy per Si atom -5612.544686 kJ/mol
# Density = 2.577327 g / cm^3
# Si number density = 25.832068 Si / 1000 Ang^3
#
#
#
# Elastic Constant Matrix: (Units=GPa)
#
#
# Indices 1 2 3 4 5 6 
#
# 1 233.1515 82.9614 -0.2242 0.0000 0.0000 0.0000
# 2 82.9614 124.1519 -26.8298 0.0000 0.0000 0.0000
# 3 -0.2242 -26.8298 134.8383 0.0000 0.0000 0.0000
# 4 0.0000 0.0000 0.0000 -44.3347 0.0000 0.0000
# 5 0.0000 0.0000 0.0000 0.0000 10.6104 0.0000
# 6 0.0000 0.0000 0.0000 0.0000 0.0000 59.5017
#
#
#
# Elastic Compliance Matrix: (Units=1/GPa)
#
#
# Indices 1 2 3 4 5 6 
#
# 1 0.005705 -0.003981 -0.000783 0.000000 0.000000 0.000000
# 2 -0.003981 0.011195 0.002221 0.000000 0.000000 0.000000
# 3 -0.000783 0.002221 0.007857 0.000000 0.000000 0.000000
# 4 0.000000 0.000000 0.000000 -0.022556 0.000000 0.000000
# 5 0.000000 0.000000 0.000000 0.000000 0.094247 0.000000
# 6 0.000000 0.000000 0.000000 0.000000 0.000000 0.016806
#
#
# Mechanical properties :
#
#
# Convention : Reuss Voigt Hill
#
# Bulk Modulus (GPa) = 50.83709 67.10625 58.97167
# Shear Modulus (GPa) = 40.03269 34.23777 37.13523
#
# Velocity S-wave (km/s) = 3.94093 3.64455 3.79563
# Velocity P-wave (km/s) = 6.35850 6.61397 6.48749
#
# Compressibility (1/GPa) = 0.01967068
#
# Stress axis : x y z
#
# Youngs Moduli (GPa) = 175.28567 89.32526 127.27657
#
# Poissons Ratio (x) = 0.35564 0.09962
# Poissons Ratio (y) = 0.69787 -0.28267
# Poissons Ratio (z) = 0.13720 -0.19839
#
# Static dielectric constant tensor:
#      x y z
#    x 2.021700 0.000000 0.000000 
#    y 0.000000 2.015340 0.000000 
#    z 0.000000 0.000000 2.075610 
# 
# From -- ./inp_files/23387.got.cif
#   From: 2010.05.17/outbox.cif.g08.bks.cpg/sg43_12_cif.got.tgz:23387.got - 2010.06.03 19:21:55.
