data_PCOD9372819
_publ_section_title
;
Structure prediction by ZEFSAII (Michael W. Deem and Ramdas Pophale) SiO2 
 PCOD9372819
Probable space group: F D D 2
;
_chemical_formula_sum "Si O2"
_cell_formula_units_Z 80
_cell_length_a 5.071646
_cell_length_b 27.022253
_cell_length_c 26.731549
_cell_angle_alpha 90.000000
_cell_angle_beta 90.000000
_cell_angle_gamma 90.000000
_cell_volume 3663.486651
_symmetry_space_group_name_H-M "F D D 2"
_symmetry_group_IT_number 43
_symmetry_cell_setting 'orthorhombic'
loop_
_space_group_symop_operation_xyz
x,y,z
-x,-y,z
1/4-x,1/4+y,1/4+z
1/4+x,1/4-y,1/4+z
x,1/2+y,1/2+z
-x,1/2-y,1/2+z
1/4-x,3/4+y,3/4+z
1/4+x,3/4-y,3/4+z
1/2+x,y,1/2+z
1/2-x,-y,1/2+z
3/4-x,1/4+y,3/4+z
3/4+x,1/4-y,3/4+z
1/2+x,1/2+y,z
1/2-x,1/2-y,z
3/4-x,3/4+y,1/4+z
3/4+x,3/4-y,1/4+z
loop_
_atom_site_type_symbol
_atom_site_label
_atom_site_fract_x
_atom_site_fract_y
_atom_site_fract_z
Si Si1 0.546726 0.837801 0.964900
Si Si2 0.250000 0.750000 0.356753
Si Si3 0.856916 0.854931 0.809315
Si Si4 0.500000 0.000000 0.680606
Si Si5 0.000000 0.000000 0.344404
Si Si6 0.366835 0.643899 0.115079
Si Si7 0.750000 0.750000 0.022037
O O1 0.297177 0.799400 0.963406
O O2 0.502837 0.862118 0.910641
O O3 0.625579 0.883488 0.000760
O O4 0.755445 0.797380 0.985676
O O5 0.205445 0.701373 0.323519
O O6 0.502169 0.749020 0.393036
O O7 0.592466 0.885169 0.821380
O O8 0.100377 0.875478 0.843443
O O9 0.911320 0.952041 0.376022
O O10 0.252481 0.992878 0.308516
#
# Coordination Sequence:
#
# PCOD9372819 Si02
#       7
#    16   8  16   8   8  16   8
#     4  12  26  45  76 110 142 197 256 310 388 458
#     4  12  23  49  68 107 148 193 242 319 381 460
#     4  12  26  45  72 107 150 192 245 319 386 454
#     4  12  25  42  76 104 140 192 260 308 369 460
#     4  12  23  49  68 107 148 193 242 319 381 460
#     4  12  26  45  72 107 150 192 245 319 386 454
#     4  12  25  42  76 104 140 192 260 308 369 460
#
# _framework density 21.837119000000001
#
# number of rings (size 3 to 8) (size 9 to 14) (size 15 to 20)
#    0.000    0.000    8.000    1.200    0.000    5.600 
#    0.000    0.000    0.000    7.200    0.000    0.000 
#    0.000    0.000    0.000    0.000    0.000    0.000 
#
# Total GULP energy -111366.049134 kJ/mol
# GULP energy per Si atom -5568.302457 kJ/mol
# Density = 2.178742 g / cm^3
# Si number density = 21.837119 Si / 1000 Ang^3
#
#
#
# Elastic Constant Matrix: (Units=GPa)
#
#
# Indices 1 2 3 4 5 6 
#
# 1 134.5703 30.0161 12.9860 0.0000 0.0000 0.0000
# 2 30.0161 149.3503 31.2057 0.0000 0.0000 0.0000
# 3 12.9860 31.2057 75.0938 0.0000 0.0000 0.0000
# 4 0.0000 0.0000 0.0000 29.6322 0.0000 0.0000
# 5 0.0000 0.0000 0.0000 0.0000 19.8664 0.0000
# 6 0.0000 0.0000 0.0000 0.0000 0.0000 18.0112
#
#
#
# Elastic Compliance Matrix: (Units=1/GPa)
#
#
# Indices 1 2 3 4 5 6 
#
# 1 0.007820 -0.001412 -0.000766 0.000000 0.000000 0.000000
# 2 -0.001412 0.007587 -0.002909 0.000000 0.000000 0.000000
# 3 -0.000766 -0.002909 0.014658 0.000000 0.000000 0.000000
# 4 0.000000 0.000000 0.000000 0.033747 0.000000 0.000000
# 5 0.000000 0.000000 0.000000 0.000000 0.050336 0.000000
# 6 0.000000 0.000000 0.000000 0.000000 0.000000 0.055521
#
#
# Mechanical properties :
#
#
# Convention : Reuss Voigt Hill
#
# Bulk Modulus (GPa) = 50.26980 56.38111 53.32546
# Shear Modulus (GPa) = 26.81366 32.48906 29.65136
#
# Velocity S-wave (km/s) = 3.50793 3.86137 3.68889
# Velocity P-wave (km/s) = 6.28313 6.76426 6.52813
#
# Compressibility (1/GPa) = 0.01989266
#
# Stress axis : x y z
#
# Youngs Moduli (GPa) = 127.88030 131.80188 68.22285
#
# Poissons Ratio (x) = 0.18606 0.05224
# Poissons Ratio (y) = 0.18052 0.19844
# Poissons Ratio (z) = 0.09791 0.38338
#
# Static dielectric constant tensor:
#      x y z
#    x 1.832510 0.000000 0.000000 
#    y 0.000000 2.002410 0.000000 
#    z 0.000000 0.000000 1.822000 
# 
# From -- ./inp_files/23584.got.cif
#   From: 2010.05.17/outbox.cif.g08.bks.cpg/sg43_12_cif.got.tgz:23584.got - 2010.06.03 19:21:55.
