data_PCOD9372451
_publ_section_title
;
Structure prediction by ZEFSAII (Michael W. Deem and Ramdas Pophale) SiO2 
 PCOD9372451
Probable space group: F D D 2
;
_chemical_formula_sum "Si O2"
_cell_formula_units_Z 88
_cell_length_a 7.808030
_cell_length_b 18.310376
_cell_length_c 26.745455
_cell_angle_alpha 90.000000
_cell_angle_beta 90.000000
_cell_angle_gamma 90.000000
_cell_volume 3823.743278
_symmetry_space_group_name_H-M "F D D 2"
_symmetry_group_IT_number 43
_symmetry_cell_setting 'orthorhombic'
loop_
_space_group_symop_operation_xyz
x,y,z
-x,-y,z
1/4-x,1/4+y,1/4+z
1/4+x,1/4-y,1/4+z
x,1/2+y,1/2+z
-x,1/2-y,1/2+z
1/4-x,3/4+y,3/4+z
1/4+x,3/4-y,3/4+z
1/2+x,y,1/2+z
1/2-x,-y,1/2+z
3/4-x,1/4+y,3/4+z
3/4+x,1/4-y,3/4+z
1/2+x,1/2+y,z
1/2-x,1/2-y,z
3/4-x,3/4+y,1/4+z
3/4+x,3/4-y,1/4+z
loop_
_atom_site_type_symbol
_atom_site_label
_atom_site_fract_x
_atom_site_fract_y
_atom_site_fract_z
Si Si1 0.750000 0.250000 0.271570
Si Si2 0.058546 0.080319 0.355875
Si Si3 0.246094 0.583473 0.946745
Si Si4 0.250000 0.250000 0.942560
Si Si5 0.691371 0.641506 0.851128
Si Si6 0.928742 0.206413 0.002533
Si Si7 0.750000 0.250000 0.630683
O O1 0.631425 0.300005 0.237014
O O2 0.638932 0.199562 0.308971
O O3 0.138390 0.122670 0.402600
O O4 0.189997 0.067089 0.310556
O O5 0.884212 0.116702 0.337093
O O6 0.000000 0.000000 0.374010
O O7 0.388737 0.634411 0.970814
O O8 0.343279 0.520956 0.916473
O O9 0.285516 0.317594 0.904516
O O10 0.415291 0.248863 0.978920
O O11 0.567121 0.572154 0.852717
O O12 0.750000 0.250000 0.000214
#
# Coordination Sequence:
#
# PCOD9372451 Si02
#       7
#     8  16  16   8  16  16   8
#     4  11  24  46  76 101 146 201 246 317 388 454
#     4  11  22  42  69  98 140 192 244 305 372 455
#     4  12  23  46  70 101 146 196 249 312 378 461
#     4  11  24  47  74 106 150 192 246 318 374 452
#     4  11  23  45  74 108 142 191 255 310 382 455
#     4  11  25  45  70 109 143 195 253 306 382 451
#     4  12  24  45  70 107 146 189 252 315 378 458
#
# _framework density 23.014095999999999
#
# number of rings (size 3 to 8) (size 9 to 14) (size 15 to 20)
#    0.000    0.727    6.364    1.091    0.000    0.727 
#    3.273    0.000    0.000    0.000    0.000    0.000 
#    0.000    0.000    0.000    0.000    0.000    0.000 
#
# Total GULP energy -123025.918775 kJ/mol
# GULP energy per Si atom -5592.087217 kJ/mol
# Density = 2.296172 g / cm^3
# Si number density = 23.014096 Si / 1000 Ang^3
#
#
#
# Elastic Constant Matrix: (Units=GPa)
#
#
# Indices 1 2 3 4 5 6 
#
# 1 119.5399 23.9477 63.1432 0.0000 0.0000 0.0000
# 2 23.9477 83.3762 44.4898 0.0000 0.0000 0.0000
# 3 63.1432 44.4898 156.1649 0.0000 0.0000 0.0000
# 4 0.0000 0.0000 0.0000 22.9161 0.0000 0.0000
# 5 0.0000 0.0000 0.0000 0.0000 19.9316 0.0000
# 6 0.0000 0.0000 0.0000 0.0000 0.0000 32.7259
#
#
#
# Elastic Compliance Matrix: (Units=1/GPa)
#
#
# Indices 1 2 3 4 5 6 
#
# 1 0.010694 -0.000901 -0.004067 0.000000 0.000000 0.000000
# 2 -0.000901 0.014220 -0.003687 0.000000 0.000000 0.000000
# 3 -0.004067 -0.003687 0.009098 0.000000 0.000000 0.000000
# 4 0.000000 0.000000 0.000000 0.043637 0.000000 0.000000
# 5 0.000000 0.000000 0.000000 0.000000 0.050172 0.000000
# 6 0.000000 0.000000 0.000000 0.000000 0.000000 0.030557
#
#
# Mechanical properties :
#
#
# Convention : Reuss Voigt Hill
#
# Bulk Modulus (GPa) = 59.87318 69.13807 64.50562
# Shear Modulus (GPa) = 27.58518 30.28140 28.93329
#
# Velocity S-wave (km/s) = 3.46587 3.63130 3.54955
# Velocity P-wave (km/s) = 6.48758 6.90569 6.69990
#
# Compressibility (1/GPa) = 0.01670197
#
# Stress axis : x y z
#
# Youngs Moduli (GPa) = 93.50655 70.32379 109.90983
#
# Poissons Ratio (x) = 0.06339 0.44704
# Poissons Ratio (y) = 0.08428 0.40520
# Poissons Ratio (z) = 0.38033 0.25926
#
# Static dielectric constant tensor:
#      x y z
#    x 1.912930 0.000000 0.000000 
#    y 0.000000 1.905720 0.000000 
#    z 0.000000 0.000000 1.882770 
# 
# From -- ./inp_files/20231.got.cif
#   From: 2010.05.17/outbox.cif.g08.bks.cpg/sg43_11_cif.got.tgz:20231.got - 2010.06.03 19:21:55.
