data_PCOD9372523
_publ_section_title
;
Structure prediction by ZEFSAII (Michael W. Deem and Ramdas Pophale) SiO2 
 PCOD9372523
Probable space group: F D D 2
;
_chemical_formula_sum "Si O2"
_cell_formula_units_Z 120
_cell_length_a 20.401989
_cell_length_b 16.457442
_cell_length_c 17.263040
_cell_angle_alpha 90.000000
_cell_angle_beta 90.000000
_cell_angle_gamma 90.000000
_cell_volume 5796.316868
_symmetry_space_group_name_H-M "F D D 2"
_symmetry_group_IT_number 43
_symmetry_cell_setting 'orthorhombic'
loop_
_space_group_symop_operation_xyz
x,y,z
-x,-y,z
1/4-x,1/4+y,1/4+z
1/4+x,1/4-y,1/4+z
x,1/2+y,1/2+z
-x,1/2-y,1/2+z
1/4-x,3/4+y,3/4+z
1/4+x,3/4-y,3/4+z
1/2+x,y,1/2+z
1/2-x,-y,1/2+z
3/4-x,1/4+y,3/4+z
3/4+x,1/4-y,3/4+z
1/2+x,1/2+y,z
1/2-x,1/2-y,z
3/4-x,3/4+y,1/4+z
3/4+x,3/4-y,1/4+z
loop_
_atom_site_type_symbol
_atom_site_label
_atom_site_fract_x
_atom_site_fract_y
_atom_site_fract_z
Si Si1 0.043694 0.579639 0.653750
Si Si2 0.877698 0.931308 0.557167
Si Si3 0.750000 0.750000 0.903153
Si Si4 0.448039 0.217479 0.663991
Si Si5 0.006606 0.229425 0.881953
Si Si6 0.596970 0.748813 0.504368
Si Si7 0.797941 0.913965 0.969425
Si Si8 0.304102 0.677583 0.725207
O O1 0.103552 0.554724 0.706980
O O2 0.061962 0.599135 0.565234
O O3 0.000000 0.500000 0.647973
O O4 0.998659 0.648478 0.690669
O O5 0.862255 0.971127 0.472939
O O6 0.876510 0.834755 0.541220
O O7 0.944088 0.960650 0.598180
O O8 0.817081 0.963757 0.608352
O O9 0.786661 0.817882 0.956190
O O10 0.427591 0.199077 0.576986
O O11 0.492240 0.297234 0.664926
O O12 0.970329 0.197666 0.804504
O O13 0.030529 0.148600 0.925547
O O14 0.958632 0.273388 0.942191
O O15 0.870937 0.944912 0.949239
O O16 0.250000 0.750000 0.719182
#
# Coordination Sequence:
#
# PCOD9372523 Si02
#       8
#    16  16   8  16  16  16  16  16
#     4  11  23  42  70 100 141 181 230 292 354 418
#     4  11  26  47  70 102 140 190 235 291 356 435
#     4  12  24  50  74 102 152 190 240 294 364 432
#     4  11  25  44  67 104 140 183 240 289 352 424
#     4  11  25  46  72 106 142 184 244 295 365 433
#     4  12  24  45  71 102 139 188 234 295 355 427
#     4  11  25  45  71 106 144 190 238 299 355 435
#     4  11  24  42  70 106 140 186 234 297 367 423
#
# _framework density 20.702801999999998
#
# number of rings (size 3 to 8) (size 9 to 14) (size 15 to 20)
#    0.000    0.800    6.667    0.000    2.800    3.200 
#    3.600    0.000    0.000    0.000    0.000    0.000 
#    0.000    0.000    0.000    0.000    0.000    0.000 
#
# Total GULP energy -167500.906958 kJ/mol
# GULP energy per Si atom -5583.363565 kJ/mol
# Density = 2.065568 g / cm^3
# Si number density = 20.702802 Si / 1000 Ang^3
#
#
#
# Elastic Constant Matrix: (Units=GPa)
#
#
# Indices 1 2 3 4 5 6 
#
# 1 117.1474 40.9201 52.3682 0.0000 0.0000 0.0000
# 2 40.9201 96.6140 21.9665 0.0000 0.0000 0.0000
# 3 52.3682 21.9665 99.8348 0.0000 0.0000 0.0000
# 4 0.0000 0.0000 0.0000 28.7988 0.0000 0.0000
# 5 0.0000 0.0000 0.0000 0.0000 50.9668 0.0000
# 6 0.0000 0.0000 0.0000 0.0000 0.0000 33.4013
#
#
#
# Elastic Compliance Matrix: (Units=1/GPa)
#
#
# Indices 1 2 3 4 5 6 
#
# 1 0.012459 -0.003991 -0.005657 0.000000 0.000000 0.000000
# 2 -0.003991 0.012174 -0.000585 0.000000 0.000000 0.000000
# 3 -0.005657 -0.000585 0.013113 0.000000 0.000000 0.000000
# 4 0.000000 0.000000 0.000000 0.034724 0.000000 0.000000
# 5 0.000000 0.000000 0.000000 0.000000 0.019621 0.000000
# 6 0.000000 0.000000 0.000000 0.000000 0.000000 0.029939
#
#
# Mechanical properties :
#
#
# Convention : Reuss Voigt Hill
#
# Bulk Modulus (GPa) = 57.87319 60.45620 59.16470
# Shear Modulus (GPa) = 33.72553 35.85615 34.79084
#
# Velocity S-wave (km/s) = 4.04051 4.16618 4.10382
# Velocity P-wave (km/s) = 7.05567 7.23934 7.14810
#
# Compressibility (1/GPa) = 0.01727916
#
# Stress axis : x y z
#
# Youngs Moduli (GPa) = 80.26164 82.14373 76.26079
#
# Poissons Ratio (x) = 0.32781 0.43144
# Poissons Ratio (y) = 0.32030 0.04463
# Poissons Ratio (z) = 0.45407 0.04807
#
# Static dielectric constant tensor:
#      x y z
#    x 1.731370 0.000000 0.000000 
#    y 0.000000 1.687290 0.000000 
#    z 0.000000 0.000000 1.742560 
# 
# From -- ./inp_files/14342.got.cif
#   From: 2010.05.17/outbox.cif.g08.bks.cpg/sg43_8_cif.got.tgz:14342.got - 2010.06.03 19:21:55.
