data_PCOD9372808
_publ_section_title
;
Structure prediction by ZEFSAII (Michael W. Deem and Ramdas Pophale) SiO2 
 PCOD9372808
Probable space group: F D D 2
;
_chemical_formula_sum "Si O2"
_cell_formula_units_Z 56
_cell_length_a 5.223789
_cell_length_b 13.791997
_cell_length_c 34.132594
_cell_angle_alpha 90.000000
_cell_angle_beta 90.000000
_cell_angle_gamma 90.000000
_cell_volume 2459.133327
_symmetry_space_group_name_H-M "F D D 2"
_symmetry_group_IT_number 43
_symmetry_cell_setting 'orthorhombic'
loop_
_space_group_symop_operation_xyz
x,y,z
-x,-y,z
1/4-x,1/4+y,1/4+z
1/4+x,1/4-y,1/4+z
x,1/2+y,1/2+z
-x,1/2-y,1/2+z
1/4-x,3/4+y,3/4+z
1/4+x,3/4-y,3/4+z
1/2+x,y,1/2+z
1/2-x,-y,1/2+z
3/4-x,1/4+y,3/4+z
3/4+x,1/4-y,3/4+z
1/2+x,1/2+y,z
1/2-x,1/2-y,z
3/4-x,3/4+y,1/4+z
3/4+x,3/4-y,1/4+z
loop_
_atom_site_type_symbol
_atom_site_label
_atom_site_fract_x
_atom_site_fract_y
_atom_site_fract_z
Si Si1 0.500000 0.000000 0.515000
Si Si2 0.611479 0.148026 0.659512
Si Si3 0.825247 0.640142 0.582365
Si Si4 0.000000 0.500000 0.137948
Si Si5 0.750000 0.750000 0.713674
O O1 0.592353 0.914355 0.543420
O O2 0.246555 0.972985 0.490053
O O3 0.750000 0.250000 0.666184
O O4 0.552475 0.143178 0.613631
O O5 0.356489 0.163592 0.685594
O O6 0.790593 0.055105 0.664679
O O7 0.750000 0.750000 0.574397
O O8 0.621222 0.578936 0.608036
#
# Coordination Sequence:
#
# PCOD9372808 Si02
#       5
#     8  16  16   8   8
#     4  12  28  50  80 116 172 216 259 347 426 470
#     4  12  23  47  84 117 158 213 275 330 404 493
#     4  12  25  46  83 119 152 210 273 333 396 498
#     4  12  23  44  84 120 151 208 284 333 392 474
#     4  12  27  52  80 118 175 216 261 350 418 484
#
# _framework density 22.772248999999999
#
# number of rings (size 3 to 8) (size 9 to 14) (size 15 to 20)
#    0.000    0.000    8.571    0.857    0.000    0.000 
#    0.000    5.714    3.143    0.000    0.000    0.000 
#    0.000    0.000    0.000    0.000    0.000    0.000 
#
# Total GULP energy -78245.096056 kJ/mol
# GULP energy per Si atom -5588.935433 kJ/mol
# Density = 2.272042 g / cm^3
# Si number density = 22.772249 Si / 1000 Ang^3
#
#
#
# Elastic Constant Matrix: (Units=GPa)
#
#
# Indices 1 2 3 4 5 6 
#
# 1 165.8418 81.1409 72.0954 0.0000 0.0000 0.0000
# 2 81.1409 182.3404 48.3337 0.0000 0.0000 0.0000
# 3 72.0954 48.3337 116.6752 0.0000 0.0000 0.0000
# 4 0.0000 0.0000 0.0000 -0.1840 0.0000 0.0000
# 5 0.0000 0.0000 0.0000 0.0000 193.3153 0.0000
# 6 0.0000 0.0000 0.0000 0.0000 0.0000 57.4070
#
#
#
# Elastic Compliance Matrix: (Units=1/GPa)
#
#
# Indices 1 2 3 4 5 6 
#
# 1 0.009515 -0.003006 -0.004634 0.000000 0.000000 0.000000
# 2 -0.003006 0.007110 -0.001088 0.000000 0.000000 0.000000
# 3 -0.004634 -0.001088 0.011885 0.000000 0.000000 0.000000
# 4 0.000000 0.000000 0.000000 -5.434618 0.000000 0.000000
# 5 0.000000 0.000000 0.000000 0.000000 0.005173 0.000000
# 6 0.000000 0.000000 0.000000 0.000000 0.000000 0.017419
#
#
# Mechanical properties :
#
#
# Convention : Reuss Voigt Hill
#
# Bulk Modulus (GPa) = 90.46506 96.44415 93.45461
# Shear Modulus (GPa) = -0.93242 67.66014 33.36386
#
# Velocity S-wave (km/s) = -0.64058 5.45675 3.83183
# Velocity P-wave (km/s) = 6.26619 9.06339 7.79135
#
# Compressibility (1/GPa) = 0.01105399
#
# Stress axis : x y z
#
# Youngs Moduli (GPa) = 105.09562 140.64211 84.13782
#
# Poissons Ratio (x) = 0.42274 0.38993
# Poissons Ratio (y) = 0.31589 0.09156
# Poissons Ratio (z) = 0.48706 0.15304
#
# Static dielectric constant tensor:
#      x y z
#    x 1.988880 0.000000 0.000000 
#    y 0.000000 2.168620 0.000000 
#    z 0.000000 0.000000 1.827580 
# 
# From -- ./inp_files/26997.got.cif
#   From: 2010.05.17/outbox.cif.g08.bks.cpg/sg43_14_cif.got.tgz:26997.got - 2010.06.03 19:21:55.
