data_PCOD9372334
_publ_section_title
;
Structure prediction by ZEFSAII (Michael W. Deem and Ramdas Pophale) SiO2 
 PCOD9372334
Probable space group: F D D 2
;
_chemical_formula_sum "Si O2"
_cell_formula_units_Z 112
_cell_length_a 14.299513
_cell_length_b 33.014824
_cell_length_c 12.587371
_cell_angle_alpha 90.000000
_cell_angle_beta 90.000000
_cell_angle_gamma 90.000000
_cell_volume 5942.446304
_symmetry_space_group_name_H-M "F D D 2"
_symmetry_group_IT_number 43
_symmetry_cell_setting 'orthorhombic'
loop_
_space_group_symop_operation_xyz
x,y,z
-x,-y,z
1/4-x,1/4+y,1/4+z
1/4+x,1/4-y,1/4+z
x,1/2+y,1/2+z
-x,1/2-y,1/2+z
1/4-x,3/4+y,3/4+z
1/4+x,3/4-y,3/4+z
1/2+x,y,1/2+z
1/2-x,-y,1/2+z
3/4-x,1/4+y,3/4+z
3/4+x,1/4-y,3/4+z
1/2+x,1/2+y,z
1/2-x,1/2-y,z
3/4-x,3/4+y,1/4+z
3/4+x,3/4-y,1/4+z
loop_
_atom_site_type_symbol
_atom_site_label
_atom_site_fract_x
_atom_site_fract_y
_atom_site_fract_z
Si Si1 0.250000 0.250000 0.399750
Si Si2 0.018665 0.212267 0.750232
Si Si3 0.100734 0.697233 0.032886
Si Si4 0.939876 0.942383 0.958669
Si Si5 0.927757 0.890611 0.611402
Si Si6 0.350149 0.113824 0.100715
Si Si7 0.827962 0.968810 0.645078
Si Si8 0.250000 0.750000 0.531266
O O1 0.174717 0.225848 0.472154
O O2 0.283670 0.214162 0.319047
O O3 0.093024 0.210781 0.655398
O O4 0.041807 0.177020 0.834782
O O5 0.024481 0.253672 0.811364
O O6 0.918897 0.204254 0.697259
O O7 0.001378 0.703415 0.975114
O O8 0.110123 0.648202 0.045728
O O9 0.938738 0.894062 0.940848
O O10 0.000155 0.962219 0.863415
O O11 0.907244 0.885054 0.736182
O O12 0.877956 0.932230 0.583441
O O13 0.039695 0.894076 0.610241
O O14 0.908995 0.993443 0.708010
#
# Coordination Sequence:
#
# PCOD9372334 Si02
#       8
#     8  16  16  16  16  16  16   8
#     4  11  26  43  68  86 138 181 210 257 348 386
#     4  11  23  38  68  94 126 166 218 268 319 380
#     4  11  23  44  63  92 133 173 205 272 325 385
#     4  11  21  41  64  94 126 174 213 260 325 386
#     4  11  20  38  65  90 128 167 207 267 325 374
#     4  11  20  38  64  93 126 162 212 268 320 372
#     4  12  22  39  65 100 123 164 222 263 319 387
#     4  11  20  35  66  94 122 161 216 263 310 382
#
# _framework density 18.847456999999999
#
# number of rings (size 3 to 8) (size 9 to 14) (size 15 to 20)
#    0.000    0.857    8.571    0.857    0.000    2.857 
#    0.000    2.857    0.000    0.000    0.000    0.000 
#    0.000    0.000    0.000    0.000    0.000    0.000 
#
# Total GULP energy -156042.861235 kJ/mol
# GULP energy per Si atom -5572.959330 kJ/mol
# Density = 1.880456 g / cm^3
# Si number density = 18.847457 Si / 1000 Ang^3
#
#
#
# Elastic Constant Matrix: (Units=GPa)
#
#
# Indices 1 2 3 4 5 6 
#
# 1 80.7107 34.8923 28.8446 0.0000 0.0000 0.0000
# 2 34.8923 118.8785 43.4259 0.0000 0.0000 0.0000
# 3 28.8446 43.4259 70.8278 0.0000 0.0000 0.0000
# 4 0.0000 0.0000 0.0000 33.1890 0.0000 0.0000
# 5 0.0000 0.0000 0.0000 0.0000 28.2802 0.0000
# 6 0.0000 0.0000 0.0000 0.0000 0.0000 21.1063
#
#
#
# Elastic Compliance Matrix: (Units=1/GPa)
#
#
# Indices 1 2 3 4 5 6 
#
# 1 0.015208 -0.002837 -0.004454 0.000000 0.000000 0.000000
# 2 -0.002837 0.011369 -0.005815 0.000000 0.000000 0.000000
# 3 -0.004454 -0.005815 0.019498 0.000000 0.000000 0.000000
# 4 0.000000 0.000000 0.000000 0.030130 0.000000 0.000000
# 5 0.000000 0.000000 0.000000 0.000000 0.035360 0.000000
# 6 0.000000 0.000000 0.000000 0.000000 0.000000 0.047379
#
#
# Mechanical properties :
#
#
# Convention : Reuss Voigt Hill
#
# Bulk Modulus (GPa) = 50.34535 53.86029 52.10282
# Shear Modulus (GPa) = 26.07173 27.39871 26.73522
#
# Velocity S-wave (km/s) = 3.72331 3.81689 3.77039
# Velocity P-wave (km/s) = 6.72711 6.93281 6.83074
#
# Compressibility (1/GPa) = 0.01986281
#
# Stress axis : x y z
#
# Youngs Moduli (GPa) = 65.75430 87.95987 51.28682
#
# Poissons Ratio (x) = 0.24951 0.22845
# Poissons Ratio (y) = 0.18652 0.29824
# Poissons Ratio (z) = 0.29289 0.51151
#
# Static dielectric constant tensor:
#      x y z
#    x 1.682760 0.000000 0.000000 
#    y 0.000000 1.711410 0.000000 
#    z 0.000000 0.000000 1.647220 
# 
# From -- ./inp_files/6345.got.cif
#   From: 2010.05.17/outbox.cif.g08.bks.cpg/sg43_4_cif.got.tgz:6345.got - 2010.06.03 19:21:55.
