data_PCOD9372408
_publ_section_title
;
Structure prediction by ZEFSAII (Michael W. Deem and Ramdas Pophale) SiO2 
 PCOD9372408
Probable space group: F D D 2
;
_chemical_formula_sum "Si O2"
_cell_formula_units_Z 80
_cell_length_a 25.893211
_cell_length_b 10.715275
_cell_length_c 11.636170
_cell_angle_alpha 90.000000
_cell_angle_beta 90.000000
_cell_angle_gamma 90.000000
_cell_volume 3228.488838
_symmetry_space_group_name_H-M "F D D 2"
_symmetry_group_IT_number 43
_symmetry_cell_setting 'orthorhombic'
loop_
_space_group_symop_operation_xyz
x,y,z
-x,-y,z
1/4-x,1/4+y,1/4+z
1/4+x,1/4-y,1/4+z
x,1/2+y,1/2+z
-x,1/2-y,1/2+z
1/4-x,3/4+y,3/4+z
1/4+x,3/4-y,3/4+z
1/2+x,y,1/2+z
1/2-x,-y,1/2+z
3/4-x,1/4+y,3/4+z
3/4+x,1/4-y,3/4+z
1/2+x,1/2+y,z
1/2-x,1/2-y,z
3/4-x,3/4+y,1/4+z
3/4+x,3/4-y,1/4+z
loop_
_atom_site_type_symbol
_atom_site_label
_atom_site_fract_x
_atom_site_fract_y
_atom_site_fract_z
Si Si1 0.813089 0.873615 0.722060
Si Si2 0.363338 0.486662 0.042249
Si Si3 0.676415 0.255458 0.464854
Si Si4 0.714649 0.863694 0.167697
Si Si5 0.441316 0.985472 0.731583
O O1 0.808569 0.796299 0.839845
O O2 0.806975 0.791354 0.608838
O O3 0.870909 0.928125 0.711504
O O4 0.776552 0.996671 0.713525
O O5 0.395524 0.540308 0.150659
O O6 0.327380 0.364945 0.050480
O O7 0.408209 0.428533 0.962986
O O8 0.328208 0.592995 0.987839
O O9 0.711947 0.356778 0.528841
O O10 0.750000 0.750000 0.204935
O O11 0.500000 0.000000 0.689226
#
# Coordination Sequence:
#
# PCOD9372408 Si02
#       5
#    16  16  16  16  16
#     4  11  23  43  68 101 143 182 245 300 368 443
#     4  11  22  46  68  97 148 191 241 304 363 445
#     4  11  21  44  72  93 138 198 234 295 367 451
#     4  11  24  44  72 102 137 199 247 298 375 453
#     4  12  27  43  72 111 148 190 244 315 380 444
#
# _framework density 24.779395999999998
#
# number of rings (size 3 to 8) (size 9 to 14) (size 15 to 20)
#    0.000    0.800    6.000    3.000    2.800    0.800 
#    0.000    0.000    0.000    0.000    0.000    0.000 
#    0.000    0.000    0.000    0.000    0.000    0.000 
#
# Total GULP energy -111736.405056 kJ/mol
# GULP energy per Si atom -5586.820253 kJ/mol
# Density = 2.472300 g / cm^3
# Si number density = 24.779396 Si / 1000 Ang^3
#
#
#
# Elastic Constant Matrix: (Units=GPa)
#
#
# Indices 1 2 3 4 5 6 
#
# 1 113.6812 22.6839 17.2676 0.0000 0.0000 0.0000
# 2 22.6839 55.4343 29.4603 0.0000 0.0000 0.0000
# 3 17.2676 29.4603 182.7546 0.0000 0.0000 0.0000
# 4 0.0000 0.0000 0.0000 43.0145 0.0000 0.0000
# 5 0.0000 0.0000 0.0000 0.0000 7.6393 0.0000
# 6 0.0000 0.0000 0.0000 0.0000 0.0000 39.0099
#
#
#
# Elastic Compliance Matrix: (Units=1/GPa)
#
#
# Indices 1 2 3 4 5 6 
#
# 1 0.009594 -0.003767 -0.000299 0.000000 0.000000 0.000000
# 2 -0.003767 0.021209 -0.003063 0.000000 0.000000 0.000000
# 3 -0.000299 -0.003063 0.005994 0.000000 0.000000 0.000000
# 4 0.000000 0.000000 0.000000 0.023248 0.000000 0.000000
# 5 0.000000 0.000000 0.000000 0.000000 0.130902 0.000000
# 6 0.000000 0.000000 0.000000 0.000000 0.000000 0.025635
#
#
# Mechanical properties :
#
#
# Convention : Reuss Voigt Hill
#
# Bulk Modulus (GPa) = 44.36919 54.52152 49.44535
# Shear Modulus (GPa) = 20.97748 36.76329 28.87039
#
# Velocity S-wave (km/s) = 2.91274 3.85596 3.41705
# Velocity P-wave (km/s) = 5.40894 6.47110 5.96371
#
# Compressibility (1/GPa) = 0.02253816
#
# Stress axis : x y z
#
# Youngs Moduli (GPa) = 104.23624 47.15089 166.83787
#
# Poissons Ratio (x) = 0.17760 0.04993
# Poissons Ratio (y) = 0.39263 0.51101
# Poissons Ratio (z) = 0.03119 0.14442
#
# Static dielectric constant tensor:
#      x y z
#    x 2.149980 0.000000 0.000000 
#    y 0.000000 2.076740 0.000000 
#    z 0.000000 0.000000 2.044380 
# 
# From -- ./inp_files/8195.got.cif
#   From: 2010.05.17/outbox.cif.g08.bks.cpg/sg43_5_cif.got.tgz:8195.got - 2010.06.03 19:21:55.
