data_PCOD9372240
_publ_section_title
;
Structure prediction by ZEFSAII (Michael W. Deem and Ramdas Pophale) SiO2 
 PCOD9372240
Probable space group: F D D 2
;
_chemical_formula_sum "Si O2"
_cell_formula_units_Z 56
_cell_length_a 22.632136
_cell_length_b 18.422329
_cell_length_c 5.249738
_cell_angle_alpha 90.000000
_cell_angle_beta 90.000000
_cell_angle_gamma 90.000000
_cell_volume 2188.808203
_symmetry_space_group_name_H-M "F D D 2"
_symmetry_group_IT_number 43
_symmetry_cell_setting 'orthorhombic'
loop_
_space_group_symop_operation_xyz
x,y,z
-x,-y,z
1/4-x,1/4+y,1/4+z
1/4+x,1/4-y,1/4+z
x,1/2+y,1/2+z
-x,1/2-y,1/2+z
1/4-x,3/4+y,3/4+z
1/4+x,3/4-y,3/4+z
1/2+x,y,1/2+z
1/2-x,-y,1/2+z
3/4-x,1/4+y,3/4+z
3/4+x,1/4-y,3/4+z
1/2+x,1/2+y,z
1/2-x,1/2-y,z
3/4-x,3/4+y,1/4+z
3/4+x,3/4-y,1/4+z
loop_
_atom_site_type_symbol
_atom_site_label
_atom_site_fract_x
_atom_site_fract_y
_atom_site_fract_z
Si Si1 0.000000 0.500000 0.912640
Si Si2 0.360851 0.262442 0.914449
Si Si3 0.559582 0.607930 0.034419
Si Si4 0.777018 0.971114 0.359075
O O1 0.959035 0.446492 0.754051
O O2 0.951056 0.543959 0.067396
O O3 0.406429 0.237847 0.692310
O O4 0.396108 0.324178 0.069369
O O5 0.340467 0.191958 0.072188
O O6 0.496208 0.646677 0.983839
O O7 0.756028 0.025088 0.134699
#
# Coordination Sequence:
#
# PCOD9372240 Si02
#       4
#     8  16  16  16
#     4  12  28  44  82 116 162 214 278 340 414 492
#     4  11  27  50  81 115 169 210 278 344 414 488
#     4  11  27  51  78 120 159 217 275 342 411 493
#     4  10  25  49  82 117 160 214 273 334 410 483
#
# _framework density 25.584697999999999
#
# number of rings (size 3 to 8) (size 9 to 14) (size 15 to 20)
#    0.000    1.143    0.000    2.571   16.000    4.571 
#   10.286    0.000    0.000    0.000    0.000    0.000 
#    0.000    0.000    0.000    0.000    0.000    0.000 
#
# Total GULP energy -78148.793780 kJ/mol
# GULP energy per Si atom -5582.056699 kJ/mol
# Density = 2.552647 g / cm^3
# Si number density = 25.584698 Si / 1000 Ang^3
#
#
#
# Elastic Constant Matrix: (Units=GPa)
#
#
# Indices 1 2 3 4 5 6 
#
# 1 230.6768 57.5746 92.4393 -0.0012 -0.0006 -0.0007
# 2 57.5746 117.3182 54.0449 -0.0019 -0.0043 -0.0073
# 3 92.4393 54.0449 104.4771 -0.0079 -0.0169 -0.0106
# 4 -0.0012 -0.0019 -0.0079 31.0098 -0.0021 -0.0048
# 5 -0.0006 -0.0043 -0.0169 -0.0021 56.5651 0.0055
# 6 -0.0007 -0.0073 -0.0106 -0.0048 0.0055 42.9893
#
#
#
# Elastic Compliance Matrix: (Units=1/GPa)
#
#
# Indices 1 2 3 4 5 6 
#
# 1 0.006765 -0.000739 -0.005603 -0.000001 -0.000002 -0.000001
# 2 -0.000739 0.011271 -0.005177 -0.000001 -0.000001 0.000001
# 3 -0.005603 -0.005177 0.017207 0.000004 0.000005 0.000003
# 4 -0.000001 -0.000001 0.000004 0.032248 0.000001 0.000004
# 5 -0.000002 -0.000001 0.000005 0.000001 0.017679 -0.000002
# 6 -0.000001 0.000001 0.000003 0.000004 -0.000002 0.023262
#
#
# Mechanical properties :
#
#
# Convention : Reuss Voigt Hill
#
# Bulk Modulus (GPa) = 81.93088 95.62110 88.77599
# Shear Modulus (GPa) = 36.89011 42.67372 39.78192
#
# Velocity S-wave (km/s) = 3.80133 4.08847 3.94751
# Velocity P-wave (km/s) = 7.16657 7.72936 7.45328
#
# Compressibility (1/GPa) = 0.01220541
#
# Stress axis : x y z
#
# Youngs Moduli (GPa) = 147.82298 88.72193 58.11528
#
# Poissons Ratio (x) = 0.06553 0.32564
# Poissons Ratio (y) = 0.10918 0.30086
# Poissons Ratio (z) = 0.82830 0.45931
#
# Static dielectric constant tensor:
#      x y z
#    x 2.022720 0.000010 0.000010 
#    y 0.000010 2.094820 -0.000030 
#    z 0.000010 -0.000030 2.101090 
# 
# From -- ./inp_files/445.got.cif
#   From: 2010.05.17/outbox.cif.g08.bks.cpg/sg43_1_cif.got.tgz:445.got - 2010.06.03 19:21:55.
