data_PCOD9372580
_publ_section_title
;
Structure prediction by ZEFSAII (Michael W. Deem and Ramdas Pophale) SiO2 
 PCOD9372580
Probable space group: F D D 2
;
_chemical_formula_sum "Si O2"
_cell_formula_units_Z 88
_cell_length_a 22.670157
_cell_length_b 15.905162
_cell_length_c 10.473033
_cell_angle_alpha 90.000000
_cell_angle_beta 90.000000
_cell_angle_gamma 90.000000
_cell_volume 3776.287897
_symmetry_space_group_name_H-M "F D D 2"
_symmetry_group_IT_number 43
_symmetry_cell_setting 'orthorhombic'
loop_
_space_group_symop_operation_xyz
x,y,z
-x,-y,z
1/4-x,1/4+y,1/4+z
1/4+x,1/4-y,1/4+z
x,1/2+y,1/2+z
-x,1/2-y,1/2+z
1/4-x,3/4+y,3/4+z
1/4+x,3/4-y,3/4+z
1/2+x,y,1/2+z
1/2-x,-y,1/2+z
3/4-x,1/4+y,3/4+z
3/4+x,1/4-y,3/4+z
1/2+x,1/2+y,z
1/2-x,1/2-y,z
3/4-x,3/4+y,1/4+z
3/4+x,3/4-y,1/4+z
loop_
_atom_site_type_symbol
_atom_site_label
_atom_site_fract_x
_atom_site_fract_y
_atom_site_fract_z
Si Si1 0.500000 0.000000 0.758080
Si Si2 0.772270 0.894558 0.312030
Si Si3 0.657510 0.202665 0.403903
Si Si4 0.054651 0.594666 0.340087
Si Si5 0.513653 0.666512 0.580416
Si Si6 0.100890 0.568220 0.919643
O O1 0.500155 0.917284 0.671814
O O2 0.440841 0.994645 0.840827
O O3 0.752050 0.853160 0.179849
O O4 0.841944 0.906486 0.339560
O O5 0.744380 0.987718 0.317242
O O6 0.608120 0.132452 0.422861
O O7 0.677962 0.256335 0.525658
O O8 0.712310 0.153012 0.340017
O O9 0.634432 0.271770 0.302719
O O10 0.045164 0.653932 0.216597
O O11 0.558334 0.643877 0.466023
#
# Coordination Sequence:
#
# PCOD9372580 Si02
#       6
#     8  16  16  16  16  16
#     4  12  28  48  72 112 158 198 260 320 398 456
#     4  12  28  45  72 114 155 199 257 331 397 463
#     4  11  23  46  81 110 151 203 269 322 386 477
#     4  11  25  44  74 111 153 198 256 319 394 469
#     4  11  24  45  82 106 147 207 265 321 386 473
#     4  11  23  49  79 108 145 204 267 318 382 478
#
# _framework density 23.303308000000001
#
# number of rings (size 3 to 8) (size 9 to 14) (size 15 to 20)
#    0.000    0.727    3.636    3.818    7.636    1.455 
#    3.273    0.000    0.000    0.000    0.000    0.000 
#    0.000    0.000    0.000    0.000    0.000    0.000 
#
# Total GULP energy -123054.100434 kJ/mol
# GULP energy per Si atom -5593.368202 kJ/mol
# Density = 2.325027 g / cm^3
# Si number density = 23.303308 Si / 1000 Ang^3
#
#
#
# Elastic Constant Matrix: (Units=GPa)
#
#
# Indices 1 2 3 4 5 6 
#
# 1 122.2981 49.8150 51.9958 0.0000 0.0000 0.0000
# 2 49.8150 138.1904 70.3690 0.0000 0.0000 0.0000
# 3 51.9958 70.3690 121.9117 0.0000 0.0000 0.0000
# 4 0.0000 0.0000 0.0000 30.2462 0.0000 0.0000
# 5 0.0000 0.0000 0.0000 0.0000 16.6755 0.0000
# 6 0.0000 0.0000 0.0000 0.0000 0.0000 19.7545
#
#
#
# Elastic Compliance Matrix: (Units=1/GPa)
#
#
# Indices 1 2 3 4 5 6 
#
# 1 0.010406 -0.002112 -0.003219 0.000000 0.000000 0.000000
# 2 -0.002112 0.010677 -0.005262 0.000000 0.000000 0.000000
# 3 -0.003219 -0.005262 0.012613 0.000000 0.000000 0.000000
# 4 0.000000 0.000000 0.000000 0.033062 0.000000 0.000000
# 5 0.000000 0.000000 0.000000 0.000000 0.059968 0.000000
# 6 0.000000 0.000000 0.000000 0.000000 0.000000 0.050621
#
#
# Mechanical properties :
#
#
# Convention : Reuss Voigt Hill
#
# Bulk Modulus (GPa) = 79.93923 80.75107 80.34515
# Shear Modulus (GPa) = 24.66650 27.34993 26.00821
#
# Velocity S-wave (km/s) = 3.25699 3.42957 3.34439
# Velocity P-wave (km/s) = 6.96579 7.10000 7.03322
#
# Compressibility (1/GPa) = 0.01250950
#
# Stress axis : x y z
#
# Youngs Moduli (GPa) = 96.10277 93.65596 79.28243
#
# Poissons Ratio (x) = 0.19778 0.25521
# Poissons Ratio (y) = 0.20295 0.41722
# Poissons Ratio (z) = 0.30936 0.49286
#
# Static dielectric constant tensor:
#      x y z
#    x 1.939360 0.000000 0.000000 
#    y 0.000000 1.898280 0.000000 
#    z 0.000000 0.000000 1.857890 
# 
# From -- ./inp_files/7054.got.cif
#   From: 2010.05.17/outbox.cif.g08.bks.cpg/sg43_4_cif.got.tgz:7054.got - 2010.06.03 19:21:55.
