data_PCOD9372805
_publ_section_title
;
Structure prediction by ZEFSAII (Michael W. Deem and Ramdas Pophale) SiO2 
 PCOD9372805
Probable space group: F D D 2
;
_chemical_formula_sum "Si O2"
_cell_formula_units_Z 88
_cell_length_a 12.401781
_cell_length_b 21.605931
_cell_length_c 14.796802
_cell_angle_alpha 90.000000
_cell_angle_beta 90.000000
_cell_angle_gamma 90.000000
_cell_volume 3964.833053
_symmetry_space_group_name_H-M "F D D 2"
_symmetry_group_IT_number 43
_symmetry_cell_setting 'orthorhombic'
loop_
_space_group_symop_operation_xyz
x,y,z
-x,-y,z
1/4-x,1/4+y,1/4+z
1/4+x,1/4-y,1/4+z
x,1/2+y,1/2+z
-x,1/2-y,1/2+z
1/4-x,3/4+y,3/4+z
1/4+x,3/4-y,3/4+z
1/2+x,y,1/2+z
1/2-x,-y,1/2+z
3/4-x,1/4+y,3/4+z
3/4+x,1/4-y,3/4+z
1/2+x,1/2+y,z
1/2-x,1/2-y,z
3/4-x,3/4+y,1/4+z
3/4+x,3/4-y,1/4+z
loop_
_atom_site_type_symbol
_atom_site_label
_atom_site_fract_x
_atom_site_fract_y
_atom_site_fract_z
Si Si1 0.721426 0.969319 0.143980
Si Si2 0.269295 0.090352 0.528828
Si Si3 0.062178 0.306339 0.589752
Si Si4 0.250000 0.250000 0.962956
Si Si5 0.147719 0.420651 0.877576
Si Si6 0.883597 0.890748 0.812626
O O1 0.760492 0.967351 0.246380
O O2 0.592481 0.975041 0.148179
O O3 0.729242 0.900732 0.104700
O O4 0.767186 0.025935 0.085477
O O5 0.266111 0.075198 0.422241
O O6 0.364015 0.135340 0.562932
O O7 0.161518 0.130049 0.551400
O O8 0.121707 0.243827 0.622346
O O9 0.308871 0.201597 0.026354
O O10 0.276846 0.407816 0.869619
O O11 0.101131 0.394976 0.971114
#
# Coordination Sequence:
#
# PCOD9372805 Si02
#       6
#    16  16  16   8  16  16
#     4  12  25  46  71 106 141 189 251 298 374 444
#     4  12  26  46  72 106 150 193 244 309 371 454
#     4  12  27  44  71 106 152 193 242 301 383 443
#     4  12  24  44  74 102 134 186 250 306 362 436
#     4  12  23  44  71 105 133 189 244 300 364 433
#     4  12  24  42  75  99 136 180 246 309 355 429
#
# _framework density 22.195132999999998
#
# number of rings (size 3 to 8) (size 9 to 14) (size 15 to 20)
#    0.000    0.000    7.273    2.727    2.545    0.000 
#    0.000    0.000    4.000    0.000    0.000    0.000 
#    0.000    0.000    0.000    0.000    0.000    0.000 
#
# Total GULP energy -122921.614221 kJ/mol
# GULP energy per Si atom -5587.346101 kJ/mol
# Density = 2.214462 g / cm^3
# Si number density = 22.195133 Si / 1000 Ang^3
#
#
#
# Elastic Constant Matrix: (Units=GPa)
#
#
# Indices 1 2 3 4 5 6 
#
# 1 55.0843 20.4802 36.0181 0.0000 0.0000 0.0000
# 2 20.4802 101.2118 42.5604 0.0000 0.0000 0.0000
# 3 36.0181 42.5604 112.9784 0.0000 0.0000 0.0000
# 4 0.0000 0.0000 0.0000 126.1967 0.0000 0.0000
# 5 0.0000 0.0000 0.0000 0.0000 23.3590 0.0000
# 6 0.0000 0.0000 0.0000 0.0000 0.0000 28.3270
#
#
#
# Elastic Compliance Matrix: (Units=1/GPa)
#
#
# Indices 1 2 3 4 5 6 
#
# 1 0.023234 -0.001885 -0.006697 0.000000 0.000000 0.000000
# 2 -0.001885 0.011893 -0.003879 0.000000 0.000000 0.000000
# 3 -0.006697 -0.003879 0.012448 0.000000 0.000000 0.000000
# 4 0.000000 0.000000 0.000000 0.007924 0.000000 0.000000
# 5 0.000000 0.000000 0.000000 0.000000 0.042810 0.000000
# 6 0.000000 0.000000 0.000000 0.000000 0.000000 0.035302
#
#
# Mechanical properties :
#
#
# Convention : Reuss Voigt Hill
#
# Bulk Modulus (GPa) = 44.14675 51.93243 48.03959
# Shear Modulus (GPa) = 30.10530 46.92428 38.51479
#
# Velocity S-wave (km/s) = 3.68692 4.60300 4.17019
# Velocity P-wave (km/s) = 6.16911 7.19020 6.69914
#
# Compressibility (1/GPa) = 0.02265172
#
# Stress axis : x y z
#
# Youngs Moduli (GPa) = 43.04077 84.08313 80.33692
#
# Poissons Ratio (x) = 0.15852 0.53800
# Poissons Ratio (y) = 0.08114 0.31164
# Poissons Ratio (z) = 0.28824 0.32618
#
# Static dielectric constant tensor:
#      x y z
#    x 1.827580 0.000000 0.000000 
#    y 0.000000 1.776120 0.000000 
#    z 0.000000 0.000000 1.910560 
# 
# From -- ./inp_files/9584.got.cif
#   From: 2010.05.17/outbox.cif.g08.bks.cpg/sg43_5_cif.got.tgz:9584.got - 2010.06.03 19:21:55.
