data_PCOD9372195
_publ_section_title
;
Structure prediction by ZEFSAII (Michael W. Deem and Ramdas Pophale) SiO2 
 PCOD9372195
Probable space group: F D D 2
;
_chemical_formula_sum "Si O2"
_cell_formula_units_Z 72
_cell_length_a 24.557358
_cell_length_b 8.540406
_cell_length_c 12.691160
_cell_angle_alpha 90.000000
_cell_angle_beta 90.000000
_cell_angle_gamma 90.000000
_cell_volume 2661.714545
_symmetry_space_group_name_H-M "F D D 2"
_symmetry_group_IT_number 43
_symmetry_cell_setting 'orthorhombic'
loop_
_space_group_symop_operation_xyz
x,y,z
-x,-y,z
1/4-x,1/4+y,1/4+z
1/4+x,1/4-y,1/4+z
x,1/2+y,1/2+z
-x,1/2-y,1/2+z
1/4-x,3/4+y,3/4+z
1/4+x,3/4-y,3/4+z
1/2+x,y,1/2+z
1/2-x,-y,1/2+z
3/4-x,1/4+y,3/4+z
3/4+x,1/4-y,3/4+z
1/2+x,1/2+y,z
1/2-x,1/2-y,z
3/4-x,3/4+y,1/4+z
3/4+x,3/4-y,1/4+z
loop_
_atom_site_type_symbol
_atom_site_label
_atom_site_fract_x
_atom_site_fract_y
_atom_site_fract_z
Si Si1 0.750000 0.250000 0.403590
Si Si2 0.456899 0.216940 0.970818
Si Si3 0.669188 0.507355 0.500492
Si Si4 0.073399 0.688328 0.918410
Si Si5 0.323529 0.778446 0.827303
O O1 0.784493 0.360531 0.324564
O O2 0.707861 0.362451 0.466829
O O3 0.414398 0.243768 0.875639
O O4 0.510179 0.172574 0.899779
O O5 0.457709 0.388748 0.024474
O O6 0.642606 0.284140 0.203069
O O7 0.691597 0.668362 0.445987
O O8 0.073164 0.809928 0.014292
O O9 0.111926 0.765597 0.831311
#
# Coordination Sequence:
#
# PCOD9372195 Si02
#       5
#     8  16  16  16  16
#     4  12  28  48  78 120 156 208 282 334 406 498
#     4  12  26  53  84 112 167 219 267 343 416 489
#     4  10  28  50  80 117 165 210 277 342 410 486
#     4  10  24  52  77 115 162 211 268 345 405 477
#     4  10  25  53  76 116 164 210 281 326 403 503
#
# _framework density 27.050232999999999
#
# number of rings (size 3 to 8) (size 9 to 14) (size 15 to 20)
#    1.333    0.000    2.222    0.667    6.222    3.556 
#   12.000    0.000    0.000    0.000    0.000    0.000 
#    0.000    0.000    0.000    0.000    0.000    0.000 
#
# Total GULP energy -100305.911497 kJ/mol
# GULP energy per Si atom -5572.550639 kJ/mol
# Density = 2.698867 g / cm^3
# Si number density = 27.050233 Si / 1000 Ang^3
#
#
#
# Elastic Constant Matrix: (Units=GPa)
#
#
# Indices 1 2 3 4 5 6 
#
# 1 66.0778 -1.7245 -27.5433 0.0000 0.0000 0.0000
# 2 -1.7245 150.1674 57.1202 0.0000 0.0000 0.0000
# 3 -27.5433 57.1202 82.0552 0.0000 0.0000 0.0000
# 4 0.0000 0.0000 0.0000 37.9040 0.0000 0.0000
# 5 0.0000 0.0000 0.0000 0.0000 43.4371 0.0000
# 6 0.0000 0.0000 0.0000 0.0000 0.0000 49.5490
#
#
#
# Elastic Compliance Matrix: (Units=1/GPa)
#
#
# Indices 1 2 3 4 5 6 
#
# 1 0.018493 -0.002923 0.008242 0.000000 0.000000 0.000000
# 2 -0.002923 0.009519 -0.007608 0.000000 0.000000 0.000000
# 3 0.008242 -0.007608 0.020249 0.000000 0.000000 0.000000
# 4 0.000000 0.000000 0.000000 0.026382 0.000000 0.000000
# 5 0.000000 0.000000 0.000000 0.000000 0.023022 0.000000
# 6 0.000000 0.000000 0.000000 0.000000 0.000000 0.020182
#
#
# Mechanical properties :
#
#
# Convention : Reuss Voigt Hill
#
# Bulk Modulus (GPa) = 22.89113 39.33390 31.11252
# Shear Modulus (GPa) = 36.49991 44.20788 40.35389
#
# Velocity S-wave (km/s) = 3.67732 4.04702 3.86659
# Velocity P-wave (km/s) = 5.14889 6.03411 5.60899
#
# Compressibility (1/GPa) = 0.04368503
#
# Stress axis : x y z
#
# Youngs Moduli (GPa) = 54.07465 105.04774 49.38412
#
# Poissons Ratio (x) = 0.30702 -0.40703
# Poissons Ratio (y) = 0.15804 0.37570
# Poissons Ratio (z) = -0.44569 0.79918
#
# Static dielectric constant tensor:
#      x y z
#    x 2.419810 0.000000 0.000000 
#    y 0.000000 2.185400 0.000000 
#    z 0.000000 0.000000 2.069660 
# 
# From -- ./inp_files/8169.got.cif
#   From: 2010.05.17/outbox.cif.g08.bks.cpg/sg43_5_cif.got.tgz:8169.got - 2010.06.03 19:21:55.
