data_PCOD9372553
_publ_section_title
;
Structure prediction by ZEFSAII (Michael W. Deem and Ramdas Pophale) SiO2 
 PCOD9372553
Probable space group: F D D 2
;
_chemical_formula_sum "Si O2"
_cell_formula_units_Z 64
_cell_length_a 13.143194
_cell_length_b 15.792953
_cell_length_c 13.191771
_cell_angle_alpha 90.000000
_cell_angle_beta 90.000000
_cell_angle_gamma 90.000000
_cell_volume 2738.213863
_symmetry_space_group_name_H-M "F D D 2"
_symmetry_group_IT_number 43
_symmetry_cell_setting 'orthorhombic'
loop_
_space_group_symop_operation_xyz
x,y,z
-x,-y,z
1/4-x,1/4+y,1/4+z
1/4+x,1/4-y,1/4+z
x,1/2+y,1/2+z
-x,1/2-y,1/2+z
1/4-x,3/4+y,3/4+z
1/4+x,3/4-y,3/4+z
1/2+x,y,1/2+z
1/2-x,-y,1/2+z
3/4-x,1/4+y,3/4+z
3/4+x,1/4-y,3/4+z
1/2+x,1/2+y,z
1/2-x,1/2-y,z
3/4-x,3/4+y,1/4+z
3/4+x,3/4-y,1/4+z
loop_
_atom_site_type_symbol
_atom_site_label
_atom_site_fract_x
_atom_site_fract_y
_atom_site_fract_z
Si Si1 0.107718 0.460024 0.584490
Si Si2 0.007722 0.196571 0.139539
Si Si3 0.804907 0.011474 0.674917
Si Si4 0.844891 0.813495 0.716091
O O1 0.167799 0.438783 0.483214
O O2 0.075747 0.377128 0.645704
O O3 0.185298 0.518040 0.646834
O O4 0.066934 0.695290 0.533604
O O5 0.941833 0.281894 0.150889
O O6 0.750000 0.250000 0.809222
O O7 0.870729 0.050162 0.583645
O O8 0.824395 0.910819 0.687924
O O9 0.750000 0.750000 0.697246
#
# Coordination Sequence:
#
# PCOD9372553 Si02
#       4
#    16  16  16  16
#     4  11  25  45  71 105 134 187 236 287 359 419
#     4  11  25  44  72 101 141 181 230 294 349 431
#     4  11  25  44  72 104 145 182 234 297 351 435
#     4  11  23  44  71 104 138 189 232 285 362 424
#
# _framework density 23.372900999999999
#
# number of rings (size 3 to 8) (size 9 to 14) (size 15 to 20)
#    0.000    1.000    2.500    3.000    7.000    2.000 
#    0.000    0.000    0.000    0.000    0.000    0.000 
#    0.000    0.000    0.000    0.000    0.000    0.000 
#
# Total GULP energy -89581.400002 kJ/mol
# GULP energy per Si atom -5598.837500 kJ/mol
# Density = 2.331970 g / cm^3
# Si number density = 23.372901 Si / 1000 Ang^3
#
#
#
# Elastic Constant Matrix: (Units=GPa)
#
#
# Indices 1 2 3 4 5 6 
#
# 1 114.1351 30.1085 20.5321 0.0000 0.0000 0.0000
# 2 30.1085 55.2488 0.6564 0.0000 0.0000 0.0000
# 3 20.5321 0.6564 98.4722 0.0000 0.0000 0.0000
# 4 0.0000 0.0000 0.0000 30.4997 0.0000 0.0000
# 5 0.0000 0.0000 0.0000 0.0000 37.3415 0.0000
# 6 0.0000 0.0000 0.0000 0.0000 0.0000 -13.7674
#
#
#
# Elastic Compliance Matrix: (Units=1/GPa)
#
#
# Indices 1 2 3 4 5 6 
#
# 1 0.010685 -0.005797 -0.002189 0.000000 0.000000 0.000000
# 2 -0.005797 0.021246 0.001067 0.000000 0.000000 0.000000
# 3 -0.002189 0.001067 0.010604 0.000000 0.000000 0.000000
# 4 0.000000 0.000000 0.000000 0.032787 0.000000 0.000000
# 5 0.000000 0.000000 0.000000 0.000000 0.026780 0.000000
# 6 0.000000 0.000000 0.000000 0.000000 0.000000 -0.072635
#
#
# Mechanical properties :
#
#
# Convention : Reuss Voigt Hill
#
# Bulk Modulus (GPa) = 34.84605 41.16111 38.00358
# Shear Modulus (GPa) = 94.57104 25.25205 59.91155
#
# Velocity S-wave (km/s) = 6.36786 3.29051 5.06839
# Velocity P-wave (km/s) = 8.30707 5.66440 7.10960
#
# Compressibility (1/GPa) = 0.02869766
#
# Stress axis : x y z
#
# Youngs Moduli (GPa) = 93.59350 47.06722 94.29971
#
# Poissons Ratio (x) = 0.27283 0.20644
# Poissons Ratio (y) = 0.54253 -0.10062
# Poissons Ratio (z) = 0.20489 -0.05022
#
# Static dielectric constant tensor:
#      x y z
#    x 1.841230 0.000000 0.000000 
#    y 0.000000 1.940030 0.000000 
#    z 0.000000 0.000000 1.843220 
# 
# From -- ./inp_files/13681.got.cif
#   From: 2010.05.17/outbox.cif.g08.bks.cpg/sg43_7_cif.got.tgz:13681.got - 2010.06.03 19:21:55.
