data_PCOD9372486
_publ_section_title
;
Structure prediction by ZEFSAII (Michael W. Deem and Ramdas Pophale) SiO2 
 PCOD9372486
Probable space group: F D D 2
;
_chemical_formula_sum "Si O2"
_cell_formula_units_Z 88
_cell_length_a 7.212836
_cell_length_b 30.782510
_cell_length_c 18.624436
_cell_angle_alpha 90.000000
_cell_angle_beta 90.000000
_cell_angle_gamma 90.000000
_cell_volume 4135.168557
_symmetry_space_group_name_H-M "F D D 2"
_symmetry_group_IT_number 43
_symmetry_cell_setting 'orthorhombic'
loop_
_space_group_symop_operation_xyz
x,y,z
-x,-y,z
1/4-x,1/4+y,1/4+z
1/4+x,1/4-y,1/4+z
x,1/2+y,1/2+z
-x,1/2-y,1/2+z
1/4-x,3/4+y,3/4+z
1/4+x,3/4-y,3/4+z
1/2+x,y,1/2+z
1/2-x,-y,1/2+z
3/4-x,1/4+y,3/4+z
3/4+x,1/4-y,3/4+z
1/2+x,1/2+y,z
1/2-x,1/2-y,z
3/4-x,3/4+y,1/4+z
3/4+x,3/4-y,1/4+z
loop_
_atom_site_type_symbol
_atom_site_label
_atom_site_fract_x
_atom_site_fract_y
_atom_site_fract_z
Si Si1 0.425631 0.955315 0.692590
Si Si2 0.500000 0.000000 0.919090
Si Si3 0.552329 0.616455 0.071746
Si Si4 0.086708 0.162713 0.709250
Si Si5 0.384063 0.606055 0.294892
Si Si6 0.084532 0.215759 0.069914
O O1 0.409306 0.916561 0.636309
O O2 0.572779 0.938330 0.752236
O O3 0.239586 0.964013 0.737826
O O4 0.500000 0.000000 0.659960
O O5 0.405846 0.037976 0.964502
O O6 0.662395 0.020311 0.870017
O O7 0.334034 0.621348 0.055794
O O8 0.625564 0.665252 0.087352
O O9 0.652417 0.597588 0.002239
O O10 0.750000 0.250000 0.578547
O O11 0.245357 0.133509 0.746448
O O12 0.315342 0.597478 0.375157
#
# Coordination Sequence:
#
# PCOD9372486 Si02
#       6
#    16   8  16  16  16  16
#     4  11  22  46  71 103 145 183 236 300 353 426
#     4  12  24  50  66 110 144 186 240 304 356 428
#     4  11  27  45  71 109 143 186 243 298 362 421
#     4  12  27  44  77 102 144 189 238 295 364 427
#     4  11  24  47  71 101 140 191 234 295 359 424
#     4  11  25  43  75 103 139 198 245 284 363 447
#
# _framework density 21.280874000000001
#
# number of rings (size 3 to 8) (size 9 to 14) (size 15 to 20)
#    0.000    0.727    6.364    0.000   10.182    2.909 
#    1.636    0.000    0.000    0.000    0.000    0.000 
#    0.000    0.000    0.000    0.000    0.000    0.000 
#
# Total GULP energy -123118.541105 kJ/mol
# GULP energy per Si atom -5596.297323 kJ/mol
# Density = 2.123244 g / cm^3
# Si number density = 21.280874 Si / 1000 Ang^3
#
#
#
# Elastic Constant Matrix: (Units=GPa)
#
#
# Indices 1 2 3 4 5 6 
#
# 1 68.9636 28.3131 27.3391 0.0000 0.0000 0.0000
# 2 28.3131 156.2461 50.3636 0.0000 0.0000 0.0000
# 3 27.3391 50.3636 99.4789 0.0000 0.0000 0.0000
# 4 0.0000 0.0000 0.0000 32.4056 0.0000 0.0000
# 5 0.0000 0.0000 0.0000 0.0000 25.9848 0.0000
# 6 0.0000 0.0000 0.0000 0.0000 0.0000 35.2306
#
#
#
# Elastic Compliance Matrix: (Units=1/GPa)
#
#
# Indices 1 2 3 4 5 6 
#
# 1 0.016709 -0.001849 -0.003656 0.000000 0.000000 0.000000
# 2 -0.001849 0.007853 -0.003467 0.000000 0.000000 0.000000
# 3 -0.003656 -0.003467 0.012813 0.000000 0.000000 0.000000
# 4 0.000000 0.000000 0.000000 0.030859 0.000000 0.000000
# 5 0.000000 0.000000 0.000000 0.000000 0.038484 0.000000
# 6 0.000000 0.000000 0.000000 0.000000 0.000000 0.028384
#
#
# Mechanical properties :
#
#
# Convention : Reuss Voigt Hill
#
# Bulk Modulus (GPa) = 51.46885 59.63557 55.55221
# Shear Modulus (GPa) = 31.34337 33.30239 32.32288
#
# Velocity S-wave (km/s) = 3.84193 3.96017 3.90150
# Velocity P-wave (km/s) = 6.62711 6.99961 6.81590
#
# Compressibility (1/GPa) = 0.01942923
#
# Stress axis : x y z
#
# Youngs Moduli (GPa) = 59.84839 127.34009 78.04857
#
# Poissons Ratio (x) = 0.23551 0.28532
# Poissons Ratio (y) = 0.11069 0.27063
# Poissons Ratio (z) = 0.21879 0.44155
#
# Static dielectric constant tensor:
#      x y z
#    x 1.776140 0.000000 0.000000 
#    y 0.000000 1.822390 0.000000 
#    z 0.000000 0.000000 1.757740 
# 
# From -- ./inp_files/19564.got.cif
#   From: 2010.05.17/outbox.cif.g08.bks.cpg/sg43_10_cif.got.tgz:19564.got - 2010.06.03 19:21:55.
