data_PCOD9372869
_publ_section_title
;
Structure prediction by ZEFSAII (Michael W. Deem and Ramdas Pophale) SiO2 
 PCOD9372869
Probable space group: F D D 2
;
_chemical_formula_sum "Si O2"
_cell_formula_units_Z 120
_cell_length_a 27.293794
_cell_length_b 22.493544
_cell_length_c 9.265176
_cell_angle_alpha 90.000000
_cell_angle_beta 90.000000
_cell_angle_gamma 90.000000
_cell_volume 5688.208010
_symmetry_space_group_name_H-M "F D D 2"
_symmetry_group_IT_number 43
_symmetry_cell_setting 'orthorhombic'
loop_
_space_group_symop_operation_xyz
x,y,z
-x,-y,z
1/4-x,1/4+y,1/4+z
1/4+x,1/4-y,1/4+z
x,1/2+y,1/2+z
-x,1/2-y,1/2+z
1/4-x,3/4+y,3/4+z
1/4+x,3/4-y,3/4+z
1/2+x,y,1/2+z
1/2-x,-y,1/2+z
3/4-x,1/4+y,3/4+z
3/4+x,1/4-y,3/4+z
1/2+x,1/2+y,z
1/2-x,1/2-y,z
3/4-x,3/4+y,1/4+z
3/4+x,3/4-y,1/4+z
loop_
_atom_site_type_symbol
_atom_site_label
_atom_site_fract_x
_atom_site_fract_y
_atom_site_fract_z
Si Si1 0.945693 0.909517 0.778010
Si Si2 0.794173 0.014270 0.940079
Si Si3 0.562595 0.229114 0.222032
Si Si4 0.297190 0.824252 0.060373
Si Si5 0.128284 0.009007 0.188405
Si Si6 0.250000 0.750000 0.312706
Si Si7 0.588163 0.807821 0.954620
Si Si8 0.453769 0.399682 0.109904
O O1 0.945427 0.841311 0.723543
O O2 0.888777 0.927098 0.781033
O O3 0.973555 0.952028 0.665692
O O4 0.964838 0.914699 0.942437
O O5 0.800837 0.078811 0.870945
O O6 0.739965 0.008687 0.002726
O O7 0.798987 0.962853 0.821613
O O8 0.836358 0.004098 0.055750
O O9 0.596860 0.251431 0.351044
O O10 0.586587 0.255436 0.077819
O O11 0.285823 0.784997 0.202576
O O12 0.319211 0.886524 0.113359
O O13 0.337600 0.791545 0.963946
O O14 0.247653 0.831516 0.967425
O O15 0.096096 0.068089 0.162051
#
# Coordination Sequence:
#
# PCOD9372869 Si02
#       8
#    16  16  16  16  16   8  16  16
#     4  12  28  48  74 108 154 196 248 314 372 449
#     4  12  27  46  74 105 149 194 248 308 372 449
#     4  12  26  49  75 107 146 197 253 306 372 440
#     4  12  26  48  78 106 151 196 248 314 372 453
#     4  12  27  46  76 109 146 195 249 306 376 449
#     4  12  28  46  74 108 146 196 248 304 374 442
#     4  12  25  48  72 107 145 195 247 309 373 444
#     4  12  27  48  73 110 152 196 250 310 382 443
#
# _framework density 21.096276
#
# number of rings (size 3 to 8) (size 9 to 14) (size 15 to 20)
#    0.000    0.000    6.667    2.400    5.600    0.000 
#    2.400    0.000    0.000    0.000    0.000    0.000 
#    0.000    0.000    0.000    0.000    0.000    0.000 
#
# Total GULP energy -167836.223045 kJ/mol
# GULP energy per Si atom -5594.540768 kJ/mol
# Density = 2.104826 g / cm^3
# Si number density = 21.096276 Si / 1000 Ang^3
#
#
#
# Elastic Constant Matrix: (Units=GPa)
#
#
# Indices 1 2 3 4 5 6 
#
# 1 93.7606 30.8775 31.2332 0.0000 0.0000 0.0000
# 2 30.8775 97.7955 15.7068 0.0007 -0.0002 -0.0003
# 3 31.2332 15.7068 103.2826 0.0021 -0.0007 -0.0010
# 4 0.0000 0.0007 0.0021 29.2045 -0.0003 -0.0008
# 5 0.0000 -0.0002 -0.0007 -0.0003 39.4701 0.0001
# 6 0.0000 -0.0003 -0.0010 -0.0008 0.0001 29.4051
#
#
#
# Elastic Compliance Matrix: (Units=1/GPa)
#
#
# Indices 1 2 3 4 5 6 
#
# 1 0.012960 -0.003549 -0.003379 0.000000 0.000000 0.000000
# 2 -0.003549 0.011453 -0.000669 0.000000 0.000000 0.000000
# 3 -0.003379 -0.000669 0.010806 -0.000001 0.000000 0.000000
# 4 0.000000 0.000000 -0.000001 0.034241 0.000000 0.000001
# 5 0.000000 0.000000 0.000000 0.000000 0.025336 0.000000
# 6 0.000000 0.000000 0.000000 0.000001 0.000000 0.034008
#
#
# Mechanical properties :
#
#
# Convention : Reuss Voigt Hill
#
# Bulk Modulus (GPa) = 49.93760 50.05265 49.99512
# Shear Modulus (GPa) = 33.18446 34.08404 33.63425
#
# Velocity S-wave (km/s) = 3.97041 4.02387 3.99723
# Velocity P-wave (km/s) = 6.68891 6.73543 6.71221
#
# Compressibility (1/GPa) = 0.02002499
#
# Stress axis : x y z
#
# Youngs Moduli (GPa) = 77.16036 87.31042 92.54296
#
# Poissons Ratio (x) = 0.30988 0.31274
# Poissons Ratio (y) = 0.27386 0.06187
# Poissons Ratio (z) = 0.26076 0.05837
#
# Static dielectric constant tensor:
#      x y z
#    x 1.737760 0.000000 0.000000 
#    y 0.000000 1.750630 0.000000 
#    z 0.000000 0.000000 1.779280 
# 
# From -- ./inp_files/4324.got.cif
#   From: 2010.05.17/outbox.cif.g08.bks.cpg/sg43_3_cif.got.tgz:4324.got - 2010.06.03 19:21:55.
