data_PCOD9372726
_publ_section_title
;
Structure prediction by ZEFSAII (Michael W. Deem and Ramdas Pophale) SiO2 
 PCOD9372726
Probable space group: F D D 2
;
_chemical_formula_sum "Si O2"
_cell_formula_units_Z 40
_cell_length_a 14.538256
_cell_length_b 8.933845
_cell_length_c 13.298153
_cell_angle_alpha 90.000000
_cell_angle_beta 90.000000
_cell_angle_gamma 90.000000
_cell_volume 1727.197698
_symmetry_space_group_name_H-M "F D D 2"
_symmetry_group_IT_number 43
_symmetry_cell_setting 'orthorhombic'
loop_
_space_group_symop_operation_xyz
x,y,z
-x,-y,z
1/4-x,1/4+y,1/4+z
1/4+x,1/4-y,1/4+z
x,1/2+y,1/2+z
-x,1/2-y,1/2+z
1/4-x,3/4+y,3/4+z
1/4+x,3/4-y,3/4+z
1/2+x,y,1/2+z
1/2-x,-y,1/2+z
3/4-x,1/4+y,3/4+z
3/4+x,1/4-y,3/4+z
1/2+x,1/2+y,z
1/2-x,1/2-y,z
3/4-x,3/4+y,1/4+z
3/4+x,3/4-y,1/4+z
loop_
_atom_site_type_symbol
_atom_site_label
_atom_site_fract_x
_atom_site_fract_y
_atom_site_fract_z
Si Si1 0.097458 0.813250 0.435820
Si Si2 0.962121 0.713160 0.150800
Si Si3 0.250000 0.250000 0.512130
O O1 0.195320 0.897050 0.450122
O O2 0.125661 0.640218 0.426963
O O3 0.030273 0.815553 0.531197
O O4 0.056456 0.896196 0.339394
O O5 0.949111 0.881838 0.189195
#
# Coordination Sequence:
#
# PCOD9372726 Si02
#       3
#    16  16   8
#     4  11  25  49  74 112 152 191 264 309 371 455
#     4  11  26  47  76 110 150 202 248 317 373 454
#     4  12  26  48  78 106 154 204 244 318 380 442
#
# _framework density 23.158899000000002
#
# number of rings (size 3 to 8) (size 9 to 14) (size 15 to 20)
#    0.000    0.800    4.000    2.400    5.600    0.000 
#    0.000    0.000    0.000    0.000    0.000    0.000 
#    0.000    0.000    0.000    0.000    0.000    0.000 
#
# Total GULP energy -55800.138730 kJ/mol
# GULP energy per Si atom -5580.013873 kJ/mol
# Density = 2.310619 g / cm^3
# Si number density = 23.158899 Si / 1000 Ang^3
#
#
#
# Elastic Constant Matrix: (Units=GPa)
#
#
# Indices 1 2 3 4 5 6 
#
# 1 54.0077 40.2648 40.7376 0.0000 0.0000 0.0000
# 2 40.2648 195.9474 76.0202 0.0000 0.0000 0.0000
# 3 40.7376 76.0202 127.4117 0.0000 0.0000 0.0000
# 4 0.0000 0.0000 0.0000 31.4149 0.0000 0.0000
# 5 0.0000 0.0000 0.0000 0.0000 31.1110 0.0000
# 6 0.0000 0.0000 0.0000 0.0000 0.0000 5.1281
#
#
#
# Elastic Compliance Matrix: (Units=1/GPa)
#
#
# Indices 1 2 3 4 5 6 
#
# 1 0.025451 -0.002697 -0.006528 0.000000 0.000000 0.000000
# 2 -0.002697 0.006926 -0.003270 0.000000 0.000000 0.000000
# 3 -0.006528 -0.003270 0.011887 0.000000 0.000000 0.000000
# 4 0.000000 0.000000 0.000000 0.031832 0.000000 0.000000
# 5 0.000000 0.000000 0.000000 0.000000 0.032143 0.000000
# 6 0.000000 0.000000 0.000000 0.000000 0.000000 0.195003
#
#
# Mechanical properties :
#
#
# Convention : Reuss Voigt Hill
#
# Bulk Modulus (GPa) = 51.88582 76.82354 64.35468
# Shear Modulus (GPa) = 14.94065 28.22042 21.58053
#
# Velocity S-wave (km/s) = 2.54271 3.49457 3.05593
# Velocity P-wave (km/s) = 5.57435 7.03755 6.34825
#
# Compressibility (1/GPa) = 0.01927309
#
# Stress axis : x y z
#
# Youngs Moduli (GPa) = 39.29134 144.37562 84.12512
#
# Poissons Ratio (x) = 0.38940 0.54919
# Poissons Ratio (y) = 0.10597 0.27511
# Poissons Ratio (z) = 0.25650 0.47215
#
# Static dielectric constant tensor:
#      x y z
#    x 1.844640 0.000000 0.000000 
#    y 0.000000 1.902720 0.000000 
#    z 0.000000 0.000000 1.945890 
# 
# From -- ./inp_files/5126.got.cif
#   From: 2010.05.17/outbox.cif.g08.bks.cpg/sg43_3_cif.got.tgz:5126.got - 2010.06.03 19:21:55.
