data_PCOD9372944
_publ_section_title
;
Structure prediction by ZEFSAII (Michael W. Deem and Ramdas Pophale) SiO2 
 PCOD9372944
Probable space group: F D D 2
;
_chemical_formula_sum "Si O2"
_cell_formula_units_Z 48
_cell_length_a 4.789996
_cell_length_b 26.725782
_cell_length_c 13.219043
_cell_angle_alpha 90.000000
_cell_angle_beta 90.000000
_cell_angle_gamma 90.000000
_cell_volume 1692.254149
_symmetry_space_group_name_H-M "F D D 2"
_symmetry_group_IT_number 43
_symmetry_cell_setting 'orthorhombic'
loop_
_space_group_symop_operation_xyz
x,y,z
-x,-y,z
1/4-x,1/4+y,1/4+z
1/4+x,1/4-y,1/4+z
x,1/2+y,1/2+z
-x,1/2-y,1/2+z
1/4-x,3/4+y,3/4+z
1/4+x,3/4-y,3/4+z
1/2+x,y,1/2+z
1/2-x,-y,1/2+z
3/4-x,1/4+y,3/4+z
3/4+x,1/4-y,3/4+z
1/2+x,1/2+y,z
1/2-x,1/2-y,z
3/4-x,3/4+y,1/4+z
3/4+x,3/4-y,1/4+z
loop_
_atom_site_type_symbol
_atom_site_label
_atom_site_fract_x
_atom_site_fract_y
_atom_site_fract_z
Si Si1 0.403231 0.397829 0.759360
Si Si2 0.348132 0.693729 0.112058
Si Si3 0.188437 0.190702 0.317923
O O1 0.672784 0.433467 0.776495
O O2 0.225864 0.421735 0.666413
O O3 0.545950 0.345244 0.796899
O O4 0.176377 0.410569 0.847186
O O5 0.250000 0.750000 0.110917
O O6 0.496660 0.682756 0.218420
O O7 0.250000 0.250000 0.324007
#
# Coordination Sequence:
#
# PCOD9372944 Si02
#       3
#    16  16  16
#     4  12  33  58  94 141 194 254 330 401 488 580
#     4  12  31  60  93 138 189 255 326 408 483 584
#     4  12  33  62 100 144 197 261 324 405 493 587
#
# _framework density 28.364533000000002
#
# number of rings (size 3 to 8) (size 9 to 14) (size 15 to 20)
#    0.000    0.000    0.000    4.000   14.000   10.667 
#    6.000    0.000    0.000    0.000    0.000    0.000 
#    0.000    0.000    0.000    0.000    0.000    0.000 
#
# Total GULP energy -67328.397821 kJ/mol
# GULP energy per Si atom -5610.699818 kJ/mol
# Density = 2.829997 g / cm^3
# Si number density = 28.364533 Si / 1000 Ang^3
#
#
#
# Elastic Constant Matrix: (Units=GPa)
#
#
# Indices 1 2 3 4 5 6 
#
# 1 297.8434 138.5315 110.3219 0.0000 0.0000 0.0000
# 2 138.5315 298.0527 92.0707 0.0000 0.0000 0.0000
# 3 110.3219 92.0707 204.5365 0.0000 0.0000 0.0000
# 4 0.0000 0.0000 0.0000 24.5331 0.0000 0.0000
# 5 0.0000 0.0000 0.0000 0.0000 86.0235 0.0000
# 6 0.0000 0.0000 0.0000 0.0000 0.0000 60.0191
#
#
#
# Elastic Compliance Matrix: (Units=1/GPa)
#
#
# Indices 1 2 3 4 5 6 
#
# 1 0.004818 -0.001669 -0.001848 0.000000 0.000000 0.000000
# 2 -0.001669 0.004475 -0.001114 0.000000 0.000000 0.000000
# 3 -0.001848 -0.001114 0.006387 0.000000 0.000000 0.000000
# 4 0.000000 0.000000 0.000000 0.040761 0.000000 0.000000
# 5 0.000000 0.000000 0.000000 0.000000 0.011625 0.000000
# 6 0.000000 0.000000 0.000000 0.000000 0.000000 0.016661
#
#
# Mechanical properties :
#
#
# Convention : Reuss Voigt Hill
#
# Bulk Modulus (GPa) = 155.78610 164.69786 160.24198
# Shear Modulus (GPa) = 52.01403 64.74905 58.38154
#
# Velocity S-wave (km/s) = 4.28690 4.78299 4.54173
# Velocity P-wave (km/s) = 8.91882 9.41772 9.17167
#
# Compressibility (1/GPa) = 0.00641906
#
# Stress axis : x y z
#
# Youngs Moduli (GPa) = 207.55993 223.46980 156.56218
#
# Poissons Ratio (x) = 0.37288 0.28926
# Poissons Ratio (y) = 0.34633 0.17446
# Poissons Ratio (z) = 0.38348 0.24902
#
# Static dielectric constant tensor:
#      x y z
#    x 1.970470 0.000000 0.000000 
#    y 0.000000 2.528400 0.000000 
#    z 0.000000 0.000000 2.487370 
# 
# From -- ./inp_files/8576.got.cif
#   From: 2010.05.17/outbox.cif.g08.bks.cpg/sg43_5_cif.got.tgz:8576.got - 2010.06.03 19:21:55.
