data_PCOD9372487
_publ_section_title
;
Structure prediction by ZEFSAII (Michael W. Deem and Ramdas Pophale) SiO2 
 PCOD9372487
Probable space group: F D D 2
;
_chemical_formula_sum "Si O2"
_cell_formula_units_Z 120
_cell_length_a 11.431512
_cell_length_b 25.592839
_cell_length_c 18.434649
_cell_angle_alpha 90.000000
_cell_angle_beta 90.000000
_cell_angle_gamma 90.000000
_cell_volume 5393.330248
_symmetry_space_group_name_H-M "F D D 2"
_symmetry_group_IT_number 43
_symmetry_cell_setting 'orthorhombic'
loop_
_space_group_symop_operation_xyz
x,y,z
-x,-y,z
1/4-x,1/4+y,1/4+z
1/4+x,1/4-y,1/4+z
x,1/2+y,1/2+z
-x,1/2-y,1/2+z
1/4-x,3/4+y,3/4+z
1/4+x,3/4-y,3/4+z
1/2+x,y,1/2+z
1/2-x,-y,1/2+z
3/4-x,1/4+y,3/4+z
3/4+x,1/4-y,3/4+z
1/2+x,1/2+y,z
1/2-x,1/2-y,z
3/4-x,3/4+y,1/4+z
3/4+x,3/4-y,1/4+z
loop_
_atom_site_type_symbol
_atom_site_label
_atom_site_fract_x
_atom_site_fract_y
_atom_site_fract_z
Si Si1 0.809435 0.063137 0.726560
Si Si2 0.710280 0.307453 0.957922
Si Si3 0.122298 0.398308 0.826407
Si Si4 0.750000 0.250000 0.681308
Si Si5 0.961655 0.918360 0.044457
Si Si6 0.550895 0.657603 0.742190
Si Si7 0.610196 0.795939 0.047737
Si Si8 0.275305 0.307336 0.853326
O O1 0.679033 0.057198 0.696931
O O2 0.787898 0.105819 0.788172
O O3 0.897211 0.085870 0.665484
O O4 0.858012 0.008102 0.753726
O O5 0.750000 0.250000 0.979509
O O6 0.751974 0.318635 0.875766
O O7 0.761330 0.342375 0.024314
O O8 0.228736 0.432037 0.793113
O O9 0.160985 0.337999 0.828965
O O10 0.143059 0.411263 0.911636
O O11 0.714965 0.202577 0.735943
O O12 0.657022 0.276802 0.626050
O O13 0.827130 0.927747 0.017157
O O14 0.567423 0.596825 0.770443
O O15 0.638324 0.693674 0.786884
O O16 0.250000 0.250000 0.878399
#
# Coordination Sequence:
#
# PCOD9372487 Si02
#       8
#    16  16  16   8  16  16  16  16
#     4  12  25  44  78 104 140 191 253 311 374 453
#     4  12  27  50  70 107 154 198 241 310 394 446
#     4  11  24  47  70 101 150 195 241 310 379 451
#     4  12  24  42  70 112 138 190 246 306 378 450
#     4  12  25  45  72 107 148 187 249 316 371 451
#     4  11  22  46  72 103 149 188 247 320 372 447
#     4  11  24  41  75 103 140 193 249 305 381 451
#     4  11  24  44  73 109 139 193 253 304 374 455
#
# _framework density 22.249703
#
# number of rings (size 3 to 8) (size 9 to 14) (size 15 to 20)
#    0.000    0.533    6.000    2.400    2.800    2.667 
#    7.200    0.000    0.000    0.000    0.000    0.000 
#    0.000    0.000    0.000    0.000    0.000    0.000 
#
# Total GULP energy -167094.311087 kJ/mol
# GULP energy per Si atom -5569.810370 kJ/mol
# Density = 2.219906 g / cm^3
# Si number density = 22.249703 Si / 1000 Ang^3
#
#
#
# Elastic Constant Matrix: (Units=GPa)
#
#
# Indices 1 2 3 4 5 6 
#
# 1 57.3988 17.3694 32.5150 0.0000 0.0000 0.0000
# 2 17.3694 87.4837 27.0242 0.0000 0.0000 0.0000
# 3 32.5150 27.0242 120.8269 0.0000 0.0000 0.0000
# 4 0.0000 0.0000 0.0000 -52.2127 0.0000 0.0000
# 5 0.0000 0.0000 0.0000 0.0000 20.4612 0.0000
# 6 0.0000 0.0000 0.0000 0.0000 0.0000 19.6142
#
#
#
# Elastic Compliance Matrix: (Units=1/GPa)
#
#
# Indices 1 2 3 4 5 6 
#
# 1 0.021098 -0.002616 -0.005093 0.000000 0.000000 0.000000
# 2 -0.002616 0.012603 -0.002115 0.000000 0.000000 0.000000
# 3 -0.005093 -0.002115 0.010120 0.000000 0.000000 0.000000
# 4 0.000000 0.000000 0.000000 -0.019152 0.000000 0.000000
# 5 0.000000 0.000000 0.000000 0.000000 0.048873 0.000000
# 6 0.000000 0.000000 0.000000 0.000000 0.000000 0.050983
#
#
# Mechanical properties :
#
#
# Convention : Reuss Voigt Hill
#
# Bulk Modulus (GPa) = 41.36547 46.61408 43.98977
# Shear Modulus (GPa) = 32.84491 10.15926 21.50209
#
# Velocity S-wave (km/s) = 3.84630 2.13914 3.11207
# Velocity P-wave (km/s) = 6.19332 5.20549 5.72077
#
# Compressibility (1/GPa) = 0.02417475
#
# Stress axis : x y z
#
# Youngs Moduli (GPa) = 47.39707 79.34375 98.81655
#
# Poissons Ratio (x) = 0.20755 0.50323
# Poissons Ratio (y) = 0.12398 0.20899
# Poissons Ratio (z) = 0.24137 0.16781
#
# Static dielectric constant tensor:
#      x y z
#    x 1.917940 0.000000 0.000000 
#    y 0.000000 1.861900 0.000000 
#    z 0.000000 0.000000 1.871920 
# 
# From -- ./inp_files/13472.got.cif
#   From: 2010.05.17/outbox.cif.g08.bks.cpg/sg43_7_cif.got.tgz:13472.got - 2010.06.03 19:21:55.
