data_PCOD9372786
_publ_section_title
;
Structure prediction by ZEFSAII (Michael W. Deem and Ramdas Pophale) SiO2 
 PCOD9372786
Probable space group: F D D 2
;
_chemical_formula_sum "Si O2"
_cell_formula_units_Z 88
_cell_length_a 12.127927
_cell_length_b 28.697521
_cell_length_c 10.280070
_cell_angle_alpha 90.000000
_cell_angle_beta 90.000000
_cell_angle_gamma 90.000000
_cell_volume 3577.890364
_symmetry_space_group_name_H-M "F D D 2"
_symmetry_group_IT_number 43
_symmetry_cell_setting 'orthorhombic'
loop_
_space_group_symop_operation_xyz
x,y,z
-x,-y,z
1/4-x,1/4+y,1/4+z
1/4+x,1/4-y,1/4+z
x,1/2+y,1/2+z
-x,1/2-y,1/2+z
1/4-x,3/4+y,3/4+z
1/4+x,3/4-y,3/4+z
1/2+x,y,1/2+z
1/2-x,-y,1/2+z
3/4-x,1/4+y,3/4+z
3/4+x,1/4-y,3/4+z
1/2+x,1/2+y,z
1/2-x,1/2-y,z
3/4-x,3/4+y,1/4+z
3/4+x,3/4-y,1/4+z
loop_
_atom_site_type_symbol
_atom_site_label
_atom_site_fract_x
_atom_site_fract_y
_atom_site_fract_z
Si Si1 0.155213 0.082607 0.859650
Si Si2 0.686185 0.667289 0.027797
Si Si3 0.500000 0.500000 0.592065
Si Si4 0.176681 0.075515 0.319941
Si Si5 0.598946 0.226256 0.106626
Si Si6 0.539491 0.876003 0.825119
O O1 0.219313 0.034238 0.861734
O O2 0.187746 0.107550 0.721422
O O3 0.025678 0.079023 0.891750
O O4 0.203873 0.115985 0.969615
O O5 0.555771 0.673885 0.036149
O O6 0.742763 0.705055 0.932551
O O7 0.601221 0.489791 0.495644
O O8 0.169339 0.087038 0.474882
O O9 0.086370 0.113626 0.277693
O O10 0.134281 0.024221 0.279429
O O11 0.654036 0.177309 0.064894
#
# Coordination Sequence:
#
# PCOD9372786 Si02
#       6
#    16  16   8  16  16  16
#     4  12  22  43  70  98 136 192 241 287 366 440
#     4  12  24  42  66 104 144 187 236 308 367 436
#     4  12  22  44  70 102 132 186 250 292 352 446
#     4  12  26  42  69 104 146 185 241 306 373 431
#     4  12  23  42  73 102 130 188 255 288 354 447
#     4  12  22  46  70 100 143 191 237 302 364 440
#
# _framework density 24.595499
#
# number of rings (size 3 to 8) (size 9 to 14) (size 15 to 20)
#    0.000    0.000    7.273    3.273    0.000    0.000 
#    0.000    0.000    0.000    1.091    0.000    0.000 
#    0.000    0.000    0.000    0.000    0.000    0.000 
#
# Total GULP energy -122703.199089 kJ/mol
# GULP energy per Si atom -5577.418140 kJ/mol
# Density = 2.453952 g / cm^3
# Si number density = 24.595499 Si / 1000 Ang^3
#
#
#
# Elastic Constant Matrix: (Units=GPa)
#
#
# Indices 1 2 3 4 5 6 
#
# 1 146.1455 29.1365 8.1672 0.0000 0.0000 0.0000
# 2 29.1365 106.2396 4.1903 0.0000 0.0000 0.0000
# 3 8.1672 4.1903 12.9802 0.0000 0.0000 0.0000
# 4 0.0000 0.0000 0.0000 115.8318 0.0000 0.0000
# 5 0.0000 0.0000 0.0000 0.0000 26.2124 0.0000
# 6 0.0000 0.0000 0.0000 0.0000 0.0000 46.7566
#
#
#
# Elastic Compliance Matrix: (Units=1/GPa)
#
#
# Indices 1 2 3 4 5 6 
#
# 1 0.007445 -0.001881 -0.004077 0.000000 0.000000 0.000000
# 2 -0.001881 0.010009 -0.002048 0.000000 0.000000 0.000000
# 3 -0.004077 -0.002048 0.080267 0.000000 0.000000 0.000000
# 4 0.000000 0.000000 0.000000 0.008633 0.000000 0.000000
# 5 0.000000 0.000000 0.000000 0.000000 0.038150 0.000000
# 6 0.000000 0.000000 0.000000 0.000000 0.000000 0.021387
#
#
# Mechanical properties :
#
#
# Convention : Reuss Voigt Hill
#
# Bulk Modulus (GPa) = 12.23851 38.70592 25.47222
# Shear Modulus (GPa) = 23.90734 52.68492 38.29613
#
# Velocity S-wave (km/s) = 3.12111 4.63326 3.95021
# Velocity P-wave (km/s) = 4.23971 6.66287 5.58431
#
# Compressibility (1/GPa) = 0.08170928
#
# Stress axis : x y z
#
# Youngs Moduli (GPa) = 134.31141 99.90661 12.45844
#
# Poissons Ratio (x) = 0.18793 0.05080
# Poissons Ratio (y) = 0.25265 0.02551
# Poissons Ratio (z) = 0.54764 0.20458
#
# Static dielectric constant tensor:
#      x y z
#    x 2.200860 0.000000 0.000000 
#    y 0.000000 1.893320 0.000000 
#    z 0.000000 0.000000 2.034790 
# 
# From -- ./inp_files/5742.got.cif
#   From: 2010.05.17/outbox.cif.g08.bks.cpg/sg43_3_cif.got.tgz:5742.got - 2010.06.03 19:21:55.
