data_PCOD9372509
_publ_section_title
;
Structure prediction by ZEFSAII (Michael W. Deem and Ramdas Pophale) SiO2 
 PCOD9372509
Probable space group: F D D 2
;
_chemical_formula_sum "Si O2"
_cell_formula_units_Z 120
_cell_length_a 9.241998
_cell_length_b 22.113037
_cell_length_c 30.796174
_cell_angle_alpha 90.000000
_cell_angle_beta 90.000000
_cell_angle_gamma 90.000000
_cell_volume 6293.772312
_symmetry_space_group_name_H-M "F D D 2"
_symmetry_group_IT_number 43
_symmetry_cell_setting 'orthorhombic'
loop_
_space_group_symop_operation_xyz
x,y,z
-x,-y,z
1/4-x,1/4+y,1/4+z
1/4+x,1/4-y,1/4+z
x,1/2+y,1/2+z
-x,1/2-y,1/2+z
1/4-x,3/4+y,3/4+z
1/4+x,3/4-y,3/4+z
1/2+x,y,1/2+z
1/2-x,-y,1/2+z
3/4-x,1/4+y,3/4+z
3/4+x,1/4-y,3/4+z
1/2+x,1/2+y,z
1/2-x,1/2-y,z
3/4-x,3/4+y,1/4+z
3/4+x,3/4-y,1/4+z
loop_
_atom_site_type_symbol
_atom_site_label
_atom_site_fract_x
_atom_site_fract_y
_atom_site_fract_z
Si Si1 0.250000 0.750000 0.551240
Si Si2 0.192445 0.951886 0.728165
Si Si3 0.827453 0.494198 0.981217
Si Si4 0.232701 0.385932 0.929359
Si Si5 0.920075 0.239627 0.822473
Si Si6 0.737534 0.363294 0.614654
Si Si7 0.466455 0.305130 0.411052
Si Si8 0.943094 0.377788 0.695682
O O1 0.111737 0.737670 0.520180
O O2 0.264289 0.691901 0.581640
O O3 0.335242 0.910111 0.729933
O O4 0.061060 0.908293 0.713919
O O5 0.225430 0.998997 0.689522
O O6 0.771431 0.547111 0.949132
O O7 0.777766 0.428818 0.964745
O O8 0.000000 0.500000 0.983403
O O9 0.758315 0.502451 0.028498
O O10 0.330060 0.380477 0.886329
O O11 0.074437 0.360477 0.919565
O O12 0.750000 0.250000 0.814181
O O13 0.956499 0.173185 0.840756
O O14 0.963488 0.285348 0.861088
O O15 0.843396 0.354913 0.655949
O O16 0.307509 0.324036 0.427055
#
# Coordination Sequence:
#
# PCOD9372509 Si02
#       8
#     8  16  16  16  16  16  16  16
#     4  12  24  42  66 100 142 172 236 282 338 404
#     4  11  23  40  72  97 125 178 225 275 327 403
#     4  12  28  44  66 104 139 173 226 290 350 407
#     4  11  23  44  70  95 132 179 221 271 344 408
#     4  12  26  43  69 101 134 175 232 288 337 410
#     4  11  25  42  70  98 135 183 227 278 340 413
#     4  12  21  46  69  96 130 177 229 274 331 410
#     4  11  24  45  72  95 136 182 228 273 347 410
#
# _framework density 19.066466999999999
#
# number of rings (size 3 to 8) (size 9 to 14) (size 15 to 20)
#    0.000    0.533    6.667    2.000    7.467    0.000 
#    0.000    0.000    2.933    0.000    0.000    0.000 
#    0.000    0.000    0.000    0.000    0.000    0.000 
#
# Total GULP energy -167732.818134 kJ/mol
# GULP energy per Si atom -5591.093938 kJ/mol
# Density = 1.902307 g / cm^3
# Si number density = 19.066467 Si / 1000 Ang^3
#
#
#
# Elastic Constant Matrix: (Units=GPa)
#
#
# Indices 1 2 3 4 5 6 
#
# 1 118.2366 43.0929 39.7762 0.0000 0.0000 0.0000
# 2 43.0929 108.1810 49.2371 0.0000 0.0000 0.0000
# 3 39.7762 49.2371 68.4226 0.0000 0.0000 0.0000
# 4 0.0000 0.0000 0.0000 101.9855 0.0000 0.0000
# 5 0.0000 0.0000 0.0000 0.0000 23.5670 0.0000
# 6 0.0000 0.0000 0.0000 0.0000 0.0000 37.6537
#
#
#
# Elastic Compliance Matrix: (Units=1/GPa)
#
#
# Indices 1 2 3 4 5 6 
#
# 1 0.010842 -0.002156 -0.004751 0.000000 0.000000 0.000000
# 2 -0.002156 0.014175 -0.008947 0.000000 0.000000 0.000000
# 3 -0.004751 -0.008947 0.023815 0.000000 0.000000 0.000000
# 4 0.000000 0.000000 0.000000 0.009805 0.000000 0.000000
# 5 0.000000 0.000000 0.000000 0.000000 0.042432 0.000000
# 6 0.000000 0.000000 0.000000 0.000000 0.000000 0.026558
#
#
# Mechanical properties :
#
#
# Convention : Reuss Voigt Hill
#
# Bulk Modulus (GPa) = 58.39898 62.11696 60.25797
# Shear Modulus (GPa) = 30.29528 43.49018 36.89273
#
# Velocity S-wave (km/s) = 3.99046 4.78114 4.40358
# Velocity P-wave (km/s) = 7.20607 7.94537 7.58473
#
# Compressibility (1/GPa) = 0.01712359
#
# Stress axis : x y z
#
# Youngs Moduli (GPa) = 92.23550 70.54850 41.99063
#
# Poissons Ratio (x) = 0.15213 0.19949
# Poissons Ratio (y) = 0.19890 0.37567
# Poissons Ratio (z) = 0.43820 0.63116
#
# Static dielectric constant tensor:
#      x y z
#    x 1.656830 0.000000 0.000000 
#    y 0.000000 1.572820 0.000000 
#    z 0.000000 0.000000 1.639220 
# 
# From -- ./inp_files/28126.got.cif
#   From: 2010.05.17/outbox.cif.g08.bks.cpg/sg43_15_cif.got.tgz:28126.got - 2010.06.03 19:21:55.
