data_PCOD9372766
_publ_section_title
;
Structure prediction by ZEFSAII (Michael W. Deem and Ramdas Pophale) SiO2 
 PCOD9372766
Probable space group: F D D 2
;
_chemical_formula_sum "Si O2"
_cell_formula_units_Z 48
_cell_length_a 23.225436
_cell_length_b 4.482539
_cell_length_c 16.372508
_cell_angle_alpha 90.000000
_cell_angle_beta 90.000000
_cell_angle_gamma 90.000000
_cell_volume 1704.524169
_symmetry_space_group_name_H-M "F D D 2"
_symmetry_group_IT_number 43
_symmetry_cell_setting 'orthorhombic'
loop_
_space_group_symop_operation_xyz
x,y,z
-x,-y,z
1/4-x,1/4+y,1/4+z
1/4+x,1/4-y,1/4+z
x,1/2+y,1/2+z
-x,1/2-y,1/2+z
1/4-x,3/4+y,3/4+z
1/4+x,3/4-y,3/4+z
1/2+x,y,1/2+z
1/2-x,-y,1/2+z
3/4-x,1/4+y,3/4+z
3/4+x,1/4-y,3/4+z
1/2+x,1/2+y,z
1/2-x,1/2-y,z
3/4-x,3/4+y,1/4+z
3/4+x,3/4-y,1/4+z
loop_
_atom_site_type_symbol
_atom_site_label
_atom_site_fract_x
_atom_site_fract_y
_atom_site_fract_z
Si Si1 0.750000 0.750000 0.422271
Si Si2 0.750000 0.750000 0.155762
Si Si3 0.661055 0.150814 0.529361
Si Si4 0.176564 0.919237 0.290131
O O1 0.796565 0.540332 0.469643
O O2 0.782875 0.992193 0.366399
O O3 0.783970 0.973817 0.214728
O O4 0.700348 0.836669 0.091479
O O5 0.606085 0.368015 0.511675
O O6 0.626090 0.878864 0.566003
#
# Coordination Sequence:
#
# PCOD9372766 Si02
#       4
#     8   8  16  16
#     4  11  28  54  88 125 174 230 290 363 442 524
#     4  11  28  50  80 119 164 214 282 357 430 510
#     4  12  27  49  84 123 165 221 286 354 433 519
#     4  11  29  52  80 121 168 221 284 359 437 517
#
# _framework density 28.160352
#
# number of rings (size 3 to 8) (size 9 to 14) (size 15 to 20)
#    0.000    0.667    0.000    4.000    0.000   29.333 
#    0.000    3.333    0.000    8.000    0.000    0.000 
#    0.000    0.000    0.000    0.000    0.000    0.000 
#
# Total GULP energy -66883.290008 kJ/mol
# GULP energy per Si atom -5573.607501 kJ/mol
# Density = 2.809626 g / cm^3
# Si number density = 28.160352 Si / 1000 Ang^3
#
#
#
# Elastic Constant Matrix: (Units=GPa)
#
#
# Indices 1 2 3 4 5 6 
#
# 1 240.7289 110.5289 119.8666 0.0036 -0.0018 -0.0026
# 2 110.5289 185.8997 76.6187 0.0188 -0.0025 -0.0076
# 3 119.8666 76.6187 150.3433 0.0032 -0.0011 -0.0013
# 4 0.0036 0.0188 0.0032 -27.5283 -0.0024 -0.0035
# 5 -0.0018 -0.0025 -0.0011 -0.0024 26.1484 0.0031
# 6 -0.0026 -0.0076 -0.0013 -0.0035 0.0031 97.8690
#
#
#
# Elastic Compliance Matrix: (Units=1/GPa)
#
#
# Indices 1 2 3 4 5 6 
#
# 1 0.007781 -0.002620 -0.004869 -0.000001 0.000000 0.000000
# 2 -0.002620 0.007692 -0.001831 0.000005 0.000000 0.000001
# 3 -0.004869 -0.001831 0.011466 -0.000001 0.000000 0.000000
# 4 -0.000001 0.000005 -0.000001 -0.036326 -0.000003 -0.000001
# 5 0.000000 0.000000 0.000000 -0.000003 0.038243 -0.000001
# 6 0.000000 0.000001 0.000000 -0.000001 -0.000001 0.010218
#
#
# Mechanical properties :
#
#
# Convention : Reuss Voigt Hill
#
# Bulk Modulus (GPa) = 120.48301 132.33338 126.40819
# Shear Modulus (GPa) = 82.67242 37.29501 59.98371
#
# Velocity S-wave (km/s) = 5.42416 3.64315 4.62028
# Velocity P-wave (km/s) = 9.06124 8.04932 8.57023
#
# Compressibility (1/GPa) = 0.00829993
#
# Stress axis : x y z
#
# Youngs Moduli (GPa) = 128.51502 130.01292 87.21125
#
# Poissons Ratio (x) = 0.34060 0.42461
# Poissons Ratio (y) = 0.33668 0.15969
# Poissons Ratio (z) = 0.62571 0.23807
#
# Static dielectric constant tensor:
#      x y z
#    x 2.190320 0.000000 0.000000 
#    y 0.000000 2.444060 0.000000 
#    z 0.000000 0.000000 2.295150 
# 
# From -- ./inp_files/11354.got.cif
#   From: 2010.05.17/outbox.cif.g08.bks.cpg/sg43_6_cif.got.tgz:11354.got - 2010.06.03 19:21:55.
