data_PCOD9372964
_publ_section_title
;
Structure prediction by ZEFSAII (Michael W. Deem and Ramdas Pophale) SiO2 
 PCOD9372964
Probable space group: F D D 2
;
_chemical_formula_sum "Si O2"
_cell_formula_units_Z 28
_cell_length_a 15.000000
_cell_length_b 24.000000
_cell_length_c 15.000000
_cell_angle_alpha 90.000000
_cell_angle_beta 90.000000
_cell_angle_gamma 90.000000
_cell_volume 5400.000000
_symmetry_space_group_name_H-M "F D D 2"
_symmetry_group_IT_number 43
_symmetry_cell_setting 'orthorhombic'
loop_
_space_group_symop_operation_xyz
x,y,z
-x,-y,z
1/4-x,1/4+y,1/4+z
1/4+x,1/4-y,1/4+z
x,1/2+y,1/2+z
-x,1/2-y,1/2+z
1/4-x,3/4+y,3/4+z
1/4+x,3/4-y,3/4+z
1/2+x,y,1/2+z
1/2-x,-y,1/2+z
3/4-x,1/4+y,3/4+z
3/4+x,1/4-y,3/4+z
1/2+x,1/2+y,z
1/2-x,1/2-y,z
3/4-x,3/4+y,1/4+z
3/4+x,3/4-y,1/4+z
loop_
_atom_site_type_symbol
_atom_site_label
_atom_site_fract_x
_atom_site_fract_y
_atom_site_fract_z
Si Si1 0.000000 0.500000 0.640050
Si Si2 0.841658 0.468875 0.095759
Si Si3 0.951289 0.339710 0.752804
Si Si4 0.190678 0.131851 0.718896
Si Si5 0.180552 0.410734 0.138594
Si Si6 0.135301 0.856671 0.828780
Si Si7 0.250000 0.750000 0.214801
Si Si8 0.619617 0.909460 0.691976
O O1 0.949855 0.447914 0.592105
O O2 0.918698 0.528278 0.693036
O O3 0.747885 0.465856 0.040880
O O4 0.854212 0.413875 0.155122
O O5 0.837297 0.523893 0.155187
O O6 0.920842 0.476818 0.026330
O O7 0.907401 0.347450 0.656697
O O8 0.888620 0.356768 0.836677
O O9 0.040870 0.375372 0.737165
O O10 0.134858 0.142394 0.807962
O O11 0.210745 0.192650 0.673275
O O12 0.286370 0.102853 0.736862
O O13 0.281529 0.405094 0.101071
O O14 0.157330 0.378735 0.229941
#
# Coordination Sequence:
#
# PCOD9372964 Si02
#       8
#     8  16  16  16  16  16   8  16
#     4  10  22  42  74  90 142 180 234 306 350 418
#     4  10  22  43  67  97 141 180 223 302 352 420
#     4  10  20  39  70  92 137 175 230 290 349 416
#     4  10  22  41  67 100 139 186 228 293 357 422
#     4  11  26  42  69 101 147 186 243 289 361 442
#     4  11  23  45  66 104 134 193 238 293 362 436
#     4  10  20  40  70  94 136 174 226 290 348 426
#     4  10  20  39  70 100 133 184 227 294 361 415
#
# _framework density 5.1851849999999997
#
# number of rings (size 3 to 8) (size 9 to 14) (size 15 to 20)
#    0.000    1.714    1.429    3.429    4.000    0.000 
#    7.714   11.429    6.286    0.000    0.000    0.000 
#    0.000    0.000    0.000    0.000    0.000    0.000 
#
# Total GULP energy -155945.231121 kJ/mol
# GULP energy per Si atom -5569.472540 kJ/mol
# Density = 0.517338 g / cm^3
# Si number density = 5.185185 Si / 1000 Ang^3
#
#
#
# Elastic Constant Matrix: (Units=GPa)
#
#
# Indices 1 2 3 4 5 6 
#
# 1 98.9791 35.1579 45.4250 0.0000 0.0000 0.0000
# 2 35.1579 125.3855 45.4793 0.0000 0.0000 0.0000
# 3 45.4250 45.4793 103.9304 0.0000 0.0000 0.0000
# 4 0.0000 0.0000 0.0000 38.8445 0.0000 0.0000
# 5 0.0000 0.0000 0.0000 0.0000 37.0751 0.0000
# 6 0.0000 0.0000 0.0000 0.0000 0.0000 41.7421
#
#
#
# Elastic Compliance Matrix: (Units=1/GPa)
#
#
# Indices 1 2 3 4 5 6 
#
# 1 0.013002 -0.001883 -0.004859 0.000000 0.000000 0.000000
# 2 -0.001883 0.009753 -0.003445 0.000000 0.000000 0.000000
# 3 -0.004859 -0.003445 0.013253 0.000000 0.000000 0.000000
# 4 0.000000 0.000000 0.000000 0.025744 0.000000 0.000000
# 5 0.000000 0.000000 0.000000 0.000000 0.026972 0.000000
# 6 0.000000 0.000000 0.000000 0.000000 0.000000 0.023957
#
#
# Mechanical properties :
#
#
# Convention : Reuss Voigt Hill
#
# Bulk Modulus (GPa) = 63.96200 64.49104 64.22652
# Shear Modulus (GPa) = 36.16245 37.01450 36.58847
#
# Velocity S-wave (km/s) = 4.18011 4.22907 4.20466
# Velocity P-wave (km/s) = 7.36230 7.41674 7.38957
#
# Compressibility (1/GPa) = 0.01563428
#
# Stress axis : x y z
#
# Youngs Moduli (GPa) = 76.91166 102.53323 75.45614
#
# Poissons Ratio (x) = 0.19311 0.36661
# Poissons Ratio (y) = 0.14486 0.25992
# Poissons Ratio (z) = 0.37368 0.35319
#
# Static dielectric constant tensor:
#      x y z
#    x 1.798510 0.000000 0.000000 
#    y 0.000000 1.811900 0.000000 
#    z 0.000000 0.000000 1.752320 
# 
# From -- ./inp_files/10219.got.cif
#   From: 2010.05.17/outbox.ucp.g08.bks.cvg/sg43_6_cif.got.tgz:10219.got - 2010.06.11 16:31:01.
