data_PCOD9372098
_publ_section_title
;
Structure prediction by ZEFSAII (Michael W. Deem and Ramdas Pophale) SiO2 
 PCOD9372098
Probable space group: F D D 2
;
_chemical_formula_sum "Si O2"
_cell_formula_units_Z 112
_cell_length_a 22.917679
_cell_length_b 17.687198
_cell_length_c 12.754991
_cell_angle_alpha 90.000000
_cell_angle_beta 90.000000
_cell_angle_gamma 90.000000
_cell_volume 5170.229558
_symmetry_space_group_name_H-M "F D D 2"
_symmetry_group_IT_number 43
_symmetry_cell_setting 'orthorhombic'
loop_
_space_group_symop_operation_xyz
x,y,z
-x,-y,z
1/4-x,1/4+y,1/4+z
1/4+x,1/4-y,1/4+z
x,1/2+y,1/2+z
-x,1/2-y,1/2+z
1/4-x,3/4+y,3/4+z
1/4+x,3/4-y,3/4+z
1/2+x,y,1/2+z
1/2-x,-y,1/2+z
3/4-x,1/4+y,3/4+z
3/4+x,1/4-y,3/4+z
1/2+x,1/2+y,z
1/2-x,1/2-y,z
3/4-x,3/4+y,1/4+z
3/4+x,3/4-y,1/4+z
loop_
_atom_site_type_symbol
_atom_site_label
_atom_site_fract_x
_atom_site_fract_y
_atom_site_fract_z
Si Si1 0.149706 0.673425 0.033540
Si Si2 0.048047 0.151725 0.053387
Si Si3 0.000000 0.000000 0.956558
Si Si4 0.181152 0.658098 0.538850
Si Si5 0.775885 0.631889 0.536024
Si Si6 0.500000 0.500000 0.621732
Si Si7 0.848545 0.222325 0.202879
Si Si8 0.044202 0.258011 0.418412
O O1 0.218422 0.680880 0.015925
O O2 0.135299 0.696517 0.154142
O O3 0.143619 0.585988 0.000327
O O4 0.103967 0.722516 0.965397
O O5 0.113094 0.167624 0.010991
O O6 0.050500 0.151602 0.178732
O O7 0.027950 0.067651 0.021548
O O8 0.998508 0.206764 0.006257
O O9 0.950103 0.035886 0.882771
O O10 0.223799 0.683457 0.444596
O O11 0.191709 0.574370 0.585252
O O12 0.822545 0.680776 0.600158
O O13 0.762531 0.561679 0.612392
O O14 0.449344 0.476346 0.542840
#
# Coordination Sequence:
#
# PCOD9372098 Si02
#       8
#    16  16   8  16  16   8  16  16
#     4  11  23  44  68  97 142 180 227 301 338 416
#     4  11  24  43  73  97 139 181 229 292 351 418
#     4   9  24  45  64 106 126 177 240 271 350 426
#     4  10  24  45  68  94 141 179 226 290 348 422
#     4  11  24  41  71  98 137 179 235 282 353 414
#     4  11  24  47  66 102 138 181 226 283 358 426
#     4  11  24  44  68 103 136 181 236 281 352 420
#     4  10  25  44  64 110 131 180 244 279 354 427
#
# _framework density 21.662481
#
# number of rings (size 3 to 8) (size 9 to 14) (size 15 to 20)
#    0.000    1.429    1.429    1.714    8.000    5.714 
#    5.143    0.000    0.000    0.000    0.000    0.000 
#    0.000    0.000    0.000    0.000    0.000    0.000 
#
# Total GULP energy -156335.477255 kJ/mol
# GULP energy per Si atom -5583.409902 kJ/mol
# Density = 2.161318 g / cm^3
# Si number density = 21.662481 Si / 1000 Ang^3
#
#
#
# Elastic Constant Matrix: (Units=GPa)
#
#
# Indices 1 2 3 4 5 6 
#
# 1 100.7186 26.8154 22.0573 0.0000 0.0000 0.0000
# 2 26.8154 48.5461 12.1967 0.0000 0.0000 0.0000
# 3 22.0573 12.1967 98.3837 0.0000 0.0000 0.0000
# 4 0.0000 0.0000 0.0000 268.6816 0.0000 0.0000
# 5 0.0000 0.0000 0.0000 0.0000 27.2413 0.0000
# 6 0.0000 0.0000 0.0000 0.0000 0.0000 27.6049
#
#
#
# Elastic Compliance Matrix: (Units=1/GPa)
#
#
# Indices 1 2 3 4 5 6 
#
# 1 0.011984 -0.006136 -0.001926 0.000000 0.000000 0.000000
# 2 -0.006136 0.024403 -0.001650 0.000000 0.000000 0.000000
# 3 -0.001926 -0.001650 0.010801 0.000000 0.000000 0.000000
# 4 0.000000 0.000000 0.000000 0.003722 0.000000 0.000000
# 5 0.000000 0.000000 0.000000 0.000000 0.036709 0.000000
# 6 0.000000 0.000000 0.000000 0.000000 0.000000 0.036225
#
#
# Mechanical properties :
#
#
# Convention : Reuss Voigt Hill
#
# Bulk Modulus (GPa) = 36.01738 41.08746 38.55242
# Shear Modulus (GPa) = 32.78234 77.14416 54.96325
#
# Velocity S-wave (km/s) = 3.89437 5.97404 5.04258
# Velocity P-wave (km/s) = 6.07323 8.16051 7.19298
#
# Compressibility (1/GPa) = 0.02776438
#
# Stress axis : x y z
#
# Youngs Moduli (GPa) = 83.44422 40.97926 92.58724
#
# Poissons Ratio (x) = 0.25144 0.17834
# Poissons Ratio (y) = 0.51199 0.15273
# Poissons Ratio (z) = 0.16072 0.06760
#
# Static dielectric constant tensor:
#      x y z
#    x 1.684970 0.000000 0.000000 
#    y 0.000000 1.290490 0.000000 
#    z 0.000000 0.000000 1.793180 
# 
# From -- ./inp_files/7605.got.cif
#   From: 2010.05.17/outbox.cif.g08.bks.cpg/sg43_4_cif.got.tgz:7605.got - 2010.06.03 19:21:55.
