data_PCOD9372951
_publ_section_title
;
Structure prediction by ZEFSAII (Michael W. Deem and Ramdas Pophale) SiO2 
 PCOD9372951
Probable space group: F D D 2
;
_chemical_formula_sum "Si O2"
_cell_formula_units_Z 40
_cell_length_a 7.102900
_cell_length_b 11.271807
_cell_length_c 20.605394
_cell_angle_alpha 90.000000
_cell_angle_beta 90.000000
_cell_angle_gamma 90.000000
_cell_volume 1649.719727
_symmetry_space_group_name_H-M "F D D 2"
_symmetry_group_IT_number 43
_symmetry_cell_setting 'orthorhombic'
loop_
_space_group_symop_operation_xyz
x,y,z
-x,-y,z
1/4-x,1/4+y,1/4+z
1/4+x,1/4-y,1/4+z
x,1/2+y,1/2+z
-x,1/2-y,1/2+z
1/4-x,3/4+y,3/4+z
1/4+x,3/4-y,3/4+z
1/2+x,y,1/2+z
1/2-x,-y,1/2+z
3/4-x,1/4+y,3/4+z
3/4+x,1/4-y,3/4+z
1/2+x,1/2+y,z
1/2-x,1/2-y,z
3/4-x,3/4+y,1/4+z
3/4+x,3/4-y,1/4+z
loop_
_atom_site_type_symbol
_atom_site_label
_atom_site_fract_x
_atom_site_fract_y
_atom_site_fract_z
Si Si1 0.771645 0.989661 0.120560
Si Si2 0.915473 0.370998 0.500519
Si Si3 0.250000 0.250000 0.575553
O O1 0.659399 0.931579 0.178987
O O2 0.712442 0.126551 0.112136
O O3 0.760125 0.907381 0.055090
O O4 0.000000 0.000000 0.133850
O O5 0.000000 0.500000 0.488703
O O6 0.067516 0.285595 0.534312
#
# Coordination Sequence:
#
# PCOD9372951 Si02
#       3
#    16  16   8
#     4   9  17  31  55  76 107 142 178 223 272 319
#     4   9  17  31  55  77 107 143 178 224 274 318
#     4   8  16  30  50  80 104 140 182 218 270 328
#
# _framework density 24.246541000000001
#
# number of rings (size 3 to 8) (size 9 to 14) (size 15 to 20)
#    0.000    4.000    2.000    0.000    0.000    0.000 
#    0.000    4.000    0.000    0.000    0.000    0.000 
#    0.000    0.000    0.000    0.000    0.000    0.000 
#
# Total GULP energy -55685.720861 kJ/mol
# GULP energy per Si atom -5568.572086 kJ/mol
# Density = 2.419135 g / cm^3
# Si number density = 24.246541 Si / 1000 Ang^3
#
#
#
# Elastic Constant Matrix: (Units=GPa)
#
#
# Indices 1 2 3 4 5 6 
#
# 1 85.9388 78.3986 41.5429 0.0000 0.0000 0.0000
# 2 78.3986 226.6855 118.6261 0.0000 0.0000 0.0000
# 3 41.5429 118.6261 221.5119 0.0000 0.0000 0.0000
# 4 0.0000 0.0000 0.0000 29.6186 0.0000 0.0000
# 5 0.0000 0.0000 0.0000 0.0000 59.2628 0.0000
# 6 0.0000 0.0000 0.0000 0.0000 0.0000 38.5303
#
#
#
# Elastic Compliance Matrix: (Units=1/GPa)
#
#
# Indices 1 2 3 4 5 6 
#
# 1 0.017000 -0.005851 -0.000055 0.000000 0.000000 0.000000
# 2 -0.005851 0.008143 -0.003263 0.000000 0.000000 0.000000
# 3 -0.000055 -0.003263 0.006272 0.000000 0.000000 0.000000
# 4 0.000000 0.000000 0.000000 0.033763 0.000000 0.000000
# 5 0.000000 0.000000 0.000000 0.000000 0.016874 0.000000
# 6 0.000000 0.000000 0.000000 0.000000 0.000000 0.025954
#
#
# Mechanical properties :
#
#
# Convention : Reuss Voigt Hill
#
# Bulk Modulus (GPa) = 76.47026 112.36350 94.41688
# Shear Modulus (GPa) = 38.25490 45.18691 41.72090
#
# Velocity S-wave (km/s) = 3.97640 4.32168 4.15263
# Velocity P-wave (km/s) = 7.25875 8.44661 7.87511
#
# Compressibility (1/GPa) = 0.01307698
#
# Stress axis : x y z
#
# Youngs Moduli (GPa) = 58.82315 122.81158 159.42948
#
# Poissons Ratio (x) = 0.71853 0.00878
# Poissons Ratio (y) = 0.34415 0.52027
# Poissons Ratio (z) = 0.00324 0.40078
#
# Static dielectric constant tensor:
#      x y z
#    x 2.012750 0.000000 0.000000 
#    y 0.000000 2.687320 0.000000 
#    z 0.000000 0.000000 2.017670 
# 
# From -- ./inp_files/15865.got.cif
#   From: 2010.05.17/outbox.cif.g08.bks.cpg/sg43_8_cif.got.tgz:15865.got - 2010.06.03 19:21:55.
