data_PCOD9372031
_publ_section_title
;
Structure prediction by ZEFSAII (Michael W. Deem and Ramdas Pophale) SiO2 
 PCOD9372031
Probable space group: F D D 2
;
_chemical_formula_sum "Si O2"
_cell_formula_units_Z 96
_cell_length_a 14.174686
_cell_length_b 19.625647
_cell_length_c 14.959550
_cell_angle_alpha 90.000000
_cell_angle_beta 90.000000
_cell_angle_gamma 90.000000
_cell_volume 4161.558077
_symmetry_space_group_name_H-M "F D D 2"
_symmetry_group_IT_number 43
_symmetry_cell_setting 'orthorhombic'
loop_
_space_group_symop_operation_xyz
x,y,z
-x,-y,z
1/4-x,1/4+y,1/4+z
1/4+x,1/4-y,1/4+z
x,1/2+y,1/2+z
-x,1/2-y,1/2+z
1/4-x,3/4+y,3/4+z
1/4+x,3/4-y,3/4+z
1/2+x,y,1/2+z
1/2-x,-y,1/2+z
3/4-x,1/4+y,3/4+z
3/4+x,1/4-y,3/4+z
1/2+x,1/2+y,z
1/2-x,1/2-y,z
3/4-x,3/4+y,1/4+z
3/4+x,3/4-y,1/4+z
loop_
_atom_site_type_symbol
_atom_site_label
_atom_site_fract_x
_atom_site_fract_y
_atom_site_fract_z
Si Si1 0.053594 0.743897 0.253100
Si Si2 0.000000 0.000000 0.591611
Si Si3 0.710787 0.342336 0.814272
Si Si4 0.750000 0.250000 0.660074
Si Si5 0.396558 0.771558 0.890067
Si Si6 0.289475 0.665795 0.510417
Si Si7 0.268335 0.500379 0.801199
O O1 0.159955 0.762447 0.279597
O O2 0.050235 0.663286 0.268139
O O3 0.016431 0.753753 0.153189
O O4 0.983889 0.779730 0.322845
O O5 0.998667 0.061867 0.664250
O O6 0.688154 0.293781 0.728394
O O7 0.639823 0.307239 0.884286
O O8 0.812563 0.320495 0.856039
O O9 0.713912 0.419406 0.781402
O O10 0.778762 0.307905 0.589898
O O11 0.436096 0.780394 0.989108
O O12 0.389255 0.704188 0.530044
#
# Coordination Sequence:
#
# PCOD9372031 Si02
#       7
#    16   8  16   8  16  16  16
#     4  12  26  45  69 103 148 190 239 293 372 431
#     4  11  26  44  63 106 140 184 233 298 347 436
#     4  10  24  42  70 106 142 173 254 295 362 423
#     4   9  20  40  71 100 130 174 229 320 333 398
#     4  10  24  46  67 105 138 188 239 310 347 443
#     4  11  24  42  72 102 139 185 241 294 359 419
#     4  12  25  42  76 102 142 201 231 300 367 443
#
# _framework density 23.068282
#
# number of rings (size 3 to 8) (size 9 to 14) (size 15 to 20)
#    0.000    1.333    1.667    4.000    9.333    4.000 
#    0.000    0.000    0.000    0.000    0.000    0.000 
#    0.000    0.000    0.000    0.000    0.000    0.000 
#
# Total GULP energy -133905.877608 kJ/mol
# GULP energy per Si atom -5579.411567 kJ/mol
# Density = 2.301578 g / cm^3
# Si number density = 23.068282 Si / 1000 Ang^3
#
#
#
# Elastic Constant Matrix: (Units=GPa)
#
#
# Indices 1 2 3 4 5 6 
#
# 1 129.9688 -8.9317 24.9351 0.0000 0.0000 0.0000
# 2 -8.9317 62.4242 -6.8273 0.0000 0.0000 0.0000
# 3 24.9351 -6.8273 111.3892 0.0000 0.0000 0.0000
# 4 0.0000 0.0000 0.0000 4.8426 0.0000 0.0000
# 5 0.0000 0.0000 0.0000 0.0000 -53.2857 0.0000
# 6 0.0000 0.0000 0.0000 0.0000 0.0000 18.5501
#
#
#
# Elastic Compliance Matrix: (Units=1/GPa)
#
#
# Indices 1 2 3 4 5 6 
#
# 1 0.008097 0.000967 -0.001753 0.000000 0.000000 0.000000
# 2 0.000967 0.016243 0.000779 0.000000 0.000000 0.000000
# 3 -0.001753 0.000779 0.009418 0.000000 0.000000 0.000000
# 4 0.000000 0.000000 0.000000 0.206502 0.000000 0.000000
# 5 0.000000 0.000000 0.000000 0.000000 -0.018767 0.000000
# 6 0.000000 0.000000 0.000000 0.000000 0.000000 0.053908
#
#
# Mechanical properties :
#
#
# Convention : Reuss Voigt Hill
#
# Bulk Modulus (GPa) = 29.63584 35.79272 32.71428
# Shear Modulus (GPa) = 17.44204 13.66181 15.55192
#
# Velocity S-wave (km/s) = 2.75272 2.43622 2.59929
# Velocity P-wave (km/s) = 4.79356 4.84389 4.81879
#
# Compressibility (1/GPa) = 0.03374293
#
# Stress axis : x y z
#
# Youngs Moduli (GPa) = 123.50303 61.56512 106.18229
#
# Poissons Ratio (x) = -0.05952 0.18617
# Poissons Ratio (y) = -0.11940 -0.08273
# Poissons Ratio (z) = 0.21654 -0.04797
#
# Static dielectric constant tensor:
#      x y z
#    x 1.970670 0.000000 0.000000 
#    y 0.000000 1.878080 0.000000 
#    z 0.000000 0.000000 1.872660 
# 
# From -- ./inp_files/10104.got.cif
#   From: 2010.05.17/outbox.cif.g08.bks.cpg/sg43_6_cif.got.tgz:10104.got - 2010.06.03 19:21:55.
