data_PCOD9372878
_publ_section_title
;
Structure prediction by ZEFSAII (Michael W. Deem and Ramdas Pophale) SiO2 
 PCOD9372878
Probable space group: F D D 2
;
_chemical_formula_sum "Si O2"
_cell_formula_units_Z 96
_cell_length_a 11.546937
_cell_length_b 14.658609
_cell_length_c 22.259389
_cell_angle_alpha 90.000000
_cell_angle_beta 90.000000
_cell_angle_gamma 90.000000
_cell_volume 3767.669472
_symmetry_space_group_name_H-M "F D D 2"
_symmetry_group_IT_number 43
_symmetry_cell_setting 'orthorhombic'
loop_
_space_group_symop_operation_xyz
x,y,z
-x,-y,z
1/4-x,1/4+y,1/4+z
1/4+x,1/4-y,1/4+z
x,1/2+y,1/2+z
-x,1/2-y,1/2+z
1/4-x,3/4+y,3/4+z
1/4+x,3/4-y,3/4+z
1/2+x,y,1/2+z
1/2-x,-y,1/2+z
3/4-x,1/4+y,3/4+z
3/4+x,1/4-y,3/4+z
1/2+x,1/2+y,z
1/2-x,1/2-y,z
3/4-x,3/4+y,1/4+z
3/4+x,3/4-y,1/4+z
loop_
_atom_site_type_symbol
_atom_site_label
_atom_site_fract_x
_atom_site_fract_y
_atom_site_fract_z
Si Si1 0.362105 0.983201 0.911750
Si Si2 0.158912 0.670192 0.837186
Si Si3 0.631060 0.863900 0.007181
Si Si4 0.393231 0.329756 0.199846
Si Si5 0.528712 0.741748 0.915561
Si Si6 0.500000 0.000000 0.351724
Si Si7 0.750000 0.750000 0.831232
O O1 0.325886 0.939894 0.846511
O O2 0.450879 0.813776 0.879714
O O3 0.500000 0.000000 0.910654
O O4 0.324613 0.072852 0.951594
O O5 0.250000 0.750000 0.854589
O O6 0.134392 0.691822 0.768058
O O7 0.218201 0.591640 0.947243
O O8 0.725546 0.835154 0.057026
O O9 0.521538 0.915400 0.036805
O O10 0.581660 0.773408 0.978029
O O11 0.307449 0.409473 0.179093
O O12 0.357502 0.256709 0.148206
O O13 0.639583 0.737405 0.872858
#
# Coordination Sequence:
#
# PCOD9372878 Si02
#       7
#    16  16  16  16  16   8   8
#     4  12  27  53  82 120 163 225 287 354 435 513
#     4  12  26  52  80 119 175 220 289 355 441 517
#     4  12  27  49  83 122 172 223 292 350 431 524
#     4  12  29  50  81 120 172 223 283 353 435 522
#     4  12  27  49  81 120 163 231 278 369 426 501
#     4  12  29  50  82 126 172 227 282 354 438 522
#     4  12  25  50  78 116 168 211 296 342 426 524
#
# _framework density 25.479942999999999
#
# number of rings (size 3 to 8) (size 9 to 14) (size 15 to 20)
#    0.000    0.000    6.667    1.500    4.667    1.333 
#    6.000    0.000    0.000    0.000    0.000    0.000 
#    0.000    0.000    0.000    0.000    0.000    0.000 
#
# Total GULP energy -133649.458615 kJ/mol
# GULP energy per Si atom -5568.727442 kJ/mol
# Density = 2.542195 g / cm^3
# Si number density = 25.479943 Si / 1000 Ang^3
#
#
#
# Elastic Constant Matrix: (Units=GPa)
#
#
# Indices 1 2 3 4 5 6 
#
# 1 157.3205 52.8639 56.0142 0.0000 0.0000 0.0000
# 2 52.8639 89.6756 39.8552 0.0000 0.0000 0.0000
# 3 56.0142 39.8552 116.6759 0.0000 0.0000 0.0000
# 4 0.0000 0.0000 0.0000 104.0145 0.0000 0.0000
# 5 0.0000 0.0000 0.0000 0.0000 257.9298 0.0000
# 6 0.0000 0.0000 0.0000 0.0000 0.0000 49.3695
#
#
#
# Elastic Compliance Matrix: (Units=1/GPa)
#
#
# Indices 1 2 3 4 5 6 
#
# 1 0.008660 -0.003840 -0.002846 0.000000 0.000000 0.000000
# 2 -0.003840 0.014850 -0.003229 0.000000 0.000000 0.000000
# 3 -0.002846 -0.003229 0.011040 0.000000 0.000000 0.000000
# 4 0.000000 0.000000 0.000000 0.009614 0.000000 0.000000
# 5 0.000000 0.000000 0.000000 0.000000 0.003877 0.000000
# 6 0.000000 0.000000 0.000000 0.000000 0.000000 0.020255
#
#
# Mechanical properties :
#
#
# Convention : Reuss Voigt Hill
#
# Bulk Modulus (GPa) = 67.93432 73.45986 70.69709
# Shear Modulus (GPa) = 53.74380 96.59199 75.16790
#
# Velocity S-wave (km/s) = 4.59765 6.16371 5.43736
# Velocity P-wave (km/s) = 7.40974 8.91898 8.19916
#
# Compressibility (1/GPa) = 0.01472010
#
# Stress axis : x y z
#
# Youngs Moduli (GPa) = 115.47114 67.33858 90.58014
#
# Poissons Ratio (x) = 0.25861 0.25777
# Poissons Ratio (y) = 0.44346 0.29248
# Poissons Ratio (z) = 0.32860 0.21744
#
# Static dielectric constant tensor:
#      x y z
#    x 1.012070 0.000000 0.000000 
#    y 0.000000 0.980210 0.000000 
#    z 0.000000 0.000000 2.038140 
# 
# From -- ./inp_files/17595.got.cif
#   From: 2010.05.17/outbox.cif.g08.bks.cpg/sg43_9_cif.got.tgz:17595.got - 2010.06.03 19:21:55.
