data_PCOD9372171
_publ_section_title
;
Structure prediction by ZEFSAII (Michael W. Deem and Ramdas Pophale) SiO2 
 PCOD9372171
Probable space group: F D D 2
;
_chemical_formula_sum "Si O2"
_cell_formula_units_Z 72
_cell_length_a 8.713680
_cell_length_b 18.565862
_cell_length_c 17.557463
_cell_angle_alpha 90.000000
_cell_angle_beta 90.000000
_cell_angle_gamma 90.000000
_cell_volume 2840.393347
_symmetry_space_group_name_H-M "F D D 2"
_symmetry_group_IT_number 43
_symmetry_cell_setting 'orthorhombic'
loop_
_space_group_symop_operation_xyz
x,y,z
-x,-y,z
1/4-x,1/4+y,1/4+z
1/4+x,1/4-y,1/4+z
x,1/2+y,1/2+z
-x,1/2-y,1/2+z
1/4-x,3/4+y,3/4+z
1/4+x,3/4-y,3/4+z
1/2+x,y,1/2+z
1/2-x,-y,1/2+z
3/4-x,1/4+y,3/4+z
3/4+x,1/4-y,3/4+z
1/2+x,1/2+y,z
1/2-x,1/2-y,z
3/4-x,3/4+y,1/4+z
3/4+x,3/4-y,1/4+z
loop_
_atom_site_type_symbol
_atom_site_label
_atom_site_fract_x
_atom_site_fract_y
_atom_site_fract_z
Si Si1 0.250000 0.750000 0.822980
Si Si2 0.672566 0.994179 0.990051
Si Si3 0.409799 0.218682 0.014268
Si Si4 0.414758 0.881814 0.122520
Si Si5 0.835459 0.906465 0.343674
O O1 0.415256 0.751507 0.781213
O O2 0.251020 0.669036 0.856524
O O3 0.500000 0.000000 0.029121
O O4 0.663318 0.053730 0.924305
O O5 0.689121 0.921431 0.943056
O O6 0.250000 0.250000 0.044324
O O7 0.456084 0.148362 0.064216
O O8 0.522691 0.285849 0.032413
O O9 0.385912 0.201191 0.924329
O O10 0.262231 0.860429 0.076783
#
# Coordination Sequence:
#
# PCOD9372171 Si02
#       5
#     8  16  16  16  16
#     4  12  24  44  76 104 142 206 262 320 398 496
#     4   9  22  45  65  99 150 188 249 326 394 468
#     4  11  24  50  76 111 158 210 273 337 420 504
#     4  10  24  48  75 107 156 207 257 349 416 490
#     4  10  25  45  69 109 148 200 262 335 395 496
#
# _framework density 25.348602
#
# number of rings (size 3 to 8) (size 9 to 14) (size 15 to 20)
#    0.000    1.778    0.000    3.333   12.444    1.778 
#    8.000    0.000    0.000    0.000    0.000    0.000 
#    0.000    0.000    0.000    0.000    0.000    0.000 
#
# Total GULP energy -100248.720607 kJ/mol
# GULP energy per Si atom -5569.373367 kJ/mol
# Density = 2.529091 g / cm^3
# Si number density = 25.348602 Si / 1000 Ang^3
#
#
#
# Elastic Constant Matrix: (Units=GPa)
#
#
# Indices 1 2 3 4 5 6 
#
# 1 163.1584 20.2009 62.9827 0.0000 0.0000 0.0000
# 2 20.2009 110.7848 51.6559 0.0000 0.0000 0.0000
# 3 62.9827 51.6559 121.8925 0.0000 0.0000 0.0000
# 4 0.0000 0.0000 0.0000 -25.5036 0.0000 0.0000
# 5 0.0000 0.0000 0.0000 0.0000 68.6871 0.0000
# 6 0.0000 0.0000 0.0000 0.0000 0.0000 36.5710
#
#
#
# Elastic Compliance Matrix: (Units=1/GPa)
#
#
# Indices 1 2 3 4 5 6 
#
# 1 0.007684 0.000561 -0.004208 0.000000 0.000000 0.000000
# 2 0.000561 0.011290 -0.005075 0.000000 0.000000 0.000000
# 3 -0.004208 -0.005075 0.012529 0.000000 0.000000 0.000000
# 4 0.000000 0.000000 0.000000 -0.039210 0.000000 0.000000
# 5 0.000000 0.000000 0.000000 0.000000 0.014559 0.000000
# 6 0.000000 0.000000 0.000000 0.000000 0.000000 0.027344
#
#
# Mechanical properties :
#
#
# Convention : Reuss Voigt Hill
#
# Bulk Modulus (GPa) = 71.12449 73.94609 72.53529
# Shear Modulus (GPa) = 88.76940 33.35062 61.06001
#
# Velocity S-wave (km/s) = 5.92414 3.63116 4.91329
# Velocity P-wave (km/s) = 8.65525 6.84218 7.80157
#
# Compressibility (1/GPa) = 0.01405986
#
# Stress axis : x y z
#
# Youngs Moduli (GPa) = 130.14096 88.57144 79.81617
#
# Poissons Ratio (x) = -0.04969 0.33587
# Poissons Ratio (y) = -0.07301 0.40503
# Poissons Ratio (z) = 0.54765 0.44946
#
# Static dielectric constant tensor:
#      x y z
#    x 1.987640 0.000000 0.000000 
#    y 0.000000 2.357130 0.000000 
#    z 0.000000 0.000000 1.982350 
# 
# From -- ./inp_files/16172.got.cif
#   From: 2010.05.17/outbox.cif.g08.bks.cpg/sg43_9_cif.got.tgz:16172.got - 2010.06.03 19:21:55.
