data_PCOD9372082
_publ_section_title
;
Structure prediction by ZEFSAII (Michael W. Deem and Ramdas Pophale) SiO2 
 PCOD9372082
Probable space group: F D D 2
;
_chemical_formula_sum "Si O2"
_cell_formula_units_Z 96
_cell_length_a 11.392344
_cell_length_b 20.473612
_cell_length_c 17.630537
_cell_angle_alpha 90.000000
_cell_angle_beta 90.000000
_cell_angle_gamma 90.000000
_cell_volume 4112.189307
_symmetry_space_group_name_H-M "F D D 2"
_symmetry_group_IT_number 43
_symmetry_cell_setting 'orthorhombic'
loop_
_space_group_symop_operation_xyz
x,y,z
-x,-y,z
1/4-x,1/4+y,1/4+z
1/4+x,1/4-y,1/4+z
x,1/2+y,1/2+z
-x,1/2-y,1/2+z
1/4-x,3/4+y,3/4+z
1/4+x,3/4-y,3/4+z
1/2+x,y,1/2+z
1/2-x,-y,1/2+z
3/4-x,1/4+y,3/4+z
3/4+x,1/4-y,3/4+z
1/2+x,1/2+y,z
1/2-x,1/2-y,z
3/4-x,3/4+y,1/4+z
3/4+x,3/4-y,1/4+z
loop_
_atom_site_type_symbol
_atom_site_label
_atom_site_fract_x
_atom_site_fract_y
_atom_site_fract_z
Si Si1 0.835393 0.081194 0.290240
Si Si2 0.675449 0.881142 0.497090
Si Si3 0.278229 0.513129 0.436537
Si Si4 0.925276 0.732800 0.406313
Si Si5 0.813860 0.194076 0.751757
Si Si6 0.336515 0.802448 0.333804
O O1 0.733896 0.133141 0.309641
O O2 0.962387 0.116231 0.299647
O O3 0.827152 0.024899 0.353503
O O4 0.816923 0.047814 0.207332
O O5 0.720820 0.941882 0.446506
O O6 0.660134 0.815809 0.449636
O O7 0.539872 0.894672 0.522684
O O8 0.181565 0.570440 0.455710
O O9 0.370447 0.521275 0.503998
O O10 0.867876 0.734533 0.322970
O O11 0.049009 0.697085 0.387796
O O12 0.750000 0.250000 0.702455
O O13 0.250000 0.750000 0.370841
#
# Coordination Sequence:
#
# PCOD9372082 Si02
#       6
#    16  16  16  16  16  16
#     4  12  26  45  74 113 142 198 262 306 375 462
#     4  11  23  44  70 107 150 192 248 312 371 452
#     4  10  24  44  71 106 146 193 243 311 379 445
#     4  11  26  45  70 109 143 194 249 311 372 450
#     4   9  20  42  68  94 141 193 232 298 373 430
#     4  11  25  49  71 104 152 196 241 317 385 439
#
# _framework density 23.345229
#
# number of rings (size 3 to 8) (size 9 to 14) (size 15 to 20)
#    0.000    1.333    1.667    2.500    4.667    2.667 
#    0.000    2.500    0.000    0.000    0.000    0.000 
#    0.000    0.000    0.000    0.000    0.000    0.000 
#
# Total GULP energy -133691.505468 kJ/mol
# GULP energy per Si atom -5570.479394 kJ/mol
# Density = 2.329209 g / cm^3
# Si number density = 23.345229 Si / 1000 Ang^3
#
#
#
# Elastic Constant Matrix: (Units=GPa)
#
#
# Indices 1 2 3 4 5 6 
#
# 1 148.7191 29.4011 27.5057 0.0000 0.0000 0.0000
# 2 29.4011 85.8423 17.0149 0.0000 0.0000 0.0000
# 3 27.5057 17.0149 80.0895 0.0000 0.0000 0.0000
# 4 0.0000 0.0000 0.0000 29.8317 0.0000 0.0000
# 5 0.0000 0.0000 0.0000 0.0000 17.5174 0.0000
# 6 0.0000 0.0000 0.0000 0.0000 0.0000 40.2986
#
#
#
# Elastic Compliance Matrix: (Units=1/GPa)
#
#
# Indices 1 2 3 4 5 6 
#
# 1 0.007546 -0.002162 -0.002132 0.000000 0.000000 0.000000
# 2 -0.002162 0.012781 -0.001973 0.000000 0.000000 0.000000
# 3 -0.002132 -0.001973 0.013637 0.000000 0.000000 0.000000
# 4 0.000000 0.000000 0.000000 0.033521 0.000000 0.000000
# 5 0.000000 0.000000 0.000000 0.000000 0.057086 0.000000
# 6 0.000000 0.000000 0.000000 0.000000 0.000000 0.024815
#
#
# Mechanical properties :
#
#
# Convention : Reuss Voigt Hill
#
# Bulk Modulus (GPa) = 46.66296 51.38827 49.02562
# Shear Modulus (GPa) = 29.57470 33.57816 31.57643
#
# Velocity S-wave (km/s) = 3.56313 3.79665 3.68174
# Velocity P-wave (km/s) = 6.07943 6.42491 6.25456
#
# Compressibility (1/GPa) = 0.02143027
#
# Stress axis : x y z
#
# Youngs Moduli (GPa) = 132.52352 78.24287 73.32751
#
# Poissons Ratio (x) = 0.16915 0.15635
# Poissons Ratio (y) = 0.28649 0.14466
# Poissons Ratio (z) = 0.28257 0.15436
#
# Static dielectric constant tensor:
#      x y z
#    x 1.942920 0.000000 0.000000 
#    y 0.000000 1.983810 0.000000 
#    z 0.000000 0.000000 1.876920 
# 
# From -- ./inp_files/17135.got.cif
#   From: 2010.05.17/outbox.cif.g08.bks.cpg/sg43_9_cif.got.tgz:17135.got - 2010.06.03 19:21:55.
