data_PCOD9372262
_publ_section_title
;
Structure prediction by ZEFSAII (Michael W. Deem and Ramdas Pophale) SiO2 
 PCOD9372262
Probable space group: F D D 2
;
_chemical_formula_sum "Si O2"
_cell_formula_units_Z 72
_cell_length_a 28.050595
_cell_length_b 21.624179
_cell_length_c 4.870773
_cell_angle_alpha 90.000000
_cell_angle_beta 90.000000
_cell_angle_gamma 90.000000
_cell_volume 2954.470075
_symmetry_space_group_name_H-M "F D D 2"
_symmetry_group_IT_number 43
_symmetry_cell_setting 'orthorhombic'
loop_
_space_group_symop_operation_xyz
x,y,z
-x,-y,z
1/4-x,1/4+y,1/4+z
1/4+x,1/4-y,1/4+z
x,1/2+y,1/2+z
-x,1/2-y,1/2+z
1/4-x,3/4+y,3/4+z
1/4+x,3/4-y,3/4+z
1/2+x,y,1/2+z
1/2-x,-y,1/2+z
3/4-x,1/4+y,3/4+z
3/4+x,1/4-y,3/4+z
1/2+x,1/2+y,z
1/2-x,1/2-y,z
3/4-x,3/4+y,1/4+z
3/4+x,3/4-y,1/4+z
loop_
_atom_site_type_symbol
_atom_site_label
_atom_site_fract_x
_atom_site_fract_y
_atom_site_fract_z
Si Si1 0.841351 0.704315 0.376060
Si Si2 0.346582 0.964296 0.143566
Si Si3 0.962902 0.827510 0.123751
Si Si4 0.730694 0.114934 0.376722
Si Si5 0.250000 0.750000 0.177761
O O1 0.886134 0.712903 0.581454
O O2 0.824858 0.633232 0.366458
O O3 0.796592 0.741588 0.490431
O O4 0.856005 0.723710 0.073119
O O5 0.320851 0.902363 0.256356
O O6 0.311096 0.017983 0.241668
O O7 0.008290 0.845368 0.935998
O O8 0.982161 0.826743 0.433360
O O9 0.743266 0.186737 0.343822
#
# Coordination Sequence:
#
# PCOD9372262 Si02
#       5
#    16  16  16  16   8
#     4  11  26  42  68 104 134 185 228 291 339 421
#     4  12  25  42  73 101 139 177 238 289 346 406
#     4  11  24  45  67  99 142 174 237 278 355 415
#     4  11  24  44  71 100 137 188 221 287 350 425
#     4  10  26  46  70  96 148 180 232 272 368 406
#
# _framework density 24.369852999999999
#
# number of rings (size 3 to 8) (size 9 to 14) (size 15 to 20)
#    0.000    0.889    0.000    6.667    6.222    8.000 
#    0.000    0.000    0.000    0.000    0.000    0.000 
#    0.000    0.000    0.000    0.000    0.000    0.000 
#
# Total GULP energy -100866.405265 kJ/mol
# GULP energy per Si atom -5603.689181 kJ/mol
# Density = 2.431439 g / cm^3
# Si number density = 24.369853 Si / 1000 Ang^3
#
#
#
# Elastic Constant Matrix: (Units=GPa)
#
#
# Indices 1 2 3 4 5 6 
#
# 1 84.7572 30.0977 2.2549 0.0022 -0.0001 -0.0014
# 2 30.0977 84.6303 7.1252 0.0239 -0.0089 0.0015
# 3 2.2549 7.1252 93.0628 0.1211 -0.0436 -0.0305
# 4 0.0022 0.0239 0.1211 22.1097 -0.0262 -0.0103
# 5 -0.0001 -0.0089 -0.0436 -0.0262 43.0064 0.0059
# 6 -0.0014 0.0015 -0.0305 -0.0103 0.0059 39.8139
#
#
#
# Elastic Compliance Matrix: (Units=1/GPa)
#
#
# Indices 1 2 3 4 5 6 
#
# 1 0.013504 -0.004806 0.000041 0.000004 -0.000001 0.000001
# 2 -0.004806 0.013603 -0.000925 -0.000009 0.000002 -0.000001
# 3 0.000041 -0.000925 0.010815 -0.000058 0.000011 0.000008
# 4 0.000004 -0.000009 -0.000058 0.045229 0.000028 0.000012
# 5 -0.000001 0.000002 0.000011 0.000028 0.023252 -0.000003
# 6 0.000001 -0.000001 0.000008 0.000012 -0.000003 0.025117
#
#
# Mechanical properties :
#
#
# Convention : Reuss Voigt Hill
#
# Bulk Modulus (GPa) = 37.67614 37.93398 37.80506
# Shear Modulus (GPa) = 32.94919 35.85084 34.40002
#
# Velocity S-wave (km/s) = 3.68101 3.83967 3.76118
# Velocity P-wave (km/s) = 5.79311 5.93778 5.86589
#
# Compressibility (1/GPa) = 0.02654200
#
# Stress axis : x y z
#
# Youngs Moduli (GPa) = 74.05252 73.51237 92.46111
#
# Poissons Ratio (x) = 0.35330 -0.00377
# Poissons Ratio (y) = 0.35589 0.08553
# Poissons Ratio (z) = -0.00302 0.06800
#
# Static dielectric constant tensor:
#      x y z
#    x 1.967500 0.000000 0.000000 
#    y 0.000000 1.918120 -0.000020 
#    z 0.000000 -0.000020 1.849440 
# 
# From -- ./inp_files/735.got.cif
#   From: 2010.05.17/outbox.cif.g08.bks.cpg/sg43_1_cif.got.tgz:735.got - 2010.06.03 19:21:55.
