data_PCOD9372349
_publ_section_title
;
Structure prediction by ZEFSAII (Michael W. Deem and Ramdas Pophale) SiO2 
 PCOD9372349
Probable space group: F D D 2
;
_chemical_formula_sum "Si O2"
_cell_formula_units_Z 96
_cell_length_a 11.509126
_cell_length_b 23.748784
_cell_length_c 17.241058
_cell_angle_alpha 90.000000
_cell_angle_beta 90.000000
_cell_angle_gamma 90.000000
_cell_volume 4712.459546
_symmetry_space_group_name_H-M "F D D 2"
_symmetry_group_IT_number 43
_symmetry_cell_setting 'orthorhombic'
loop_
_space_group_symop_operation_xyz
x,y,z
-x,-y,z
1/4-x,1/4+y,1/4+z
1/4+x,1/4-y,1/4+z
x,1/2+y,1/2+z
-x,1/2-y,1/2+z
1/4-x,3/4+y,3/4+z
1/4+x,3/4-y,3/4+z
1/2+x,y,1/2+z
1/2-x,-y,1/2+z
3/4-x,1/4+y,3/4+z
3/4+x,1/4-y,3/4+z
1/2+x,1/2+y,z
1/2-x,1/2-y,z
3/4-x,3/4+y,1/4+z
3/4+x,3/4-y,1/4+z
loop_
_atom_site_type_symbol
_atom_site_label
_atom_site_fract_x
_atom_site_fract_y
_atom_site_fract_z
Si Si1 0.747051 0.684378 0.269480
Si Si2 0.536334 0.107393 0.789653
Si Si3 0.141003 0.389159 0.138158
Si Si4 0.933079 0.332866 0.941781
Si Si5 0.391677 0.710320 0.912308
Si Si6 0.308515 0.688374 0.487964
O O1 0.750000 0.750000 0.253138
O O2 0.617747 0.659018 0.261176
O O3 0.823913 0.652405 0.207079
O O4 0.812788 0.675123 0.351802
O O5 0.406100 0.104009 0.757160
O O6 0.543255 0.116784 0.881346
O O7 0.603291 0.055264 0.749699
O O8 0.228145 0.441737 0.144695
O O9 0.014150 0.412026 0.164932
O O10 0.178489 0.355380 0.060437
O O11 0.878008 0.276794 0.902619
O O12 0.055704 0.308027 0.968021
O O13 0.250000 0.750000 0.505977
#
# Coordination Sequence:
#
# PCOD9372349 Si02
#       6
#    16  16  16  16  16  16
#     4  11  20  39  69  96 130 174 232 291 340 412
#     4  11  23  39  70 100 133 179 230 282 353 411
#     4  11  24  42  67  98 134 177 237 288 348 415
#     4  12  24  44  68  99 142 184 231 290 357 414
#     4  11  21  42  68  94 135 180 232 292 344 417
#     4  12  25  45  69 100 140 188 231 289 358 426
#
# _framework density 20.371528999999999
#
# number of rings (size 3 to 8) (size 9 to 14) (size 15 to 20)
#    0.000    0.667    6.667    2.000    0.000    0.000 
#    3.000    0.000    3.667    0.000    0.000    0.000 
#    0.000    0.000    0.000    0.000    0.000    0.000 
#
# Total GULP energy -133619.904445 kJ/mol
# GULP energy per Si atom -5567.496019 kJ/mol
# Density = 2.032516 g / cm^3
# Si number density = 20.371529 Si / 1000 Ang^3
#
#
#
# Elastic Constant Matrix: (Units=GPa)
#
#
# Indices 1 2 3 4 5 6 
#
# 1 147.0518 26.8688 23.0585 0.0000 0.0000 0.0000
# 2 26.8688 71.4403 17.9969 0.0000 0.0000 0.0000
# 3 23.0585 17.9969 66.4362 0.0000 0.0000 0.0000
# 4 0.0000 0.0000 0.0000 28.9770 0.0000 0.0000
# 5 0.0000 0.0000 0.0000 0.0000 32.7048 0.0000
# 6 0.0000 0.0000 0.0000 0.0000 0.0000 29.1714
#
#
#
# Elastic Compliance Matrix: (Units=1/GPa)
#
#
# Indices 1 2 3 4 5 6 
#
# 1 0.007538 -0.002335 -0.001984 0.000000 0.000000 0.000000
# 2 -0.002335 0.015746 -0.003455 0.000000 0.000000 0.000000
# 3 -0.001984 -0.003455 0.016676 0.000000 0.000000 0.000000
# 4 0.000000 0.000000 0.000000 0.034510 0.000000 0.000000
# 5 0.000000 0.000000 0.000000 0.000000 0.030577 0.000000
# 6 0.000000 0.000000 0.000000 0.000000 0.000000 0.034280
#
#
# Mechanical properties :
#
#
# Convention : Reuss Voigt Hill
#
# Bulk Modulus (GPa) = 40.96197 46.75295 43.85746
# Shear Modulus (GPa) = 30.67232 32.63758 31.65495
#
# Velocity S-wave (km/s) = 3.88448 4.00699 3.94621
# Velocity P-wave (km/s) = 6.34586 6.66393 6.50684
#
# Compressibility (1/GPa) = 0.02441289
#
# Stress axis : x y z
#
# Youngs Moduli (GPa) = 132.65965 63.50654 59.96478
#
# Poissons Ratio (x) = 0.14831 0.11895
# Poissons Ratio (y) = 0.30981 0.20718
# Poissons Ratio (z) = 0.26315 0.21941
#
# Static dielectric constant tensor:
#      x y z
#    x 1.772850 0.000000 0.000000 
#    y 0.000000 1.733160 0.000000 
#    z 0.000000 0.000000 1.803430 
# 
# From -- ./inp_files/13307.got.cif
#   From: 2010.05.17/outbox.cif.g08.bks.cpg/sg43_7_cif.got.tgz:13307.got - 2010.06.03 19:21:55.
