data_PCOD9372063
_publ_section_title
;
Structure prediction by ZEFSAII (Michael W. Deem and Ramdas Pophale) SiO2 
 PCOD9372063
Probable space group: F D D 2
;
_chemical_formula_sum "Si O2"
_cell_formula_units_Z 112
_cell_length_a 14.030897
_cell_length_b 12.670679
_cell_length_c 26.112328
_cell_angle_alpha 90.000000
_cell_angle_beta 90.000000
_cell_angle_gamma 90.000000
_cell_volume 4642.275574
_symmetry_space_group_name_H-M "F D D 2"
_symmetry_group_IT_number 43
_symmetry_cell_setting 'orthorhombic'
loop_
_space_group_symop_operation_xyz
x,y,z
-x,-y,z
1/4-x,1/4+y,1/4+z
1/4+x,1/4-y,1/4+z
x,1/2+y,1/2+z
-x,1/2-y,1/2+z
1/4-x,3/4+y,3/4+z
1/4+x,3/4-y,3/4+z
1/2+x,y,1/2+z
1/2-x,-y,1/2+z
3/4-x,1/4+y,3/4+z
3/4+x,1/4-y,3/4+z
1/2+x,1/2+y,z
1/2-x,1/2-y,z
3/4-x,3/4+y,1/4+z
3/4+x,3/4-y,1/4+z
loop_
_atom_site_type_symbol
_atom_site_label
_atom_site_fract_x
_atom_site_fract_y
_atom_site_fract_z
Si Si1 0.860228 0.370864 0.424520
Si Si2 0.137000 0.852583 0.425573
Si Si3 0.125913 0.149293 0.138093
Si Si4 0.395539 0.451119 0.031292
Si Si5 0.080631 0.087975 0.296422
Si Si6 0.349982 0.912958 0.903463
Si Si7 0.709316 0.984770 0.722158
O O1 0.874759 0.259150 0.395849
O O2 0.747861 0.366459 0.438206
O O3 0.891816 0.475478 0.395384
O O4 0.906159 0.380265 0.480863
O O5 0.059589 0.827256 0.469027
O O6 0.118875 0.964669 0.400589
O O7 0.141663 0.112095 0.080078
O O8 0.182463 0.075614 0.178855
O O9 0.011843 0.140498 0.148058
O O10 0.500000 0.500000 0.042510
O O11 0.327714 0.550792 0.016332
O O12 0.095506 0.130110 0.353773
O O13 0.175857 0.029113 0.276471
O O14 0.000000 0.000000 0.291078
O O15 0.386541 0.857346 0.954112
#
# Coordination Sequence:
#
# PCOD9372063 Si02
#       7
#    16  16  16  16  16  16  16
#     4  10  24  45  67  96 136 184 223 278 346 413
#     4  10  24  44  67  90 141 184 215 274 350 417
#     4  11  22  39  70 100 132 170 229 289 332 399
#     4  12  22  42  71 102 135 173 236 294 340 404
#     4  12  24  37  67 105 135 174 229 294 342 406
#     4  11  23  44  65  99 138 174 222 288 344 403
#     4  12  22  40  70 102 131 177 225 280 350 404
#
# _framework density 24.126100000000001
#
# number of rings (size 3 to 8) (size 9 to 14) (size 15 to 20)
#    0.000    0.857    4.286    3.429    2.000    0.000 
#    0.000    4.286    9.429    0.000    0.000    0.000 
#    0.000    0.000    0.000    0.000    0.000    0.000 
#
# Total GULP energy -156253.662073 kJ/mol
# GULP energy per Si atom -5580.487931 kJ/mol
# Density = 2.407119 g / cm^3
# Si number density = 24.126100 Si / 1000 Ang^3
#
#
#
# Elastic Constant Matrix: (Units=GPa)
#
#
# Indices 1 2 3 4 5 6 
#
# 1 91.7159 31.3312 0.9057 0.0000 0.0000 0.0000
# 2 31.3312 145.3587 35.8878 0.0000 0.0000 0.0000
# 3 0.9057 35.8878 68.3669 0.0000 0.0000 0.0000
# 4 0.0000 0.0000 0.0000 40.3799 0.0000 0.0000
# 5 0.0000 0.0000 0.0000 0.0000 24.5769 0.0000
# 6 0.0000 0.0000 0.0000 0.0000 0.0000 40.1797
#
#
#
# Elastic Compliance Matrix: (Units=1/GPa)
#
#
# Indices 1 2 3 4 5 6 
#
# 1 0.011879 -0.002897 0.001363 0.000000 0.000000 0.000000
# 2 -0.002897 0.008610 -0.004482 0.000000 0.000000 0.000000
# 3 0.001363 -0.004482 0.016961 0.000000 0.000000 0.000000
# 4 0.000000 0.000000 0.000000 0.024765 0.000000 0.000000
# 5 0.000000 0.000000 0.000000 0.000000 0.040689 0.000000
# 6 0.000000 0.000000 0.000000 0.000000 0.000000 0.024888
#
#
# Mechanical properties :
#
#
# Convention : Reuss Voigt Hill
#
# Bulk Modulus (GPa) = 39.33782 49.07678 44.20730
# Shear Modulus (GPa) = 33.71612 36.84841 35.28227
#
# Velocity S-wave (km/s) = 3.74236 3.91234 3.82830
# Velocity P-wave (km/s) = 5.91728 6.38706 6.15665
#
# Compressibility (1/GPa) = 0.02542083
#
# Stress axis : x y z
#
# Youngs Moduli (GPa) = 84.17884 116.13802 58.95745
#
# Poissons Ratio (x) = 0.33647 -0.08038
# Poissons Ratio (y) = 0.24388 0.26422
# Poissons Ratio (z) = -0.11477 0.52047
#
# Static dielectric constant tensor:
#      x y z
#    x 2.095020 0.000000 0.000000 
#    y 0.000000 2.047350 0.000000 
#    z 0.000000 0.000000 1.857760 
# 
# From -- ./inp_files/29079.got.cif
#   From: 2010.05.17/outbox.cif.g08.bks.cpg/sg43_15_cif.got.tgz:29079.got - 2010.06.03 19:21:55.
