data_PCOD9372587
_publ_section_title
;
Structure prediction by ZEFSAII (Michael W. Deem and Ramdas Pophale) SiO2 
 PCOD9372587
Probable space group: F D D 2
;
_chemical_formula_sum "Si O2"
_cell_formula_units_Z 56
_cell_length_a 17.175903
_cell_length_b 6.517978
_cell_length_c 21.916968
_cell_angle_alpha 90.000000
_cell_angle_beta 90.000000
_cell_angle_gamma 90.000000
_cell_volume 2453.651862
_symmetry_space_group_name_H-M "F D D 2"
_symmetry_group_IT_number 43
_symmetry_cell_setting 'orthorhombic'
loop_
_space_group_symop_operation_xyz
x,y,z
-x,-y,z
1/4-x,1/4+y,1/4+z
1/4+x,1/4-y,1/4+z
x,1/2+y,1/2+z
-x,1/2-y,1/2+z
1/4-x,3/4+y,3/4+z
1/4+x,3/4-y,3/4+z
1/2+x,y,1/2+z
1/2-x,-y,1/2+z
3/4-x,1/4+y,3/4+z
3/4+x,1/4-y,3/4+z
1/2+x,1/2+y,z
1/2-x,1/2-y,z
3/4-x,3/4+y,1/4+z
3/4+x,3/4-y,1/4+z
loop_
_atom_site_type_symbol
_atom_site_label
_atom_site_fract_x
_atom_site_fract_y
_atom_site_fract_z
Si Si1 0.500000 0.500000 0.656360
Si Si2 0.323382 0.904591 0.988918
Si Si3 0.896779 0.420641 0.357974
Si Si4 0.281707 0.025608 0.660935
O O1 0.551945 0.656310 0.694770
O O2 0.443440 0.645635 0.618648
O O3 0.250000 0.750000 0.989301
O O4 0.402971 0.798774 0.963703
O O5 0.334548 0.017976 0.053209
O O6 0.924417 0.656265 0.355367
O O7 0.949373 0.346278 0.416004
O O8 0.250000 0.250000 0.647000
#
# Coordination Sequence:
#
# PCOD9372587 Si02
#       4
#     8  16  16  16
#     4  12  24  44  72 112 150 184 260 300 364 474
#     4  12  26  47  75 106 148 201 240 308 387 448
#     4  11  26  44  73 112 146 195 249 310 373 448
#     4  11  23  48  71 101 152 189 247 311 366 445
#
# _framework density 22.823125000000001
#
# number of rings (size 3 to 8) (size 9 to 14) (size 15 to 20)
#    0.000    0.571    5.714    2.571    2.000    0.000 
#    0.000    0.000   12.571    0.000    0.000    0.000 
#    0.000    0.000    0.000    0.000    0.000    0.000 
#
# Total GULP energy -78041.132432 kJ/mol
# GULP energy per Si atom -5574.366602 kJ/mol
# Density = 2.277118 g / cm^3
# Si number density = 22.823125 Si / 1000 Ang^3
#
#
#
# Elastic Constant Matrix: (Units=GPa)
#
#
# Indices 1 2 3 4 5 6 
#
# 1 155.9199 33.9231 53.7809 0.0000 0.0000 0.0000
# 2 33.9231 76.1882 26.3190 0.0000 0.0000 -0.0001
# 3 53.7809 26.3190 63.3511 0.0000 0.0000 0.0000
# 4 0.0000 0.0000 0.0000 35.1741 0.0000 0.0000
# 5 0.0000 0.0000 0.0000 0.0000 18.1390 0.0000
# 6 0.0000 -0.0001 0.0000 0.0000 0.0000 57.3963
#
#
#
# Elastic Compliance Matrix: (Units=1/GPa)
#
#
# Indices 1 2 3 4 5 6 
#
# 1 0.009241 -0.001640 -0.007164 0.000000 0.000000 0.000000
# 2 -0.001640 0.015616 -0.005095 0.000000 0.000000 0.000000
# 3 -0.007164 -0.005095 0.023984 0.000000 0.000000 0.000000
# 4 0.000000 0.000000 0.000000 0.028430 0.000000 0.000000
# 5 0.000000 0.000000 0.000000 0.000000 0.055130 0.000000
# 6 0.000000 0.000000 0.000000 0.000000 0.000000 0.017423
#
#
# Mechanical properties :
#
#
# Convention : Reuss Voigt Hill
#
# Bulk Modulus (GPa) = 47.52345 58.16724 52.84534
# Shear Modulus (GPa) = 27.08029 34.23763 30.65896
#
# Velocity S-wave (km/s) = 3.44834 3.87735 3.66912
# Velocity P-wave (km/s) = 6.05990 6.75178 6.41518
#
# Compressibility (1/GPa) = 0.02104225
#
# Stress axis : x y z
#
# Youngs Moduli (GPa) = 108.20847 64.03787 41.69507
#
# Poissons Ratio (x) = 0.10502 0.29870
# Poissons Ratio (y) = 0.17746 0.21245
# Poissons Ratio (z) = 0.77521 0.32629
#
# Static dielectric constant tensor:
#      x y z
#    x 1.876530 0.000000 0.000000 
#    y 0.000000 1.982930 0.000000 
#    z 0.000000 0.000000 1.898450 
# 
# From -- ./inp_files/15528.got.cif
#   From: 2010.05.17/outbox.cif.g08.bks.cpg/sg43_8_cif.got.tgz:15528.got - 2010.06.03 19:21:55.
