data_PCOD9372527
_publ_section_title
;
Structure prediction by ZEFSAII (Michael W. Deem and Ramdas Pophale) SiO2 
 PCOD9372527
Probable space group: F D D 2
;
_chemical_formula_sum "Si O2"
_cell_formula_units_Z 96
_cell_length_a 14.354043
_cell_length_b 28.767663
_cell_length_c 10.619902
_cell_angle_alpha 90.000000
_cell_angle_beta 90.000000
_cell_angle_gamma 90.000000
_cell_volume 4385.300258
_symmetry_space_group_name_H-M "F D D 2"
_symmetry_group_IT_number 43
_symmetry_cell_setting 'orthorhombic'
loop_
_space_group_symop_operation_xyz
x,y,z
-x,-y,z
1/4-x,1/4+y,1/4+z
1/4+x,1/4-y,1/4+z
x,1/2+y,1/2+z
-x,1/2-y,1/2+z
1/4-x,3/4+y,3/4+z
1/4+x,3/4-y,3/4+z
1/2+x,y,1/2+z
1/2-x,-y,1/2+z
3/4-x,1/4+y,3/4+z
3/4+x,1/4-y,3/4+z
1/2+x,1/2+y,z
1/2-x,1/2-y,z
3/4-x,3/4+y,1/4+z
3/4+x,3/4-y,1/4+z
loop_
_atom_site_type_symbol
_atom_site_label
_atom_site_fract_x
_atom_site_fract_y
_atom_site_fract_z
Si Si1 0.826217 0.424855 0.774090
Si Si2 0.130160 0.433318 0.836252
Si Si3 0.701880 0.515652 0.762009
Si Si4 0.627728 0.825961 0.815986
Si Si5 0.004349 0.922077 0.093022
Si Si6 0.250000 0.250000 0.750307
Si Si7 0.750000 0.750000 0.134132
O O1 0.761104 0.468920 0.752605
O O2 0.909890 0.423907 0.674664
O O3 0.767142 0.378079 0.780496
O O4 0.868692 0.424617 0.915501
O O5 0.237065 0.449061 0.845979
O O6 0.122910 0.378208 0.869158
O O7 0.074448 0.473065 0.912444
O O8 0.085905 0.433538 0.695102
O O9 0.698705 0.543436 0.630212
O O10 0.598749 0.505252 0.812230
O O11 0.718175 0.793862 0.834543
O O12 0.007324 0.956988 0.978750
#
# Coordination Sequence:
#
# PCOD9372527 Si02
#       7
#    16  16  16  16  16   8   8
#     4  11  24  44  77 107 136 196 236 309 359 437
#     4  11  23  42  75 105 132 188 238 300 364 433
#     4  12  26  46  69 102 146 192 238 298 364 423
#     4  11  25  42  70 106 144 177 249 299 367 444
#     4  11  24  45  75 106 144 180 254 291 369 436
#     4  12  20  44  66 106 138 180 232 300 366 436
#     4  12  28  48  64 104 146 196 238 298 358 440
#
# _framework density 21.891317000000001
#
# number of rings (size 3 to 8) (size 9 to 14) (size 15 to 20)
#    0.000    0.667    3.333    4.000   11.667    0.000 
#   12.000    0.000    0.000    0.000    0.000    0.000 
#    0.000    0.000    0.000    0.000    0.000    0.000 
#
# Total GULP energy -133923.398762 kJ/mol
# GULP energy per Si atom -5580.141615 kJ/mol
# Density = 2.184149 g / cm^3
# Si number density = 21.891317 Si / 1000 Ang^3
#
#
#
# Elastic Constant Matrix: (Units=GPa)
#
#
# Indices 1 2 3 4 5 6 
#
# 1 131.6468 57.9465 37.8597 0.0000 0.0000 0.0000
# 2 57.9465 187.9879 36.1772 0.0000 0.0000 0.0000
# 3 37.8597 36.1772 57.5847 0.0000 0.0000 0.0000
# 4 0.0000 0.0000 0.0000 -16.4463 0.0000 0.0000
# 5 0.0000 0.0000 0.0000 0.0000 12.3674 0.0000
# 6 0.0000 0.0000 0.0000 0.0000 0.0000 35.8511
#
#
#
# Elastic Compliance Matrix: (Units=1/GPa)
#
#
# Indices 1 2 3 4 5 6 
#
# 1 0.010031 -0.002073 -0.005292 0.000000 0.000000 0.000000
# 2 -0.002073 0.006480 -0.002708 0.000000 0.000000 0.000000
# 3 -0.005292 -0.002708 0.022546 0.000000 0.000000 0.000000
# 4 0.000000 0.000000 0.000000 -0.060804 0.000000 0.000000
# 5 0.000000 0.000000 0.000000 0.000000 0.080858 0.000000
# 6 0.000000 0.000000 0.000000 0.000000 0.000000 0.027893
#
#
# Mechanical properties :
#
#
# Convention : Reuss Voigt Hill
#
# Bulk Modulus (GPa) = 52.88180 71.24292 62.06236
# Shear Modulus (GPa) = 44.07096 22.70349 33.38723
#
# Velocity S-wave (km/s) = 4.49170 3.22390 3.90954
# Velocity P-wave (km/s) = 7.14909 6.81708 6.98506
#
# Compressibility (1/GPa) = 0.01891010
#
# Stress axis : x y z
#
# Youngs Moduli (GPa) = 99.69391 154.32828 44.35346
#
# Poissons Ratio (x) = 0.32000 0.23473
# Poissons Ratio (y) = 0.20671 0.12009
# Poissons Ratio (z) = 0.52760 0.41786
#
# Static dielectric constant tensor:
#      x y z
#    x 1.852100 0.000000 0.000000 
#    y 0.000000 2.104450 0.000000 
#    z 0.000000 0.000000 1.861570 
# 
# From -- ./inp_files/6286.got.cif
#   From: 2010.05.17/outbox.cif.g08.bks.cpg/sg43_4_cif.got.tgz:6286.got - 2010.06.03 19:21:55.
