data_PCOD9372381
_publ_section_title
;
Structure prediction by ZEFSAII (Michael W. Deem and Ramdas Pophale) SiO2 
 PCOD9372381
Probable space group: F D D 2
;
_chemical_formula_sum "Si O2"
_cell_formula_units_Z 120
_cell_length_a 25.346392
_cell_length_b 24.258670
_cell_length_c 9.249871
_cell_angle_alpha 90.000000
_cell_angle_beta 90.000000
_cell_angle_gamma 90.000000
_cell_volume 5687.465955
_symmetry_space_group_name_H-M "F D D 2"
_symmetry_group_IT_number 43
_symmetry_cell_setting 'orthorhombic'
loop_
_space_group_symop_operation_xyz
x,y,z
-x,-y,z
1/4-x,1/4+y,1/4+z
1/4+x,1/4-y,1/4+z
x,1/2+y,1/2+z
-x,1/2-y,1/2+z
1/4-x,3/4+y,3/4+z
1/4+x,3/4-y,3/4+z
1/2+x,y,1/2+z
1/2-x,-y,1/2+z
3/4-x,1/4+y,3/4+z
3/4+x,1/4-y,3/4+z
1/2+x,1/2+y,z
1/2-x,1/2-y,z
3/4-x,3/4+y,1/4+z
3/4+x,3/4-y,1/4+z
loop_
_atom_site_type_symbol
_atom_site_label
_atom_site_fract_x
_atom_site_fract_y
_atom_site_fract_z
Si Si1 0.280277 0.554927 0.468790
Si Si2 0.508329 0.373513 0.956613
Si Si3 0.114586 0.824503 0.073040
Si Si4 0.310460 0.588658 0.960243
Si Si5 0.109388 0.472563 0.656221
Si Si6 0.250000 0.250000 0.264464
Si Si7 0.471074 0.200441 0.923746
Si Si8 0.878212 0.627213 0.864558
O O1 0.238818 0.592441 0.555606
O O2 0.293450 0.502906 0.572310
O O3 0.251688 0.535530 0.321504
O O4 0.328881 0.597148 0.439367
O O5 0.561371 0.358497 0.042800
O O6 0.499622 0.439216 0.939437
O O7 0.462207 0.343664 0.049792
O O8 0.160212 0.854345 0.985161
O O9 0.108556 0.764972 0.005395
O O10 0.134014 0.828152 0.238110
O O11 0.353881 0.544719 0.019223
O O12 0.262413 0.582032 0.071858
O O13 0.099142 0.422099 0.765325
O O14 0.053928 0.495977 0.604572
O O15 0.421871 0.159871 0.955803
#
# Coordination Sequence:
#
# PCOD9372381 Si02
#       8
#    16  16  16  16  16   8  16  16
#     4  12  28  48  73 104 144 192 246 304 370 436
#     4  12  25  45  69 107 144 190 240 301 360 445
#     4  11  21  40  70 101 142 186 240 289 355 435
#     4  11  21  40  73 103 136 185 244 286 352 432
#     4  11  22  39  72 107 136 190 238 289 356 434
#     4  12  22  42  68 104 146 178 232 296 368 426
#     4  12  24  48  75 103 143 188 245 306 361 442
#     4  11  24  43  67 109 143 182 242 298 359 428
#
# _framework density 21.099025999999999
#
# number of rings (size 3 to 8) (size 9 to 14) (size 15 to 20)
#    0.000    0.533    8.000    2.400    0.000    1.067 
#    4.800    1.333    0.000    0.000    0.000    0.000 
#    0.000    0.000    0.000    0.000    0.000    0.000 
#
# Total GULP energy -167235.436501 kJ/mol
# GULP energy per Si atom -5574.514550 kJ/mol
# Density = 2.105100 g / cm^3
# Si number density = 21.099026 Si / 1000 Ang^3
#
#
#
# Elastic Constant Matrix: (Units=GPa)
#
#
# Indices 1 2 3 4 5 6 
#
# 1 84.6195 35.7349 30.9183 0.0003 -0.0007 -0.0005
# 2 35.7349 131.0533 43.7797 0.0019 -0.0016 -0.0009
# 3 30.9183 43.7797 89.2919 0.0049 -0.0040 -0.0022
# 4 0.0003 0.0019 0.0049 35.2931 -0.0022 -0.0012
# 5 -0.0007 -0.0016 -0.0040 -0.0022 29.1974 0.0009
# 6 -0.0005 -0.0009 -0.0022 -0.0012 0.0009 39.4748
#
#
#
# Elastic Compliance Matrix: (Units=1/GPa)
#
#
# Indices 1 2 3 4 5 6 
#
# 1 0.014275 -0.002680 -0.003629 0.000001 0.000000 0.000000
# 2 -0.002680 0.009628 -0.003793 0.000000 0.000000 0.000000
# 3 -0.003629 -0.003793 0.014315 -0.000002 0.000002 0.000001
# 4 0.000001 0.000000 -0.000002 0.028334 0.000002 0.000001
# 5 0.000000 0.000000 0.000002 0.000002 0.034250 -0.000001
# 6 0.000000 0.000000 0.000001 0.000001 -0.000001 0.025333
#
#
# Mechanical properties :
#
#
# Convention : Reuss Voigt Hill
#
# Bulk Modulus (GPa) = 55.50814 58.42558 56.96686
# Shear Modulus (GPa) = 32.82042 33.76185 33.29113
#
# Velocity S-wave (km/s) = 3.94831 4.00454 3.97653
# Velocity P-wave (km/s) = 6.86666 7.00950 6.93845
#
# Compressibility (1/GPa) = 0.01801538
#
# Stress axis : x y z
#
# Youngs Moduli (GPa) = 70.05054 103.86046 69.85531
#
# Poissons Ratio (x) = 0.27837 0.25350
# Poissons Ratio (y) = 0.18775 0.26494
# Poissons Ratio (z) = 0.25420 0.39391
#
# Static dielectric constant tensor:
#      x y z
#    x 1.764210 0.000000 0.000000 
#    y 0.000000 1.826490 0.000000 
#    z 0.000000 0.000000 1.762700 
# 
# From -- ./inp_files/3893.got.cif
#   From: 2010.05.17/outbox.cif.g08.bks.cpg/sg43_2_cif.got.tgz:3893.got - 2010.06.03 19:21:55.
