data_PCOD9372327
_publ_section_title
;
Structure prediction by ZEFSAII (Michael W. Deem and Ramdas Pophale) SiO2 
 PCOD9372327
Probable space group: F D D 2
;
_chemical_formula_sum "Si O2"
_cell_formula_units_Z 88
_cell_length_a 25.147181
_cell_length_b 13.231433
_cell_length_c 13.728232
_cell_angle_alpha 90.000000
_cell_angle_beta 90.000000
_cell_angle_gamma 90.000000
_cell_volume 4567.839120
_symmetry_space_group_name_H-M "F D D 2"
_symmetry_group_IT_number 43
_symmetry_cell_setting 'orthorhombic'
loop_
_space_group_symop_operation_xyz
x,y,z
-x,-y,z
1/4-x,1/4+y,1/4+z
1/4+x,1/4-y,1/4+z
x,1/2+y,1/2+z
-x,1/2-y,1/2+z
1/4-x,3/4+y,3/4+z
1/4+x,3/4-y,3/4+z
1/2+x,y,1/2+z
1/2-x,-y,1/2+z
3/4-x,1/4+y,3/4+z
3/4+x,1/4-y,3/4+z
1/2+x,1/2+y,z
1/2-x,1/2-y,z
3/4-x,3/4+y,1/4+z
3/4+x,3/4-y,1/4+z
loop_
_atom_site_type_symbol
_atom_site_label
_atom_site_fract_x
_atom_site_fract_y
_atom_site_fract_z
Si Si1 0.497646 0.113305 0.359750
Si Si2 0.387035 0.675724 0.948583
Si Si3 0.105653 0.595984 0.916732
Si Si4 0.000000 0.000000 0.356704
Si Si5 0.284414 0.647526 0.816133
Si Si6 0.278759 0.949565 0.978651
O O1 0.439760 0.124767 0.408454
O O2 0.537816 0.124182 0.451588
O O3 0.507816 0.203035 0.285087
O O4 0.500000 0.000000 0.318409
O O5 0.399612 0.793944 0.963550
O O6 0.339623 0.662974 0.871429
O O7 0.367824 0.634510 0.052200
O O8 0.051667 0.532111 0.918140
O O9 0.158113 0.545610 0.961460
O O10 0.015243 0.903093 0.289652
O O11 0.250000 0.750000 0.824553
O O12 0.250989 0.564439 0.875686
#
# Coordination Sequence:
#
# PCOD9372327 Si02
#       6
#    16  16  16   8  16  16
#     4  11  25  41  62  95 135 173 205 262 329 389
#     4  12  20  38  70  92 119 162 223 269 304 363
#     4  12  21  37  68  97 119 163 215 276 308 369
#     4  12  22  38  68 100 116 164 220 268 320 364
#     4  11  19  39  70  99 117 164 231 266 298 371
#     4  12  21  40  68  97 131 161 219 273 316 381
#
# _framework density 19.265125999999999
#
# number of rings (size 3 to 8) (size 9 to 14) (size 15 to 20)
#    0.000    0.364   10.000    1.091    0.000    0.000 
#    3.273    0.000   12.000    0.000    0.000    0.000 
#    0.000    0.000    0.000    0.000    0.000    0.000 
#
# Total GULP energy -122974.180517 kJ/mol
# GULP energy per Si atom -5589.735478 kJ/mol
# Density = 1.922128 g / cm^3
# Si number density = 19.265126 Si / 1000 Ang^3
#
#
#
# Elastic Constant Matrix: (Units=GPa)
#
#
# Indices 1 2 3 4 5 6 
#
# 1 116.7629 20.8651 4.3870 0.0000 0.0000 0.0000
# 2 20.8651 101.6378 35.9080 0.0000 0.0000 0.0000
# 3 4.3870 35.9080 58.6559 0.0000 0.0000 0.0000
# 4 0.0000 0.0000 0.0000 29.7216 0.0000 0.0000
# 5 0.0000 0.0000 0.0000 0.0000 18.5467 0.0000
# 6 0.0000 0.0000 0.0000 0.0000 0.0000 27.4389
#
#
#
# Elastic Compliance Matrix: (Units=1/GPa)
#
#
# Indices 1 2 3 4 5 6 
#
# 1 0.008906 -0.002033 0.000578 0.000000 0.000000 0.000000
# 2 -0.002033 0.013018 -0.007817 0.000000 0.000000 0.000000
# 3 0.000578 -0.007817 0.021791 0.000000 0.000000 0.000000
# 4 0.000000 0.000000 0.000000 0.033646 0.000000 0.000000
# 5 0.000000 0.000000 0.000000 0.000000 0.053918 0.000000
# 6 0.000000 0.000000 0.000000 0.000000 0.000000 0.036445
#
#
# Mechanical properties :
#
#
# Convention : Reuss Voigt Hill
#
# Bulk Modulus (GPa) = 39.72763 44.37522 42.05143
# Shear Modulus (GPa) = 25.68626 29.53454 27.61040
#
# Velocity S-wave (km/s) = 3.65540 3.91968 3.78984
# Velocity P-wave (km/s) = 6.20341 6.60069 6.40513
#
# Compressibility (1/GPa) = 0.02517140
#
# Stress axis : x y z
#
# Youngs Moduli (GPa) = 112.28574 76.81720 45.89067
#
# Poissons Ratio (x) = 0.15613 -0.02653
# Poissons Ratio (y) = 0.22823 0.35874
# Poissons Ratio (z) = -0.06492 0.60050
#
# Static dielectric constant tensor:
#      x y z
#    x 1.695320 0.000000 0.000000 
#    y 0.000000 1.662460 0.000000 
#    z 0.000000 0.000000 1.675670 
# 
# From -- ./inp_files/6205.got.cif
#   From: 2010.05.17/outbox.cif.g08.bks.cpg/sg43_4_cif.got.tgz:6205.got - 2010.06.03 19:21:55.
