data_PCOD9372145
_publ_section_title
;
Structure prediction by ZEFSAII (Michael W. Deem and Ramdas Pophale) SiO2 
 PCOD9372145
Probable space group: F D D 2
;
_chemical_formula_sum "Si O2"
_cell_formula_units_Z 64
_cell_length_a 17.779566
_cell_length_b 24.975009
_cell_length_c 6.301666
_cell_angle_alpha 90.000000
_cell_angle_beta 90.000000
_cell_angle_gamma 90.000000
_cell_volume 2798.222150
_symmetry_space_group_name_H-M "F D D 2"
_symmetry_group_IT_number 43
_symmetry_cell_setting 'orthorhombic'
loop_
_space_group_symop_operation_xyz
x,y,z
-x,-y,z
1/4-x,1/4+y,1/4+z
1/4+x,1/4-y,1/4+z
x,1/2+y,1/2+z
-x,1/2-y,1/2+z
1/4-x,3/4+y,3/4+z
1/4+x,3/4-y,3/4+z
1/2+x,y,1/2+z
1/2-x,-y,1/2+z
3/4-x,1/4+y,3/4+z
3/4+x,1/4-y,3/4+z
1/2+x,1/2+y,z
1/2-x,1/2-y,z
3/4-x,3/4+y,1/4+z
3/4+x,3/4-y,1/4+z
loop_
_atom_site_type_symbol
_atom_site_label
_atom_site_fract_x
_atom_site_fract_y
_atom_site_fract_z
Si Si1 0.970029 0.687338 0.815100
Si Si2 0.866358 0.520396 0.364980
Si Si3 0.148945 0.276720 0.528445
Si Si4 0.797606 0.821844 0.748555
O O1 0.924102 0.690782 0.594900
O O2 0.951032 0.633605 0.940975
O O3 0.056227 0.695027 0.748821
O O4 0.935677 0.735444 0.956008
O O5 0.906928 0.479450 0.527436
O O6 0.926321 0.555668 0.234504
O O7 0.147252 0.215193 0.608559
O O8 0.215964 0.302215 0.666940
#
# Coordination Sequence:
#
# PCOD9372145 Si02
#       4
#    16  16  16  16
#     4  11  24  43  73 105 144 189 238 296 365 429
#     4  11  24  46  71 108 148 182 242 303 355 437
#     4  10  24  47  66 104 146 187 240 297 358 435
#     4  10  26  43  70 105 143 190 240 291 366 433
#
# _framework density 22.871666000000001
#
# number of rings (size 3 to 8) (size 9 to 14) (size 15 to 20)
#    0.000    1.500    2.500    0.000    7.000    8.000 
#    0.000    0.000    0.000    0.000    0.000    0.000 
#    0.000    0.000    0.000    0.000    0.000    0.000 
#
# Total GULP energy -89284.370500 kJ/mol
# GULP energy per Si atom -5580.273156 kJ/mol
# Density = 2.281961 g / cm^3
# Si number density = 22.871666 Si / 1000 Ang^3
#
#
#
# Elastic Constant Matrix: (Units=GPa)
#
#
# Indices 1 2 3 4 5 6 
#
# 1 127.5411 43.7764 74.4740 0.0015 -0.0025 -0.0014
# 2 43.7764 119.9299 41.4768 0.0008 -0.0013 -0.0007
# 3 74.4740 41.4768 127.9167 0.0027 -0.0036 -0.0025
# 4 0.0015 0.0008 0.0027 29.4330 -0.0017 -0.0013
# 5 -0.0025 -0.0013 -0.0036 -0.0017 40.3364 0.0019
# 6 -0.0014 -0.0007 -0.0025 -0.0013 0.0019 12.3878
#
#
#
# Elastic Compliance Matrix: (Units=1/GPa)
#
#
# Indices 1 2 3 4 5 6 
#
# 1 0.012413 -0.002288 -0.006485 0.000000 0.000000 0.000000
# 2 -0.002288 0.009813 -0.001850 0.000000 0.000000 0.000000
# 3 -0.006485 -0.001850 0.012193 -0.000001 0.000001 0.000002
# 4 0.000000 0.000000 -0.000001 0.033975 0.000001 0.000003
# 5 0.000000 0.000000 0.000001 0.000001 0.024791 -0.000004
# 6 0.000000 0.000000 0.000002 0.000003 -0.000004 0.080725
#
#
# Mechanical properties :
#
#
# Convention : Reuss Voigt Hill
#
# Bulk Modulus (GPa) = 75.91105 77.20467 76.55786
# Shear Modulus (GPa) = 25.05684 30.80882 27.93283
#
# Velocity S-wave (km/s) = 3.31349 3.67417 3.49848
# Velocity P-wave (km/s) = 6.92105 7.19918 7.06149
#
# Compressibility (1/GPa) = 0.01317331
#
# Stress axis : x y z
#
# Youngs Moduli (GPa) = 80.56361 101.90444 82.01526
#
# Poissons Ratio (x) = 0.23317 0.53185
# Poissons Ratio (y) = 0.18434 0.15171
# Poissons Ratio (z) = 0.52244 0.18850
#
# Static dielectric constant tensor:
#      x y z
#    x 1.977210 0.000000 0.000000 
#    y 0.000000 1.868230 0.000000 
#    z 0.000000 0.000000 1.920080 
# 
# From -- ./inp_files/654.got.cif
#   From: 2010.05.17/outbox.cif.g08.bks.cpg/sg43_1_cif.got.tgz:654.got - 2010.06.03 19:21:55.
