data_PCOD9372882
_publ_section_title
;
Structure prediction by ZEFSAII (Michael W. Deem and Ramdas Pophale) SiO2 
 PCOD9372882
Probable space group: F D D 2
;
_chemical_formula_sum "Si O2"
_cell_formula_units_Z 56
_cell_length_a 25.508358
_cell_length_b 5.094595
_cell_length_c 17.016531
_cell_angle_alpha 90.000000
_cell_angle_beta 90.000000
_cell_angle_gamma 90.000000
_cell_volume 2211.379085
_symmetry_space_group_name_H-M "F D D 2"
_symmetry_group_IT_number 43
_symmetry_cell_setting 'orthorhombic'
loop_
_space_group_symop_operation_xyz
x,y,z
-x,-y,z
1/4-x,1/4+y,1/4+z
1/4+x,1/4-y,1/4+z
x,1/2+y,1/2+z
-x,1/2-y,1/2+z
1/4-x,3/4+y,3/4+z
1/4+x,3/4-y,3/4+z
1/2+x,y,1/2+z
1/2-x,-y,1/2+z
3/4-x,1/4+y,3/4+z
3/4+x,1/4-y,3/4+z
1/2+x,1/2+y,z
1/2-x,1/2-y,z
3/4-x,3/4+y,1/4+z
3/4+x,3/4-y,1/4+z
loop_
_atom_site_type_symbol
_atom_site_label
_atom_site_fract_x
_atom_site_fract_y
_atom_site_fract_z
Si Si1 0.908196 0.959598 0.470030
Si Si2 0.557071 0.542277 0.047236
Si Si3 0.750000 0.750000 0.593738
Si Si4 0.542850 0.707406 0.696151
O O1 0.930934 0.155956 0.535250
O O2 0.854122 0.109321 0.451723
O O3 0.904079 0.668231 0.506490
O O4 0.949859 0.941307 0.399008
O O5 0.500000 0.500000 0.008346
O O6 0.550552 0.452241 0.136671
O O7 0.728392 0.535370 0.532164
O O8 0.500000 0.500000 0.666583
#
# Coordination Sequence:
#
# PCOD9372882 Si02
#       4
#    16  16   8  16
#     4  12  29  50  81 117 164 216 273 345 413 497
#     4  12  25  53  77 111 162 215 268 331 420 491
#     4  12  28  50  80 120 156 208 280 342 402 494
#     4  12  30  49  80 121 166 214 279 339 423 495
#
# _framework density 25.323564000000001
#
# number of rings (size 3 to 8) (size 9 to 14) (size 15 to 20)
#    0.000    0.000    4.286    3.429   12.000    0.000 
#    0.000    0.000    0.000    0.000    0.000    0.000 
#    0.000    0.000    0.000    0.000    0.000    0.000 
#
# Total GULP energy -78202.328122 kJ/mol
# GULP energy per Si atom -5585.880580 kJ/mol
# Density = 2.526593 g / cm^3
# Si number density = 25.323564 Si / 1000 Ang^3
#
#
#
# Elastic Constant Matrix: (Units=GPa)
#
#
# Indices 1 2 3 4 5 6 
#
# 1 164.5455 10.7870 50.9605 0.0001 -0.0003 -0.0001
# 2 10.7870 87.3637 50.1828 0.0006 -0.0002 0.0003
# 3 50.9605 50.1828 157.1048 0.0001 0.0000 0.0000
# 4 0.0001 0.0006 0.0001 27.6466 -0.0001 -0.0001
# 5 -0.0003 -0.0002 0.0000 -0.0001 48.5501 0.0000
# 6 -0.0001 0.0003 0.0000 -0.0001 0.0000 47.3209
#
#
#
# Elastic Compliance Matrix: (Units=1/GPa)
#
#
# Indices 1 2 3 4 5 6 
#
# 1 0.006775 0.000522 -0.002364 0.000000 0.000000 0.000000
# 2 0.000522 0.014059 -0.004660 0.000000 0.000000 0.000000
# 3 -0.002364 -0.004660 0.008621 0.000000 0.000000 0.000000
# 4 0.000000 0.000000 0.000000 0.036171 0.000000 0.000000
# 5 0.000000 0.000000 0.000000 0.000000 0.020597 0.000000
# 6 0.000000 0.000000 0.000000 0.000000 0.000000 0.021132
#
#
# Mechanical properties :
#
#
# Convention : Reuss Voigt Hill
#
# Bulk Modulus (GPa) = 60.79266 70.31942 65.55604
# Shear Modulus (GPa) = 39.73191 44.50910 42.12051
#
# Velocity S-wave (km/s) = 3.96532 4.19694 4.08277
# Velocity P-wave (km/s) = 6.70995 7.16341 6.94039
#
# Compressibility (1/GPa) = 0.01644935
#
# Stress axis : x y z
#
# Youngs Moduli (GPa) = 147.59267 71.13046 116.00169
#
# Poissons Ratio (x) = -0.03710 0.27427
# Poissons Ratio (y) = -0.07697 0.54055
# Poissons Ratio (z) = 0.34896 0.33146
#
# Static dielectric constant tensor:
#      x y z
#    x 1.779810 0.000000 0.000000 
#    y 0.000000 2.165320 0.000000 
#    z 0.000000 0.000000 1.986230 
# 
# From -- ./inp_files/8629.got.cif
#   From: 2010.05.17/outbox.cif.g08.bks.cpg/sg43_5_cif.got.tgz:8629.got - 2010.06.03 19:21:55.
