data_PCOD9372606
_publ_section_title
;
Structure prediction by ZEFSAII (Michael W. Deem and Ramdas Pophale) SiO2 
 PCOD9372606
Probable space group: F D D 2
;
_chemical_formula_sum "Si O2"
_cell_formula_units_Z 88
_cell_length_a 33.178045
_cell_length_b 5.203454
_cell_length_c 21.131242
_cell_angle_alpha 90.000000
_cell_angle_beta 90.000000
_cell_angle_gamma 90.000000
_cell_volume 3648.106726
_symmetry_space_group_name_H-M "F D D 2"
_symmetry_group_IT_number 43
_symmetry_cell_setting 'orthorhombic'
loop_
_space_group_symop_operation_xyz
x,y,z
-x,-y,z
1/4-x,1/4+y,1/4+z
1/4+x,1/4-y,1/4+z
x,1/2+y,1/2+z
-x,1/2-y,1/2+z
1/4-x,3/4+y,3/4+z
1/4+x,3/4-y,3/4+z
1/2+x,y,1/2+z
1/2-x,-y,1/2+z
3/4-x,1/4+y,3/4+z
3/4+x,1/4-y,3/4+z
1/2+x,1/2+y,z
1/2-x,1/2-y,z
3/4-x,3/4+y,1/4+z
3/4+x,3/4-y,1/4+z
loop_
_atom_site_type_symbol
_atom_site_label
_atom_site_fract_x
_atom_site_fract_y
_atom_site_fract_z
Si Si1 0.273413 0.993810 0.388180
Si Si2 0.356125 0.282389 0.248011
Si Si3 0.401017 0.016316 0.073558
Si Si4 0.447429 0.226646 0.275331
Si Si5 0.431472 0.841330 0.380240
Si Si6 0.250000 0.750000 0.128941
O O1 0.250000 0.250000 0.368596
O O2 0.274776 0.985388 0.464237
O O3 0.250000 0.750000 0.362040
O O4 0.318508 0.925266 0.367419
O O5 0.336175 0.494427 0.293896
O O6 0.404036 0.332532 0.253044
O O7 0.334657 0.302721 0.180254
O O8 0.354387 0.981932 0.268737
O O9 0.360773 0.953115 0.113813
O O10 0.466953 0.383154 0.332020
O O11 0.443423 0.953758 0.311232
O O12 0.470936 0.708760 0.411317
#
# Coordination Sequence:
#
# PCOD9372606 Si02
#       6
#    16  16  16  16  16   8
#     4  12  25  45  74 106 146 192 253 317 373 447
#     4  11  25  46  74 104 147 201 246 306 377 471
#     4  11  25  47  72 106 145 199 250 303 383 460
#     4  11  24  43  72 108 147 188 257 312 381 440
#     4  11  25  44  73 107 150 196 254 318 382 462
#     4  12  22  44  68 116 144 192 254 326 384 442
#
# _framework density 24.122102000000002
#
# number of rings (size 3 to 8) (size 9 to 14) (size 15 to 20)
#    0.000    0.727    4.545    2.727    2.545    0.000 
#    1.636    1.818    0.000    0.000    0.000    0.000 
#    0.000    0.000    0.000    0.000    0.000    0.000 
#
# Total GULP energy -122668.904579 kJ/mol
# GULP energy per Si atom -5575.859299 kJ/mol
# Density = 2.406720 g / cm^3
# Si number density = 24.122102 Si / 1000 Ang^3
#
#
#
# Elastic Constant Matrix: (Units=GPa)
#
#
# Indices 1 2 3 4 5 6 
#
# 1 131.3861 48.9608 20.4340 -0.0021 0.0007 -0.0007
# 2 48.9608 112.9265 19.6725 -0.0027 0.0043 -0.0074
# 3 20.4340 19.6725 54.9849 -0.0002 0.0005 -0.0013
# 4 -0.0021 -0.0027 -0.0002 20.3333 0.0013 -0.0033
# 5 0.0007 0.0043 0.0005 0.0013 30.0541 -0.0049
# 6 -0.0007 -0.0074 -0.0013 -0.0033 -0.0049 38.2982
#
#
#
# Elastic Compliance Matrix: (Units=1/GPa)
#
#
# Indices 1 2 3 4 5 6 
#
# 1 0.009310 -0.003662 -0.002150 0.000000 0.000000 -0.000001
# 2 -0.003662 0.010884 -0.002533 0.000001 -0.000001 0.000002
# 3 -0.002150 -0.002533 0.019892 0.000000 0.000000 0.000000
# 4 0.000000 0.000001 0.000000 0.049180 -0.000002 0.000004
# 5 0.000000 -0.000001 0.000000 -0.000002 0.033273 0.000004
# 6 -0.000001 0.000002 0.000000 0.000004 0.000004 0.026111
#
#
# Mechanical properties :
#
#
# Convention : Reuss Voigt Hill
#
# Bulk Modulus (GPa) = 42.74147 53.04801 47.89474
# Shear Modulus (GPa) = 28.87837 31.75249 30.31543
#
# Velocity S-wave (km/s) = 3.46377 3.63205 3.54891
# Velocity P-wave (km/s) = 5.80984 6.29510 6.05733
#
# Compressibility (1/GPa) = 0.02339648
#
# Stress axis : x y z
#
# Youngs Moduli (GPa) = 107.40972 91.87501 50.27133
#
# Poissons Ratio (x) = 0.33645 0.10807
# Poissons Ratio (y) = 0.39334 0.12735
# Poissons Ratio (z) = 0.23090 0.23274
#
# Static dielectric constant tensor:
#      x y z
#    x 2.010470 0.000000 0.000000 
#    y 0.000000 2.141850 -0.000010 
#    z 0.000000 -0.000010 1.965870 
# 
# From -- ./inp_files/22942.got.cif
#   From: 2010.05.17/outbox.cif.g08.bks.cpg/sg43_12_cif.got.tgz:22942.got - 2010.06.03 19:21:55.
