data_PCOD9372039
_publ_section_title
;
Structure prediction by ZEFSAII (Michael W. Deem and Ramdas Pophale) SiO2 
 PCOD9372039
Probable space group: F D D 2
;
_chemical_formula_sum "Si O2"
_cell_formula_units_Z 104
_cell_length_a 11.011710
_cell_length_b 29.974198
_cell_length_c 15.953855
_cell_angle_alpha 90.000000
_cell_angle_beta 90.000000
_cell_angle_gamma 90.000000
_cell_volume 5265.843864
_symmetry_space_group_name_H-M "F D D 2"
_symmetry_group_IT_number 43
_symmetry_cell_setting 'orthorhombic'
loop_
_space_group_symop_operation_xyz
x,y,z
-x,-y,z
1/4-x,1/4+y,1/4+z
1/4+x,1/4-y,1/4+z
x,1/2+y,1/2+z
-x,1/2-y,1/2+z
1/4-x,3/4+y,3/4+z
1/4+x,3/4-y,3/4+z
1/2+x,y,1/2+z
1/2-x,-y,1/2+z
3/4-x,1/4+y,3/4+z
3/4+x,1/4-y,3/4+z
1/2+x,1/2+y,z
1/2-x,1/2-y,z
3/4-x,3/4+y,1/4+z
3/4+x,3/4-y,1/4+z
loop_
_atom_site_type_symbol
_atom_site_label
_atom_site_fract_x
_atom_site_fract_y
_atom_site_fract_z
Si Si1 0.241761 0.300385 0.193590
Si Si2 0.665626 0.628516 0.510645
Si Si3 0.051795 0.217469 0.058430
Si Si4 0.250000 0.750000 0.430079
Si Si5 0.481369 0.050036 0.014671
Si Si6 0.178666 0.125779 0.322672
Si Si7 0.280614 0.555379 0.382611
O O1 0.250000 0.250000 0.229542
O O2 0.343406 0.299048 0.121774
O O3 0.271705 0.336830 0.261487
O O4 0.110832 0.310991 0.154560
O O5 0.590640 0.583183 0.497501
O O6 0.713320 0.638547 0.417530
O O7 0.782985 0.623053 0.568204
O O8 0.578988 0.663756 0.557345
O O9 0.965856 0.253974 0.102209
O O10 0.976413 0.172561 0.041815
O O11 0.129721 0.243818 0.987042
O O12 0.263407 0.791622 0.365269
O O13 0.500000 0.000000 0.981243
O O14 0.360220 0.065001 0.966135
#
# Coordination Sequence:
#
# PCOD9372039 Si02
#       7
#    16  16  16   8  16  16  16
#     4  10  24  45  70  99 141 180 225 287 347 413
#     4  12  26  44  68 105 139 185 229 287 345 412
#     4  11  23  47  69 104 137 185 228 286 353 409
#     4  10  24  42  74 100 130 178 234 294 324 432
#     4  10  25  42  70 100 136 177 232 288 342 402
#     4  12  26  45  70 100 146 179 225 292 347 413
#     4  11  24  44  73  95 139 184 231 283 348 413
#
# _framework density 19.749922000000002
#
# number of rings (size 3 to 8) (size 9 to 14) (size 15 to 20)
#    0.462    0.615    5.385    0.923    6.462    2.462 
#    2.769    0.000    0.000    0.000    0.000    0.000 
#    0.000    0.000    0.000    0.000    0.000    0.000 
#
# Total GULP energy -144907.367969 kJ/mol
# GULP energy per Si atom -5573.360306 kJ/mol
# Density = 1.970497 g / cm^3
# Si number density = 19.749922 Si / 1000 Ang^3
#
#
#
# Elastic Constant Matrix: (Units=GPa)
#
#
# Indices 1 2 3 4 5 6 
#
# 1 68.2351 56.4483 11.8607 0.0000 0.0000 0.0000
# 2 56.4483 95.5198 28.6521 0.0000 0.0000 0.0000
# 3 11.8607 28.6521 92.5907 0.0000 0.0000 0.0000
# 4 0.0000 0.0000 0.0000 28.9581 0.0000 0.0000
# 5 0.0000 0.0000 0.0000 0.0000 26.0797 0.0000
# 6 0.0000 0.0000 0.0000 0.0000 0.0000 29.7790
#
#
#
# Elastic Compliance Matrix: (Units=1/GPa)
#
#
# Indices 1 2 3 4 5 6 
#
# 1 0.028927 -0.017618 0.001747 0.000000 0.000000 0.000000
# 2 -0.017618 0.022271 -0.004635 0.000000 0.000000 0.000000
# 3 0.001747 -0.004635 0.012011 0.000000 0.000000 0.000000
# 4 0.000000 0.000000 0.000000 0.034533 0.000000 0.000000
# 5 0.000000 0.000000 0.000000 0.000000 0.038344 0.000000
# 6 0.000000 0.000000 0.000000 0.000000 0.000000 0.033581
#
#
# Mechanical properties :
#
#
# Convention : Reuss Voigt Hill
#
# Bulk Modulus (GPa) = 45.05510 50.02975 47.54243
# Shear Modulus (GPa) = 22.92761 27.58897 25.25829
#
# Velocity S-wave (km/s) = 3.41089 3.74159 3.58006
# Velocity P-wave (km/s) = 6.19472 6.63721 6.41978
#
# Compressibility (1/GPa) = 0.02219504
#
# Stress axis : x y z
#
# Youngs Moduli (GPa) = 34.57021 44.90130 83.25867
#
# Poissons Ratio (x) = 0.79109 -0.14542
# Poissons Ratio (y) = 0.60907 0.38590
# Poissons Ratio (z) = -0.06038 0.20811
#
# Static dielectric constant tensor:
#      x y z
#    x 1.686730 0.000000 0.000000 
#    y 0.000000 1.704040 0.000000 
#    z 0.000000 0.000000 1.732980 
# 
# From -- ./inp_files/13430.got.cif
#   From: 2010.05.17/outbox.cif.g08.bks.cpg/sg43_7_cif.got.tgz:13430.got - 2010.06.03 19:21:55.
