data_PCOD9372738
_publ_section_title
;
Structure prediction by ZEFSAII (Michael W. Deem and Ramdas Pophale) SiO2 
 PCOD9372738
Probable space group: F D D 2
;
_chemical_formula_sum "Si O2"
_cell_formula_units_Z 64
_cell_length_a 12.807471
_cell_length_b 11.114149
_cell_length_c 16.892437
_cell_angle_alpha 90.000000
_cell_angle_beta 90.000000
_cell_angle_gamma 90.000000
_cell_volume 2404.539434
_symmetry_space_group_name_H-M "F D D 2"
_symmetry_group_IT_number 43
_symmetry_cell_setting 'orthorhombic'
loop_
_space_group_symop_operation_xyz
x,y,z
-x,-y,z
1/4-x,1/4+y,1/4+z
1/4+x,1/4-y,1/4+z
x,1/2+y,1/2+z
-x,1/2-y,1/2+z
1/4-x,3/4+y,3/4+z
1/4+x,3/4-y,3/4+z
1/2+x,y,1/2+z
1/2-x,-y,1/2+z
3/4-x,1/4+y,3/4+z
3/4+x,1/4-y,3/4+z
1/2+x,1/2+y,z
1/2-x,1/2-y,z
3/4-x,3/4+y,1/4+z
3/4+x,3/4-y,1/4+z
loop_
_atom_site_type_symbol
_atom_site_label
_atom_site_fract_x
_atom_site_fract_y
_atom_site_fract_z
Si Si1 0.657470 0.348383 0.584430
Si Si2 0.000000 0.000000 0.307676
Si Si3 0.654694 0.899194 0.430780
Si Si4 0.500000 0.500000 0.047023
Si Si5 0.606459 0.082578 0.149268
O O1 0.750000 0.250000 0.586938
O O2 0.577760 0.281715 0.645069
O O3 0.628637 0.351737 0.492746
O O4 0.684650 0.478054 0.617849
O O5 0.987790 0.892001 0.244859
O O6 0.099731 0.955509 0.358579
O O7 0.667584 0.813019 0.355107
O O8 0.553900 0.906270 0.487756
O O9 0.500000 0.000000 0.131858
#
# Coordination Sequence:
#
# PCOD9372738 Si02
#       5
#    16   8  16   8  16
#     4  11  26  48  76 111 152 205 273 339 421 505
#     4  11  30  50  78 115 166 210 278 345 424 510
#     4  11  26  48  78 112 154 214 270 341 423 509
#     4  11  26  46  82 107 160 206 276 339 422 514
#     4  11  29  50  79 115 159 211 273 346 425 509
#
# _framework density 26.616323999999999
#
# number of rings (size 3 to 8) (size 9 to 14) (size 15 to 20)
#    0.000    1.000    1.250    1.500   15.750    2.000 
#    0.000    0.000    0.000    0.000    0.000    0.000 
#    0.000    0.000    0.000    0.000    0.000    0.000 
#
# Total GULP energy -89225.422251 kJ/mol
# GULP energy per Si atom -5576.588891 kJ/mol
# Density = 2.655574 g / cm^3
# Si number density = 26.616324 Si / 1000 Ang^3
#
#
#
# Elastic Constant Matrix: (Units=GPa)
#
#
# Indices 1 2 3 4 5 6 
#
# 1 70.1543 -5.9208 26.9683 0.0000 0.0000 0.0000
# 2 -5.9208 102.1014 44.5092 0.0000 0.0000 0.0000
# 3 26.9683 44.5092 217.8956 0.0000 0.0000 0.0000
# 4 0.0000 0.0000 0.0000 39.1459 0.0000 0.0000
# 5 0.0000 0.0000 0.0000 0.0000 24.4651 0.0000
# 6 0.0000 0.0000 0.0000 0.0000 0.0000 26.7923
#
#
#
# Elastic Compliance Matrix: (Units=1/GPa)
#
#
# Indices 1 2 3 4 5 6 
#
# 1 0.015288 0.001879 -0.002276 0.000000 0.000000 0.000000
# 2 0.001879 0.010982 -0.002476 0.000000 0.000000 0.000000
# 3 -0.002276 -0.002476 0.005377 0.000000 0.000000 0.000000
# 4 0.000000 0.000000 0.000000 0.025545 0.000000 0.000000
# 5 0.000000 0.000000 0.000000 0.000000 0.040875 0.000000
# 6 0.000000 0.000000 0.000000 0.000000 0.000000 0.037324
#
#
# Mechanical properties :
#
#
# Convention : Reuss Voigt Hill
#
# Bulk Modulus (GPa) = 38.60894 57.91832 48.26363
# Shear Modulus (GPa) = 33.38430 39.72028 36.55229
#
# Velocity S-wave (km/s) = 3.54542 3.86726 3.70983
# Velocity P-wave (km/s) = 5.59440 6.46131 6.04342
#
# Compressibility (1/GPa) = 0.02590074
#
# Stress axis : x y z
#
# Youngs Moduli (GPa) = 65.41192 91.05443 185.98501
#
# Poissons Ratio (x) = -0.17106 0.42328
# Poissons Ratio (y) = -0.12289 0.46048
# Poissons Ratio (z) = 0.14887 0.22544
#
# Static dielectric constant tensor:
#      x y z
#    x 2.498620 0.000000 0.000000 
#    y 0.000000 2.172420 0.000000 
#    z 0.000000 0.000000 1.954460 
# 
# From -- ./inp_files/13698.got.cif
#   From: 2010.05.17/outbox.cif.g08.bks.cpg/sg43_7_cif.got.tgz:13698.got - 2010.06.03 19:21:55.
