data_PCOD9372400
_publ_section_title
;
Structure prediction by ZEFSAII (Michael W. Deem and Ramdas Pophale) SiO2 
 PCOD9372400
Probable space group: F D D 2
;
_chemical_formula_sum "Si O2"
_cell_formula_units_Z 80
_cell_length_a 36.589456
_cell_length_b 7.972253
_cell_length_c 12.490119
_cell_angle_alpha 90.000000
_cell_angle_beta 90.000000
_cell_angle_gamma 90.000000
_cell_volume 3643.372713
_symmetry_space_group_name_H-M "F D D 2"
_symmetry_group_IT_number 43
_symmetry_cell_setting 'orthorhombic'
loop_
_space_group_symop_operation_xyz
x,y,z
-x,-y,z
1/4-x,1/4+y,1/4+z
1/4+x,1/4-y,1/4+z
x,1/2+y,1/2+z
-x,1/2-y,1/2+z
1/4-x,3/4+y,3/4+z
1/4+x,3/4-y,3/4+z
1/2+x,y,1/2+z
1/2-x,-y,1/2+z
3/4-x,1/4+y,3/4+z
3/4+x,1/4-y,3/4+z
1/2+x,1/2+y,z
1/2-x,1/2-y,z
3/4-x,3/4+y,1/4+z
3/4+x,3/4-y,1/4+z
loop_
_atom_site_type_symbol
_atom_site_label
_atom_site_fract_x
_atom_site_fract_y
_atom_site_fract_z
Si Si1 0.959146 0.945734 0.923390
Si Si2 0.983048 0.809502 0.126879
Si Si3 0.692157 0.950516 0.958803
Si Si4 0.422220 0.924651 0.775147
Si Si5 0.090368 0.254710 0.493329
O O1 0.938397 0.911109 0.813625
O O2 0.965895 0.794708 0.008154
O O3 0.000000 0.000000 0.893103
O O4 0.937758 0.090715 0.986244
O O5 0.950582 0.806085 0.212650
O O6 0.016988 0.694070 0.158992
O O7 0.000000 0.000000 0.127454
O O8 0.686252 0.137708 0.004947
O O9 0.664537 0.924564 0.860676
O O10 0.381141 0.925306 0.729548
O O11 0.419588 0.870373 0.898029
#
# Coordination Sequence:
#
# PCOD9372400 Si02
#       5
#    16  16  16  16  16
#     4  11  21  43  68  93 130 167 216 267 317 388
#     4   9  18  39  66  87 122 168 201 258 324 368
#     4  11  23  43  66  95 127 168 218 264 321 389
#     4  11  22  43  67  88 133 172 207 269 330 376
#     4  12  22  44  63  93 132 170 213 267 326 383
#
# _framework density 21.957677
#
# number of rings (size 3 to 8) (size 9 to 14) (size 15 to 20)
#    0.000    1.200    8.000    1.200    0.000    0.000 
#   14.400    0.000    0.000    0.000    0.000    0.000 
#    0.000    0.000    0.000    0.000    0.000    0.000 
#
# Total GULP energy -111707.840613 kJ/mol
# GULP energy per Si atom -5585.392031 kJ/mol
# Density = 2.190770 g / cm^3
# Si number density = 21.957677 Si / 1000 Ang^3
#
#
#
# Elastic Constant Matrix: (Units=GPa)
#
#
# Indices 1 2 3 4 5 6 
#
# 1 102.5586 3.1901 11.9261 0.0000 0.0000 0.0000
# 2 3.1901 16.3419 6.6590 0.0000 0.0000 0.0000
# 3 11.9261 6.6590 126.7153 0.0000 0.0000 0.0000
# 4 0.0000 0.0000 0.0000 25.9993 0.0000 0.0000
# 5 0.0000 0.0000 0.0000 0.0000 35.8468 0.0000
# 6 0.0000 0.0000 0.0000 0.0000 0.0000 9.3503
#
#
#
# Elastic Compliance Matrix: (Units=1/GPa)
#
#
# Indices 1 2 3 4 5 6 
#
# 1 0.009899 -0.001587 -0.000848 0.000000 0.000000 0.000000
# 2 -0.001587 0.062786 -0.003150 0.000000 0.000000 0.000000
# 3 -0.000848 -0.003150 0.008137 0.000000 0.000000 0.000000
# 4 0.000000 0.000000 0.000000 0.038463 0.000000 0.000000
# 5 0.000000 0.000000 0.000000 0.000000 0.027896 0.000000
# 6 0.000000 0.000000 0.000000 0.000000 0.000000 0.106949
#
#
# Mechanical properties :
#
#
# Convention : Reuss Voigt Hill
#
# Bulk Modulus (GPa) = 14.35721 32.12958 23.24340
# Shear Modulus (GPa) = 17.33005 29.16199 23.24602
#
# Velocity S-wave (km/s) = 2.81240 3.64826 3.25726
# Velocity P-wave (km/s) = 4.13509 5.69304 4.97542
#
# Compressibility (1/GPa) = 0.06965139
#
# Stress axis : x y z
#
# Youngs Moduli (GPa) = 101.02522 15.92716 122.89419
#
# Poissons Ratio (x) = 0.02527 0.10424
# Poissons Ratio (y) = 0.16029 0.38713
# Poissons Ratio (z) = 0.08569 0.05017
#
# Static dielectric constant tensor:
#      x y z
#    x 1.795790 0.000000 0.000000 
#    y 0.000000 1.835390 0.000000 
#    z 0.000000 0.000000 1.830840 
# 
# From -- ./inp_files/8194.got.cif
#   From: 2010.05.17/outbox.cif.g08.bks.cpg/sg43_5_cif.got.tgz:8194.got - 2010.06.03 19:21:55.
