data_PCOD9372561
_publ_section_title
;
Structure prediction by ZEFSAII (Michael W. Deem and Ramdas Pophale) SiO2 
 PCOD9372561
Probable space group: F D D 2
;
_chemical_formula_sum "Si O2"
_cell_formula_units_Z 80
_cell_length_a 25.245252
_cell_length_b 8.005695
_cell_length_c 16.158369
_cell_angle_alpha 90.000000
_cell_angle_beta 90.000000
_cell_angle_gamma 90.000000
_cell_volume 3265.699895
_symmetry_space_group_name_H-M "F D D 2"
_symmetry_group_IT_number 43
_symmetry_cell_setting 'orthorhombic'
loop_
_space_group_symop_operation_xyz
x,y,z
-x,-y,z
1/4-x,1/4+y,1/4+z
1/4+x,1/4-y,1/4+z
x,1/2+y,1/2+z
-x,1/2-y,1/2+z
1/4-x,3/4+y,3/4+z
1/4+x,3/4-y,3/4+z
1/2+x,y,1/2+z
1/2-x,-y,1/2+z
3/4-x,1/4+y,3/4+z
3/4+x,1/4-y,3/4+z
1/2+x,1/2+y,z
1/2-x,1/2-y,z
3/4-x,3/4+y,1/4+z
3/4+x,3/4-y,1/4+z
loop_
_atom_site_type_symbol
_atom_site_label
_atom_site_fract_x
_atom_site_fract_y
_atom_site_fract_z
Si Si1 0.103703 0.821909 0.761090
Si Si2 0.675975 0.207841 0.343520
Si Si3 0.982453 0.317551 0.856710
Si Si4 0.476567 0.337524 0.019794
Si Si5 0.322350 0.576155 0.496582
O O1 0.091930 0.820478 0.663582
O O2 0.076617 0.684868 0.818400
O O3 0.165285 0.860071 0.761898
O O4 0.071659 0.989207 0.787734
O O5 0.680808 0.373381 0.400230
O O6 0.629756 0.239983 0.276189
O O7 0.723361 0.098936 0.306371
O O8 0.000000 0.500000 0.884932
O O9 0.023271 0.273101 0.782384
O O10 0.992881 0.192932 0.933177
O O11 0.500000 0.500000 0.064907
#
# Coordination Sequence:
#
# PCOD9372561 Si02
#       5
#    16  16  16  16  16
#     4   9  21  40  74  97 139 192 249 296 374 429
#     4   9  19  38  77 104 134 188 255 296 376 436
#     4  12  24  42  69 108 152 200 243 305 379 439
#     4  11  23  44  75 109 145 194 253 303 373 446
#     4   9  17  39  69  99 137 184 240 306 362 428
#
# _framework density 24.497046000000001
#
# number of rings (size 3 to 8) (size 9 to 14) (size 15 to 20)
#    1.200    0.800    2.000    1.800    2.800    0.800 
#    3.600    8.000    0.000    0.000    0.000    0.000 
#    0.000    0.000    0.000    0.000    0.000    0.000 
#
# Total GULP energy -111380.420111 kJ/mol
# GULP energy per Si atom -5569.021006 kJ/mol
# Density = 2.444129 g / cm^3
# Si number density = 24.497046 Si / 1000 Ang^3
#
#
#
# Elastic Constant Matrix: (Units=GPa)
#
#
# Indices 1 2 3 4 5 6 
#
# 1 71.7702 15.8261 48.9683 0.0000 0.0000 0.0000
# 2 15.8261 75.6348 19.4026 0.0000 0.0000 0.0000
# 3 48.9683 19.4026 103.5669 0.0000 0.0000 0.0000
# 4 0.0000 0.0000 0.0000 44.1639 0.0000 0.0000
# 5 0.0000 0.0000 0.0000 0.0000 30.1701 0.0000
# 6 0.0000 0.0000 0.0000 0.0000 0.0000 29.9066
#
#
#
# Elastic Compliance Matrix: (Units=1/GPa)
#
#
# Indices 1 2 3 4 5 6 
#
# 1 0.020832 -0.001925 -0.009489 0.000000 0.000000 0.000000
# 2 -0.001925 0.014067 -0.001725 0.000000 0.000000 0.000000
# 3 -0.009489 -0.001725 0.014466 0.000000 0.000000 0.000000
# 4 0.000000 0.000000 0.000000 0.022643 0.000000 0.000000
# 5 0.000000 0.000000 0.000000 0.000000 0.033145 0.000000
# 6 0.000000 0.000000 0.000000 0.000000 0.000000 0.033437
#
#
# Mechanical properties :
#
#
# Convention : Reuss Voigt Hill
#
# Bulk Modulus (GPa) = 43.31635 46.59620 44.95628
# Shear Modulus (GPa) = 28.97475 31.96646 30.47061
#
# Velocity S-wave (km/s) = 3.44290 3.61627 3.53065
# Velocity P-wave (km/s) = 5.79011 6.04144 5.91711
#
# Compressibility (1/GPa) = 0.02308597
#
# Stress axis : x y z
#
# Youngs Moduli (GPa) = 48.00252 71.08959 69.12994
#
# Poissons Ratio (x) = 0.13683 0.65599
# Poissons Ratio (y) = 0.09239 0.11927
# Poissons Ratio (z) = 0.45551 0.12265
#
# Static dielectric constant tensor:
#      x y z
#    x 1.980670 0.000000 0.000000 
#    y 0.000000 1.991680 0.000000 
#    z 0.000000 0.000000 1.941380 
# 
# From -- ./inp_files/14985.got.cif
#   From: 2010.05.17/outbox.cif.g08.bks.cpg/sg43_8_cif.got.tgz:14985.got - 2010.06.03 19:21:55.
