data_PCOD9372450
_publ_section_title
;
Structure prediction by ZEFSAII (Michael W. Deem and Ramdas Pophale) SiO2 
 PCOD9372450
Probable space group: F D D 2
;
_chemical_formula_sum "Si O2"
_cell_formula_units_Z 112
_cell_length_a 27.939140
_cell_length_b 27.718903
_cell_length_c 6.470013
_cell_angle_alpha 90.000000
_cell_angle_beta 90.000000
_cell_angle_gamma 90.000000
_cell_volume 5010.651824
_symmetry_space_group_name_H-M "F D D 2"
_symmetry_group_IT_number 43
_symmetry_cell_setting 'orthorhombic'
loop_
_space_group_symop_operation_xyz
x,y,z
-x,-y,z
1/4-x,1/4+y,1/4+z
1/4+x,1/4-y,1/4+z
x,1/2+y,1/2+z
-x,1/2-y,1/2+z
1/4-x,3/4+y,3/4+z
1/4+x,3/4-y,3/4+z
1/2+x,y,1/2+z
1/2-x,-y,1/2+z
3/4-x,1/4+y,3/4+z
3/4+x,1/4-y,3/4+z
1/2+x,1/2+y,z
1/2-x,1/2-y,z
3/4-x,3/4+y,1/4+z
3/4+x,3/4-y,1/4+z
loop_
_atom_site_type_symbol
_atom_site_label
_atom_site_fract_x
_atom_site_fract_y
_atom_site_fract_z
Si Si1 0.697985 0.036191 0.479360
Si Si2 0.876033 0.170423 0.070317
Si Si3 0.889038 0.373457 0.442401
Si Si4 0.284873 0.056015 0.260344
Si Si5 0.541337 0.933989 0.139153
Si Si6 0.715223 0.107145 0.086881
Si Si7 0.064685 0.045543 0.682453
O O1 0.658280 0.051715 0.648959
O O2 0.746192 0.030898 0.612698
O O3 0.711780 0.073130 0.292299
O O4 0.685829 0.985477 0.376361
O O5 0.849604 0.131064 0.932850
O O6 0.914447 0.147453 0.223306
O O7 0.836691 0.197476 0.203937
O O8 0.928688 0.335958 0.368505
O O9 0.836428 0.349979 0.444268
O O10 0.899147 0.423712 0.325018
O O11 0.254074 0.087273 0.424759
O O12 0.487715 0.931815 0.231893
O O13 0.558255 0.988006 0.191113
O O14 0.529730 0.912676 0.909834
#
# Coordination Sequence:
#
# PCOD9372450 Si02
#       7
#    16  16  16  16  16  16  16
#     4  11  22  42  69 108 145 183 234 304 369 439
#     4  11  24  43  70 100 141 187 240 297 352 437
#     4  12  26  44  71 105 137 190 247 298 362 438
#     4  11  25  39  74 107 147 189 233 311 377 428
#     4  11  25  48  75  95 151 194 232 304 363 434
#     4  11  22  46  67 103 149 184 238 293 369 439
#     4  11  26  50  68 106 144 192 244 298 363 441
#
# _framework density 22.352381000000001
#
# number of rings (size 3 to 8) (size 9 to 14) (size 15 to 20)
#    0.000    0.857    4.286    1.714    6.000    1.143 
#    2.571    1.429    0.000    0.000    0.000    0.000 
#    0.000    0.000    0.000    0.000    0.000    0.000 
#
# Total GULP energy -155982.658581 kJ/mol
# GULP energy per Si atom -5570.809235 kJ/mol
# Density = 2.230151 g / cm^3
# Si number density = 22.352381 Si / 1000 Ang^3
#
#
#
# Elastic Constant Matrix: (Units=GPa)
#
#
# Indices 1 2 3 4 5 6 
#
# 1 94.9306 31.9078 19.5323 0.0038 0.0062 -0.0232
# 2 31.9078 97.1073 21.6552 0.0144 0.0024 -0.0298
# 3 19.5323 21.6552 69.4256 0.0124 -0.0140 -0.0219
# 4 0.0038 0.0144 0.0124 29.8294 -0.0105 -0.0284
# 5 0.0062 0.0024 -0.0140 -0.0105 7.5602 0.0132
# 6 -0.0232 -0.0298 -0.0219 -0.0284 0.0132 32.5299
#
#
#
# Elastic Compliance Matrix: (Units=1/GPa)
#
#
# Indices 1 2 3 4 5 6 
#
# 1 0.012186 -0.003482 -0.002342 0.000001 -0.000013 0.000004
# 2 -0.003482 0.012063 -0.002783 -0.000004 -0.000006 0.000007
# 3 -0.002342 -0.002783 0.015931 -0.000005 0.000032 0.000006
# 4 0.000001 -0.000004 -0.000005 0.033524 0.000047 0.000029
# 5 -0.000013 -0.000006 0.000032 0.000047 0.132272 -0.000054
# 6 0.000004 0.000007 0.000006 0.000029 -0.000054 0.030741
#
#
# Mechanical properties :
#
#
# Convention : Reuss Voigt Hill
#
# Bulk Modulus (GPa) = 43.54385 45.29490 44.41937
# Shear Modulus (GPa) = 19.11411 26.54177 22.82794
#
# Velocity S-wave (km/s) = 2.92743 3.44964 3.19921
# Velocity P-wave (km/s) = 5.56321 6.01454 5.79327
#
# Compressibility (1/GPa) = 0.02296536
#
# Stress axis : x y z
#
# Youngs Moduli (GPa) = 82.05944 82.90109 62.77061
#
# Poissons Ratio (x) = 0.28865 0.14704
# Poissons Ratio (y) = 0.28572 0.17469
# Poissons Ratio (z) = 0.19222 0.23071
#
# Static dielectric constant tensor:
#      x y z
#    x 1.932020 0.000020 0.000010 
#    y 0.000020 1.904430 -0.000050 
#    z 0.000010 -0.000050 1.831800 
# 
# From -- ./inp_files/1520.got.cif
#   From: 2010.05.17/outbox.cif.g08.bks.cpg/sg43_1_cif.got.tgz:1520.got - 2010.06.03 19:21:55.
