data_PCOD9372637
_publ_section_title
;
Structure prediction by ZEFSAII (Michael W. Deem and Ramdas Pophale) SiO2 
 PCOD9372637
Probable space group: F D D 2
;
_chemical_formula_sum "Si O2"
_cell_formula_units_Z 88
_cell_length_a 21.538568
_cell_length_b 26.686088
_cell_length_c 6.579461
_cell_angle_alpha 90.000000
_cell_angle_beta 90.000000
_cell_angle_gamma 90.000000
_cell_volume 3781.743390
_symmetry_space_group_name_H-M "F D D 2"
_symmetry_group_IT_number 43
_symmetry_cell_setting 'orthorhombic'
loop_
_space_group_symop_operation_xyz
x,y,z
-x,-y,z
1/4-x,1/4+y,1/4+z
1/4+x,1/4-y,1/4+z
x,1/2+y,1/2+z
-x,1/2-y,1/2+z
1/4-x,3/4+y,3/4+z
1/4+x,3/4-y,3/4+z
1/2+x,y,1/2+z
1/2-x,-y,1/2+z
3/4-x,1/4+y,3/4+z
3/4+x,1/4-y,3/4+z
1/2+x,1/2+y,z
1/2-x,1/2-y,z
3/4-x,3/4+y,1/4+z
3/4+x,3/4-y,1/4+z
loop_
_atom_site_type_symbol
_atom_site_label
_atom_site_fract_x
_atom_site_fract_y
_atom_site_fract_z
Si Si1 0.393788 0.699695 0.479000
Si Si2 0.500000 0.000000 0.790364
Si Si3 0.648742 0.217700 0.715447
Si Si4 0.798139 0.889667 0.097071
Si Si5 0.259309 0.058257 0.484226
Si Si6 0.041116 0.098603 0.512914
O O1 0.345108 0.743933 0.526282
O O2 0.409441 0.669664 0.685435
O O3 0.456677 0.717780 0.371088
O O4 0.362189 0.661811 0.319261
O O5 0.440545 0.011036 0.646662
O O6 0.512009 0.048330 0.925316
O O7 0.667330 0.160244 0.676909
O O8 0.574253 0.220657 0.739691
O O9 0.770544 0.925561 0.270510
O O10 0.741017 0.867651 0.967652
O O11 0.277365 0.109746 0.596661
#
# Coordination Sequence:
#
# PCOD9372637 Si02
#       6
#    16   8  16  16  16  16
#     4  11  27  43  73 107 143 189 246 303 374 441
#     4  12  26  44  76 108 144 196 250 306 372 440
#     4  12  26  45  75 103 148 192 243 309 366 453
#     4  11  24  49  72 107 142 196 241 306 380 443
#     4  11  26  46  72 103 148 191 240 302 374 444
#     4  11  24  46  72 103 142 186 244 301 363 443
#
# _framework density 23.269691999999999
#
# number of rings (size 3 to 8) (size 9 to 14) (size 15 to 20)
#    0.000    0.727    1.818    4.364   10.182    0.000 
#    3.273    0.000    0.000    0.000    0.000    0.000 
#    0.000    0.000    0.000    0.000    0.000    0.000 
#
# Total GULP energy -123131.122728 kJ/mol
# GULP energy per Si atom -5596.869215 kJ/mol
# Density = 2.321673 g / cm^3
# Si number density = 23.269692 Si / 1000 Ang^3
#
#
#
# Elastic Constant Matrix: (Units=GPa)
#
#
# Indices 1 2 3 4 5 6 
#
# 1 93.9466 14.9609 40.4752 0.0111 -0.0523 -0.0194
# 2 14.9609 91.3521 32.5707 -0.0115 0.0105 0.0020
# 3 40.4752 32.5707 106.5648 -0.0052 -0.0463 -0.0128
# 4 0.0111 -0.0115 -0.0052 18.4515 0.0211 0.0051
# 5 -0.0523 0.0105 -0.0463 0.0211 8.9052 -0.0011
# 6 -0.0194 0.0020 -0.0128 0.0051 -0.0011 41.5260
#
#
#
# Elastic Compliance Matrix: (Units=1/GPa)
#
#
# Indices 1 2 3 4 5 6 
#
# 1 0.012740 -0.000405 -0.004715 -0.000009 0.000051 0.000005
# 2 -0.000405 0.012298 -0.003605 0.000007 -0.000036 -0.000002
# 3 -0.004715 -0.003605 0.012277 0.000004 0.000040 0.000002
# 4 -0.000009 0.000007 0.000004 0.054196 -0.000128 -0.000007
# 5 0.000051 -0.000036 0.000040 -0.000128 0.112295 0.000003
# 6 0.000005 -0.000002 0.000002 -0.000007 0.000003 0.024081
#
#
# Mechanical properties :
#
#
# Convention : Reuss Voigt Hill
#
# Bulk Modulus (GPa) = 50.34097 51.98636 51.16367
# Shear Modulus (GPa) = 19.84440 27.36699 23.60570
#
# Velocity S-wave (km/s) = 2.92344 3.43312 3.18848
# Velocity P-wave (km/s) = 5.75118 6.17288 5.96575
#
# Compressibility (1/GPa) = 0.01986453
#
# Stress axis : x y z
#
# Youngs Moduli (GPa) = 78.49086 81.31170 81.45528
#
# Poissons Ratio (x) = 0.03296 0.38407
# Poissons Ratio (y) = 0.03182 0.29364
# Poissons Ratio (z) = 0.37009 0.29312
#
# Static dielectric constant tensor:
#      x y z
#    x 1.895760 0.000010 0.000010 
#    y 0.000010 1.892560 0.000000 
#    z 0.000010 0.000000 1.888730 
# 
# From -- ./inp_files/1021.got.cif
#   From: 2010.05.17/outbox.cif.g08.bks.cpg/sg43_1_cif.got.tgz:1021.got - 2010.06.03 19:21:55.
