data_PCOD9372711
_publ_section_title
;
Structure prediction by ZEFSAII (Michael W. Deem and Ramdas Pophale) SiO2 
 PCOD9372711
Probable space group: F D D 2
;
_chemical_formula_sum "Si O2"
_cell_formula_units_Z 64
_cell_length_a 17.581185
_cell_length_b 9.768525
_cell_length_c 16.139117
_cell_angle_alpha 90.000000
_cell_angle_beta 90.000000
_cell_angle_gamma 90.000000
_cell_volume 2771.768189
_symmetry_space_group_name_H-M "F D D 2"
_symmetry_group_IT_number 43
_symmetry_cell_setting 'orthorhombic'
loop_
_space_group_symop_operation_xyz
x,y,z
-x,-y,z
1/4-x,1/4+y,1/4+z
1/4+x,1/4-y,1/4+z
x,1/2+y,1/2+z
-x,1/2-y,1/2+z
1/4-x,3/4+y,3/4+z
1/4+x,3/4-y,3/4+z
1/2+x,y,1/2+z
1/2-x,-y,1/2+z
3/4-x,1/4+y,3/4+z
3/4+x,1/4-y,3/4+z
1/2+x,1/2+y,z
1/2-x,1/2-y,z
3/4-x,3/4+y,1/4+z
3/4+x,3/4-y,1/4+z
loop_
_atom_site_type_symbol
_atom_site_label
_atom_site_fract_x
_atom_site_fract_y
_atom_site_fract_z
Si Si1 0.836267 0.800355 0.953170
Si Si2 0.318849 0.353153 0.590648
Si Si3 0.928599 0.629911 0.647760
Si Si4 0.850689 0.084935 0.875493
O O1 0.750000 0.750000 0.930841
O O2 0.901985 0.723364 0.900679
O O3 0.848271 0.963118 0.941368
O O4 0.852330 0.776392 0.049303
O O5 0.250000 0.250000 0.614168
O O6 0.308649 0.404376 0.496463
O O7 0.387426 0.247626 0.598812
O O8 0.877981 0.490917 0.646876
O O9 0.012066 0.634795 0.607676
#
# Coordination Sequence:
#
# PCOD9372711 Si02
#       4
#    16  16  16  16
#     4  12  27  48  74 109 147 192 250 307 371 438
#     4  12  26  46  75 106 148 195 241 305 371 443
#     4  11  25  47  70 104 147 191 247 293 374 439
#     4  11  25  47  70 105 145 187 243 305 357 442
#
# _framework density 23.089953999999999
#
# number of rings (size 3 to 8) (size 9 to 14) (size 15 to 20)
#    0.000    0.500    5.000    3.000    3.500    2.000 
#    4.500    0.000    0.000    0.000    0.000    0.000 
#    0.000    0.000    0.000    0.000    0.000    0.000 
#
# Total GULP energy -89182.336452 kJ/mol
# GULP energy per Si atom -5573.896028 kJ/mol
# Density = 2.303740 g / cm^3
# Si number density = 23.089954 Si / 1000 Ang^3
#
#
#
# Elastic Constant Matrix: (Units=GPa)
#
#
# Indices 1 2 3 4 5 6 
#
# 1 61.4091 -2.4998 15.3480 0.0000 0.0000 0.0000
# 2 -2.4998 63.7830 15.3573 0.0000 0.0000 0.0000
# 3 15.3480 15.3573 64.4415 0.0000 0.0000 0.0000
# 4 0.0000 0.0000 0.0000 18.8888 0.0000 0.0000
# 5 0.0000 0.0000 0.0000 0.0000 26.1482 0.0000
# 6 0.0000 0.0000 0.0000 0.0000 0.0000 31.0684
#
#
#
# Elastic Compliance Matrix: (Units=1/GPa)
#
#
# Indices 1 2 3 4 5 6 
#
# 1 0.017506 0.001793 -0.004597 0.000000 0.000000 0.000000
# 2 0.001793 0.016816 -0.004435 0.000000 0.000000 0.000000
# 3 -0.004597 -0.004435 0.017670 0.000000 0.000000 0.000000
# 4 0.000000 0.000000 0.000000 0.052941 0.000000 0.000000
# 5 0.000000 0.000000 0.000000 0.000000 0.038243 0.000000
# 6 0.000000 0.000000 0.000000 0.000000 0.000000 0.032187
#
#
# Mechanical properties :
#
#
# Convention : Reuss Voigt Hill
#
# Bulk Modulus (GPa) = 26.65596 27.33830 26.99713
# Shear Modulus (GPa) = 24.71021 25.98295 25.34658
#
# Velocity S-wave (km/s) = 3.27490 3.35818 3.31680
# Velocity P-wave (km/s) = 5.08620 5.18672 5.13671
#
# Compressibility (1/GPa) = 0.03751506
#
# Stress axis : x y z
#
# Youngs Moduli (GPa) = 57.12303 59.46668 56.59452
#
# Poissons Ratio (x) = -0.10662 0.26015
# Poissons Ratio (y) = -0.10241 0.25097
# Poissons Ratio (z) = 0.26258 0.26371
#
# Static dielectric constant tensor:
#      x y z
#    x 1.962100 0.000000 0.000000 
#    y 0.000000 2.046230 0.000000 
#    z 0.000000 0.000000 1.842360 
# 
# From -- ./inp_files/9380.got.cif
#   From: 2010.05.17/outbox.cif.g08.bks.cpg/sg43_5_cif.got.tgz:9380.got - 2010.06.03 19:21:55.
