data_PCOD9372194
_publ_section_title
;
Structure prediction by ZEFSAII (Michael W. Deem and Ramdas Pophale) SiO2 
 PCOD9372194
Probable space group: F D D 2
;
_chemical_formula_sum "Si O2"
_cell_formula_units_Z 72
_cell_length_a 14.173807
_cell_length_b 30.831282
_cell_length_c 6.959140
_cell_angle_alpha 90.000000
_cell_angle_beta 90.000000
_cell_angle_gamma 90.000000
_cell_volume 3041.120802
_symmetry_space_group_name_H-M "F D D 2"
_symmetry_group_IT_number 43
_symmetry_cell_setting 'orthorhombic'
loop_
_space_group_symop_operation_xyz
x,y,z
-x,-y,z
1/4-x,1/4+y,1/4+z
1/4+x,1/4-y,1/4+z
x,1/2+y,1/2+z
-x,1/2-y,1/2+z
1/4-x,3/4+y,3/4+z
1/4+x,3/4-y,3/4+z
1/2+x,y,1/2+z
1/2-x,-y,1/2+z
3/4-x,1/4+y,3/4+z
3/4+x,1/4-y,3/4+z
1/2+x,1/2+y,z
1/2-x,1/2-y,z
3/4-x,3/4+y,1/4+z
3/4+x,3/4-y,1/4+z
loop_
_atom_site_type_symbol
_atom_site_label
_atom_site_fract_x
_atom_site_fract_y
_atom_site_fract_z
Si Si1 0.597569 0.687994 0.428140
Si Si2 0.797062 0.136623 0.441641
Si Si3 0.400594 0.317429 0.970305
Si Si4 0.250000 0.250000 0.356717
Si Si5 0.595543 0.777216 0.041542
O O1 0.586954 0.640763 0.516110
O O2 0.581175 0.684354 0.198830
O O3 0.699212 0.710283 0.461951
O O4 0.517128 0.716755 0.532134
O O5 0.698084 0.160211 0.420472
O O6 0.780993 0.100106 0.608332
O O7 0.868298 0.175896 0.478112
O O8 0.391063 0.266685 0.918404
O O9 0.337054 0.231907 0.226527
#
# Coordination Sequence:
#
# PCOD9372194 Si02
#       5
#    16  16  16   8  16
#     4  11  26  46  78 113 145 207 253 308 396 456
#     4  12  24  48  73 111 151 194 257 309 382 464
#     4  11  27  47  75 105 158 196 245 335 368 457
#     4  10  24  52  74 106 164 194 248 338 372 452
#     4  11  23  48  74 110 148 202 254 305 391 453
#
# _framework density 23.675481000000001
#
# number of rings (size 3 to 8) (size 9 to 14) (size 15 to 20)
#    0.000    0.889    6.667    0.000    9.333    0.000 
#    4.000    2.222    0.000    0.000    0.000    0.000 
#    0.000    0.000    0.000    0.000    0.000    0.000 
#
# Total GULP energy -100441.424451 kJ/mol
# GULP energy per Si atom -5580.079136 kJ/mol
# Density = 2.362159 g / cm^3
# Si number density = 23.675481 Si / 1000 Ang^3
#
#
#
# Elastic Constant Matrix: (Units=GPa)
#
#
# Indices 1 2 3 4 5 6 
#
# 1 88.7911 53.4499 26.6854 0.0000 0.0038 0.0000
# 2 53.4499 191.6074 34.0158 0.0000 -0.0010 0.0000
# 3 26.6854 34.0158 92.5646 0.0000 0.0074 0.0000
# 4 0.0000 0.0000 0.0000 -31.5844 0.0007 0.0000
# 5 0.0038 -0.0010 0.0074 0.0007-7329.9332 0.0008
# 6 0.0000 0.0000 0.0000 0.0000 0.0008 57.0882
#
#
#
# Elastic Compliance Matrix: (Units=1/GPa)
#
#
# Indices 1 2 3 4 5 6 
#
# 1 0.014192 -0.003458 -0.002821 0.000000 0.000000 0.000000
# 2 -0.003458 0.006426 -0.001364 0.000000 0.000000 0.000000
# 3 -0.002821 -0.001364 0.012118 0.000000 0.000000 0.000000
# 4 0.000000 0.000000 0.000000 -0.031661 0.000000 0.000000
# 5 0.000000 0.000000 0.000000 0.000000 -0.000136 0.000000
# 6 0.000000 0.000000 0.000000 0.000000 0.000000 0.017517
#
#
# Mechanical properties :
#
#
# Convention : Reuss Voigt Hill
#
# Bulk Modulus (GPa) = 57.30915 66.80725 62.05820
# Shear Modulus (GPa) = 126.39883 -1443.63176 -658.61646
#
# Velocity S-wave (km/s) = 7.31464 -24.72007 -16.69697
# Velocity P-wave (km/s) = 9.77739 28.04455 18.58628
#
# Compressibility (1/GPa) = 0.01744922
#
# Stress axis : x y z
#
# Youngs Moduli (GPa) = 70.46324 155.62017 82.52313
#
# Poissons Ratio (x) = 0.53816 0.23276
# Poissons Ratio (y) = 0.24367 0.11260
# Poissons Ratio (z) = 0.19874 0.21234
#
# Static dielectric constant tensor:
#      x y z
#    x 1.997100 0.000000 0.000000 
#    y 0.000000 1.939280 0.000000 
#    z 0.000000 0.000000 1.996500 
# 
# From -- ./inp_files/2315.got.cif
#   From: 2010.05.17/outbox.cif.g08.bks.cpg/sg43_2_cif.got.tgz:2315.got - 2010.06.03 19:21:55.
