data_PCOD9372405
_publ_section_title
;
Structure prediction by ZEFSAII (Michael W. Deem and Ramdas Pophale) SiO2 
 PCOD9372405
Probable space group: F D D 2
;
_chemical_formula_sum "Si O2"
_cell_formula_units_Z 120
_cell_length_a 23.631245
_cell_length_b 22.690148
_cell_length_c 9.275889
_cell_angle_alpha 90.000000
_cell_angle_beta 90.000000
_cell_angle_gamma 90.000000
_cell_volume 4973.698720
_symmetry_space_group_name_H-M "F D D 2"
_symmetry_group_IT_number 43
_symmetry_cell_setting 'orthorhombic'
loop_
_space_group_symop_operation_xyz
x,y,z
-x,-y,z
1/4-x,1/4+y,1/4+z
1/4+x,1/4-y,1/4+z
x,1/2+y,1/2+z
-x,1/2-y,1/2+z
1/4-x,3/4+y,3/4+z
1/4+x,3/4-y,3/4+z
1/2+x,y,1/2+z
1/2-x,-y,1/2+z
3/4-x,1/4+y,3/4+z
3/4+x,1/4-y,3/4+z
1/2+x,1/2+y,z
1/2-x,1/2-y,z
3/4-x,3/4+y,1/4+z
3/4+x,3/4-y,1/4+z
loop_
_atom_site_type_symbol
_atom_site_label
_atom_site_fract_x
_atom_site_fract_y
_atom_site_fract_z
Si Si1 0.709331 0.353599 0.922040
Si Si2 0.731310 0.556247 0.899908
Si Si3 0.375565 0.964711 0.523264
Si Si4 0.697324 0.449436 0.689445
Si Si5 0.925263 0.823213 0.430049
Si Si6 0.250000 0.750000 0.280395
Si Si7 0.068455 0.898797 0.356216
Si Si8 0.355979 0.715928 0.449108
O O1 0.677357 0.293695 0.882719
O O2 0.699243 0.388320 0.772810
O O3 0.672538 0.379186 0.053734
O O4 0.773137 0.362750 0.976315
O O5 0.718661 0.494726 0.814768
O O6 0.767872 0.585250 0.771284
O O7 0.673019 0.582029 0.968588
O O8 0.770201 0.550931 0.039771
O O9 0.402720 0.977414 0.368622
O O10 0.333435 0.012349 0.594565
O O11 0.636436 0.474379 0.648536
O O12 0.874327 0.823524 0.539222
O O13 0.214705 0.700224 0.193272
O O14 0.296138 0.713092 0.371857
O O15 0.098522 0.837522 0.417416
#
# Coordination Sequence:
#
# PCOD9372405 Si02
#       8
#    16  16  16  16  16   8  16  16
#     4  12  26  46  70 113 149 203 254 326 393 486
#     4  11  21  43  73 102 141 191 245 321 382 462
#     4  11  26  45  73 110 149 198 258 320 407 474
#     4  11  22  44  73 107 148 192 255 323 388 474
#     4  12  25  47  74 106 152 190 257 326 390 487
#     4  12  28  54  80 114 172 210 268 356 412 490
#     4  12  28  48  78 112 155 211 270 320 421 491
#     4  11  26  48  76 113 156 207 269 333 414 496
#
# _framework density 24.126912999999998
#
# number of rings (size 3 to 8) (size 9 to 14) (size 15 to 20)
#    0.000    0.533    4.000    4.800    5.600    2.133 
#    0.000    0.000    0.000    0.000    0.000    0.000 
#    0.000    0.000    0.000    0.000    0.000    0.000 
#
# Total GULP energy -167102.226860 kJ/mol
# GULP energy per Si atom -5570.074229 kJ/mol
# Density = 2.407200 g / cm^3
# Si number density = 24.126913 Si / 1000 Ang^3
#
#
#
# Elastic Constant Matrix: (Units=GPa)
#
#
# Indices 1 2 3 4 5 6 
#
# 1 117.5323 7.7982 33.8107 -0.0002 0.0002 0.0001
# 2 7.7982 52.0884 5.4963 -0.0001 0.0001 0.0000
# 3 33.8107 5.4963 87.8160 -0.0002 0.0000 0.0000
# 4 -0.0002 -0.0001 -0.0002 34.2484 0.0000 0.0000
# 5 0.0002 0.0001 0.0000 0.0000 46.1447 0.0001
# 6 0.0001 0.0000 0.0000 0.0000 0.0001 34.0577
#
#
#
# Elastic Compliance Matrix: (Units=1/GPa)
#
#
# Indices 1 2 3 4 5 6 
#
# 1 0.009625 -0.001057 -0.003640 0.000000 0.000000 0.000000
# 2 -0.001057 0.019442 -0.000810 0.000000 0.000000 0.000000
# 3 -0.003640 -0.000810 0.012840 0.000000 0.000000 0.000000
# 4 0.000000 0.000000 0.000000 0.029198 0.000000 0.000000
# 5 0.000000 0.000000 0.000000 0.000000 0.021671 0.000000
# 6 0.000000 0.000000 0.000000 0.000000 0.000000 0.029362
#
#
# Mechanical properties :
#
#
# Convention : Reuss Voigt Hill
#
# Bulk Modulus (GPa) = 32.36930 39.07190 35.72060
# Shear Modulus (GPa) = 34.85548 36.91225 35.88386
#
# Velocity S-wave (km/s) = 3.80501 3.91566 3.86073
# Velocity P-wave (km/s) = 5.72272 6.05580 5.89161
#
# Compressibility (1/GPa) = 0.03089347
#
# Stress axis : x y z
#
# Youngs Moduli (GPa) = 103.89071 51.43552 77.88445
#
# Poissons Ratio (x) = 0.05437 0.28349
# Poissons Ratio (y) = 0.10981 0.06308
# Poissons Ratio (z) = 0.37814 0.04166
#
# Static dielectric constant tensor:
#      x y z
#    x 1.982300 0.000000 0.000000 
#    y 0.000000 2.046580 0.000000 
#    z 0.000000 0.000000 1.914600 
# 
# From -- ./inp_files/3890.got.cif
#   From: 2010.05.17/outbox.cif.g08.bks.cpg/sg43_2_cif.got.tgz:3890.got - 2010.06.03 19:21:55.
