data_PCOD9372266
_publ_section_title
;
Structure prediction by ZEFSAII (Michael W. Deem and Ramdas Pophale) SiO2 
 PCOD9372266
Probable space group: F D D 2
;
_chemical_formula_sum "Si O2"
_cell_formula_units_Z 40
_cell_length_a 8.207873
_cell_length_b 10.799052
_cell_length_c 19.201223
_cell_angle_alpha 90.000000
_cell_angle_beta 90.000000
_cell_angle_gamma 90.000000
_cell_volume 1701.943552
_symmetry_space_group_name_H-M "F D D 2"
_symmetry_group_IT_number 43
_symmetry_cell_setting 'orthorhombic'
loop_
_space_group_symop_operation_xyz
x,y,z
-x,-y,z
1/4-x,1/4+y,1/4+z
1/4+x,1/4-y,1/4+z
x,1/2+y,1/2+z
-x,1/2-y,1/2+z
1/4-x,3/4+y,3/4+z
1/4+x,3/4-y,3/4+z
1/2+x,y,1/2+z
1/2-x,-y,1/2+z
3/4-x,1/4+y,3/4+z
3/4+x,1/4-y,3/4+z
1/2+x,1/2+y,z
1/2-x,1/2-y,z
3/4-x,3/4+y,1/4+z
3/4+x,3/4-y,1/4+z
loop_
_atom_site_type_symbol
_atom_site_label
_atom_site_fract_x
_atom_site_fract_y
_atom_site_fract_z
Si Si1 0.329014 0.021296 0.505440
Si Si2 0.816225 0.611469 0.658702
Si Si3 0.000000 0.500000 0.225031
O O1 0.259435 0.881708 0.514219
O O2 0.212552 0.114625 0.463234
O O3 0.500000 0.000000 0.466816
O O4 0.364006 0.075837 0.581031
O O5 0.750000 0.750000 0.653319
O O6 0.667884 0.522308 0.682225
#
# Coordination Sequence:
#
# PCOD9372266 Si02
#       3
#    16  16   8
#     4  11  27  46  75 109 152 197 252 312 382 456
#     4  10  26  49  74 109 152 197 254 317 377 457
#     4  10  26  46  74 106 150 196 252 316 378 454
#
# _framework density 23.50254
#
# number of rings (size 3 to 8) (size 9 to 14) (size 15 to 20)
#    0.000    1.600    0.000    0.000   19.600    3.200 
#    0.000    0.000    0.000    0.000    0.000    0.000 
#    0.000    0.000    0.000    0.000    0.000    0.000 
#
# Total GULP energy -55813.361183 kJ/mol
# GULP energy per Si atom -5581.336118 kJ/mol
# Density = 2.344905 g / cm^3
# Si number density = 23.502540 Si / 1000 Ang^3
#
#
#
# Elastic Constant Matrix: (Units=GPa)
#
#
# Indices 1 2 3 4 5 6 
#
# 1 167.8769 44.9907 67.8530 0.0000 0.0000 0.0000
# 2 44.9907 165.5976 55.5295 0.0000 0.0000 0.0000
# 3 67.8530 55.5295 127.4418 0.0000 0.0000 0.0000
# 4 0.0000 0.0000 0.0000 18.3894 0.0000 0.0000
# 5 0.0000 0.0000 0.0000 0.0000 39.0296 0.0000
# 6 0.0000 0.0000 0.0000 0.0000 0.0000 43.3527
#
#
#
# Elastic Compliance Matrix: (Units=1/GPa)
#
#
# Indices 1 2 3 4 5 6 
#
# 1 0.007688 -0.000839 -0.003728 0.000000 0.000000 0.000000
# 2 -0.000839 0.007164 -0.002675 0.000000 0.000000 0.000000
# 3 -0.003728 -0.002675 0.010997 0.000000 0.000000 0.000000
# 4 0.000000 0.000000 0.000000 0.054379 0.000000 0.000000
# 5 0.000000 0.000000 0.000000 0.000000 0.025622 0.000000
# 6 0.000000 0.000000 0.000000 0.000000 0.000000 0.023067
#
#
# Mechanical properties :
#
#
# Convention : Reuss Voigt Hill
#
# Bulk Modulus (GPa) = 87.98218 88.62920 88.30569
# Shear Modulus (GPa) = 33.97019 39.65721 36.81370
#
# Velocity S-wave (km/s) = 3.80595 4.11220 3.96203
# Velocity P-wave (km/s) = 7.53857 7.76784 7.65406
#
# Compressibility (1/GPa) = 0.01136594
#
# Stress axis : x y z
#
# Youngs Moduli (GPa) = 130.06765 139.59598 90.93352
#
# Poissons Ratio (x) = 0.11708 0.33900
# Poissons Ratio (y) = 0.10909 0.24323
# Poissons Ratio (z) = 0.48489 0.37339
#
# Static dielectric constant tensor:
#      x y z
#    x 2.030180 0.000000 0.000000 
#    y 0.000000 1.904660 0.000000 
#    z 0.000000 0.000000 1.819360 
# 
# From -- ./inp_files/8761.got.cif
#   From: 2010.05.17/outbox.cif.g08.bks.cpg/sg43_5_cif.got.tgz:8761.got - 2010.06.03 19:21:55.
