data_PCOD9372345
_publ_section_title
;
Structure prediction by ZEFSAII (Michael W. Deem and Ramdas Pophale) SiO2 
 PCOD9372345
Probable space group: F D D 2
;
_chemical_formula_sum "Si O2"
_cell_formula_units_Z 112
_cell_length_a 23.194748
_cell_length_b 16.128047
_cell_length_c 13.443470
_cell_angle_alpha 90.000000
_cell_angle_beta 90.000000
_cell_angle_gamma 90.000000
_cell_volume 5029.013729
_symmetry_space_group_name_H-M "F D D 2"
_symmetry_group_IT_number 43
_symmetry_cell_setting 'orthorhombic'
loop_
_space_group_symop_operation_xyz
x,y,z
-x,-y,z
1/4-x,1/4+y,1/4+z
1/4+x,1/4-y,1/4+z
x,1/2+y,1/2+z
-x,1/2-y,1/2+z
1/4-x,3/4+y,3/4+z
1/4+x,3/4-y,3/4+z
1/2+x,y,1/2+z
1/2-x,-y,1/2+z
3/4-x,1/4+y,3/4+z
3/4+x,1/4-y,3/4+z
1/2+x,1/2+y,z
1/2-x,1/2-y,z
3/4-x,3/4+y,1/4+z
3/4+x,3/4-y,1/4+z
loop_
_atom_site_type_symbol
_atom_site_label
_atom_site_fract_x
_atom_site_fract_y
_atom_site_fract_z
Si Si1 0.750000 0.250000 0.692621
Si Si2 0.882848 0.299212 0.095243
Si Si3 0.696700 0.908133 0.298122
Si Si4 0.819994 0.149643 0.186263
Si Si5 0.510316 0.747871 0.712507
Si Si6 0.313220 0.846540 0.526177
Si Si7 0.500000 0.500000 0.601412
Si Si8 0.200395 0.564665 0.150800
O O1 0.731340 0.329517 0.756271
O O2 0.702137 0.215157 0.616239
O O3 0.850765 0.212329 0.111004
O O4 0.886661 0.332013 0.982595
O O5 0.848610 0.366090 0.163093
O O6 0.949010 0.292292 0.129022
O O7 0.720379 0.936045 0.405795
O O8 0.630007 0.884933 0.287359
O O9 0.701249 0.991491 0.230372
O O10 0.793312 0.201347 0.278889
O O11 0.763123 0.106473 0.143632
O O12 0.472840 0.681367 0.772949
O O13 0.557483 0.779246 0.790751
O O14 0.291379 0.802929 0.424386
#
# Coordination Sequence:
#
# PCOD9372345 Si02
#       8
#     8  16  16  16  16  16   8  16
#     4  11  26  48  69 106 142 192 241 288 357 442
#     4  12  24  44  73 108 144 184 233 306 368 431
#     4  12  26  48  72 101 151 191 242 303 361 427
#     4  12  24  44  71 105 145 184 236 297 370 430
#     4  12  26  46  70 108 139 189 245 299 364 438
#     4  11  24  43  73 102 138 188 244 297 358 422
#     4  11  20  38  71 106 132 166 235 300 359 412
#     4  12  25  46  74 105 141 189 247 302 360 436
#
# _framework density 22.270766999999999
#
# number of rings (size 3 to 8) (size 9 to 14) (size 15 to 20)
#    0.000    0.286    7.143    1.714    2.000    0.000 
#   10.286    0.000    0.000    0.000    0.000    0.000 
#    0.000    0.000    0.000    0.000    0.000    0.000 
#
# Total GULP energy -156497.900601 kJ/mol
# GULP energy per Si atom -5589.210736 kJ/mol
# Density = 2.222008 g / cm^3
# Si number density = 22.270767 Si / 1000 Ang^3
#
#
#
# Elastic Constant Matrix: (Units=GPa)
#
#
# Indices 1 2 3 4 5 6 
#
# 1 67.9866 15.7626 -23.9590 0.0000 0.0000 0.0000
# 2 15.7626 70.7473 -5.4935 0.0000 0.0000 0.0000
# 3 -23.9590 -5.4935 23.5817 0.0000 0.0000 0.0000
# 4 0.0000 0.0000 0.0000 30.2284 0.0000 0.0000
# 5 0.0000 0.0000 0.0000 0.0000 22.8561 0.0000
# 6 0.0000 0.0000 0.0000 0.0000 0.0000 33.8878
#
#
#
# Elastic Compliance Matrix: (Units=1/GPa)
#
#
# Indices 1 2 3 4 5 6 
#
# 1 0.023724 -0.003477 0.023293 0.000000 0.000000 0.000000
# 2 -0.003477 0.014905 -0.000060 0.000000 0.000000 0.000000
# 3 0.023293 -0.000060 0.066058 0.000000 0.000000 0.000000
# 4 0.000000 0.000000 0.000000 0.033081 0.000000 0.000000
# 5 0.000000 0.000000 0.000000 0.000000 0.043752 0.000000
# 6 0.000000 0.000000 0.000000 0.000000 0.000000 0.029509
#
#
# Mechanical properties :
#
#
# Convention : Reuss Voigt Hill
#
# Bulk Modulus (GPa) = 6.93490 14.99285 10.96387
# Shear Modulus (GPa) = 22.77044 29.12817 25.94930
#
# Velocity S-wave (km/s) = 3.20102 3.62043 3.41717
# Velocity P-wave (km/s) = 4.09667 4.92172 4.52803
#
# Compressibility (1/GPa) = 0.14419816
#
# Stress axis : x y z
#
# Youngs Moduli (GPa) = 42.15202 67.09251 15.13826
#
# Poissons Ratio (x) = 0.23328 -0.35262
# Poissons Ratio (y) = 0.14656 0.00091
# Poissons Ratio (z) = -0.98186 0.00405
#
# Static dielectric constant tensor:
#      x y z
#    x 1.784160 0.000000 0.000000 
#    y 0.000000 1.868620 0.000000 
#    z 0.000000 0.000000 1.858150 
# 
# From -- ./inp_files/11297.got.cif
#   From: 2010.05.17/outbox.cif.g08.bks.cpg/sg43_6_cif.got.tgz:11297.got - 2010.06.03 19:21:55.
