data_PCOD9372542
_publ_section_title
;
Structure prediction by ZEFSAII (Michael W. Deem and Ramdas Pophale) SiO2 
 PCOD9372542
Probable space group: F D D 2
;
_chemical_formula_sum "Si O2"
_cell_formula_units_Z 120
_cell_length_a 29.739798
_cell_length_b 10.968890
_cell_length_c 15.366194
_cell_angle_alpha 90.000000
_cell_angle_beta 90.000000
_cell_angle_gamma 90.000000
_cell_volume 5012.645680
_symmetry_space_group_name_H-M "F D D 2"
_symmetry_group_IT_number 43
_symmetry_cell_setting 'orthorhombic'
loop_
_space_group_symop_operation_xyz
x,y,z
-x,-y,z
1/4-x,1/4+y,1/4+z
1/4+x,1/4-y,1/4+z
x,1/2+y,1/2+z
-x,1/2-y,1/2+z
1/4-x,3/4+y,3/4+z
1/4+x,3/4-y,3/4+z
1/2+x,y,1/2+z
1/2-x,-y,1/2+z
3/4-x,1/4+y,3/4+z
3/4+x,1/4-y,3/4+z
1/2+x,1/2+y,z
1/2-x,1/2-y,z
3/4-x,3/4+y,1/4+z
3/4+x,3/4-y,1/4+z
loop_
_atom_site_type_symbol
_atom_site_label
_atom_site_fract_x
_atom_site_fract_y
_atom_site_fract_z
Si Si1 0.162587 0.791867 0.040870
Si Si2 0.965702 0.943469 0.666444
Si Si3 0.039880 0.838435 0.524031
Si Si4 0.644356 0.673727 0.155652
Si Si5 0.724505 0.634479 0.266334
Si Si6 0.250000 0.750000 0.125083
Si Si7 0.079822 0.322564 0.672463
Si Si8 0.125997 0.437982 0.216508
O O1 0.213194 0.820412 0.069425
O O2 0.126407 0.805858 0.118852
O O3 0.148494 0.875696 0.959379
O O4 0.161643 0.650749 0.008523
O O5 0.947456 0.804129 0.681523
O O6 0.016323 0.909939 0.606383
O O7 0.914667 0.003069 0.662362
O O8 0.000000 0.000000 0.739634
O O9 0.089814 0.789245 0.505761
O O10 0.009957 0.720036 0.523410
O O11 0.028709 0.918366 0.440451
O O12 0.684426 0.602975 0.202485
O O13 0.643774 0.636713 0.056363
O O14 0.647724 0.820560 0.169073
O O15 0.750000 0.750000 0.232864
O O16 0.701208 0.655502 0.359313
#
# Coordination Sequence:
#
# PCOD9372542 Si02
#       8
#    16  16  16  16  16   8  16  16
#     4  11  28  46  75 108 150 195 260 314 386 457
#     4  12  26  47  74 104 149 199 246 312 387 459
#     4  12  25  47  73 109 151 198 253 319 387 467
#     4  11  25  46  71 108 144 197 250 316 379 464
#     4  11  23  43  74 103 147 195 250 310 384 451
#     4  12  28  46  76 108 150 200 258 318 388 468
#     4  11  26  46  74 107 148 196 257 316 376 457
#     4  12  26  45  75 104 153 197 249 314 391 454
#
# _framework density 23.939454000000001
#
# number of rings (size 3 to 8) (size 9 to 14) (size 15 to 20)
#    0.000    0.533    4.667    2.400   10.267    2.667 
#    0.000    0.000    0.000    0.000    0.000    0.000 
#    0.000    0.000    0.000    0.000    0.000    0.000 
#
# Total GULP energy -167106.382132 kJ/mol
# GULP energy per Si atom -5570.212738 kJ/mol
# Density = 2.388497 g / cm^3
# Si number density = 23.939454 Si / 1000 Ang^3
#
#
#
# Elastic Constant Matrix: (Units=GPa)
#
#
# Indices 1 2 3 4 5 6 
#
# 1 350.7542 -64.5721 96.0333 0.0000 0.0000 0.0000
# 2 -64.5721 92.1234 -26.9588 0.0000 0.0000 0.0000
# 3 96.0333 -26.9588 72.2541 0.0000 0.0000 0.0000
# 4 0.0000 0.0000 0.0000 32.1489 0.0000 0.0000
# 5 0.0000 0.0000 0.0000 0.0000 10.7154 0.0000
# 6 0.0000 0.0000 0.0000 0.0000 0.0000 53.3309
#
#
#
# Elastic Compliance Matrix: (Units=1/GPa)
#
#
# Indices 1 2 3 4 5 6 
#
# 1 0.004694 0.001644 -0.005625 0.000000 0.000000 0.000000
# 2 0.001644 0.012761 0.002576 0.000000 0.000000 0.000000
# 3 -0.005625 0.002576 0.022278 0.000000 0.000000 0.000000
# 4 0.000000 0.000000 0.000000 0.031105 0.000000 0.000000
# 5 0.000000 0.000000 0.000000 0.000000 0.093324 0.000000
# 6 0.000000 0.000000 0.000000 0.000000 0.000000 0.018751
#
#
# Mechanical properties :
#
#
# Convention : Reuss Voigt Hill
#
# Bulk Modulus (GPa) = 27.08331 58.23741 42.66036
# Shear Modulus (GPa) = 25.24874 53.28100 39.26487
#
# Velocity S-wave (km/s) = 3.25112 4.72280 4.05430
# Velocity P-wave (km/s) = 5.04291 7.35660 6.30676
#
# Compressibility (1/GPa) = 0.03692311
#
# Stress axis : x y z
#
# Youngs Moduli (GPa) = 213.05001 78.36250 44.88786
#
# Poissons Ratio (x) = -0.12882 0.25250
# Poissons Ratio (y) = -0.35022 -0.11565
# Poissons Ratio (z) = 1.19843 -0.20190
#
# Static dielectric constant tensor:
#      x y z
#    x 1.978170 0.000000 0.000000 
#    y 0.000000 1.878910 0.000000 
#    z 0.000000 0.000000 1.878240 
# 
# From -- ./inp_files/15076.got.cif
#   From: 2010.05.17/outbox.cif.g08.bks.cpg/sg43_8_cif.got.tgz:15076.got - 2010.06.03 19:21:55.
