data_PCOD9372051
_publ_section_title
;
Structure prediction by ZEFSAII (Michael W. Deem and Ramdas Pophale) SiO2 
 PCOD9372051
Probable space group: F D D 2
;
_chemical_formula_sum "Si O2"
_cell_formula_units_Z 80
_cell_length_a 14.597246
_cell_length_b 14.681945
_cell_length_c 15.872939
_cell_angle_alpha 90.000000
_cell_angle_beta 90.000000
_cell_angle_gamma 90.000000
_cell_volume 3401.824206
_symmetry_space_group_name_H-M "F D D 2"
_symmetry_group_IT_number 43
_symmetry_cell_setting 'orthorhombic'
loop_
_space_group_symop_operation_xyz
x,y,z
-x,-y,z
1/4-x,1/4+y,1/4+z
1/4+x,1/4-y,1/4+z
x,1/2+y,1/2+z
-x,1/2-y,1/2+z
1/4-x,3/4+y,3/4+z
1/4+x,3/4-y,3/4+z
1/2+x,y,1/2+z
1/2-x,-y,1/2+z
3/4-x,1/4+y,3/4+z
3/4+x,1/4-y,3/4+z
1/2+x,1/2+y,z
1/2-x,1/2-y,z
3/4-x,3/4+y,1/4+z
3/4+x,3/4-y,1/4+z
loop_
_atom_site_type_symbol
_atom_site_label
_atom_site_fract_x
_atom_site_fract_y
_atom_site_fract_z
Si Si1 0.267506 0.058990 0.605790
Si Si2 0.632984 0.811440 0.997933
Si Si3 0.700586 0.593624 0.415174
Si Si4 0.383441 0.891966 0.558303
Si Si5 0.209142 0.593136 0.400681
O O1 0.185473 0.054762 0.670612
O O2 0.231168 0.092130 0.513773
O O3 0.349560 0.122109 0.642269
O O4 0.308689 0.956709 0.601236
O O5 0.727029 0.843115 0.957448
O O6 0.633790 0.716585 0.049805
O O7 0.585146 0.879356 0.065241
O O8 0.773066 0.650376 0.359562
O O9 0.721469 0.490423 0.385338
O O10 0.376458 0.928516 0.462533
#
# Coordination Sequence:
#
# PCOD9372051 Si02
#       5
#    16  16  16  16  16
#     4  11  24  45  71 103 142 181 237 295 359 431
#     4  11  24  45  71 103 142 181 237 295 359 431
#     4  10  24  43  70 105 133 187 232 291 357 423
#     4  10  24  44  68  98 140 180 234 284 360 424
#     4  10  24  43  70 105 133 187 232 291 357 423
#
# _framework density 23.516794000000001
#
# number of rings (size 3 to 8) (size 9 to 14) (size 15 to 20)
#    0.000    1.600    0.000    2.400   11.200    0.800 
#   14.400    0.000    0.000    0.000    0.000    0.000 
#    0.000    0.000    0.000    0.000    0.000    0.000 
#
# Total GULP energy -111608.301792 kJ/mol
# GULP energy per Si atom -5580.415090 kJ/mol
# Density = 2.346327 g / cm^3
# Si number density = 23.516794 Si / 1000 Ang^3
#
#
#
# Elastic Constant Matrix: (Units=GPa)
#
#
# Indices 1 2 3 4 5 6 
#
# 1 78.4608 35.6043 42.7882 0.0000 0.0000 0.0000
# 2 35.6043 83.8463 22.4708 0.0000 0.0000 0.0000
# 3 42.7882 22.4708 109.0970 0.0000 0.0000 0.0000
# 4 0.0000 0.0000 0.0000 29.8516 0.0000 0.0000
# 5 0.0000 0.0000 0.0000 0.0000 28.0365 0.0000
# 6 0.0000 0.0000 0.0000 0.0000 0.0000 27.1452
#
#
#
# Elastic Compliance Matrix: (Units=1/GPa)
#
#
# Indices 1 2 3 4 5 6 
#
# 1 0.019005 -0.006427 -0.006130 0.000000 0.000000 0.000000
# 2 -0.006427 0.014797 -0.000527 0.000000 0.000000 0.000000
# 3 -0.006130 -0.000527 0.011679 0.000000 0.000000 0.000000
# 4 0.000000 0.000000 0.000000 0.033499 0.000000 0.000000
# 5 0.000000 0.000000 0.000000 0.000000 0.035668 0.000000
# 6 0.000000 0.000000 0.000000 0.000000 0.000000 0.036839
#
#
# Mechanical properties :
#
#
# Convention : Reuss Voigt Hill
#
# Bulk Modulus (GPa) = 51.78025 52.57005 52.17515
# Shear Modulus (GPa) = 27.16031 28.37605 27.76818
#
# Velocity S-wave (km/s) = 3.40212 3.47743 3.43998
# Velocity P-wave (km/s) = 6.12362 6.20694 6.16542
#
# Compressibility (1/GPa) = 0.01931238
#
# Stress axis : x y z
#
# Youngs Moduli (GPa) = 52.61845 67.58085 85.62482
#
# Poissons Ratio (x) = 0.43436 0.52487
# Poissons Ratio (y) = 0.33820 0.04512
# Poissons Ratio (z) = 0.32255 0.03561
#
# Static dielectric constant tensor:
#      x y z
#    x 1.930600 0.000000 0.000000 
#    y 0.000000 2.033910 0.000000 
#    z 0.000000 0.000000 1.946900 
# 
# From -- ./inp_files/14181.got.cif
#   From: 2010.05.17/outbox.cif.g08.bks.cpg/sg43_8_cif.got.tgz:14181.got - 2010.06.03 19:21:55.
