data_PCOD9372770
_publ_section_title
;
Structure prediction by ZEFSAII (Michael W. Deem and Ramdas Pophale) SiO2 
 PCOD9372770
Probable space group: F D D 2
;
_chemical_formula_sum "Si O2"
_cell_formula_units_Z 104
_cell_length_a 26.780798
_cell_length_b 10.966327
_cell_length_c 13.439425
_cell_angle_alpha 90.000000
_cell_angle_beta 90.000000
_cell_angle_gamma 90.000000
_cell_volume 3946.984251
_symmetry_space_group_name_H-M "F D D 2"
_symmetry_group_IT_number 43
_symmetry_cell_setting 'orthorhombic'
loop_
_space_group_symop_operation_xyz
x,y,z
-x,-y,z
1/4-x,1/4+y,1/4+z
1/4+x,1/4-y,1/4+z
x,1/2+y,1/2+z
-x,1/2-y,1/2+z
1/4-x,3/4+y,3/4+z
1/4+x,3/4-y,3/4+z
1/2+x,y,1/2+z
1/2-x,-y,1/2+z
3/4-x,1/4+y,3/4+z
3/4+x,1/4-y,3/4+z
1/2+x,1/2+y,z
1/2-x,1/2-y,z
3/4-x,3/4+y,1/4+z
3/4+x,3/4-y,1/4+z
loop_
_atom_site_type_symbol
_atom_site_label
_atom_site_fract_x
_atom_site_fract_y
_atom_site_fract_z
Si Si1 0.593649 0.065190 0.787110
Si Si2 0.668865 0.688606 0.137897
Si Si3 0.083275 0.311234 0.036720
Si Si4 0.589233 0.590224 0.515459
Si Si5 0.022694 0.689836 0.367463
Si Si6 0.261784 0.513596 0.390474
Si Si7 0.500000 0.500000 0.154083
O O1 0.707919 0.887897 0.827206
O O2 0.617504 0.931541 0.796487
O O3 0.544645 0.049134 0.721671
O O4 0.634371 0.147591 0.730158
O O5 0.628747 0.716485 0.049474
O O6 0.697441 0.816992 0.146341
O O7 0.713873 0.593594 0.122594
O O8 0.101017 0.449871 0.035334
O O9 0.046185 0.296032 0.130126
O O10 0.046327 0.285722 0.944066
O O11 0.719771 0.478950 0.503328
O O12 0.582209 0.606315 0.397945
O O13 0.267661 0.374061 0.350337
#
# Coordination Sequence:
#
# PCOD9372770 Si02
#       7
#    16  16  16  16  16  16   8
#     4  12  29  53  86 121 171 223 289 364 442 517
#     4  11  29  53  89 121 172 226 291 365 437 528
#     4  12  29  50  90 124 168 234 289 363 448 522
#     4  12  31  52  86 125 170 223 294 358 444 530
#     4  11  30  55  85 130 172 227 295 363 439 533
#     4  12  29  54  85 122 175 224 292 359 439 527
#     4  12  28  52  82 122 170 230 286 354 436 526
#
# _framework density 26.349231
#
# number of rings (size 3 to 8) (size 9 to 14) (size 15 to 20)
#    0.000    0.308    1.538    3.231   21.538    2.462 
#    0.000    0.000    0.000    0.000    0.000    0.000 
#    0.000    0.000    0.000    0.000    0.000    0.000 
#
# Total GULP energy -145930.152122 kJ/mol
# GULP energy per Si atom -5612.698159 kJ/mol
# Density = 2.628926 g / cm^3
# Si number density = 26.349231 Si / 1000 Ang^3
#
#
#
# Elastic Constant Matrix: (Units=GPa)
#
#
# Indices 1 2 3 4 5 6 
#
# 1 180.1537 50.9789 54.4739 0.0000 0.0000 0.0000
# 2 50.9789 169.1368 53.8477 0.0000 0.0000 0.0000
# 3 54.4739 53.8477 114.2602 0.0000 0.0000 0.0000
# 4 0.0000 0.0000 0.0000 35.4227 0.0000 0.0000
# 5 0.0000 0.0000 0.0000 0.0000 43.2910 0.0000
# 6 0.0000 0.0000 0.0000 0.0000 0.0000 52.4680
#
#
#
# Elastic Compliance Matrix: (Units=1/GPa)
#
#
# Indices 1 2 3 4 5 6 
#
# 1 0.006679 -0.001176 -0.002630 0.000000 0.000000 0.000000
# 2 -0.001176 0.007163 -0.002815 0.000000 0.000000 0.000000
# 3 -0.002630 -0.002815 0.011333 0.000000 0.000000 0.000000
# 4 0.000000 0.000000 0.000000 0.028231 0.000000 0.000000
# 5 0.000000 0.000000 0.000000 0.000000 0.023099 0.000000
# 6 0.000000 0.000000 0.000000 0.000000 0.000000 0.019059
#
#
# Mechanical properties :
#
#
# Convention : Reuss Voigt Hill
#
# Bulk Modulus (GPa) = 83.80525 86.90575 85.35550
# Shear Modulus (GPa) = 44.33293 46.51968 45.42630
#
# Velocity S-wave (km/s) = 4.10629 4.20635 4.15662
# Velocity P-wave (km/s) = 7.37271 7.52629 7.44989
#
# Compressibility (1/GPa) = 0.01193243
#
# Stress axis : x y z
#
# Youngs Moduli (GPa) = 149.72820 139.60607 88.24128
#
# Poissons Ratio (x) = 0.16414 0.23208
# Poissons Ratio (y) = 0.17604 0.24842
# Poissons Ratio (z) = 0.39379 0.39302
#
# Static dielectric constant tensor:
#      x y z
#    x 2.047340 0.000000 0.000000 
#    y 0.000000 2.033450 0.000000 
#    z 0.000000 0.000000 2.071110 
# 
# From -- ./inp_files/15055.got.cif
#   From: 2010.05.17/outbox.cif.g08.bks.cpg/sg43_8_cif.got.tgz:15055.got - 2010.06.03 19:21:55.
