data_PCOD9372562
_publ_section_title
;
Structure prediction by ZEFSAII (Michael W. Deem and Ramdas Pophale) SiO2 
 PCOD9372562
Probable space group: F D D 2
;
_chemical_formula_sum "Si O2"
_cell_formula_units_Z 96
_cell_length_a 21.402769
_cell_length_b 9.524627
_cell_length_c 21.011657
_cell_angle_alpha 90.000000
_cell_angle_beta 90.000000
_cell_angle_gamma 90.000000
_cell_volume 4283.297540
_symmetry_space_group_name_H-M "F D D 2"
_symmetry_group_IT_number 43
_symmetry_cell_setting 'orthorhombic'
loop_
_space_group_symop_operation_xyz
x,y,z
-x,-y,z
1/4-x,1/4+y,1/4+z
1/4+x,1/4-y,1/4+z
x,1/2+y,1/2+z
-x,1/2-y,1/2+z
1/4-x,3/4+y,3/4+z
1/4+x,3/4-y,3/4+z
1/2+x,y,1/2+z
1/2-x,-y,1/2+z
3/4-x,1/4+y,3/4+z
3/4+x,1/4-y,3/4+z
1/2+x,1/2+y,z
1/2-x,1/2-y,z
3/4-x,3/4+y,1/4+z
3/4+x,3/4-y,1/4+z
loop_
_atom_site_type_symbol
_atom_site_label
_atom_site_fract_x
_atom_site_fract_y
_atom_site_fract_z
Si Si1 0.750000 0.250000 0.000000
Si Si2 0.154253 0.838909 0.106688
Si Si3 0.480727 0.229081 0.196210
Si Si4 0.595747 0.911091 0.404986
Si Si5 0.500000 0.000000 0.511674
Si Si6 0.000000 0.000000 0.458398
Si Si7 0.730727 0.479081 0.315463
Si Si8 0.500000 0.500000 0.803275
O O1 0.728243 0.120737 0.956822
O O2 0.800098 0.179218 0.046313
O O3 0.189129 0.750536 0.162548
O O4 0.089391 0.778977 0.080918
O O5 0.150459 0.000000 0.130837
O O6 0.410609 0.278977 0.180755
O O7 0.500000 0.156798 0.130837
O O8 0.491878 0.131907 0.256725
O O9 0.550098 0.929218 0.465360
O O10 0.560871 0.999464 0.349125
O O11 0.478243 0.870737 0.554851
O O12 0.991878 0.868093 0.504949
#
# Coordination Sequence:
#
# PCOD9372562 Si02
#       8
#     8  16  16  16   8   8  16   8
#     4  11  23  44  76 106 137 189 250 296 350 445
#     4  11  24  47  77 101 145 196 236 301 365 425
#     4  12  26  45  71 106 142 194 239 297 364 429
#     4  11  24  47  77 101 145 196 236 301 365 425
#     4  11  23  44  76 106 137 189 250 296 350 445
#     4  11  27  48  68 110 145 183 246 300 360 433
#     4  12  26  45  71 106 142 194 239 297 364 429
#     4  11  27  48  68 110 145 183 246 300 360 433
#
# _framework density 22.412638999999999
#
# number of rings (size 3 to 8) (size 9 to 14) (size 15 to 20)
#    0.000    0.667    3.333    4.000    4.667    1.333 
#    6.000    0.000    0.000    0.000    0.000    0.000 
#    0.000    0.000    0.000    0.000    0.000    0.000 
#
# Total GULP energy -134083.055002 kJ/mol
# GULP energy per Si atom -5586.793958 kJ/mol
# Density = 2.236163 g / cm^3
# Si number density = 22.412639 Si / 1000 Ang^3
#
#
#
# Elastic Constant Matrix: (Units=GPa)
#
#
# Indices 1 2 3 4 5 6 
#
# 1 101.6192 57.9861 44.6514 0.0000 0.0000 0.0000
# 2 57.9861 147.4801 62.4725 0.0000 0.0000 0.0000
# 3 44.6514 62.4725 162.0081 0.0000 0.0000 0.0000
# 4 0.0000 0.0000 0.0000 51.0815 0.0000 0.0000
# 5 0.0000 0.0000 0.0000 0.0000 0.7759 0.0000
# 6 0.0000 0.0000 0.0000 0.0000 0.0000 20.2580
#
#
#
# Elastic Compliance Matrix: (Units=1/GPa)
#
#
# Indices 1 2 3 4 5 6 
#
# 1 0.013185 -0.004356 -0.001954 0.000000 0.000000 0.000000
# 2 -0.004356 0.009544 -0.002480 0.000000 0.000000 0.000000
# 3 -0.001954 -0.002480 0.007667 0.000000 0.000000 0.000000
# 4 0.000000 0.000000 0.000000 0.019577 0.000000 0.000000
# 5 0.000000 0.000000 0.000000 0.000000 1.288849 0.000000
# 6 0.000000 0.000000 0.000000 0.000000 0.000000 0.049363
#
#
# Mechanical properties :
#
#
# Convention : Reuss Voigt Hill
#
# Bulk Modulus (GPa) = 78.02679 82.36973 80.19826
# Shear Modulus (GPa) = 3.54601 30.82291 17.18446
#
# Velocity S-wave (km/s) = 1.25920 3.71245 2.77199
# Velocity P-wave (km/s) = 6.08304 7.43019 6.79011
#
# Compressibility (1/GPa) = 0.01281611
#
# Stress axis : x y z
#
# Youngs Moduli (GPa) = 75.84305 104.78082 130.42493
#
# Poissons Ratio (x) = 0.45646 0.25487
# Poissons Ratio (y) = 0.33040 0.32339
# Poissons Ratio (z) = 0.14821 0.25981
#
# Static dielectric constant tensor:
#      x y z
#    x 1.848800 0.000000 0.000000 
#    y 0.000000 1.842300 0.000000 
#    z 0.000000 0.000000 1.848280 
# 
# From -- ./inp_files/22607.got.cif
#   From: 2010.05.17/outbox.cif.g08.bks.cpg/sg43_12_cif.got.tgz:22607.got - 2010.06.03 19:21:55.
