data_PCOD9372169
_publ_section_title
;
Structure prediction by ZEFSAII (Michael W. Deem and Ramdas Pophale) SiO2 
 PCOD9372169
Probable space group: F D D 2
;
_chemical_formula_sum "Si O2"
_cell_formula_units_Z 120
_cell_length_a 25.780884
_cell_length_b 10.806090
_cell_length_c 18.241221
_cell_angle_alpha 90.000000
_cell_angle_beta 90.000000
_cell_angle_gamma 90.000000
_cell_volume 5081.831842
_symmetry_space_group_name_H-M "F D D 2"
_symmetry_group_IT_number 43
_symmetry_cell_setting 'orthorhombic'
loop_
_space_group_symop_operation_xyz
x,y,z
-x,-y,z
1/4-x,1/4+y,1/4+z
1/4+x,1/4-y,1/4+z
x,1/2+y,1/2+z
-x,1/2-y,1/2+z
1/4-x,3/4+y,3/4+z
1/4+x,3/4-y,3/4+z
1/2+x,y,1/2+z
1/2-x,-y,1/2+z
3/4-x,1/4+y,3/4+z
3/4+x,1/4-y,3/4+z
1/2+x,1/2+y,z
1/2-x,1/2-y,z
3/4-x,3/4+y,1/4+z
3/4+x,3/4-y,1/4+z
loop_
_atom_site_type_symbol
_atom_site_label
_atom_site_fract_x
_atom_site_fract_y
_atom_site_fract_z
Si Si1 0.946271 0.424488 0.931000
Si Si2 0.500000 0.500000 0.717501
Si Si3 0.073561 0.488390 0.082059
Si Si4 0.137146 0.983427 0.071836
Si Si5 0.739237 0.984402 0.502265
Si Si6 0.433342 0.789013 0.524485
Si Si7 0.570860 0.332152 0.368559
Si Si8 0.026823 0.878634 0.110203
O O1 0.923882 0.300581 0.893020
O O2 0.910348 0.534928 0.899068
O O3 0.000000 0.500000 0.915351
O O4 0.949429 0.422508 0.018860
O O5 0.548534 0.509955 0.661188
O O6 0.508199 0.380338 0.766673
O O7 0.068275 0.343746 0.064214
O O8 0.133130 0.520450 0.074991
O O9 0.084797 0.904829 0.084609
O O10 0.178429 0.947700 0.007797
O O11 0.112740 0.118896 0.052028
O O12 0.772748 0.915591 0.563258
O O13 0.766716 0.968739 0.424201
O O14 0.435559 0.754703 0.439267
O O15 0.488011 0.850253 0.544418
O O16 0.000000 0.000000 0.146296
#
# Coordination Sequence:
#
# PCOD9372169 Si02
#       8
#    16   8  16  16  16  16  16  16
#     4  11  23  47  70 109 142 189 253 305 366 442
#     4  12  26  44  72 102 144 196 248 302 388 454
#     4  11  24  45  75 101 147 191 243 307 372 451
#     4  11  25  48  74 104 150 194 243 312 378 440
#     4  12  26  46  71 111 141 193 259 309 374 468
#     4  10  24  50  70 107 146 195 247 303 382 456
#     4  11  26  43  72 104 147 182 252 311 361 448
#     4  10  24  48  73 105 146 195 246 306 381 450
#
# _framework density 23.613533
#
# number of rings (size 3 to 8) (size 9 to 14) (size 15 to 20)
#    0.000    1.067    3.333    1.600    9.333    0.000 
#    8.400    0.000    0.000    0.000    0.000    0.000 
#    0.000    0.000    0.000    0.000    0.000    0.000 
#
# Total GULP energy -167286.083801 kJ/mol
# GULP energy per Si atom -5576.202793 kJ/mol
# Density = 2.355979 g / cm^3
# Si number density = 23.613533 Si / 1000 Ang^3
#
#
#
# Elastic Constant Matrix: (Units=GPa)
#
#
# Indices 1 2 3 4 5 6 
#
# 1 132.7442 4.8074 8.0877 0.0000 0.0000 0.0000
# 2 4.8074 49.0553 9.6842 0.0000 0.0000 0.0000
# 3 8.0877 9.6842 70.7987 0.0000 0.0000 0.0000
# 4 0.0000 0.0000 0.0000 27.5008 0.0000 0.0000
# 5 0.0000 0.0000 0.0000 0.0000 27.7666 0.0000
# 6 0.0000 0.0000 0.0000 0.0000 0.0000 24.9304
#
#
#
# Elastic Compliance Matrix: (Units=1/GPa)
#
#
# Indices 1 2 3 4 5 6 
#
# 1 0.007603 -0.000590 -0.000788 0.000000 0.000000 0.000000
# 2 -0.000590 0.020997 -0.002805 0.000000 0.000000 0.000000
# 3 -0.000788 -0.002805 0.014598 0.000000 0.000000 0.000000
# 4 0.000000 0.000000 0.000000 0.036363 0.000000 0.000000
# 5 0.000000 0.000000 0.000000 0.000000 0.036014 0.000000
# 6 0.000000 0.000000 0.000000 0.000000 0.000000 0.040112
#
#
# Mechanical properties :
#
#
# Convention : Reuss Voigt Hill
#
# Bulk Modulus (GPa) = 28.70815 33.08410 30.89612
# Shear Modulus (GPa) = 28.46387 31.37417 29.91902
#
# Velocity S-wave (km/s) = 3.47566 3.64902 3.56340
# Velocity P-wave (km/s) = 5.31891 5.63870 5.48114
#
# Compressibility (1/GPa) = 0.03483332
#
# Stress axis : x y z
#
# Youngs Moduli (GPa) = 131.53331 47.62675 68.50160
#
# Poissons Ratio (x) = 0.02808 0.05397
# Poissons Ratio (y) = 0.07754 0.19213
# Poissons Ratio (z) = 0.10363 0.13358
#
# Static dielectric constant tensor:
#      x y z
#    x 1.939370 0.000000 0.000000 
#    y 0.000000 1.747040 0.000000 
#    z 0.000000 0.000000 1.907450 
# 
# From -- ./inp_files/15103.got.cif
#   From: 2010.05.17/outbox.cif.g08.bks.cpg/sg43_8_cif.got.tgz:15103.got - 2010.06.03 19:21:55.
