data_PCOD9372940
_publ_section_title
;
Structure prediction by ZEFSAII (Michael W. Deem and Ramdas Pophale) SiO2 
 PCOD9372940
Probable space group: F D D 2
;
_chemical_formula_sum "Si O2"
_cell_formula_units_Z 56
_cell_length_a 4.676199
_cell_length_b 14.991235
_cell_length_c 27.327589
_cell_angle_alpha 90.000000
_cell_angle_beta 90.000000
_cell_angle_gamma 90.000000
_cell_volume 1915.718593
_symmetry_space_group_name_H-M "F D D 2"
_symmetry_group_IT_number 43
_symmetry_cell_setting 'orthorhombic'
loop_
_space_group_symop_operation_xyz
x,y,z
-x,-y,z
1/4-x,1/4+y,1/4+z
1/4+x,1/4-y,1/4+z
x,1/2+y,1/2+z
-x,1/2-y,1/2+z
1/4-x,3/4+y,3/4+z
1/4+x,3/4-y,3/4+z
1/2+x,y,1/2+z
1/2-x,-y,1/2+z
3/4-x,1/4+y,3/4+z
3/4+x,1/4-y,3/4+z
1/2+x,1/2+y,z
1/2-x,1/2-y,z
3/4-x,3/4+y,1/4+z
3/4+x,3/4-y,1/4+z
loop_
_atom_site_type_symbol
_atom_site_label
_atom_site_fract_x
_atom_site_fract_y
_atom_site_fract_z
Si Si1 0.889637 0.346970 0.026990
Si Si2 0.500000 0.500000 0.390328
Si Si3 0.654648 0.589004 0.107239
Si Si4 0.105039 0.119626 0.957662
O O1 0.750000 0.250000 0.032821
O O2 0.141048 0.338890 0.988100
O O3 0.642304 0.401045 0.997636
O O4 0.234029 0.455651 0.925615
O O5 0.685796 0.576962 0.362347
O O6 0.500000 0.500000 0.089017
O O7 0.737503 0.571144 0.163359
O O8 0.927270 0.614490 0.073353
#
# Coordination Sequence:
#
# PCOD9372940 Si02
#       4
#    16   8  16  16
#     4  12  31  58 100 146 198 266 335 416 507 609
#     4  12  30  58 104 142 204 276 326 428 506 620
#     4  12  32  62 100 149 203 266 340 422 515 609
#     4  12  29  59  97 141 200 261 334 416 502 597
#
# _framework density 29.231852
#
# number of rings (size 3 to 8) (size 9 to 14) (size 15 to 20)
#    0.000    0.000    2.857    2.571   10.000    4.571 
#    2.571    2.857    6.286    0.000    0.000    0.000 
#    0.000    0.000    0.000    0.000    0.000    0.000 
#
# Total GULP energy -78493.125759 kJ/mol
# GULP energy per Si atom -5606.651840 kJ/mol
# Density = 2.916532 g / cm^3
# Si number density = 29.231852 Si / 1000 Ang^3
#
#
#
# Elastic Constant Matrix: (Units=GPa)
#
#
# Indices 1 2 3 4 5 6 
#
# 1 305.3864 113.5073 136.6832 0.0000 0.0000 0.0000
# 2 113.5073 156.1802 99.4304 0.0000 0.0000 0.0000
# 3 136.6832 99.4304 254.3562 0.0000 0.0000 0.0000
# 4 0.0000 0.0000 0.0000 23.2771 0.0000 0.0000
# 5 0.0000 0.0000 0.0000 0.0000 95.1862 0.0000
# 6 0.0000 0.0000 0.0000 0.0000 0.0000 85.4851
#
#
#
# Elastic Compliance Matrix: (Units=1/GPa)
#
#
# Indices 1 2 3 4 5 6 
#
# 1 0.004971 -0.002546 -0.001676 0.000000 0.000000 0.000000
# 2 -0.002546 0.009828 -0.002474 0.000000 0.000000 0.000000
# 3 -0.001676 -0.002474 0.005799 0.000000 0.000000 0.000000
# 4 0.000000 0.000000 0.000000 0.042961 0.000000 0.000000
# 5 0.000000 0.000000 0.000000 0.000000 0.010506 0.000000
# 6 0.000000 0.000000 0.000000 0.000000 0.000000 0.011698
#
#
# Mechanical properties :
#
#
# Convention : Reuss Voigt Hill
#
# Bulk Modulus (GPa) = 138.75724 157.24051 147.99887
# Shear Modulus (GPa) = 49.23396 65.20980 57.22188
#
# Velocity S-wave (km/s) = 4.10842 4.72824 4.42918
# Velocity P-wave (km/s) = 8.37116 9.14964 8.76904
#
# Compressibility (1/GPa) = 0.00720683
#
# Stress axis : x y z
#
# Youngs Moduli (GPa) = 201.17131 101.75081 172.43644
#
# Poissons Ratio (x) = 0.25902 0.28902
# Poissons Ratio (y) = 0.51211 0.42659
# Poissons Ratio (z) = 0.33718 0.25172
#
# Static dielectric constant tensor:
#      x y z
#    x 2.239400 0.000000 0.000000 
#    y 0.000000 2.419450 0.000000 
#    z 0.000000 0.000000 2.352860 
# 
# From -- ./inp_files/19855.got.cif
#   From: 2010.05.17/outbox.cif.g08.bks.cpg/sg43_10_cif.got.tgz:19855.got - 2010.06.03 19:21:55.
