data_PCOD9372685
_publ_section_title
;
Structure prediction by ZEFSAII (Michael W. Deem and Ramdas Pophale) SiO2 
 PCOD9372685
Probable space group: F D D 2
;
_chemical_formula_sum "Si O2"
_cell_formula_units_Z 48
_cell_length_a 6.449624
_cell_length_b 24.067973
_cell_length_c 13.163849
_cell_angle_alpha 90.000000
_cell_angle_beta 90.000000
_cell_angle_gamma 90.000000
_cell_volume 2043.416070
_symmetry_space_group_name_H-M "F D D 2"
_symmetry_group_IT_number 43
_symmetry_cell_setting 'orthorhombic'
loop_
_space_group_symop_operation_xyz
x,y,z
-x,-y,z
1/4-x,1/4+y,1/4+z
1/4+x,1/4-y,1/4+z
x,1/2+y,1/2+z
-x,1/2-y,1/2+z
1/4-x,3/4+y,3/4+z
1/4+x,3/4-y,3/4+z
1/2+x,y,1/2+z
1/2-x,-y,1/2+z
3/4-x,1/4+y,3/4+z
3/4+x,1/4-y,3/4+z
1/2+x,1/2+y,z
1/2-x,1/2-y,z
3/4-x,3/4+y,1/4+z
3/4+x,3/4-y,1/4+z
loop_
_atom_site_type_symbol
_atom_site_label
_atom_site_fract_x
_atom_site_fract_y
_atom_site_fract_z
Si Si1 0.419164 0.921088 0.568140
Si Si2 0.076264 0.701582 0.519986
Si Si3 0.213924 0.521419 0.988230
O O1 0.325104 0.944025 0.673214
O O2 0.337563 0.860515 0.541093
O O3 0.666658 0.932101 0.555444
O O4 0.341279 0.964180 0.484248
O O5 0.250000 0.750000 0.510916
O O6 0.943719 0.709569 0.622888
O O7 0.000000 0.500000 0.033283
#
# Coordination Sequence:
#
# PCOD9372685 Si02
#       3
#    16  16  16
#     4  11  24  50  74 119 154 203 263 313 390 469
#     4  12  23  49  83 113 158 205 256 325 390 461
#     4  11  25  49  73 112 153 200 262 313 383 461
#
# _framework density 23.490074
#
# number of rings (size 3 to 8) (size 9 to 14) (size 15 to 20)
#    0.000    0.667    6.667    1.000    4.667    0.000 
#   24.000    0.000    0.000    0.000    0.000    0.000 
#    0.000    0.000    0.000    0.000    0.000    0.000 
#
# Total GULP energy -66910.102989 kJ/mol
# GULP energy per Si atom -5575.841916 kJ/mol
# Density = 2.343661 g / cm^3
# Si number density = 23.490074 Si / 1000 Ang^3
#
#
#
# Elastic Constant Matrix: (Units=GPa)
#
#
# Indices 1 2 3 4 5 6 
#
# 1 107.0585 42.5998 39.3771 0.0000 0.0000 0.0000
# 2 42.5998 178.2916 34.9206 0.0000 0.0000 0.0000
# 3 39.3771 34.9206 167.4711 0.0000 0.0000 0.0000
# 4 0.0000 0.0000 0.0000 -4.9936 0.0000 0.0000
# 5 0.0000 0.0000 0.0000 0.0000 16.3160 0.0000
# 6 0.0000 0.0000 0.0000 0.0000 0.0000 34.8507
#
#
#
# Elastic Compliance Matrix: (Units=1/GPa)
#
#
# Indices 1 2 3 4 5 6 
#
# 1 0.011003 -0.002213 -0.002126 0.000000 0.000000 0.000000
# 2 -0.002213 0.006293 -0.000792 0.000000 0.000000 0.000000
# 3 -0.002126 -0.000792 0.006636 0.000000 0.000000 0.000000
# 4 0.000000 0.000000 0.000000 -0.200256 0.000000 0.000000
# 5 0.000000 0.000000 0.000000 0.000000 0.061290 0.000000
# 6 0.000000 0.000000 0.000000 0.000000 0.000000 0.028694
#
#
# Mechanical properties :
#
#
# Convention : Reuss Voigt Hill
#
# Bulk Modulus (GPa) = 73.14639 76.29068 74.71854
# Shear Modulus (GPa) = -69.90696 31.62953 -19.13871
#
# Velocity S-wave (km/s) = -5.46121 3.67346 -2.85749
# Velocity P-wave (km/s) = 2.92567 7.10920 4.58155
#
# Compressibility (1/GPa) = 0.01367121
#
# Stress axis : x y z
#
# Youngs Moduli (GPa) = 90.88450 158.91799 150.69066
#
# Poissons Ratio (x) = 0.35163 0.32033
# Poissons Ratio (y) = 0.20109 0.11933
# Poissons Ratio (z) = 0.19320 0.12584
#
# Static dielectric constant tensor:
#      x y z
#    x 2.436570 0.000000 0.000000 
#    y 0.000000 2.230090 0.000000 
#    z 0.000000 0.000000 1.903060 
# 
# From -- ./inp_files/8561.got.cif
#   From: 2010.05.17/outbox.cif.g08.bks.cpg/sg43_5_cif.got.tgz:8561.got - 2010.06.03 19:21:55.
