data_PCOD9372056
_publ_section_title
;
Structure prediction by ZEFSAII (Michael W. Deem and Ramdas Pophale) SiO2 
 PCOD9372056
Probable space group: F D D 2
;
_chemical_formula_sum "Si O2"
_cell_formula_units_Z 120
_cell_length_a 15.660534
_cell_length_b 11.407343
_cell_length_c 26.754048
_cell_angle_alpha 90.000000
_cell_angle_beta 90.000000
_cell_angle_gamma 90.000000
_cell_volume 4779.479123
_symmetry_space_group_name_H-M "F D D 2"
_symmetry_group_IT_number 43
_symmetry_cell_setting 'orthorhombic'
loop_
_space_group_symop_operation_xyz
x,y,z
-x,-y,z
1/4-x,1/4+y,1/4+z
1/4+x,1/4-y,1/4+z
x,1/2+y,1/2+z
-x,1/2-y,1/2+z
1/4-x,3/4+y,3/4+z
1/4+x,3/4-y,3/4+z
1/2+x,y,1/2+z
1/2-x,-y,1/2+z
3/4-x,1/4+y,3/4+z
3/4+x,1/4-y,3/4+z
1/2+x,1/2+y,z
1/2-x,1/2-y,z
3/4-x,3/4+y,1/4+z
3/4+x,3/4-y,1/4+z
loop_
_atom_site_type_symbol
_atom_site_label
_atom_site_fract_x
_atom_site_fract_y
_atom_site_fract_z
Si Si1 0.250000 0.250000 0.553261
Si Si2 0.436085 0.838463 0.564463
Si Si3 0.610250 0.331042 0.117786
Si Si4 0.090119 0.936431 0.538215
Si Si5 0.342680 0.193869 0.892123
Si Si6 0.557483 0.147136 0.455128
Si Si7 0.809340 0.406137 0.971080
Si Si8 0.372897 0.337089 0.170852
O O1 0.302152 0.163173 0.588424
O O2 0.185804 0.183676 0.516718
O O3 0.532100 0.866262 0.582578
O O4 0.426195 0.699455 0.551429
O O5 0.416277 0.891769 0.510742
O O6 0.381568 0.874173 0.612905
O O7 0.590763 0.194295 0.131764
O O8 0.610808 0.386759 0.172519
O O9 0.119442 0.996290 0.590007
O O10 0.157189 0.973201 0.495265
O O11 0.000000 0.000000 0.525060
O O12 0.250000 0.250000 0.903860
O O13 0.406225 0.230647 0.936025
O O14 0.456223 0.142786 0.449709
O O15 0.598265 0.050293 0.419015
O O16 0.712709 0.406360 0.949829
#
# Coordination Sequence:
#
# PCOD9372056 Si02
#       8
#     8  16  16  16  16  16  16  16
#     4  12  24  44  62  96 134 176 220 274 332 416
#     4  11  21  42  67  94 133 177 216 284 335 386
#     4  11  23  42  64  96 134 168 225 276 333 398
#     4  11  20  38  69  98 128 168 223 284 340 379
#     4  11  19  41  68  99 130 162 220 293 333 378
#     4  11  23  41  68  96 134 181 219 271 338 400
#     4  11  24  43  66  93 135 178 217 280 335 400
#     4  10  24  44  60  96 140 172 228 266 327 422
#
# _framework density 25.107339
#
# number of rings (size 3 to 8) (size 9 to 14) (size 15 to 20)
#    0.000    1.067    5.333    2.400    0.933    1.067 
#    7.200    6.667    0.000    0.000    0.000    0.000 
#    0.000    0.000    0.000    0.000    0.000    0.000 
#
# Total GULP energy -167991.593973 kJ/mol
# GULP energy per Si atom -5599.719799 kJ/mol
# Density = 2.505019 g / cm^3
# Si number density = 25.107339 Si / 1000 Ang^3
#
#
#
# Elastic Constant Matrix: (Units=GPa)
#
#
# Indices 1 2 3 4 5 6 
#
# 1 60.2627 14.9368 68.2487 0.0000 0.0000 0.0000
# 2 14.9368 62.4770 -1.0805 0.0000 0.0000 0.0000
# 3 68.2487 -1.0805 166.9877 0.0000 0.0000 0.0000
# 4 0.0000 0.0000 0.0000 28.5115 0.0000 0.0000
# 5 0.0000 0.0000 0.0000 0.0000 33.5312 0.0000
# 6 0.0000 0.0000 0.0000 0.0000 0.0000 31.2007
#
#
#
# Elastic Compliance Matrix: (Units=1/GPa)
#
#
# Indices 1 2 3 4 5 6 
#
# 1 0.034985 -0.008612 -0.014354 0.000000 0.000000 0.000000
# 2 -0.008612 0.018128 0.003637 0.000000 0.000000 0.000000
# 3 -0.014354 0.003637 0.011879 0.000000 0.000000 0.000000
# 4 0.000000 0.000000 0.000000 0.035074 0.000000 0.000000
# 5 0.000000 0.000000 0.000000 0.000000 0.029823 0.000000
# 6 0.000000 0.000000 0.000000 0.000000 0.000000 0.032051
#
#
# Mechanical properties :
#
#
# Convention : Reuss Voigt Hill
#
# Bulk Modulus (GPa) = 37.97562 50.43748 44.20655
# Shear Modulus (GPa) = 23.88054 32.49019 28.18536
#
# Velocity S-wave (km/s) = 3.08740 3.60120 3.35415
# Velocity P-wave (km/s) = 5.27897 6.11750 5.71364
#
# Compressibility (1/GPa) = 0.02633268
#
# Stress axis : x y z
#
# Youngs Moduli (GPa) = 28.58344 55.16385 84.18427
#
# Poissons Ratio (x) = 0.47509 1.20841
# Poissons Ratio (y) = 0.24617 -0.30620
# Poissons Ratio (z) = 0.41030 -0.20064
#
# Static dielectric constant tensor:
#      x y z
#    x 1.922500 0.000000 0.000000 
#    y 0.000000 2.070820 0.000000 
#    z 0.000000 0.000000 1.962380 
# 
# From -- ./inp_files/21844.got.cif
#   From: 2010.05.17/outbox.cif.g08.bks.cpg/sg43_11_cif.got.tgz:21844.got - 2010.06.03 19:21:55.
