data_PCOD9372468
_publ_section_title
;
Structure prediction by ZEFSAII (Michael W. Deem and Ramdas Pophale) SiO2 
 PCOD9372468
Probable space group: F D D 2
;
_chemical_formula_sum "Si O2"
_cell_formula_units_Z 96
_cell_length_a 18.229464
_cell_length_b 10.882004
_cell_length_c 21.245114
_cell_angle_alpha 90.000000
_cell_angle_beta 90.000000
_cell_angle_gamma 90.000000
_cell_volume 4214.459128
_symmetry_space_group_name_H-M "F D D 2"
_symmetry_group_IT_number 43
_symmetry_cell_setting 'orthorhombic'
loop_
_space_group_symop_operation_xyz
x,y,z
-x,-y,z
1/4-x,1/4+y,1/4+z
1/4+x,1/4-y,1/4+z
x,1/2+y,1/2+z
-x,1/2-y,1/2+z
1/4-x,3/4+y,3/4+z
1/4+x,3/4-y,3/4+z
1/2+x,y,1/2+z
1/2-x,-y,1/2+z
3/4-x,1/4+y,3/4+z
3/4+x,1/4-y,3/4+z
1/2+x,1/2+y,z
1/2-x,1/2-y,z
3/4-x,3/4+y,1/4+z
3/4+x,3/4-y,1/4+z
loop_
_atom_site_type_symbol
_atom_site_label
_atom_site_fract_x
_atom_site_fract_y
_atom_site_fract_z
Si Si1 0.280833 0.030886 0.017170
Si Si2 0.933081 0.579898 0.678191
Si Si3 0.821866 0.333968 0.118708
Si Si4 0.658282 0.539610 0.752672
Si Si5 0.142009 0.262910 0.289634
Si Si6 0.684326 0.000040 0.773692
O O1 0.329905 0.154240 0.023870
O O2 0.316183 0.939936 0.067385
O O3 0.195783 0.022057 0.035124
O O4 0.290245 0.967110 0.948426
O O5 0.919399 0.509753 0.611609
O O6 0.857397 0.566333 0.716615
O O7 0.000000 0.500000 0.708115
O O8 0.750000 0.250000 0.121714
O O9 0.833676 0.401117 0.184207
O O10 0.886160 0.253456 0.087403
O O11 0.661094 0.392855 0.758524
O O12 0.737436 0.564169 0.785503
O O13 0.177823 0.144694 0.255838
#
# Coordination Sequence:
#
# PCOD9372468 Si02
#       6
#    16  16  16  16  16  16
#     4  11  24  47  72 111 144 193 253 314 374 447
#     4  11  22  43  79 100 137 199 257 303 362 471
#     4  11  24  47  76 100 142 199 249 305 370 460
#     4  12  28  42  71 112 153 187 247 319 381 449
#     4  12  24  47  68 107 153 197 244 303 390 457
#     4  11  23  45  75 103 141 199 253 293 378 455
#
# _framework density 22.778724
#
# number of rings (size 3 to 8) (size 9 to 14) (size 15 to 20)
#    0.000    0.667    3.333    5.000    4.667    1.333 
#    9.000    3.333    0.000    0.000    0.000    0.000 
#    0.000    0.000    0.000    0.000    0.000    0.000 
#
# Total GULP energy -133660.647360 kJ/mol
# GULP energy per Si atom -5569.193640 kJ/mol
# Density = 2.272688 g / cm^3
# Si number density = 22.778724 Si / 1000 Ang^3
#
#
#
# Elastic Constant Matrix: (Units=GPa)
#
#
# Indices 1 2 3 4 5 6 
#
# 1 148.4543 44.6591 16.8630 0.0000 0.0000 0.0000
# 2 44.6591 92.3184 19.5554 0.0000 0.0000 0.0000
# 3 16.8630 19.5554 68.1867 0.0000 0.0000 0.0000
# 4 0.0000 0.0000 0.0000 74.7247 0.0000 0.0000
# 5 0.0000 0.0000 0.0000 0.0000 17.3326 0.0000
# 6 0.0000 0.0000 0.0000 0.0000 0.0000 35.8615
#
#
#
# Elastic Compliance Matrix: (Units=1/GPa)
#
#
# Indices 1 2 3 4 5 6 
#
# 1 0.007937 -0.003645 -0.000917 0.000000 0.000000 0.000000
# 2 -0.003645 0.013207 -0.002886 0.000000 0.000000 0.000000
# 3 -0.000917 -0.002886 0.015720 0.000000 0.000000 0.000000
# 4 0.000000 0.000000 0.000000 0.013382 0.000000 0.000000
# 5 0.000000 0.000000 0.000000 0.000000 0.057695 0.000000
# 6 0.000000 0.000000 0.000000 0.000000 0.000000 0.027885
#
#
# Mechanical properties :
#
#
# Convention : Reuss Voigt Hill
#
# Bulk Modulus (GPa) = 45.52397 52.34604 48.93501
# Shear Modulus (GPa) = 31.63646 40.77589 36.20618
#
# Velocity S-wave (km/s) = 3.73078 4.23553 3.99115
# Velocity P-wave (km/s) = 6.21185 6.85199 6.53975
#
# Compressibility (1/GPa) = 0.02196645
#
# Stress axis : x y z
#
# Youngs Moduli (GPa) = 125.99472 75.71882 63.61227
#
# Poissons Ratio (x) = 0.27600 0.05836
# Poissons Ratio (y) = 0.45926 0.18359
# Poissons Ratio (z) = 0.11559 0.21854
#
# Static dielectric constant tensor:
#      x y z
#    x 2.151820 0.000000 0.000000 
#    y 0.000000 1.923400 0.000000 
#    z 0.000000 0.000000 1.875490 
# 
# From -- ./inp_files/22380.got.cif
#   From: 2010.05.17/outbox.cif.g08.bks.cpg/sg43_12_cif.got.tgz:22380.got - 2010.06.03 19:21:55.
