data_PCOD9372919
_publ_section_title
;
Structure prediction by ZEFSAII (Michael W. Deem and Ramdas Pophale) SiO2 
 PCOD9372919
Probable space group: F D D 2
;
_chemical_formula_sum "Si O2"
_cell_formula_units_Z 56
_cell_length_a 14.322800
_cell_length_b 29.072643
_cell_length_c 4.830897
_cell_angle_alpha 90.000000
_cell_angle_beta 90.000000
_cell_angle_gamma 90.000000
_cell_volume 2011.593487
_symmetry_space_group_name_H-M "F D D 2"
_symmetry_group_IT_number 43
_symmetry_cell_setting 'orthorhombic'
loop_
_space_group_symop_operation_xyz
x,y,z
-x,-y,z
1/4-x,1/4+y,1/4+z
1/4+x,1/4-y,1/4+z
x,1/2+y,1/2+z
-x,1/2-y,1/2+z
1/4-x,3/4+y,3/4+z
1/4+x,3/4-y,3/4+z
1/2+x,y,1/2+z
1/2-x,-y,1/2+z
3/4-x,1/4+y,3/4+z
3/4+x,1/4-y,3/4+z
1/2+x,1/2+y,z
1/2-x,1/2-y,z
3/4-x,3/4+y,1/4+z
3/4+x,3/4-y,1/4+z
loop_
_atom_site_type_symbol
_atom_site_label
_atom_site_fract_x
_atom_site_fract_y
_atom_site_fract_z
Si Si1 0.807663 0.832217 0.025600
Si Si2 0.633280 0.119759 0.043911
Si Si3 0.446901 0.227910 0.712656
Si Si4 0.500000 0.000000 0.670611
O O1 0.862799 0.867485 0.223035
O O2 0.788923 0.788100 0.208320
O O3 0.708124 0.852295 0.942545
O O4 0.848646 0.833639 0.717681
O O5 0.701667 0.075241 0.063843
O O6 0.482267 0.260085 0.962962
O O7 0.339744 0.233432 0.601579
#
# Coordination Sequence:
#
# PCOD9372919 Si02
#       4
#    16  16  16   8
#     4  12  28  51  82 116 169 212 278 349 424 506
#     4  12  28  51  76 124 157 218 279 337 437 506
#     4  12  29  52  87 123 166 220 286 353 437 516
#     4  12  30  56  86 126 172 220 290 356 436 502
#
# _framework density 27.838625
#
# number of rings (size 3 to 8) (size 9 to 14) (size 15 to 20)
#    0.000    0.000    0.000    8.571   12.000    8.000 
#    0.000    0.000    0.000    0.000    0.000    0.000 
#    0.000    0.000    0.000    0.000    0.000    0.000 
#
# Total GULP energy -78425.875272 kJ/mol
# GULP energy per Si atom -5601.848234 kJ/mol
# Density = 2.777526 g / cm^3
# Si number density = 27.838625 Si / 1000 Ang^3
#
#
#
# Elastic Constant Matrix: (Units=GPa)
#
#
# Indices 1 2 3 4 5 6 
#
# 1 157.4241 33.7014 59.9699 -0.0029 -0.0141 0.0029
# 2 33.7014 120.1939 54.6505 -0.0021 -0.0050 0.0020
# 3 59.9699 54.6505 216.1474 -0.0073 -0.0273 0.0092
# 4 -0.0029 -0.0021 -0.0073 62.5623 0.0022 -0.0034
# 5 -0.0141 -0.0050 -0.0273 0.0022 44.7648 -0.0033
# 6 0.0029 0.0020 0.0092 -0.0034 -0.0033 27.2330
#
#
#
# Elastic Compliance Matrix: (Units=1/GPa)
#
#
# Indices 1 2 3 4 5 6 
#
# 1 0.007270 -0.001267 -0.001697 0.000000 0.000001 0.000000
# 2 -0.001267 0.009621 -0.002081 0.000000 -0.000001 0.000000
# 3 -0.001697 -0.002081 0.005623 0.000001 0.000003 -0.000002
# 4 0.000000 0.000000 0.000001 0.015984 -0.000001 0.000002
# 5 0.000001 -0.000001 0.000003 -0.000001 0.022339 0.000003
# 6 0.000000 0.000000 -0.000002 0.000002 0.000003 0.036720
#
#
# Mechanical properties :
#
#
# Convention : Reuss Voigt Hill
#
# Bulk Modulus (GPa) = 80.48226 87.82321 84.15274
# Shear Modulus (GPa) = 44.72707 49.94159 47.33433
#
# Velocity S-wave (km/s) = 4.01266 4.24012 4.12796
# Velocity P-wave (km/s) = 7.10223 7.45568 7.28110
#
# Compressibility (1/GPa) = 0.01242510
#
# Stress axis : x y z
#
# Youngs Moduli (GPa) = 137.55470 103.93493 177.82807
#
# Poissons Ratio (x) = 0.13168 0.30172
# Poissons Ratio (y) = 0.17428 0.37009
# Poissons Ratio (z) = 0.23339 0.21630
#
# Static dielectric constant tensor:
#      x y z
#    x 2.294970 0.000000 0.000000 
#    y 0.000000 2.186280 0.000000 
#    z 0.000000 0.000000 2.002450 
# 
# From -- ./inp_files/313.got.cif
#   From: 2010.05.17/outbox.cif.g08.bks.cpg/sg43_1_cif.got.tgz:313.got - 2010.06.03 19:21:55.
