data_PCOD9372881
_publ_section_title
;
Structure prediction by ZEFSAII (Michael W. Deem and Ramdas Pophale) SiO2 
 PCOD9372881
Probable space group: F D D 2
;
_chemical_formula_sum "Si O2"
_cell_formula_units_Z 72
_cell_length_a 29.241899
_cell_length_b 14.224433
_cell_length_c 7.442579
_cell_angle_alpha 90.000000
_cell_angle_beta 90.000000
_cell_angle_gamma 90.000000
_cell_volume 3095.736516
_symmetry_space_group_name_H-M "F D D 2"
_symmetry_group_IT_number 43
_symmetry_cell_setting 'orthorhombic'
loop_
_space_group_symop_operation_xyz
x,y,z
-x,-y,z
1/4-x,1/4+y,1/4+z
1/4+x,1/4-y,1/4+z
x,1/2+y,1/2+z
-x,1/2-y,1/2+z
1/4-x,3/4+y,3/4+z
1/4+x,3/4-y,3/4+z
1/2+x,y,1/2+z
1/2-x,-y,1/2+z
3/4-x,1/4+y,3/4+z
3/4+x,1/4-y,3/4+z
1/2+x,1/2+y,z
1/2-x,1/2-y,z
3/4-x,3/4+y,1/4+z
3/4+x,3/4-y,1/4+z
loop_
_atom_site_type_symbol
_atom_site_label
_atom_site_fract_x
_atom_site_fract_y
_atom_site_fract_z
Si Si1 0.250000 0.750000 0.234610
Si Si2 0.777538 0.102356 0.542986
Si Si3 0.816316 0.895104 0.548224
Si Si4 0.633486 0.797102 0.110775
Si Si5 0.424372 0.142040 0.398687
O O1 0.228305 0.831924 0.364459
O O2 0.214317 0.692936 0.110668
O O3 0.821038 0.142407 0.650583
O O4 0.728803 0.110189 0.638583
O O5 0.787160 0.991547 0.523799
O O6 0.854100 0.910299 0.700313
O O7 0.838921 0.885365 0.354355
O O8 0.599655 0.779585 0.278645
O O9 0.654751 0.699050 0.049301
#
# Coordination Sequence:
#
# PCOD9372881 Si02
#       5
#     8  16  16  16  16
#     4  12  26  52  84 114 160 216 262 334 408 478
#     4  12  25  53  78 115 165 202 271 331 396 481
#     4  12  29  50  80 117 161 213 262 337 408 477
#     4  12  25  51  76 114 159 202 270 330 389 489
#     4  12  28  48  80 115 154 214 261 334 405 482
#
# _framework density 23.257791999999998
#
# number of rings (size 3 to 8) (size 9 to 14) (size 15 to 20)
#    0.000    0.000    6.667    1.333    6.222    0.000 
#    0.000    0.000    0.000    0.000    0.000    0.000 
#    0.000    0.000    0.000    0.000    0.000    0.000 
#
# Total GULP energy -100620.405178 kJ/mol
# GULP energy per Si atom -5590.022510 kJ/mol
# Density = 2.320486 g / cm^3
# Si number density = 23.257792 Si / 1000 Ang^3
#
#
#
# Elastic Constant Matrix: (Units=GPa)
#
#
# Indices 1 2 3 4 5 6 
#
# 1 146.6612 34.7376 56.8530 0.0000 0.0000 0.0000
# 2 34.7376 91.2993 9.5537 0.0000 0.0000 0.0000
# 3 56.8530 9.5537 135.1161 0.0000 0.0000 0.0000
# 4 0.0000 0.0000 0.0000 20.5222 0.0000 0.0000
# 5 0.0000 0.0000 0.0000 0.0000 14.6358 0.0000
# 6 0.0000 0.0000 0.0000 0.0000 0.0000 55.9172
#
#
#
# Elastic Compliance Matrix: (Units=1/GPa)
#
#
# Indices 1 2 3 4 5 6 
#
# 1 0.008903 -0.003018 -0.003533 0.000000 0.000000 0.000000
# 2 -0.003018 0.012057 0.000417 0.000000 0.000000 0.000000
# 3 -0.003533 0.000417 0.008858 0.000000 0.000000 0.000000
# 4 0.000000 0.000000 0.000000 0.048728 0.000000 0.000000
# 5 0.000000 0.000000 0.000000 0.000000 0.068326 0.000000
# 6 0.000000 0.000000 0.000000 0.000000 0.000000 0.017884
#
#
# Mechanical properties :
#
#
# Convention : Reuss Voigt Hill
#
# Bulk Modulus (GPa) = 56.97368 63.92948 60.45158
# Shear Modulus (GPa) = 27.34159 36.34387 31.84273
#
# Velocity S-wave (km/s) = 3.43241 3.95733 3.70418
# Velocity P-wave (km/s) = 6.34494 6.95900 6.65905
#
# Compressibility (1/GPa) = 0.01755196
#
# Stress axis : x y z
#
# Youngs Moduli (GPa) = 112.32703 82.93618 112.89284
#
# Poissons Ratio (x) = 0.25027 0.39880
# Poissons Ratio (y) = 0.33896 -0.04710
# Poissons Ratio (z) = 0.39680 -0.03460
#
# Static dielectric constant tensor:
#      x y z
#    x 1.882150 0.000000 0.000000 
#    y 0.000000 1.954430 0.000000 
#    z 0.000000 0.000000 1.883210 
# 
# From -- ./inp_files/2347.got.cif
#   From: 2010.05.17/outbox.cif.g08.bks.cpg/sg43_2_cif.got.tgz:2347.got - 2010.06.03 19:21:55.
