data_PCOD9372767
_publ_section_title
;
Structure prediction by ZEFSAII (Michael W. Deem and Ramdas Pophale) SiO2 
 PCOD9372767
Probable space group: F D D 2
;
_chemical_formula_sum "Si O2"
_cell_formula_units_Z 40
_cell_length_a 11.250816
_cell_length_b 11.353249
_cell_length_c 11.393335
_cell_angle_alpha 90.000000
_cell_angle_beta 90.000000
_cell_angle_gamma 90.000000
_cell_volume 1455.308454
_symmetry_space_group_name_H-M "F D D 2"
_symmetry_group_IT_number 43
_symmetry_cell_setting 'orthorhombic'
loop_
_space_group_symop_operation_xyz
x,y,z
-x,-y,z
1/4-x,1/4+y,1/4+z
1/4+x,1/4-y,1/4+z
x,1/2+y,1/2+z
-x,1/2-y,1/2+z
1/4-x,3/4+y,3/4+z
1/4+x,3/4-y,3/4+z
1/2+x,y,1/2+z
1/2-x,-y,1/2+z
3/4-x,1/4+y,3/4+z
3/4+x,1/4-y,3/4+z
1/2+x,1/2+y,z
1/2-x,1/2-y,z
3/4-x,3/4+y,1/4+z
3/4+x,3/4-y,1/4+z
loop_
_atom_site_type_symbol
_atom_site_label
_atom_site_fract_x
_atom_site_fract_y
_atom_site_fract_z
Si Si1 0.419450 0.401423 0.010240
Si Si2 0.000000 0.000000 0.596008
Si Si3 0.113555 0.727079 0.998862
O O1 0.500000 0.500000 0.945375
O O2 0.357786 0.474497 0.114703
O O3 0.334085 0.329282 0.927321
O O4 0.514045 0.307706 0.062027
O O5 0.923857 0.906356 0.522560
O O6 0.250000 0.750000 0.033054
#
# Coordination Sequence:
#
# PCOD9372767 Si02
#       3
#    16   8  16
#     4  11  28  55  85 126 175 221 291 358 420 517
#     4  12  30  56  92 120 176 232 278 362 436 496
#     4  11  29  54  88 128 173 226 289 355 429 513
#
# _framework density 27.485581
#
# number of rings (size 3 to 8) (size 9 to 14) (size 15 to 20)
#    0.000    0.800    0.000    2.400   19.600    6.400 
#    0.000    0.000    0.000    0.000    0.000    0.000 
#    0.000    0.000    0.000    0.000    0.000    0.000 
#
# Total GULP energy -56147.394532 kJ/mol
# GULP energy per Si atom -5614.739453 kJ/mol
# Density = 2.742302 g / cm^3
# Si number density = 27.485581 Si / 1000 Ang^3
#
#
#
# Elastic Constant Matrix: (Units=GPa)
#
#
# Indices 1 2 3 4 5 6 
#
# 1 210.1128 132.0667 98.6187 0.0000 0.0000 0.0000
# 2 132.0667 288.4477 116.7514 0.0000 0.0000 0.0000
# 3 98.6187 116.7514 158.6858 0.0000 0.0000 0.0000
# 4 0.0000 0.0000 0.0000 48.4645 0.0000 0.0000
# 5 0.0000 0.0000 0.0000 0.0000 39.0320 0.0000
# 6 0.0000 0.0000 0.0000 0.0000 0.0000 84.2531
#
#
#
# Elastic Compliance Matrix: (Units=1/GPa)
#
#
# Indices 1 2 3 4 5 6 
#
# 1 0.007614 -0.002237 -0.003086 0.000000 0.000000 0.000000
# 2 -0.002237 0.005594 -0.002726 0.000000 0.000000 0.000000
# 3 -0.003086 -0.002726 0.010225 0.000000 0.000000 0.000000
# 4 0.000000 0.000000 0.000000 0.020634 0.000000 0.000000
# 5 0.000000 0.000000 0.000000 0.000000 0.025620 0.000000
# 6 0.000000 0.000000 0.000000 0.000000 0.000000 0.011869
#
#
# Mechanical properties :
#
#
# Convention : Reuss Voigt Hill
#
# Bulk Modulus (GPa) = 136.31700 150.23556 143.27628
# Shear Modulus (GPa) = 49.95084 55.00387 52.47736
#
# Velocity S-wave (km/s) = 4.26766 4.47832 4.37426
# Velocity P-wave (km/s) = 8.60159 9.02878 8.81777
#
# Compressibility (1/GPa) = 0.00733584
#
# Stress axis : x y z
#
# Youngs Moduli (GPa) = 131.34031 178.75369 97.79916
#
# Poissons Ratio (x) = 0.39986 0.30180
# Poissons Ratio (y) = 0.29380 0.26658
# Poissons Ratio (z) = 0.40531 0.48724
#
# Static dielectric constant tensor:
#      x y z
#    x 2.174330 0.000000 0.000000 
#    y 0.000000 2.148720 0.000000 
#    z 0.000000 0.000000 2.213780 
# 
# From -- ./inp_files/5811.got.cif
#   From: 2010.05.17/outbox.cif.g08.bks.cpg/sg43_3_cif.got.tgz:5811.got - 2010.06.03 19:21:55.
