data_PCOD9372367
_publ_section_title
;
Structure prediction by ZEFSAII (Michael W. Deem and Ramdas Pophale) SiO2 
 PCOD9372367
Probable space group: F D D 2
;
_chemical_formula_sum "Si O2"
_cell_formula_units_Z 96
_cell_length_a 16.699318
_cell_length_b 10.797630
_cell_length_c 26.524252
_cell_angle_alpha 90.000000
_cell_angle_beta 90.000000
_cell_angle_gamma 90.000000
_cell_volume 4782.668963
_symmetry_space_group_name_H-M "F D D 2"
_symmetry_group_IT_number 43
_symmetry_cell_setting 'orthorhombic'
loop_
_space_group_symop_operation_xyz
x,y,z
-x,-y,z
1/4-x,1/4+y,1/4+z
1/4+x,1/4-y,1/4+z
x,1/2+y,1/2+z
-x,1/2-y,1/2+z
1/4-x,3/4+y,3/4+z
1/4+x,3/4-y,3/4+z
1/2+x,y,1/2+z
1/2-x,-y,1/2+z
3/4-x,1/4+y,3/4+z
3/4+x,1/4-y,3/4+z
1/2+x,1/2+y,z
1/2-x,1/2-y,z
3/4-x,3/4+y,1/4+z
3/4+x,3/4-y,1/4+z
loop_
_atom_site_type_symbol
_atom_site_label
_atom_site_fract_x
_atom_site_fract_y
_atom_site_fract_z
Si Si1 0.633780 0.656400 0.478610
Si Si2 0.660617 0.194575 0.716018
Si Si3 0.843782 0.205706 0.611169
Si Si4 0.440171 0.687188 0.338684
Si Si5 0.885432 0.696300 0.320842
Si Si6 0.750000 0.250000 0.171495
Si Si7 0.000000 0.000000 0.153141
O O1 0.600544 0.797009 0.471004
O O2 0.659857 0.623550 0.536121
O O3 0.563933 0.570388 0.456548
O O4 0.712728 0.650817 0.442816
O O5 0.750000 0.250000 0.714890
O O6 0.622970 0.247520 0.664669
O O7 0.627045 0.249324 0.766607
O O8 0.750000 0.250000 0.612304
O O9 0.874548 0.297685 0.568219
O O10 0.858726 0.062043 0.602061
O O11 0.528819 0.747245 0.335244
O O12 0.449350 0.589171 0.383782
O O13 0.822933 0.733134 0.364059
#
# Coordination Sequence:
#
# PCOD9372367 Si02
#       7
#    16  16  16  16  16   8   8
#     4  12  26  41  71 104 138 193 237 298 372 443
#     4  11  21  37  64  95 126 174 236 283 344 425
#     4   9  20  39  59  89 128 174 221 278 348 412
#     4  11  24  43  67  98 146 185 224 300 366 422
#     4  11  21  39  68  98 130 175 237 296 347 422
#     4  12  23  46  66 102 148 186 243 302 370 428
#     4  12  21  42  66 106 128 176 249 290 350 450
#
# _framework density 20.072475000000001
#
# number of rings (size 3 to 8) (size 9 to 14) (size 15 to 20)
#    0.000    1.000    4.167    4.500    0.000    2.667 
#    0.000    0.000    0.000    0.000    0.000    0.000 
#    0.000    0.000    0.000    0.000    0.000    0.000 
#
# Total GULP energy -133647.894737 kJ/mol
# GULP energy per Si atom -5568.662281 kJ/mol
# Density = 2.002679 g / cm^3
# Si number density = 20.072475 Si / 1000 Ang^3
#
#
#
# Elastic Constant Matrix: (Units=GPa)
#
#
# Indices 1 2 3 4 5 6 
#
# 1 65.3930 33.7159 40.1692 0.0000 0.0000 0.0000
# 2 33.7159 145.7734 65.9396 0.0000 0.0000 0.0000
# 3 40.1692 65.9396 115.3157 0.0000 0.0000 0.0000
# 4 0.0000 0.0000 0.0000 33.8910 0.0000 0.0000
# 5 0.0000 0.0000 0.0000 0.0000 42.7515 0.0000
# 6 0.0000 0.0000 0.0000 0.0000 0.0000 29.4993
#
#
#
# Elastic Compliance Matrix: (Units=1/GPa)
#
#
# Indices 1 2 3 4 5 6 
#
# 1 0.019868 -0.001976 -0.005791 0.000000 0.000000 0.000000
# 2 -0.001976 0.009450 -0.004715 0.000000 0.000000 0.000000
# 3 -0.005791 -0.004715 0.013385 0.000000 0.000000 0.000000
# 4 0.000000 0.000000 0.000000 0.029506 0.000000 0.000000
# 5 0.000000 0.000000 0.000000 0.000000 0.023391 0.000000
# 6 0.000000 0.000000 0.000000 0.000000 0.000000 0.033899
#
#
# Mechanical properties :
#
#
# Convention : Reuss Voigt Hill
#
# Bulk Modulus (GPa) = 56.37285 67.34793 61.86039
# Shear Modulus (GPa) = 31.17642 33.67218 32.42430
#
# Velocity S-wave (km/s) = 3.94533 4.10021 4.02352
# Velocity P-wave (km/s) = 6.99284 7.48604 7.24364
#
# Compressibility (1/GPa) = 0.01773904
#
# Stress axis : x y z
#
# Youngs Moduli (GPa) = 50.33177 105.82117 74.70771
#
# Poissons Ratio (x) = 0.20907 0.43264
# Poissons Ratio (y) = 0.09944 0.35228
# Poissons Ratio (z) = 0.29148 0.49899
#
# Static dielectric constant tensor:
#      x y z
#    x 1.735940 0.000000 0.000000 
#    y 0.000000 1.721450 0.000000 
#    z 0.000000 0.000000 1.716330 
# 
# From -- ./inp_files/25983.got.cif
#   From: 2010.05.17/outbox.cif.g08.bks.cpg/sg43_13_cif.got.tgz:25983.got - 2010.06.03 19:21:55.
