data_PCOD9372250
_publ_section_title
;
Structure prediction by ZEFSAII (Michael W. Deem and Ramdas Pophale) SiO2 
 PCOD9372250
Probable space group: F D D 2
;
_chemical_formula_sum "Si O2"
_cell_formula_units_Z 80
_cell_length_a 17.832107
_cell_length_b 20.196863
_cell_length_c 10.078041
_cell_angle_alpha 90.000000
_cell_angle_beta 90.000000
_cell_angle_gamma 90.000000
_cell_volume 3629.632892
_symmetry_space_group_name_H-M "F D D 2"
_symmetry_group_IT_number 43
_symmetry_cell_setting 'orthorhombic'
loop_
_space_group_symop_operation_xyz
x,y,z
-x,-y,z
1/4-x,1/4+y,1/4+z
1/4+x,1/4-y,1/4+z
x,1/2+y,1/2+z
-x,1/2-y,1/2+z
1/4-x,3/4+y,3/4+z
1/4+x,3/4-y,3/4+z
1/2+x,y,1/2+z
1/2-x,-y,1/2+z
3/4-x,1/4+y,3/4+z
3/4+x,1/4-y,3/4+z
1/2+x,1/2+y,z
1/2-x,1/2-y,z
3/4-x,3/4+y,1/4+z
3/4+x,3/4-y,1/4+z
loop_
_atom_site_type_symbol
_atom_site_label
_atom_site_fract_x
_atom_site_fract_y
_atom_site_fract_z
Si Si1 0.480049 0.391978 0.641250
Si Si2 0.918978 0.687728 0.342168
Si Si3 0.114195 0.447964 0.742978
Si Si4 0.500000 0.000000 0.342848
Si Si5 0.752496 0.357136 0.800411
Si Si6 0.750000 0.750000 0.676755
O O1 0.537435 0.343199 0.716718
O O2 0.416086 0.346459 0.583004
O O3 0.510796 0.436031 0.519771
O O4 0.455477 0.449619 0.746742
O O5 0.905313 0.765188 0.371316
O O6 0.835220 0.655793 0.327606
O O7 0.971831 0.670657 0.469168
O O8 0.048259 0.402974 0.683595
O O9 0.072557 0.503206 0.832567
O O10 0.465993 0.051533 0.446390
#
# Coordination Sequence:
#
# PCOD9372250 Si02
#       6
#    16  16  16   8  16   8
#     4  10  26  42  70  99 139 177 231 284 346 406
#     4  11  24  44  67 104 130 188 227 285 340 421
#     4  12  23  44  67 104 137 185 226 292 343 412
#     4   9  19  46  68  92 131 187 216 274 340 413
#     4  11  22  43  72  93 141 177 233 281 351 406
#     4  11  23  46  68 102 143 175 230 292 352 391
#
# _framework density 22.040796
#
# number of rings (size 3 to 8) (size 9 to 14) (size 15 to 20)
#    0.000    1.200    4.000    1.200    5.600    1.600 
#    3.600    0.000    0.000    0.000    0.000    0.000 
#    0.000    0.000    0.000    0.000    0.000    0.000 
#
# Total GULP energy -111359.353486 kJ/mol
# GULP energy per Si atom -5567.967674 kJ/mol
# Density = 2.199063 g / cm^3
# Si number density = 22.040796 Si / 1000 Ang^3
#
#
#
# Elastic Constant Matrix: (Units=GPa)
#
#
# Indices 1 2 3 4 5 6 
#
# 1 125.9345 32.4567 60.8525 0.0000 0.0000 0.0000
# 2 32.4567 42.3453 14.4679 0.0000 0.0000 0.0000
# 3 60.8525 14.4679 98.6250 0.0000 0.0000 0.0000
# 4 0.0000 0.0000 0.0000 29.9671 0.0000 0.0000
# 5 0.0000 0.0000 0.0000 0.0000 49.2169 0.0000
# 6 0.0000 0.0000 0.0000 0.0000 0.0000 30.0423
#
#
#
# Elastic Compliance Matrix: (Units=1/GPa)
#
#
# Indices 1 2 3 4 5 6 
#
# 1 0.013401 -0.007839 -0.007118 0.000000 0.000000 0.000000
# 2 -0.007839 0.029447 0.000517 0.000000 0.000000 0.000000
# 3 -0.007118 0.000517 0.014456 0.000000 0.000000 0.000000
# 4 0.000000 0.000000 0.000000 0.033370 0.000000 0.000000
# 5 0.000000 0.000000 0.000000 0.000000 0.020318 0.000000
# 6 0.000000 0.000000 0.000000 0.000000 0.000000 0.033286
#
#
# Mechanical properties :
#
#
# Convention : Reuss Voigt Hill
#
# Bulk Modulus (GPa) = 35.18330 53.60657 44.39493
# Shear Modulus (GPa) = 27.37729 32.45380 29.91554
#
# Velocity S-wave (km/s) = 3.52819 3.84140 3.68813
# Velocity P-wave (km/s) = 5.70920 6.63698 6.19050
#
# Compressibility (1/GPa) = 0.02842258
#
# Stress axis : x y z
#
# Youngs Moduli (GPa) = 74.62339 33.95901 69.17716
#
# Poissons Ratio (x) = 0.26621 0.49243
# Poissons Ratio (y) = 0.58499 -0.03577
# Poissons Ratio (z) = 0.53119 -0.01756
#
# Static dielectric constant tensor:
#      x y z
#    x 1.780770 0.000000 0.000000 
#    y 0.000000 1.994190 0.000000 
#    z 0.000000 0.000000 1.859780 
# 
# From -- ./inp_files/3195.got.cif
#   From: 2010.05.17/outbox.cif.g08.bks.cpg/sg43_2_cif.got.tgz:3195.got - 2010.06.03 19:21:55.
