data_PCOD9372377
_publ_section_title
;
Structure prediction by ZEFSAII (Michael W. Deem and Ramdas Pophale) SiO2 
 PCOD9372377
Probable space group: F D D 2
;
_chemical_formula_sum "Si O2"
_cell_formula_units_Z 104
_cell_length_a 18.647851
_cell_length_b 14.151540
_cell_length_c 16.995955
_cell_angle_alpha 90.000000
_cell_angle_beta 90.000000
_cell_angle_gamma 90.000000
_cell_volume 4485.161300
_symmetry_space_group_name_H-M "F D D 2"
_symmetry_group_IT_number 43
_symmetry_cell_setting 'orthorhombic'
loop_
_space_group_symop_operation_xyz
x,y,z
-x,-y,z
1/4-x,1/4+y,1/4+z
1/4+x,1/4-y,1/4+z
x,1/2+y,1/2+z
-x,1/2-y,1/2+z
1/4-x,3/4+y,3/4+z
1/4+x,3/4-y,3/4+z
1/2+x,y,1/2+z
1/2-x,-y,1/2+z
3/4-x,1/4+y,3/4+z
3/4+x,1/4-y,3/4+z
1/2+x,1/2+y,z
1/2-x,1/2-y,z
3/4-x,3/4+y,1/4+z
3/4+x,3/4-y,1/4+z
loop_
_atom_site_type_symbol
_atom_site_label
_atom_site_fract_x
_atom_site_fract_y
_atom_site_fract_z
Si Si1 0.421792 0.362856 0.293760
Si Si2 0.250000 0.750000 0.139620
Si Si3 0.984149 0.608926 0.185034
Si Si4 0.801501 0.018088 0.567295
Si Si5 0.823448 0.702674 0.379814
Si Si6 0.920492 0.823940 0.984044
Si Si7 0.062386 0.383312 0.026757
O O1 0.432575 0.460131 0.341189
O O2 0.504042 0.322653 0.296649
O O3 0.398462 0.390804 0.204670
O O4 0.374590 0.284363 0.341106
O O5 0.222715 0.668020 0.197391
O O6 0.901216 0.627304 0.206385
O O7 0.994824 0.636974 0.095104
O O8 0.000000 0.500000 0.193070
O O9 0.028945 0.663299 0.247916
O O10 0.783709 0.057626 0.654608
O O11 0.887527 0.030797 0.559523
O O12 0.750000 0.750000 0.408841
O O13 0.801953 0.632943 0.307832
O O14 0.901674 0.718004 0.012250
#
# Coordination Sequence:
#
# PCOD9372377 Si02
#       7
#    16   8  16  16  16  16  16
#     4  12  28  53  72 110 152 203 253 319 385 470
#     4  12  26  48  74 100 146 198 252 308 390 448
#     4  11  21  40  65 102 139 175 228 298 367 424
#     4  11  24  43  71 105 146 184 238 311 367 452
#     4  12  30  50  77 111 152 202 260 317 396 468
#     4  11  24  43  71 105 137 193 241 299 382 450
#     4  11  24  42  71 105 138 189 245 304 377 453
#
# _framework density 23.187573
#
# number of rings (size 3 to 8) (size 9 to 14) (size 15 to 20)
#    0.000    0.615    6.154    0.923    6.462    0.615 
#    2.769    0.000    0.000    0.000    0.000    0.000 
#    0.000    0.000    0.000    0.000    0.000    0.000 
#
# Total GULP energy -145019.494045 kJ/mol
# GULP energy per Si atom -5577.672848 kJ/mol
# Density = 2.313480 g / cm^3
# Si number density = 23.187573 Si / 1000 Ang^3
#
#
#
# Elastic Constant Matrix: (Units=GPa)
#
#
# Indices 1 2 3 4 5 6 
#
# 1 42.6578 15.1986 17.9523 0.0000 0.0000 0.0000
# 2 15.1986 77.7686 49.0548 0.0000 0.0000 0.0000
# 3 17.9523 49.0548 169.3221 0.0000 0.0000 0.0000
# 4 0.0000 0.0000 0.0000 15.1339 0.0000 0.0000
# 5 0.0000 0.0000 0.0000 0.0000 17.3834 0.0000
# 6 0.0000 0.0000 0.0000 0.0000 0.0000 27.0708
#
#
#
# Elastic Compliance Matrix: (Units=1/GPa)
#
#
# Indices 1 2 3 4 5 6 
#
# 1 0.025522 -0.004015 -0.001543 0.000000 0.000000 0.000000
# 2 -0.004015 0.016365 -0.004316 0.000000 0.000000 0.000000
# 3 -0.001543 -0.004316 0.007320 0.000000 0.000000 0.000000
# 4 0.000000 0.000000 0.000000 0.066077 0.000000 0.000000
# 5 0.000000 0.000000 0.000000 0.000000 0.057526 0.000000
# 6 0.000000 0.000000 0.000000 0.000000 0.000000 0.036940
#
#
# Mechanical properties :
#
#
# Convention : Reuss Voigt Hill
#
# Bulk Modulus (GPa) = 33.94321 50.46222 42.20271
# Shear Modulus (GPa) = 20.89280 25.75382 23.32331
#
# Velocity S-wave (km/s) = 3.00498 3.33629 3.17496
# Velocity P-wave (km/s) = 5.16819 6.05401 5.62855
#
# Compressibility (1/GPa) = 0.02946097
#
# Stress axis : x y z
#
# Youngs Moduli (GPa) = 39.18177 61.10423 136.61615
#
# Poissons Ratio (x) = 0.24531 0.21078
# Poissons Ratio (y) = 0.15730 0.58958
# Poissons Ratio (z) = 0.06045 0.26370
#
# Static dielectric constant tensor:
#      x y z
#    x 2.078350 0.000000 0.000000 
#    y 0.000000 1.972630 0.000000 
#    z 0.000000 0.000000 1.941600 
# 
# From -- ./inp_files/14608.got.cif
#   From: 2010.05.17/outbox.cif.g08.bks.cpg/sg43_8_cif.got.tgz:14608.got - 2010.06.03 19:21:55.
