data_PCOD9372595
_publ_section_title
;
Structure prediction by ZEFSAII (Michael W. Deem and Ramdas Pophale) SiO2 
 PCOD9372595
Probable space group: F D D 2
;
_chemical_formula_sum "Si O2"
_cell_formula_units_Z 112
_cell_length_a 12.341453
_cell_length_b 13.267602
_cell_length_c 36.950996
_cell_angle_alpha 90.000000
_cell_angle_beta 90.000000
_cell_angle_gamma 90.000000
_cell_volume 6050.411013
_symmetry_space_group_name_H-M "F D D 2"
_symmetry_group_IT_number 43
_symmetry_cell_setting 'orthorhombic'
loop_
_space_group_symop_operation_xyz
x,y,z
-x,-y,z
1/4-x,1/4+y,1/4+z
1/4+x,1/4-y,1/4+z
x,1/2+y,1/2+z
-x,1/2-y,1/2+z
1/4-x,3/4+y,3/4+z
1/4+x,3/4-y,3/4+z
1/2+x,y,1/2+z
1/2-x,-y,1/2+z
3/4-x,1/4+y,3/4+z
3/4+x,1/4-y,3/4+z
1/2+x,1/2+y,z
1/2-x,1/2-y,z
3/4-x,3/4+y,1/4+z
3/4+x,3/4-y,1/4+z
loop_
_atom_site_type_symbol
_atom_site_label
_atom_site_fract_x
_atom_site_fract_y
_atom_site_fract_z
Si Si1 0.323180 0.481177 0.452610
Si Si2 0.176819 0.981177 0.177018
Si Si3 0.087297 0.083059 0.650241
Si Si4 0.875890 0.370156 0.067849
Si Si5 0.750000 0.750000 0.369685
Si Si6 0.625890 0.120156 0.811778
Si Si7 0.662703 0.666941 0.229387
Si Si8 0.750000 0.250000 0.259943
O O1 0.375000 0.375000 0.439814
O O2 0.317817 0.560630 0.420084
O O3 0.206335 0.455961 0.468720
O O4 0.401927 0.528658 0.483115
O O5 0.293665 0.955961 0.160908
O O6 0.098074 0.028658 0.146512
O O7 0.182183 0.060630 0.209544
O O8 0.082566 0.098381 0.607221
O O9 0.000000 0.000000 0.661760
O O10 0.750000 0.403804 0.064814
O O11 0.876654 0.250000 0.064814
O O12 0.949448 0.415991 0.036177
O O13 0.699448 0.665991 0.343451
O O14 0.667434 0.151619 0.772406
O O15 0.750000 0.750000 0.217868
#
# Coordination Sequence:
#
# PCOD9372595 Si02
#       8
#    16  16  16  16   8  16  16   8
#     4  12  24  42  70  96 127 175 226 274 325 402
#     4  12  24  42  70  96 127 175 226 274 325 402
#     4  12  25  43  65  98 136 171 217 278 341 396
#     4  11  24  40  67  95 129 173 221 269 326 394
#     4  12  22  42  68  98 129 162 226 273 320 386
#     4  11  24  40  67  95 129 173 221 269 326 394
#     4  12  25  43  65  98 136 171 217 278 341 396
#     4  12  22  42  68  98 129 162 226 273 320 386
#
# _framework density 18.511140000000001
#
# number of rings (size 3 to 8) (size 9 to 14) (size 15 to 20)
#    0.000    0.286    7.143    2.571    4.000    0.000 
#    0.000    0.000    0.000    1.714    0.000    0.000 
#    0.000    0.000    0.000    0.000    0.000    0.000 
#
# Total GULP energy -156523.305833 kJ/mol
# GULP energy per Si atom -5590.118065 kJ/mol
# Density = 1.846901 g / cm^3
# Si number density = 18.511140 Si / 1000 Ang^3
#
#
#
# Elastic Constant Matrix: (Units=GPa)
#
#
# Indices 1 2 3 4 5 6 
#
# 1 111.5449 42.5624 26.0033 0.0000 0.0000 0.0000
# 2 42.5624 98.0784 38.2902 0.0000 0.0000 0.0000
# 3 26.0033 38.2902 112.6499 0.0000 0.0000 0.0000
# 4 0.0000 0.0000 0.0000 38.4385 0.0000 0.0000
# 5 0.0000 0.0000 0.0000 0.0000 -16.4020 0.0000
# 6 0.0000 0.0000 0.0000 0.0000 0.0000 31.3013
#
#
#
# Elastic Compliance Matrix: (Units=1/GPa)
#
#
# Indices 1 2 3 4 5 6 
#
# 1 0.010849 -0.004301 -0.001042 0.000000 0.000000 0.000000
# 2 -0.004301 0.013461 -0.003583 0.000000 0.000000 0.000000
# 3 -0.001042 -0.003583 0.010335 0.000000 0.000000 0.000000
# 4 0.000000 0.000000 0.000000 0.026016 0.000000 0.000000
# 5 0.000000 0.000000 0.000000 0.000000 -0.060968 0.000000
# 6 0.000000 0.000000 0.000000 0.000000 0.000000 0.031948
#
#
# Mechanical properties :
#
#
# Convention : Reuss Voigt Hill
#
# Bulk Modulus (GPa) = 59.54730 59.55390 59.55060
# Shear Modulus (GPa) = 90.75906 25.02872 57.89389
#
# Velocity S-wave (km/s) = 7.00970 3.68107 5.59849
# Velocity P-wave (km/s) = 9.88700 7.09287 8.60411
#
# Compressibility (1/GPa) = 0.01679337
#
# Stress axis : x y z
#
# Youngs Moduli (GPa) = 92.17255 74.28774 96.75460
#
# Poissons Ratio (x) = 0.31953 0.10085
# Poissons Ratio (y) = 0.39645 0.34664
# Poissons Ratio (z) = 0.09608 0.26615
#
# Static dielectric constant tensor:
#      x y z
#    x 1.635510 0.000000 0.000000 
#    y 0.000000 1.611530 0.000000 
#    z 0.000000 0.000000 1.631460 
# 
# From -- ./inp_files/28652.got.cif
#   From: 2010.05.17/outbox.cif.g08.bks.cpg/sg43_15_cif.got.tgz:28652.got - 2010.06.03 19:21:55.
