data_PCOD9372777
_publ_section_title
;
Structure prediction by ZEFSAII (Michael W. Deem and Ramdas Pophale) SiO2 
 PCOD9372777
Probable space group: F D D 2
;
_chemical_formula_sum "Si O2"
_cell_formula_units_Z 88
_cell_length_a 16.855689
_cell_length_b 12.478166
_cell_length_c 23.403362
_cell_angle_alpha 90.000000
_cell_angle_beta 90.000000
_cell_angle_gamma 90.000000
_cell_volume 4922.384321
_symmetry_space_group_name_H-M "F D D 2"
_symmetry_group_IT_number 43
_symmetry_cell_setting 'orthorhombic'
loop_
_space_group_symop_operation_xyz
x,y,z
-x,-y,z
1/4-x,1/4+y,1/4+z
1/4+x,1/4-y,1/4+z
x,1/2+y,1/2+z
-x,1/2-y,1/2+z
1/4-x,3/4+y,3/4+z
1/4+x,3/4-y,3/4+z
1/2+x,y,1/2+z
1/2-x,-y,1/2+z
3/4-x,1/4+y,3/4+z
3/4+x,1/4-y,3/4+z
1/2+x,1/2+y,z
1/2-x,1/2-y,z
3/4-x,3/4+y,1/4+z
3/4+x,3/4-y,1/4+z
loop_
_atom_site_type_symbol
_atom_site_label
_atom_site_fract_x
_atom_site_fract_y
_atom_site_fract_z
Si Si1 0.347445 0.594756 0.431390
Si Si2 0.000668 0.191171 0.575876
Si Si3 0.191474 0.847359 0.763552
Si Si4 0.853530 0.080230 0.640351
Si Si5 0.239386 0.121336 0.041678
Si Si6 0.250000 0.750000 0.242672
O O1 0.314082 0.537116 0.375282
O O2 0.362267 0.718155 0.413557
O O3 0.283243 0.593664 0.482309
O O4 0.427837 0.544412 0.455397
O O5 0.977899 0.293706 0.538997
O O6 0.922978 0.145308 0.608456
O O7 0.028030 0.096332 0.533795
O O8 0.250000 0.750000 0.776992
O O9 0.179887 0.858486 0.695408
O O10 0.102456 0.839909 0.788452
O O11 0.785067 0.065274 0.593599
O O12 0.250000 0.250000 0.049416
#
# Coordination Sequence:
#
# PCOD9372777 Si02
#       6
#    16  16  16  16  16   8
#     4  12  22  37  67  97 128 167 223 280 322 396
#     4  12  22  41  66  98 128 168 222 279 326 397
#     4  12  27  42  62 101 137 169 214 281 346 397
#     4  12  20  38  70  94 123 170 228 271 317 395
#     4  12  20  39  66  95 122 173 225 266 324 395
#     4  12  22  40  64 100 128 168 224 280 334 378
#
# _framework density 17.877514999999999
#
# number of rings (size 3 to 8) (size 9 to 14) (size 15 to 20)
#    0.000    0.000   10.909    0.545    0.000    1.455 
#    0.000    0.000    0.000    0.000    0.000    0.000 
#    0.000    0.000    0.000    0.000    0.000    0.000 
#
# Total GULP energy -123007.321593 kJ/mol
# GULP energy per Si atom -5591.241891 kJ/mol
# Density = 1.783682 g / cm^3
# Si number density = 17.877515 Si / 1000 Ang^3
#
#
#
# Elastic Constant Matrix: (Units=GPa)
#
#
# Indices 1 2 3 4 5 6 
#
# 1 81.8554 29.0128 28.1135 0.0000 0.0000 0.0000
# 2 29.0128 81.3921 21.1185 0.0000 0.0000 0.0000
# 3 28.1135 21.1185 84.6081 0.0000 0.0000 0.0000
# 4 0.0000 0.0000 0.0000 8.7093 0.0000 0.0000
# 5 0.0000 0.0000 0.0000 0.0000 35.8501 0.0000
# 6 0.0000 0.0000 0.0000 0.0000 0.0000 29.6080
#
#
#
# Elastic Compliance Matrix: (Units=1/GPa)
#
#
# Indices 1 2 3 4 5 6 
#
# 1 0.015115 -0.004368 -0.003932 0.000000 0.000000 0.000000
# 2 -0.004368 0.014399 -0.002143 0.000000 0.000000 0.000000
# 3 -0.003932 -0.002143 0.013661 0.000000 0.000000 0.000000
# 4 0.000000 0.000000 0.000000 0.114820 0.000000 0.000000
# 5 0.000000 0.000000 0.000000 0.000000 0.027894 0.000000
# 6 0.000000 0.000000 0.000000 0.000000 0.000000 0.033775
#
#
# Mechanical properties :
#
#
# Convention : Reuss Voigt Hill
#
# Bulk Modulus (GPa) = 44.86411 44.92726 44.89569
# Shear Modulus (GPa) = 20.16299 26.14085 23.15192
#
# Velocity S-wave (km/s) = 3.36198 3.82805 3.60256
# Velocity P-wave (km/s) = 6.34195 6.68758 6.51706
#
# Compressibility (1/GPa) = 0.02228953
#
# Stress axis : x y z
#
# Youngs Moduli (GPa) = 66.15806 69.44891 73.20280
#
# Poissons Ratio (x) = 0.30333 0.28786
# Poissons Ratio (y) = 0.28896 0.15686
# Poissons Ratio (z) = 0.26015 0.14881
#
# Static dielectric constant tensor:
#      x y z
#    x 1.616590 0.000000 0.000000 
#    y 0.000000 1.591770 0.000000 
#    z 0.000000 0.000000 1.615180 
# 
# From -- ./inp_files/17038.got.cif
#   From: 2010.05.17/outbox.cif.g08.bks.cpg/sg43_9_cif.got.tgz:17038.got - 2010.06.03 19:21:55.
