data_PCOD9372318
_publ_section_title
;
Structure prediction by ZEFSAII (Michael W. Deem and Ramdas Pophale) SiO2 
 PCOD9372318
Probable space group: F D D 2
;
_chemical_formula_sum "Si O2"
_cell_formula_units_Z 112
_cell_length_a 11.123952
_cell_length_b 21.096392
_cell_length_c 23.316825
_cell_angle_alpha 90.000000
_cell_angle_beta 90.000000
_cell_angle_gamma 90.000000
_cell_volume 5471.881782
_symmetry_space_group_name_H-M "F D D 2"
_symmetry_group_IT_number 43
_symmetry_cell_setting 'orthorhombic'
loop_
_space_group_symop_operation_xyz
x,y,z
-x,-y,z
1/4-x,1/4+y,1/4+z
1/4+x,1/4-y,1/4+z
x,1/2+y,1/2+z
-x,1/2-y,1/2+z
1/4-x,3/4+y,3/4+z
1/4+x,3/4-y,3/4+z
1/2+x,y,1/2+z
1/2-x,-y,1/2+z
3/4-x,1/4+y,3/4+z
3/4+x,1/4-y,3/4+z
1/2+x,1/2+y,z
1/2-x,1/2-y,z
3/4-x,3/4+y,1/4+z
3/4+x,3/4-y,1/4+z
loop_
_atom_site_type_symbol
_atom_site_label
_atom_site_fract_x
_atom_site_fract_y
_atom_site_fract_z
Si Si1 0.283563 0.853930 0.467970
Si Si2 0.722954 0.177117 0.752946
Si Si3 0.674306 0.950978 0.116513
Si Si4 0.878292 0.278859 0.232327
Si Si5 0.702940 0.183824 0.591498
Si Si6 0.509098 0.163828 0.675270
Si Si7 0.109293 0.953285 0.132797
O O1 0.400849 0.893112 0.490633
O O2 0.320830 0.813246 0.412871
O O3 0.174749 0.903413 0.458804
O O4 0.261152 0.814633 0.525142
O O5 0.750000 0.250000 0.738102
O O6 0.622649 0.143664 0.714037
O O7 0.671263 0.182268 0.817441
O O8 0.739264 0.882401 0.111870
O O9 0.768507 0.005920 0.134917
O O10 0.634647 0.966811 0.051592
O O11 0.750000 0.250000 0.215880
O O12 0.967619 0.226986 0.206607
O O13 0.750000 0.250000 0.616698
O O14 0.565249 0.178909 0.612647
O O15 0.407688 0.110195 0.670036
O O16 0.000000 0.000000 0.149380
#
# Coordination Sequence:
#
# PCOD9372318 Si02
#       7
#    16  16  16  16  16  16  16
#     4  11  21  40  67  96 130 170 226 283 328 398
#     4  11  17  34  65  98 127 167 217 279 342 391
#     4  11  22  42  67  94 135 173 221 272 340 404
#     4  11  25  45  63  92 131 179 223 268 336 408
#     4  11  21  35  64 100 125 164 222 280 321 390
#     4  12  20  36  69  92 129 168 216 271 331 403
#     4  11  19  36  63 100 133 165 210 278 337 393
#
# _framework density 20.468278000000002
#
# number of rings (size 3 to 8) (size 9 to 14) (size 15 to 20)
#    0.000    0.857    7.143    3.000    0.000    0.571 
#    7.714    0.000    3.143    0.000    0.000    0.000 
#    0.000    0.000    0.000    0.000    0.000    0.000 
#
# Total GULP energy -156099.897340 kJ/mol
# GULP energy per Si atom -5574.996334 kJ/mol
# Density = 2.042169 g / cm^3
# Si number density = 20.468278 Si / 1000 Ang^3
#
#
#
# Elastic Constant Matrix: (Units=GPa)
#
#
# Indices 1 2 3 4 5 6 
#
# 1 83.2678 38.2400 6.9912 0.0000 0.0000 0.0000
# 2 38.2400 128.0559 38.6291 0.0000 0.0000 0.0000
# 3 6.9912 38.6291 89.4744 0.0000 0.0000 0.0000
# 4 0.0000 0.0000 0.0000 23.9632 0.0000 0.0000
# 5 0.0000 0.0000 0.0000 0.0000 -3.4891 0.0000
# 6 0.0000 0.0000 0.0000 0.0000 0.0000 35.8886
#
#
#
# Elastic Compliance Matrix: (Units=1/GPa)
#
#
# Indices 1 2 3 4 5 6 
#
# 1 0.013970 -0.004418 0.000816 0.000000 0.000000 0.000000
# 2 -0.004418 0.010375 -0.004134 0.000000 0.000000 0.000000
# 3 0.000816 -0.004134 0.012898 0.000000 0.000000 0.000000
# 4 0.000000 0.000000 0.000000 0.041731 0.000000 0.000000
# 5 0.000000 0.000000 0.000000 0.000000 -0.286610 0.000000
# 6 0.000000 0.000000 0.000000 0.000000 0.000000 0.027864
#
#
# Mechanical properties :
#
#
# Convention : Reuss Voigt Hill
#
# Bulk Modulus (GPa) = 45.93420 52.05763 48.99592
# Shear Modulus (GPa) = -31.83825 25.73506 -3.05159
#
# Velocity S-wave (km/s) = -3.94825 3.54971 -1.22234
# Velocity P-wave (km/s) = 1.30593 6.50301 4.69013
#
# Compressibility (1/GPa) = 0.02177027
#
# Stress axis : x y z
#
# Youngs Moduli (GPa) = 71.58323 96.38154 77.53422
#
# Poissons Ratio (x) = 0.42579 -0.06325
# Poissons Ratio (y) = 0.31623 0.32055
# Poissons Ratio (z) = -0.05839 0.39846
#
# Static dielectric constant tensor:
#      x y z
#    x 1.877020 0.000000 0.000000 
#    y 0.000000 1.773170 0.000000 
#    z 0.000000 0.000000 1.792800 
# 
# From -- ./inp_files/21186.got.cif
#   From: 2010.05.17/outbox.cif.g08.bks.cpg/sg43_11_cif.got.tgz:21186.got - 2010.06.03 19:21:55.
