data_PCOD9372537
_publ_section_title
;
Structure prediction by ZEFSAII (Michael W. Deem and Ramdas Pophale) SiO2 
 PCOD9372537
Probable space group: F D D 2
;
_chemical_formula_sum "Si O2"
_cell_formula_units_Z 96
_cell_length_a 22.093444
_cell_length_b 11.817709
_cell_length_c 17.293183
_cell_angle_alpha 90.000000
_cell_angle_beta 90.000000
_cell_angle_gamma 90.000000
_cell_volume 4515.144455
_symmetry_space_group_name_H-M "F D D 2"
_symmetry_group_IT_number 43
_symmetry_cell_setting 'orthorhombic'
loop_
_space_group_symop_operation_xyz
x,y,z
-x,-y,z
1/4-x,1/4+y,1/4+z
1/4+x,1/4-y,1/4+z
x,1/2+y,1/2+z
-x,1/2-y,1/2+z
1/4-x,3/4+y,3/4+z
1/4+x,3/4-y,3/4+z
1/2+x,y,1/2+z
1/2-x,-y,1/2+z
3/4-x,1/4+y,3/4+z
3/4+x,1/4-y,3/4+z
1/2+x,1/2+y,z
1/2-x,1/2-y,z
3/4-x,3/4+y,1/4+z
3/4+x,3/4-y,1/4+z
loop_
_atom_site_type_symbol
_atom_site_label
_atom_site_fract_x
_atom_site_fract_y
_atom_site_fract_z
Si Si1 0.698775 0.678234 0.151550
Si Si2 0.638402 0.625160 0.885577
Si Si3 0.062544 0.831654 0.468003
Si Si4 0.139968 0.012422 0.420302
Si Si5 0.496954 0.634085 0.741705
Si Si6 0.922254 0.271770 0.994321
O O1 0.750000 0.750000 0.196965
O O2 0.657971 0.775671 0.116450
O O3 0.659249 0.594109 0.200103
O O4 0.730176 0.611152 0.081629
O O5 0.603399 0.727215 0.931745
O O6 0.669973 0.638351 0.801922
O O7 0.689818 0.576658 0.942137
O O8 0.079836 0.935428 0.413421
O O9 0.992774 0.798414 0.475179
O O10 0.191875 0.948639 0.470466
O O11 0.166219 0.008375 0.334121
O O12 0.119876 0.128511 0.461040
O O13 0.500000 0.500000 0.721401
#
# Coordination Sequence:
#
# PCOD9372537 Si02
#       6
#    16  16  16  16  16  16
#     4  11  24  44  71 102 141 193 246 299 360 454
#     4  12  22  42  75 107 135 183 249 310 358 433
#     4  12  24  45  74 105 144 190 247 310 366 450
#     4  12  27  46  69 109 151 191 245 311 374 455
#     4  11  23  43  73 103 140 183 246 305 366 434
#     4  12  29  46  70 106 154 200 242 305 386 447
#
# _framework density 21.261780000000002
#
# number of rings (size 3 to 8) (size 9 to 14) (size 15 to 20)
#    0.000    0.333    6.667    2.500    4.667    0.000 
#    0.000    0.833    0.000    0.000    0.000    0.000 
#    0.000    0.000    0.000    0.000    0.000    0.000 
#
# Total GULP energy -133837.485971 kJ/mol
# GULP energy per Si atom -5576.561915 kJ/mol
# Density = 2.121339 g / cm^3
# Si number density = 21.261780 Si / 1000 Ang^3
#
#
#
# Elastic Constant Matrix: (Units=GPa)
#
#
# Indices 1 2 3 4 5 6 
#
# 1 74.4279 13.7838 26.6791 0.0000 0.0000 0.0000
# 2 13.7838 87.4701 42.5400 0.0000 0.0000 0.0000
# 3 26.6791 42.5400 107.2590 0.0000 0.0000 0.0000
# 4 0.0000 0.0000 0.0000 26.4410 0.0000 0.0000
# 5 0.0000 0.0000 0.0000 0.0000 33.4600 0.0000
# 6 0.0000 0.0000 0.0000 0.0000 0.0000 35.9218
#
#
#
# Elastic Compliance Matrix: (Units=1/GPa)
#
#
# Indices 1 2 3 4 5 6 
#
# 1 0.014783 -0.000671 -0.003411 0.000000 0.000000 0.000000
# 2 -0.000671 0.014195 -0.005463 0.000000 0.000000 0.000000
# 3 -0.003411 -0.005463 0.012338 0.000000 0.000000 0.000000
# 4 0.000000 0.000000 0.000000 0.037820 0.000000 0.000000
# 5 0.000000 0.000000 0.000000 0.000000 0.029886 0.000000
# 6 0.000000 0.000000 0.000000 0.000000 0.000000 0.027838
#
#
# Mechanical properties :
#
#
# Convention : Reuss Voigt Hill
#
# Bulk Modulus (GPa) = 44.99088 48.35142 46.67115
# Shear Modulus (GPa) = 30.60739 31.57483 31.09111
#
# Velocity S-wave (km/s) = 3.79826 3.85782 3.82815
# Velocity P-wave (km/s) = 6.35941 6.52947 6.44500
#
# Compressibility (1/GPa) = 0.02222673
#
# Stress axis : x y z
#
# Youngs Moduli (GPa) = 67.64663 70.44701 81.04784
#
# Poissons Ratio (x) = 0.04724 0.27646
# Poissons Ratio (y) = 0.04536 0.44277
# Poissons Ratio (z) = 0.23074 0.38486
#
# Static dielectric constant tensor:
#      x y z
#    x 1.891210 0.000000 0.000000 
#    y 0.000000 1.812640 0.000000 
#    z 0.000000 0.000000 1.815710 
# 
# From -- ./inp_files/14831.got.cif
#   From: 2010.05.17/outbox.cif.g08.bks.cpg/sg43_8_cif.got.tgz:14831.got - 2010.06.03 19:21:55.
