data_PCOD9372109
_publ_section_title
;
Structure prediction by ZEFSAII (Michael W. Deem and Ramdas Pophale) SiO2 
 PCOD9372109
Probable space group: F D D 2
;
_chemical_formula_sum "Si O2"
_cell_formula_units_Z 72
_cell_length_a 19.003857
_cell_length_b 16.572624
_cell_length_c 8.747185
_cell_angle_alpha 90.000000
_cell_angle_beta 90.000000
_cell_angle_gamma 90.000000
_cell_volume 2754.871479
_symmetry_space_group_name_H-M "F D D 2"
_symmetry_group_IT_number 43
_symmetry_cell_setting 'orthorhombic'
loop_
_space_group_symop_operation_xyz
x,y,z
-x,-y,z
1/4-x,1/4+y,1/4+z
1/4+x,1/4-y,1/4+z
x,1/2+y,1/2+z
-x,1/2-y,1/2+z
1/4-x,3/4+y,3/4+z
1/4+x,3/4-y,3/4+z
1/2+x,y,1/2+z
1/2-x,-y,1/2+z
3/4-x,1/4+y,3/4+z
3/4+x,1/4-y,3/4+z
1/2+x,1/2+y,z
1/2-x,1/2-y,z
3/4-x,3/4+y,1/4+z
3/4+x,3/4-y,1/4+z
loop_
_atom_site_type_symbol
_atom_site_label
_atom_site_fract_x
_atom_site_fract_y
_atom_site_fract_z
Si Si1 0.183717 0.586585 0.663930
Si Si2 0.328559 0.720186 0.345762
Si Si3 0.250000 0.250000 0.132878
Si Si4 0.467224 0.248485 0.716233
Si Si5 0.211497 0.835941 0.043083
O O1 0.215993 0.672678 0.710585
O O2 0.220559 0.559866 0.506628
O O3 0.205377 0.519858 0.789107
O O4 0.100112 0.592297 0.667230
O O5 0.250000 0.750000 0.310313
O O6 0.315164 0.715195 0.526231
O O7 0.395116 0.774512 0.300915
O O8 0.330871 0.656230 0.206386
O O9 0.486863 0.160979 0.784427
O O10 0.250000 0.750000 0.022268
#
# Coordination Sequence:
#
# PCOD9372109 Si02
#       5
#    16  16   8  16  16
#     4  11  28  46  76 112 152 203 254 320 387 463
#     4   8  21  45  70 101 138 200 244 308 364 458
#     4  10  24  48  74 110 152 194 260 322 384 456
#     4  11  26  44  74 110 151 202 250 314 389 457
#     4  10  24  45  74 105 154 195 253 311 381 457
#
# _framework density 26.135521000000001
#
# number of rings (size 3 to 8) (size 9 to 14) (size 15 to 20)
#    0.667    1.333    0.000    0.000   14.000    3.556 
#    0.000    0.000    0.000    0.000    0.000    0.000 
#    0.000    0.000    0.000    0.000    0.000    0.000 
#
# Total GULP energy -100354.457137 kJ/mol
# GULP energy per Si atom -5575.247619 kJ/mol
# Density = 2.607604 g / cm^3
# Si number density = 26.135521 Si / 1000 Ang^3
#
#
#
# Elastic Constant Matrix: (Units=GPa)
#
#
# Indices 1 2 3 4 5 6 
#
# 1 157.9023 44.5411 25.3902 0.0000 0.0000 0.0000
# 2 44.5411 133.5377 12.7484 0.0000 0.0000 0.0000
# 3 25.3902 12.7484 57.3289 0.0000 0.0000 0.0000
# 4 0.0000 0.0000 0.0000 20.4236 0.0000 0.0000
# 5 0.0000 0.0000 0.0000 0.0000 38.1799 0.0000
# 6 0.0000 0.0000 0.0000 0.0000 0.0000 33.7444
#
#
#
# Elastic Compliance Matrix: (Units=1/GPa)
#
#
# Indices 1 2 3 4 5 6 
#
# 1 0.007403 -0.002203 -0.002789 0.000000 0.000000 0.000000
# 2 -0.002203 0.008307 -0.000871 0.000000 0.000000 0.000000
# 3 -0.002789 -0.000871 0.018872 0.000000 0.000000 0.000000
# 4 0.000000 0.000000 0.000000 0.048963 0.000000 0.000000
# 5 0.000000 0.000000 0.000000 0.000000 0.026192 0.000000
# 6 0.000000 0.000000 0.000000 0.000000 0.000000 0.029635
#
#
# Mechanical properties :
#
#
# Convention : Reuss Voigt Hill
#
# Bulk Modulus (GPa) = 43.75394 57.12538 50.43966
# Shear Modulus (GPa) = 31.50289 36.20885 33.85587
#
# Velocity S-wave (km/s) = 3.47561 3.72617 3.60307
# Velocity P-wave (km/s) = 5.73445 6.35746 6.05398
#
# Compressibility (1/GPa) = 0.02285508
#
# Stress axis : x y z
#
# Youngs Moduli (GPa) = 135.08283 120.38741 52.98825
#
# Poissons Ratio (x) = 0.26521 0.14777
# Poissons Ratio (y) = 0.29758 0.04618
# Poissons Ratio (z) = 0.37671 0.10492
#
# Static dielectric constant tensor:
#      x y z
#    x 2.006360 0.000000 0.000000 
#    y 0.000000 2.039410 0.000000 
#    z 0.000000 0.000000 2.318900 
# 
# From -- ./inp_files/6543.got.cif
#   From: 2010.05.17/outbox.cif.g08.bks.cpg/sg43_4_cif.got.tgz:6543.got - 2010.06.03 19:21:55.
