data_PCOD9372015
_publ_section_title
;
Structure prediction by ZEFSAII (Michael W. Deem and Ramdas Pophale) SiO2 
 PCOD9372015
Probable space group: F D D 2
;
_chemical_formula_sum "Si O2"
_cell_formula_units_Z 104
_cell_length_a 17.078158
_cell_length_b 9.026908
_cell_length_c 28.038570
_cell_angle_alpha 90.000000
_cell_angle_beta 90.000000
_cell_angle_gamma 90.000000
_cell_volume 4322.508976
_symmetry_space_group_name_H-M "F D D 2"
_symmetry_group_IT_number 43
_symmetry_cell_setting 'orthorhombic'
loop_
_space_group_symop_operation_xyz
x,y,z
-x,-y,z
1/4-x,1/4+y,1/4+z
1/4+x,1/4-y,1/4+z
x,1/2+y,1/2+z
-x,1/2-y,1/2+z
1/4-x,3/4+y,3/4+z
1/4+x,3/4-y,3/4+z
1/2+x,y,1/2+z
1/2-x,-y,1/2+z
3/4-x,1/4+y,3/4+z
3/4+x,1/4-y,3/4+z
1/2+x,1/2+y,z
1/2-x,1/2-y,z
3/4-x,3/4+y,1/4+z
3/4+x,3/4-y,1/4+z
loop_
_atom_site_type_symbol
_atom_site_label
_atom_site_fract_x
_atom_site_fract_y
_atom_site_fract_z
Si Si1 0.087095 0.953286 0.358860
Si Si2 0.355306 0.495785 0.840062
Si Si3 0.500000 0.000000 0.038117
Si Si4 0.953197 0.313666 0.409714
Si Si5 0.913381 0.965131 0.010078
Si Si6 0.366580 0.302352 0.502938
Si Si7 0.889404 0.014534 0.150703
O O1 0.100937 0.828971 0.398291
O O2 0.082890 0.899578 0.304181
O O3 0.139604 0.098100 0.364308
O O4 0.000000 0.000000 0.370431
O O5 0.296761 0.368288 0.820990
O O6 0.427311 0.416728 0.865854
O O7 0.377224 0.599136 0.795185
O O8 0.323910 0.616370 0.878683
O O9 0.446902 0.895715 0.004864
O O10 0.928840 0.389560 0.458959
O O11 0.046266 0.278411 0.409154
O O12 0.873561 0.124291 0.005387
O O13 0.000000 0.000000 0.029955
O O14 0.330077 0.324971 0.451212
#
# Coordination Sequence:
#
# PCOD9372015 Si02
#       7
#    16  16   8  16  16  16  16
#     4  10  24  41  65  95 132 167 214 273 336 388
#     4  12  23  39  64  95 133 168 217 274 334 380
#     4  12  26  38  66  98 136 172 214 286 326 396
#     4  11  22  42  67  98 125 167 226 277 322 396
#     4  12  22  39  66  94 125 167 219 267 322 396
#     4  12  23  43  63  97 129 166 222 268 323 396
#     4  11  23  39  71  91 123 177 221 266 325 395
#
# _framework density 24.060102000000001
#
# number of rings (size 3 to 8) (size 9 to 14) (size 15 to 20)
#    0.000    0.615    7.692    0.462    5.385    0.000 
#    0.000    2.308   10.154    0.000    0.000    0.000 
#    0.000    0.000    0.000    0.000    0.000    0.000 
#
# Total GULP energy -145222.830739 kJ/mol
# GULP energy per Si atom -5585.493490 kJ/mol
# Density = 2.400534 g / cm^3
# Si number density = 24.060102 Si / 1000 Ang^3
#
#
#
# Elastic Constant Matrix: (Units=GPa)
#
#
# Indices 1 2 3 4 5 6 
#
# 1 47.0614 24.6139 20.6679 0.0000 0.0000 0.0000
# 2 24.6139 129.5731 52.9395 0.0000 0.0000 0.0000
# 3 20.6679 52.9395 153.6952 0.0000 0.0000 0.0000
# 4 0.0000 0.0000 0.0000 42.9504 0.0000 0.0000
# 5 0.0000 0.0000 0.0000 0.0000 23.1446 0.0000
# 6 0.0000 0.0000 0.0000 0.0000 0.0000 24.7412
#
#
#
# Elastic Compliance Matrix: (Units=1/GPa)
#
#
# Indices 1 2 3 4 5 6 
#
# 1 0.024077 -0.003783 -0.001935 0.000000 0.000000 0.000000
# 2 -0.003783 0.009576 -0.002790 0.000000 0.000000 0.000000
# 3 -0.001935 -0.002790 0.007727 0.000000 0.000000 0.000000
# 4 0.000000 0.000000 0.000000 0.023283 0.000000 0.000000
# 5 0.000000 0.000000 0.000000 0.000000 0.043207 0.000000
# 6 0.000000 0.000000 0.000000 0.000000 0.000000 0.040418
#
#
# Mechanical properties :
#
#
# Convention : Reuss Voigt Hill
#
# Bulk Modulus (GPa) = 41.04160 58.53026 49.78593
# Shear Modulus (GPa) = 28.83084 33.64114 31.23599
#
# Velocity S-wave (km/s) = 3.46538 3.74333 3.60703
# Velocity P-wave (km/s) = 5.75385 6.56223 6.17129
#
# Compressibility (1/GPa) = 0.02436552
#
# Stress axis : x y z
#
# Youngs Moduli (GPa) = 41.53308 104.42644 129.40918
#
# Poissons Ratio (x) = 0.39508 0.25035
# Poissons Ratio (y) = 0.15713 0.36101
# Poissons Ratio (z) = 0.08035 0.29132
#
# Static dielectric constant tensor:
#      x y z
#    x 1.965720 0.000000 0.000000 
#    y 0.000000 2.104020 0.000000 
#    z 0.000000 0.000000 1.915740 
# 
# From -- ./inp_files/26335.got.cif
#   From: 2010.05.17/outbox.cif.g08.bks.cpg/sg43_14_cif.got.tgz:26335.got - 2010.06.03 19:21:55.
