data_PCOD9372511
_publ_section_title
;
Structure prediction by ZEFSAII (Michael W. Deem and Ramdas Pophale) SiO2 
 PCOD9372511
Probable space group: F D D 2
;
_chemical_formula_sum "Si O2"
_cell_formula_units_Z 112
_cell_length_a 24.649193
_cell_length_b 20.276753
_cell_length_c 9.682219
_cell_angle_alpha 90.000000
_cell_angle_beta 90.000000
_cell_angle_gamma 90.000000
_cell_volume 4839.227258
_symmetry_space_group_name_H-M "F D D 2"
_symmetry_group_IT_number 43
_symmetry_cell_setting 'orthorhombic'
loop_
_space_group_symop_operation_xyz
x,y,z
-x,-y,z
1/4-x,1/4+y,1/4+z
1/4+x,1/4-y,1/4+z
x,1/2+y,1/2+z
-x,1/2-y,1/2+z
1/4-x,3/4+y,3/4+z
1/4+x,3/4-y,3/4+z
1/2+x,y,1/2+z
1/2-x,-y,1/2+z
3/4-x,1/4+y,3/4+z
3/4+x,1/4-y,3/4+z
1/2+x,1/2+y,z
1/2-x,1/2-y,z
3/4-x,3/4+y,1/4+z
3/4+x,3/4-y,1/4+z
loop_
_atom_site_type_symbol
_atom_site_label
_atom_site_fract_x
_atom_site_fract_y
_atom_site_fract_z
Si Si1 0.811142 0.435536 0.251080
Si Si2 0.269998 0.083770 0.220716
Si Si3 0.688896 0.256370 0.153390
Si Si4 0.549737 0.655105 0.413656
Si Si5 0.547403 0.038254 0.599432
Si Si6 0.903187 0.845377 0.709983
Si Si7 0.172740 0.543491 0.552231
O O1 0.795263 0.511971 0.247280
O O2 0.765200 0.398281 0.164661
O O3 0.869352 0.413160 0.197060
O O4 0.707237 0.575203 0.176618
O O5 0.276894 0.136061 0.343447
O O6 0.191391 0.079647 0.913322
O O7 0.304997 0.103777 0.085129
O O8 0.750000 0.250000 0.214327
O O9 0.673939 0.333892 0.144496
O O10 0.643966 0.210571 0.223926
O O11 0.695216 0.244100 0.988397
O O12 0.566171 0.674200 0.570152
O O13 0.564469 0.715531 0.315529
O O14 0.608341 0.045984 0.548859
O O15 0.500000 0.000000 0.516958
#
# Coordination Sequence:
#
# PCOD9372511 Si02
#       7
#    16  16  16  16  16  16  16
#     4  11  23  42  67  94 134 176 216 279 338 405
#     4  11  25  42  68 100 135 179 224 281 347 407
#     4  11  23  42  66  95 131 173 223 286 334 406
#     4  11  23  41  65  96 128 175 219 276 340 398
#     4  11  25  46  66  98 134 176 232 276 336 411
#     4  12  22  43  66  99 131 171 230 270 342 411
#     4  11  23  45  66  94 137 173 225 277 337 409
#
# _framework density 23.144189999999998
#
# number of rings (size 3 to 8) (size 9 to 14) (size 15 to 20)
#    0.000    0.857    5.714    1.714    0.000    2.286 
#    0.000    0.714    0.000    0.000    0.000    0.000 
#    0.000    0.000    0.000    0.000    0.000    0.000 
#
# Total GULP energy -156171.436456 kJ/mol
# GULP energy per Si atom -5577.551302 kJ/mol
# Density = 2.309151 g / cm^3
# Si number density = 23.144190 Si / 1000 Ang^3
#
#
#
# Elastic Constant Matrix: (Units=GPa)
#
#
# Indices 1 2 3 4 5 6 
#
# 1 129.6908 20.7412 13.9846 0.0000 0.0000 0.0000
# 2 20.7412 83.1071 -2.4260 -0.0001 0.0000 0.0000
# 3 13.9846 -2.4260 49.4186 -0.0002 -0.0001 0.0001
# 4 0.0000 -0.0001 -0.0002 24.8703 0.0000 0.0000
# 5 0.0000 0.0000 -0.0001 0.0000 15.3197 0.0000
# 6 0.0000 0.0000 0.0001 0.0000 0.0000 29.8334
#
#
#
# Elastic Compliance Matrix: (Units=1/GPa)
#
#
# Indices 1 2 3 4 5 6 
#
# 1 0.008319 -0.002148 -0.002460 0.000000 0.000000 0.000000
# 2 -0.002148 0.012605 0.001227 0.000000 0.000000 0.000000
# 3 -0.002460 0.001227 0.020992 0.000000 0.000000 0.000000
# 4 0.000000 0.000000 0.000000 0.040209 0.000000 0.000000
# 5 0.000000 0.000000 0.000000 0.000000 0.065275 0.000000
# 6 0.000000 0.000000 0.000000 0.000000 0.000000 0.033519
#
#
# Mechanical properties :
#
#
# Convention : Reuss Voigt Hill
#
# Bulk Modulus (GPa) = 28.44687 36.31291 32.37989
# Shear Modulus (GPa) = 25.07534 29.33247 27.20390
#
# Velocity S-wave (km/s) = 3.29514 3.56389 3.43214
# Velocity P-wave (km/s) = 5.17639 5.71481 5.45225
#
# Compressibility (1/GPa) = 0.03515326
#
# Stress axis : x y z
#
# Youngs Moduli (GPa) = 120.20074 79.33627 47.63818
#
# Poissons Ratio (x) = 0.17042 0.11718
# Poissons Ratio (y) = 0.25820 -0.05844
# Poissons Ratio (z) = 0.29566 -0.09732
#
# Static dielectric constant tensor:
#      x y z
#    x 1.908990 0.000000 0.000000 
#    y 0.000000 1.921650 0.000000 
#    z 0.000000 0.000000 1.922440 
# 
# From -- ./inp_files/7582.got.cif
#   From: 2010.05.17/outbox.cif.g08.bks.cpg/sg43_4_cif.got.tgz:7582.got - 2010.06.03 19:21:55.
