data_PCOD9372380
_publ_section_title
;
Structure prediction by ZEFSAII (Michael W. Deem and Ramdas Pophale) SiO2 
 PCOD9372380
Probable space group: F D D 2
;
_chemical_formula_sum "Si O2"
_cell_formula_units_Z 120
_cell_length_a 9.203300
_cell_length_b 21.650349
_cell_length_c 31.600639
_cell_angle_alpha 90.000000
_cell_angle_beta 90.000000
_cell_angle_gamma 90.000000
_cell_volume 6296.574483
_symmetry_space_group_name_H-M "F D D 2"
_symmetry_group_IT_number 43
_symmetry_cell_setting 'orthorhombic'
loop_
_space_group_symop_operation_xyz
x,y,z
-x,-y,z
1/4-x,1/4+y,1/4+z
1/4+x,1/4-y,1/4+z
x,1/2+y,1/2+z
-x,1/2-y,1/2+z
1/4-x,3/4+y,3/4+z
1/4+x,3/4-y,3/4+z
1/2+x,y,1/2+z
1/2-x,-y,1/2+z
3/4-x,1/4+y,3/4+z
3/4+x,1/4-y,3/4+z
1/2+x,1/2+y,z
1/2-x,1/2-y,z
3/4-x,3/4+y,1/4+z
3/4+x,3/4-y,1/4+z
loop_
_atom_site_type_symbol
_atom_site_label
_atom_site_fract_x
_atom_site_fract_y
_atom_site_fract_z
Si Si1 0.920124 0.137396 0.750000
Si Si2 0.479578 0.638061 0.253793
Si Si3 0.824889 0.493148 0.852441
Si Si4 0.205140 0.068931 0.774069
Si Si5 0.302847 0.456390 0.216985
Si Si6 0.750000 0.250000 0.892868
Si Si7 0.946316 0.601747 0.573661
Si Si8 0.426590 0.752097 0.693632
O O1 0.817745 0.097108 0.718811
O O2 0.820011 0.160825 0.788584
O O3 0.974958 0.195150 0.723168
O O4 0.043321 0.094155 0.769893
O O5 0.312234 0.623724 0.259805
O O6 0.561176 0.573613 0.242376
O O7 0.548025 0.659303 0.298043
O O8 0.522013 0.685657 0.217211
O O9 0.755610 0.541509 0.819152
O O10 0.793544 0.423375 0.836743
O O11 0.750626 0.501770 0.897943
O O12 0.000000 0.500000 0.854086
O O13 0.233683 0.013253 0.741694
O O14 0.367512 0.478667 0.172780
O O15 0.790609 0.307355 0.863328
O O16 0.250000 0.750000 0.690904
#
# Coordination Sequence:
#
# PCOD9372380 Si02
#       8
#    16  16  16  16  16   8  16  16
#     4  11  26  42  68  97 134 174 221 270 339 396
#     4  11  21  45  72  90 127 179 220 262 331 401
#     4  12  26  42  67 100 131 171 225 277 328 396
#     4  12  23  44  68  93 129 175 222 274 322 397
#     4  11  21  40  67  97 122 171 223 260 323 395
#     4  12  24  38  70  98 132 174 224 272 330 392
#     4  11  23  42  67  95 130 175 224 265 328 399
#     4  12  26  43  67 100 134 169 220 280 337 395
#
# _framework density 19.057981000000002
#
# number of rings (size 3 to 8) (size 9 to 14) (size 15 to 20)
#    0.000    0.533    8.000    2.000    3.733    0.000 
#    0.000    0.000    2.933    0.000    0.000    0.000 
#    0.000    0.000    0.000    0.000    0.000    0.000 
#
# Total GULP energy -167673.156928 kJ/mol
# GULP energy per Si atom -5589.105231 kJ/mol
# Density = 1.901460 g / cm^3
# Si number density = 19.057981 Si / 1000 Ang^3
#
#
#
# Elastic Constant Matrix: (Units=GPa)
#
#
# Indices 1 2 3 4 5 6 
#
# 1 62.9901 26.2739 21.3544 0.0000 0.0000 0.0000
# 2 26.2739 61.5276 47.5285 0.0000 0.0000 0.0000
# 3 21.3544 47.5285 115.8558 0.0000 0.0000 0.0000
# 4 0.0000 0.0000 0.0000 53.9696 0.0000 0.0000
# 5 0.0000 0.0000 0.0000 0.0000 36.9803 0.0000
# 6 0.0000 0.0000 0.0000 0.0000 0.0000 24.1993
#
#
#
# Elastic Compliance Matrix: (Units=1/GPa)
#
#
# Indices 1 2 3 4 5 6 
#
# 1 0.019321 -0.008051 -0.000258 0.000000 0.000000 0.000000
# 2 -0.008051 0.027148 -0.009653 0.000000 0.000000 0.000000
# 3 -0.000258 -0.009653 0.012639 0.000000 0.000000 0.000000
# 4 0.000000 0.000000 0.000000 0.018529 0.000000 0.000000
# 5 0.000000 0.000000 0.000000 0.000000 0.027041 0.000000
# 6 0.000000 0.000000 0.000000 0.000000 0.000000 0.041323
#
#
# Mechanical properties :
#
#
# Convention : Reuss Voigt Hill
#
# Bulk Modulus (GPa) = 43.13514 47.85414 45.49464
# Shear Modulus (GPa) = 26.36371 32.71095 29.53733
#
# Velocity S-wave (km/s) = 3.72337 4.14743 3.94111
# Velocity P-wave (km/s) = 6.41618 6.93536 6.68081
#
# Compressibility (1/GPa) = 0.02318295
#
# Stress axis : x y z
#
# Youngs Moduli (GPa) = 51.75629 36.83562 79.11951
#
# Poissons Ratio (x) = 0.29657 0.02045
# Poissons Ratio (y) = 0.41669 0.76374
# Poissons Ratio (z) = 0.01337 0.35558
#
# Static dielectric constant tensor:
#      x y z
#    x 1.659920 0.000000 0.000000 
#    y 0.000000 1.672500 0.000000 
#    z 0.000000 0.000000 1.639840 
# 
# From -- ./inp_files/24469.got.cif
#   From: 2010.05.17/outbox.cif.g08.bks.cpg/sg43_13_cif.got.tgz:24469.got - 2010.06.03 19:21:55.
