data_PCOD9372216
_publ_section_title
;
Structure prediction by ZEFSAII (Michael W. Deem and Ramdas Pophale) SiO2 
 PCOD9372216
Probable space group: F D D 2
;
_chemical_formula_sum "Si O2"
_cell_formula_units_Z 120
_cell_length_a 16.407595
_cell_length_b 24.864944
_cell_length_c 11.788047
_cell_angle_alpha 90.000000
_cell_angle_beta 90.000000
_cell_angle_gamma 90.000000
_cell_volume 4809.215872
_symmetry_space_group_name_H-M "F D D 2"
_symmetry_group_IT_number 43
_symmetry_cell_setting 'orthorhombic'
loop_
_space_group_symop_operation_xyz
x,y,z
-x,-y,z
1/4-x,1/4+y,1/4+z
1/4+x,1/4-y,1/4+z
x,1/2+y,1/2+z
-x,1/2-y,1/2+z
1/4-x,3/4+y,3/4+z
1/4+x,3/4-y,3/4+z
1/2+x,y,1/2+z
1/2-x,-y,1/2+z
3/4-x,1/4+y,3/4+z
3/4+x,1/4-y,3/4+z
1/2+x,1/2+y,z
1/2-x,1/2-y,z
3/4-x,3/4+y,1/4+z
3/4+x,3/4-y,1/4+z
loop_
_atom_site_type_symbol
_atom_site_label
_atom_site_fract_x
_atom_site_fract_y
_atom_site_fract_z
Si Si1 0.863026 0.019619 0.485350
Si Si2 0.911707 0.283062 0.541639
Si Si3 0.420120 0.920602 0.713795
Si Si4 0.250000 0.250000 0.098434
Si Si5 0.744715 0.642839 0.251740
Si Si6 0.545756 0.695664 0.507671
Si Si7 0.683021 0.998777 0.551662
Si Si8 0.968618 0.423014 0.979316
O O1 0.851130 0.024470 0.349242
O O2 0.771377 0.027447 0.532742
O O3 0.940178 0.057296 0.506576
O O4 0.895456 0.961241 0.520203
O O5 0.819608 0.270943 0.514344
O O6 0.944761 0.340349 0.498874
O O7 0.910093 0.271679 0.677529
O O8 0.967385 0.233813 0.504027
O O9 0.496982 0.905767 0.635195
O O10 0.343506 0.879723 0.719209
O O11 0.376881 0.965938 0.631373
O O12 0.453927 0.926770 0.841755
O O13 0.233026 0.303929 0.176852
O O14 0.566154 0.695178 0.375984
O O15 0.538083 0.634307 0.538678
#
# Coordination Sequence:
#
# PCOD9372216 Si02
#       8
#    16  16  16   8  16  16  16  16
#     4  10  25  46  68 105 149 183 259 298 374 451
#     4  11  24  47  69 108 150 191 253 307 390 448
#     4  12  24  43  76 106 148 184 251 309 380 433
#     4  12  26  42  74 104 152 196 252 310 370 454
#     4  12  25  44  69 112 142 192 240 317 367 452
#     4  11  24  44  73 100 145 196 234 310 380 437
#     4  11  22  46  72 100 144 193 233 318 372 440
#     4  11  25  44  72 106 143 195 245 303 367 463
#
# _framework density 24.952093000000001
#
# number of rings (size 3 to 8) (size 9 to 14) (size 15 to 20)
#    0.000    0.800    5.333    1.600    3.733    2.133 
#    0.000    1.333    0.000    0.000    0.000    0.000 
#    0.000    0.000    0.000    0.000    0.000    0.000 
#
# Total GULP energy -167271.706797 kJ/mol
# GULP energy per Si atom -5575.723560 kJ/mol
# Density = 2.489530 g / cm^3
# Si number density = 24.952093 Si / 1000 Ang^3
#
#
#
# Elastic Constant Matrix: (Units=GPa)
#
#
# Indices 1 2 3 4 5 6 
#
# 1 110.3900 53.2474 17.3941 0.0000 0.0000 0.0000
# 2 53.2474 155.5252 20.2753 0.0000 0.0000 0.0000
# 3 17.3941 20.2753 104.7119 0.0000 0.0000 0.0000
# 4 0.0000 0.0000 0.0000 20.0500 0.0000 0.0000
# 5 0.0000 0.0000 0.0000 0.0000 -5.7535 0.0000
# 6 0.0000 0.0000 0.0000 0.0000 0.0000 31.6322
#
#
#
# Elastic Compliance Matrix: (Units=1/GPa)
#
#
# Indices 1 2 3 4 5 6 
#
# 1 0.010978 -0.003612 -0.001124 0.000000 0.000000 0.000000
# 2 -0.003612 0.007785 -0.000907 0.000000 0.000000 0.000000
# 3 -0.001124 -0.000907 0.009912 0.000000 0.000000 0.000000
# 4 0.000000 0.000000 0.000000 0.049875 0.000000 0.000000
# 5 0.000000 0.000000 0.000000 0.000000 -0.173808 0.000000
# 6 0.000000 0.000000 0.000000 0.000000 0.000000 0.031613
#
#
# Mechanical properties :
#
#
# Convention : Reuss Voigt Hill
#
# Bulk Modulus (GPa) = 57.51038 61.38454 59.44746
# Shear Modulus (GPa) = -107.38729 27.83309 -39.77710
#
# Velocity S-wave (km/s) = -6.56741 3.34348 -3.99700
# Velocity P-wave (km/s) = 5.86595 6.28963 1.60469
#
# Compressibility (1/GPa) = 0.01738817
#
# Stress axis : x y z
#
# Youngs Moduli (GPa) = 91.08918 128.45570 100.88313
#
# Poissons Ratio (x) = 0.46399 0.11342
# Poissons Ratio (y) = 0.32902 0.09154
# Poissons Ratio (z) = 0.10241 0.11655
#
# Static dielectric constant tensor:
#      x y z
#    x 2.081790 0.000000 0.000000 
#    y 0.000000 2.054330 0.000000 
#    z 0.000000 0.000000 2.046180 
# 
# From -- ./inp_files/10726.got.cif
#   From: 2010.05.17/outbox.cif.g08.bks.cpg/sg43_6_cif.got.tgz:10726.got - 2010.06.03 19:21:55.
