data_PCOD9372901
_publ_section_title
;
Structure prediction by ZEFSAII (Michael W. Deem and Ramdas Pophale) SiO2 
 PCOD9372901
Probable space group: F D D 2
;
_chemical_formula_sum "Si O2"
_cell_formula_units_Z 48
_cell_length_a 15.273341
_cell_length_b 14.543936
_cell_length_c 7.555129
_cell_angle_alpha 90.000000
_cell_angle_beta 90.000000
_cell_angle_gamma 90.000000
_cell_volume 1678.254758
_symmetry_space_group_name_H-M "F D D 2"
_symmetry_group_IT_number 43
_symmetry_cell_setting 'orthorhombic'
loop_
_space_group_symop_operation_xyz
x,y,z
-x,-y,z
1/4-x,1/4+y,1/4+z
1/4+x,1/4-y,1/4+z
x,1/2+y,1/2+z
-x,1/2-y,1/2+z
1/4-x,3/4+y,3/4+z
1/4+x,3/4-y,3/4+z
1/2+x,y,1/2+z
1/2-x,-y,1/2+z
3/4-x,1/4+y,3/4+z
3/4+x,1/4-y,3/4+z
1/2+x,1/2+y,z
1/2-x,1/2-y,z
3/4-x,3/4+y,1/4+z
3/4+x,3/4-y,1/4+z
loop_
_atom_site_type_symbol
_atom_site_label
_atom_site_fract_x
_atom_site_fract_y
_atom_site_fract_z
Si Si1 0.315342 0.340624 0.797190
Si Si2 0.329969 0.173956 0.345647
Si Si3 0.053143 0.293842 0.689174
O O1 0.250000 0.250000 0.829523
O O2 0.293306 0.397675 0.620809
O O3 0.411168 0.303803 0.741669
O O4 0.340657 0.407862 0.958853
O O5 0.250000 0.250000 0.316962
O O6 0.282987 0.076356 0.344050
O O7 0.373335 0.184876 0.538263
#
# Coordination Sequence:
#
# PCOD9372901 Si02
#       3
#    16  16  16
#     4  12  30  52  84 125 177 231 292 363 449 529
#     4  12  30  52  84 125 177 231 292 363 449 529
#     4  12  26  54  80 128 176 224 304 360 448 530
#
# _framework density 28.601139
#
# number of rings (size 3 to 8) (size 9 to 14) (size 15 to 20)
#    0.000    0.000    6.667    0.000   14.000    2.667 
#    0.000    0.000    0.000    0.000    0.000    0.000 
#    0.000    0.000    0.000    0.000    0.000    0.000 
#
# Total GULP energy -66917.799724 kJ/mol
# GULP energy per Si atom -5576.483310 kJ/mol
# Density = 2.853604 g / cm^3
# Si number density = 28.601139 Si / 1000 Ang^3
#
#
#
# Elastic Constant Matrix: (Units=GPa)
#
#
# Indices 1 2 3 4 5 6 
#
# 1 112.0364 27.6277 42.2872 0.0000 0.0000 0.0000
# 2 27.6277 109.2013 10.1245 0.0000 0.0000 0.0000
# 3 42.2872 10.1245 187.2293 0.0000 0.0000 0.0000
# 4 0.0000 0.0000 0.0000 46.1105 0.0000 0.0000
# 5 0.0000 0.0000 0.0000 0.0000 59.1236 0.0000
# 6 0.0000 0.0000 0.0000 0.0000 0.0000 71.1086
#
#
#
# Elastic Compliance Matrix: (Units=1/GPa)
#
#
# Indices 1 2 3 4 5 6 
#
# 1 0.010355 -0.002415 -0.002208 0.000000 0.000000 0.000000
# 2 -0.002415 0.009767 0.000017 0.000000 0.000000 0.000000
# 3 -0.002208 0.000017 0.005839 0.000000 0.000000 0.000000
# 4 0.000000 0.000000 0.000000 0.021687 0.000000 0.000000
# 5 0.000000 0.000000 0.000000 0.000000 0.016914 0.000000
# 6 0.000000 0.000000 0.000000 0.000000 0.000000 0.014063
#
#
# Mechanical properties :
#
#
# Convention : Reuss Voigt Hill
#
# Bulk Modulus (GPa) = 59.70613 63.17177 61.43895
# Shear Modulus (GPa) = 53.52268 57.16373 55.34320
#
# Velocity S-wave (km/s) = 4.33060 4.47548 4.40364
# Velocity P-wave (km/s) = 6.77689 6.98868 6.88360
#
# Compressibility (1/GPa) = 0.01674870
#
# Stress axis : x y z
#
# Youngs Moduli (GPa) = 96.57530 102.38794 171.26739
#
# Poissons Ratio (x) = 0.24726 0.37817
# Poissons Ratio (y) = 0.23323 -0.00296
# Poissons Ratio (z) = 0.21325 -0.00177
#
# Static dielectric constant tensor:
#      x y z
#    x 2.237300 0.000000 0.000000 
#    y 0.000000 2.304740 0.000000 
#    z 0.000000 0.000000 2.299360 
# 
# From -- ./inp_files/2468.got.cif
#   From: 2010.05.17/outbox.cif.g08.bks.cpg/sg43_2_cif.got.tgz:2468.got - 2010.06.03 19:21:55.
