data_PCOD9372009
_publ_section_title
;
Structure prediction by ZEFSAII (Michael W. Deem and Ramdas Pophale) SiO2 
 PCOD9372009
Probable space group: F D D 2
;
_chemical_formula_sum "Si O2"
_cell_formula_units_Z 96
_cell_length_a 13.205459
_cell_length_b 26.365417
_cell_length_c 12.327339
_cell_angle_alpha 90.000000
_cell_angle_beta 90.000000
_cell_angle_gamma 90.000000
_cell_volume 4291.977978
_symmetry_space_group_name_H-M "F D D 2"
_symmetry_group_IT_number 43
_symmetry_cell_setting 'orthorhombic'
loop_
_space_group_symop_operation_xyz
x,y,z
-x,-y,z
1/4-x,1/4+y,1/4+z
1/4+x,1/4-y,1/4+z
x,1/2+y,1/2+z
-x,1/2-y,1/2+z
1/4-x,3/4+y,3/4+z
1/4+x,3/4-y,3/4+z
1/2+x,y,1/2+z
1/2-x,-y,1/2+z
3/4-x,1/4+y,3/4+z
3/4+x,1/4-y,3/4+z
1/2+x,1/2+y,z
1/2-x,1/2-y,z
3/4-x,3/4+y,1/4+z
3/4+x,3/4-y,1/4+z
loop_
_atom_site_type_symbol
_atom_site_label
_atom_site_fract_x
_atom_site_fract_y
_atom_site_fract_z
Si Si1 0.113192 0.821373 0.631120
Si Si2 0.000000 0.000000 0.532340
Si Si3 0.781928 0.390499 0.996130
Si Si4 0.126787 0.198033 0.402723
Si Si5 0.000000 0.000000 0.983891
Si Si6 0.064056 0.256969 0.619999
Si Si7 0.454875 0.899771 0.160447
O O1 0.220921 0.800215 0.668374
O O2 0.131495 0.842270 0.511123
O O3 0.040011 0.773094 0.634709
O O4 0.049793 0.864900 0.690798
O O5 0.009726 0.047417 0.611331
O O6 0.902783 0.007504 0.455142
O O7 0.775172 0.336323 0.936683
O O8 0.795807 0.434216 0.904474
O O9 0.704239 0.411406 0.088058
O O10 0.886533 0.378596 0.062018
O O11 0.158055 0.236970 0.310883
O O12 0.095630 0.234434 0.502823
#
# Coordination Sequence:
#
# PCOD9372009 Si02
#       7
#    16   8  16  16   8  16  16
#     4  12  24  47  71 103 147 193 241 308 371 445
#     4  10  24  40  70 114 136 192 246 302 372 434
#     4  11  24  43  73 105 136 191 245 303 367 434
#     4  12  26  46  70 104 145 187 246 298 369 448
#     4  12  30  48  66 106 154 192 234 310 380 444
#     4  11  23  44  72 101 149 185 241 302 363 440
#     4  11  22  43  73 101 139 186 248 300 358 442
#
# _framework density 22.36731
#
# number of rings (size 3 to 8) (size 9 to 14) (size 15 to 20)
#    0.000    0.667    5.000    2.000    7.000    1.333 
#    3.000    0.000    0.000    0.000    0.000    0.000 
#    0.000    0.000    0.000    0.000    0.000    0.000 
#
# Total GULP energy -133793.804776 kJ/mol
# GULP energy per Si atom -5574.741866 kJ/mol
# Density = 2.231640 g / cm^3
# Si number density = 22.367310 Si / 1000 Ang^3
#
#
#
# Elastic Constant Matrix: (Units=GPa)
#
#
# Indices 1 2 3 4 5 6 
#
# 1 47.6747 18.4909 28.9923 0.0000 0.0000 0.0000
# 2 18.4909 69.9760 41.0273 0.0000 0.0000 0.0000
# 3 28.9923 41.0273 65.8966 0.0000 0.0000 0.0000
# 4 0.0000 0.0000 0.0000 21.0096 0.0000 0.0000
# 5 0.0000 0.0000 0.0000 0.0000 33.8376 0.0000
# 6 0.0000 0.0000 0.0000 0.0000 0.0000 45.4245
#
#
#
# Elastic Compliance Matrix: (Units=1/GPa)
#
#
# Indices 1 2 3 4 5 6 
#
# 1 0.028641 -0.000284 -0.012424 0.000000 0.000000 0.000000
# 2 -0.000284 0.022509 -0.013889 0.000000 0.000000 0.000000
# 3 -0.012424 -0.013889 0.029289 0.000000 0.000000 0.000000
# 4 0.000000 0.000000 0.000000 0.047597 0.000000 0.000000
# 5 0.000000 0.000000 0.000000 0.000000 0.029553 0.000000
# 6 0.000000 0.000000 0.000000 0.000000 0.000000 0.022015
#
#
# Mechanical properties :
#
#
# Convention : Reuss Voigt Hill
#
# Bulk Modulus (GPa) = 36.70499 40.06313 38.38406
# Shear Modulus (GPa) = 20.67139 26.39014 23.53076
#
# Velocity S-wave (km/s) = 3.04333 3.43863 3.24700
# Velocity P-wave (km/s) = 5.36608 5.80654 5.59065
#
# Compressibility (1/GPa) = 0.02724425
#
# Stress axis : x y z
#
# Youngs Moduli (GPa) = 34.91469 44.42688 34.14246
#
# Poissons Ratio (x) = 0.01261 0.42420
# Poissons Ratio (y) = 0.00991 0.47421
# Poissons Ratio (z) = 0.43380 0.61705
#
# Static dielectric constant tensor:
#      x y z
#    x 1.885710 0.000000 0.000000 
#    y 0.000000 1.927450 0.000000 
#    z 0.000000 0.000000 1.819450 
# 
# From -- ./inp_files/6296.got.cif
#   From: 2010.05.17/outbox.cif.g08.bks.cpg/sg43_4_cif.got.tgz:6296.got - 2010.06.03 19:21:55.
