data_PCOD9372201
_publ_section_title
;
Structure prediction by ZEFSAII (Michael W. Deem and Ramdas Pophale) SiO2 
 PCOD9372201
Probable space group: F D D 2
;
_chemical_formula_sum "Si O2"
_cell_formula_units_Z 64
_cell_length_a 5.334780
_cell_length_b 37.830969
_cell_length_c 14.366357
_cell_angle_alpha 90.000000
_cell_angle_beta 90.000000
_cell_angle_gamma 90.000000
_cell_volume 2899.416687
_symmetry_space_group_name_H-M "F D D 2"
_symmetry_group_IT_number 43
_symmetry_cell_setting 'orthorhombic'
loop_
_space_group_symop_operation_xyz
x,y,z
-x,-y,z
1/4-x,1/4+y,1/4+z
1/4+x,1/4-y,1/4+z
x,1/2+y,1/2+z
-x,1/2-y,1/2+z
1/4-x,3/4+y,3/4+z
1/4+x,3/4-y,3/4+z
1/2+x,y,1/2+z
1/2-x,-y,1/2+z
3/4-x,1/4+y,3/4+z
3/4+x,1/4-y,3/4+z
1/2+x,1/2+y,z
1/2-x,1/2-y,z
3/4-x,3/4+y,1/4+z
3/4+x,3/4-y,1/4+z
loop_
_atom_site_type_symbol
_atom_site_label
_atom_site_fract_x
_atom_site_fract_y
_atom_site_fract_z
Si Si1 0.918983 0.178865 0.941150
Si Si2 0.500000 0.000000 0.980246
Si Si3 0.176143 0.604267 0.206065
Si Si4 0.328607 0.322583 0.628108
Si Si5 0.500000 0.000000 0.596040
O O1 0.685049 0.155794 0.904529
O O2 0.855492 0.218045 0.908029
O O3 0.182999 0.163361 0.911960
O O4 0.898778 0.176960 0.053632
O O5 0.589039 0.966039 0.921207
O O6 0.751524 0.010876 0.037421
O O7 0.172079 0.646437 0.203751
O O8 0.207422 0.585448 0.306039
#
# Coordination Sequence:
#
# PCOD9372201 Si02
#       5
#    16   8  16  16   8
#     4  10  25  45  68 102 138 187 223 300 339 427
#     4  12  29  44  73 106 144 190 232 296 351 428
#     4  10  25  40  76  96 142 177 241 281 357 408
#     4  10  27  45  72 103 140 185 238 289 353 418
#     4  12  27  44  73 100 152 180 242 282 371 406
#
# _framework density 22.073405999999999
#
# number of rings (size 3 to 8) (size 9 to 14) (size 15 to 20)
#    1.500    0.000    0.000    2.250   14.000    0.000 
#    0.000    0.000    0.000    0.000    0.000    0.000 
#    0.000    0.000    0.000    0.000    0.000    0.000 
#
# Total GULP energy -89123.242625 kJ/mol
# GULP energy per Si atom -5570.202664 kJ/mol
# Density = 2.202317 g / cm^3
# Si number density = 22.073406 Si / 1000 Ang^3
#
#
#
# Elastic Constant Matrix: (Units=GPa)
#
#
# Indices 1 2 3 4 5 6 
#
# 1 136.8886 55.7497 57.2033 0.0000 0.0000 0.0000
# 2 55.7497 205.9283 57.1588 0.0000 0.0000 0.0000
# 3 57.2033 57.1588 78.1881 0.0000 0.0000 0.0000
# 4 0.0000 0.0000 0.0000 61.4370 0.0000 0.0000
# 5 0.0000 0.0000 0.0000 0.0000 8.5104 0.0000
# 6 0.0000 0.0000 0.0000 0.0000 0.0000 10.8407
#
#
#
# Elastic Compliance Matrix: (Units=1/GPa)
#
#
# Indices 1 2 3 4 5 6 
#
# 1 0.010655 -0.000904 -0.007134 0.000000 0.000000 0.000000
# 2 -0.000904 0.006169 -0.003848 0.000000 0.000000 0.000000
# 3 -0.007134 -0.003848 0.020822 0.000000 0.000000 0.000000
# 4 0.000000 0.000000 0.000000 0.016277 0.000000 0.000000
# 5 0.000000 0.000000 0.000000 0.000000 0.117504 0.000000
# 6 0.000000 0.000000 0.000000 0.000000 0.000000 0.092245
#
#
# Mechanical properties :
#
#
# Convention : Reuss Voigt Hill
#
# Bulk Modulus (GPa) = 72.08326 84.58097 78.33211
# Shear Modulus (GPa) = 17.11926 32.88382 25.00154
#
# Velocity S-wave (km/s) = 2.78791 3.86391 3.36914
# Velocity P-wave (km/s) = 6.56432 7.63595 7.12032
#
# Compressibility (1/GPa) = 0.01387285
#
# Stress axis : x y z
#
# Youngs Moduli (GPa) = 93.85556 162.10062 48.02578
#
# Poissons Ratio (x) = 0.14659 0.34261
# Poissons Ratio (y) = 0.08488 0.18481
# Poissons Ratio (z) = 0.66956 0.62379
#
# Static dielectric constant tensor:
#      x y z
#    x 1.834450 0.000000 0.000000 
#    y 0.000000 1.754020 0.000000 
#    z 0.000000 0.000000 1.893390 
# 
# From -- ./inp_files/12171.got.cif
#   From: 2010.05.17/outbox.cif.g08.bks.cpg/sg43_7_cif.got.tgz:12171.got - 2010.06.03 19:21:55.
