data_PCOD9372514
_publ_section_title
;
Structure prediction by ZEFSAII (Michael W. Deem and Ramdas Pophale) SiO2 
 PCOD9372514
Probable space group: F D D 2
;
_chemical_formula_sum "Si O2"
_cell_formula_units_Z 112
_cell_length_a 9.510312
_cell_length_b 27.317574
_cell_length_c 19.693925
_cell_angle_alpha 90.000000
_cell_angle_beta 90.000000
_cell_angle_gamma 90.000000
_cell_volume 5116.455164
_symmetry_space_group_name_H-M "F D D 2"
_symmetry_group_IT_number 43
_symmetry_cell_setting 'orthorhombic'
loop_
_space_group_symop_operation_xyz
x,y,z
-x,-y,z
1/4-x,1/4+y,1/4+z
1/4+x,1/4-y,1/4+z
x,1/2+y,1/2+z
-x,1/2-y,1/2+z
1/4-x,3/4+y,3/4+z
1/4+x,3/4-y,3/4+z
1/2+x,y,1/2+z
1/2-x,-y,1/2+z
3/4-x,1/4+y,3/4+z
3/4+x,1/4-y,3/4+z
1/2+x,1/2+y,z
1/2-x,1/2-y,z
3/4-x,3/4+y,1/4+z
3/4+x,3/4-y,1/4+z
loop_
_atom_site_type_symbol
_atom_site_label
_atom_site_fract_x
_atom_site_fract_y
_atom_site_fract_z
Si Si1 0.219311 0.064221 0.418450
Si Si2 0.153092 0.522550 0.185057
Si Si3 0.080090 0.755158 0.292155
Si Si4 0.218653 0.345917 0.140356
Si Si5 0.225199 0.467089 0.830894
Si Si6 0.492671 0.656115 0.755413
Si Si7 0.048975 0.882045 0.396672
O O1 0.197160 0.053155 0.498020
O O2 0.380773 0.076469 0.410520
O O3 0.116228 0.107749 0.394741
O O4 0.183050 0.015784 0.372889
O O5 0.249803 0.523220 0.251274
O O6 0.148386 0.576236 0.148538
O O7 0.000000 0.500000 0.202441
O O8 0.125746 0.552859 0.358209
O O9 0.250000 0.750000 0.289483
O O10 0.039537 0.744585 0.369915
O O11 0.986205 0.714387 0.254767
O O12 0.127602 0.364589 0.205119
O O13 0.247388 0.383583 0.079402
O O14 0.122803 0.420908 0.846151
O O15 0.106836 0.397506 0.970482
#
# Coordination Sequence:
#
# PCOD9372514 Si02
#       7
#    16  16  16  16  16  16  16
#     4  12  23  44  71 101 142 189 234 293 371 439
#     4  11  26  40  71 107 143 185 247 303 361 433
#     4  11  23  41  70 101 135 183 236 300 349 432
#     4  11  25  41  72 101 144 182 241 293 368 436
#     4  11  23  42  71 107 138 187 241 300 359 445
#     4  11  24  43  68 102 137 185 239 291 352 438
#     4  11  24  43  73 101 142 184 243 289 368 442
#
# _framework density 21.890156999999999
#
# number of rings (size 3 to 8) (size 9 to 14) (size 15 to 20)
#    0.000    0.857    5.714    1.714   10.000    1.143 
#    0.000    0.000    9.429    0.000    0.000    0.000 
#    0.000    0.000    0.000    0.000    0.000    0.000 
#
# Total GULP energy -156114.802331 kJ/mol
# GULP energy per Si atom -5575.528655 kJ/mol
# Density = 2.184033 g / cm^3
# Si number density = 21.890157 Si / 1000 Ang^3
#
#
#
# Elastic Constant Matrix: (Units=GPa)
#
#
# Indices 1 2 3 4 5 6 
#
# 1 91.2994 -0.4419 26.0028 0.0000 0.0000 0.0000
# 2 -0.4419 40.1201 13.7260 0.0000 0.0000 0.0000
# 3 26.0028 13.7260 138.5890 0.0000 0.0000 0.0000
# 4 0.0000 0.0000 0.0000 26.7177 0.0000 0.0000
# 5 0.0000 0.0000 0.0000 0.0000 5.6502 0.0000
# 6 0.0000 0.0000 0.0000 0.0000 0.0000 14.6994
#
#
#
# Elastic Compliance Matrix: (Units=1/GPa)
#
#
# Indices 1 2 3 4 5 6 
#
# 1 0.011603 0.000903 -0.002266 0.000000 0.000000 0.000000
# 2 0.000903 0.025870 -0.002732 0.000000 0.000000 0.000000
# 3 -0.002266 -0.002732 0.007911 0.000000 0.000000 0.000000
# 4 0.000000 0.000000 0.000000 0.037428 0.000000 0.000000
# 5 0.000000 0.000000 0.000000 0.000000 0.176985 0.000000
# 6 0.000000 0.000000 0.000000 0.000000 0.000000 0.068030
#
#
# Mechanical properties :
#
#
# Convention : Reuss Voigt Hill
#
# Bulk Modulus (GPa) = 26.88596 38.73137 32.80867
# Shear Modulus (GPa) = 14.35071 24.79488 19.57280
#
# Velocity S-wave (km/s) = 2.56320 3.36921 2.99346
# Velocity P-wave (km/s) = 4.59009 5.73300 5.19308
#
# Compressibility (1/GPa) = 0.03719413
#
# Stress axis : x y z
#
# Youngs Moduli (GPa) = 86.18569 38.65533 126.40038
#
# Poissons Ratio (x) = -0.03491 0.28648
# Poissons Ratio (y) = -0.07784 0.34528
# Poissons Ratio (z) = 0.19534 0.10559
#
# Static dielectric constant tensor:
#      x y z
#    x 1.762660 0.000000 0.000000 
#    y 0.000000 2.061610 0.000000 
#    z 0.000000 0.000000 1.893370 
# 
# From -- ./inp_files/17209.got.cif
#   From: 2010.05.17/outbox.cif.g08.bks.cpg/sg43_9_cif.got.tgz:17209.got - 2010.06.03 19:21:55.
