data_PCOD9372583
_publ_section_title
;
Structure prediction by ZEFSAII (Michael W. Deem and Ramdas Pophale) SiO2 
 PCOD9372583
Probable space group: F D D 2
;
_chemical_formula_sum "Si O2"
_cell_formula_units_Z 56
_cell_length_a 20.364901
_cell_length_b 4.958704
_cell_length_c 21.190773
_cell_angle_alpha 90.000000
_cell_angle_beta 90.000000
_cell_angle_gamma 90.000000
_cell_volume 2139.918765
_symmetry_space_group_name_H-M "F D D 2"
_symmetry_group_IT_number 43
_symmetry_cell_setting 'orthorhombic'
loop_
_space_group_symop_operation_xyz
x,y,z
-x,-y,z
1/4-x,1/4+y,1/4+z
1/4+x,1/4-y,1/4+z
x,1/2+y,1/2+z
-x,1/2-y,1/2+z
1/4-x,3/4+y,3/4+z
1/4+x,3/4-y,3/4+z
1/2+x,y,1/2+z
1/2-x,-y,1/2+z
3/4-x,1/4+y,3/4+z
3/4+x,1/4-y,3/4+z
1/2+x,1/2+y,z
1/2-x,1/2-y,z
3/4-x,3/4+y,1/4+z
3/4+x,3/4-y,1/4+z
loop_
_atom_site_type_symbol
_atom_site_label
_atom_site_fract_x
_atom_site_fract_y
_atom_site_fract_z
Si Si1 0.000000 0.000000 0.087811
Si Si2 0.697230 0.543253 0.460627
Si Si3 0.890997 0.532405 0.317007
Si Si4 0.823006 0.257783 0.149776
O O1 0.936175 0.860836 0.056247
O O2 0.028844 0.778592 0.137746
O O3 0.750000 0.750000 0.486892
O O4 0.681082 0.293930 0.504457
O O5 0.621957 0.630971 0.450130
O O6 0.923956 0.798574 0.343241
O O7 0.903171 0.292994 0.369181
O O8 0.750000 0.250000 0.175767
#
# Coordination Sequence:
#
# PCOD9372583 Si02
#       4
#     8  16  16  16
#     4   8  22  46  74 120 148 206 260 328 378 478
#     4   9  22  48  76 108 153 209 256 320 400 463
#     4  11  23  47  76 106 155 201 262 318 396 463
#     4  11  25  47  69 111 153 198 266 329 378 483
#
# _framework density 26.169218000000001
#
# number of rings (size 3 to 8) (size 9 to 14) (size 15 to 20)
#    0.857    1.143    0.000    1.714    0.000    9.143 
#   25.714    0.000    0.000    0.000    0.000    0.000 
#    0.000    0.000    0.000    0.000    0.000    0.000 
#
# Total GULP energy -78037.367483 kJ/mol
# GULP energy per Si atom -5574.097677 kJ/mol
# Density = 2.610966 g / cm^3
# Si number density = 26.169218 Si / 1000 Ang^3
#
#
#
# Elastic Constant Matrix: (Units=GPa)
#
#
# Indices 1 2 3 4 5 6 
#
# 1 239.5193 81.3301 44.3747 -0.0003 -0.0028 -0.0036
# 2 81.3301 135.4476 30.3648 -0.0013 -0.0013 -0.0074
# 3 44.3747 30.3648 42.7143 -0.0012 0.0006 -0.0010
# 4 -0.0003 -0.0013 -0.0012 -11.3246 0.0003 0.0011
# 5 -0.0028 -0.0013 0.0006 0.0003 -61.4137 0.0023
# 6 -0.0036 -0.0074 -0.0010 0.0011 0.0023 49.9862
#
#
#
# Elastic Compliance Matrix: (Units=1/GPa)
#
#
# Indices 1 2 3 4 5 6 
#
# 1 0.005826 -0.002547 -0.004241 0.000001 0.000000 0.000000
# 2 -0.002547 0.009896 -0.004389 -0.000001 0.000000 0.000001
# 3 -0.004241 -0.004389 0.030938 -0.000003 0.000001 0.000000
# 4 0.000001 -0.000001 -0.000003 -0.088304 0.000000 0.000002
# 5 0.000000 0.000000 0.000001 0.000000 -0.016283 0.000001
# 6 0.000000 0.000001 0.000000 0.000002 0.000001 0.020006
#
#
# Mechanical properties :
#
#
# Convention : Reuss Voigt Hill
#
# Bulk Modulus (GPa) = 41.14443 81.09117 61.11780
# Shear Modulus (GPa) = -669.81009 12.89034 -328.45987
#
# Velocity S-wave (km/s) = -16.01590 2.22181 -11.21545
# Velocity P-wave (km/s) = 18.06254 6.13486 12.01289
#
# Compressibility (1/GPa) = 0.02430463
#
# Stress axis : x y z
#
# Youngs Moduli (GPa) = 171.65173 101.04745 32.32318
#
# Poissons Ratio (x) = 0.25739 0.13710
# Poissons Ratio (y) = 0.43724 0.14186
# Poissons Ratio (z) = 0.72804 0.44348
#
# Static dielectric constant tensor:
#      x y z
#    x 2.230890 0.000000 0.000000 
#    y 0.000000 2.215560 0.000010 
#    z 0.000000 0.000010 2.160180 
# 
# From -- ./inp_files/22221.got.cif
#   From: 2010.05.17/outbox.cif.g08.bks.cpg/sg43_12_cif.got.tgz:22221.got - 2010.06.03 19:21:55.
