data_PCOD9372956
_publ_section_title
;
Structure prediction by ZEFSAII (Michael W. Deem and Ramdas Pophale) SiO2 
 PCOD9372956
Probable space group: F D D 2
;
_chemical_formula_sum "Si O2"
_cell_formula_units_Z 96
_cell_length_a 23.992744
_cell_length_b 24.431433
_cell_length_c 7.036556
_cell_angle_alpha 90.000000
_cell_angle_beta 90.000000
_cell_angle_gamma 90.000000
_cell_volume 4124.668113
_symmetry_space_group_name_H-M "F D D 2"
_symmetry_group_IT_number 43
_symmetry_cell_setting 'orthorhombic'
loop_
_space_group_symop_operation_xyz
x,y,z
-x,-y,z
1/4-x,1/4+y,1/4+z
1/4+x,1/4-y,1/4+z
x,1/2+y,1/2+z
-x,1/2-y,1/2+z
1/4-x,3/4+y,3/4+z
1/4+x,3/4-y,3/4+z
1/2+x,y,1/2+z
1/2-x,-y,1/2+z
3/4-x,1/4+y,3/4+z
3/4+x,1/4-y,3/4+z
1/2+x,1/2+y,z
1/2-x,1/2-y,z
3/4-x,3/4+y,1/4+z
3/4+x,3/4-y,1/4+z
loop_
_atom_site_type_symbol
_atom_site_label
_atom_site_fract_x
_atom_site_fract_y
_atom_site_fract_z
Si Si1 0.798253 0.207203 0.688780
Si Si2 0.461647 0.446628 0.479823
Si Si3 0.759137 0.591505 0.287357
Si Si4 0.236435 0.923022 0.328939
Si Si5 0.095070 0.768089 0.137655
Si Si6 0.590264 0.750633 0.067041
O O1 0.750000 0.250000 0.727923
O O2 0.797812 0.196498 0.459960
O O3 0.778540 0.153712 0.799910
O O4 0.860312 0.231866 0.705675
O O5 0.500000 0.500000 0.442220
O O6 0.483385 0.384008 0.466028
O O7 0.405798 0.455966 0.357565
O O8 0.700420 0.567131 0.361882
O O9 0.806476 0.552788 0.374884
O O10 0.760651 0.583154 0.058112
O O11 0.186467 0.966481 0.290507
O O12 0.295011 0.951866 0.291491
O O13 0.107824 0.742905 0.348403
#
# Coordination Sequence:
#
# PCOD9372956 Si02
#       6
#    16  16  16  16  16  16
#     4   9  18  32  52  79 107 139 183 226 266 323
#     4   9  18  31  53  80 105 138 183 227 265 321
#     4   9  18  33  53  78 106 137 176 226 276 319
#     4   9  18  33  54  77 104 141 180 219 272 330
#     4   9  18  34  53  76 104 136 177 226 273 317
#     4   9  18  33  55  76 100 139 181 220 268 326
#
# _framework density 23.274598000000001
#
# number of rings (size 3 to 8) (size 9 to 14) (size 15 to 20)
#    0.000    3.000    0.000    0.000    0.000    9.333 
#    0.000    8.333    0.000    2.000    0.000    0.000 
#    0.000    0.000    0.000    0.000    0.000    0.000 
#
# Total GULP energy -133739.056850 kJ/mol
# GULP energy per Si atom -5572.460702 kJ/mol
# Density = 2.322162 g / cm^3
# Si number density = 23.274598 Si / 1000 Ang^3
#
#
#
# Elastic Constant Matrix: (Units=GPa)
#
#
# Indices 1 2 3 4 5 6 
#
# 1 150.3089 118.7637 7.8150 -0.4708 -0.0668 -0.0069
# 2 118.7637 175.3970 10.6659 -0.3137 -0.0476 0.0064
# 3 7.8150 10.6659 99.4216 -0.6681 -0.0752 0.0197
# 4 -0.4708 -0.3137 -0.6681 -108.6410 0.8623 0.6757
# 5 -0.0668 -0.0476 -0.0752 0.8623 37.0250 0.0914
# 6 -0.0069 0.0064 0.0197 0.6757 0.0914 11.2270
#
#
#
# Elastic Compliance Matrix: (Units=1/GPa)
#
#
# Indices 1 2 3 4 5 6 
#
# 1 0.014308 -0.009683 -0.000086 -0.000033 0.000014 0.000016
# 2 -0.009683 0.012292 -0.000557 0.000010 -0.000003 -0.000013
# 3 -0.000086 -0.000557 0.010124 -0.000060 0.000021 -0.000014
# 4 -0.000033 0.000010 -0.000060 -0.009199 0.000213 0.000552
# 5 0.000014 -0.000003 0.000021 0.000213 0.027004 -0.000233
# 6 0.000016 -0.000013 -0.000014 0.000552 -0.000233 0.089040
#
#
# Mechanical properties :
#
#
# Convention : Reuss Voigt Hill
#
# Bulk Modulus (GPa) = 62.22362 77.73519 69.97940
# Shear Modulus (GPa) = 29.48453 7.11439 18.29946
#
# Velocity S-wave (km/s) = 3.56309 1.75024 2.80704
# Velocity P-wave (km/s) = 6.61212 6.12831 6.37480
#
# Compressibility (1/GPa) = 0.01607107
#
# Stress axis : x y z
#
# Youngs Moduli (GPa) = 69.88932 81.35442 98.77167
#
# Poissons Ratio (x) = 0.78777 0.00851
# Poissons Ratio (y) = 0.67675 0.05506
# Poissons Ratio (z) = 0.00602 0.04535
#
# Static dielectric constant tensor:
#      x y z
#    x 1.686490 0.004720 0.000050 
#    y 0.004720 3.097060 -0.001090 
#    z 0.000050 -0.001090 2.030720 
# 
# From -- ./inp_files/3726.got.cif
#   From: 2010.05.17/outbox.cif.g08.bks.cpg/sg43_2_cif.got.tgz:3726.got - 2010.06.03 19:21:55.
