data_PCOD9372691
_publ_section_title
;
Structure prediction by ZEFSAII (Michael W. Deem and Ramdas Pophale) SiO2 
 PCOD9372691
Probable space group: F D D 2
;
_chemical_formula_sum "Si O2"
_cell_formula_units_Z 88
_cell_length_a 32.415791
_cell_length_b 22.866947
_cell_length_c 4.983217
_cell_angle_alpha 90.000000
_cell_angle_beta 90.000000
_cell_angle_gamma 90.000000
_cell_volume 3693.810472
_symmetry_space_group_name_H-M "F D D 2"
_symmetry_group_IT_number 43
_symmetry_cell_setting 'orthorhombic'
loop_
_space_group_symop_operation_xyz
x,y,z
-x,-y,z
1/4-x,1/4+y,1/4+z
1/4+x,1/4-y,1/4+z
x,1/2+y,1/2+z
-x,1/2-y,1/2+z
1/4-x,3/4+y,3/4+z
1/4+x,3/4-y,3/4+z
1/2+x,y,1/2+z
1/2-x,-y,1/2+z
3/4-x,1/4+y,3/4+z
3/4+x,1/4-y,3/4+z
1/2+x,1/2+y,z
1/2-x,1/2-y,z
3/4-x,3/4+y,1/4+z
3/4+x,3/4-y,1/4+z
loop_
_atom_site_type_symbol
_atom_site_label
_atom_site_fract_x
_atom_site_fract_y
_atom_site_fract_z
Si Si1 0.701183 0.193970 0.903940
Si Si2 0.779962 0.655556 0.714614
Si Si3 0.398584 0.940156 0.633239
Si Si4 0.593303 0.829517 0.878680
Si Si5 0.250000 0.250000 0.941380
Si Si6 0.759680 0.965225 0.878121
O O1 0.728352 0.198454 0.637194
O O2 0.738821 0.194292 0.123448
O O3 0.669950 0.246811 0.876453
O O4 0.676004 0.138225 0.000935
O O5 0.814435 0.647869 0.489291
O O6 0.793129 0.710113 0.893782
O O7 0.765844 0.594365 0.829873
O O8 0.376039 0.914769 0.371180
O O9 0.365313 0.947449 0.871584
O O10 0.555267 0.795298 0.012548
O O11 0.740745 0.015465 0.686452
#
# Coordination Sequence:
#
# PCOD9372691 Si02
#       6
#    16  16  16  16   8  16
#     4  11  25  44  72 107 144 193 254 313 360 454
#     4  11  25  42  79 108 141 197 262 311 364 447
#     4  12  24  46  68 110 144 192 237 316 386 425
#     4  11  29  43  70 106 154 189 243 314 383 438
#     4  12  20  44  80 110 138 184 268 322 358 418
#     4  11  27  49  72  99 148 206 250 289 368 471
#
# _framework density 23.823633999999998
#
# number of rings (size 3 to 8) (size 9 to 14) (size 15 to 20)
#    0.000    0.727    3.636    2.182   10.182    4.364 
#    0.000    0.000    0.000    0.000    0.000    0.000 
#    0.000    0.000    0.000    0.000    0.000    0.000 
#
# Total GULP energy -122630.405793 kJ/mol
# GULP energy per Si atom -5574.109354 kJ/mol
# Density = 2.376941 g / cm^3
# Si number density = 23.823634 Si / 1000 Ang^3
#
#
#
# Elastic Constant Matrix: (Units=GPa)
#
#
# Indices 1 2 3 4 5 6 
#
# 1 105.7330 23.2099 23.6626 -0.0248 0.0118 -0.0009
# 2 23.2099 64.9193 1.2190 -0.2054 0.0138 0.0095
# 3 23.6626 1.2190 100.9729 -0.0778 0.0001 0.0302
# 4 -0.0248 -0.2054 -0.0778 36.7966 -0.0087 0.0224
# 5 0.0118 0.0138 0.0001 -0.0087 41.6287 0.0044
# 6 -0.0009 0.0095 0.0302 0.0224 0.0044 34.9736
#
#
#
# Elastic Compliance Matrix: (Units=1/GPa)
#
#
# Indices 1 2 3 4 5 6 
#
# 1 0.010859 -0.003835 -0.002498 -0.000019 -0.000002 0.000003
# 2 -0.003835 0.016762 0.000697 0.000092 -0.000004 -0.000005
# 3 -0.002498 0.000697 0.010481 0.000024 0.000000 -0.000009
# 4 -0.000019 0.000092 0.000024 0.027177 0.000006 -0.000017
# 5 -0.000002 -0.000004 0.000000 0.000006 0.024022 -0.000003
# 6 0.000003 -0.000005 -0.000009 -0.000017 -0.000003 0.028593
#
#
# Mechanical properties :
#
#
# Convention : Reuss Voigt Hill
#
# Bulk Modulus (GPa) = 37.27564 40.86757 39.07160
# Shear Modulus (GPa) = 36.20284 37.58202 36.89243
#
# Velocity S-wave (km/s) = 3.90246 3.97610 3.93945
# Velocity P-wave (km/s) = 5.99884 6.18632 6.09330
#
# Compressibility (1/GPa) = 0.02682717
#
# Stress axis : x y z
#
# Youngs Moduli (GPa) = 92.09085 59.65808 95.41291
#
# Poissons Ratio (x) = 0.22881 0.23838
# Poissons Ratio (y) = 0.35320 -0.06646
# Poissons Ratio (z) = 0.23008 -0.04155
#
# Static dielectric constant tensor:
#      x y z
#    x 1.789690 -0.000050 0.000030 
#    y -0.000050 1.227080 -0.000110 
#    z 0.000030 -0.000110 2.310450 
# 
# From -- ./inp_files/1404.got.cif
#   From: 2010.05.17/outbox.cif.g08.bks.cpg/sg43_1_cif.got.tgz:1404.got - 2010.06.03 19:21:55.
