data_PCOD9372207
_publ_section_title
;
Structure prediction by ZEFSAII (Michael W. Deem and Ramdas Pophale) SiO2 
 PCOD9372207
Probable space group: F D D 2
;
_chemical_formula_sum "Si O2"
_cell_formula_units_Z 56
_cell_length_a 17.914201
_cell_length_b 11.419613
_cell_length_c 12.053230
_cell_angle_alpha 90.000000
_cell_angle_beta 90.000000
_cell_angle_gamma 90.000000
_cell_volume 2465.768345
_symmetry_space_group_name_H-M "F D D 2"
_symmetry_group_IT_number 43
_symmetry_cell_setting 'orthorhombic'
loop_
_space_group_symop_operation_xyz
x,y,z
-x,-y,z
1/4-x,1/4+y,1/4+z
1/4+x,1/4-y,1/4+z
x,1/2+y,1/2+z
-x,1/2-y,1/2+z
1/4-x,3/4+y,3/4+z
1/4+x,3/4-y,3/4+z
1/2+x,y,1/2+z
1/2-x,-y,1/2+z
3/4-x,1/4+y,3/4+z
3/4+x,1/4-y,3/4+z
1/2+x,1/2+y,z
1/2-x,1/2-y,z
3/4-x,3/4+y,1/4+z
3/4+x,3/4-y,1/4+z
loop_
_atom_site_type_symbol
_atom_site_label
_atom_site_fract_x
_atom_site_fract_y
_atom_site_fract_z
Si Si1 0.221735 0.440027 0.174640
Si Si2 0.597932 0.648314 0.462397
Si Si3 0.651127 0.887084 0.951505
Si Si4 0.750000 0.250000 0.866725
O O1 0.293016 0.519890 0.144010
O O2 0.154888 0.529590 0.197345
O O3 0.232949 0.355982 0.280177
O O4 0.199476 0.376139 0.061079
O O5 0.607721 0.511024 0.444146
O O6 0.558597 0.646354 0.583492
O O7 0.679870 0.707004 0.441984
#
# Coordination Sequence:
#
# PCOD9372207 Si02
#       4
#    16  16  16   8
#     4  11  26  46  71 106 145 185 241 299 361 422
#     4  11  24  47  73 102 144 188 241 294 364 424
#     4  10  25  44  70 105 138 187 234 295 357 431
#     4  12  28  44  76 106 142 192 246 294 360 436
#
# _framework density 22.710972999999999
#
# number of rings (size 3 to 8) (size 9 to 14) (size 15 to 20)
#    0.000    1.143    2.857    0.857   12.000    2.286 
#    5.143    0.000    0.000    0.000    0.000    0.000 
#    0.000    0.000    0.000    0.000    0.000    0.000 
#
# Total GULP energy -78086.139412 kJ/mol
# GULP energy per Si atom -5577.581387 kJ/mol
# Density = 2.265928 g / cm^3
# Si number density = 22.710973 Si / 1000 Ang^3
#
#
#
# Elastic Constant Matrix: (Units=GPa)
#
#
# Indices 1 2 3 4 5 6 
#
# 1 53.0738 -17.5066 13.3413 0.0000 0.0000 0.0000
# 2 -17.5066 67.5908 -13.4312 0.0000 0.0000 0.0000
# 3 13.3413 -13.4312 92.9423 0.0000 0.0000 0.0000
# 4 0.0000 0.0000 0.0000 16.3740 0.0000 0.0000
# 5 0.0000 0.0000 0.0000 0.0000 16.3203 0.0000
# 6 0.0000 0.0000 0.0000 0.0000 0.0000 27.4392
#
#
#
# Elastic Compliance Matrix: (Units=1/GPa)
#
#
# Indices 1 2 3 4 5 6 
#
# 1 0.021070 0.005000 -0.002302 0.000000 0.000000 0.000000
# 2 0.005000 0.016419 0.001655 0.000000 0.000000 0.000000
# 3 -0.002302 0.001655 0.011329 0.000000 0.000000 0.000000
# 4 0.000000 0.000000 0.000000 0.061073 0.000000 0.000000
# 5 0.000000 0.000000 0.000000 0.000000 0.061274 0.000000
# 6 0.000000 0.000000 0.000000 0.000000 0.000000 0.036444
#
#
# Mechanical properties :
#
#
# Convention : Reuss Voigt Hill
#
# Bulk Modulus (GPa) = 17.38433 19.82377 18.60405
# Shear Modulus (GPa) = 22.92778 27.44024 25.18401
#
# Velocity S-wave (km/s) = 3.18078 3.47974 3.33362
# Velocity P-wave (km/s) = 4.60011 4.98924 4.79862
#
# Compressibility (1/GPa) = 0.05752307
#
# Stress axis : x y z
#
# Youngs Moduli (GPa) = 47.46192 60.90586 88.26945
#
# Poissons Ratio (x) = -0.30452 0.20319
# Poissons Ratio (y) = -0.23730 -0.14609
# Poissons Ratio (z) = 0.10925 -0.10080
#
# Static dielectric constant tensor:
#      x y z
#    x 1.837300 0.000000 0.000000 
#    y 0.000000 1.876090 0.000000 
#    z 0.000000 0.000000 1.882700 
# 
# From -- ./inp_files/3560.got.cif
#   From: 2010.05.17/outbox.cif.g08.bks.cpg/sg43_2_cif.got.tgz:3560.got - 2010.06.03 19:21:55.
