data_PCOD9372647
_publ_section_title
;
Structure prediction by ZEFSAII (Michael W. Deem and Ramdas Pophale) SiO2 
 PCOD9372647
Probable space group: F D D 2
;
_chemical_formula_sum "Si O2"
_cell_formula_units_Z 64
_cell_length_a 30.710597
_cell_length_b 10.964502
_cell_length_c 7.801338
_cell_angle_alpha 90.000000
_cell_angle_beta 90.000000
_cell_angle_gamma 90.000000
_cell_volume 2626.916477
_symmetry_space_group_name_H-M "F D D 2"
_symmetry_group_IT_number 43
_symmetry_cell_setting 'orthorhombic'
loop_
_space_group_symop_operation_xyz
x,y,z
-x,-y,z
1/4-x,1/4+y,1/4+z
1/4+x,1/4-y,1/4+z
x,1/2+y,1/2+z
-x,1/2-y,1/2+z
1/4-x,3/4+y,3/4+z
1/4+x,3/4-y,3/4+z
1/2+x,y,1/2+z
1/2-x,-y,1/2+z
3/4-x,1/4+y,3/4+z
3/4+x,1/4-y,3/4+z
1/2+x,1/2+y,z
1/2-x,1/2-y,z
3/4-x,3/4+y,1/4+z
3/4+x,3/4-y,1/4+z
loop_
_atom_site_type_symbol
_atom_site_label
_atom_site_fract_x
_atom_site_fract_y
_atom_site_fract_z
Si Si1 0.503563 0.125248 0.207740
Si Si2 0.677111 0.193275 0.207312
Si Si3 0.664580 0.939896 0.097939
Si Si4 0.714428 0.361540 0.948557
O O1 0.555717 0.135499 0.196130
O O2 0.486349 0.259499 0.258026
O O3 0.500000 0.000000 0.318189
O O4 0.471783 0.090980 0.052712
O O5 0.636575 0.169711 0.334769
O O6 0.669579 0.083726 0.074751
O O7 0.681589 0.313371 0.093904
O O8 0.687733 0.893725 0.273511
O O9 0.750000 0.250000 0.934722
#
# Coordination Sequence:
#
# PCOD9372647 Si02
#       4
#    16  16  16  16
#     4  11  24  46  76 107 160 204 257 322 396 461
#     4  11  25  46  73 115 159 207 260 334 389 466
#     4  11  25  46  72 115 154 209 263 322 402 465
#     4  11  24  47  77 112 155 213 262 315 399 470
#
# _framework density 24.363164999999999
#
# number of rings (size 3 to 8) (size 9 to 14) (size 15 to 20)
#    0.000    1.000    2.500    3.000    3.500    4.000 
#    9.000    0.000    0.000    0.000    0.000    0.000 
#    0.000    0.000    0.000    0.000    0.000    0.000 
#
# Total GULP energy -89089.009824 kJ/mol
# GULP energy per Si atom -5568.063114 kJ/mol
# Density = 2.430771 g / cm^3
# Si number density = 24.363165 Si / 1000 Ang^3
#
#
#
# Elastic Constant Matrix: (Units=GPa)
#
#
# Indices 1 2 3 4 5 6 
#
# 1 175.0273 51.4816 49.2501 0.0000 0.0000 0.0000
# 2 51.4816 187.6299 37.4483 0.0000 0.0000 0.0000
# 3 49.2501 37.4483 109.0556 0.0000 0.0000 0.0000
# 4 0.0000 0.0000 0.0000 26.0096 0.0000 0.0000
# 5 0.0000 0.0000 0.0000 0.0000 41.5825 0.0000
# 6 0.0000 0.0000 0.0000 0.0000 0.0000 39.1436
#
#
#
# Elastic Compliance Matrix: (Units=1/GPa)
#
#
# Indices 1 2 3 4 5 6 
#
# 1 0.006852 -0.001355 -0.002629 0.000000 0.000000 0.000000
# 2 -0.001355 0.005990 -0.001445 0.000000 0.000000 0.000000
# 3 -0.002629 -0.001445 0.010853 0.000000 0.000000 0.000000
# 4 0.000000 0.000000 0.000000 0.038447 0.000000 0.000000
# 5 0.000000 0.000000 0.000000 0.000000 0.024049 0.000000
# 6 0.000000 0.000000 0.000000 0.000000 0.000000 0.025547
#
#
# Mechanical properties :
#
#
# Convention : Reuss Voigt Hill
#
# Bulk Modulus (GPa) = 77.90192 83.11920 80.51056
# Shear Modulus (GPa) = 39.40906 43.58265 41.49585
#
# Velocity S-wave (km/s) = 4.02626 4.23410 4.13149
# Velocity P-wave (km/s) = 7.32524 7.62196 7.47507
#
# Compressibility (1/GPa) = 0.01283665
#
# Stress axis : x y z
#
# Youngs Moduli (GPa) = 145.94775 166.94882 92.14048
#
# Poissons Ratio (x) = 0.22626 0.24223
# Poissons Ratio (y) = 0.19780 0.13312
# Poissons Ratio (z) = 0.38368 0.24121
#
# Static dielectric constant tensor:
#      x y z
#    x 1.969880 0.000000 0.000000 
#    y 0.000000 2.041740 0.000000 
#    z 0.000000 0.000000 1.961030 
# 
# From -- ./inp_files/4584.got.cif
#   From: 2010.05.17/outbox.cif.g08.bks.cpg/sg43_3_cif.got.tgz:4584.got - 2010.06.03 19:21:55.
