data_PCOD9372062
_publ_section_title
;
Structure prediction by ZEFSAII (Michael W. Deem and Ramdas Pophale) SiO2 
 PCOD9372062
Probable space group: F D D 2
;
_chemical_formula_sum "Si O2"
_cell_formula_units_Z 80
_cell_length_a 26.335675
_cell_length_b 12.855942
_cell_length_c 8.740752
_cell_angle_alpha 90.000000
_cell_angle_beta 90.000000
_cell_angle_gamma 90.000000
_cell_volume 2959.355621
_symmetry_space_group_name_H-M "F D D 2"
_symmetry_group_IT_number 43
_symmetry_cell_setting 'orthorhombic'
loop_
_space_group_symop_operation_xyz
x,y,z
-x,-y,z
1/4-x,1/4+y,1/4+z
1/4+x,1/4-y,1/4+z
x,1/2+y,1/2+z
-x,1/2-y,1/2+z
1/4-x,3/4+y,3/4+z
1/4+x,3/4-y,3/4+z
1/2+x,y,1/2+z
1/2-x,-y,1/2+z
3/4-x,1/4+y,3/4+z
3/4+x,1/4-y,3/4+z
1/2+x,1/2+y,z
1/2-x,1/2-y,z
3/4-x,3/4+y,1/4+z
3/4+x,3/4-y,1/4+z
loop_
_atom_site_type_symbol
_atom_site_label
_atom_site_fract_x
_atom_site_fract_y
_atom_site_fract_z
Si Si1 0.965179 0.349343 0.467640
Si Si2 0.069266 0.297330 0.489349
Si Si3 0.099797 0.392224 0.794235
Si Si4 0.250000 0.750000 0.986133
Si Si5 0.250000 0.750000 0.454186
Si Si6 0.101173 0.471091 0.246814
O O1 0.906240 0.331501 0.483412
O O2 0.010890 0.265764 0.455854
O O3 0.982133 0.410656 0.618992
O O4 0.972485 0.418048 0.316213
O O5 0.079393 0.309539 0.670081
O O6 0.108993 0.208918 0.448477
O O7 0.081181 0.406603 0.400993
O O8 0.050380 0.463349 0.822645
O O9 0.127899 0.333384 0.931795
O O10 0.198791 0.698881 0.391121
#
# Coordination Sequence:
#
# PCOD9372062 Si02
#       6
#    16  16  16   8   8  16
#     4   9  19  42  69  93 136 204 235 303 392 435
#     4  10  24  44  67 105 149 190 253 313 380 453
#     4  11  24  41  71 107 146 193 254 307 380 462
#     4   9  18  42  67  98 142 183 252 315 370 460
#     4   9  22  42  67 100 138 189 258 295 370 468
#     4  11  23  43  75 102 148 198 249 310 379 450
#
# _framework density 27.032910999999999
#
# number of rings (size 3 to 8) (size 9 to 14) (size 15 to 20)
#    0.000    2.000    2.000    1.200    2.800    1.600 
#    3.600    1.000    0.000    0.000    0.000    0.000 
#    0.000    0.000    0.000    0.000    0.000    0.000 
#
# Total GULP energy -111337.718241 kJ/mol
# GULP energy per Si atom -5566.885912 kJ/mol
# Density = 2.697138 g / cm^3
# Si number density = 27.032911 Si / 1000 Ang^3
#
#
#
# Elastic Constant Matrix: (Units=GPa)
#
#
# Indices 1 2 3 4 5 6 
#
# 1 251.7775 29.3488 39.2203 0.0000 0.0000 0.0000
# 2 29.3488 58.6565 7.4131 0.0000 0.0000 0.0000
# 3 39.2203 7.4131 100.0664 0.0000 0.0000 0.0000
# 4 0.0000 0.0000 0.0000 -18.3946 0.0000 0.0000
# 5 0.0000 0.0000 0.0000 0.0000 -13.4228 0.0000
# 6 0.0000 0.0000 0.0000 0.0000 0.0000 45.2836
#
#
#
# Elastic Compliance Matrix: (Units=1/GPa)
#
#
# Indices 1 2 3 4 5 6 
#
# 1 0.004457 -0.002028 -0.001597 0.000000 0.000000 0.000000
# 2 -0.002028 0.018133 -0.000548 0.000000 0.000000 0.000000
# 3 -0.001597 -0.000548 0.010660 0.000000 0.000000 0.000000
# 4 0.000000 0.000000 0.000000 -0.054364 0.000000 0.000000
# 5 0.000000 0.000000 0.000000 0.000000 -0.074500 0.000000
# 6 0.000000 0.000000 0.000000 0.000000 0.000000 0.022083
#
#
# Mechanical properties :
#
#
# Convention : Reuss Voigt Hill
#
# Bulk Modulus (GPa) = 40.15603 62.49609 51.32606
# Shear Modulus (GPa) = -87.89786 24.99445 -31.45170
#
# Velocity S-wave (km/s) = -5.70839 3.04401 -3.41465
# Velocity P-wave (km/s) = 5.34424 5.96015 1.86581
#
# Compressibility (1/GPa) = 0.02490286
#
# Stress axis : x y z
#
# Youngs Moduli (GPa) = 224.37170 55.14949 93.81072
#
# Poissons Ratio (x) = 0.11186 0.14978
# Poissons Ratio (y) = 0.45508 0.05144
# Poissons Ratio (z) = 0.35823 0.03024
#
# Static dielectric constant tensor:
#      x y z
#    x 2.575370 0.000000 0.000000 
#    y 0.000000 2.381930 0.000000 
#    z 0.000000 0.000000 2.142750 
# 
# From -- ./inp_files/7897.got.cif
#   From: 2010.05.17/outbox.cif.g08.bks.cpg/sg43_4_cif.got.tgz:7897.got - 2010.06.03 19:21:55.
