data_PCOD9372708
_publ_section_title
;
Structure prediction by ZEFSAII (Michael W. Deem and Ramdas Pophale) SiO2 
 PCOD9372708
Probable space group: F D D 2
;
_chemical_formula_sum "Si O2"
_cell_formula_units_Z 80
_cell_length_a 13.151069
_cell_length_b 10.446919
_cell_length_c 24.819770
_cell_angle_alpha 90.000000
_cell_angle_beta 90.000000
_cell_angle_gamma 90.000000
_cell_volume 3409.942348
_symmetry_space_group_name_H-M "F D D 2"
_symmetry_group_IT_number 43
_symmetry_cell_setting 'orthorhombic'
loop_
_space_group_symop_operation_xyz
x,y,z
-x,-y,z
1/4-x,1/4+y,1/4+z
1/4+x,1/4-y,1/4+z
x,1/2+y,1/2+z
-x,1/2-y,1/2+z
1/4-x,3/4+y,3/4+z
1/4+x,3/4-y,3/4+z
1/2+x,y,1/2+z
1/2-x,-y,1/2+z
3/4-x,1/4+y,3/4+z
3/4+x,1/4-y,3/4+z
1/2+x,1/2+y,z
1/2-x,1/2-y,z
3/4-x,3/4+y,1/4+z
3/4+x,3/4-y,1/4+z
loop_
_atom_site_type_symbol
_atom_site_label
_atom_site_fract_x
_atom_site_fract_y
_atom_site_fract_z
Si Si1 0.789245 0.603245 0.575670
Si Si2 0.285197 0.892688 0.659444
Si Si3 0.272142 0.954859 0.259985
Si Si4 0.002794 0.829726 0.118890
Si Si5 0.087563 0.761504 0.231145
O O1 0.750000 0.750000 0.581035
O O2 0.744627 0.506184 0.620470
O O3 0.910156 0.599513 0.584039
O O4 0.757425 0.549871 0.517799
O O5 0.250000 0.750000 0.645613
O O6 0.250217 0.928466 0.719560
O O7 0.406947 0.892660 0.649182
O O8 0.175880 0.860900 0.249365
O O9 0.371864 0.879044 0.242424
O O10 0.285565 0.984559 0.322783
O O11 0.066194 0.773236 0.168372
#
# Coordination Sequence:
#
# PCOD9372708 Si02
#       5
#    16  16  16  16  16
#     4  12  24  46  78 110 149 200 255 318 382 469
#     4  12  28  49  72 113 158 201 258 323 388 467
#     4  11  25  47  74 112 151 205 254 315 394 465
#     4  12  25  45  77 110 151 202 255 323 382 466
#     4  11  25  46  76 115 149 200 257 320 388 471
#
# _framework density 23.460808
#
# number of rings (size 3 to 8) (size 9 to 14) (size 15 to 20)
#    0.000    0.400    4.000    4.200    0.000    3.200 
#    0.000    2.000    0.000    0.000    0.000    0.000 
#    0.000    0.000    0.000    0.000    0.000    0.000 
#
# Total GULP energy -111812.584482 kJ/mol
# GULP energy per Si atom -5590.629224 kJ/mol
# Density = 2.340741 g / cm^3
# Si number density = 23.460808 Si / 1000 Ang^3
#
#
#
# Elastic Constant Matrix: (Units=GPa)
#
#
# Indices 1 2 3 4 5 6 
#
# 1 93.9911 35.9739 30.1119 0.0000 0.0000 0.0000
# 2 35.9739 106.8233 44.5267 0.0000 0.0000 0.0000
# 3 30.1119 44.5267 185.3060 0.0000 0.0000 0.0000
# 4 0.0000 0.0000 0.0000 -5.6696 0.0000 0.0000
# 5 0.0000 0.0000 0.0000 0.0000 28.1748 0.0000
# 6 0.0000 0.0000 0.0000 0.0000 0.0000 -3.9575
#
#
#
# Elastic Compliance Matrix: (Units=1/GPa)
#
#
# Indices 1 2 3 4 5 6 
#
# 1 0.012421 -0.003714 -0.001126 0.000000 0.000000 0.000000
# 2 -0.003714 0.011513 -0.002163 0.000000 0.000000 0.000000
# 3 -0.001126 -0.002163 0.006099 0.000000 0.000000 0.000000
# 4 0.000000 0.000000 0.000000 -0.176380 0.000000 0.000000
# 5 0.000000 0.000000 0.000000 0.000000 0.035493 0.000000
# 6 0.000000 0.000000 0.000000 0.000000 0.000000 -0.252688
#
#
# Mechanical properties :
#
#
# Convention : Reuss Voigt Hill
#
# Bulk Modulus (GPa) = 62.38908 67.48282 64.93595
# Shear Modulus (GPa) = -14.52675 22.07674 3.77500
#
# Velocity S-wave (km/s) = -2.49106 3.07091 1.26987
# Velocity P-wave (km/s) = 4.28682 6.43432 5.46705
#
# Compressibility (1/GPa) = 0.01602845
#
# Stress axis : x y z
#
# Youngs Moduli (GPa) = 80.50603 86.85460 163.95498
#
# Poissons Ratio (x) = 0.32255 0.18463
# Poissons Ratio (y) = 0.29897 0.35465
# Poissons Ratio (z) = 0.09066 0.18787
#
# Static dielectric constant tensor:
#      x y z
#    x 1.899320 0.000000 0.000000 
#    y 0.000000 2.118200 0.000000 
#    z 0.000000 0.000000 1.852490 
# 
# From -- ./inp_files/25886.got.cif
#   From: 2010.05.17/outbox.cif.g08.bks.cpg/sg43_13_cif.got.tgz:25886.got - 2010.06.03 19:21:55.
