data_PCOD9372516
_publ_section_title
;
Structure prediction by ZEFSAII (Michael W. Deem and Ramdas Pophale) SiO2 
 PCOD9372516
Probable space group: F D D 2
;
_chemical_formula_sum "Si O2"
_cell_formula_units_Z 120
_cell_length_a 13.158506
_cell_length_b 17.006113
_cell_length_c 24.704937
_cell_angle_alpha 90.000000
_cell_angle_beta 90.000000
_cell_angle_gamma 90.000000
_cell_volume 5528.348264
_symmetry_space_group_name_H-M "F D D 2"
_symmetry_group_IT_number 43
_symmetry_cell_setting 'orthorhombic'
loop_
_space_group_symop_operation_xyz
x,y,z
-x,-y,z
1/4-x,1/4+y,1/4+z
1/4+x,1/4-y,1/4+z
x,1/2+y,1/2+z
-x,1/2-y,1/2+z
1/4-x,3/4+y,3/4+z
1/4+x,3/4-y,3/4+z
1/2+x,y,1/2+z
1/2-x,-y,1/2+z
3/4-x,1/4+y,3/4+z
3/4+x,1/4-y,3/4+z
1/2+x,1/2+y,z
1/2-x,1/2-y,z
3/4-x,3/4+y,1/4+z
3/4+x,3/4-y,1/4+z
loop_
_atom_site_type_symbol
_atom_site_label
_atom_site_fract_x
_atom_site_fract_y
_atom_site_fract_z
Si Si1 0.564033 0.578489 0.074290
Si Si2 0.383757 0.529438 0.217837
Si Si3 0.294240 0.378128 0.172054
Si Si4 0.888114 0.711739 0.205098
Si Si5 0.155432 0.108409 0.567766
Si Si6 0.368105 0.642347 0.113034
Si Si7 0.131337 0.443630 0.922026
Si Si8 0.000000 0.500000 0.011887
O O1 0.500000 0.500000 0.088075
O O2 0.653082 0.597303 0.116044
O O3 0.475556 0.642042 0.082425
O O4 0.607322 0.565405 0.015016
O O5 0.500000 0.500000 0.215863
O O6 0.311063 0.454493 0.209289
O O7 0.374222 0.574470 0.274620
O O8 0.371363 0.587858 0.166690
O O9 0.179936 0.345693 0.167449
O O10 0.353865 0.301947 0.195632
O O11 0.006423 0.705162 0.194674
O O12 0.278193 0.111463 0.573791
O O13 0.121990 0.124234 0.629088
O O14 0.093903 0.034055 0.545681
O O15 0.353745 0.729281 0.136531
O O16 0.052466 0.437398 0.971237
#
# Coordination Sequence:
#
# PCOD9372516 Si02
#       8
#    16  16  16  16  16  16  16   8
#     4  12  23  40  69 107 135 193 237 300 375 425
#     4  12  22  39  70 110 139 186 248 316 362 438
#     4  11  23  42  63 108 145 183 243 295 371 448
#     4  11  27  41  71 100 153 191 230 307 377 437
#     4  12  28  42  75 101 141 201 244 312 381 425
#     4  12  23  44  71 106 145 184 253 313 363 451
#     4  12  24  50  69 105 142 189 250 307 365 453
#     4  12  28  50  74 106 148 188 250 312 372 452
#
# _framework density 21.706302999999998
#
# number of rings (size 3 to 8) (size 9 to 14) (size 15 to 20)
#    0.000    0.267    8.000    0.800    5.600    2.133 
#    0.000    0.000    0.000    0.000    0.000    0.000 
#    0.000    0.000    0.000    0.000    0.000    0.000 
#
# Total GULP energy -167769.820150 kJ/mol
# GULP energy per Si atom -5592.327338 kJ/mol
# Density = 2.165690 g / cm^3
# Si number density = 21.706303 Si / 1000 Ang^3
#
#
#
# Elastic Constant Matrix: (Units=GPa)
#
#
# Indices 1 2 3 4 5 6 
#
# 1 117.5450 6.7378 43.3027 0.0000 0.0000 0.0000
# 2 6.7378 42.7720 29.9374 0.0000 0.0000 0.0000
# 3 43.3027 29.9374 125.8387 0.0000 0.0000 0.0000
# 4 0.0000 0.0000 0.0000 28.8351 0.0000 0.0000
# 5 0.0000 0.0000 0.0000 0.0000 46.3698 0.0000
# 6 0.0000 0.0000 0.0000 0.0000 0.0000 34.0838
#
#
#
# Elastic Compliance Matrix: (Units=1/GPa)
#
#
# Indices 1 2 3 4 5 6 
#
# 1 0.009776 0.000977 -0.003597 0.000000 0.000000 0.000000
# 2 0.000977 0.028148 -0.007033 0.000000 0.000000 0.000000
# 3 -0.003597 -0.007033 0.010858 0.000000 0.000000 0.000000
# 4 0.000000 0.000000 0.000000 0.034680 0.000000 0.000000
# 5 0.000000 0.000000 0.000000 0.000000 0.021566 0.000000
# 6 0.000000 0.000000 0.000000 0.000000 0.000000 0.029339
#
#
# Mechanical properties :
#
#
# Convention : Reuss Voigt Hill
#
# Bulk Modulus (GPa) = 33.92383 49.56795 41.74589
# Shear Modulus (GPa) = 30.58145 35.60293 33.09219
#
# Velocity S-wave (km/s) = 3.75757 4.05435 3.90878
# Velocity P-wave (km/s) = 5.87267 6.69345 6.29645
#
# Compressibility (1/GPa) = 0.02947780
#
# Stress axis : x y z
#
# Youngs Moduli (GPa) = 102.28764 35.52599 92.10219
#
# Poissons Ratio (x) = -0.03472 0.33126
# Poissons Ratio (y) = -0.09998 0.64775
# Poissons Ratio (z) = 0.36790 0.24985
#
# Static dielectric constant tensor:
#      x y z
#    x 1.827490 0.000000 0.000000 
#    y 0.000000 1.848540 0.000000 
#    z 0.000000 0.000000 1.796780 
# 
# From -- ./inp_files/21835.got.cif
#   From: 2010.05.17/outbox.cif.g08.bks.cpg/sg43_11_cif.got.tgz:21835.got - 2010.06.03 19:21:55.
