data_PCOD9372488
_publ_section_title
;
Structure prediction by ZEFSAII (Michael W. Deem and Ramdas Pophale) SiO2 
 PCOD9372488
Probable space group: F D D 2
;
_chemical_formula_sum "Si O2"
_cell_formula_units_Z 120
_cell_length_a 23.018448
_cell_length_b 22.908037
_cell_length_c 9.857317
_cell_angle_alpha 90.000000
_cell_angle_beta 90.000000
_cell_angle_gamma 90.000000
_cell_volume 5197.836775
_symmetry_space_group_name_H-M "F D D 2"
_symmetry_group_IT_number 43
_symmetry_cell_setting 'orthorhombic'
loop_
_space_group_symop_operation_xyz
x,y,z
-x,-y,z
1/4-x,1/4+y,1/4+z
1/4+x,1/4-y,1/4+z
x,1/2+y,1/2+z
-x,1/2-y,1/2+z
1/4-x,3/4+y,3/4+z
1/4+x,3/4-y,3/4+z
1/2+x,y,1/2+z
1/2-x,-y,1/2+z
3/4-x,1/4+y,3/4+z
3/4+x,1/4-y,3/4+z
1/2+x,1/2+y,z
1/2-x,1/2-y,z
3/4-x,3/4+y,1/4+z
3/4+x,3/4-y,1/4+z
loop_
_atom_site_type_symbol
_atom_site_label
_atom_site_fract_x
_atom_site_fract_y
_atom_site_fract_z
Si Si1 0.311011 0.640630 0.941570
Si Si2 0.164706 0.692403 0.579865
Si Si3 0.836368 0.595690 0.716732
Si Si4 0.000000 0.500000 0.547571
Si Si5 0.687068 0.087377 0.923196
Si Si6 0.022566 0.855790 0.643194
Si Si7 0.580746 0.277794 0.439190
Si Si8 0.039900 0.778095 0.903116
O O1 0.363676 0.604404 0.869356
O O2 0.289940 0.701977 0.876632
O O3 0.254893 0.598711 0.937466
O O4 0.322185 0.644163 0.102734
O O5 0.044441 0.462167 0.454036
O O6 0.205787 0.663680 0.465921
O O7 0.133896 0.748581 0.514708
O O8 0.904665 0.604761 0.726273
O O9 0.794292 0.604777 0.844348
O O10 0.823067 0.532857 0.654725
O O11 0.681109 0.067854 0.767872
O O12 0.664220 0.039223 0.029173
O O13 0.060782 0.837192 0.513622
O O14 0.034886 0.806795 0.757079
O O15 0.524978 0.236101 0.452197
#
# Coordination Sequence:
#
# PCOD9372488 Si02
#       8
#    16  16  16   8  16  16  16  16
#     4  12  24  51  72 110 151 200 257 324 388 473
#     4  12  27  46  79 109 155 204 262 323 399 475
#     4  11  26  43  74 108 149 193 255 319 393 458
#     4  12  30  50  76 116 158 206 266 320 402 484
#     4  12  25  45  74 109 149 196 258 318 388 469
#     4  11  24  44  72 106 149 192 250 318 382 464
#     4  11  23  44  73 105 146 192 256 311 384 462
#     4  11  22  46  72 104 141 200 253 305 383 479
#
# _framework density 23.086528000000001
#
# number of rings (size 3 to 8) (size 9 to 14) (size 15 to 20)
#    0.000    0.533    4.000    5.600    1.867    5.333 
#    2.400    0.000    0.000    0.000    0.000    0.000 
#    0.000    0.000    0.000    0.000    0.000    0.000 
#
# Total GULP energy -167690.682534 kJ/mol
# GULP energy per Si atom -5589.689418 kJ/mol
# Density = 2.303398 g / cm^3
# Si number density = 23.086528 Si / 1000 Ang^3
#
#
#
# Elastic Constant Matrix: (Units=GPa)
#
#
# Indices 1 2 3 4 5 6 
#
# 1 90.5657 26.2823 36.5099 0.0000 0.0000 0.0000
# 2 26.2823 41.2445 18.3385 0.0000 0.0000 0.0000
# 3 36.5099 18.3385 117.0157 -0.0002 0.0001 0.0001
# 4 0.0000 0.0000 -0.0002 41.6462 0.0001 0.0000
# 5 0.0000 0.0000 0.0001 0.0001 37.0012 0.0000
# 6 0.0000 0.0000 0.0001 0.0000 0.0000 45.0960
#
#
#
# Elastic Compliance Matrix: (Units=1/GPa)
#
#
# Indices 1 2 3 4 5 6 
#
# 1 0.014672 -0.007862 -0.003346 0.000000 0.000000 0.000000
# 2 -0.007862 0.030274 -0.002292 0.000000 0.000000 0.000000
# 3 -0.003346 -0.002292 0.009949 0.000000 0.000000 0.000000
# 4 0.000000 0.000000 0.000000 0.024012 0.000000 0.000000
# 5 0.000000 0.000000 0.000000 0.000000 0.027026 0.000000
# 6 0.000000 0.000000 0.000000 0.000000 0.000000 0.022175
#
#
# Mechanical properties :
#
#
# Convention : Reuss Voigt Hill
#
# Bulk Modulus (GPa) = 35.84617 45.67639 40.76128
# Shear Modulus (GPa) = 30.41260 35.92834 33.17047
#
# Velocity S-wave (km/s) = 3.63344 3.94921 3.79461
# Velocity P-wave (km/s) = 5.75874 6.37360 6.07396
#
# Compressibility (1/GPa) = 0.02789698
#
# Stress axis : x y z
#
# Youngs Moduli (GPa) = 68.15709 33.03116 100.51386
#
# Poissons Ratio (x) = 0.25969 0.33629
# Poissons Ratio (y) = 0.53584 0.23034
# Poissons Ratio (z) = 0.22803 0.07569
#
# Static dielectric constant tensor:
#      x y z
#    x 1.955380 0.000000 0.000000 
#    y 0.000000 1.927860 0.000000 
#    z 0.000000 0.000000 1.895930 
# 
# From -- ./inp_files/3898.got.cif
#   From: 2010.05.17/outbox.cif.g08.bks.cpg/sg43_2_cif.got.tgz:3898.got - 2010.06.03 19:21:55.
