data_PCOD9372520
_publ_section_title
;
Structure prediction by ZEFSAII (Michael W. Deem and Ramdas Pophale) SiO2 
 PCOD9372520
Probable space group: F D D 2
;
_chemical_formula_sum "Si O2"
_cell_formula_units_Z 120
_cell_length_a 10.399429
_cell_length_b 20.171478
_cell_length_c 25.874097
_cell_angle_alpha 90.000000
_cell_angle_beta 90.000000
_cell_angle_gamma 90.000000
_cell_volume 5427.657280
_symmetry_space_group_name_H-M "F D D 2"
_symmetry_group_IT_number 43
_symmetry_cell_setting 'orthorhombic'
loop_
_space_group_symop_operation_xyz
x,y,z
-x,-y,z
1/4-x,1/4+y,1/4+z
1/4+x,1/4-y,1/4+z
x,1/2+y,1/2+z
-x,1/2-y,1/2+z
1/4-x,3/4+y,3/4+z
1/4+x,3/4-y,3/4+z
1/2+x,y,1/2+z
1/2-x,-y,1/2+z
3/4-x,1/4+y,3/4+z
3/4+x,1/4-y,3/4+z
1/2+x,1/2+y,z
1/2-x,1/2-y,z
3/4-x,3/4+y,1/4+z
3/4+x,3/4-y,1/4+z
loop_
_atom_site_type_symbol
_atom_site_label
_atom_site_fract_x
_atom_site_fract_y
_atom_site_fract_z
Si Si1 0.437504 0.235145 0.865530
Si Si2 0.823761 0.685769 0.358477
Si Si3 0.774465 0.080965 0.944804
Si Si4 0.017924 0.090535 0.387522
Si Si5 0.538842 0.690533 0.705458
Si Si6 0.340870 0.901712 0.785989
Si Si7 0.750000 0.250000 0.281032
Si Si8 0.352981 0.800817 0.472988
O O1 0.538846 0.286716 0.841873
O O2 0.508023 0.169475 0.883882
O O3 0.337940 0.210814 0.822308
O O4 0.382846 0.271672 0.916031
O O5 0.750000 0.750000 0.381671
O O6 0.834385 0.624990 0.398685
O O7 0.741823 0.657759 0.311356
O O8 0.622878 0.078001 0.932029
O O9 0.806342 0.003302 0.949769
O O10 0.809978 0.119952 0.996101
O O11 0.081508 0.066836 0.333881
O O12 0.877777 0.066183 0.404031
O O13 0.647695 0.707763 0.748369
O O14 0.463195 0.622837 0.716764
O O15 0.235125 0.944637 0.755338
O O16 0.250000 0.750000 0.497238
#
# Coordination Sequence:
#
# PCOD9372520 Si02
#       8
#    16  16  16  16  16  16   8  16
#     4  12  22  46  72 102 133 190 247 288 349 445
#     4  11  23  43  71 100 139 180 240 289 345 437
#     4  11  23  42  68 105 136 187 235 297 363 418
#     4  11  23  44  70 104 147 184 238 300 354 448
#     4  12  25  43  68 105 151 180 246 307 363 440
#     4  11  25  42  75 103 142 188 238 301 364 438
#     4  12  24  40  76  96 136 194 236 290 362 426
#     4  12  26  47  73 105 146 193 246 304 372 436
#
# _framework density 22.108986000000002
#
# number of rings (size 3 to 8) (size 9 to 14) (size 15 to 20)
#    0.000    0.533    7.333    1.600    1.867    0.000 
#    0.000   17.333    0.000    0.000    0.000    0.000 
#    0.000    0.000    0.000    0.000    0.000    0.000 
#
# Total GULP energy -167538.058908 kJ/mol
# GULP energy per Si atom -5584.601964 kJ/mol
# Density = 2.205866 g / cm^3
# Si number density = 22.108986 Si / 1000 Ang^3
#
#
#
# Elastic Constant Matrix: (Units=GPa)
#
#
# Indices 1 2 3 4 5 6 
#
# 1 64.4555 27.6111 40.9475 0.0000 0.0000 0.0000
# 2 27.6111 115.9746 30.8075 0.0000 0.0000 0.0000
# 3 40.9475 30.8075 109.2343 0.0000 0.0000 0.0000
# 4 0.0000 0.0000 0.0000 10.2935 0.0000 0.0000
# 5 0.0000 0.0000 0.0000 0.0000 43.4232 0.0000
# 6 0.0000 0.0000 0.0000 0.0000 0.0000 42.7073
#
#
#
# Elastic Compliance Matrix: (Units=1/GPa)
#
#
# Indices 1 2 3 4 5 6 
#
# 1 0.021413 -0.003206 -0.007123 0.000000 0.000000 0.000000
# 2 -0.003206 0.009801 -0.001562 0.000000 0.000000 0.000000
# 3 -0.007123 -0.001562 0.012265 0.000000 0.000000 0.000000
# 4 0.000000 0.000000 0.000000 0.097149 0.000000 0.000000
# 5 0.000000 0.000000 0.000000 0.000000 0.023029 0.000000
# 6 0.000000 0.000000 0.000000 0.000000 0.000000 0.023415
#
#
# Mechanical properties :
#
#
# Convention : Reuss Voigt Hill
#
# Bulk Modulus (GPa) = 50.76888 54.26630 52.51759
# Shear Modulus (GPa) = 22.99702 31.97134 27.48418
#
# Velocity S-wave (km/s) = 3.22866 3.80686 3.52962
# Velocity P-wave (km/s) = 6.07551 6.62730 6.35740
#
# Compressibility (1/GPa) = 0.01969711
#
# Stress axis : x y z
#
# Youngs Moduli (GPa) = 46.70107 102.03182 81.53104
#
# Poissons Ratio (x) = 0.32710 0.58072
# Poissons Ratio (y) = 0.14972 0.12738
# Poissons Ratio (z) = 0.33263 0.15941
#
# Static dielectric constant tensor:
#      x y z
#    x 1.875420 0.000000 0.000000 
#    y 0.000000 1.803590 0.000000 
#    z 0.000000 0.000000 1.833530 
# 
# From -- ./inp_files/21256.got.cif
#   From: 2010.05.17/outbox.cif.g08.bks.cpg/sg43_11_cif.got.tgz:21256.got - 2010.06.03 19:21:55.
