data_PCOD9372733
_publ_section_title
;
Structure prediction by ZEFSAII (Michael W. Deem and Ramdas Pophale) SiO2 
 PCOD9372733
Probable space group: F D D 2
;
_chemical_formula_sum "Si O2"
_cell_formula_units_Z 88
_cell_length_a 21.109262
_cell_length_b 11.716832
_cell_length_c 14.136739
_cell_angle_alpha 90.000000
_cell_angle_beta 90.000000
_cell_angle_gamma 90.000000
_cell_volume 3496.491631
_symmetry_space_group_name_H-M "F D D 2"
_symmetry_group_IT_number 43
_symmetry_cell_setting 'orthorhombic'
loop_
_space_group_symop_operation_xyz
x,y,z
-x,-y,z
1/4-x,1/4+y,1/4+z
1/4+x,1/4-y,1/4+z
x,1/2+y,1/2+z
-x,1/2-y,1/2+z
1/4-x,3/4+y,3/4+z
1/4+x,3/4-y,3/4+z
1/2+x,y,1/2+z
1/2-x,-y,1/2+z
3/4-x,1/4+y,3/4+z
3/4+x,1/4-y,3/4+z
1/2+x,1/2+y,z
1/2-x,1/2-y,z
3/4-x,3/4+y,1/4+z
3/4+x,3/4-y,1/4+z
loop_
_atom_site_type_symbol
_atom_site_label
_atom_site_fract_x
_atom_site_fract_y
_atom_site_fract_z
Si Si1 0.955689 0.716119 0.772490
Si Si2 0.138725 0.759950 0.001250
Si Si3 0.754929 0.476800 0.801920
Si Si4 0.250000 0.250000 0.174886
Si Si5 0.125714 0.584582 0.350097
Si Si6 0.907812 0.733914 0.308729
O O1 0.936566 0.584998 0.787088
O O2 0.977072 0.717290 0.662830
O O3 0.898439 0.798492 0.803114
O O4 0.016915 0.765290 0.826040
O O5 0.067733 0.710731 0.012673
O O6 0.144414 0.880364 0.051279
O O7 0.140769 0.797801 0.891448
O O8 0.752515 0.357640 0.745751
O O9 0.687295 0.538591 0.795646
O O10 0.187842 0.257169 0.108745
O O11 0.145058 0.582474 0.461190
#
# Coordination Sequence:
#
# PCOD9372733 Si02
#       6
#    16  16  16   8  16  16
#     4  11  26  45  72 115 153 192 248 321 391 455
#     4  12  23  51  75 111 144 201 253 316 378 470
#     4  11  27  45  78 111 151 200 256 318 389 468
#     4  12  24  48  78 106 150 210 270 310 382 486
#     4  11  27  45  72 115 152 194 252 331 388 457
#     4  11  26  47  79 107 146 201 261 303 381 470
#
# _framework density 25.168085000000001
#
# number of rings (size 3 to 8) (size 9 to 14) (size 15 to 20)
#    0.000    0.727    3.636    1.636   10.182    5.091 
#    3.273    1.818    0.000    0.000    0.000    0.000 
#    0.000    0.000    0.000    0.000    0.000    0.000 
#
# Total GULP energy -123099.851654 kJ/mol
# GULP energy per Si atom -5595.447802 kJ/mol
# Density = 2.511080 g / cm^3
# Si number density = 25.168085 Si / 1000 Ang^3
#
#
#
# Elastic Constant Matrix: (Units=GPa)
#
#
# Indices 1 2 3 4 5 6 
#
# 1 142.5959 42.6563 18.5592 0.0000 0.0000 0.0000
# 2 42.6563 99.3210 34.1787 0.0000 0.0000 0.0000
# 3 18.5592 34.1787 71.1957 0.0000 0.0000 0.0000
# 4 0.0000 0.0000 0.0000 38.2361 0.0000 0.0000
# 5 0.0000 0.0000 0.0000 0.0000 38.3269 0.0000
# 6 0.0000 0.0000 0.0000 0.0000 0.0000 52.4019
#
#
#
# Elastic Compliance Matrix: (Units=1/GPa)
#
#
# Indices 1 2 3 4 5 6 
#
# 1 0.008063 -0.003282 -0.000526 0.000000 0.000000 0.000000
# 2 -0.003282 0.013397 -0.005576 0.000000 0.000000 0.000000
# 3 -0.000526 -0.005576 0.016860 0.000000 0.000000 0.000000
# 4 0.000000 0.000000 0.000000 0.026153 0.000000 0.000000
# 5 0.000000 0.000000 0.000000 0.000000 0.026091 0.000000
# 6 0.000000 0.000000 0.000000 0.000000 0.000000 0.019083
#
#
# Mechanical properties :
#
#
# Convention : Reuss Voigt Hill
#
# Bulk Modulus (GPa) = 51.14693 55.98899 53.56796
# Shear Modulus (GPa) = 37.05561 40.30752 38.68157
#
# Velocity S-wave (km/s) = 3.84125 4.00626 3.92462
# Velocity P-wave (km/s) = 6.32771 6.61018 6.47048
#
# Compressibility (1/GPa) = 0.01955152
#
# Stress axis : x y z
#
# Youngs Moduli (GPa) = 124.02261 74.64599 59.31285
#
# Poissons Ratio (x) = 0.24497 0.03122
# Poissons Ratio (y) = 0.40701 0.33071
# Poissons Ratio (z) = 0.06528 0.41621
#
# Static dielectric constant tensor:
#      x y z
#    x 2.080600 0.000000 0.000000 
#    y 0.000000 1.997400 0.000000 
#    z 0.000000 0.000000 2.075110 
# 
# From -- ./inp_files/11200.got.cif
#   From: 2010.05.17/outbox.cif.g08.bks.cpg/sg43_6_cif.got.tgz:11200.got - 2010.06.03 19:21:55.
