data_PCOD9372299
_publ_section_title
;
Structure prediction by ZEFSAII (Michael W. Deem and Ramdas Pophale) SiO2 
 PCOD9372299
Probable space group: F D D 2
;
_chemical_formula_sum "Si O2"
_cell_formula_units_Z 56
_cell_length_a 21.927216
_cell_length_b 18.110432
_cell_length_c 5.160189
_cell_angle_alpha 90.000000
_cell_angle_beta 90.000000
_cell_angle_gamma 90.000000
_cell_volume 2049.169642
_symmetry_space_group_name_H-M "F D D 2"
_symmetry_group_IT_number 43
_symmetry_cell_setting 'orthorhombic'
loop_
_space_group_symop_operation_xyz
x,y,z
-x,-y,z
1/4-x,1/4+y,1/4+z
1/4+x,1/4-y,1/4+z
x,1/2+y,1/2+z
-x,1/2-y,1/2+z
1/4-x,3/4+y,3/4+z
1/4+x,3/4-y,3/4+z
1/2+x,y,1/2+z
1/2-x,-y,1/2+z
3/4-x,1/4+y,3/4+z
3/4+x,1/4-y,3/4+z
1/2+x,1/2+y,z
1/2-x,1/2-y,z
3/4-x,3/4+y,1/4+z
3/4+x,3/4-y,1/4+z
loop_
_atom_site_type_symbol
_atom_site_label
_atom_site_fract_x
_atom_site_fract_y
_atom_site_fract_z
Si Si1 0.138854 0.764382 0.777950
Si Si2 0.015575 0.204469 0.168433
Si Si3 0.799687 0.353468 0.517662
Si Si4 0.250000 0.750000 0.169992
O O1 0.082523 0.706989 0.795304
O O2 0.177911 0.730759 0.546666
O O3 0.106525 0.842175 0.730827
O O4 0.187096 0.758161 0.005327
O O5 0.977969 0.242045 0.406247
O O6 0.984551 0.136203 0.019073
O O7 0.754310 0.334575 0.288941
#
# Coordination Sequence:
#
# PCOD9372299 Si02
#       4
#    16  16  16   8
#     4  11  29  52  89 127 182 232 304 373 455 537
#     4  10  26  53  88 128 173 238 296 364 452 535
#     4  11  29  52  88 130 179 239 302 378 451 547
#     4  12  30  54  88 132 178 234 314 370 456 542
#
# _framework density 27.328144000000002
#
# number of rings (size 3 to 8) (size 9 to 14) (size 15 to 20)
#    0.000    1.143    0.000    0.857   24.000    4.571 
#    0.000    0.000    0.000    0.000    0.000    0.000 
#    0.000    0.000    0.000    0.000    0.000    0.000 
#
# Total GULP energy -78037.430257 kJ/mol
# GULP energy per Si atom -5574.102161 kJ/mol
# Density = 2.726594 g / cm^3
# Si number density = 27.328144 Si / 1000 Ang^3
#
#
#
# Elastic Constant Matrix: (Units=GPa)
#
#
# Indices 1 2 3 4 5 6 
#
# 1 104.9972 58.4940 36.3171 0.0017 -0.0057 -0.0007
# 2 58.4940 179.3608 52.7895 0.0084 -0.0069 -0.0021
# 3 36.3171 52.7895 124.7547 0.0272 -0.0195 -0.0072
# 4 0.0017 0.0084 0.0272 38.0816 -0.0067 -0.0038
# 5 -0.0057 -0.0069 -0.0195 -0.0067 12.1352 0.0019
# 6 -0.0007 -0.0021 -0.0072 -0.0038 0.0019 61.1843
#
#
#
# Elastic Compliance Matrix: (Units=1/GPa)
#
#
# Indices 1 2 3 4 5 6 
#
# 1 0.012109 -0.003326 -0.002118 0.000002 0.000000 0.000000
# 2 -0.003326 0.007282 -0.002113 0.000000 -0.000001 0.000000
# 3 -0.002118 -0.002113 0.009526 -0.000006 0.000013 0.000001
# 4 0.000002 0.000000 -0.000006 0.026259 0.000014 0.000002
# 5 0.000000 -0.000001 0.000013 0.000014 0.082405 -0.000003
# 6 0.000000 0.000000 0.000001 0.000002 -0.000003 0.016344
#
#
# Mechanical properties :
#
#
# Convention : Reuss Voigt Hill
#
# Bulk Modulus (GPa) = 72.44211 78.25710 75.34960
# Shear Modulus (GPa) = 28.79500 39.71436 34.25468
#
# Velocity S-wave (km/s) = 3.24956 3.81627 3.54426
# Velocity P-wave (km/s) = 6.37537 6.93663 6.66191
#
# Compressibility (1/GPa) = 0.01380413
#
# Stress axis : x y z
#
# Youngs Moduli (GPa) = 82.58027 137.32602 104.97130
#
# Poissons Ratio (x) = 0.45673 0.22231
# Poissons Ratio (y) = 0.27465 0.22182
# Poissons Ratio (z) = 0.17489 0.29019
#
# Static dielectric constant tensor:
#      x y z
#    x 2.210420 0.000010 0.000010 
#    y 0.000010 2.275250 -0.000010 
#    z 0.000010 -0.000010 2.366230 
# 
# From -- ./inp_files/839.got.cif
#   From: 2010.05.17/outbox.cif.g08.bks.cpg/sg43_1_cif.got.tgz:839.got - 2010.06.03 19:21:55.
