data_PCOD9372785
_publ_section_title
;
Structure prediction by ZEFSAII (Michael W. Deem and Ramdas Pophale) SiO2 
 PCOD9372785
Probable space group: F D D 2
;
_chemical_formula_sum "Si O2"
_cell_formula_units_Z 120
_cell_length_a 21.840985
_cell_length_b 9.243611
_cell_length_c 27.197054
_cell_angle_alpha 90.000000
_cell_angle_beta 90.000000
_cell_angle_gamma 90.000000
_cell_volume 5490.801515
_symmetry_space_group_name_H-M "F D D 2"
_symmetry_group_IT_number 43
_symmetry_cell_setting 'orthorhombic'
loop_
_space_group_symop_operation_xyz
x,y,z
-x,-y,z
1/4-x,1/4+y,1/4+z
1/4+x,1/4-y,1/4+z
x,1/2+y,1/2+z
-x,1/2-y,1/2+z
1/4-x,3/4+y,3/4+z
1/4+x,3/4-y,3/4+z
1/2+x,y,1/2+z
1/2-x,-y,1/2+z
3/4-x,1/4+y,3/4+z
3/4+x,1/4-y,3/4+z
1/2+x,1/2+y,z
1/2-x,1/2-y,z
3/4-x,3/4+y,1/4+z
3/4+x,3/4-y,1/4+z
loop_
_atom_site_type_symbol
_atom_site_label
_atom_site_fract_x
_atom_site_fract_y
_atom_site_fract_z
Si Si1 0.307066 0.358458 0.679620
Si Si2 0.144787 0.249602 0.396856
Si Si3 0.099850 0.285380 0.822646
Si Si4 0.276361 0.900574 0.701018
Si Si5 0.816071 0.980641 0.469543
Si Si6 0.431330 0.700212 0.603562
Si Si7 0.250000 0.750000 0.423070
Si Si8 0.939890 0.201850 0.058332
O O1 0.250000 0.250000 0.678265
O O2 0.323659 0.412019 0.624683
O O3 0.281961 0.496861 0.708304
O O4 0.365234 0.288201 0.706301
O O5 0.075056 0.269137 0.415724
O O6 0.163693 0.412709 0.385803
O O7 0.157803 0.153945 0.348033
O O8 0.184555 0.166211 0.437926
O O9 0.054576 0.295625 0.776622
O O10 0.126094 0.121375 0.823355
O O11 0.152830 0.398841 0.807912
O O12 0.250000 0.750000 0.681290
O O13 0.307485 0.882030 0.754381
O O14 0.773418 0.110576 0.451652
O O15 0.448092 0.563914 0.637849
O O16 0.491764 0.753642 0.575172
#
# Coordination Sequence:
#
# PCOD9372785 Si02
#       8
#    16  16  16  16  16  16   8  16
#     4  12  22  46  70  96 142 190 236 293 351 433
#     4  12  24  43  69 102 145 179 237 301 359 421
#     4  12  23  44  70  99 142 186 236 295 367 425
#     4  12  26  43  68 106 141 186 241 304 360 423
#     4  12  25  46  69 105 140 189 238 292 366 436
#     4  12  22  42  72  98 133 184 233 300 347 424
#     4  12  24  46  70  96 140 178 232 292 354 432
#     4  12  22  44  73 103 132 188 244 293 358 439
#
# _framework density 21.854731999999998
#
# number of rings (size 3 to 8) (size 9 to 14) (size 15 to 20)
#    0.000    0.000    8.000    2.800    0.000    0.000 
#    6.000    0.000    0.000    0.000    0.000    0.000 
#    0.000    0.000    0.000    0.000    0.000    0.000 
#
# Total GULP energy -167686.973069 kJ/mol
# GULP energy per Si atom -5589.565769 kJ/mol
# Density = 2.180499 g / cm^3
# Si number density = 21.854732 Si / 1000 Ang^3
#
#
#
# Elastic Constant Matrix: (Units=GPa)
#
#
# Indices 1 2 3 4 5 6 
#
# 1 19.2382 -15.5499 -21.7809 0.0000 0.0000 0.0000
# 2 -15.5499 103.5536 -9.3756 0.0000 0.0000 0.0000
# 3 -21.7809 -9.3756 77.2585 0.0000 0.0000 0.0000
# 4 0.0000 0.0000 0.0000 18.3203 0.0000 0.0000
# 5 0.0000 0.0000 0.0000 0.0000 22.5324 0.0000
# 6 0.0000 0.0000 0.0000 0.0000 0.0000 42.4816
#
#
#
# Elastic Compliance Matrix: (Units=1/GPa)
#
#
# Indices 1 2 3 4 5 6 
#
# 1 0.101360 0.018006 0.030761 0.000000 0.000000 0.000000
# 2 0.018006 0.012963 0.006649 0.000000 0.000000 0.000000
# 3 0.030761 0.006649 0.022423 0.000000 0.000000 0.000000
# 4 0.000000 0.000000 0.000000 0.054584 0.000000 0.000000
# 5 0.000000 0.000000 0.000000 0.000000 0.044381 0.000000
# 6 0.000000 0.000000 0.000000 0.000000 0.000000 0.023540
#
#
# Mechanical properties :
#
#
# Convention : Reuss Voigt Hill
#
# Bulk Modulus (GPa) = 4.03916 11.84861 7.94389
# Shear Modulus (GPa) = 21.65027 33.11731 27.38379
#
# Velocity S-wave (km/s) = 3.15087 3.89696 3.54360
# Velocity P-wave (km/s) = 3.88452 5.06771 4.51504
#
# Compressibility (1/GPa) = 0.24757620
#
# Stress axis : x y z
#
# Youngs Moduli (GPa) = 9.86582 77.14498 44.59786
#
# Poissons Ratio (x) = -1.38904 -1.37186
# Poissons Ratio (y) = -0.17764 -0.29654
# Poissons Ratio (z) = -0.30348 -0.51295
#
# Static dielectric constant tensor:
#      x y z
#    x 1.835010 0.000000 0.000000 
#    y 0.000000 1.800990 0.000000 
#    z 0.000000 0.000000 1.834130 
# 
# From -- ./inp_files/24462.got.cif
#   From: 2010.05.17/outbox.cif.g08.bks.cpg/sg43_13_cif.got.tgz:24462.got - 2010.06.03 19:21:55.
