data_PCOD9372382
_publ_section_title
;
Structure prediction by ZEFSAII (Michael W. Deem and Ramdas Pophale) SiO2 
 PCOD9372382
Probable space group: F D D 2
;
_chemical_formula_sum "Si O2"
_cell_formula_units_Z 96
_cell_length_a 20.236993
_cell_length_b 16.795876
_cell_length_c 13.607611
_cell_angle_alpha 90.000000
_cell_angle_beta 90.000000
_cell_angle_gamma 90.000000
_cell_volume 4625.200104
_symmetry_space_group_name_H-M "F D D 2"
_symmetry_group_IT_number 43
_symmetry_cell_setting 'orthorhombic'
loop_
_space_group_symop_operation_xyz
x,y,z
-x,-y,z
1/4-x,1/4+y,1/4+z
1/4+x,1/4-y,1/4+z
x,1/2+y,1/2+z
-x,1/2-y,1/2+z
1/4-x,3/4+y,3/4+z
1/4+x,3/4-y,3/4+z
1/2+x,y,1/2+z
1/2-x,-y,1/2+z
3/4-x,1/4+y,3/4+z
3/4+x,1/4-y,3/4+z
1/2+x,1/2+y,z
1/2-x,1/2-y,z
3/4-x,3/4+y,1/4+z
3/4+x,3/4-y,1/4+z
loop_
_atom_site_type_symbol
_atom_site_label
_atom_site_fract_x
_atom_site_fract_y
_atom_site_fract_z
Si Si1 0.803936 0.067782 0.008920
Si Si2 0.571435 0.810999 0.900000
Si Si3 0.308717 0.804555 0.842542
Si Si4 0.924596 0.515079 0.995509
Si Si5 0.396218 0.988434 0.776593
Si Si6 0.745092 0.522343 0.309862
O O1 0.745090 0.075238 0.086701
O O2 0.869205 0.029002 0.056131
O O3 0.832672 0.154472 0.975785
O O4 0.775694 0.017636 0.917860
O O5 0.625707 0.773891 0.825685
O O6 0.587293 0.892059 0.962168
O O7 0.550366 0.745838 0.980823
O O8 0.250000 0.750000 0.807277
O O9 0.288250 0.891021 0.807261
O O10 0.314098 0.801363 0.960896
O O11 0.916238 0.473816 0.889009
O O12 0.000000 0.500000 0.027715
O O13 0.322162 0.024867 0.784993
#
# Coordination Sequence:
#
# PCOD9372382 Si02
#       6
#    16  16  16  16  16  16
#     4  11  22  41  69  99 136 179 227 294 345 418
#     4  12  27  46  67 106 144 193 234 292 368 429
#     4  11  22  39  68 103 133 173 236 292 355 413
#     4  12  27  44  73 103 145 183 243 298 357 431
#     4  11  21  40  71 103 126 166 239 296 339 401
#     4  11  24  41  67 100 140 178 229 289 352 424
#
# _framework density 20.755859000000001
#
# number of rings (size 3 to 8) (size 9 to 14) (size 15 to 20)
#    0.000    0.667    6.667    1.500    4.667    1.333 
#    0.000    4.167    0.000    0.000    0.000    0.000 
#    0.000    0.000    0.000    0.000    0.000    0.000 
#
# Total GULP energy -133810.956160 kJ/mol
# GULP energy per Si atom -5575.456507 kJ/mol
# Density = 2.070862 g / cm^3
# Si number density = 20.755859 Si / 1000 Ang^3
#
#
#
# Elastic Constant Matrix: (Units=GPa)
#
#
# Indices 1 2 3 4 5 6 
#
# 1 157.6227 43.8841 44.7792 0.0000 0.0000 0.0000
# 2 43.8841 60.7793 47.8748 0.0000 0.0000 0.0000
# 3 44.7792 47.8748 88.5340 0.0000 0.0000 0.0000
# 4 0.0000 0.0000 0.0000 19.9784 0.0000 0.0000
# 5 0.0000 0.0000 0.0000 0.0000 35.4420 0.0000
# 6 0.0000 0.0000 0.0000 0.0000 0.0000 23.8044
#
#
#
# Elastic Compliance Matrix: (Units=1/GPa)
#
#
# Indices 1 2 3 4 5 6 
#
# 1 0.008072 -0.004551 -0.001622 0.000000 0.000000 0.000000
# 2 -0.004551 0.031226 -0.014584 0.000000 0.000000 0.000000
# 3 -0.001622 -0.014584 0.020002 0.000000 0.000000 0.000000
# 4 0.000000 0.000000 0.000000 0.050054 0.000000 0.000000
# 5 0.000000 0.000000 0.000000 0.000000 0.028215 0.000000
# 6 0.000000 0.000000 0.000000 0.000000 0.000000 0.042009
#
#
# Mechanical properties :
#
#
# Convention : Reuss Voigt Hill
#
# Bulk Modulus (GPa) = 56.22119 64.44580 60.33349
# Shear Modulus (GPa) = 22.02450 27.20481 24.61466
#
# Velocity S-wave (km/s) = 3.26102 3.62429 3.44745
# Velocity P-wave (km/s) = 6.42843 6.97358 6.70655
#
# Compressibility (1/GPa) = 0.01778689
#
# Stress axis : x y z
#
# Youngs Moduli (GPa) = 123.88527 32.02453 49.99565
#
# Poissons Ratio (x) = 0.14573 0.08109
# Poissons Ratio (y) = 0.56375 0.72913
# Poissons Ratio (z) = 0.20094 0.46704
#
# Static dielectric constant tensor:
#      x y z
#    x 1.979610 0.000000 0.000000 
#    y 0.000000 1.885070 0.000000 
#    z 0.000000 0.000000 1.749260 
# 
# From -- ./inp_files/7081.got.cif
#   From: 2010.05.17/outbox.cif.g08.bks.cpg/sg43_4_cif.got.tgz:7081.got - 2010.06.03 19:21:55.
