data_PCOD9372264
_publ_section_title
;
Structure prediction by ZEFSAII (Michael W. Deem and Ramdas Pophale) SiO2 
 PCOD9372264
Probable space group: F D D 2
;
_chemical_formula_sum "Si O2"
_cell_formula_units_Z 72
_cell_length_a 21.881061
_cell_length_b 26.059368
_cell_length_c 5.040108
_cell_angle_alpha 90.000000
_cell_angle_beta 90.000000
_cell_angle_gamma 90.000000
_cell_volume 2873.902951
_symmetry_space_group_name_H-M "F D D 2"
_symmetry_group_IT_number 43
_symmetry_cell_setting 'orthorhombic'
loop_
_space_group_symop_operation_xyz
x,y,z
-x,-y,z
1/4-x,1/4+y,1/4+z
1/4+x,1/4-y,1/4+z
x,1/2+y,1/2+z
-x,1/2-y,1/2+z
1/4-x,3/4+y,3/4+z
1/4+x,3/4-y,3/4+z
1/2+x,y,1/2+z
1/2-x,-y,1/2+z
3/4-x,1/4+y,3/4+z
3/4+x,1/4-y,3/4+z
1/2+x,1/2+y,z
1/2-x,1/2-y,z
3/4-x,3/4+y,1/4+z
3/4+x,3/4-y,1/4+z
loop_
_atom_site_type_symbol
_atom_site_label
_atom_site_fract_x
_atom_site_fract_y
_atom_site_fract_z
Si Si1 0.806713 0.641726 0.852700
Si Si2 0.766542 0.885785 0.317934
Si Si3 0.500000 0.000000 0.034514
Si Si4 0.901641 0.562329 0.688290
Si Si5 0.211353 0.509185 0.608850
O O1 0.762338 0.624212 0.607618
O O2 0.792806 0.702454 0.896864
O O3 0.872757 0.616130 0.794728
O O4 0.790157 0.612110 0.120583
O O5 0.804399 0.836330 0.218193
O O6 0.802859 0.937020 0.248084
O O7 0.447685 0.030069 0.869027
O O8 0.847183 0.526662 0.598682
O O9 0.239524 0.514030 0.316992
#
# Coordination Sequence:
#
# PCOD9372264 Si02
#       5
#    16  16   8  16  16
#     4  11  24  46  70  99 150 185 240 303 358 430
#     4  11  24  44  69 105 139 190 243 292 366 432
#     4  10  26  46  72 114 138 198 246 296 376 434
#     4  11  24  46  75 105 150 189 240 312 358 450
#     4  12  23  44  74 104 140 190 242 293 370 434
#
# _framework density 25.053038999999998
#
# number of rings (size 3 to 8) (size 9 to 14) (size 15 to 20)
#    0.000    0.889    4.444    1.333    0.000   10.667 
#    0.000   11.111    0.000    0.000    0.000    0.000 
#    0.000    0.000    0.000    0.000    0.000    0.000 
#
# Total GULP energy -100338.919400 kJ/mol
# GULP energy per Si atom -5574.384411 kJ/mol
# Density = 2.499602 g / cm^3
# Si number density = 25.053039 Si / 1000 Ang^3
#
#
#
# Elastic Constant Matrix: (Units=GPa)
#
#
# Indices 1 2 3 4 5 6 
#
# 1 96.5159 30.1390 -0.4522 0.0480 -0.0511 -0.0611
# 2 30.1390 154.2678 13.2132 0.1440 -0.1191 -0.1163
# 3 -0.4522 13.2132 68.4384 0.1279 -0.0911 -0.0797
# 4 0.0480 0.1440 0.1279 6.9396 -0.0641 -0.0439
# 5 -0.0511 -0.1191 -0.0911 -0.0641 25.9316 0.0358
# 6 -0.0611 -0.1163 -0.0797 -0.0439 0.0358 69.4660
#
#
#
# Elastic Compliance Matrix: (Units=1/GPa)
#
#
# Indices 1 2 3 4 5 6 
#
# 1 0.011051 -0.002202 0.000498 -0.000040 0.000013 0.000007
# 2 -0.002202 0.007030 -0.001372 -0.000105 0.000023 0.000008
# 3 0.000498 -0.001372 0.014880 -0.000249 0.000046 0.000015
# 4 -0.000040 -0.000105 -0.000249 0.144112 0.000355 0.000090
# 5 0.000013 0.000023 0.000046 0.000355 0.038564 -0.000020
# 6 0.000007 0.000008 0.000015 0.000090 -0.000020 0.014396
#
#
# Mechanical properties :
#
#
# Convention : Reuss Voigt Hill
#
# Bulk Modulus (GPa) = 37.29792 45.00245 41.15019
# Shear Modulus (GPa) = 20.39822 38.88892 29.64357
#
# Velocity S-wave (km/s) = 2.85652 3.94415 3.44355
# Velocity P-wave (km/s) = 5.07932 6.22444 5.68081
#
# Compressibility (1/GPa) = 0.02681114
#
# Stress axis : x y z
#
# Youngs Moduli (GPa) = 90.49079 142.24844 67.20284
#
# Poissons Ratio (x) = 0.31317 -0.03348
# Poissons Ratio (y) = 0.19922 0.09217
# Poissons Ratio (z) = -0.04508 0.19510
#
# Static dielectric constant tensor:
#      x y z
#    x 2.057970 0.000070 0.000040 
#    y 0.000070 2.099760 -0.000030 
#    z 0.000040 -0.000030 1.905900 
# 
# From -- ./inp_files/725.got.cif
#   From: 2010.05.17/outbox.cif.g08.bks.cpg/sg43_1_cif.got.tgz:725.got - 2010.06.03 19:21:55.
