data_PCOD9372279
_publ_section_title
;
Structure prediction by ZEFSAII (Michael W. Deem and Ramdas Pophale) SiO2 
 PCOD9372279
Probable space group: F D D 2
;
_chemical_formula_sum "Si O2"
_cell_formula_units_Z 96
_cell_length_a 24.564854
_cell_length_b 8.645116
_cell_length_c 18.930461
_cell_angle_alpha 90.000000
_cell_angle_beta 90.000000
_cell_angle_gamma 90.000000
_cell_volume 4020.186515
_symmetry_space_group_name_H-M "F D D 2"
_symmetry_group_IT_number 43
_symmetry_cell_setting 'orthorhombic'
loop_
_space_group_symop_operation_xyz
x,y,z
-x,-y,z
1/4-x,1/4+y,1/4+z
1/4+x,1/4-y,1/4+z
x,1/2+y,1/2+z
-x,1/2-y,1/2+z
1/4-x,3/4+y,3/4+z
1/4+x,3/4-y,3/4+z
1/2+x,y,1/2+z
1/2-x,-y,1/2+z
3/4-x,1/4+y,3/4+z
3/4+x,1/4-y,3/4+z
1/2+x,1/2+y,z
1/2-x,1/2-y,z
3/4-x,3/4+y,1/4+z
3/4+x,3/4-y,1/4+z
loop_
_atom_site_type_symbol
_atom_site_label
_atom_site_fract_x
_atom_site_fract_y
_atom_site_fract_z
Si Si1 0.513061 0.256608 0.784530
Si Si2 0.663438 0.206838 0.001077
Si Si3 0.270558 0.922522 0.323369
Si Si4 0.403981 0.580129 0.682393
Si Si5 0.835745 0.985332 0.378879
Si Si6 0.777442 0.598229 0.188999
O O1 0.452692 0.191201 0.765650
O O2 0.548627 0.381296 0.739703
O O3 0.501757 0.313632 0.864336
O O4 0.550177 0.105878 0.768463
O O5 0.613616 0.229928 0.053861
O O6 0.644224 0.164394 0.921924
O O7 0.250000 0.750000 0.336688
O O8 0.328000 0.922484 0.361656
O O9 0.228391 0.031705 0.364065
O O10 0.269541 0.956029 0.241544
O O11 0.402690 0.396216 0.669465
O O12 0.341975 0.628161 0.692929
O O13 0.750000 0.750000 0.220234
#
# Coordination Sequence:
#
# PCOD9372279 Si02
#       6
#    16  16  16  16  16  16
#     4  11  27  48  71 110 154 202 255 320 400 470
#     4  11  26  46  76 110 149 200 260 319 399 469
#     4  10  26  48  71 104 151 200 261 317 388 473
#     4  11  26  49  76 104 154 204 263 321 397 475
#     4  11  25  46  78 111 146 207 254 324 386 481
#     4  12  30  45  75 116 151 203 260 332 395 485
#
# _framework density 23.879489
#
# number of rings (size 3 to 8) (size 9 to 14) (size 15 to 20)
#    0.000    1.000    3.333    0.000   16.333    1.333 
#    0.000    0.000    0.000    0.000    0.000    0.000 
#    0.000    0.000    0.000    0.000    0.000    0.000 
#
# Total GULP energy -133989.518646 kJ/mol
# GULP energy per Si atom -5582.896610 kJ/mol
# Density = 2.382514 g / cm^3
# Si number density = 23.879489 Si / 1000 Ang^3
#
#
#
# Elastic Constant Matrix: (Units=GPa)
#
#
# Indices 1 2 3 4 5 6 
#
# 1 102.6356 20.9254 15.9222 0.0000 0.0000 0.0000
# 2 20.9254 48.4191 25.5731 0.0000 0.0000 0.0000
# 3 15.9222 25.5731 113.0378 0.0000 0.0000 0.0000
# 4 0.0000 0.0000 0.0000 37.0930 0.0000 0.0000
# 5 0.0000 0.0000 0.0000 0.0000 17.6030 0.0000
# 6 0.0000 0.0000 0.0000 0.0000 0.0000 22.2063
#
#
#
# Elastic Compliance Matrix: (Units=1/GPa)
#
#
# Indices 1 2 3 4 5 6 
#
# 1 0.010712 -0.004353 -0.000524 0.000000 0.000000 0.000000
# 2 -0.004353 0.025224 -0.005094 0.000000 0.000000 0.000000
# 3 -0.000524 -0.005094 0.010073 0.000000 0.000000 0.000000
# 4 0.000000 0.000000 0.000000 0.026959 0.000000 0.000000
# 5 0.000000 0.000000 0.000000 0.000000 0.056808 0.000000
# 6 0.000000 0.000000 0.000000 0.000000 0.000000 0.045032
#
#
# Mechanical properties :
#
#
# Convention : Reuss Voigt Hill
#
# Bulk Modulus (GPa) = 38.36051 43.21488 40.78769
# Shear Modulus (GPa) = 24.57742 28.82526 26.70134
#
# Velocity S-wave (km/s) = 3.21164 3.47812 3.34753
# Velocity P-wave (km/s) = 5.46369 5.85373 5.66207
#
# Compressibility (1/GPa) = 0.02606848
#
# Stress axis : x y z
#
# Youngs Moduli (GPa) = 93.35398 39.64442 99.27763
#
# Poissons Ratio (x) = 0.17255 0.05204
# Poissons Ratio (y) = 0.40633 0.50567
# Poissons Ratio (z) = 0.04893 0.20193
#
# Static dielectric constant tensor:
#      x y z
#    x 1.921330 0.000000 0.000000 
#    y 0.000000 1.888530 0.000000 
#    z 0.000000 0.000000 2.006720 
# 
# From -- ./inp_files/22619.got.cif
#   From: 2010.05.17/outbox.cif.g08.bks.cpg/sg43_12_cif.got.tgz:22619.got - 2010.06.03 19:21:55.
