data_PCOD9372754
_publ_section_title
;
Structure prediction by ZEFSAII (Michael W. Deem and Ramdas Pophale) SiO2 
 PCOD9372754
Probable space group: F D D 2
;
_chemical_formula_sum "Si O2"
_cell_formula_units_Z 80
_cell_length_a 6.413569
_cell_length_b 19.174819
_cell_length_c 22.315436
_cell_angle_alpha 90.000000
_cell_angle_beta 90.000000
_cell_angle_gamma 90.000000
_cell_volume 2744.330555
_symmetry_space_group_name_H-M "F D D 2"
_symmetry_group_IT_number 43
_symmetry_cell_setting 'orthorhombic'
loop_
_space_group_symop_operation_xyz
x,y,z
-x,-y,z
1/4-x,1/4+y,1/4+z
1/4+x,1/4-y,1/4+z
x,1/2+y,1/2+z
-x,1/2-y,1/2+z
1/4-x,3/4+y,3/4+z
1/4+x,3/4-y,3/4+z
1/2+x,y,1/2+z
1/2-x,-y,1/2+z
3/4-x,1/4+y,3/4+z
3/4+x,1/4-y,3/4+z
1/2+x,1/2+y,z
1/2-x,1/2-y,z
3/4-x,3/4+y,1/4+z
3/4+x,3/4-y,1/4+z
loop_
_atom_site_type_symbol
_atom_site_label
_atom_site_fract_x
_atom_site_fract_y
_atom_site_fract_z
Si Si1 0.657380 0.091159 0.325070
Si Si2 0.250000 0.250000 0.440135
Si Si3 0.000000 0.000000 0.389535
Si Si4 0.523296 0.786775 0.854511
Si Si5 0.687301 0.385455 0.926563
Si Si6 0.750000 0.750000 0.969664
Si Si7 0.250000 0.250000 0.254420
O O1 0.455809 0.101165 0.365699
O O2 0.811952 0.032158 0.350966
O O3 0.799587 0.160584 0.336923
O O4 0.573989 0.062969 0.260831
O O5 0.563634 0.245079 0.419063
O O6 0.288413 0.180830 0.478624
O O7 0.106177 0.063329 0.426000
O O8 0.309707 0.813279 0.886047
O O9 0.451555 0.746281 0.797328
O O10 0.523671 0.431131 0.967661
#
# Coordination Sequence:
#
# PCOD9372754 Si02
#       7
#    16   8   8  16  16   8   8
#     4  12  26  54  91 128 179 245 312 374 465 552
#     4  11  26  51  83 130 189 222 309 377 468 539
#     4  12  22  49  88 132 178 234 319 368 460 542
#     4  11  28  53  78 133 185 237 296 382 457 542
#     4  12  25  54  91 140 175 252 309 377 469 559
#     4  12  27  55  85 134 183 244 304 386 456 566
#     4  11  27  55  86 132 188 242 318 377 458 571
#
# _framework density 29.151008000000001
#
# number of rings (size 3 to 8) (size 9 to 14) (size 15 to 20)
#    0.000    0.400    6.000    1.200    2.800    2.400 
#   25.200    0.000    0.000    0.000    0.000    0.000 
#    0.000    0.000    0.000    0.000    0.000    0.000 
#
# Total GULP energy -111414.031508 kJ/mol
# GULP energy per Si atom -5570.701575 kJ/mol
# Density = 2.908466 g / cm^3
# Si number density = 29.151008 Si / 1000 Ang^3
#
#
#
# Elastic Constant Matrix: (Units=GPa)
#
#
# Indices 1 2 3 4 5 6 
#
# 1 189.0508 89.2277 76.7941 0.0000 0.0000 0.0000
# 2 89.2277 218.9299 88.1673 0.0000 0.0000 0.0000
# 3 76.7941 88.1673 186.6755 0.0000 0.0000 0.0000
# 4 0.0000 0.0000 0.0000 -7.9651 0.0000 0.0000
# 5 0.0000 0.0000 0.0000 0.0000 63.7292 0.0000
# 6 0.0000 0.0000 0.0000 0.0000 0.0000 106.1233
#
#
#
# Elastic Compliance Matrix: (Units=1/GPa)
#
#
# Indices 1 2 3 4 5 6 
#
# 1 0.007060 -0.002109 -0.001908 0.000000 0.000000 0.000000
# 2 -0.002109 0.006270 -0.002094 0.000000 0.000000 0.000000
# 3 -0.001908 -0.002094 0.007131 0.000000 0.000000 0.000000
# 4 0.000000 0.000000 0.000000 -0.125547 0.000000 0.000000
# 5 0.000000 0.000000 0.000000 0.000000 0.015691 0.000000
# 6 0.000000 0.000000 0.000000 0.000000 0.000000 0.009423
#
#
# Mechanical properties :
#
#
# Convention : Reuss Voigt Hill
#
# Bulk Modulus (GPa) = 121.37337 122.55938 121.96638
# Shear Modulus (GPa) = -76.92022 55.07527 -10.92248
#
# Velocity S-wave (km/s) = -5.14238 4.35133 -1.93778
# Velocity P-wave (km/s) = 2.54316 8.20851 6.07649
#
# Compressibility (1/GPa) = 0.00823904
#
# Stress axis : x y z
#
# Youngs Moduli (GPa) = 141.64046 159.47725 140.23402
#
# Poissons Ratio (x) = 0.33633 0.26761
# Poissons Ratio (y) = 0.29871 0.29365
# Poissons Ratio (z) = 0.27030 0.33395
#
# Static dielectric constant tensor:
#      x y z
#    x 1.816730 0.000000 0.000000 
#    y 0.000000 2.365680 0.000000 
#    z 0.000000 0.000000 2.252850 
# 
# From -- ./inp_files/23586.got.cif
#   From: 2010.05.17/outbox.cif.g08.bks.cpg/sg43_12_cif.got.tgz:23586.got - 2010.06.03 19:21:55.
