data_PCOD9372960
_publ_section_title
;
Structure prediction by ZEFSAII (Michael W. Deem and Ramdas Pophale) SiO2 
 PCOD9372960
Probable space group: F D D 2
;
_chemical_formula_sum "Si O2"
_cell_formula_units_Z 30
_cell_length_a 12.000000
_cell_length_b 18.000000
_cell_length_c 27.000000
_cell_angle_alpha 90.000000
_cell_angle_beta 90.000000
_cell_angle_gamma 90.000000
_cell_volume 5832.000000
_symmetry_space_group_name_H-M "F D D 2"
_symmetry_group_IT_number 43
_symmetry_cell_setting 'orthorhombic'
loop_
_space_group_symop_operation_xyz
x,y,z
-x,-y,z
1/4-x,1/4+y,1/4+z
1/4+x,1/4-y,1/4+z
x,1/2+y,1/2+z
-x,1/2-y,1/2+z
1/4-x,3/4+y,3/4+z
1/4+x,3/4-y,3/4+z
1/2+x,y,1/2+z
1/2-x,-y,1/2+z
3/4-x,1/4+y,3/4+z
3/4+x,1/4-y,3/4+z
1/2+x,1/2+y,z
1/2-x,1/2-y,z
3/4-x,3/4+y,1/4+z
3/4+x,3/4-y,1/4+z
loop_
_atom_site_type_symbol
_atom_site_label
_atom_site_fract_x
_atom_site_fract_y
_atom_site_fract_z
Si Si1 0.516839 0.707668 0.692560
Si Si2 0.122077 0.416552 0.039984
Si Si3 0.674562 0.179389 0.580110
Si Si4 0.872822 0.980829 0.633938
Si Si5 0.648996 0.887655 0.441296
Si Si6 0.000000 0.500000 0.755124
Si Si7 0.418596 0.835123 0.472117
Si Si8 0.910607 0.831023 0.585596
O O1 0.615510 0.691263 0.732687
O O2 0.462427 0.786744 0.705730
O O3 0.431562 0.638496 0.701950
O O4 0.542423 0.714043 0.633429
O O5 0.230711 0.370410 0.054824
O O6 0.134514 0.481607 0.080108
O O7 0.011848 0.371072 0.055852
O O8 0.750000 0.250000 0.596700
O O9 0.620695 0.143051 0.630323
O O10 0.599084 0.191978 0.529618
O O11 0.849825 0.895901 0.618782
O O12 0.812715 0.018313 0.681458
O O13 0.000000 0.000000 0.648623
O O14 0.707775 0.815956 0.467768
O O15 0.527512 0.885411 0.466279
O O16 0.089064 0.463459 0.794573
#
# Coordination Sequence:
#
# PCOD9372960 Si02
#       8
#    16  16  16  16  16   8  16  16
#     4  11  23  43  74 110 135 183 241 300 370 434
#     4  10  21  40  69 107 134 180 236 299 358 424
#     4  11  23  39  74 110 139 185 240 299 372 432
#     4  10  18  39  68 103 140 173 231 299 358 418
#     4  12  26  49  65 101 153 193 239 296 368 455
#     4  12  32  52  64  98 150 216 246 296 380 442
#     4  11  22  41  75 114 145 179 232 311 375 433
#     4  11  24  48  71  99 144 187 252 310 355 438
#
# _framework density 5.1440330000000003
#
# number of rings (size 3 to 8) (size 9 to 14) (size 15 to 20)
#    0.000    1.067    4.000    3.200    5.600    0.000 
#   13.200    0.000    0.000    0.000    0.000    0.000 
#    0.000    0.000    0.000    0.000    0.000    0.000 
#
# Total GULP energy -167101.872328 kJ/mol
# GULP energy per Si atom -5570.062411 kJ/mol
# Density = 0.513232 g / cm^3
# Si number density = 5.144033 Si / 1000 Ang^3
#
#
#
# Elastic Constant Matrix: (Units=GPa)
#
#
# Indices 1 2 3 4 5 6 
#
# 1 62.2093 33.2066 54.5271 0.0000 0.0000 0.0000
# 2 33.2066 115.1279 50.7330 0.0000 0.0000 0.0000
# 3 54.5271 50.7330 187.7354 0.0000 0.0000 0.0000
# 4 0.0000 0.0000 0.0000 34.9361 0.0000 0.0000
# 5 0.0000 0.0000 0.0000 0.0000 37.9355 0.0000
# 6 0.0000 0.0000 0.0000 0.0000 0.0000 28.8741
#
#
#
# Elastic Compliance Matrix: (Units=1/GPa)
#
#
# Indices 1 2 3 4 5 6 
#
# 1 0.023252 -0.004235 -0.005609 0.000000 0.000000 0.000000
# 2 -0.004235 0.010631 -0.001643 0.000000 0.000000 0.000000
# 3 -0.005609 -0.001643 0.007400 0.000000 0.000000 0.000000
# 4 0.000000 0.000000 0.000000 0.028624 0.000000 0.000000
# 5 0.000000 0.000000 0.000000 0.000000 0.026361 0.000000
# 6 0.000000 0.000000 0.000000 0.000000 0.000000 0.034633
#
#
# Mechanical properties :
#
#
# Convention : Reuss Voigt Hill
#
# Bulk Modulus (GPa) = 54.61730 71.33400 62.97565
# Shear Modulus (GPa) = 31.25454 35.45621 33.35538
#
# Velocity S-wave (km/s) = 3.90163 4.15561 4.03062
# Velocity P-wave (km/s) = 6.84825 7.60060 7.23421
#
# Compressibility (1/GPa) = 0.01830922
#
# Stress axis : x y z
#
# Youngs Moduli (GPa) = 43.00781 94.06022 135.13976
#
# Poissons Ratio (x) = 0.39833 0.75799
# Poissons Ratio (y) = 0.18213 0.22204
# Poissons Ratio (z) = 0.24123 0.15454
#
# Static dielectric constant tensor:
#      x y z
#    x 1.818990 0.000000 0.000000 
#    y 0.000000 1.887420 0.000000 
#    z 0.000000 0.000000 1.741690 
# 
# From -- ./inp_files/22136.got.cif
#   From: 2010.05.17/outbox.ucp.g08.bks.cvg/sg43_12_cif.got.tgz:22136.got - 2010.06.11 16:31:01.
