data_PCOD9372131
_publ_section_title
;
Structure prediction by ZEFSAII (Michael W. Deem and Ramdas Pophale) SiO2 
 PCOD9372131
Probable space group: F D D 2
;
_chemical_formula_sum "Si O2"
_cell_formula_units_Z 88
_cell_length_a 8.136504
_cell_length_b 21.566543
_cell_length_c 19.014727
_cell_angle_alpha 90.000000
_cell_angle_beta 90.000000
_cell_angle_gamma 90.000000
_cell_volume 3336.633243
_symmetry_space_group_name_H-M "F D D 2"
_symmetry_group_IT_number 43
_symmetry_cell_setting 'orthorhombic'
loop_
_space_group_symop_operation_xyz
x,y,z
-x,-y,z
1/4-x,1/4+y,1/4+z
1/4+x,1/4-y,1/4+z
x,1/2+y,1/2+z
-x,1/2-y,1/2+z
1/4-x,3/4+y,3/4+z
1/4+x,3/4-y,3/4+z
1/2+x,y,1/2+z
1/2-x,-y,1/2+z
3/4-x,1/4+y,3/4+z
3/4+x,1/4-y,3/4+z
1/2+x,1/2+y,z
1/2-x,1/2-y,z
3/4-x,3/4+y,1/4+z
3/4+x,3/4-y,1/4+z
loop_
_atom_site_type_symbol
_atom_site_label
_atom_site_fract_x
_atom_site_fract_y
_atom_site_fract_z
Si Si1 0.412232 0.368822 0.977910
Si Si2 0.500000 0.000000 0.828477
Si Si3 0.325954 0.526668 0.832327
Si Si4 0.981890 0.795562 0.238094
Si Si5 0.302611 0.998092 0.640021
Si Si6 0.960191 0.613161 0.934858
O O1 0.461616 0.311265 0.925569
O O2 0.228439 0.388843 0.959142
O O3 0.408833 0.347032 0.059561
O O4 0.564209 0.415530 0.979652
O O5 0.328582 0.998409 0.788743
O O6 0.509835 0.934969 0.870576
O O7 0.500000 0.500000 0.814028
O O8 0.276265 0.512817 0.911758
O O9 0.979178 0.751551 0.305209
O O10 0.146683 0.838146 0.237793
O O11 0.240021 0.066192 0.663334
O O12 0.500000 0.000000 0.649043
#
# Coordination Sequence:
#
# PCOD9372131 Si02
#       6
#    16   8  16  16  16  16
#     4  12  27  47  80 116 160 210 270 342 414 491
#     4  10  24  46  74 104 150 208 262 324 400 478
#     4  11  24  45  72 103 147 206 255 320 398 470
#     4  11  25  49  74 112 159 208 265 332 408 487
#     4  12  26  49  81 117 167 216 273 342 426 504
#     4  11  25  50  73 117 156 212 270 342 405 487
#
# _framework density 26.373891
#
# number of rings (size 3 to 8) (size 9 to 14) (size 15 to 20)
#    0.000    0.727    1.818    5.455    1.273    7.273 
#   16.364    0.000    0.000    0.000    0.000    0.000 
#    0.000    0.000    0.000    0.000    0.000    0.000 
#
# Total GULP energy -123058.311980 kJ/mol
# GULP energy per Si atom -5593.559635 kJ/mol
# Density = 2.631386 g / cm^3
# Si number density = 26.373891 Si / 1000 Ang^3
#
#
#
# Elastic Constant Matrix: (Units=GPa)
#
#
# Indices 1 2 3 4 5 6 
#
# 1 275.1098 56.6426 37.7153 0.0000 0.0000 0.0000
# 2 56.6426 109.3596 40.3507 0.0000 0.0000 0.0000
# 3 37.7153 40.3507 106.7044 0.0000 0.0000 0.0000
# 4 0.0000 0.0000 0.0000 147.1399 0.0000 0.0000
# 5 0.0000 0.0000 0.0000 0.0000 6.8461 0.0000
# 6 0.0000 0.0000 0.0000 0.0000 0.0000 42.8109
#
#
#
# Elastic Compliance Matrix: (Units=1/GPa)
#
#
# Indices 1 2 3 4 5 6 
#
# 1 0.004120 -0.001856 -0.000755 0.000000 0.000000 0.000000
# 2 -0.001856 0.011463 -0.003679 0.000000 0.000000 0.000000
# 3 -0.000755 -0.003679 0.011030 0.000000 0.000000 0.000000
# 4 0.000000 0.000000 0.000000 0.006796 0.000000 0.000000
# 5 0.000000 0.000000 0.000000 0.000000 0.146069 0.000000
# 6 0.000000 0.000000 0.000000 0.000000 0.000000 0.023359
#
#
# Mechanical properties :
#
#
# Convention : Reuss Voigt Hill
#
# Bulk Modulus (GPa) = 71.25328 84.51010 77.88169
# Shear Modulus (GPa) = 22.71766 63.12374 42.92070
#
# Velocity S-wave (km/s) = 2.93809 4.89756 4.03847
# Velocity P-wave (km/s) = 6.21169 8.00588 7.16517
#
# Compressibility (1/GPa) = 0.01403444
#
# Stress axis : x y z
#
# Youngs Moduli (GPa) = 242.69217 87.23978 90.66559
#
# Poissons Ratio (x) = 0.16189 0.06842
# Poissons Ratio (y) = 0.45037 0.33353
# Poissons Ratio (z) = 0.18315 0.32093
#
# Static dielectric constant tensor:
#      x y z
#    x 2.268680 0.000000 0.000000 
#    y 0.000000 2.039900 0.000000 
#    z 0.000000 0.000000 2.137770 
# 
# From -- ./inp_files/16375.got.cif
#   From: 2010.05.17/outbox.cif.g08.bks.cpg/sg43_9_cif.got.tgz:16375.got - 2010.06.03 19:21:55.
