data_PCOD9372880
_publ_section_title
;
Structure prediction by ZEFSAII (Michael W. Deem and Ramdas Pophale) SiO2 
 PCOD9372880
Probable space group: F D D 2
;
_chemical_formula_sum "Si O2"
_cell_formula_units_Z 64
_cell_length_a 24.203899
_cell_length_b 5.438206
_cell_length_c 20.004336
_cell_angle_alpha 90.000000
_cell_angle_beta 90.000000
_cell_angle_gamma 90.000000
_cell_volume 2633.086505
_symmetry_space_group_name_H-M "F D D 2"
_symmetry_group_IT_number 43
_symmetry_cell_setting 'orthorhombic'
loop_
_space_group_symop_operation_xyz
x,y,z
-x,-y,z
1/4-x,1/4+y,1/4+z
1/4+x,1/4-y,1/4+z
x,1/2+y,1/2+z
-x,1/2-y,1/2+z
1/4-x,3/4+y,3/4+z
1/4+x,3/4-y,3/4+z
1/2+x,y,1/2+z
1/2-x,-y,1/2+z
3/4-x,1/4+y,3/4+z
3/4+x,1/4-y,3/4+z
1/2+x,1/2+y,z
1/2-x,1/2-y,z
3/4-x,3/4+y,1/4+z
3/4+x,3/4-y,1/4+z
loop_
_atom_site_type_symbol
_atom_site_label
_atom_site_fract_x
_atom_site_fract_y
_atom_site_fract_z
Si Si1 0.000000 0.000000 0.797101
Si Si2 0.250000 0.750000 0.969748
Si Si3 0.612146 0.015158 0.647969
Si Si4 0.815143 0.174252 0.757998
Si Si5 0.193007 0.609297 0.135114
O O1 0.951921 0.893963 0.845135
O O2 0.016019 0.759058 0.755530
O O3 0.194643 0.678261 0.931574
O O4 0.589883 0.142782 0.580066
O O5 0.644154 0.785110 0.615519
O O6 0.648758 0.144294 0.707552
O O7 0.750000 0.250000 0.763217
O O8 0.814796 0.933169 0.712848
O O9 0.250000 0.750000 0.125032
#
# Coordination Sequence:
#
# PCOD9372880 Si02
#       5
#     8   8  16  16  16
#     4  12  26  53  80 121 170 226 286 348 444 512
#     4  12  30  51  84 129 174 226 288 360 434 532
#     4  12  29  52  83 125 171 226 290 359 435 530
#     4  12  27  53  80 123 171 222 284 358 434 518
#     4  12  25  50  84 117 169 228 285 351 438 517
#
# _framework density 24.306077999999999
#
# number of rings (size 3 to 8) (size 9 to 14) (size 15 to 20)
#    0.000    0.000    6.250    1.500    7.000    2.000 
#    2.250    0.000    0.000    0.000    0.000    0.000 
#    0.000    0.000    0.000    0.000    0.000    0.000 
#
# Total GULP energy -89232.055457 kJ/mol
# GULP energy per Si atom -5577.003466 kJ/mol
# Density = 2.425076 g / cm^3
# Si number density = 24.306078 Si / 1000 Ang^3
#
#
#
# Elastic Constant Matrix: (Units=GPa)
#
#
# Indices 1 2 3 4 5 6 
#
# 1 164.8280 32.8894 43.9785 0.0000 -0.0002 -0.0001
# 2 32.8894 94.1242 32.2136 0.0015 -0.0008 0.0029
# 3 43.9785 32.2136 101.0655 0.0003 0.0000 0.0002
# 4 0.0000 0.0015 0.0003 39.1353 -0.0002 0.0012
# 5 -0.0002 -0.0008 0.0000 -0.0002 23.2298 0.0004
# 6 -0.0001 0.0029 0.0002 0.0012 0.0004 27.8140
#
#
#
# Elastic Compliance Matrix: (Units=1/GPa)
#
#
# Indices 1 2 3 4 5 6 
#
# 1 0.007070 -0.001591 -0.002569 0.000000 0.000000 0.000000
# 2 -0.001591 0.012283 -0.003223 0.000000 0.000000 -0.000001
# 3 -0.002569 -0.003223 0.012040 0.000000 0.000000 0.000000
# 4 0.000000 0.000000 0.000000 0.025552 0.000000 -0.000001
# 5 0.000000 0.000000 0.000000 0.000000 0.043048 -0.000001
# 6 0.000000 -0.000001 0.000000 -0.000001 -0.000001 0.035953
#
#
# Mechanical properties :
#
#
# Convention : Reuss Voigt Hill
#
# Bulk Modulus (GPa) = 60.14460 64.24228 62.19344
# Shear Modulus (GPa) = 31.99893 34.76491 33.38192
#
# Velocity S-wave (km/s) = 3.63230 3.78603 3.70996
# Velocity P-wave (km/s) = 6.51075 6.75277 6.63286
#
# Compressibility (1/GPa) = 0.01662660
#
# Stress axis : x y z
#
# Youngs Moduli (GPa) = 141.44382 81.41193 83.05749
#
# Poissons Ratio (x) = 0.12953 0.21340
# Poissons Ratio (y) = 0.22505 0.26768
# Poissons Ratio (z) = 0.36342 0.26237
#
# Static dielectric constant tensor:
#      x y z
#    x 2.074890 0.000000 0.000000 
#    y 0.000000 2.181810 0.000000 
#    z 0.000000 0.000000 1.976460 
# 
# From -- ./inp_files/15592.got.cif
#   From: 2010.05.17/outbox.cif.g08.bks.cpg/sg43_8_cif.got.tgz:15592.got - 2010.06.03 19:21:55.
