data_PCOD9372669
_publ_section_title
;
Structure prediction by ZEFSAII (Michael W. Deem and Ramdas Pophale) SiO2 
 PCOD9372669
Probable space group: F D D 2
;
_chemical_formula_sum "Si O2"
_cell_formula_units_Z 120
_cell_length_a 9.451001
_cell_length_b 23.060793
_cell_length_c 24.012375
_cell_angle_alpha 90.000000
_cell_angle_beta 90.000000
_cell_angle_gamma 90.000000
_cell_volume 5233.438966
_symmetry_space_group_name_H-M "F D D 2"
_symmetry_group_IT_number 43
_symmetry_cell_setting 'orthorhombic'
loop_
_space_group_symop_operation_xyz
x,y,z
-x,-y,z
1/4-x,1/4+y,1/4+z
1/4+x,1/4-y,1/4+z
x,1/2+y,1/2+z
-x,1/2-y,1/2+z
1/4-x,3/4+y,3/4+z
1/4+x,3/4-y,3/4+z
1/2+x,y,1/2+z
1/2-x,-y,1/2+z
3/4-x,1/4+y,3/4+z
3/4+x,1/4-y,3/4+z
1/2+x,1/2+y,z
1/2-x,1/2-y,z
3/4-x,3/4+y,1/4+z
3/4+x,3/4-y,1/4+z
loop_
_atom_site_type_symbol
_atom_site_label
_atom_site_fract_x
_atom_site_fract_y
_atom_site_fract_z
Si Si1 0.879633 0.570332 0.383390
Si Si2 0.239358 0.518748 0.565159
Si Si3 0.500000 0.000000 0.482800
Si Si4 0.619601 0.045744 0.807343
Si Si5 0.820940 0.437953 0.678950
Si Si6 0.629419 0.356259 0.551960
Si Si7 0.502982 0.568631 0.684806
Si Si8 0.412032 0.643681 0.326865
O O1 0.763565 0.542141 0.342802
O O2 0.838813 0.635479 0.402875
O O3 0.906844 0.537853 0.440916
O O4 0.027585 0.574848 0.349315
O O5 0.109513 0.531067 0.523950
O O6 0.186339 0.515243 0.629331
O O7 0.338270 0.574999 0.559974
O O8 0.315762 0.458139 0.552508
O O9 0.641269 0.041349 0.740569
O O10 0.556438 0.109271 0.820022
O O11 0.500000 0.000000 0.825318
O O12 0.660725 0.413003 0.684062
O O13 0.687217 0.332053 0.494760
O O14 0.460651 0.353917 0.550217
O O15 0.500000 0.500000 0.673551
O O16 0.600646 0.598595 0.638963
#
# Coordination Sequence:
#
# PCOD9372669 Si02
#       8
#    16  16   8  16  16  16  16  16
#     4  11  26  47  75 106 150 200 250 308 376 472
#     4  11  25  46  76 108 147 195 265 310 380 459
#     4  12  28  44  78 106 152 202 250 306 388 458
#     4  12  31  48  72 114 159 194 255 331 403 448
#     4  11  24  47  77 104 148 199 258 309 373 473
#     4  11  25  43  77 108 149 195 252 306 383 460
#     4  12  23  44  77 112 146 197 256 308 381 477
#     4  12  26  47  73 113 149 194 249 328 388 452
#
# _framework density 22.929473000000002
#
# number of rings (size 3 to 8) (size 9 to 14) (size 15 to 20)
#    0.000    0.533    5.333    2.000   11.200    2.133 
#    0.000    0.000    0.000    0.000    0.000    0.000 
#    0.000    0.000    0.000    0.000    0.000    0.000 
#
# Total GULP energy -167804.392776 kJ/mol
# GULP energy per Si atom -5593.479759 kJ/mol
# Density = 2.287728 g / cm^3
# Si number density = 22.929473 Si / 1000 Ang^3
#
#
#
# Elastic Constant Matrix: (Units=GPa)
#
#
# Indices 1 2 3 4 5 6 
#
# 1 98.9074 20.5065 43.1360 0.0000 0.0000 0.0000
# 2 20.5065 48.6085 5.9876 0.0000 0.0000 0.0000
# 3 43.1360 5.9876 132.5632 0.0000 0.0000 0.0000
# 4 0.0000 0.0000 0.0000 25.6632 0.0000 0.0000
# 5 0.0000 0.0000 0.0000 0.0000 34.8469 0.0000
# 6 0.0000 0.0000 0.0000 0.0000 0.0000 37.0894
#
#
#
# Elastic Compliance Matrix: (Units=1/GPa)
#
#
# Indices 1 2 3 4 5 6 
#
# 1 0.012862 -0.004938 -0.003962 0.000000 0.000000 0.000000
# 2 -0.004938 0.022583 0.000587 0.000000 0.000000 0.000000
# 3 -0.003962 0.000587 0.008806 0.000000 0.000000 0.000000
# 4 0.000000 0.000000 0.000000 0.038966 0.000000 0.000000
# 5 0.000000 0.000000 0.000000 0.000000 0.028697 0.000000
# 6 0.000000 0.000000 0.000000 0.000000 0.000000 0.026962
#
#
# Mechanical properties :
#
#
# Convention : Reuss Voigt Hill
#
# Bulk Modulus (GPa) = 36.19925 46.59326 41.39626
# Shear Modulus (GPa) = 30.35581 33.54984 31.95282
#
# Velocity S-wave (km/s) = 3.64246 3.82930 3.73705
# Velocity P-wave (km/s) = 5.78891 6.31789 6.05918
#
# Compressibility (1/GPa) = 0.02762488
#
# Stress axis : x y z
#
# Youngs Moduli (GPa) = 77.74615 44.28012 113.55359
#
# Poissons Ratio (x) = 0.21866 0.44994
# Poissons Ratio (y) = 0.38392 -0.06664
# Poissons Ratio (z) = 0.30806 -0.02598
#
# Static dielectric constant tensor:
#      x y z
#    x 1.902590 0.000000 0.000000 
#    y 0.000000 1.933260 0.000000 
#    z 0.000000 0.000000 1.816620 
# 
# From -- ./inp_files/20429.got.cif
#   From: 2010.05.17/outbox.cif.g08.bks.cpg/sg43_11_cif.got.tgz:20429.got - 2010.06.03 19:21:55.
