data_PCOD9372902
_publ_section_title
;
Structure prediction by ZEFSAII (Michael W. Deem and Ramdas Pophale) SiO2 
 PCOD9372902
Probable space group: F D D 2
;
_chemical_formula_sum "Si O2"
_cell_formula_units_Z 56
_cell_length_a 18.545392
_cell_length_b 5.325827
_cell_length_c 19.949544
_cell_angle_alpha 90.000000
_cell_angle_beta 90.000000
_cell_angle_gamma 90.000000
_cell_volume 1970.407472
_symmetry_space_group_name_H-M "F D D 2"
_symmetry_group_IT_number 43
_symmetry_cell_setting 'orthorhombic'
loop_
_space_group_symop_operation_xyz
x,y,z
-x,-y,z
1/4-x,1/4+y,1/4+z
1/4+x,1/4-y,1/4+z
x,1/2+y,1/2+z
-x,1/2-y,1/2+z
1/4-x,3/4+y,3/4+z
1/4+x,3/4-y,3/4+z
1/2+x,y,1/2+z
1/2-x,-y,1/2+z
3/4-x,1/4+y,3/4+z
3/4+x,1/4-y,3/4+z
1/2+x,1/2+y,z
1/2-x,1/2-y,z
3/4-x,3/4+y,1/4+z
3/4+x,3/4-y,1/4+z
loop_
_atom_site_type_symbol
_atom_site_label
_atom_site_fract_x
_atom_site_fract_y
_atom_site_fract_z
Si Si1 0.094338 0.797750 0.157650
Si Si2 0.250000 0.750000 0.091408
Si Si3 0.728835 0.982898 0.285838
Si Si4 0.169933 0.564615 0.496530
O O1 0.033732 0.791530 0.098662
O O2 0.075867 0.541411 0.195638
O O3 0.093819 0.051172 0.204019
O O4 0.105384 0.176466 0.044241
O O5 0.173972 0.746685 0.128816
O O6 0.236462 0.985919 0.042626
O O7 0.750000 0.750000 0.237968
O O8 0.750000 0.250000 0.257621
#
# Coordination Sequence:
#
# PCOD9372902 Si02
#       4
#    16   8  16  16
#     4  12  31  52  86 124 174 225 282 351 436 501
#     4  12  32  52  86 134 162 224 300 344 414 540
#     4  12  26  54  83 120 174 222 280 352 419 514
#     4  12  31  54  86 127 171 226 284 352 433 503
#
# _framework density 28.420515999999999
#
# number of rings (size 3 to 8) (size 9 to 14) (size 15 to 20)
#    0.000    0.000    2.857    3.429   12.000    2.286 
#    0.000    0.000    0.000    0.000    0.000    0.000 
#    0.000    0.000    0.000    0.000    0.000    0.000 
#
# Total GULP energy -78285.715397 kJ/mol
# GULP energy per Si atom -5591.836814 kJ/mol
# Density = 2.835583 g / cm^3
# Si number density = 28.420516 Si / 1000 Ang^3
#
#
#
# Elastic Constant Matrix: (Units=GPa)
#
#
# Indices 1 2 3 4 5 6 
#
# 1 254.5962 79.6810 110.1074 0.0004 0.0001 -0.0003
# 2 79.6810 280.8903 76.4112 0.0053 0.0002 -0.0024
# 3 110.1074 76.4112 133.9174 0.0018 -0.0002 -0.0005
# 4 0.0004 0.0053 0.0018 37.2942 -0.0001 -0.0010
# 5 0.0001 0.0002 -0.0002 -0.0001 70.5551 0.0003
# 6 -0.0003 -0.0024 -0.0005 -0.0010 0.0003 64.6790
#
#
#
# Elastic Compliance Matrix: (Units=1/GPa)
#
#
# Indices 1 2 3 4 5 6 
#
# 1 0.006140 -0.000436 -0.004799 0.000000 0.000000 0.000000
# 2 -0.000436 0.004245 -0.002064 0.000000 0.000000 0.000000
# 3 -0.004799 -0.002064 0.012591 0.000000 0.000000 0.000000
# 4 0.000000 0.000000 0.000000 0.026814 0.000000 0.000000
# 5 0.000000 0.000000 0.000000 0.000000 0.014173 0.000000
# 6 0.000000 0.000000 0.000000 0.000000 0.000000 0.015461
#
#
# Mechanical properties :
#
#
# Convention : Reuss Voigt Hill
#
# Bulk Modulus (GPa) = 119.36606 133.53368 126.44987
# Shear Modulus (GPa) = 51.64485 61.38597 56.51541
#
# Velocity S-wave (km/s) = 4.26745 4.65253 4.46415
# Velocity P-wave (km/s) = 8.14694 8.71484 8.43567
#
# Compressibility (1/GPa) = 0.00837759
#
# Stress axis : x y z
#
# Youngs Moduli (GPa) = 162.86825 235.55964 79.42257
#
# Poissons Ratio (x) = 0.10274 0.38118
# Poissons Ratio (y) = 0.07103 0.16390
# Poissons Ratio (z) = 0.78167 0.48611
#
# Static dielectric constant tensor:
#      x y z
#    x 2.429020 0.000000 0.000000 
#    y 0.000000 2.401350 0.000000 
#    z 0.000000 0.000000 2.430880 
# 
# From -- ./inp_files/12139.got.cif
#   From: 2010.05.17/outbox.cif.g08.bks.cpg/sg43_7_cif.got.tgz:12139.got - 2010.06.03 19:21:55.
