data_PCOD9372038
_publ_section_title
;
Structure prediction by ZEFSAII (Michael W. Deem and Ramdas Pophale) SiO2 
 PCOD9372038
Probable space group: F D D 2
;
_chemical_formula_sum "Si O2"
_cell_formula_units_Z 72
_cell_length_a 22.329596
_cell_length_b 26.254679
_cell_length_c 4.723032
_cell_angle_alpha 90.000000
_cell_angle_beta 90.000000
_cell_angle_gamma 90.000000
_cell_volume 2768.907620
_symmetry_space_group_name_H-M "F D D 2"
_symmetry_group_IT_number 43
_symmetry_cell_setting 'orthorhombic'
loop_
_space_group_symop_operation_xyz
x,y,z
-x,-y,z
1/4-x,1/4+y,1/4+z
1/4+x,1/4-y,1/4+z
x,1/2+y,1/2+z
-x,1/2-y,1/2+z
1/4-x,3/4+y,3/4+z
1/4+x,3/4-y,3/4+z
1/2+x,y,1/2+z
1/2-x,-y,1/2+z
3/4-x,1/4+y,3/4+z
3/4+x,1/4-y,3/4+z
1/2+x,1/2+y,z
1/2-x,1/2-y,z
3/4-x,3/4+y,1/4+z
3/4+x,3/4-y,1/4+z
loop_
_atom_site_type_symbol
_atom_site_label
_atom_site_fract_x
_atom_site_fract_y
_atom_site_fract_z
Si Si1 0.636281 0.703923 0.113680
Si Si2 0.654462 0.813098 0.264781
Si Si3 0.500000 0.000000 0.237258
Si Si4 0.096740 0.858262 0.233518
Si Si5 0.744513 0.964070 0.220516
O O1 0.624575 0.757412 0.272922
O O2 0.688615 0.721507 0.891233
O O3 0.657080 0.663515 0.345813
O O4 0.571979 0.690363 0.987480
O O5 0.719433 0.796999 0.156055
O O6 0.655324 0.835143 0.575815
O O7 0.613104 0.848035 0.059523
O O8 0.041872 0.824871 0.109802
O O9 0.748267 0.016381 0.401604
#
# Coordination Sequence:
#
# PCOD9372038 Si02
#       5
#    16  16   8  16  16
#     4  10  24  42  73  95 141 180 222 285 339 403
#     4  10  24  45  66  96 141 169 227 282 332 399
#     4   8  20  50  58 102 130 186 208 296 328 402
#     4  12  24  44  67 103 129 185 228 269 345 413
#     4  12  22  44  67  95 134 178 222 284 333 397
#
# _framework density 26.003036000000002
#
# number of rings (size 3 to 8) (size 9 to 14) (size 15 to 20)
#    1.333    0.000    4.444    0.000    3.111    4.444 
#    4.000    0.000    0.000    0.000    0.000    0.000 
#    0.000    0.000    0.000    0.000    0.000    0.000 
#
# Total GULP energy -100282.082416 kJ/mol
# GULP energy per Si atom -5571.226801 kJ/mol
# Density = 2.594385 g / cm^3
# Si number density = 26.003036 Si / 1000 Ang^3
#
#
#
# Elastic Constant Matrix: (Units=GPa)
#
#
# Indices 1 2 3 4 5 6 
#
# 1 140.8311 31.3629 20.3051 0.1759 -0.2133 -0.1660
# 2 31.3629 117.7816 23.5824 0.0929 -0.2142 -0.0729
# 3 20.3051 23.5824 102.3863 0.2654 -0.3026 -0.1072
# 4 0.1759 0.0929 0.2654 26.6585 -0.1355 -0.1302
# 5 -0.2133 -0.2142 -0.3026 -0.1355 7.9791 0.1925
# 6 -0.1660 -0.0729 -0.1072 -0.1302 0.1925 43.8514
#
#
#
# Elastic Compliance Matrix: (Units=1/GPa)
#
#
# Indices 1 2 3 4 5 6 
#
# 1 0.007665 -0.001820 -0.001100 -0.000033 0.000113 0.000023
# 2 -0.001820 0.009333 -0.001788 -0.000002 0.000134 0.000004
# 3 -0.001100 -0.001788 0.010398 -0.000088 0.000315 0.000017
# 4 -0.000033 -0.000002 -0.000088 0.037516 0.000630 0.000108
# 5 0.000113 0.000134 0.000315 0.000630 0.125370 -0.000547
# 6 0.000023 0.000004 0.000017 0.000108 -0.000547 0.022807
#
#
# Mechanical properties :
#
#
# Convention : Reuss Voigt Hill
#
# Bulk Modulus (GPa) = 55.62253 56.83330 56.22792
# Shear Modulus (GPa) = 21.88170 34.74770 28.31470
#
# Velocity S-wave (km/s) = 2.90402 3.65950 3.30343
# Velocity P-wave (km/s) = 5.71679 6.30554 6.01837
#
# Compressibility (1/GPa) = 0.01797833
#
# Stress axis : x y z
#
# Youngs Moduli (GPa) = 130.46298 107.14268 96.17024
#
# Poissons Ratio (x) = 0.19505 0.10582
# Poissons Ratio (y) = 0.23751 0.17198
# Poissons Ratio (z) = 0.14356 0.19160
#
# Static dielectric constant tensor:
#      x y z
#    x 2.103270 0.000140 0.000240 
#    y 0.000140 2.082820 -0.000260 
#    z 0.000240 -0.000260 1.979490 
# 
# From -- ./inp_files/914.got.cif
#   From: 2010.05.17/outbox.cif.g08.bks.cpg/sg43_1_cif.got.tgz:914.got - 2010.06.03 19:21:55.
