data_PCOD9372228
_publ_section_title
;
Structure prediction by ZEFSAII (Michael W. Deem and Ramdas Pophale) SiO2 
 PCOD9372228
Probable space group: F D D 2
;
_chemical_formula_sum "Si O2"
_cell_formula_units_Z 64
_cell_length_a 14.090360
_cell_length_b 14.088075
_cell_length_c 13.007924
_cell_angle_alpha 90.000000
_cell_angle_beta 90.000000
_cell_angle_gamma 90.000000
_cell_volume 2582.151592
_symmetry_space_group_name_H-M "F D D 2"
_symmetry_group_IT_number 43
_symmetry_cell_setting 'orthorhombic'
loop_
_space_group_symop_operation_xyz
x,y,z
-x,-y,z
1/4-x,1/4+y,1/4+z
1/4+x,1/4-y,1/4+z
x,1/2+y,1/2+z
-x,1/2-y,1/2+z
1/4-x,3/4+y,3/4+z
1/4+x,3/4-y,3/4+z
1/2+x,y,1/2+z
1/2-x,-y,1/2+z
3/4-x,1/4+y,3/4+z
3/4+x,1/4-y,3/4+z
1/2+x,1/2+y,z
1/2-x,1/2-y,z
3/4-x,3/4+y,1/4+z
3/4+x,3/4-y,1/4+z
loop_
_atom_site_type_symbol
_atom_site_label
_atom_site_fract_x
_atom_site_fract_y
_atom_site_fract_z
Si Si1 0.722425 0.533351 0.964280
Si Si2 0.185982 0.842228 0.068250
Si Si3 0.214995 0.511953 0.683945
Si Si4 0.901136 0.445248 0.260933
O O1 0.726383 0.420590 0.987051
O O2 0.654896 0.557225 0.869303
O O3 0.681996 0.561543 0.078336
O O4 0.819776 0.593554 0.961990
O O5 0.250000 0.750000 0.072531
O O6 0.082882 0.812746 0.028356
O O7 0.183174 0.902531 0.172620
O O8 0.327664 0.502585 0.689871
O O9 0.000000 0.500000 0.269952
#
# Coordination Sequence:
#
# PCOD9372228 Si02
#       4
#    16  16  16  16
#     4  10  26  45  78 117 163 213 274 342 417 503
#     4  10  25  47  76 118 165 216 274 343 418 501
#     4  10  26  47  78 118 163 216 273 345 415 503
#     4  12  25  47  82 121 165 215 281 354 424 505
#
# _framework density 24.785530999999999
#
# number of rings (size 3 to 8) (size 9 to 14) (size 15 to 20)
#    1.500    0.000    0.000    3.000    7.000    1.000 
#    0.000    1.250    0.000    0.000    0.000    0.000 
#    0.000    0.000    0.000    0.000    0.000    0.000 
#
# Total GULP energy -89301.570005 kJ/mol
# GULP energy per Si atom -5581.348125 kJ/mol
# Density = 2.472912 g / cm^3
# Si number density = 24.785531 Si / 1000 Ang^3
#
#
#
# Elastic Constant Matrix: (Units=GPa)
#
#
# Indices 1 2 3 4 5 6 
#
# 1 128.4073 47.2366 41.2899 0.0000 0.0000 0.0000
# 2 47.2366 156.8345 22.5508 0.0000 0.0000 0.0000
# 3 41.2899 22.5508 97.5224 0.0000 0.0000 0.0000
# 4 0.0000 0.0000 0.0000 22.1800 0.0000 0.0000
# 5 0.0000 0.0000 0.0000 0.0000 42.6563 0.0000
# 6 0.0000 0.0000 0.0000 0.0000 0.0000 48.1685
#
#
#
# Elastic Compliance Matrix: (Units=1/GPa)
#
#
# Indices 1 2 3 4 5 6 
#
# 1 0.009847 -0.002448 -0.003603 0.000000 0.000000 0.000000
# 2 -0.002448 0.007204 -0.000630 0.000000 0.000000 0.000000
# 3 -0.003603 -0.000630 0.011925 0.000000 0.000000 0.000000
# 4 0.000000 0.000000 0.000000 0.045086 0.000000 0.000000
# 5 0.000000 0.000000 0.000000 0.000000 0.023443 0.000000
# 6 0.000000 0.000000 0.000000 0.000000 0.000000 0.020760
#
#
# Mechanical properties :
#
#
# Convention : Reuss Voigt Hill
#
# Bulk Modulus (GPa) = 64.03946 67.21320 65.62633
# Shear Modulus (GPa) = 36.54163 40.71342 38.62752
#
# Velocity S-wave (km/s) = 3.84384 4.05733 3.95203
# Velocity P-wave (km/s) = 6.75231 7.00900 6.88185
#
# Compressibility (1/GPa) = 0.01561537
#
# Stress axis : x y z
#
# Youngs Moduli (GPa) = 101.55714 138.81448 83.85687
#
# Poissons Ratio (x) = 0.33977 0.30214
# Poissons Ratio (y) = 0.24857 0.05279
# Poissons Ratio (z) = 0.36591 0.08738
#
# Static dielectric constant tensor:
#      x y z
#    x 1.950730 0.000000 0.000000 
#    y 0.000000 2.050350 0.000000 
#    z 0.000000 0.000000 2.054110 
# 
# From -- ./inp_files/13128.got.cif
#   From: 2010.05.17/outbox.cif.g08.bks.cpg/sg43_7_cif.got.tgz:13128.got - 2010.06.03 19:21:55.
