data_PCOD9372966
_publ_section_title
;
Structure prediction by ZEFSAII (Michael W. Deem and Ramdas Pophale) SiO2 
 PCOD9372966
Probable space group: F D D 2
;
_chemical_formula_sum "Si O2"
_cell_formula_units_Z 24
_cell_length_a 24.000000
_cell_length_b 9.000000
_cell_length_c 24.000000
_cell_angle_alpha 90.000000
_cell_angle_beta 90.000000
_cell_angle_gamma 90.000000
_cell_volume 5184.000000
_symmetry_space_group_name_H-M "F D D 2"
_symmetry_group_IT_number 43
_symmetry_cell_setting 'orthorhombic'
loop_
_space_group_symop_operation_xyz
x,y,z
-x,-y,z
1/4-x,1/4+y,1/4+z
1/4+x,1/4-y,1/4+z
x,1/2+y,1/2+z
-x,1/2-y,1/2+z
1/4-x,3/4+y,3/4+z
1/4+x,3/4-y,3/4+z
1/2+x,y,1/2+z
1/2-x,-y,1/2+z
3/4-x,1/4+y,3/4+z
3/4+x,1/4-y,3/4+z
1/2+x,1/2+y,z
1/2-x,1/2-y,z
3/4-x,3/4+y,1/4+z
3/4+x,3/4-y,1/4+z
loop_
_atom_site_type_symbol
_atom_site_label
_atom_site_fract_x
_atom_site_fract_y
_atom_site_fract_z
Si Si1 0.833581 0.054262 0.457810
Si Si2 0.828035 0.391476 0.490578
Si Si3 0.233118 0.078539 0.877936
Si Si4 0.519454 0.830484 0.798156
Si Si5 0.706749 0.115928 0.173149
Si Si6 0.705300 0.882000 0.270619
O O1 0.820365 0.213016 0.487514
O O2 0.789047 0.022583 0.409158
O O3 0.895085 0.069206 0.433949
O O4 0.821496 0.938544 0.506550
O O5 0.814612 0.430185 0.425775
O O6 0.781268 0.476067 0.526745
O O7 0.890819 0.420128 0.512084
O O8 0.250000 0.250000 0.863854
O O9 0.213955 0.983267 0.825508
O O10 0.537145 0.800139 0.861320
O O11 0.500000 0.000000 0.795661
O O12 0.750000 0.250000 0.179427
O O13 0.716863 0.988773 0.218238
O O14 0.750000 0.750000 0.272488
#
# Coordination Sequence:
#
# PCOD9372966 Si02
#       6
#    16  16  16  16  16  16
#     4   9  20  39  61  82 111 156 193 221 279 352
#     4   9  21  40  59  81 113 156 192 221 282 353
#     4   9  19  39  61  80 111 154 192 225 278 352
#     4  10  21  38  61  86 111 148 194 234 280 335
#     4  10  23  38  56  85 117 152 189 231 286 336
#     4  11  24  36  56  90 116 144 190 244 288 318
#
# _framework density 4.6296299999999997
#
# number of rings (size 3 to 8) (size 9 to 14) (size 15 to 20)
#    0.000    2.333    0.000    2.000    0.000   18.667 
#    0.000    0.000    0.000    0.000    0.000    0.000 
#    0.000    0.000    0.000    0.000    0.000    0.000 
#
# Total GULP energy -133851.424744 kJ/mol
# GULP energy per Si atom -5577.142698 kJ/mol
# Density = 0.461909 g / cm^3
# Si number density = 4.629630 Si / 1000 Ang^3
#
#
#
# Elastic Constant Matrix: (Units=GPa)
#
#
# Indices 1 2 3 4 5 6 
#
# 1 141.7075 49.7726 79.0727 0.0000 0.0000 0.0000
# 2 49.7726 36.9673 64.0473 0.0000 0.0000 0.0000
# 3 79.0727 64.0473 169.4186 0.0000 0.0000 0.0000
# 4 0.0000 0.0000 0.0000 30.3658 0.0000 0.0000
# 5 0.0000 0.0000 0.0000 0.0000 19.5783 0.0000
# 6 0.0000 0.0000 0.0000 0.0000 0.0000 31.1042
#
#
#
# Elastic Compliance Matrix: (Units=1/GPa)
#
#
# Indices 1 2 3 4 5 6 
#
# 1 0.013547 -0.021115 0.001659 0.000000 0.000000 0.000000
# 2 -0.021115 0.111312 -0.032226 0.000000 0.000000 0.000000
# 3 0.001659 -0.032226 0.017311 0.000000 0.000000 0.000000
# 4 0.000000 0.000000 0.000000 0.032932 0.000000 0.000000
# 5 0.000000 0.000000 0.000000 0.000000 0.051077 0.000000
# 6 0.000000 0.000000 0.000000 0.000000 0.000000 0.032150
#
#
# Mechanical properties :
#
#
# Convention : Reuss Voigt Hill
#
# Bulk Modulus (GPa) = 25.76798 81.54206 53.65502
# Shear Modulus (GPa) = 13.34661 26.55638 19.95150
#
# Velocity S-wave (km/s) = 2.68753 3.79099 3.28591
# Velocity P-wave (km/s) = 4.85544 7.95553 6.59036
#
# Compressibility (1/GPa) = 0.03880785
#
# Stress axis : x y z
#
# Youngs Moduli (GPa) = 73.81683 8.98374 57.76764
#
# Poissons Ratio (x) = 0.18969 -0.09586
# Poissons Ratio (y) = 1.55862 1.86161
# Poissons Ratio (z) = -0.12249 0.28951
#
# Static dielectric constant tensor:
#      x y z
#    x 1.640180 0.000000 0.000000 
#    y 0.000000 1.643130 0.000000 
#    z 0.000000 0.000000 1.638480 
# 
# From -- ./inp_files/18824.got.cif
#   From: 2010.05.17/outbox.ucp.g08.bks.cvg/sg43_10_cif.got.tgz:18824.got - 2010.06.11 16:31:01.
