data_PCOD9372440
_publ_section_title
;
Structure prediction by ZEFSAII (Michael W. Deem and Ramdas Pophale) SiO2 
 PCOD9372440
Probable space group: F D D 2
;
_chemical_formula_sum "Si O2"
_cell_formula_units_Z 80
_cell_length_a 26.342791
_cell_length_b 8.213943
_cell_length_c 16.561758
_cell_angle_alpha 90.000000
_cell_angle_beta 90.000000
_cell_angle_gamma 90.000000
_cell_volume 3583.603115
_symmetry_space_group_name_H-M "F D D 2"
_symmetry_group_IT_number 43
_symmetry_cell_setting 'orthorhombic'
loop_
_space_group_symop_operation_xyz
x,y,z
-x,-y,z
1/4-x,1/4+y,1/4+z
1/4+x,1/4-y,1/4+z
x,1/2+y,1/2+z
-x,1/2-y,1/2+z
1/4-x,3/4+y,3/4+z
1/4+x,3/4-y,3/4+z
1/2+x,y,1/2+z
1/2-x,-y,1/2+z
3/4-x,1/4+y,3/4+z
3/4+x,1/4-y,3/4+z
1/2+x,1/2+y,z
1/2-x,1/2-y,z
3/4-x,3/4+y,1/4+z
3/4+x,3/4-y,1/4+z
loop_
_atom_site_type_symbol
_atom_site_label
_atom_site_fract_x
_atom_site_fract_y
_atom_site_fract_z
Si Si1 0.250000 0.250000 0.375000
Si Si2 0.441246 0.009272 0.783622
Si Si3 0.934815 0.736147 0.919765
Si Si4 0.780865 0.905127 0.827174
Si Si5 0.590618 0.833784 0.237352
Si Si6 0.750000 0.250000 0.584837
O O1 0.296050 0.289658 0.438886
O O2 0.245241 0.416476 0.325462
O O3 0.412320 0.838249 0.783238
O O4 0.500000 0.000000 0.815894
O O5 0.415116 0.144004 0.839495
O O6 0.895044 0.839019 0.973167
O O7 0.952056 0.609647 0.987569
O O8 0.979312 0.852021 0.887964
O O9 0.750000 0.750000 0.858116
O O10 0.822659 0.936838 0.895147
O O11 0.548396 0.943751 0.281927
#
# Coordination Sequence:
#
# PCOD9372440 Si02
#       6
#     8  16  16  16  16   8
#     4   8  19  42  67  92 128 186 224 276 355 422
#     4   9  19  44  71  89 137 188 226 281 369 426
#     4  12  24  42  68 107 136 183 245 298 360 436
#     4  11  22  41  67  97 133 176 237 288 347 428
#     4  11  24  45  69 101 136 192 239 292 375 433
#     4  12  23  46  71  96 148 188 228 314 351 424
#
# _framework density 22.323900999999999
#
# number of rings (size 3 to 8) (size 9 to 14) (size 15 to 20)
#    0.600    0.800    3.000    2.400    0.000    0.000 
#    7.200    4.000    0.000    0.000    0.000    0.000 
#    0.000    0.000    0.000    0.000    0.000    0.000 
#
# Total GULP energy -111389.152902 kJ/mol
# GULP energy per Si atom -5569.457645 kJ/mol
# Density = 2.227309 g / cm^3
# Si number density = 22.323901 Si / 1000 Ang^3
#
#
#
# Elastic Constant Matrix: (Units=GPa)
#
#
# Indices 1 2 3 4 5 6 
#
# 1 60.4076 17.7803 12.4918 0.0000 0.0000 0.0000
# 2 17.7803 94.0937 22.4634 0.0000 0.0000 0.0000
# 3 12.4918 22.4634 101.5790 0.0000 0.0000 0.0000
# 4 0.0000 0.0000 0.0000 -230.8735 0.0000 0.0000
# 5 0.0000 0.0000 0.0000 0.0000 30.7280 0.0000
# 6 0.0000 0.0000 0.0000 0.0000 0.0000 22.5376
#
#
#
# Elastic Compliance Matrix: (Units=1/GPa)
#
#
# Indices 1 2 3 4 5 6 
#
# 1 0.017749 -0.002991 -0.001521 0.000000 0.000000 0.000000
# 2 -0.002991 0.011724 -0.002225 0.000000 0.000000 0.000000
# 3 -0.001521 -0.002225 0.010524 0.000000 0.000000 0.000000
# 4 0.000000 0.000000 0.000000 -0.004331 0.000000 0.000000
# 5 0.000000 0.000000 0.000000 0.000000 0.032544 0.000000
# 6 0.000000 0.000000 0.000000 0.000000 0.000000 0.044370
#
#
# Mechanical properties :
#
#
# Convention : Reuss Voigt Hill
#
# Bulk Modulus (GPa) = 37.70334 40.17236 38.93785
# Shear Modulus (GPa) = 37.06607 -21.96527 7.55040
#
# Velocity S-wave (km/s) = 4.07919 -3.14018 1.84107
# Velocity P-wave (km/s) = 6.25398 2.21058 4.69036
#
# Compressibility (1/GPa) = 0.02652285
#
# Stress axis : x y z
#
# Youngs Moduli (GPa) = 56.34084 85.29516 95.02399
#
# Poissons Ratio (x) = 0.25510 0.14456
# Poissons Ratio (y) = 0.16850 0.21142
# Poissons Ratio (z) = 0.08571 0.18977
#
# Static dielectric constant tensor:
#      x y z
#    x 1.825730 0.000000 0.000000 
#    y 0.000000 1.932360 0.000000 
#    z 0.000000 0.000000 1.798340 
# 
# From -- ./inp_files/14994.got.cif
#   From: 2010.05.17/outbox.cif.g08.bks.cpg/sg43_8_cif.got.tgz:14994.got - 2010.06.03 19:21:55.
