data_PCOD9372984
_publ_section_title
;
Structure prediction by ZEFSAII (Michael W. Deem and Ramdas Pophale) SiO2 
 PCOD9372984
Probable space group: F D D 2
;
_chemical_formula_sum "Si O2"
_cell_formula_units_Z 30
_cell_length_a 12.000000
_cell_length_b 24.000000
_cell_length_c 21.000000
_cell_angle_alpha 90.000000
_cell_angle_beta 90.000000
_cell_angle_gamma 90.000000
_cell_volume 6048.000000
_symmetry_space_group_name_H-M "F D D 2"
_symmetry_group_IT_number 43
_symmetry_cell_setting 'orthorhombic'
loop_
_space_group_symop_operation_xyz
x,y,z
-x,-y,z
1/4-x,1/4+y,1/4+z
1/4+x,1/4-y,1/4+z
x,1/2+y,1/2+z
-x,1/2-y,1/2+z
1/4-x,3/4+y,3/4+z
1/4+x,3/4-y,3/4+z
1/2+x,y,1/2+z
1/2-x,-y,1/2+z
3/4-x,1/4+y,3/4+z
3/4+x,1/4-y,3/4+z
1/2+x,1/2+y,z
1/2-x,1/2-y,z
3/4-x,3/4+y,1/4+z
3/4+x,3/4-y,1/4+z
loop_
_atom_site_type_symbol
_atom_site_label
_atom_site_fract_x
_atom_site_fract_y
_atom_site_fract_z
Si Si1 0.500000 0.500000 0.924130
Si Si2 0.769129 0.317091 0.029793
Si Si3 0.341977 0.490368 0.682571
Si Si4 0.825030 0.356129 0.485243
Si Si5 0.105333 0.460167 0.650548
Si Si6 0.865094 0.680853 0.066753
Si Si7 0.181264 0.652323 0.766217
Si Si8 0.685037 0.870315 0.872404
O O1 0.411179 0.468928 0.877987
O O2 0.432353 0.544799 0.967607
O O3 0.750000 0.250000 0.040142
O O4 0.656589 0.351088 0.011062
O O5 0.834275 0.345071 0.089591
O O6 0.845991 0.323382 0.966774
O O7 0.397913 0.550275 0.693842
O O8 0.217570 0.495651 0.656516
O O9 0.346406 0.465118 0.754378
O O10 0.394443 0.442986 0.635976
O O11 0.755932 0.342085 0.548016
O O12 0.735588 0.389010 0.441243
O O13 0.942549 0.381282 0.505074
O O14 0.095273 0.424704 0.586812
O O15 0.000000 0.500000 0.649990
O O16 0.956504 0.633494 0.079525
#
# Coordination Sequence:
#
# PCOD9372984 Si02
#       8
#     8  16  16  16  16  16  16  16
#     4  12  24  46  66 110 142 180 240 304 352 420
#     4  11  25  45  70  98 135 192 235 284 360 439
#     4  11  22  44  69 101 140 184 234 290 355 437
#     4  11  24  41  72 104 136 190 237 290 357 432
#     4  11  23  41  67  99 145 181 233 290 364 436
#     4  11  22  41  69  98 136 180 239 288 352 426
#     4  12  26  44  68 106 143 180 232 303 363 419
#     4  11  22  42  69  98 133 176 238 292 339 424
#
# _framework density 4.9603169999999999
#
# number of rings (size 3 to 8) (size 9 to 14) (size 15 to 20)
#    0.000    0.800    6.000    2.800    1.867    1.067 
#    0.000    0.000    0.000    1.600    0.000    0.000 
#    0.000    0.000    0.000    0.000    0.000    0.000 
#
# Total GULP energy -167174.616460 kJ/mol
# GULP energy per Si atom -5572.487215 kJ/mol
# Density = 0.494903 g / cm^3
# Si number density = 4.960317 Si / 1000 Ang^3
#
#
#
# Elastic Constant Matrix: (Units=GPa)
#
#
# Indices 1 2 3 4 5 6 
#
# 1 136.4121 44.6004 33.9516 0.0000 0.0000 0.0000
# 2 44.6004 84.7618 52.0522 0.0000 0.0000 0.0000
# 3 33.9516 52.0522 104.0913 0.0000 0.0000 0.0000
# 4 0.0000 0.0000 0.0000 23.7042 0.0000 0.0000
# 5 0.0000 0.0000 0.0000 0.0000 39.1303 0.0000
# 6 0.0000 0.0000 0.0000 0.0000 0.0000 36.6275
#
#
#
# Elastic Compliance Matrix: (Units=1/GPa)
#
#
# Indices 1 2 3 4 5 6 
#
# 1 0.008901 -0.004186 -0.000810 0.000000 0.000000 0.000000
# 2 -0.004186 0.018995 -0.008133 0.000000 0.000000 0.000000
# 3 -0.000810 -0.008133 0.013938 0.000000 0.000000 0.000000
# 4 0.000000 0.000000 0.000000 0.042187 0.000000 0.000000
# 5 0.000000 0.000000 0.000000 0.000000 0.025556 0.000000
# 6 0.000000 0.000000 0.000000 0.000000 0.000000 0.027302
#
#
# Mechanical properties :
#
#
# Convention : Reuss Voigt Hill
#
# Bulk Modulus (GPa) = 64.20312 65.16372 64.68342
# Shear Modulus (GPa) = 29.70366 32.86980 31.28673
#
# Velocity S-wave (km/s) = 3.87339 4.07460 3.97527
# Velocity P-wave (km/s) = 7.24105 7.41959 7.33086
#
# Compressibility (1/GPa) = 0.01557557
#
# Stress axis : x y z
#
# Youngs Moduli (GPa) = 112.34695 52.64489 71.74475
#
# Poissons Ratio (x) = 0.22038 0.05810
# Poissons Ratio (y) = 0.47031 0.58353
# Poissons Ratio (z) = 0.09099 0.42818
#
# Static dielectric constant tensor:
#      x y z
#    x 1.737520 0.000000 0.000000 
#    y 0.000000 1.755710 0.000000 
#    z 0.000000 0.000000 1.733610 
# 
# From -- ./inp_files/17275.got.cif
#   From: 2010.05.17/outbox.ucp.g08.bks.cvg/sg43_9_cif.got.tgz:17275.got - 2010.06.11 16:31:01.
