data_PCOD9372257
_publ_section_title
;
Structure prediction by ZEFSAII (Michael W. Deem and Ramdas Pophale) SiO2 
 PCOD9372257
Probable space group: F D D 2
;
_chemical_formula_sum "Si O2"
_cell_formula_units_Z 64
_cell_length_a 27.526876
_cell_length_b 4.994625
_cell_length_c 19.135184
_cell_angle_alpha 90.000000
_cell_angle_beta 90.000000
_cell_angle_gamma 90.000000
_cell_volume 2630.828002
_symmetry_space_group_name_H-M "F D D 2"
_symmetry_group_IT_number 43
_symmetry_cell_setting 'orthorhombic'
loop_
_space_group_symop_operation_xyz
x,y,z
-x,-y,z
1/4-x,1/4+y,1/4+z
1/4+x,1/4-y,1/4+z
x,1/2+y,1/2+z
-x,1/2-y,1/2+z
1/4-x,3/4+y,3/4+z
1/4+x,3/4-y,3/4+z
1/2+x,y,1/2+z
1/2-x,-y,1/2+z
3/4-x,1/4+y,3/4+z
3/4+x,1/4-y,3/4+z
1/2+x,1/2+y,z
1/2-x,1/2-y,z
3/4-x,3/4+y,1/4+z
3/4+x,3/4-y,1/4+z
loop_
_atom_site_type_symbol
_atom_site_label
_atom_site_fract_x
_atom_site_fract_y
_atom_site_fract_z
Si Si1 0.305101 0.847595 0.447170
Si Si2 0.943132 0.575706 0.352552
Si Si3 0.849437 0.333231 0.173660
Si Si4 0.715072 0.993547 0.301987
O O1 0.250000 0.750000 0.451636
O O2 0.315698 0.946921 0.525287
O O3 0.343030 0.610076 0.431830
O O4 0.307102 0.037936 0.379606
O O5 0.915825 0.295598 0.363899
O O6 0.000000 0.500000 0.361747
O O7 0.923012 0.795871 0.406262
O O8 0.824834 0.450225 0.243669
O O9 0.750000 0.750000 0.284026
O O10 0.750000 0.250000 0.304069
#
# Coordination Sequence:
#
# PCOD9372257 Si02
#       4
#    16  16  16  16
#     4  10  26  45  66  99 141 183 229 286 351 421
#     4  11  25  45  71 103 139 180 232 294 356 423
#     4  12  24  44  72 102 136 184 235 289 353 426
#     4  11  24  44  68  98 136 179 229 289 352 420
#
# _framework density 24.326941999999999
#
# number of rings (size 3 to 8) (size 9 to 14) (size 15 to 20)
#    0.000    1.000    0.000    6.000    0.000   18.000 
#    0.000    0.000    0.000    0.000    0.000    0.000 
#    0.000    0.000    0.000    0.000    0.000    0.000 
#
# Total GULP energy -89579.204113 kJ/mol
# GULP energy per Si atom -5598.700257 kJ/mol
# Density = 2.427157 g / cm^3
# Si number density = 24.326942 Si / 1000 Ang^3
#
#
#
# Elastic Constant Matrix: (Units=GPa)
#
#
# Indices 1 2 3 4 5 6 
#
# 1 159.8234 50.7157 27.8957 -0.0001 0.0012 0.0012
# 2 50.7157 126.8571 12.5874 0.0029 0.0019 0.0002
# 3 27.8957 12.5874 134.6577 0.0024 0.0001 -0.0008
# 4 -0.0001 0.0029 0.0024 18.8144 0.0004 -0.0003
# 5 0.0012 0.0019 0.0001 0.0004 27.7008 -0.0006
# 6 0.0012 0.0002 -0.0008 -0.0003 -0.0006 23.2812
#
#
#
# Elastic Compliance Matrix: (Units=1/GPa)
#
#
# Indices 1 2 3 4 5 6 
#
# 1 0.007373 -0.002822 -0.001264 0.000001 0.000000 0.000000
# 2 -0.002822 0.009037 -0.000260 -0.000001 -0.000001 0.000000
# 3 -0.001264 -0.000260 0.007712 -0.000001 0.000000 0.000000
# 4 0.000001 -0.000001 -0.000001 0.053151 -0.000001 0.000001
# 5 0.000000 -0.000001 0.000000 -0.000001 0.036100 0.000001
# 6 0.000000 0.000000 0.000000 0.000001 0.000001 0.042953
#
#
# Mechanical properties :
#
#
# Convention : Reuss Voigt Hill
#
# Bulk Modulus (GPa) = 64.80682 67.08175 65.94428
# Shear Modulus (GPa) = 29.38381 35.96855 32.67618
#
# Velocity S-wave (km/s) = 3.47921 3.84936 3.66896
# Velocity P-wave (km/s) = 6.54505 6.88416 6.71675
#
# Compressibility (1/GPa) = 0.01543048
#
# Stress axis : x y z
#
# Youngs Moduli (GPa) = 135.62961 110.65629 129.66274
#
# Poissons Ratio (x) = 0.31230 0.16384
# Poissons Ratio (y) = 0.38278 0.03372
# Poissons Ratio (z) = 0.17138 0.02878
#
# Static dielectric constant tensor:
#      x y z
#    x 1.936150 0.000000 0.000000 
#    y 0.000000 1.844430 0.000000 
#    z 0.000000 0.000000 2.015580 
# 
# From -- ./inp_files/18476.got.cif
#   From: 2010.05.17/outbox.cif.g08.bks.cpg/sg43_10_cif.got.tgz:18476.got - 2010.06.03 19:21:55.
