data_PCOD9372376
_publ_section_title
;
Structure prediction by ZEFSAII (Michael W. Deem and Ramdas Pophale) SiO2 
 PCOD9372376
Probable space group: F D D 2
;
_chemical_formula_sum "Si O2"
_cell_formula_units_Z 104
_cell_length_a 11.786459
_cell_length_b 24.822568
_cell_length_c 16.805429
_cell_angle_alpha 90.000000
_cell_angle_beta 90.000000
_cell_angle_gamma 90.000000
_cell_volume 4916.767388
_symmetry_space_group_name_H-M "F D D 2"
_symmetry_group_IT_number 43
_symmetry_cell_setting 'orthorhombic'
loop_
_space_group_symop_operation_xyz
x,y,z
-x,-y,z
1/4-x,1/4+y,1/4+z
1/4+x,1/4-y,1/4+z
x,1/2+y,1/2+z
-x,1/2-y,1/2+z
1/4-x,3/4+y,3/4+z
1/4+x,3/4-y,3/4+z
1/2+x,y,1/2+z
1/2-x,-y,1/2+z
3/4-x,1/4+y,3/4+z
3/4+x,1/4-y,3/4+z
1/2+x,1/2+y,z
1/2-x,1/2-y,z
3/4-x,3/4+y,1/4+z
3/4+x,3/4-y,1/4+z
loop_
_atom_site_type_symbol
_atom_site_label
_atom_site_fract_x
_atom_site_fract_y
_atom_site_fract_z
Si Si1 0.564380 0.683657 0.735770
Si Si2 0.609310 0.816206 0.381022
Si Si3 0.162089 0.571295 0.186933
Si Si4 0.886074 0.057129 0.109271
Si Si5 0.422669 0.232883 0.107364
Si Si6 0.000000 0.000000 0.577799
Si Si7 0.948228 0.572557 0.429119
O O1 0.460784 0.681245 0.798692
O O2 0.590333 0.623858 0.707234
O O3 0.530272 0.720482 0.661404
O O4 0.674636 0.708625 0.777412
O O5 0.742446 0.831009 0.382317
O O6 0.614717 0.752330 0.396788
O O7 0.551101 0.862884 0.432427
O O8 0.276341 0.588127 0.140080
O O9 0.185496 0.540106 0.269402
O O10 0.088742 0.532455 0.131489
O O11 0.902008 0.051455 0.013991
O O12 0.385145 0.295168 0.113874
O O13 0.319758 0.199940 0.150937
#
# Coordination Sequence:
#
# PCOD9372376 Si02
#       7
#    16  16  16  16  16   8  16
#     4  12  24  45  73  97 143 186 227 283 356 404
#     4  11  22  43  72  95 132 186 229 281 346 402
#     4  12  26  41  68 107 141 179 233 289 347 410
#     4  11  24  45  67 102 139 175 238 291 336 414
#     4  11  22  41  67 103 135 176 242 282 328 426
#     4  12  26  46  70 102 144 182 228 290 348 408
#     4  11  21  39  71  99 130 185 236 282 339 406
#
# _framework density 21.152108999999999
#
# number of rings (size 3 to 8) (size 9 to 14) (size 15 to 20)
#    0.000    0.615    6.154    2.769    0.000    4.923 
#    0.000    1.538    0.000    0.000    0.000    0.000 
#    0.000    0.000    0.000    0.000    0.000    0.000 
#
# Total GULP energy -145142.437405 kJ/mol
# GULP energy per Si atom -5582.401439 kJ/mol
# Density = 2.110397 g / cm^3
# Si number density = 21.152109 Si / 1000 Ang^3
#
#
#
# Elastic Constant Matrix: (Units=GPa)
#
#
# Indices 1 2 3 4 5 6 
#
# 1 77.3678 -22.5097 16.7192 0.0000 0.0000 0.0000
# 2 -22.5097 49.4867 -15.4857 0.0000 0.0000 0.0000
# 3 16.7192 -15.4857 63.2532 0.0000 0.0000 0.0000
# 4 0.0000 0.0000 0.0000 34.7886 0.0000 0.0000
# 5 0.0000 0.0000 0.0000 0.0000 -9.5096 0.0000
# 6 0.0000 0.0000 0.0000 0.0000 0.0000 11.8424
#
#
#
# Elastic Compliance Matrix: (Units=1/GPa)
#
#
# Indices 1 2 3 4 5 6 
#
# 1 0.015261 0.006151 -0.002528 0.000000 0.000000 0.000000
# 2 0.006151 0.024363 0.004339 0.000000 0.000000 0.000000
# 3 -0.002528 0.004339 0.017540 0.000000 0.000000 0.000000
# 4 0.000000 0.000000 0.000000 0.028745 0.000000 0.000000
# 5 0.000000 0.000000 0.000000 0.000000 -0.105157 0.000000
# 6 0.000000 0.000000 0.000000 0.000000 0.000000 0.084443
#
#
# Mechanical properties :
#
#
# Convention : Reuss Voigt Hill
#
# Bulk Modulus (GPa) = 13.68240 16.39503 15.03871
# Shear Modulus (GPa) = 67.90305 21.51652 44.70979
#
# Velocity S-wave (km/s) = 5.67203 3.19286 4.60252
# Velocity P-wave (km/s) = 7.02699 4.62172 5.94722
#
# Compressibility (1/GPa) = 0.07308662
#
# Stress axis : x y z
#
# Youngs Moduli (GPa) = 65.52629 41.04608 57.01278
#
# Poissons Ratio (x) = -0.25246 0.14413
# Poissons Ratio (y) = -0.40303 -0.24737
# Poissons Ratio (z) = 0.16565 -0.17809
#
# Static dielectric constant tensor:
#      x y z
#    x 1.800330 0.000000 0.000000 
#    y 0.000000 1.819570 0.000000 
#    z 0.000000 0.000000 1.744560 
# 
# From -- ./inp_files/13425.got.cif
#   From: 2010.05.17/outbox.cif.g08.bks.cpg/sg43_7_cif.got.tgz:13425.got - 2010.06.03 19:21:55.
