data_PCOD9372682
_publ_section_title
;
Structure prediction by ZEFSAII (Michael W. Deem and Ramdas Pophale) SiO2 
 PCOD9372682
Probable space group: F D D 2
;
_chemical_formula_sum "Si O2"
_cell_formula_units_Z 32
_cell_length_a 9.145480
_cell_length_b 13.092046
_cell_length_c 9.569352
_cell_angle_alpha 90.000000
_cell_angle_beta 90.000000
_cell_angle_gamma 90.000000
_cell_volume 1145.767652
_symmetry_space_group_name_H-M "F D D 2"
_symmetry_group_IT_number 43
_symmetry_cell_setting 'orthorhombic'
loop_
_space_group_symop_operation_xyz
x,y,z
-x,-y,z
1/4-x,1/4+y,1/4+z
1/4+x,1/4-y,1/4+z
x,1/2+y,1/2+z
-x,1/2-y,1/2+z
1/4-x,3/4+y,3/4+z
1/4+x,3/4-y,3/4+z
1/2+x,y,1/2+z
1/2-x,-y,1/2+z
3/4-x,1/4+y,3/4+z
3/4+x,1/4-y,3/4+z
1/2+x,1/2+y,z
1/2-x,1/2-y,z
3/4-x,3/4+y,1/4+z
3/4+x,3/4-y,1/4+z
loop_
_atom_site_type_symbol
_atom_site_label
_atom_site_fract_x
_atom_site_fract_y
_atom_site_fract_z
Si Si1 0.172739 0.994499 0.700470
Si Si2 0.878196 0.431606 0.907223
O O1 0.187837 0.000318 0.532494
O O2 0.271165 0.095528 0.730257
O O3 0.253125 0.909035 0.794257
O O4 0.000000 0.000000 0.732939
O O5 0.000000 0.500000 0.830740
#
# Coordination Sequence:
#
# PCOD9372682 Si02
#       2
#    16  16
#     4  11  26  48  78 111 160 204 259 322 387 466
#     4  11  24  49  73 113 156 202 262 315 387 469
#
# _framework density 27.928871000000001
#
# number of rings (size 3 to 8) (size 9 to 14) (size 15 to 20)
#    0.000    1.000    5.000    0.000    0.000   10.000 
#    0.000    0.000    0.000    0.000    0.000    0.000 
#    0.000    0.000    0.000    0.000    0.000    0.000 
#
# Total GULP energy -44571.917859 kJ/mol
# GULP energy per Si atom -5571.489732 kJ/mol
# Density = 2.786530 g / cm^3
# Si number density = 27.928871 Si / 1000 Ang^3
#
#
#
# Elastic Constant Matrix: (Units=GPa)
#
#
# Indices 1 2 3 4 5 6 
#
# 1 212.3584 36.0911 87.7852 0.0000 0.0000 0.0000
# 2 36.0911 55.5582 6.8571 0.0000 0.0000 0.0000
# 3 87.7852 6.8571 137.7620 0.0000 0.0000 0.0000
# 4 0.0000 0.0000 0.0000 15.2701 0.0000 0.0000
# 5 0.0000 0.0000 0.0000 0.0000 64.2114 0.0000
# 6 0.0000 0.0000 0.0000 0.0000 0.0000 35.7027
#
#
#
# Elastic Compliance Matrix: (Units=1/GPa)
#
#
# Indices 1 2 3 4 5 6 
#
# 1 0.007236 -0.004157 -0.004404 0.000000 0.000000 0.000000
# 2 -0.004157 0.020499 0.001629 0.000000 0.000000 0.000000
# 3 -0.004404 0.001629 0.009984 0.000000 0.000000 0.000000
# 4 0.000000 0.000000 0.000000 0.065488 0.000000 0.000000
# 5 0.000000 0.000000 0.000000 0.000000 0.015574 0.000000
# 6 0.000000 0.000000 0.000000 0.000000 0.000000 0.028009
#
#
# Mechanical properties :
#
#
# Convention : Reuss Voigt Hill
#
# Bulk Modulus (GPa) = 41.92178 74.12724 58.02451
# Shear Modulus (GPa) = 29.65503 41.36651 35.51077
#
# Velocity S-wave (km/s) = 3.26207 3.85273 3.56964
# Velocity P-wave (km/s) = 5.40656 6.81105 6.14904
#
# Compressibility (1/GPa) = 0.02385395
#
# Stress axis : x y z
#
# Youngs Moduli (GPa) = 138.19580 48.78377 100.15795
#
# Poissons Ratio (x) = 0.20280 0.44111
# Poissons Ratio (y) = 0.57449 -0.16313
# Poissons Ratio (z) = 0.60863 -0.07945
#
# Static dielectric constant tensor:
#      x y z
#    x 2.183280 0.000000 0.000000 
#    y 0.000000 2.528710 0.000000 
#    z 0.000000 0.000000 2.078790 
# 
# From -- ./inp_files/1607.got.cif
#   From: 2010.05.17/outbox.cif.g08.bks.cpg/sg43_1_cif.got.tgz:1607.got - 2010.06.03 19:21:55.
