data_PCOD9372662
_publ_section_title
;
Structure prediction by ZEFSAII (Michael W. Deem and Ramdas Pophale) SiO2 
 PCOD9372662
Probable space group: F D D 2
;
_chemical_formula_sum "Si O2"
_cell_formula_units_Z 56
_cell_length_a 16.531906
_cell_length_b 9.185939
_cell_length_c 13.695356
_cell_angle_alpha 90.000000
_cell_angle_beta 90.000000
_cell_angle_gamma 90.000000
_cell_volume 2079.791554
_symmetry_space_group_name_H-M "F D D 2"
_symmetry_group_IT_number 43
_symmetry_cell_setting 'orthorhombic'
loop_
_space_group_symop_operation_xyz
x,y,z
-x,-y,z
1/4-x,1/4+y,1/4+z
1/4+x,1/4-y,1/4+z
x,1/2+y,1/2+z
-x,1/2-y,1/2+z
1/4-x,3/4+y,3/4+z
1/4+x,3/4-y,3/4+z
1/2+x,y,1/2+z
1/2-x,-y,1/2+z
3/4-x,1/4+y,3/4+z
3/4+x,1/4-y,3/4+z
1/2+x,1/2+y,z
1/2-x,1/2-y,z
3/4-x,3/4+y,1/4+z
3/4+x,3/4-y,1/4+z
loop_
_atom_site_type_symbol
_atom_site_label
_atom_site_fract_x
_atom_site_fract_y
_atom_site_fract_z
Si Si1 0.975256 0.833261 0.842930
Si Si2 0.500000 0.500000 0.100834
Si Si3 0.167372 0.327136 0.885002
Si Si4 0.599820 0.600518 0.278739
O O1 0.898707 0.795660 0.910561
O O2 0.941371 0.835823 0.731386
O O3 0.044532 0.709214 0.844216
O O4 0.000000 0.000000 0.852838
O O5 0.556197 0.591987 0.174832
O O6 0.559543 0.407440 0.035455
O O7 0.250000 0.250000 0.846260
O O8 0.114718 0.437574 0.819099
#
# Coordination Sequence:
#
# PCOD9372662 Si02
#       4
#    16   8  16  16
#     4  11  26  46  77 114 159 204 272 331 409 478
#     4  12  28  50  84 116 158 216 276 330 412 484
#     4  11  24  47  75 114 158 207 268 328 401 484
#     4  12  24  52  77 116 159 218 262 341 402 496
#
# _framework density 26.925775000000002
#
# number of rings (size 3 to 8) (size 9 to 14) (size 15 to 20)
#    0.000    0.571    5.714    0.000    4.000    4.571 
#   10.286    0.000    0.000    0.000    0.000    0.000 
#    0.000    0.000    0.000    0.000    0.000    0.000 
#
# Total GULP energy -78430.867711 kJ/mol
# GULP energy per Si atom -5602.204837 kJ/mol
# Density = 2.686449 g / cm^3
# Si number density = 26.925775 Si / 1000 Ang^3
#
#
#
# Elastic Constant Matrix: (Units=GPa)
#
#
# Indices 1 2 3 4 5 6 
#
# 1 206.3585 95.6866 25.7832 0.0000 0.0000 0.0000
# 2 95.6866 175.3007 28.3473 0.0000 0.0000 0.0000
# 3 25.7832 28.3473 87.2392 0.0000 0.0000 0.0000
# 4 0.0000 0.0000 0.0000 34.1902 0.0000 0.0000
# 5 0.0000 0.0000 0.0000 0.0000 49.2841 0.0000
# 6 0.0000 0.0000 0.0000 0.0000 0.0000 90.7858
#
#
#
# Elastic Compliance Matrix: (Units=1/GPa)
#
#
# Indices 1 2 3 4 5 6 
#
# 1 0.006543 -0.003439 -0.000816 0.000000 0.000000 0.000000
# 2 -0.003439 0.007829 -0.001527 0.000000 0.000000 0.000000
# 3 -0.000816 -0.001527 0.012200 0.000000 0.000000 0.000000
# 4 0.000000 0.000000 0.000000 0.029248 0.000000 0.000000
# 5 0.000000 0.000000 0.000000 0.000000 0.020291 0.000000
# 6 0.000000 0.000000 0.000000 0.000000 0.000000 0.011015
#
#
# Mechanical properties :
#
#
# Convention : Reuss Voigt Hill
#
# Bulk Modulus (GPa) = 66.63955 85.39251 76.01603
# Shear Modulus (GPa) = 48.21929 56.12412 52.17170
#
# Velocity S-wave (km/s) = 4.23640 4.57048 4.40661
# Velocity P-wave (km/s) = 6.98087 7.72239 7.36097
#
# Compressibility (1/GPa) = 0.01500610
#
# Stress axis : x y z
#
# Youngs Moduli (GPa) = 152.84271 127.73371 81.96561
#
# Poissons Ratio (x) = 0.43931 0.06689
# Poissons Ratio (y) = 0.52567 0.12519
# Poissons Ratio (z) = 0.12474 0.19510
#
# Static dielectric constant tensor:
#      x y z
#    x 2.143440 0.000000 0.000000 
#    y 0.000000 2.130610 0.000000 
#    z 0.000000 0.000000 2.162070 
# 
# From -- ./inp_files/9337.got.cif
#   From: 2010.05.17/outbox.cif.g08.bks.cpg/sg43_5_cif.got.tgz:9337.got - 2010.06.03 19:21:55.
