data_PCOD9372904
_publ_section_title
;
Structure prediction by ZEFSAII (Michael W. Deem and Ramdas Pophale) SiO2 
 PCOD9372904
Probable space group: F D D 2
;
_chemical_formula_sum "Si O2"
_cell_formula_units_Z 64
_cell_length_a 13.974593
_cell_length_b 11.449728
_cell_length_c 15.961128
_cell_angle_alpha 90.000000
_cell_angle_beta 90.000000
_cell_angle_gamma 90.000000
_cell_volume 2553.864895
_symmetry_space_group_name_H-M "F D D 2"
_symmetry_group_IT_number 43
_symmetry_cell_setting 'orthorhombic'
loop_
_space_group_symop_operation_xyz
x,y,z
-x,-y,z
1/4-x,1/4+y,1/4+z
1/4+x,1/4-y,1/4+z
x,1/2+y,1/2+z
-x,1/2-y,1/2+z
1/4-x,3/4+y,3/4+z
1/4+x,3/4-y,3/4+z
1/2+x,y,1/2+z
1/2-x,-y,1/2+z
3/4-x,1/4+y,3/4+z
3/4+x,1/4-y,3/4+z
1/2+x,1/2+y,z
1/2-x,1/2-y,z
3/4-x,3/4+y,1/4+z
3/4+x,3/4-y,1/4+z
loop_
_atom_site_type_symbol
_atom_site_label
_atom_site_fract_x
_atom_site_fract_y
_atom_site_fract_z
Si Si1 0.033766 0.615236 0.353750
Si Si2 0.908530 0.430311 0.051719
Si Si3 0.100805 0.676827 0.693029
Si Si4 0.639807 0.575820 0.371905
O O1 0.076001 0.722288 0.305162
O O2 0.111432 0.557229 0.418045
O O3 0.000000 0.500000 0.301742
O O4 0.938272 0.646643 0.403431
O O5 0.885644 0.311966 0.099629
O O6 0.000000 0.500000 0.084107
O O7 0.921760 0.400246 0.954329
O O8 0.106207 0.644680 0.790056
O O9 0.000406 0.649800 0.648703
#
# Coordination Sequence:
#
# PCOD9372904 Si02
#       4
#    16  16  16  16
#     4   8  21  46  78 103 154 203 261 312 404 473
#     4  12  27  47  74 117 154 203 259 328 389 471
#     4   9  24  49  73 112 149 211 255 324 397 476
#     4  12  28  45  79 111 161 199 265 327 396 466
#
# _framework density 25.060057
#
# number of rings (size 3 to 8) (size 9 to 14) (size 15 to 20)
#    1.500    0.000    2.500    0.000    7.000    9.000 
#    0.000    0.000    0.000    0.000    0.000    0.000 
#    0.000    0.000    0.000    0.000    0.000    0.000 
#
# Total GULP energy -89460.914816 kJ/mol
# GULP energy per Si atom -5591.307176 kJ/mol
# Density = 2.500302 g / cm^3
# Si number density = 25.060057 Si / 1000 Ang^3
#
#
#
# Elastic Constant Matrix: (Units=GPa)
#
#
# Indices 1 2 3 4 5 6 
#
# 1 99.8293 28.8202 9.6801 0.0000 0.0000 0.0000
# 2 28.8202 140.9279 61.7951 0.0000 0.0000 0.0000
# 3 9.6801 61.7951 105.5814 0.0000 0.0000 0.0000
# 4 0.0000 0.0000 0.0000 48.6237 0.0000 0.0000
# 5 0.0000 0.0000 0.0000 0.0000 32.0315 0.0000
# 6 0.0000 0.0000 0.0000 0.0000 0.0000 20.5824
#
#
#
# Elastic Compliance Matrix: (Units=1/GPa)
#
#
# Indices 1 2 3 4 5 6 
#
# 1 0.010658 -0.002356 0.000402 0.000000 0.000000 0.000000
# 2 -0.002356 0.010066 -0.005676 0.000000 0.000000 0.000000
# 3 0.000402 -0.005676 0.012756 0.000000 0.000000 0.000000
# 4 0.000000 0.000000 0.000000 0.020566 0.000000 0.000000
# 5 0.000000 0.000000 0.000000 0.000000 0.031219 0.000000
# 6 0.000000 0.000000 0.000000 0.000000 0.000000 0.048585
#
#
# Mechanical properties :
#
#
# Convention : Reuss Voigt Hill
#
# Bulk Modulus (GPa) = 54.88073 60.76996 57.82534
# Shear Modulus (GPa) = 32.21964 36.65041 34.43502
#
# Velocity S-wave (km/s) = 3.58955 3.82842 3.71091
# Velocity P-wave (km/s) = 6.25516 6.62154 6.44096
#
# Compressibility (1/GPa) = 0.01822133
#
# Stress axis : x y z
#
# Youngs Moduli (GPa) = 93.82409 99.34152 78.39193
#
# Poissons Ratio (x) = 0.23402 -0.03148
# Poissons Ratio (y) = 0.22102 0.44493
# Poissons Ratio (z) = -0.03768 0.56383
#
# Static dielectric constant tensor:
#      x y z
#    x 2.031670 0.000000 0.000000 
#    y 0.000000 1.978900 0.000000 
#    z 0.000000 0.000000 1.937870 
# 
# From -- ./inp_files/13164.got.cif
#   From: 2010.05.17/outbox.cif.g08.bks.cpg/sg43_7_cif.got.tgz:13164.got - 2010.06.03 19:21:55.
