data_PCOD9372630
_publ_section_title
;
Structure prediction by ZEFSAII (Michael W. Deem and Ramdas Pophale) SiO2 
 PCOD9372630
Probable space group: F D D 2
;
_chemical_formula_sum "Si O2"
_cell_formula_units_Z 120
_cell_length_a 8.582080
_cell_length_b 25.954215
_cell_length_c 27.331206
_cell_angle_alpha 90.000000
_cell_angle_beta 90.000000
_cell_angle_gamma 90.000000
_cell_volume 6087.784241
_symmetry_space_group_name_H-M "F D D 2"
_symmetry_group_IT_number 43
_symmetry_cell_setting 'orthorhombic'
loop_
_space_group_symop_operation_xyz
x,y,z
-x,-y,z
1/4-x,1/4+y,1/4+z
1/4+x,1/4-y,1/4+z
x,1/2+y,1/2+z
-x,1/2-y,1/2+z
1/4-x,3/4+y,3/4+z
1/4+x,3/4-y,3/4+z
1/2+x,y,1/2+z
1/2-x,-y,1/2+z
3/4-x,1/4+y,3/4+z
3/4+x,1/4-y,3/4+z
1/2+x,1/2+y,z
1/2-x,1/2-y,z
3/4-x,3/4+y,1/4+z
3/4+x,3/4-y,1/4+z
loop_
_atom_site_type_symbol
_atom_site_label
_atom_site_fract_x
_atom_site_fract_y
_atom_site_fract_z
Si Si1 0.196099 0.127460 0.384210
Si Si2 0.565319 0.398860 0.697654
Si Si3 0.470232 0.210275 0.917942
Si Si4 0.805824 0.936867 0.483293
Si Si5 0.576837 0.194402 0.250552
Si Si6 0.501125 0.186841 0.362474
Si Si7 0.750000 0.250000 0.986161
Si Si8 0.406110 0.151267 0.525977
O O1 0.037469 0.159133 0.392316
O O2 0.210435 0.087977 0.429212
O O3 0.331357 0.170923 0.382387
O O4 0.207106 0.100374 0.332025
O O5 0.432991 0.442879 0.697071
O O6 0.491139 0.344964 0.711613
O O7 0.635336 0.400240 0.643306
O O8 0.702618 0.406911 0.737244
O O9 0.450830 0.255412 0.878262
O O10 0.602894 0.232021 0.953877
O O11 0.690083 0.901237 0.514921
O O12 0.986691 0.935368 0.500128
O O13 0.774759 0.997729 0.487047
O O14 0.513785 0.181856 0.304653
O O15 0.702767 0.299777 0.016923
#
# Coordination Sequence:
#
# PCOD9372630 Si02
#       8
#    16  16  16  16  16  16   8  16
#     4  12  23  44  69  95 140 180 223 277 350 416
#     4  12  24  42  67 101 138 169 226 294 342 400
#     4  12  22  42  71  99 132 178 224 295 335 409
#     4  11  24  46  66  98 138 179 232 283 340 418
#     4  11  26  43  69  99 134 181 229 288 346 410
#     4  12  24  42  70 104 131 174 236 282 345 414
#     4  12  22  44  68  98 136 176 220 278 348 404
#     4  12  25  43  68 100 139 185 222 287 349 421
#
# _framework density 19.711604999999999
#
# number of rings (size 3 to 8) (size 9 to 14) (size 15 to 20)
#    0.000    0.267    8.000    1.200    5.600    1.600 
#    0.000    0.000    2.933    0.000    0.000    0.000 
#    0.000    0.000    0.000    0.000    0.000    0.000 
#
# Total GULP energy -167628.648285 kJ/mol
# GULP energy per Si atom -5587.621609 kJ/mol
# Density = 1.966674 g / cm^3
# Si number density = 19.711605 Si / 1000 Ang^3
#
#
#
# Elastic Constant Matrix: (Units=GPa)
#
#
# Indices 1 2 3 4 5 6 
#
# 1 75.8667 32.4510 13.1200 0.0000 0.0000 0.0000
# 2 32.4510 80.9586 27.8972 0.0000 0.0000 0.0000
# 3 13.1200 27.8972 91.8758 0.0000 0.0000 0.0000
# 4 0.0000 0.0000 0.0000 22.1874 0.0000 0.0000
# 5 0.0000 0.0000 0.0000 0.0000 16.8316 0.0000
# 6 0.0000 0.0000 0.0000 0.0000 0.0000 35.6449
#
#
#
# Elastic Compliance Matrix: (Units=1/GPa)
#
#
# Indices 1 2 3 4 5 6 
#
# 1 0.015920 -0.006252 -0.000375 0.000000 0.000000 0.000000
# 2 -0.006252 0.016251 -0.004042 0.000000 0.000000 0.000000
# 3 -0.000375 -0.004042 0.012165 0.000000 0.000000 0.000000
# 4 0.000000 0.000000 0.000000 0.045071 0.000000 0.000000
# 5 0.000000 0.000000 0.000000 0.000000 0.059412 0.000000
# 6 0.000000 0.000000 0.000000 0.000000 0.000000 0.028054
#
#
# Mechanical properties :
#
#
# Convention : Reuss Voigt Hill
#
# Bulk Modulus (GPa) = 43.48120 43.95972 43.72046
# Shear Modulus (GPa) = 24.28640 26.61498 25.45069
#
# Velocity S-wave (km/s) = 3.51392 3.67852 3.59716
# Velocity P-wave (km/s) = 6.21048 6.35546 6.28339
#
# Compressibility (1/GPa) = 0.02299845
#
# Stress axis : x y z
#
# Youngs Moduli (GPa) = 62.81360 61.53580 82.20311
#
# Poissons Ratio (x) = 0.38473 0.03083
# Poissons Ratio (y) = 0.39272 0.33223
# Poissons Ratio (z) = 0.02356 0.24870
#
# Static dielectric constant tensor:
#      x y z
#    x 1.742430 0.000000 0.000000 
#    y 0.000000 1.688840 0.000000 
#    z 0.000000 0.000000 1.665030 
# 
# From -- ./inp_files/24475.got.cif
#   From: 2010.05.17/outbox.cif.g08.bks.cpg/sg43_13_cif.got.tgz:24475.got - 2010.06.03 19:21:55.
