data_PCOD9372873
_publ_section_title
;
Structure prediction by ZEFSAII (Michael W. Deem and Ramdas Pophale) SiO2 
 PCOD9372873
Probable space group: F D D 2
;
_chemical_formula_sum "Si O2"
_cell_formula_units_Z 104
_cell_length_a 24.729751
_cell_length_b 20.231848
_cell_length_c 8.397570
_cell_angle_alpha 90.000000
_cell_angle_beta 90.000000
_cell_angle_gamma 90.000000
_cell_volume 4201.544133
_symmetry_space_group_name_H-M "F D D 2"
_symmetry_group_IT_number 43
_symmetry_cell_setting 'orthorhombic'
loop_
_space_group_symop_operation_xyz
x,y,z
-x,-y,z
1/4-x,1/4+y,1/4+z
1/4+x,1/4-y,1/4+z
x,1/2+y,1/2+z
-x,1/2-y,1/2+z
1/4-x,3/4+y,3/4+z
1/4+x,3/4-y,3/4+z
1/2+x,y,1/2+z
1/2-x,-y,1/2+z
3/4-x,1/4+y,3/4+z
3/4+x,1/4-y,3/4+z
1/2+x,1/2+y,z
1/2-x,1/2-y,z
3/4-x,3/4+y,1/4+z
3/4+x,3/4-y,1/4+z
loop_
_atom_site_type_symbol
_atom_site_label
_atom_site_fract_x
_atom_site_fract_y
_atom_site_fract_z
Si Si1 0.366472 0.703805 0.570000
Si Si2 0.223948 0.379670 0.224067
Si Si3 0.279109 0.014417 0.777945
Si Si4 0.883714 0.450864 0.940197
Si Si5 0.964945 0.622589 0.200492
Si Si6 0.000000 0.500000 0.989627
Si Si7 0.410234 0.329689 0.253933
O O1 0.310669 0.666297 0.604891
O O2 0.373392 0.709008 0.380214
O O3 0.408864 0.652500 0.644590
O O4 0.376641 0.773791 0.658345
O O5 0.233648 0.458698 0.248462
O O6 0.190918 0.369403 0.386024
O O7 0.281584 0.364348 0.140965
O O8 0.334706 0.987217 0.852095
O O9 0.257330 0.071565 0.892425
O O10 0.293731 0.043040 0.606025
O O11 0.880225 0.374740 0.884430
O O12 0.944841 0.476657 0.902865
O O13 0.978590 0.558332 0.101462
#
# Coordination Sequence:
#
# PCOD9372873 Si02
#       7
#    16  16  16  16  16   8  16
#     4  12  27  49  82 115 169 220 283 351 425 510
#     4  12  25  48  78 117 162 216 278 341 422 512
#     4  12  25  51  78 116 163 220 280 342 431 508
#     4  12  30  51  83 121 169 226 283 354 421 518
#     4  12  27  49  78 117 157 221 274 343 426 508
#     4  12  28  48  78 116 166 210 278 348 422 494
#     4  12  26  50  78 118 164 222 281 352 430 503
#
# _framework density 24.752804999999999
#
# number of rings (size 3 to 8) (size 9 to 14) (size 15 to 20)
#    0.000    0.000    6.154    1.846    8.615    0.000 
#    0.000    0.769    0.000    0.000    0.000    0.000 
#    0.000    0.000    0.000    0.000    0.000    0.000 
#
# Total GULP energy -145242.663847 kJ/mol
# GULP energy per Si atom -5586.256302 kJ/mol
# Density = 2.469647 g / cm^3
# Si number density = 24.752805 Si / 1000 Ang^3
#
#
#
# Elastic Constant Matrix: (Units=GPa)
#
#
# Indices 1 2 3 4 5 6 
#
# 1 101.1015 52.8955 30.7136 0.0000 0.0000 0.0000
# 2 52.8955 133.0650 33.4189 0.0000 0.0000 0.0000
# 3 30.7136 33.4189 109.8770 0.0002 -0.0001 0.0000
# 4 0.0000 0.0000 0.0002 45.2298 -0.0001 0.0000
# 5 0.0000 0.0000 -0.0001 -0.0001 41.0087 0.0000
# 6 0.0000 0.0000 0.0000 0.0000 0.0000 54.1724
#
#
#
# Elastic Compliance Matrix: (Units=1/GPa)
#
#
# Indices 1 2 3 4 5 6 
#
# 1 0.012973 -0.004598 -0.002228 0.000000 0.000000 0.000000
# 2 -0.004598 0.009766 -0.001685 0.000000 0.000000 0.000000
# 3 -0.002228 -0.001685 0.010236 0.000000 0.000000 0.000000
# 4 0.000000 0.000000 0.000000 0.022109 0.000000 0.000000
# 5 0.000000 0.000000 0.000000 0.000000 0.024385 0.000000
# 6 0.000000 0.000000 0.000000 0.000000 0.000000 0.018460
#
#
# Mechanical properties :
#
#
# Convention : Reuss Voigt Hill
#
# Bulk Modulus (GPa) = 62.67953 64.23329 63.45641
# Shear Modulus (GPa) = 41.57340 43.21653 42.39496
#
# Velocity S-wave (km/s) = 4.10267 4.18296 4.14301
# Velocity P-wave (km/s) = 6.91518 7.02394 6.96977
#
# Compressibility (1/GPa) = 0.01595417
#
# Stress axis : x y z
#
# Youngs Moduli (GPa) = 77.08140 102.39674 97.69028
#
# Poissons Ratio (x) = 0.47077 0.21766
# Poissons Ratio (y) = 0.35438 0.16462
# Poissons Ratio (z) = 0.17174 0.17255
#
# Static dielectric constant tensor:
#      x y z
#    x 2.009720 0.000000 0.000000 
#    y 0.000000 1.951620 0.000000 
#    z 0.000000 0.000000 1.980000 
# 
# From -- ./inp_files/4249.got.cif
#   From: 2010.05.17/outbox.cif.g08.bks.cpg/sg43_3_cif.got.tgz:4249.got - 2010.06.03 19:21:55.
