data_PCOD9372802
_publ_section_title
;
Structure prediction by ZEFSAII (Michael W. Deem and Ramdas Pophale) SiO2 
 PCOD9372802
Probable space group: F D D 2
;
_chemical_formula_sum "Si O2"
_cell_formula_units_Z 80
_cell_length_a 11.909815
_cell_length_b 11.115598
_cell_length_c 26.810174
_cell_angle_alpha 90.000000
_cell_angle_beta 90.000000
_cell_angle_gamma 90.000000
_cell_volume 3549.257265
_symmetry_space_group_name_H-M "F D D 2"
_symmetry_group_IT_number 43
_symmetry_cell_setting 'orthorhombic'
loop_
_space_group_symop_operation_xyz
x,y,z
-x,-y,z
1/4-x,1/4+y,1/4+z
1/4+x,1/4-y,1/4+z
x,1/2+y,1/2+z
-x,1/2-y,1/2+z
1/4-x,3/4+y,3/4+z
1/4+x,3/4-y,3/4+z
1/2+x,y,1/2+z
1/2-x,-y,1/2+z
3/4-x,1/4+y,3/4+z
3/4+x,1/4-y,3/4+z
1/2+x,1/2+y,z
1/2-x,1/2-y,z
3/4-x,3/4+y,1/4+z
3/4+x,3/4-y,1/4+z
loop_
_atom_site_type_symbol
_atom_site_label
_atom_site_fract_x
_atom_site_fract_y
_atom_site_fract_z
Si Si1 0.971568 0.849680 0.514460
Si Si2 0.161126 0.857484 0.438984
Si Si3 0.525135 0.372614 0.185847
Si Si4 0.404722 0.090575 0.523144
Si Si5 0.538168 0.857979 0.841850
O O1 0.889049 0.858691 0.466926
O O2 0.969530 0.713743 0.534205
O O3 0.898948 0.913052 0.558047
O O4 0.092311 0.879639 0.490487
O O5 0.250000 0.750000 0.445405
O O6 0.071869 0.819625 0.396745
O O7 0.211964 0.984195 0.417608
O O8 0.500000 0.500000 0.157615
O O9 0.428111 0.364216 0.227272
O O10 0.321342 0.048860 0.567137
O O11 0.500000 0.000000 0.508968
O O12 0.500000 0.000000 0.840886
#
# Coordination Sequence:
#
# PCOD9372802 Si02
#       5
#    16  16  16  16  16
#     4   9  19  37  59  83 116 159 204 247 307 378
#     4  12  23  36  60  93 124 157 210 270 315 367
#     4   9  19  36  61  84 113 161 203 243 307 379
#     4   9  17  35  60  88 119 152 198 256 316 376
#     4   9  20  38  58  86 122 165 209 250 312 396
#
# _framework density 22.539928
#
# number of rings (size 3 to 8) (size 9 to 14) (size 15 to 20)
#    0.000    2.400    0.000    5.400    0.000    3.200 
#    0.000   18.000    0.000    1.200    0.000    5.600 
#    0.000    0.000    0.000    0.000    0.000    0.000 
#
# Total GULP energy -111363.090190 kJ/mol
# GULP energy per Si atom -5568.154510 kJ/mol
# Density = 2.248863 g / cm^3
# Si number density = 22.539928 Si / 1000 Ang^3
#
#
#
# Elastic Constant Matrix: (Units=GPa)
#
#
# Indices 1 2 3 4 5 6 
#
# 1 113.9994 55.8717 45.8601 0.0000 0.0000 0.0000
# 2 55.8717 109.3976 9.8238 0.0000 0.0000 0.0000
# 3 45.8601 9.8238 77.8362 0.0000 0.0000 0.0000
# 4 0.0000 0.0000 0.0000 11.0402 0.0000 0.0000
# 5 0.0000 0.0000 0.0000 0.0000 122.8031 0.0000
# 6 0.0000 0.0000 0.0000 0.0000 0.0000 24.5789
#
#
#
# Elastic Compliance Matrix: (Units=1/GPa)
#
#
# Indices 1 2 3 4 5 6 
#
# 1 0.015677 -0.007259 -0.008321 0.000000 0.000000 0.000000
# 2 -0.007259 0.012607 0.002686 0.000000 0.000000 0.000000
# 3 -0.008321 0.002686 0.017411 0.000000 0.000000 0.000000
# 4 0.000000 0.000000 0.000000 0.090578 0.000000 0.000000
# 5 0.000000 0.000000 0.000000 0.000000 0.008143 0.000000
# 6 0.000000 0.000000 0.000000 0.000000 0.000000 0.040685
#
#
# Mechanical properties :
#
#
# Convention : Reuss Voigt Hill
#
# Bulk Modulus (GPa) = 50.23283 58.26048 54.24666
# Shear Modulus (GPa) = 22.98583 44.32961 33.65772
#
# Velocity S-wave (km/s) = 3.19687 4.43958 3.86845
# Velocity P-wave (km/s) = 5.99676 7.22382 6.63870
#
# Compressibility (1/GPa) = 0.01990730
#
# Stress axis : x y z
#
# Youngs Moduli (GPa) = 63.78747 79.31904 57.43548
#
# Poissons Ratio (x) = 0.57581 0.47789
# Poissons Ratio (y) = 0.46306 -0.15427
# Poissons Ratio (z) = 0.53074 -0.21305
#
# Static dielectric constant tensor:
#      x y z
#    x 1.585010 0.000000 0.000000 
#    y 0.000000 1.930660 0.000000 
#    z 0.000000 0.000000 1.833170 
# 
# From -- ./inp_files/28376.got.cif
#   From: 2010.05.17/outbox.cif.g08.bks.cpg/sg43_15_cif.got.tgz:28376.got - 2010.06.03 19:21:55.
