data_PCOD9372954
_publ_section_title
;
Structure prediction by ZEFSAII (Michael W. Deem and Ramdas Pophale) SiO2 
 PCOD9372954
Probable space group: F D D 2
;
_chemical_formula_sum "Si O2"
_cell_formula_units_Z 80
_cell_length_a 22.911260
_cell_length_b 6.036923
_cell_length_c 22.791312
_cell_angle_alpha 90.000000
_cell_angle_beta 90.000000
_cell_angle_gamma 90.000000
_cell_volume 3152.346416
_symmetry_space_group_name_H-M "F D D 2"
_symmetry_group_IT_number 43
_symmetry_cell_setting 'orthorhombic'
loop_
_space_group_symop_operation_xyz
x,y,z
-x,-y,z
1/4-x,1/4+y,1/4+z
1/4+x,1/4-y,1/4+z
x,1/2+y,1/2+z
-x,1/2-y,1/2+z
1/4-x,3/4+y,3/4+z
1/4+x,3/4-y,3/4+z
1/2+x,y,1/2+z
1/2-x,-y,1/2+z
3/4-x,1/4+y,3/4+z
3/4+x,1/4-y,3/4+z
1/2+x,1/2+y,z
1/2-x,1/2-y,z
3/4-x,3/4+y,1/4+z
3/4+x,3/4-y,1/4+z
loop_
_atom_site_type_symbol
_atom_site_label
_atom_site_fract_x
_atom_site_fract_y
_atom_site_fract_z
Si Si1 0.328814 0.830912 0.916970
Si Si2 0.308769 0.834018 0.688091
Si Si3 0.177775 0.432334 0.803522
Si Si4 0.870427 0.207335 0.506140
Si Si5 0.052659 0.147283 0.278588
O O1 0.392541 0.722205 0.903509
O O2 0.342780 0.031631 0.961494
O O3 0.299289 0.943349 0.860789
O O4 0.408630 0.376391 0.967787
O O5 0.250000 0.750000 0.658219
O O6 0.299750 0.642225 0.957519
O O7 0.291337 0.990604 0.743750
O O8 0.163959 0.170880 0.800991
O O9 0.112226 0.528760 0.797779
O O10 0.817514 0.344585 0.535081
O O11 0.000000 0.000000 0.304024
#
# Coordination Sequence:
#
# PCOD9372954 Si02
#       5
#    16  16  16  16  16
#     4   9  19  34  54  79 112 145 184 232 279 331
#     4   9  19  36  55  77 110 147 185 231 278 331
#     4   9  19  34  53  79 111 144 185 232 277 333
#     4   8  18  34  54  72 109 148 176 235 284 322
#     4   9  19  36  55  78 112 145 183 232 279 335
#
# _framework density 25.377922999999999
#
# number of rings (size 3 to 8) (size 9 to 14) (size 15 to 20)
#    0.000    4.000    0.000    0.000    0.000   13.600 
#    3.600    2.000    0.000    0.000    0.000    0.000 
#    0.000    0.000    0.000    0.000    0.000    0.000 
#
# Total GULP energy -111464.121575 kJ/mol
# GULP energy per Si atom -5573.206079 kJ/mol
# Density = 2.532016 g / cm^3
# Si number density = 25.377923 Si / 1000 Ang^3
#
#
#
# Elastic Constant Matrix: (Units=GPa)
#
#
# Indices 1 2 3 4 5 6 
#
# 1 74.0353 10.8826 -14.3415 0.0000 0.0000 -0.0002
# 2 10.8826 131.5446 26.2581 -0.0005 0.0001 -0.0001
# 3 -14.3415 26.2581 92.9519 -0.0001 0.0000 0.0002
# 4 0.0000 -0.0005 -0.0001 20.7044 0.0001 0.0001
# 5 0.0000 0.0001 0.0000 0.0001 17.9531 0.0000
# 6 -0.0002 -0.0001 0.0002 0.0001 0.0000 36.0723
#
#
#
# Elastic Compliance Matrix: (Units=1/GPa)
#
#
# Indices 1 2 3 4 5 6 
#
# 1 0.014280 -0.001718 0.002689 0.000000 0.000000 0.000000
# 2 -0.001718 0.008263 -0.002599 0.000000 0.000000 0.000000
# 3 0.002689 -0.002599 0.011907 0.000000 0.000000 0.000000
# 4 0.000000 0.000000 0.000000 0.048299 0.000000 0.000000
# 5 0.000000 0.000000 0.000000 0.000000 0.055701 0.000000
# 6 0.000000 0.000000 0.000000 0.000000 0.000000 0.027722
#
#
# Mechanical properties :
#
#
# Convention : Reuss Voigt Hill
#
# Bulk Modulus (GPa) = 32.05814 38.23669 35.14742
# Shear Modulus (GPa) = 27.80438 33.32812 30.56625
#
# Velocity S-wave (km/s) = 3.31360 3.62784 3.47427
# Velocity P-wave (km/s) = 5.22490 5.71384 5.47483
#
# Compressibility (1/GPa) = 0.03119332
#
# Stress axis : x y z
#
# Youngs Moduli (GPa) = 70.02579 121.02170 83.98156
#
# Poissons Ratio (x) = 0.20793 -0.22580
# Poissons Ratio (y) = 0.12031 0.21829
# Poissons Ratio (z) = -0.18828 0.31457
#
# Static dielectric constant tensor:
#      x y z
#    x 2.102120 0.000000 0.000000 
#    y 0.000000 2.100120 0.000000 
#    z 0.000000 0.000000 2.094260 
# 
# From -- ./inp_files/23557.got.cif
#   From: 2010.05.17/outbox.cif.g08.bks.cpg/sg43_12_cif.got.tgz:23557.got - 2010.06.03 19:21:55.
