data_PCOD9372700
_publ_section_title
;
Structure prediction by ZEFSAII (Michael W. Deem and Ramdas Pophale) SiO2 
 PCOD9372700
Probable space group: F D D 2
;
_chemical_formula_sum "Si O2"
_cell_formula_units_Z 88
_cell_length_a 27.445264
_cell_length_b 24.188363
_cell_length_c 5.403995
_cell_angle_alpha 90.000000
_cell_angle_beta 90.000000
_cell_angle_gamma 90.000000
_cell_volume 3587.474549
_symmetry_space_group_name_H-M "F D D 2"
_symmetry_group_IT_number 43
_symmetry_cell_setting 'orthorhombic'
loop_
_space_group_symop_operation_xyz
x,y,z
-x,-y,z
1/4-x,1/4+y,1/4+z
1/4+x,1/4-y,1/4+z
x,1/2+y,1/2+z
-x,1/2-y,1/2+z
1/4-x,3/4+y,3/4+z
1/4+x,3/4-y,3/4+z
1/2+x,y,1/2+z
1/2-x,-y,1/2+z
3/4-x,1/4+y,3/4+z
3/4+x,1/4-y,3/4+z
1/2+x,1/2+y,z
1/2-x,1/2-y,z
3/4-x,3/4+y,1/4+z
3/4+x,3/4-y,1/4+z
loop_
_atom_site_type_symbol
_atom_site_label
_atom_site_fract_x
_atom_site_fract_y
_atom_site_fract_z
Si Si1 0.408793 0.162170 0.850740
Si Si2 0.187837 0.176674 0.247161
Si Si3 0.584314 0.534580 0.290051
Si Si4 0.750000 0.250000 0.417641
Si Si5 0.530312 0.747844 0.065524
Si Si6 0.907070 0.360658 0.463804
O O1 0.443769 0.118950 0.711626
O O2 0.387038 0.206545 0.659940
O O3 0.434914 0.198195 0.058746
O O4 0.359569 0.131089 0.942694
O O5 0.166020 0.231565 0.367908
O O6 0.232591 0.199046 0.087829
O O7 0.146105 0.154147 0.070541
O O8 0.543946 0.520620 0.495810
O O9 0.573500 0.588541 0.126849
O O10 0.493390 0.757476 0.835566
O O11 0.559153 0.692208 0.992176
#
# Coordination Sequence:
#
# PCOD9372700 Si02
#       6
#    16  16  16   8  16  16
#     4  11  26  50  77 102 147 208 252 311 390 471
#     4  11  25  45  75 105 146 191 254 310 388 452
#     4  11  25  45  75 105 146 191 254 310 388 452
#     4  12  24  44  68 118 148 180 254 332 380 458
#     4  12  31  50  76 119 162 201 264 328 395 470
#     4  11  26  50  77 102 147 208 252 311 390 471
#
# _framework density 24.529792
#
# number of rings (size 3 to 8) (size 9 to 14) (size 15 to 20)
#    0.000    0.727    0.000    6.000   12.727    5.818 
#    3.273    0.000    0.000    0.000    0.000    0.000 
#    0.000    0.000    0.000    0.000    0.000    0.000 
#
# Total GULP energy -123293.985836 kJ/mol
# GULP energy per Si atom -5604.272083 kJ/mol
# Density = 2.447396 g / cm^3
# Si number density = 24.529792 Si / 1000 Ang^3
#
#
#
# Elastic Constant Matrix: (Units=GPa)
#
#
# Indices 1 2 3 4 5 6 
#
# 1 62.1196 36.6041 20.8843 -0.0298 0.0160 0.0227
# 2 36.6041 125.0594 20.3156 -0.1868 0.0181 0.0063
# 3 20.8843 20.3156 76.8439 -0.2547 0.0932 0.0444
# 4 -0.0298 -0.1868 -0.2547 47.5362 0.0398 0.0224
# 5 0.0160 0.0181 0.0932 0.0398 34.9085 -0.0001
# 6 0.0227 0.0063 0.0444 0.0224 -0.0001 36.8061
#
#
#
# Elastic Compliance Matrix: (Units=1/GPa)
#
#
# Indices 1 2 3 4 5 6 
#
# 1 0.020673 -0.005369 -0.004199 -0.000031 0.000005 -0.000007
# 2 -0.005369 0.009749 -0.001118 0.000029 0.000000 0.000003
# 3 -0.004199 -0.001118 0.014451 0.000070 -0.000036 -0.000015
# 4 -0.000031 0.000029 0.000070 0.021037 -0.000024 -0.000013
# 5 0.000005 0.000000 -0.000036 -0.000024 0.028646 0.000000
# 6 -0.000007 0.000003 -0.000015 -0.000013 0.000000 0.027169
#
#
# Mechanical properties :
#
#
# Convention : Reuss Voigt Hill
#
# Bulk Modulus (GPa) = 42.55216 46.62565 44.58891
# Shear Modulus (GPa) = 33.12744 36.26477 34.69610
#
# Velocity S-wave (km/s) = 3.67890 3.84916 3.76499
# Velocity P-wave (km/s) = 5.95235 6.22927 6.09238
#
# Compressibility (1/GPa) = 0.02350057
#
# Stress axis : x y z
#
# Youngs Moduli (GPa) = 48.37156 102.57111 69.20148
#
# Poissons Ratio (x) = 0.55069 0.29059
# Poissons Ratio (y) = 0.25970 0.07739
# Poissons Ratio (z) = 0.20312 0.11470
#
# Static dielectric constant tensor:
#      x y z
#    x 1.924260 0.000070 0.000040 
#    y 0.000070 1.908020 -0.000060 
#    z 0.000040 -0.000060 1.990950 
# 
# From -- ./inp_files/1382.got.cif
#   From: 2010.05.17/outbox.cif.g08.bks.cpg/sg43_1_cif.got.tgz:1382.got - 2010.06.03 19:21:55.
