data_PCOD9372934
_publ_section_title
;
Structure prediction by ZEFSAII (Michael W. Deem and Ramdas Pophale) SiO2 
 PCOD9372934
Probable space group: F D D 2
;
_chemical_formula_sum "Si O2"
_cell_formula_units_Z 48
_cell_length_a 14.235411
_cell_length_b 27.147167
_cell_length_c 5.200526
_cell_angle_alpha 90.000000
_cell_angle_beta 90.000000
_cell_angle_gamma 90.000000
_cell_volume 2009.748888
_symmetry_space_group_name_H-M "F D D 2"
_symmetry_group_IT_number 43
_symmetry_cell_setting 'orthorhombic'
loop_
_space_group_symop_operation_xyz
x,y,z
-x,-y,z
1/4-x,1/4+y,1/4+z
1/4+x,1/4-y,1/4+z
x,1/2+y,1/2+z
-x,1/2-y,1/2+z
1/4-x,3/4+y,3/4+z
1/4+x,3/4-y,3/4+z
1/2+x,y,1/2+z
1/2-x,-y,1/2+z
3/4-x,1/4+y,3/4+z
3/4+x,1/4-y,3/4+z
1/2+x,1/2+y,z
1/2-x,1/2-y,z
3/4-x,3/4+y,1/4+z
3/4+x,3/4-y,1/4+z
loop_
_atom_site_type_symbol
_atom_site_label
_atom_site_fract_x
_atom_site_fract_y
_atom_site_fract_z
Si Si1 0.649903 0.023388 0.301630
Si Si2 0.946914 0.431084 0.805347
Si Si3 0.594253 0.684076 0.371990
O O1 0.605031 0.048132 0.554025
O O2 0.756739 0.041229 0.267342
O O3 0.646853 0.965284 0.358836
O O4 0.593358 0.042067 0.055506
O O5 0.927084 0.372965 0.826676
O O6 0.057478 0.438581 0.767848
#
# Coordination Sequence:
#
# PCOD9372934 Si02
#       3
#    16  16  16
#     4  12  30  52  83 120 161 216 271 334 402 489
#     4  12  30  52  83 121 165 210 274 330 411 481
#     4  12  29  54  84 119 166 214 269 339 404 483
#
# _framework density 23.883583000000002
#
# number of rings (size 3 to 8) (size 9 to 14) (size 15 to 20)
#    0.000    0.000    3.333    3.000    4.667   16.000 
#    0.000    0.000    0.000    0.000    0.000    0.000 
#    0.000    0.000    0.000    0.000    0.000    0.000 
#
# Total GULP energy -67435.327296 kJ/mol
# GULP energy per Si atom -5619.610608 kJ/mol
# Density = 2.382922 g / cm^3
# Si number density = 23.883583 Si / 1000 Ang^3
#
#
#
# Elastic Constant Matrix: (Units=GPa)
#
#
# Indices 1 2 3 4 5 6 
#
# 1 257.3273 72.9775 110.4317 -0.0002 -0.0022 0.0000
# 2 72.9775 200.9614 89.8611 0.0000 0.0002 0.0000
# 3 110.4317 89.8611 209.1041 0.0001 -0.0041 -0.0004
# 4 -0.0002 0.0000 0.0001 25.3104 0.0001 -0.0001
# 5 -0.0022 0.0002 -0.0041 0.0001 42.2846 0.0001
# 6 0.0000 0.0000 -0.0004 -0.0001 0.0001 41.5849
#
#
#
# Elastic Compliance Matrix: (Units=1/GPa)
#
#
# Indices 1 2 3 4 5 6 
#
# 1 0.005128 -0.000806 -0.002362 0.000000 0.000000 0.000000
# 2 -0.000806 0.006286 -0.002276 0.000000 0.000000 0.000000
# 3 -0.002362 -0.002276 0.007008 0.000000 0.000001 0.000000
# 4 0.000000 0.000000 0.000000 0.039509 0.000000 0.000000
# 5 0.000000 0.000000 0.000001 0.000000 0.023649 0.000000
# 6 0.000000 0.000000 0.000000 0.000000 0.000000 0.024047
#
#
# Mechanical properties :
#
#
# Convention : Reuss Voigt Hill
#
# Bulk Modulus (GPa) = 132.71935 134.88149 133.80042
# Shear Modulus (GPa) = 42.00698 48.11081 45.05890
#
# Velocity S-wave (km/s) = 4.19838 4.49306 4.34822
# Velocity P-wave (km/s) = 8.89898 9.13860 9.01958
#
# Compressibility (1/GPa) = 0.00753470
#
# Stress axis : x y z
#
# Youngs Moduli (GPa) = 194.99457 159.07154 142.70002
#
# Poissons Ratio (x) = 0.12824 0.33705
# Poissons Ratio (y) = 0.15720 0.32476
# Poissons Ratio (z) = 0.46056 0.36202
#
# Static dielectric constant tensor:
#      x y z
#    x 1.879350 0.000000 0.000000 
#    y 0.000000 1.900440 0.000000 
#    z 0.000000 0.000000 1.881030 
# 
# From -- ./inp_files/278.got.cif
#   From: 2010.05.17/outbox.cif.g08.bks.cpg/sg43_1_cif.got.tgz:278.got - 2010.06.03 19:21:55.
