data_PCOD9372353
_publ_section_title
;
Structure prediction by ZEFSAII (Michael W. Deem and Ramdas Pophale) SiO2 
 PCOD9372353
Probable space group: F D D 2
;
_chemical_formula_sum "Si O2"
_cell_formula_units_Z 104
_cell_length_a 8.368064
_cell_length_b 31.702686
_cell_length_c 16.071342
_cell_angle_alpha 90.000000
_cell_angle_beta 90.000000
_cell_angle_gamma 90.000000
_cell_volume 4263.568013
_symmetry_space_group_name_H-M "F D D 2"
_symmetry_group_IT_number 43
_symmetry_cell_setting 'orthorhombic'
loop_
_space_group_symop_operation_xyz
x,y,z
-x,-y,z
1/4-x,1/4+y,1/4+z
1/4+x,1/4-y,1/4+z
x,1/2+y,1/2+z
-x,1/2-y,1/2+z
1/4-x,3/4+y,3/4+z
1/4+x,3/4-y,3/4+z
1/2+x,y,1/2+z
1/2-x,-y,1/2+z
3/4-x,1/4+y,3/4+z
3/4+x,1/4-y,3/4+z
1/2+x,1/2+y,z
1/2-x,1/2-y,z
3/4-x,3/4+y,1/4+z
3/4+x,3/4-y,1/4+z
loop_
_atom_site_type_symbol
_atom_site_label
_atom_site_fract_x
_atom_site_fract_y
_atom_site_fract_z
Si Si1 0.000000 0.500000 0.318620
Si Si2 0.839869 0.519560 0.054875
Si Si3 0.880626 0.166461 0.522245
Si Si4 0.891185 0.157390 0.819700
Si Si5 0.869185 0.548844 0.475256
Si Si6 0.068435 0.954987 0.365736
Si Si7 0.621191 0.365094 0.169655
O O1 0.056660 0.537672 0.259864
O O2 0.115737 0.475849 0.386556
O O3 0.698781 0.485893 0.038965
O O4 0.896546 0.537182 0.963836
O O5 0.000000 0.500000 0.089498
O O6 0.767836 0.558946 0.102424
O O7 0.739953 0.134968 0.551278
O O8 0.023248 0.182359 0.582764
O O9 0.976844 0.139523 0.454612
O O10 0.790216 0.179817 0.745138
O O11 0.752431 0.147839 0.883654
O O12 0.735520 0.585270 0.478799
O O13 0.933848 0.919495 0.354400
O O14 0.000000 0.000000 0.333410
#
# Coordination Sequence:
#
# PCOD9372353 Si02
#       7
#     8  16  16  16  16  16  16
#     4  12  22  42  80  98 130 198 246 284 352 442
#     4  11  20  41  75 100 131 180 251 294 340 431
#     4  12  25  42  71 105 142 185 243 301 363 436
#     4  12  25  39  69 106 142 185 235 305 364 428
#     4  12  21  44  73 102 136 186 249 289 356 445
#     4  11  21  44  72 101 132 181 248 296 346 442
#     4  12  25  41  67 107 144 180 229 310 372 421
#
# _framework density 24.392717000000001
#
# number of rings (size 3 to 8) (size 9 to 14) (size 15 to 20)
#    0.000    0.308    9.231    0.923    0.000    0.000 
#    0.000    1.538    8.462    0.000    0.000    0.000 
#    0.000    0.000    0.000    0.000    0.000    0.000 
#
# Total GULP energy -145187.200348 kJ/mol
# GULP energy per Si atom -5584.123090 kJ/mol
# Density = 2.433720 g / cm^3
# Si number density = 24.392717 Si / 1000 Ang^3
#
#
#
# Elastic Constant Matrix: (Units=GPa)
#
#
# Indices 1 2 3 4 5 6 
#
# 1 114.9406 60.1801 4.8294 0.0000 0.0000 0.0000
# 2 60.1801 188.4577 26.1561 0.0000 0.0000 0.0000
# 3 4.8294 26.1561 26.9614 0.0000 0.0000 0.0000
# 4 0.0000 0.0000 0.0000 22.3481 0.0000 0.0000
# 5 0.0000 0.0000 0.0000 0.0000 24.8405 0.0000
# 6 0.0000 0.0000 0.0000 0.0000 0.0000 70.3043
#
#
#
# Elastic Compliance Matrix: (Units=1/GPa)
#
#
# Indices 1 2 3 4 5 6 
#
# 1 0.010505 -0.003575 0.001586 0.000000 0.000000 0.000000
# 2 -0.003575 0.007348 -0.006489 0.000000 0.000000 0.000000
# 3 0.001586 -0.006489 0.043101 0.000000 0.000000 0.000000
# 4 0.000000 0.000000 0.000000 0.044747 0.000000 0.000000
# 5 0.000000 0.000000 0.000000 0.000000 0.040257 0.000000
# 6 0.000000 0.000000 0.000000 0.000000 0.000000 0.014224
#
#
# Mechanical properties :
#
#
# Convention : Reuss Voigt Hill
#
# Bulk Modulus (GPa) = 22.72723 56.96567 39.84645
# Shear Modulus (GPa) = 26.06855 39.44485 32.75670
#
# Velocity S-wave (km/s) = 3.27265 4.02565 3.66852
# Velocity P-wave (km/s) = 4.85981 6.70910 5.85789
#
# Compressibility (1/GPa) = 0.04400009
#
# Stress axis : x y z
#
# Youngs Moduli (GPa) = 95.19135 136.08582 23.20154
#
# Poissons Ratio (x) = 0.48648 -0.03680
# Poissons Ratio (y) = 0.34029 0.15054
# Poissons Ratio (z) = -0.15100 0.88299
#
# Static dielectric constant tensor:
#      x y z
#    x 2.038720 0.000000 0.000000 
#    y 0.000000 1.962960 0.000000 
#    z 0.000000 0.000000 2.025000 
# 
# From -- ./inp_files/16648.got.cif
#   From: 2010.05.17/outbox.cif.g08.bks.cpg/sg43_9_cif.got.tgz:16648.got - 2010.06.03 19:21:55.
