data_PCOD9372796
_publ_section_title
;
Structure prediction by ZEFSAII (Michael W. Deem and Ramdas Pophale) SiO2 
 PCOD9372796
Probable space group: F D D 2
;
_chemical_formula_sum "Si O2"
_cell_formula_units_Z 88
_cell_length_a 18.047534
_cell_length_b 9.416891
_cell_length_c 21.122167
_cell_angle_alpha 90.000000
_cell_angle_beta 90.000000
_cell_angle_gamma 90.000000
_cell_volume 3589.747355
_symmetry_space_group_name_H-M "F D D 2"
_symmetry_group_IT_number 43
_symmetry_cell_setting 'orthorhombic'
loop_
_space_group_symop_operation_xyz
x,y,z
-x,-y,z
1/4-x,1/4+y,1/4+z
1/4+x,1/4-y,1/4+z
x,1/2+y,1/2+z
-x,1/2-y,1/2+z
1/4-x,3/4+y,3/4+z
1/4+x,3/4-y,3/4+z
1/2+x,y,1/2+z
1/2-x,-y,1/2+z
3/4-x,1/4+y,3/4+z
3/4+x,1/4-y,3/4+z
1/2+x,1/2+y,z
1/2-x,1/2-y,z
3/4-x,3/4+y,1/4+z
3/4+x,3/4-y,1/4+z
loop_
_atom_site_type_symbol
_atom_site_label
_atom_site_fract_x
_atom_site_fract_y
_atom_site_fract_z
Si Si1 0.860066 0.478442 0.142130
Si Si2 0.711009 0.453339 0.062385
Si Si3 0.318946 0.639402 0.765203
Si Si4 0.250000 0.250000 0.448923
Si Si5 0.130221 0.830537 0.174473
Si Si6 0.532867 0.631821 0.535708
O O1 0.788518 0.496688 0.095572
O O2 0.848565 0.599403 0.194566
O O3 0.874175 0.336623 0.185395
O O4 0.927193 0.447195 0.093501
O O5 0.680474 0.341428 0.113112
O O6 0.643451 0.563589 0.052147
O O7 0.724071 0.374784 0.996396
O O8 0.250000 0.750000 0.760487
O O9 0.278415 0.500414 0.794826
O O10 0.194181 0.162113 0.405758
O O11 0.156108 0.926772 0.234075
O O12 0.500000 0.500000 0.496621
#
# Coordination Sequence:
#
# PCOD9372796 Si02
#       6
#    16  16  16   8  16  16
#     4  12  26  49  77 109 161 206 255 326 399 471
#     4  12  25  48  76 112 158 205 258 323 394 467
#     4  12  28  48  77 121 156 202 268 331 388 465
#     4  12  26  44  78 118 146 202 264 316 398 482
#     4  12  22  46  80 108 148 208 258 312 391 479
#     4  12  25  50  77 109 152 209 256 315 400 473
#
# _framework density 24.51426
#
# number of rings (size 3 to 8) (size 9 to 14) (size 15 to 20)
#    0.000    0.000    7.273    2.182    3.818    2.909 
#    0.000    1.818    0.000    0.000    0.000    0.000 
#    0.000    0.000    0.000    0.000    0.000    0.000 
#
# Total GULP energy -122611.340720 kJ/mol
# GULP energy per Si atom -5573.242760 kJ/mol
# Density = 2.445846 g / cm^3
# Si number density = 24.514260 Si / 1000 Ang^3
#
#
#
# Elastic Constant Matrix: (Units=GPa)
#
#
# Indices 1 2 3 4 5 6 
#
# 1 126.6953 56.4114 34.3519 0.0000 0.0000 0.0000
# 2 56.4114 91.6857 9.4242 0.0000 0.0000 0.0000
# 3 34.3519 9.4242 94.3534 0.0000 0.0000 0.0000
# 4 0.0000 0.0000 0.0000 38.4935 0.0000 0.0000
# 5 0.0000 0.0000 0.0000 0.0000 24.1258 0.0000
# 6 0.0000 0.0000 0.0000 0.0000 0.0000 50.0835
#
#
#
# Elastic Compliance Matrix: (Units=1/GPa)
#
#
# Indices 1 2 3 4 5 6 
#
# 1 0.012011 -0.007013 -0.003673 0.000000 0.000000 0.000000
# 2 -0.007013 0.015114 0.001043 0.000000 0.000000 0.000000
# 3 -0.003673 0.001043 0.011831 0.000000 0.000000 0.000000
# 4 0.000000 0.000000 0.000000 0.025978 0.000000 0.000000
# 5 0.000000 0.000000 0.000000 0.000000 0.041449 0.000000
# 6 0.000000 0.000000 0.000000 0.000000 0.000000 0.019967
#
#
# Mechanical properties :
#
#
# Convention : Reuss Voigt Hill
#
# Bulk Modulus (GPa) = 50.83016 57.01214 53.92115
# Shear Modulus (GPa) = 32.85323 36.71036 34.78179
#
# Velocity S-wave (km/s) = 3.66480 3.87397 3.77083
# Velocity P-wave (km/s) = 6.21994 6.58159 6.40332
#
# Compressibility (1/GPa) = 0.01967336
#
# Stress axis : x y z
#
# Youngs Moduli (GPa) = 83.25644 66.16300 84.52147
#
# Poissons Ratio (x) = 0.46397 0.31041
# Poissons Ratio (y) = 0.58384 -0.08820
# Poissons Ratio (z) = 0.30576 -0.06904
#
# Static dielectric constant tensor:
#      x y z
#    x 2.240940 0.000000 0.000000 
#    y 0.000000 2.039540 0.000000 
#    z 0.000000 0.000000 1.949100 
# 
# From -- ./inp_files/17971.got.cif
#   From: 2010.05.17/outbox.cif.g08.bks.cpg/sg43_9_cif.got.tgz:17971.got - 2010.06.03 19:21:55.
