data_PCOD9372684
_publ_section_title
;
Structure prediction by ZEFSAII (Michael W. Deem and Ramdas Pophale) SiO2 
 PCOD9372684
Probable space group: F D D 2
;
_chemical_formula_sum "Si O2"
_cell_formula_units_Z 64
_cell_length_a 16.374348
_cell_length_b 14.538049
_cell_length_c 10.070333
_cell_angle_alpha 90.000000
_cell_angle_beta 90.000000
_cell_angle_gamma 90.000000
_cell_volume 2397.253582
_symmetry_space_group_name_H-M "F D D 2"
_symmetry_group_IT_number 43
_symmetry_cell_setting 'orthorhombic'
loop_
_space_group_symop_operation_xyz
x,y,z
-x,-y,z
1/4-x,1/4+y,1/4+z
1/4+x,1/4-y,1/4+z
x,1/2+y,1/2+z
-x,1/2-y,1/2+z
1/4-x,3/4+y,3/4+z
1/4+x,3/4-y,3/4+z
1/2+x,y,1/2+z
1/2-x,-y,1/2+z
3/4-x,1/4+y,3/4+z
3/4+x,1/4-y,3/4+z
1/2+x,1/2+y,z
1/2-x,1/2-y,z
3/4-x,3/4+y,1/4+z
3/4+x,3/4-y,1/4+z
loop_
_atom_site_type_symbol
_atom_site_label
_atom_site_fract_x
_atom_site_fract_y
_atom_site_fract_z
Si Si1 0.374580 0.441677 0.496230
Si Si2 0.268818 0.639799 0.823790
Si Si3 0.543628 0.362750 0.499111
Si Si4 0.297793 0.846647 0.546789
O O1 0.297022 0.412776 0.411852
O O2 0.415989 0.538389 0.465448
O O3 0.345146 0.447928 0.648696
O O4 0.389656 0.356678 0.103592
O O5 0.250000 0.750000 0.839021
O O6 0.254361 0.616628 0.669488
O O7 0.302725 0.618604 0.221753
O O8 0.549961 0.350392 0.656992
O O9 0.250000 0.750000 0.518564
#
# Coordination Sequence:
#
# PCOD9372684 Si02
#       4
#    16  16  16  16
#     4  11  25  47  75 108 148 198 253 314 379 459
#     4  11  27  47  77 110 152 194 255 315 385 459
#     4  11  25  48  73 107 151 198 252 313 382 458
#     4  11  24  50  71 111 148 200 245 315 384 459
#
# _framework density 26.697219
#
# number of rings (size 3 to 8) (size 9 to 14) (size 15 to 20)
#    0.000    1.000    2.500    3.000   10.500    2.000 
#   13.500    0.000    0.000    0.000    0.000    0.000 
#    0.000    0.000    0.000    0.000    0.000    0.000 
#
# Total GULP energy -89684.301458 kJ/mol
# GULP energy per Si atom -5605.268841 kJ/mol
# Density = 2.663645 g / cm^3
# Si number density = 26.697219 Si / 1000 Ang^3
#
#
#
# Elastic Constant Matrix: (Units=GPa)
#
#
# Indices 1 2 3 4 5 6 
#
# 1 232.1772 85.1046 38.0083 0.0000 0.0000 0.0000
# 2 85.1046 112.3245 15.6341 0.0000 0.0000 0.0000
# 3 38.0083 15.6341 93.0146 0.0000 0.0000 0.0000
# 4 0.0000 0.0000 0.0000 -32.7817 0.0000 0.0000
# 5 0.0000 0.0000 0.0000 0.0000 45.2891 0.0000
# 6 0.0000 0.0000 0.0000 0.0000 0.0000 24.4077
#
#
#
# Elastic Compliance Matrix: (Units=1/GPa)
#
#
# Indices 1 2 3 4 5 6 
#
# 1 0.006244 -0.004480 -0.001798 0.000000 0.000000 0.000000
# 2 -0.004480 0.012331 -0.000242 0.000000 0.000000 0.000000
# 3 -0.001798 -0.000242 0.011526 0.000000 0.000000 0.000000
# 4 0.000000 0.000000 0.000000 -0.030505 0.000000 0.000000
# 5 0.000000 0.000000 0.000000 0.000000 0.022080 0.000000
# 6 0.000000 0.000000 0.000000 0.000000 0.000000 0.040971
#
#
# Mechanical properties :
#
#
# Convention : Reuss Voigt Hill
#
# Bulk Modulus (GPa) = 58.61564 79.44559 69.03062
# Shear Modulus (GPa) = 61.44377 27.30097 44.37237
#
# Velocity S-wave (km/s) = 4.80260 3.20130 4.08126
# Velocity P-wave (km/s) = 7.26338 6.59447 6.93699
#
# Compressibility (1/GPa) = 0.01706029
#
# Stress axis : x y z
#
# Youngs Moduli (GPa) = 160.16090 81.09602 86.75679
#
# Poissons Ratio (x) = 0.36334 0.15601
# Poissons Ratio (y) = 0.71758 0.02098
# Poissons Ratio (z) = 0.28802 0.01961
#
# Static dielectric constant tensor:
#      x y z
#    x 2.072460 0.000000 0.000000 
#    y 0.000000 2.214440 0.000000 
#    z 0.000000 0.000000 2.078890 
# 
# From -- ./inp_files/2268.got.cif
#   From: 2010.05.17/outbox.cif.g08.bks.cpg/sg43_2_cif.got.tgz:2268.got - 2010.06.03 19:21:55.
