data_PCOD9372827
_publ_section_title
;
Structure prediction by ZEFSAII (Michael W. Deem and Ramdas Pophale) SiO2 
 PCOD9372827
Probable space group: F D D 2
;
_chemical_formula_sum "Si O2"
_cell_formula_units_Z 80
_cell_length_a 25.329946
_cell_length_b 12.420337
_cell_length_c 12.340183
_cell_angle_alpha 90.000000
_cell_angle_beta 90.000000
_cell_angle_gamma 90.000000
_cell_volume 3882.301357
_symmetry_space_group_name_H-M "F D D 2"
_symmetry_group_IT_number 43
_symmetry_cell_setting 'orthorhombic'
loop_
_space_group_symop_operation_xyz
x,y,z
-x,-y,z
1/4-x,1/4+y,1/4+z
1/4+x,1/4-y,1/4+z
x,1/2+y,1/2+z
-x,1/2-y,1/2+z
1/4-x,3/4+y,3/4+z
1/4+x,3/4-y,3/4+z
1/2+x,y,1/2+z
1/2-x,-y,1/2+z
3/4-x,1/4+y,3/4+z
3/4+x,1/4-y,3/4+z
1/2+x,1/2+y,z
1/2-x,1/2-y,z
3/4-x,3/4+y,1/4+z
3/4+x,3/4-y,1/4+z
loop_
_atom_site_type_symbol
_atom_site_label
_atom_site_fract_x
_atom_site_fract_y
_atom_site_fract_z
Si Si1 0.062360 0.020620 0.796260
Si Si2 0.579435 0.712737 0.630621
Si Si3 0.764338 0.625598 0.435115
Si Si4 0.166298 0.888489 0.138329
Si Si5 0.643896 0.835783 0.279904
O O1 0.077925 0.118327 0.718076
O O2 0.094764 0.914897 0.761619
O O3 0.078936 0.049685 0.918860
O O4 0.000000 0.000000 0.790732
O O5 0.534138 0.798678 0.659125
O O6 0.634756 0.776565 0.630660
O O7 0.569982 0.665332 0.511367
O O8 0.750000 0.750000 0.416317
O O9 0.784227 0.612236 0.557820
O O10 0.813710 0.603705 0.355818
O O11 0.127524 0.982007 0.094081
#
# Coordination Sequence:
#
# PCOD9372827 Si02
#       5
#    16  16  16  16  16
#     4  12  28  46  74 109 146 191 242 303 375 433
#     4  12  26  46  71 106 147 187 242 306 369 436
#     4  12  25  43  73 103 138 191 242 297 361 433
#     4  12  24  48  70 103 145 189 244 300 367 441
#     4  12  24  46  71 102 144 189 243 298 355 445
#
# _framework density 20.606334
#
# number of rings (size 3 to 8) (size 9 to 14) (size 15 to 20)
#    0.000    0.000    6.000    3.000    5.600    0.800 
#    0.000    0.000    0.000    0.000    0.000    0.000 
#    0.000    0.000    0.000    0.000    0.000    0.000 
#
# Total GULP energy -112048.960017 kJ/mol
# GULP energy per Si atom -5602.448001 kJ/mol
# Density = 2.055943 g / cm^3
# Si number density = 20.606334 Si / 1000 Ang^3
#
#
#
# Elastic Constant Matrix: (Units=GPa)
#
#
# Indices 1 2 3 4 5 6 
#
# 1 59.5373 4.3970 7.7231 0.0000 0.0000 0.0000
# 2 4.3970 70.6013 10.1919 0.0000 0.0000 0.0000
# 3 7.7231 10.1919 101.4081 0.0000 0.0000 0.0000
# 4 0.0000 0.0000 0.0000 30.9204 0.0000 0.0000
# 5 0.0000 0.0000 0.0000 0.0000 33.8229 0.0000
# 6 0.0000 0.0000 0.0000 0.0000 0.0000 33.1027
#
#
#
# Elastic Compliance Matrix: (Units=1/GPa)
#
#
# Indices 1 2 3 4 5 6 
#
# 1 0.017018 -0.000886 -0.001207 0.000000 0.000000 0.000000
# 2 -0.000886 0.014419 -0.001382 0.000000 0.000000 0.000000
# 3 -0.001207 -0.001382 0.010092 0.000000 0.000000 0.000000
# 4 0.000000 0.000000 0.000000 0.032341 0.000000 0.000000
# 5 0.000000 0.000000 0.000000 0.000000 0.029566 0.000000
# 6 0.000000 0.000000 0.000000 0.000000 0.000000 0.030209
#
#
# Mechanical properties :
#
#
# Convention : Reuss Voigt Hill
#
# Bulk Modulus (GPa) = 28.91844 30.68563 29.80203
# Shear Modulus (GPa) = 32.86876 33.51818 33.19347
#
# Velocity S-wave (km/s) = 3.99818 4.03748 4.01788
# Velocity P-wave (km/s) = 5.94795 6.05464 6.00154
#
# Compressibility (1/GPa) = 0.03458001
#
# Stress axis : x y z
#
# Youngs Moduli (GPa) = 58.76065 69.35456 99.08900
#
# Poissons Ratio (x) = 0.06142 0.11961
# Poissons Ratio (y) = 0.05204 0.13691
# Poissons Ratio (z) = 0.07093 0.09583
#
# Static dielectric constant tensor:
#      x y z
#    x 1.732960 0.000000 0.000000 
#    y 0.000000 1.716830 0.000000 
#    z 0.000000 0.000000 1.694680 
# 
# From -- ./inp_files/5693.got.cif
#   From: 2010.05.17/outbox.cif.g08.bks.cpg/sg43_3_cif.got.tgz:5693.got - 2010.06.03 19:21:55.
