data_PCOD9372910
_publ_section_title
;
Structure prediction by ZEFSAII (Michael W. Deem and Ramdas Pophale) SiO2 
 PCOD9372910
Probable space group: F D D 2
;
_chemical_formula_sum "Si O2"
_cell_formula_units_Z 64
_cell_length_a 12.300263
_cell_length_b 22.885247
_cell_length_c 9.073215
_cell_angle_alpha 90.000000
_cell_angle_beta 90.000000
_cell_angle_gamma 90.000000
_cell_volume 2554.060636
_symmetry_space_group_name_H-M "F D D 2"
_symmetry_group_IT_number 43
_symmetry_cell_setting 'orthorhombic'
loop_
_space_group_symop_operation_xyz
x,y,z
-x,-y,z
1/4-x,1/4+y,1/4+z
1/4+x,1/4-y,1/4+z
x,1/2+y,1/2+z
-x,1/2-y,1/2+z
1/4-x,3/4+y,3/4+z
1/4+x,3/4-y,3/4+z
1/2+x,y,1/2+z
1/2-x,-y,1/2+z
3/4-x,1/4+y,3/4+z
3/4+x,1/4-y,3/4+z
1/2+x,1/2+y,z
1/2-x,1/2-y,z
3/4-x,3/4+y,1/4+z
3/4+x,3/4-y,1/4+z
loop_
_atom_site_type_symbol
_atom_site_label
_atom_site_fract_x
_atom_site_fract_y
_atom_site_fract_z
Si Si1 0.792940 0.888407 0.818880
Si Si2 0.007655 0.933470 0.986525
Si Si3 0.894504 0.028761 0.448687
Si Si4 0.246775 0.414882 0.476908
O O1 0.904442 0.914908 0.887181
O O2 0.693231 0.923096 0.893185
O O3 0.801123 0.817546 0.830287
O O4 0.763574 0.897407 0.646594
O O5 0.126834 0.929832 0.917306
O O6 0.000000 0.000000 0.035145
O O7 0.022944 0.889489 0.122918
O O8 0.819468 0.972366 0.466365
O O9 0.000000 0.000000 0.369684
#
# Coordination Sequence:
#
# PCOD9372910 Si02
#       4
#    16  16  16  16
#     4  12  28  52  82 121 171 229 284 383 442 531
#     4  12  28  55  83 125 173 231 303 365 461 545
#     4  12  27  50  81 118 167 225 295 357 460 530
#     4  12  29  48  85 118 169 228 295 372 442 544
#
# _framework density 25.058135
#
# number of rings (size 3 to 8) (size 9 to 14) (size 15 to 20)
#    0.000    0.000    2.500    6.000    3.500    9.000 
#    0.000    0.000    0.000    0.000    0.000    0.000 
#    0.000    0.000    0.000    0.000    0.000    0.000 
#
# Total GULP energy -89275.065712 kJ/mol
# GULP energy per Si atom -5579.691607 kJ/mol
# Density = 2.500110 g / cm^3
# Si number density = 25.058135 Si / 1000 Ang^3
#
#
#
# Elastic Constant Matrix: (Units=GPa)
#
#
# Indices 1 2 3 4 5 6 
#
# 1 245.7018 75.1240 49.2278 0.0000 0.0000 0.0000
# 2 75.1240 234.6537 53.3218 0.0000 0.0000 0.0000
# 3 49.2278 53.3218 106.4455 0.0000 0.0000 0.0000
# 4 0.0000 0.0000 0.0000 54.5004 0.0000 0.0000
# 5 0.0000 0.0000 0.0000 0.0000 45.7469 0.0000
# 6 0.0000 0.0000 0.0000 0.0000 0.0000 -7.5967
#
#
#
# Elastic Compliance Matrix: (Units=1/GPa)
#
#
# Indices 1 2 3 4 5 6 
#
# 1 0.004746 -0.001152 -0.001618 0.000000 0.000000 0.000000
# 2 -0.001152 0.005089 -0.002016 0.000000 0.000000 0.000000
# 3 -0.001618 -0.002016 0.011153 0.000000 0.000000 0.000000
# 4 0.000000 0.000000 0.000000 0.018348 0.000000 0.000000
# 5 0.000000 0.000000 0.000000 0.000000 0.021859 0.000000
# 6 0.000000 0.000000 0.000000 0.000000 0.000000 -0.131635
#
#
# Mechanical properties :
#
#
# Convention : Reuss Voigt Hill
#
# Bulk Modulus (GPa) = 87.60186 104.68312 96.14249
# Shear Modulus (GPa) = -87.62361 45.80529 -20.90916
#
# Velocity S-wave (km/s) = -5.91980 4.28010 -2.89178
# Velocity P-wave (km/s) = 3.41907 8.14202 5.22506
#
# Compressibility (1/GPa) = 0.01141528
#
# Stress axis : x y z
#
# Youngs Moduli (GPa) = 210.68865 196.51994 89.66360
#
# Poissons Ratio (x) = 0.22636 0.14508
# Poissons Ratio (y) = 0.24268 0.18079
# Poissons Ratio (z) = 0.34090 0.39624
#
# Static dielectric constant tensor:
#      x y z
#    x 2.163010 0.000000 0.000000 
#    y 0.000000 1.872490 0.000000 
#    z 0.000000 0.000000 2.043700 
# 
# From -- ./inp_files/5547.got.cif
#   From: 2010.05.17/outbox.cif.g08.bks.cpg/sg43_3_cif.got.tgz:5547.got - 2010.06.03 19:21:55.
