data_PCOD9372866
_publ_section_title
;
Structure prediction by ZEFSAII (Michael W. Deem and Ramdas Pophale) SiO2 
 PCOD9372866
Probable space group: F D D 2
;
_chemical_formula_sum "Si O2"
_cell_formula_units_Z 120
_cell_length_a 26.965391
_cell_length_b 23.037910
_cell_length_c 9.036400
_cell_angle_alpha 90.000000
_cell_angle_beta 90.000000
_cell_angle_gamma 90.000000
_cell_volume 5613.648894
_symmetry_space_group_name_H-M "F D D 2"
_symmetry_group_IT_number 43
_symmetry_cell_setting 'orthorhombic'
loop_
_space_group_symop_operation_xyz
x,y,z
-x,-y,z
1/4-x,1/4+y,1/4+z
1/4+x,1/4-y,1/4+z
x,1/2+y,1/2+z
-x,1/2-y,1/2+z
1/4-x,3/4+y,3/4+z
1/4+x,3/4-y,3/4+z
1/2+x,y,1/2+z
1/2-x,-y,1/2+z
3/4-x,1/4+y,3/4+z
3/4+x,1/4-y,3/4+z
1/2+x,1/2+y,z
1/2-x,1/2-y,z
3/4-x,3/4+y,1/4+z
3/4+x,3/4-y,1/4+z
loop_
_atom_site_type_symbol
_atom_site_label
_atom_site_fract_x
_atom_site_fract_y
_atom_site_fract_z
Si Si1 0.250000 0.250000 0.957240
Si Si2 0.959533 0.213698 0.413976
Si Si3 0.294941 0.687278 0.713204
Si Si4 0.159963 0.228196 0.459779
Si Si5 0.696284 0.518598 0.312862
Si Si6 0.193789 0.171273 0.735784
Si Si7 0.567397 0.897504 0.472458
Si Si8 0.141371 0.928910 0.707658
O O1 0.231621 0.197288 0.855520
O O2 0.294069 0.223846 0.060105
O O3 0.958255 0.223007 0.236496
O O4 0.949014 0.146734 0.451809
O O5 0.920227 0.260499 0.479905
O O6 0.012366 0.229561 0.484781
O O7 0.320421 0.722468 0.847072
O O8 0.236079 0.678487 0.735077
O O9 0.320360 0.624733 0.700491
O O10 0.108709 0.245818 0.533846
O O11 0.197543 0.209473 0.587979
O O12 0.152173 0.170283 0.362885
O O13 0.695704 0.580652 0.232429
O O14 0.139790 0.180789 0.807211
O O15 0.601137 0.913068 0.333089
#
# Coordination Sequence:
#
# PCOD9372866 Si02
#       8
#     8  16  16  16  16  16  16  16
#     4  12  28  48  74 110 148 202 250 316 384 448
#     4  12  30  51  75 115 152 200 257 313 386 453
#     4  12  25  46  79 107 149 197 254 308 372 465
#     4  12  26  48  74 110 146 198 252 309 374 453
#     4  12  28  49  75 109 155 198 254 314 381 455
#     4  12  29  48  76 108 156 197 254 317 377 460
#     4  12  25  49  71 113 148 201 248 309 381 450
#     4  12  27  47  79 110 155 199 247 316 384 458
#
# _framework density 21.376472
#
# number of rings (size 3 to 8) (size 9 to 14) (size 15 to 20)
#    0.000    0.000    8.000    0.000   11.200    0.000 
#    2.400    0.000    0.000    0.000    0.000    0.000 
#    0.000    0.000    0.000    0.000    0.000    0.000 
#
# Total GULP energy -167743.539376 kJ/mol
# GULP energy per Si atom -5591.451313 kJ/mol
# Density = 2.132782 g / cm^3
# Si number density = 21.376472 Si / 1000 Ang^3
#
#
#
# Elastic Constant Matrix: (Units=GPa)
#
#
# Indices 1 2 3 4 5 6 
#
# 1 88.0775 50.2861 42.3584 0.0006 -0.0002 -0.0025
# 2 50.2861 96.8977 32.6659 0.0018 -0.0006 -0.0004
# 3 42.3584 32.6659 126.3692 0.0031 -0.0017 -0.0035
# 4 0.0006 0.0018 0.0031 27.2910 -0.0008 0.0027
# 5 -0.0002 -0.0006 -0.0017 -0.0008 27.1484 0.0003
# 6 -0.0025 -0.0004 -0.0035 0.0027 0.0003 393.5076
#
#
#
# Elastic Compliance Matrix: (Units=1/GPa)
#
#
# Indices 1 2 3 4 5 6 
#
# 1 0.017735 -0.007887 -0.003906 0.000001 0.000000 0.000000
# 2 -0.007887 0.014813 -0.001185 -0.000001 0.000000 0.000000
# 3 -0.003906 -0.001185 0.009529 -0.000001 0.000001 0.000000
# 4 0.000001 -0.000001 -0.000001 0.036642 0.000001 0.000000
# 5 0.000000 0.000000 0.000001 0.000001 0.036835 0.000000
# 6 0.000000 0.000000 0.000000 0.000000 0.000000 0.002541
#
#
# Mechanical properties :
#
#
# Convention : Reuss Voigt Hill
#
# Bulk Modulus (GPa) = 62.03399 62.44058 62.23728
# Shear Modulus (GPa) = 33.46166 101.99169 67.72667
#
# Velocity S-wave (km/s) = 3.96074 6.91489 5.63486
# Velocity P-wave (km/s) = 7.07103 9.64508 8.45657
#
# Compressibility (1/GPa) = 0.01612019
#
# Stress axis : x y z
#
# Youngs Moduli (GPa) = 56.38556 67.50910 104.94296
#
# Poissons Ratio (x) = 0.53245 0.40990
# Poissons Ratio (y) = 0.44471 0.12439
# Poissons Ratio (z) = 0.22024 0.08002
#
# Static dielectric constant tensor:
#      x y z
#    x 1.781870 0.000000 0.000000 
#    y 0.000000 1.784180 0.000000 
#    z 0.000000 0.000000 1.842460 
# 
# From -- ./inp_files/4336.got.cif
#   From: 2010.05.17/outbox.cif.g08.bks.cpg/sg43_3_cif.got.tgz:4336.got - 2010.06.03 19:21:55.
