data_PCOD9372824
_publ_section_title
;
Structure prediction by ZEFSAII (Michael W. Deem and Ramdas Pophale) SiO2 
 PCOD9372824
Probable space group: F D D 2
;
_chemical_formula_sum "Si O2"
_cell_formula_units_Z 120
_cell_length_a 8.589510
_cell_length_b 22.946625
_cell_length_c 26.958814
_cell_angle_alpha 90.000000
_cell_angle_beta 90.000000
_cell_angle_gamma 90.000000
_cell_volume 5313.589381
_symmetry_space_group_name_H-M "F D D 2"
_symmetry_group_IT_number 43
_symmetry_cell_setting 'orthorhombic'
loop_
_space_group_symop_operation_xyz
x,y,z
-x,-y,z
1/4-x,1/4+y,1/4+z
1/4+x,1/4-y,1/4+z
x,1/2+y,1/2+z
-x,1/2-y,1/2+z
1/4-x,3/4+y,3/4+z
1/4+x,3/4-y,3/4+z
1/2+x,y,1/2+z
1/2-x,-y,1/2+z
3/4-x,1/4+y,3/4+z
3/4+x,1/4-y,3/4+z
1/2+x,1/2+y,z
1/2-x,1/2-y,z
3/4-x,3/4+y,1/4+z
3/4+x,3/4-y,1/4+z
loop_
_atom_site_type_symbol
_atom_site_label
_atom_site_fract_x
_atom_site_fract_y
_atom_site_fract_z
Si Si1 0.725129 0.184832 0.862910
Si Si2 0.216239 0.881980 0.026666
Si Si3 0.062352 0.626563 0.371804
Si Si4 0.843124 0.117386 0.516466
Si Si5 0.185049 0.424322 0.226197
Si Si6 0.578162 0.197297 0.971696
Si Si7 0.570255 0.256382 0.220976
Si Si8 0.000000 0.500000 0.408973
O O1 0.750000 0.250000 0.841650
O O2 0.605125 0.148086 0.829711
O O3 0.893227 0.155365 0.863932
O O4 0.664725 0.192051 0.919231
O O5 0.070079 0.871290 0.989975
O O6 0.310274 0.822061 0.017221
O O7 0.312787 0.937129 0.006385
O O8 0.125413 0.656913 0.421600
O O9 0.159786 0.635820 0.321888
O O10 0.038482 0.558505 0.379724
O O11 0.697155 0.161503 0.516188
O O12 0.793876 0.053331 0.500797
O O13 0.950958 0.146887 0.475587
O O14 0.251107 0.489525 0.226641
O O15 0.750000 0.250000 0.200665
O O16 0.415156 0.261531 0.187343
#
# Coordination Sequence:
#
# PCOD9372824 Si02
#       8
#    16  16  16  16  16  16  16   8
#     4  12  24  45  77 108 141 199 262 300 378 476
#     4  12  24  44  75 106 140 191 250 317 368 445
#     4  12  25  44  73 107 140 199 250 301 374 461
#     4  12  27  46  71 108 150 188 245 309 381 447
#     4  12  24  47  74 100 143 194 246 300 378 459
#     4  12  26  47  69 109 150 188 243 320 378 449
#     4  12  24  48  76 107 150 194 251 318 374 446
#     4  12  26  48  78 104 150 202 254 304 388 452
#
# _framework density 22.583604000000001
#
# number of rings (size 3 to 8) (size 9 to 14) (size 15 to 20)
#    0.000    0.000    8.000    1.600    2.800    1.067 
#    0.000    0.000    2.933    0.000    0.000    0.000 
#    0.000    0.000    0.000    0.000    0.000    0.000 
#
# Total GULP energy -167581.201702 kJ/mol
# GULP energy per Si atom -5586.040057 kJ/mol
# Density = 2.253220 g / cm^3
# Si number density = 22.583604 Si / 1000 Ang^3
#
#
#
# Elastic Constant Matrix: (Units=GPa)
#
#
# Indices 1 2 3 4 5 6 
#
# 1 71.0073 -0.2436 15.5410 0.0000 0.0000 0.0000
# 2 -0.2436 127.8725 40.1485 0.0000 0.0000 0.0000
# 3 15.5410 40.1485 86.7541 0.0000 0.0000 0.0000
# 4 0.0000 0.0000 0.0000 25.9874 0.0000 0.0000
# 5 0.0000 0.0000 0.0000 0.0000 20.0201 0.0000
# 6 0.0000 0.0000 0.0000 0.0000 0.0000 46.0469
#
#
#
# Elastic Compliance Matrix: (Units=1/GPa)
#
#
# Indices 1 2 3 4 5 6 
#
# 1 0.014767 0.001005 -0.003110 0.000000 0.000000 0.000000
# 2 0.001005 0.009218 -0.004446 0.000000 0.000000 0.000000
# 3 -0.003110 -0.004446 0.014142 0.000000 0.000000 0.000000
# 4 0.000000 0.000000 0.000000 0.038480 0.000000 0.000000
# 5 0.000000 0.000000 0.000000 0.000000 0.049950 0.000000
# 6 0.000000 0.000000 0.000000 0.000000 0.000000 0.021717
#
#
# Mechanical properties :
#
#
# Convention : Reuss Voigt Hill
#
# Bulk Modulus (GPa) = 39.96219 44.05842 42.01031
# Shear Modulus (GPa) = 29.46056 33.75674 31.60865
#
# Velocity S-wave (km/s) = 3.61572 3.87039 3.74522
# Velocity P-wave (km/s) = 5.93000 6.28686 6.11103
#
# Compressibility (1/GPa) = 0.02502365
#
# Stress axis : x y z
#
# Youngs Moduli (GPa) = 67.71737 108.48194 70.71358
#
# Poissons Ratio (x) = -0.10899 0.21994
# Poissons Ratio (y) = -0.06804 0.31439
# Poissons Ratio (z) = 0.21062 0.48231
#
# Static dielectric constant tensor:
#      x y z
#    x 1.958240 0.000000 0.000000 
#    y 0.000000 1.794250 0.000000 
#    z 0.000000 0.000000 1.822320 
# 
# From -- ./inp_files/24483.got.cif
#   From: 2010.05.17/outbox.cif.g08.bks.cpg/sg43_13_cif.got.tgz:24483.got - 2010.06.03 19:21:55.
