data_PCOD9372989
_publ_section_title
;
Structure prediction by ZEFSAII (Michael W. Deem and Ramdas Pophale) SiO2 
 PCOD9372989
Probable space group: F D D 2
;
_chemical_formula_sum "Si O2"
_cell_formula_units_Z 18
_cell_length_a 21.000000
_cell_length_b 27.000000
_cell_length_c 6.000000
_cell_angle_alpha 90.000000
_cell_angle_beta 90.000000
_cell_angle_gamma 90.000000
_cell_volume 3402.000000
_symmetry_space_group_name_H-M "F D D 2"
_symmetry_group_IT_number 43
_symmetry_cell_setting 'orthorhombic'
loop_
_space_group_symop_operation_xyz
x,y,z
-x,-y,z
1/4-x,1/4+y,1/4+z
1/4+x,1/4-y,1/4+z
x,1/2+y,1/2+z
-x,1/2-y,1/2+z
1/4-x,3/4+y,3/4+z
1/4+x,3/4-y,3/4+z
1/2+x,y,1/2+z
1/2-x,-y,1/2+z
3/4-x,1/4+y,3/4+z
3/4+x,1/4-y,3/4+z
1/2+x,1/2+y,z
1/2-x,1/2-y,z
3/4-x,3/4+y,1/4+z
3/4+x,3/4-y,1/4+z
loop_
_atom_site_type_symbol
_atom_site_label
_atom_site_fract_x
_atom_site_fract_y
_atom_site_fract_z
Si Si1 0.398104 0.566965 0.011780
Si Si2 0.750000 0.750000 0.542810
Si Si3 0.321063 0.154401 0.757656
Si Si4 0.681705 0.113820 0.376577
Si Si5 0.282400 0.490944 0.035686
O O1 0.455931 0.538869 0.146340
O O2 0.365718 0.617737 0.108472
O O3 0.417892 0.586154 0.766948
O O4 0.342453 0.526828 0.011949
O O5 0.701379 0.789267 0.676476
O O6 0.251666 0.126633 0.770123
O O7 0.368980 0.152252 0.977412
O O8 0.696867 0.066372 0.530071
O O9 0.246535 0.498711 0.788814
#
# Coordination Sequence:
#
# PCOD9372989 Si02
#       5
#    16   8  16  16  16
#     4  12  29  51  78 120 165 218 286 355 437 515
#     4  12  30  50  86 120 168 232 288 360 438 530
#     4  12  28  53  78 120 164 221 289 353 437 517
#     4  12  29  48  82 113 170 217 285 356 432 519
#     4  12  29  51  85 120 164 223 283 350 439 518
#
# _framework density 5.2910050000000002
#
# number of rings (size 3 to 8) (size 9 to 14) (size 15 to 20)
#    0.000    0.000    4.444    2.667   18.667    0.000 
#    0.000    0.000    0.000    0.000    0.000    0.000 
#    0.000    0.000    0.000    0.000    0.000    0.000 
#
# Total GULP energy -100213.194798 kJ/mol
# GULP energy per Si atom -5567.399711 kJ/mol
# Density = 0.527896 g / cm^3
# Si number density = 5.291005 Si / 1000 Ang^3
#
#
#
# Elastic Constant Matrix: (Units=GPa)
#
#
# Indices 1 2 3 4 5 6 
#
# 1 154.3823 40.7813 64.6887 0.0108 -0.0357 -0.0121
# 2 40.7813 136.5201 26.9879 -0.0095 0.0126 0.0106
# 3 64.6887 26.9879 100.4042 0.0066 -0.0026 -0.0057
# 4 0.0108 -0.0095 0.0066 55.2291 -0.0058 -0.0005
# 5 -0.0357 0.0126 -0.0026 -0.0058 39.6274 0.0210
# 6 -0.0121 0.0106 -0.0057 -0.0005 0.0210 65.8825
#
#
#
# Elastic Compliance Matrix: (Units=1/GPa)
#
#
# Indices 1 2 3 4 5 6 
#
# 1 0.009219 -0.001668 -0.005491 -0.000001 0.000008 0.000001
# 2 -0.001668 0.008038 -0.001086 0.000002 -0.000004 -0.000002
# 3 -0.005491 -0.001086 0.013789 -0.000001 -0.000004 0.000000
# 4 -0.000001 0.000002 -0.000001 0.018106 0.000003 0.000000
# 5 0.000008 -0.000004 -0.000004 0.000003 0.025235 -0.000008
# 6 0.000001 -0.000002 0.000000 0.000000 -0.000008 0.015179
#
#
# Mechanical properties :
#
#
# Convention : Reuss Voigt Hill
#
# Bulk Modulus (GPa) = 68.70041 72.91361 70.80701
# Shear Modulus (GPa) = 45.08204 49.40439 47.24322
#
# Velocity S-wave (km/s) = 4.62034 4.83676 4.72979
# Velocity P-wave (km/s) = 7.80991 8.10671 7.95970
#
# Compressibility (1/GPa) = 0.01455595
#
# Stress axis : x y z
#
# Youngs Moduli (GPa) = 108.47092 124.41033 72.51913
#
# Poissons Ratio (x) = 0.20756 0.39822
# Poissons Ratio (y) = 0.18097 0.07873
# Poissons Ratio (z) = 0.59564 0.13506
#
# Static dielectric constant tensor:
#      x y z
#    x 1.769860 0.000010 0.000020 
#    y 0.000010 1.766730 -0.000030 
#    z 0.000020 -0.000030 1.899560 
# 
# From -- ./inp_files/717.got.cif
#   From: 2010.05.17/outbox.ucp.g08.bks.cvg/sg43_1_cif.got.tgz:717.got - 2010.06.11 16:31:01.
