data_PCOD9372547
_publ_section_title
;
Structure prediction by ZEFSAII (Michael W. Deem and Ramdas Pophale) SiO2 
 PCOD9372547
Probable space group: F D D 2
;
_chemical_formula_sum "Si O2"
_cell_formula_units_Z 88
_cell_length_a 26.010153
_cell_length_b 11.790019
_cell_length_c 11.439323
_cell_angle_alpha 90.000000
_cell_angle_beta 90.000000
_cell_angle_gamma 90.000000
_cell_volume 3507.985057
_symmetry_space_group_name_H-M "F D D 2"
_symmetry_group_IT_number 43
_symmetry_cell_setting 'orthorhombic'
loop_
_space_group_symop_operation_xyz
x,y,z
-x,-y,z
1/4-x,1/4+y,1/4+z
1/4+x,1/4-y,1/4+z
x,1/2+y,1/2+z
-x,1/2-y,1/2+z
1/4-x,3/4+y,3/4+z
1/4+x,3/4-y,3/4+z
1/2+x,y,1/2+z
1/2-x,-y,1/2+z
3/4-x,1/4+y,3/4+z
3/4+x,1/4-y,3/4+z
1/2+x,1/2+y,z
1/2-x,1/2-y,z
3/4-x,3/4+y,1/4+z
3/4+x,3/4-y,1/4+z
loop_
_atom_site_type_symbol
_atom_site_label
_atom_site_fract_x
_atom_site_fract_y
_atom_site_fract_z
Si Si1 0.177298 0.622802 0.301560
Si Si2 0.500000 0.000000 0.554567
Si Si3 0.404006 0.031783 0.424728
Si Si4 0.149584 0.873636 0.369754
Si Si5 0.512787 0.771955 0.689587
Si Si6 0.676904 0.969732 0.615798
O O1 0.130663 0.544217 0.344157
O O2 0.171480 0.745992 0.360238
O O3 0.159348 0.634141 0.165418
O O4 0.227230 0.557384 0.352209
O O5 0.451636 0.963473 0.476942
O O6 0.519306 0.892325 0.626269
O O7 0.366049 0.073508 0.526718
O O8 0.423839 0.144080 0.363898
O O9 0.184844 0.952848 0.453204
O O10 0.161926 0.924183 0.241711
O O11 0.481942 0.801185 0.807708
#
# Coordination Sequence:
#
# PCOD9372547 Si02
#       6
#    16   8  16  16  16  16
#     4  11  25  45  74 103 152 181 248 306 375 436
#     4  12  24  44  72 100 138 186 252 278 364 438
#     4  11  23  44  70 101 137 194 230 298 360 451
#     4  12  25  46  74 109 142 194 243 313 371 438
#     4  11  26  48  69 108 144 200 241 306 372 454
#     4  11  24  47  70 101 147 182 248 293 375 438
#
# _framework density 25.085625
#
# number of rings (size 3 to 8) (size 9 to 14) (size 15 to 20)
#    0.000    0.727    1.818    7.091    2.545    1.455 
#    3.273    0.000    0.000    0.000    0.000    0.000 
#    0.000    0.000    0.000    0.000    0.000    0.000 
#
# Total GULP energy -123190.472698 kJ/mol
# GULP energy per Si atom -5599.566941 kJ/mol
# Density = 2.502853 g / cm^3
# Si number density = 25.085625 Si / 1000 Ang^3
#
#
#
# Elastic Constant Matrix: (Units=GPa)
#
#
# Indices 1 2 3 4 5 6 
#
# 1 91.8396 0.6329 18.0127 0.0000 0.0000 0.0000
# 2 0.6329 112.7845 -4.5373 0.0000 0.0000 0.0000
# 3 18.0127 -4.5373 82.3887 0.0000 0.0000 0.0000
# 4 0.0000 0.0000 0.0000 34.3118 0.0000 0.0000
# 5 0.0000 0.0000 0.0000 0.0000 14.5933 0.0000
# 6 0.0000 0.0000 0.0000 0.0000 0.0000 35.2533
#
#
#
# Elastic Compliance Matrix: (Units=1/GPa)
#
#
# Indices 1 2 3 4 5 6 
#
# 1 0.011379 -0.000164 -0.002497 0.000000 0.000000 0.000000
# 2 -0.000164 0.008889 0.000525 0.000000 0.000000 0.000000
# 3 -0.002497 0.000525 0.012712 0.000000 0.000000 0.000000
# 4 0.000000 0.000000 0.000000 0.029144 0.000000 0.000000
# 5 0.000000 0.000000 0.000000 0.000000 0.068525 0.000000
# 6 0.000000 0.000000 0.000000 0.000000 0.000000 0.028366
#
#
# Mechanical properties :
#
#
# Convention : Reuss Voigt Hill
#
# Bulk Modulus (GPa) = 34.83260 35.02550 34.92905
# Shear Modulus (GPa) = 28.92566 35.02532 31.97549
#
# Velocity S-wave (km/s) = 3.39938 3.74067 3.57410
# Velocity P-wave (km/s) = 5.41511 5.71398 5.56655
#
# Compressibility (1/GPa) = 0.02870874
#
# Stress axis : x y z
#
# Youngs Moduli (GPa) = 87.87799 112.50463 78.66312
#
# Poissons Ratio (x) = 0.01849 0.19642
# Poissons Ratio (y) = 0.01444 -0.04133
# Poissons Ratio (z) = 0.21943 -0.05911
#
# Static dielectric constant tensor:
#      x y z
#    x 2.077130 0.000000 0.000000 
#    y 0.000000 1.972860 0.000000 
#    z 0.000000 0.000000 2.114250 
# 
# From -- ./inp_files/5747.got.cif
#   From: 2010.05.17/outbox.cif.g08.bks.cpg/sg43_3_cif.got.tgz:5747.got - 2010.06.03 19:21:55.
