data_PCOD9372814
_publ_section_title
;
Structure prediction by ZEFSAII (Michael W. Deem and Ramdas Pophale) SiO2 
 PCOD9372814
Probable space group: F D D 2
;
_chemical_formula_sum "Si O2"
_cell_formula_units_Z 72
_cell_length_a 6.799584
_cell_length_b 25.820353
_cell_length_c 20.251636
_cell_angle_alpha 90.000000
_cell_angle_beta 90.000000
_cell_angle_gamma 90.000000
_cell_volume 3555.532326
_symmetry_space_group_name_H-M "F D D 2"
_symmetry_group_IT_number 43
_symmetry_cell_setting 'orthorhombic'
loop_
_space_group_symop_operation_xyz
x,y,z
-x,-y,z
1/4-x,1/4+y,1/4+z
1/4+x,1/4-y,1/4+z
x,1/2+y,1/2+z
-x,1/2-y,1/2+z
1/4-x,3/4+y,3/4+z
1/4+x,3/4-y,3/4+z
1/2+x,y,1/2+z
1/2-x,-y,1/2+z
3/4-x,1/4+y,3/4+z
3/4+x,1/4-y,3/4+z
1/2+x,1/2+y,z
1/2-x,1/2-y,z
3/4-x,3/4+y,1/4+z
3/4+x,3/4-y,1/4+z
loop_
_atom_site_type_symbol
_atom_site_label
_atom_site_fract_x
_atom_site_fract_y
_atom_site_fract_z
Si Si1 0.333380 0.963952 0.919380
Si Si2 0.683361 0.190725 0.789412
Si Si3 0.662302 0.123171 0.123183
Si Si4 0.750000 0.250000 0.579474
Si Si5 0.294268 0.637880 0.525166
O O1 0.189687 0.000139 0.876967
O O2 0.500000 0.000000 0.952352
O O3 0.554097 0.076490 0.872636
O O4 0.197533 0.935382 0.972806
O O5 0.750000 0.250000 0.792306
O O6 0.543658 0.174760 0.849433
O O7 0.868465 0.152288 0.788634
O O8 0.477389 0.127266 0.074133
O O9 0.600113 0.118401 0.198921
O O10 0.763653 0.302674 0.538712
#
# Coordination Sequence:
#
# PCOD9372814 Si02
#       5
#    16  16  16   8  16
#     4  12  23  46  76 103 139 196 247 288 361 443
#     4  12  27  45  73 106 144 187 242 301 364 434
#     4  12  26  46  72 103 146 189 239 303 367 435
#     4  12  24  44  74 104 140 192 238 300 360 436
#     4  12  27  47  72 106 144 190 243 301 366 441
#
# _framework density 20.250132000000001
#
# number of rings (size 3 to 8) (size 9 to 14) (size 15 to 20)
#    0.000    0.000    7.778    2.667    0.000    1.778 
#    4.000    0.000    0.000    0.000    0.000    0.000 
#    0.000    0.000    0.000    0.000    0.000    0.000 
#
# Total GULP energy -100675.646711 kJ/mol
# GULP energy per Si atom -5593.091484 kJ/mol
# Density = 2.020404 g / cm^3
# Si number density = 20.250132 Si / 1000 Ang^3
#
#
#
# Elastic Constant Matrix: (Units=GPa)
#
#
# Indices 1 2 3 4 5 6 
#
# 1 149.0349 75.2680 62.4821 0.0000 0.0000 0.0000
# 2 75.2680 126.9429 32.0116 0.0000 0.0000 0.0000
# 3 62.4821 32.0116 113.1517 0.0000 0.0000 0.0000
# 4 0.0000 0.0000 0.0000 32.2561 0.0000 0.0000
# 5 0.0000 0.0000 0.0000 0.0000 40.6456 0.0000
# 6 0.0000 0.0000 0.0000 0.0000 0.0000 50.1641
#
#
#
# Elastic Compliance Matrix: (Units=1/GPa)
#
#
# Indices 1 2 3 4 5 6 
#
# 1 0.011574 -0.005654 -0.004792 0.000000 0.000000 0.000000
# 2 -0.005654 0.011245 -0.000059 0.000000 0.000000 0.000000
# 3 -0.004792 -0.000059 0.011500 0.000000 0.000000 0.000000
# 4 0.000000 0.000000 0.000000 0.031002 0.000000 0.000000
# 5 0.000000 0.000000 0.000000 0.000000 0.024603 0.000000
# 6 0.000000 0.000000 0.000000 0.000000 0.000000 0.019935
#
#
# Mechanical properties :
#
#
# Convention : Reuss Voigt Hill
#
# Bulk Modulus (GPa) = 75.13336 80.96145 78.04741
# Shear Modulus (GPa) = 36.95326 39.23768 38.09547
#
# Velocity S-wave (km/s) = 4.27645 4.40665 4.34204
# Velocity P-wave (km/s) = 7.84648 8.12151 7.98518
#
# Compressibility (1/GPa) = 0.01330967
#
# Stress axis : x y z
#
# Youngs Moduli (GPa) = 86.39719 88.92745 86.95407
#
# Poissons Ratio (x) = 0.50284 0.41666
# Poissons Ratio (y) = 0.48853 0.00513
# Poissons Ratio (z) = 0.41399 0.00524
#
# Static dielectric constant tensor:
#      x y z
#    x 1.741530 0.000000 0.000000 
#    y 0.000000 1.737070 0.000000 
#    z 0.000000 0.000000 1.698740 
# 
# From -- ./inp_files/12654.got.cif
#   From: 2010.05.17/outbox.cif.g08.bks.cpg/sg43_7_cif.got.tgz:12654.got - 2010.06.03 19:21:55.
