data_PCOD9372254
_publ_section_title
;
Structure prediction by ZEFSAII (Michael W. Deem and Ramdas Pophale) SiO2 
 PCOD9372254
Probable space group: F D D 2
;
_chemical_formula_sum "Si O2"
_cell_formula_units_Z 120
_cell_length_a 19.221961
_cell_length_b 23.811500
_cell_length_c 11.923639
_cell_angle_alpha 90.000000
_cell_angle_beta 90.000000
_cell_angle_gamma 90.000000
_cell_volume 5457.493978
_symmetry_space_group_name_H-M "F D D 2"
_symmetry_group_IT_number 43
_symmetry_cell_setting 'orthorhombic'
loop_
_space_group_symop_operation_xyz
x,y,z
-x,-y,z
1/4-x,1/4+y,1/4+z
1/4+x,1/4-y,1/4+z
x,1/2+y,1/2+z
-x,1/2-y,1/2+z
1/4-x,3/4+y,3/4+z
1/4+x,3/4-y,3/4+z
1/2+x,y,1/2+z
1/2-x,-y,1/2+z
3/4-x,1/4+y,3/4+z
3/4+x,1/4-y,3/4+z
1/2+x,1/2+y,z
1/2-x,1/2-y,z
3/4-x,3/4+y,1/4+z
3/4+x,3/4-y,1/4+z
loop_
_atom_site_type_symbol
_atom_site_label
_atom_site_fract_x
_atom_site_fract_y
_atom_site_fract_z
Si Si1 0.639726 0.021467 0.380030
Si Si2 0.617871 0.918930 0.801477
Si Si3 0.312857 0.438619 0.643168
Si Si4 0.317559 0.642216 0.125695
Si Si5 0.376381 0.359009 0.149361
Si Si6 0.283602 0.539305 0.481574
Si Si7 0.250000 0.250000 0.622806
Si Si8 0.709749 0.869743 0.166654
O O1 0.667095 0.026313 0.252293
O O2 0.701877 0.046567 0.456384
O O3 0.570241 0.058411 0.386250
O O4 0.630857 0.957867 0.418307
O O5 0.618184 0.860404 0.870478
O O6 0.619890 0.892981 0.678476
O O7 0.550873 0.957980 0.809285
O O8 0.677590 0.954563 0.862558
O O9 0.244966 0.399711 0.657210
O O10 0.298275 0.479641 0.539497
O O11 0.299985 0.703107 0.178691
O O12 0.332733 0.644285 0.994303
O O13 0.293976 0.372441 0.163326
O O14 0.418578 0.367302 0.032494
O O15 0.310672 0.585107 0.570798
#
# Coordination Sequence:
#
# PCOD9372254 Si02
#       8
#    16  16  16  16  16  16   8  16
#     4  12  24  47  72 105 144 195 245 307 376 455
#     4  11  24  44  71 104 146 189 245 309 371 450
#     4  11  23  41  71 102 139 188 244 298 376 440
#     4  11  25  45  68 106 144 196 243 308 375 441
#     4  12  28  46  73 102 151 193 243 304 378 456
#     4  12  23  43  74 102 144 190 246 310 372 449
#     4  10  26  44  68 110 142 190 256 308 368 450
#     4  12  27  47  69 110 142 195 252 305 374 455
#
# _framework density 21.988115000000001
#
# number of rings (size 3 to 8) (size 9 to 14) (size 15 to 20)
#    0.000    0.533    6.667    1.200    3.733    3.200 
#    0.000    0.000    0.000    0.000    0.000    0.000 
#    0.000    0.000    0.000    0.000    0.000    0.000 
#
# Total GULP energy -167192.932360 kJ/mol
# GULP energy per Si atom -5573.097745 kJ/mol
# Density = 2.193807 g / cm^3
# Si number density = 21.988115 Si / 1000 Ang^3
#
#
#
# Elastic Constant Matrix: (Units=GPa)
#
#
# Indices 1 2 3 4 5 6 
#
# 1 77.7539 17.1612 20.7345 0.0000 0.0000 0.0000
# 2 17.1612 106.9755 14.3514 0.0000 0.0000 0.0000
# 3 20.7345 14.3514 85.2243 0.0000 0.0000 0.0000
# 4 0.0000 0.0000 0.0000 24.3373 0.0000 0.0000
# 5 0.0000 0.0000 0.0000 0.0000 24.7253 0.0000
# 6 0.0000 0.0000 0.0000 0.0000 0.0000 34.7305
#
#
#
# Elastic Compliance Matrix: (Units=1/GPa)
#
#
# Indices 1 2 3 4 5 6 
#
# 1 0.014100 -0.001843 -0.003120 0.000000 0.000000 0.000000
# 2 -0.001843 0.009805 -0.001203 0.000000 0.000000 0.000000
# 3 -0.003120 -0.001203 0.012695 0.000000 0.000000 0.000000
# 4 0.000000 0.000000 0.000000 0.041089 0.000000 0.000000
# 5 0.000000 0.000000 0.000000 0.000000 0.040444 0.000000
# 6 0.000000 0.000000 0.000000 0.000000 0.000000 0.028793
#
#
# Mechanical properties :
#
#
# Convention : Reuss Voigt Hill
#
# Bulk Modulus (GPa) = 41.20610 41.60531 41.40571
# Shear Modulus (GPa) = 29.87778 31.27239 30.57509
#
# Velocity S-wave (km/s) = 3.69021 3.77535 3.73302
# Velocity P-wave (km/s) = 6.07764 6.16175 6.11984
#
# Compressibility (1/GPa) = 0.02426825
#
# Stress axis : x y z
#
# Youngs Moduli (GPa) = 70.92220 101.98886 78.76909
#
# Poissons Ratio (x) = 0.18800 0.24576
# Poissons Ratio (y) = 0.13074 0.09473
# Poissons Ratio (z) = 0.22128 0.12266
#
# Static dielectric constant tensor:
#      x y z
#    x 1.917190 0.000000 0.000000 
#    y 0.000000 1.791480 0.000000 
#    z 0.000000 0.000000 1.886610 
# 
# From -- ./inp_files/6820.got.cif
#   From: 2010.05.17/outbox.cif.g08.bks.cpg/sg43_4_cif.got.tgz:6820.got - 2010.06.03 19:21:55.
