data_PCOD9372857
_publ_section_title
;
Structure prediction by ZEFSAII (Michael W. Deem and Ramdas Pophale) SiO2 
 PCOD9372857
Probable space group: F D D 2
;
_chemical_formula_sum "Si O2"
_cell_formula_units_Z 88
_cell_length_a 11.675797
_cell_length_b 11.097353
_cell_length_c 27.928463
_cell_angle_alpha 90.000000
_cell_angle_beta 90.000000
_cell_angle_gamma 90.000000
_cell_volume 3618.703264
_symmetry_space_group_name_H-M "F D D 2"
_symmetry_group_IT_number 43
_symmetry_cell_setting 'orthorhombic'
loop_
_space_group_symop_operation_xyz
x,y,z
-x,-y,z
1/4-x,1/4+y,1/4+z
1/4+x,1/4-y,1/4+z
x,1/2+y,1/2+z
-x,1/2-y,1/2+z
1/4-x,3/4+y,3/4+z
1/4+x,3/4-y,3/4+z
1/2+x,y,1/2+z
1/2-x,-y,1/2+z
3/4-x,1/4+y,3/4+z
3/4+x,1/4-y,3/4+z
1/2+x,1/2+y,z
1/2-x,1/2-y,z
3/4-x,3/4+y,1/4+z
3/4+x,3/4-y,1/4+z
loop_
_atom_site_type_symbol
_atom_site_label
_atom_site_fract_x
_atom_site_fract_y
_atom_site_fract_z
Si Si1 0.051753 0.783514 0.905970
Si Si2 0.750000 0.250000 0.611677
Si Si3 0.828755 0.143047 0.070001
Si Si4 0.941962 0.281606 0.723236
Si Si5 0.662485 0.152003 0.219978
Si Si6 0.832473 0.566616 0.282755
O O1 0.099159 0.705457 0.861313
O O2 0.097337 0.935982 0.831558
O O3 0.986463 0.682707 0.935859
O O4 0.957921 0.885655 0.891488
O O5 0.887186 0.383972 0.688788
O O6 0.750000 0.250000 0.089620
O O7 0.949966 0.182056 0.047307
O O8 0.763822 0.092115 0.022864
O O9 0.861158 0.176528 0.746638
O O10 0.050887 0.217356 0.699124
O O11 0.750000 0.250000 0.239662
O O12 0.625425 0.058549 0.260244
#
# Coordination Sequence:
#
# PCOD9372857 Si02
#       6
#    16   8  16  16  16  16
#     4  12  28  48  77 120 159 212 278 335 417 499
#     4  12  26  44  78 112 156 210 268 332 412 484
#     4  12  27  51  79 115 161 209 268 339 415 493
#     4  12  26  51  83 112 160 223 268 340 421 492
#     4  12  26  46  76 116 160 207 277 336 406 495
#     4  12  24  51  82 111 159 213 272 333 415 501
#
# _framework density 24.318104000000002
#
# number of rings (size 3 to 8) (size 9 to 14) (size 15 to 20)
#    0.000    0.000    5.455    3.273    0.000    4.364 
#    0.000    1.818    0.000    0.000    0.000    0.000 
#    0.000    0.000    0.000    0.000    0.000    0.000 
#
# Total GULP energy -122950.154059 kJ/mol
# GULP energy per Si atom -5588.643366 kJ/mol
# Density = 2.426275 g / cm^3
# Si number density = 24.318104 Si / 1000 Ang^3
#
#
#
# Elastic Constant Matrix: (Units=GPa)
#
#
# Indices 1 2 3 4 5 6 
#
# 1 118.4276 67.2169 21.0173 0.0000 0.0000 0.0000
# 2 67.2169 172.4158 64.6272 0.0000 0.0000 0.0000
# 3 21.0173 64.6272 94.5731 0.0000 0.0000 0.0000
# 4 0.0000 0.0000 0.0000 34.2583 0.0000 0.0000
# 5 0.0000 0.0000 0.0000 0.0000 23.1983 0.0000
# 6 0.0000 0.0000 0.0000 0.0000 0.0000 49.4770
#
#
#
# Elastic Compliance Matrix: (Units=1/GPa)
#
#
# Indices 1 2 3 4 5 6 
#
# 1 0.010873 -0.004481 0.000646 0.000000 0.000000 0.000000
# 2 -0.004481 0.009644 -0.005594 0.000000 0.000000 0.000000
# 3 0.000646 -0.005594 0.014253 0.000000 0.000000 0.000000
# 4 0.000000 0.000000 0.000000 0.029190 0.000000 0.000000
# 5 0.000000 0.000000 0.000000 0.000000 0.043107 0.000000
# 6 0.000000 0.000000 0.000000 0.000000 0.000000 0.020211
#
#
# Mechanical properties :
#
#
# Convention : Reuss Voigt Hill
#
# Bulk Modulus (GPa) = 62.85041 76.79324 69.82182
# Shear Modulus (GPa) = 33.01644 36.89042 34.95343
#
# Velocity S-wave (km/s) = 3.68868 3.89909 3.79534
# Velocity P-wave (km/s) = 6.63649 7.20539 6.92679
#
# Compressibility (1/GPa) = 0.01591079
#
# Stress axis : x y z
#
# Youngs Moduli (GPa) = 91.97482 103.69474 70.15942
#
# Poissons Ratio (x) = 0.46463 -0.04530
# Poissons Ratio (y) = 0.41211 0.39249
# Poissons Ratio (z) = -0.05939 0.58010
#
# Static dielectric constant tensor:
#      x y z
#    x 1.987420 0.000000 0.000000 
#    y 0.000000 1.998840 0.000000 
#    z 0.000000 0.000000 2.108300 
# 
# From -- ./inp_files/28453.got.cif
#   From: 2010.05.17/outbox.cif.g08.bks.cpg/sg43_15_cif.got.tgz:28453.got - 2010.06.03 19:21:55.
