data_PCOD9372301
_publ_section_title
;
Structure prediction by ZEFSAII (Michael W. Deem and Ramdas Pophale) SiO2 
 PCOD9372301
Probable space group: F D D 2
;
_chemical_formula_sum "Si O2"
_cell_formula_units_Z 88
_cell_length_a 4.987987
_cell_length_b 29.946220
_cell_length_c 23.775965
_cell_angle_alpha 90.000000
_cell_angle_beta 90.000000
_cell_angle_gamma 90.000000
_cell_volume 3551.448134
_symmetry_space_group_name_H-M "F D D 2"
_symmetry_group_IT_number 43
_symmetry_cell_setting 'orthorhombic'
loop_
_space_group_symop_operation_xyz
x,y,z
-x,-y,z
1/4-x,1/4+y,1/4+z
1/4+x,1/4-y,1/4+z
x,1/2+y,1/2+z
-x,1/2-y,1/2+z
1/4-x,3/4+y,3/4+z
1/4+x,3/4-y,3/4+z
1/2+x,y,1/2+z
1/2-x,-y,1/2+z
3/4-x,1/4+y,3/4+z
3/4+x,1/4-y,3/4+z
1/2+x,1/2+y,z
1/2-x,1/2-y,z
3/4-x,3/4+y,1/4+z
3/4+x,3/4-y,1/4+z
loop_
_atom_site_type_symbol
_atom_site_label
_atom_site_fract_x
_atom_site_fract_y
_atom_site_fract_z
Si Si1 0.559970 0.682683 0.091640
Si Si2 0.500000 0.000000 0.764690
Si Si3 0.093679 0.177756 0.427731
Si Si4 0.430540 0.609109 0.000651
Si Si5 0.264923 0.529131 0.061265
Si Si6 0.184579 0.910380 0.411088
O O1 0.458420 0.722732 0.052799
O O2 0.522313 0.638693 0.053326
O O3 0.858196 0.679940 0.115365
O O4 0.350147 0.680580 0.143444
O O5 0.669183 0.965923 0.725273
O O6 0.143257 0.203011 0.369752
O O7 0.854670 0.143691 0.411581
O O8 0.303981 0.143425 0.455722
O O9 0.222051 0.573073 0.023917
O O10 0.672005 0.583392 0.970492
O O11 0.500000 0.500000 0.034201
O O12 0.000000 0.500000 0.070748
#
# Coordination Sequence:
#
# PCOD9372301 Si02
#       6
#    16   8  16  16  16  16
#     4  11  27  47  77 111 157 200 266 317 399 467
#     4  10  26  54  74 124 150 212 258 354 378 470
#     4  11  25  50  81 113 152 201 272 315 395 473
#     4  11  26  49  79 107 155 213 250 314 406 476
#     4  12  29  48  75 115 156 194 262 334 385 461
#     4  12  25  47  76 109 151 210 257 313 386 494
#
# _framework density 24.778623
#
# number of rings (size 3 to 8) (size 9 to 14) (size 15 to 20)
#    0.000    0.727    4.545    0.000   12.727    0.727 
#    8.182    0.000    0.000    0.000    0.000    0.000 
#    0.000    0.000    0.000    0.000    0.000    0.000 
#
# Total GULP energy -123012.507235 kJ/mol
# GULP energy per Si atom -5591.477602 kJ/mol
# Density = 2.472223 g / cm^3
# Si number density = 24.778623 Si / 1000 Ang^3
#
#
#
# Elastic Constant Matrix: (Units=GPa)
#
#
# Indices 1 2 3 4 5 6 
#
# 1 80.5248 18.9197 17.0333 0.0000 0.0000 0.0000
# 2 18.9197 103.4861 24.4078 0.0000 0.0000 0.0000
# 3 17.0333 24.4078 64.2936 0.0000 0.0000 0.0000
# 4 0.0000 0.0000 0.0000 59.4637 0.0000 0.0000
# 5 0.0000 0.0000 0.0000 0.0000 16.4540 0.0000
# 6 0.0000 0.0000 0.0000 0.0000 0.0000 32.2162
#
#
#
# Elastic Compliance Matrix: (Units=1/GPa)
#
#
# Indices 1 2 3 4 5 6 
#
# 1 0.013447 -0.001777 -0.002888 0.000000 0.000000 0.000000
# 2 -0.001777 0.010848 -0.003647 0.000000 0.000000 0.000000
# 3 -0.002888 -0.003647 0.017703 0.000000 0.000000 0.000000
# 4 0.000000 0.000000 0.000000 0.016817 0.000000 0.000000
# 5 0.000000 0.000000 0.000000 0.000000 0.060776 0.000000
# 6 0.000000 0.000000 0.000000 0.000000 0.000000 0.031040
#
#
# Mechanical properties :
#
#
# Convention : Reuss Voigt Hill
#
# Bulk Modulus (GPa) = 39.41114 41.00289 40.20701
# Shear Modulus (GPa) = 28.45524 34.15636 31.30580
#
# Velocity S-wave (km/s) = 3.39245 3.71679 3.55832
# Velocity P-wave (km/s) = 5.59328 5.91633 5.75707
#
# Compressibility (1/GPa) = 0.02537354
#
# Stress axis : x y z
#
# Youngs Moduli (GPa) = 74.36623 92.17986 56.48636
#
# Poissons Ratio (x) = 0.16383 0.16312
# Poissons Ratio (y) = 0.13217 0.20603
# Poissons Ratio (z) = 0.21475 0.33623
#
# Static dielectric constant tensor:
#      x y z
#    x 1.977680 0.000000 0.000000 
#    y 0.000000 2.041800 0.000000 
#    z 0.000000 0.000000 1.962180 
# 
# From -- ./inp_files/19558.got.cif
#   From: 2010.05.17/outbox.cif.g08.bks.cpg/sg43_10_cif.got.tgz:19558.got - 2010.06.03 19:21:55.
