data_PCOD9372357
_publ_section_title
;
Structure prediction by ZEFSAII (Michael W. Deem and Ramdas Pophale) SiO2 
 PCOD9372357
Probable space group: F D D 2
;
_chemical_formula_sum "Si O2"
_cell_formula_units_Z 120
_cell_length_a 16.700398
_cell_length_b 10.966862
_cell_length_c 27.171962
_cell_angle_alpha 90.000000
_cell_angle_beta 90.000000
_cell_angle_gamma 90.000000
_cell_volume 4976.570931
_symmetry_space_group_name_H-M "F D D 2"
_symmetry_group_IT_number 43
_symmetry_cell_setting 'orthorhombic'
loop_
_space_group_symop_operation_xyz
x,y,z
-x,-y,z
1/4-x,1/4+y,1/4+z
1/4+x,1/4-y,1/4+z
x,1/2+y,1/2+z
-x,1/2-y,1/2+z
1/4-x,3/4+y,3/4+z
1/4+x,3/4-y,3/4+z
1/2+x,y,1/2+z
1/2-x,-y,1/2+z
3/4-x,1/4+y,3/4+z
3/4+x,1/4-y,3/4+z
1/2+x,1/2+y,z
1/2-x,1/2-y,z
3/4-x,3/4+y,1/4+z
3/4+x,3/4-y,1/4+z
loop_
_atom_site_type_symbol
_atom_site_label
_atom_site_fract_x
_atom_site_fract_y
_atom_site_fract_z
Si Si1 0.750000 0.750000 0.143260
Si Si2 0.040675 0.338456 0.214745
Si Si3 0.599410 0.398325 0.815266
Si Si4 0.580979 0.559041 0.235341
Si Si5 0.239944 0.473974 0.780742
Si Si6 0.556829 0.743965 0.931503
Si Si7 0.584638 0.158879 0.126878
Si Si8 0.161560 0.196257 0.379624
O O1 0.675289 0.746692 0.106170
O O2 0.750155 0.877073 0.171673
O O3 0.035718 0.380367 0.271512
O O4 0.063329 0.196133 0.217832
O O5 0.114007 0.418779 0.196031
O O6 0.969633 0.356123 0.176133
O O7 0.686581 0.439354 0.796780
O O8 0.604977 0.270499 0.843369
O O9 0.500000 0.500000 0.257784
O O10 0.659052 0.548235 0.268637
O O11 0.598522 0.480014 0.186647
O O12 0.272674 0.428458 0.727540
O O13 0.214585 0.386626 0.826086
O O14 0.586025 0.829083 0.886739
O O15 0.599074 0.303307 0.124936
O O16 0.250000 0.250000 0.368437
#
# Coordination Sequence:
#
# PCOD9372357 Si02
#       8
#     8  16  16  16  16  16  16  16
#     4  12  26  50  72 108 152 198 270 328 402 462
#     4  11  23  42  69 106 150 192 262 314 386 460
#     4  11  25  41  76 106 145 206 261 322 384 468
#     4  11  22  42  73 105 147 199 252 321 387 462
#     4  11  24  45  75 108 147 202 262 315 394 464
#     4  11  26  44  74 110 150 198 261 320 385 482
#     4  12  24  45  72 109 155 199 253 324 400 468
#     4  11  20  42  71 106 148 191 247 318 392 458
#
# _framework density 24.11299
#
# number of rings (size 3 to 8) (size 9 to 14) (size 15 to 20)
#    0.000    0.800    4.000    4.400    3.733    3.200 
#    0.000    6.667    0.000    0.000    0.000    0.000 
#    0.000    0.000    0.000    0.000    0.000    0.000 
#
# Total GULP energy -167609.000894 kJ/mol
# GULP energy per Si atom -5586.966696 kJ/mol
# Density = 2.405811 g / cm^3
# Si number density = 24.112990 Si / 1000 Ang^3
#
#
#
# Elastic Constant Matrix: (Units=GPa)
#
#
# Indices 1 2 3 4 5 6 
#
# 1 85.0930 30.8415 36.1250 0.0000 0.0000 0.0000
# 2 30.8415 115.1868 32.8568 0.0000 0.0000 0.0000
# 3 36.1250 32.8568 135.8473 0.0000 0.0000 0.0000
# 4 0.0000 0.0000 0.0000 11.0165 0.0000 0.0000
# 5 0.0000 0.0000 0.0000 0.0000 23.5773 0.0000
# 6 0.0000 0.0000 0.0000 0.0000 0.0000 32.0890
#
#
#
# Elastic Compliance Matrix: (Units=1/GPa)
#
#
# Indices 1 2 3 4 5 6 
#
# 1 0.014098 -0.002906 -0.003046 0.000000 0.000000 0.000000
# 2 -0.002906 0.009924 -0.001627 0.000000 0.000000 0.000000
# 3 -0.003046 -0.001627 0.008565 0.000000 0.000000 0.000000
# 4 0.000000 0.000000 0.000000 0.090773 0.000000 0.000000
# 5 0.000000 0.000000 0.000000 0.000000 0.042414 0.000000
# 6 0.000000 0.000000 0.000000 0.000000 0.000000 0.031163
#
#
# Mechanical properties :
#
#
# Convention : Reuss Voigt Hill
#
# Bulk Modulus (GPa) = 57.37962 59.53042 58.45502
# Shear Modulus (GPa) = 22.94574 29.09015 26.01795
#
# Velocity S-wave (km/s) = 3.08814 3.47711 3.28838
# Velocity P-wave (km/s) = 6.04675 6.39235 6.22195
#
# Compressibility (1/GPa) = 0.01742779
#
# Stress axis : x y z
#
# Youngs Moduli (GPa) = 70.93051 100.76724 116.75554
#
# Poissons Ratio (x) = 0.29282 0.35566
# Poissons Ratio (y) = 0.20612 0.19002
# Poissons Ratio (z) = 0.21607 0.16400
#
# Static dielectric constant tensor:
#      x y z
#    x 1.988580 0.000000 0.000000 
#    y 0.000000 1.884590 0.000000 
#    z 0.000000 0.000000 1.999080 
# 
# From -- ./inp_files/26080.got.cif
#   From: 2010.05.17/outbox.cif.g08.bks.cpg/sg43_14_cif.got.tgz:26080.got - 2010.06.03 19:21:55.
