data_PCOD9373845
_publ_section_title
;
Structure prediction by ZEFSAII (Michael W. Deem and Ramdas Pophale) SiO2 
 PCOD9373845
Probable space group: I M M 2
;
_chemical_formula_sum "Si O2"
_cell_formula_units_Z 64
_cell_length_a 7.478409
_cell_length_b 17.462176
_cell_length_c 22.384825
_cell_angle_alpha 90.000000
_cell_angle_beta 90.000000
_cell_angle_gamma 90.000000
_cell_volume 2923.218497
_symmetry_space_group_name_H-M "I M M 2"
_symmetry_group_IT_number 44
_symmetry_cell_setting 'orthorhombic'
loop_
_space_group_symop_operation_xyz
x,y,z
-x,-y,z
-x,y,z
x,-y,z
1/2+x,1/2+y,1/2+z
1/2-x,1/2-y,1/2+z
1/2-x,1/2+y,1/2+z
1/2+x,1/2-y,1/2+z
loop_
_atom_site_type_symbol
_atom_site_label
_atom_site_fract_x
_atom_site_fract_y
_atom_site_fract_z
Si Si1 0.706055 0.252864 0.081350
Si Si2 0.283068 0.913785 0.733079
Si Si3 0.716575 0.917606 0.538904
Si Si4 0.717712 0.223395 0.948584
Si Si5 0.294398 0.887667 0.404960
Si Si6 0.202770 0.240870 0.211446
Si Si7 0.206828 0.084732 0.270332
Si Si8 0.783282 0.581762 0.373396
O O1 0.500000 0.229530 0.086287
O O2 0.715613 0.345088 0.074825
O O3 0.800110 0.224763 0.140803
O O4 0.777987 0.225840 0.017227
O O5 0.500000 0.914058 0.723427
O O6 0.219478 0.828132 0.713952
O O7 0.241740 0.912548 0.803685
O O8 0.224035 0.000000 0.711797
O O9 0.500000 0.911924 0.538178
O O10 0.777838 0.914462 0.469553
O O11 0.766045 0.000000 0.564192
O O12 0.500000 0.227108 0.949552
O O13 0.782791 0.296807 0.912598
O O14 0.781213 0.149974 0.913593
O O15 0.500000 0.912352 0.401875
O O16 0.209546 0.910840 0.342551
O O17 0.282917 0.165657 0.244603
O O18 0.000000 0.248417 0.235984
O O19 0.000000 0.084169 0.250452
O O20 0.282852 0.000000 0.254084
O O21 0.721622 0.500000 0.396138
O O22 0.000000 0.583533 0.375990
#
# Coordination Sequence:
#
# PCOD9373845 Si02
#       8
#     8   8   8   8   8   8   8   8
#     4  10  21  34  48  70  99 130 168 212 254 296
#     4   8  14  25  45  74  99 118 149 194 240 288
#     4   9  18  33  52  74 101 133 167 202 246 307
#     4   9  17  31  50  72 100 132 165 204 253 307
#     4  10  19  31  51  79 107 133 163 203 255 312
#     4  10  20  35  53  70  95 134 175 212 250 298
#     4  10  21  36  54  76 101 133 175 218 259 305
#     4   8  13  24  46  74  98 119 151 198 247 297
#
# _framework density 21.893677
#
# number of rings (size 3 to 8) (size 9 to 14) (size 15 to 20)
#    0.000    2.750    0.000    2.625    0.000    5.000 
#    0.000    1.875    0.000    1.125    0.000    1.750 
#    0.000    0.000    0.000    0.000    0.000    0.000 
#
# Total GULP energy -178363.191196 kJ/mol
# GULP energy per Si atom -5573.849725 kJ/mol
# Density = 2.184385 g / cm^3
# Si number density = 21.893677 Si / 1000 Ang^3
#
#
#
# Elastic Constant Matrix: (Units=GPa)
#
#
# Indices 1 2 3 4 5 6 
#
# 1 61.6089 3.8983 -0.0842 0.0000 0.0000 0.0000
# 2 3.8983 172.6771 64.8620 0.0000 0.0000 0.0000
# 3 -0.0842 64.8620 83.7170 0.0000 0.0000 0.0000
# 4 0.0000 0.0000 0.0000 -9.8245 0.0000 0.0000
# 5 0.0000 0.0000 0.0000 0.0000 13.9582 0.0000
# 6 0.0000 0.0000 0.0000 0.0000 0.0000 -15.0199
#
#
#
# Elastic Compliance Matrix: (Units=1/GPa)
#
#
# Indices 1 2 3 4 5 6 
#
# 1 0.016265 -0.000527 0.000424 0.000000 0.000000 0.000000
# 2 -0.000527 0.008185 -0.006342 0.000000 0.000000 0.000000
# 3 0.000424 -0.006342 0.016859 0.000000 0.000000 0.000000
# 4 0.000000 0.000000 0.000000 -0.101786 0.000000 0.000000
# 5 0.000000 0.000000 0.000000 0.000000 0.071642 0.000000
# 6 0.000000 0.000000 0.000000 0.000000 0.000000 -0.066578
#
#
# Mechanical properties :
#
#
# Convention : Reuss Voigt Hill
#
# Bulk Modulus (GPa) = 35.18549 50.59504 42.89027
# Shear Modulus (GPa) = -151.29196 14.44454 -68.42371
#
# Velocity S-wave (km/s) = -8.32184 2.57136 -5.59648
# Velocity P-wave (km/s) = 8.73106 5.65469 4.70404
#
# Compressibility (1/GPa) = 0.02842080
#
# Stress axis : x y z
#
# Youngs Moduli (GPa) = 61.48052 122.16855 59.31418
#
# Poissons Ratio (x) = 0.06433 -0.02517
# Poissons Ratio (y) = 0.03238 0.37619
# Poissons Ratio (z) = -0.02609 0.77484
#
# Static dielectric constant tensor:
#      x y z
#    x 1.842760 0.000000 0.000000 
#    y 0.000000 1.845080 0.000000 
#    z 0.000000 0.000000 1.756580 
# 
# From -- ./inp_files/23293.got.cif
#   From: 2010.05.17/outbox.cif.g08.bks.cpg/sg44_12_cif.got.tgz:23293.got - 2010.06.03 19:37:08.
