data_PCOD9373720
_publ_section_title
;
Structure prediction by ZEFSAII (Michael W. Deem and Ramdas Pophale) SiO2 
 PCOD9373720
Probable space group: I M M 2
;
_chemical_formula_sum "Si O2"
_cell_formula_units_Z 64
_cell_length_a 7.566358
_cell_length_b 21.181175
_cell_length_c 20.546748
_cell_angle_alpha 90.000000
_cell_angle_beta 90.000000
_cell_angle_gamma 90.000000
_cell_volume 3292.911273
_symmetry_space_group_name_H-M "I M M 2"
_symmetry_group_IT_number 44
_symmetry_cell_setting 'orthorhombic'
loop_
_space_group_symop_operation_xyz
x,y,z
-x,-y,z
-x,y,z
x,-y,z
1/2+x,1/2+y,1/2+z
1/2-x,1/2-y,1/2+z
1/2-x,1/2+y,1/2+z
1/2+x,1/2-y,1/2+z
loop_
_atom_site_type_symbol
_atom_site_label
_atom_site_fract_x
_atom_site_fract_y
_atom_site_fract_z
Si Si1 0.287123 0.929883 0.844730
Si Si2 0.793618 0.724765 0.703225
Si Si3 0.716210 0.930305 0.427309
Si Si4 0.717074 0.188621 0.341788
Si Si5 0.702518 0.110793 0.565893
Si Si6 0.284680 0.127529 0.708612
Si Si7 0.793581 0.745519 0.563410
Si Si8 0.208311 0.192689 0.927387
O O1 0.500000 0.931578 0.842273
O O2 0.226911 0.910384 0.772158
O O3 0.239837 0.874764 0.894797
O O4 0.223684 0.000000 0.861897
O O5 0.719230 0.691570 0.767338
O O6 0.776179 0.800053 0.714817
O O7 0.721964 0.715104 0.630279
O O8 0.000000 0.707330 0.701049
O O9 0.500000 0.927382 0.429261
O O10 0.772949 0.873073 0.381380
O O11 0.780869 0.919816 0.501300
O O12 0.765991 0.000000 0.404372
O O13 0.500000 0.189756 0.340683
O O14 0.776142 0.251520 0.380141
O O15 0.500000 0.088443 0.569580
O O16 0.778033 0.102064 0.638374
O O17 0.703970 0.186439 0.553368
O O18 0.500000 0.128308 0.706911
O O19 0.779972 0.703011 0.499743
O O20 0.000000 0.760359 0.574389
O O21 0.000000 0.202372 0.932893
#
# Coordination Sequence:
#
# PCOD9373720 Si02
#       8
#     8   8   8   8   8   8   8   8
#     4  10  21  35  49  71 105 138 168 207 255 304
#     4   9  17  30  48  70  98 129 160 201 248 292
#     4   9  16  26  44  71  99 126 159 200 241 280
#     4   9  16  28  47  71  96 124 161 204 244 283
#     4   9  16  28  45  70 101 132 166 199 237 289
#     4   9  17  28  45  69  99 131 164 198 235 287
#     4  10  19  30  48  73  99 128 163 203 253 301
#     4  11  20  33  54  74  97 129 169 213 252 296
#
# _framework density 19.435689
#
# number of rings (size 3 to 8) (size 9 to 14) (size 15 to 20)
#    0.000    2.500    2.500    0.750    0.000    1.250 
#    0.000    2.500    0.000    1.125    0.000    7.000 
#    0.000    0.000    0.000    0.000    0.000    0.000 
#
# Total GULP energy -178494.312087 kJ/mol
# GULP energy per Si atom -5577.947253 kJ/mol
# Density = 1.939145 g / cm^3
# Si number density = 19.435689 Si / 1000 Ang^3
#
#
#
# Elastic Constant Matrix: (Units=GPa)
#
#
# Indices 1 2 3 4 5 6 
#
# 1 47.2939 -7.3281 0.6366 0.0000 0.0000 0.0000
# 2 -7.3281 100.6694 70.9850 0.0000 0.0000 0.0000
# 3 0.6366 70.9850 149.4725 0.0000 0.0000 0.0000
# 4 0.0000 0.0000 0.0000 22.7897 0.0000 0.0000
# 5 0.0000 0.0000 0.0000 0.0000 7.1642 0.0000
# 6 0.0000 0.0000 0.0000 0.0000 0.0000 10.4885
#
#
#
# Elastic Compliance Matrix: (Units=1/GPa)
#
#
# Indices 1 2 3 4 5 6 
#
# 1 0.021542 0.002455 -0.001258 0.000000 0.000000 0.000000
# 2 0.002455 0.015214 -0.007236 0.000000 0.000000 0.000000
# 3 -0.001258 -0.007236 0.010132 0.000000 0.000000 0.000000
# 4 0.000000 0.000000 0.000000 0.043880 0.000000 0.000000
# 5 0.000000 0.000000 0.000000 0.000000 0.139583 0.000000
# 6 0.000000 0.000000 0.000000 0.000000 0.000000 0.095342
#
#
# Mechanical properties :
#
#
# Convention : Reuss Voigt Hill
#
# Bulk Modulus (GPa) = 28.72670 47.33588 38.03129
# Shear Modulus (GPa) = 14.31135 23.63130 18.97133
#
# Velocity S-wave (km/s) = 2.71651 3.49072 3.12766
# Velocity P-wave (km/s) = 4.96505 6.37611 5.71430
#
# Compressibility (1/GPa) = 0.03481082
#
# Stress axis : x y z
#
# Youngs Moduli (GPa) = 46.42169 65.72729 98.69853
#
# Poissons Ratio (x) = -0.16135 0.12412
# Poissons Ratio (y) = -0.11396 0.71416
# Poissons Ratio (z) = 0.05838 0.47559
#
# Static dielectric constant tensor:
#      x y z
#    x 1.752400 0.000000 0.000000 
#    y 0.000000 1.645830 0.000000 
#    z 0.000000 0.000000 1.708660 
# 
# From -- ./inp_files/23328.got.cif
#   From: 2010.05.17/outbox.cif.g08.bks.cpg/sg44_12_cif.got.tgz:23328.got - 2010.06.03 19:37:08.
