data_PCOD9373155
_publ_section_title
;
Structure prediction by ZEFSAII (Michael W. Deem and Ramdas Pophale) SiO2 
 PCOD9373155
Probable space group: I M M 2
;
_chemical_formula_sum "Si O2"
_cell_formula_units_Z 64
_cell_length_a 9.123686
_cell_length_b 27.092905
_cell_length_c 18.471983
_cell_angle_alpha 90.000000
_cell_angle_beta 90.000000
_cell_angle_gamma 90.000000
_cell_volume 4566.036981
_symmetry_space_group_name_H-M "I M M 2"
_symmetry_group_IT_number 44
_symmetry_cell_setting 'orthorhombic'
loop_
_space_group_symop_operation_xyz
x,y,z
-x,-y,z
-x,y,z
x,-y,z
1/2+x,1/2+y,1/2+z
1/2-x,1/2-y,1/2+z
1/2-x,1/2+y,1/2+z
1/2+x,1/2-y,1/2+z
loop_
_atom_site_type_symbol
_atom_site_label
_atom_site_fract_x
_atom_site_fract_y
_atom_site_fract_z
Si Si1 0.331541 0.797923 0.852960
Si Si2 0.831039 0.801366 0.254356
Si Si3 0.174498 0.259079 0.975804
Si Si4 0.326046 0.255488 0.131278
Si Si5 0.674350 0.856517 0.379293
Si Si6 0.825270 0.852800 0.729361
Si Si7 0.678364 0.444028 0.133562
Si Si8 0.324720 0.558123 0.967078
O O1 0.500000 0.809320 0.870417
O O2 0.330313 0.748534 0.803104
O O3 0.240491 0.783066 0.923703
O O4 0.257533 0.839329 0.803024
O O5 0.745859 0.786477 0.181729
O O6 0.750623 0.841600 0.303938
O O7 0.000000 0.814362 0.240152
O O8 0.203371 0.311318 0.935378
O O9 0.000000 0.253586 0.982686
O O10 0.251099 0.257977 0.053381
O O11 0.500000 0.247903 0.124596
O O12 0.303442 0.307441 0.173358
O O13 0.500000 0.859958 0.369830
O O14 0.740607 0.905768 0.413669
O O15 0.773817 0.902663 0.690070
O O16 0.000000 0.855794 0.743102
O O17 0.500000 0.443908 0.134022
O O18 0.725862 0.500000 0.150053
O O19 0.719990 0.431941 0.050683
O O20 0.500000 0.566661 0.961606
O O21 0.298856 0.500000 0.953445
#
# Coordination Sequence:
#
# PCOD9373155 Si02
#       8
#     8   8   8   8   8   8   8   8
#     4   9  17  28  41  57  78 105 136 170 206 243
#     4   9  17  29  43  58  79 107 138 171 206 246
#     4  10  19  29  41  59  83 110 140 171 204 245
#     4  10  18  27  41  61  84 109 138 171 207 246
#     4  10  19  29  42  60  83 111 142 175 210 247
#     4   9  16  26  41  59  80 108 139 170 204 241
#     4   8  14  25  41  60  81 107 141 176 205 237
#     4   9  17  29  44  61  82 110 144 178 210 246
#
# _framework density 14.016532
#
# number of rings (size 3 to 8) (size 9 to 14) (size 15 to 20)
#    0.000    2.750    0.000    3.375    0.000    6.250 
#    0.000    0.625    0.000    1.125    0.000    0.000 
#    0.000    1.000    0.000    6.000    0.000    4.625 
#
# Total GULP energy -178309.636903 kJ/mol
# GULP energy per Si atom -5572.176153 kJ/mol
# Density = 1.398463 g / cm^3
# Si number density = 14.016532 Si / 1000 Ang^3
#
#
#
# Elastic Constant Matrix: (Units=GPa)
#
#
# Indices 1 2 3 4 5 6 
#
# 1 74.6209 36.9771 56.4651 0.0000 0.0000 0.0000
# 2 36.9771 61.4127 30.2513 0.0000 0.0000 0.0000
# 3 56.4651 30.2513 74.5101 0.0000 0.0000 0.0000
# 4 0.0000 0.0000 0.0000 27.1287 0.0000 0.0000
# 5 0.0000 0.0000 0.0000 0.0000 26.2766 0.0000
# 6 0.0000 0.0000 0.0000 0.0000 0.0000 17.2450
#
#
#
# Elastic Compliance Matrix: (Units=1/GPa)
#
#
# Indices 1 2 3 4 5 6 
#
# 1 0.035956 -0.010284 -0.023073 0.000000 0.000000 0.000000
# 2 -0.010284 0.023295 -0.001665 0.000000 0.000000 0.000000
# 3 -0.023073 -0.001665 0.031582 0.000000 0.000000 0.000000
# 4 0.000000 0.000000 0.000000 0.036861 0.000000 0.000000
# 5 0.000000 0.000000 0.000000 0.000000 0.038057 0.000000
# 6 0.000000 0.000000 0.000000 0.000000 0.000000 0.057988
#
#
# Mechanical properties :
#
#
# Convention : Reuss Voigt Hill
#
# Bulk Modulus (GPa) = 48.09907 50.88118 49.49013
# Shear Modulus (GPa) = 16.62718 19.92008 18.27363
#
# Velocity S-wave (km/s) = 3.44794 3.77395 3.61462
# Velocity P-wave (km/s) = 7.08813 7.44110 7.26675
#
# Compressibility (1/GPa) = 0.02079042
#
# Stress axis : x y z
#
# Youngs Moduli (GPa) = 27.81155 42.92709 31.66376
#
# Poissons Ratio (x) = 0.44147 0.73058
# Poissons Ratio (y) = 0.28602 0.05270
# Poissons Ratio (z) = 0.64169 0.07145
#
# Static dielectric constant tensor:
#      x y z
#    x 1.465540 0.000000 0.000000 
#    y 0.000000 1.447270 0.000000 
#    z 0.000000 0.000000 1.442320 
# 
# From -- ./inp_files/17105.got.cif
#   From: 2010.05.17/outbox.cif.g08.bks.cpg/sg44_9_cif.got.tgz:17105.got - 2010.06.03 19:37:08.
