data_PCOD9373087
_publ_section_title
;
Structure prediction by ZEFSAII (Michael W. Deem and Ramdas Pophale) SiO2 
 PCOD9373087
Probable space group: I M M 2
;
_chemical_formula_sum "Si O2"
_cell_formula_units_Z 34
_cell_length_a 24.134529
_cell_length_b 7.679255
_cell_length_c 6.969756
_cell_angle_alpha 90.000000
_cell_angle_beta 90.000000
_cell_angle_gamma 90.000000
_cell_volume 1291.741140
_symmetry_space_group_name_H-M "I M M 2"
_symmetry_group_IT_number 44
_symmetry_cell_setting 'orthorhombic'
loop_
_space_group_symop_operation_xyz
x,y,z
-x,-y,z
-x,y,z
x,-y,z
1/2+x,1/2+y,1/2+z
1/2-x,1/2-y,1/2+z
1/2-x,1/2+y,1/2+z
1/2+x,1/2-y,1/2+z
loop_
_atom_site_type_symbol
_atom_site_label
_atom_site_fract_x
_atom_site_fract_y
_atom_site_fract_z
Si Si1 0.201239 0.707354 0.485510
Si Si2 0.174132 0.707815 0.070606
Si Si3 0.562176 0.707706 0.694069
Si Si4 0.411152 0.797767 0.131194
Si Si5 0.000000 0.000000 0.719709
O O1 0.195502 0.500000 0.480120
O O2 0.181342 0.784530 0.285372
O O3 0.266408 0.742377 0.486966
O O4 0.154677 0.757441 0.642329
O O5 0.175089 0.500000 0.068227
O O6 0.110096 0.754921 0.039265
O O7 0.500000 0.757922 0.632663
O O8 0.560921 0.500000 0.727520
O O9 0.574919 0.796255 0.899376
O O10 0.452135 0.652928 0.208768
O O11 0.417590 0.000000 0.193717
#
# Coordination Sequence:
#
# PCOD9373087 Si02
#       5
#     8   8   8   8   2
#     4   9  20  36  51  78 109 143 180 224 268 322
#     4  10  21  33  53  79 108 142 180 222 272 325
#     4  10  17  29  48  75 103 137 174 220 274 321
#     4  10  19  30  47  74 110 136 176 223 270 323
#     4  12  18  28  48  78 100 150 168 220 280 324
#
# _framework density 26.321065000000001
#
# number of rings (size 3 to 8) (size 9 to 14) (size 15 to 20)
#    0.000    2.118    2.353    3.176    1.647    3.294 
#    0.000    0.000    0.000    0.000    3.059    0.000 
#    0.000    0.000    0.000    0.000    0.000    0.000 
#
# Total GULP energy -94677.194877 kJ/mol
# GULP energy per Si atom -5569.246757 kJ/mol
# Density = 2.626116 g / cm^3
# Si number density = 26.321065 Si / 1000 Ang^3
#
#
#
# Elastic Constant Matrix: (Units=GPa)
#
#
# Indices 1 2 3 4 5 6 
#
# 1 291.8880 57.0595 46.0896 0.0000 0.0000 0.0000
# 2 57.0595 125.9353 9.1363 0.0000 0.0000 0.0000
# 3 46.0896 9.1363 32.2567 0.0000 0.0000 0.0000
# 4 0.0000 0.0000 0.0000 0.4413 0.0000 0.0000
# 5 0.0000 0.0000 0.0000 0.0000 29.0469 0.0000
# 6 0.0000 0.0000 0.0000 0.0000 0.0000 54.1658
#
#
#
# Elastic Compliance Matrix: (Units=1/GPa)
#
#
# Indices 1 2 3 4 5 6 
#
# 1 0.004754 -0.001696 -0.006313 0.000000 0.000000 0.000000
# 2 -0.001696 0.008712 -0.000044 0.000000 0.000000 0.000000
# 3 -0.006313 -0.000044 0.040034 0.000000 0.000000 0.000000
# 4 0.000000 0.000000 0.000000 2.265870 0.000000 0.000000
# 5 0.000000 0.000000 0.000000 0.000000 0.034427 0.000000
# 6 0.000000 0.000000 0.000000 0.000000 0.000000 0.018462
#
#
# Mechanical properties :
#
#
# Convention : Reuss Voigt Hill
#
# Bulk Modulus (GPa) = 26.74208 74.96121 50.85164
# Shear Modulus (GPa) = 2.08261 39.25045 20.66653
#
# Velocity S-wave (km/s) = 0.89048 3.86582 2.80513
# Velocity P-wave (km/s) = 3.35250 6.96186 5.46382
#
# Compressibility (1/GPa) = 0.03739425
#
# Stress axis : x y z
#
# Youngs Moduli (GPa) = 210.33415 114.78047 24.97896
#
# Poissons Ratio (x) = 0.19468 0.15769
# Poissons Ratio (y) = 0.35676 0.00110
# Poissons Ratio (z) = 1.32779 0.00506
#
# Static dielectric constant tensor:
#      x y z
#    x 2.199410 0.000000 0.000000 
#    y 0.000000 1.934740 0.000000 
#    z 0.000000 0.000000 2.244640 
# 
# From -- ./inp_files/8641.got.cif
#   From: 2010.05.17/outbox.cif.g08.bks.cpg/sg44_5_cif.got.tgz:8641.got - 2010.06.03 19:37:08.
