data_PCOD9373437
_publ_section_title
;
Structure prediction by ZEFSAII (Michael W. Deem and Ramdas Pophale) SiO2 
 PCOD9373437
Probable space group: I M M 2
;
_chemical_formula_sum "Si O2"
_cell_formula_units_Z 64
_cell_length_a 20.838561
_cell_length_b 21.876562
_cell_length_c 7.917429
_cell_angle_alpha 90.000000
_cell_angle_beta 90.000000
_cell_angle_gamma 90.000000
_cell_volume 3609.366431
_symmetry_space_group_name_H-M "I M M 2"
_symmetry_group_IT_number 44
_symmetry_cell_setting 'orthorhombic'
loop_
_space_group_symop_operation_xyz
x,y,z
-x,-y,z
-x,y,z
x,-y,z
1/2+x,1/2+y,1/2+z
1/2-x,1/2-y,1/2+z
1/2-x,1/2+y,1/2+z
1/2+x,1/2-y,1/2+z
loop_
_atom_site_type_symbol
_atom_site_label
_atom_site_fract_x
_atom_site_fract_y
_atom_site_fract_z
Si Si1 0.693850 0.432820 0.496060
Si Si2 0.571772 0.610562 0.334760
Si Si3 0.927247 0.187074 0.288279
Si Si4 0.924224 0.759041 0.660017
Si Si5 0.754268 0.068617 0.381377
Si Si6 0.697513 0.697824 0.553007
Si Si7 0.106657 0.068907 0.474737
Si Si8 0.687443 0.811789 0.315300
O O1 0.713677 0.500000 0.425536
O O2 0.618643 0.424687 0.460358
O O3 0.716123 0.433162 0.690833
O O4 0.713536 0.363509 0.441745
O O5 0.500000 0.612736 0.401208
O O6 0.589461 0.680025 0.273825
O O7 0.575505 0.574993 0.157487
O O8 0.912525 0.224111 0.462757
O O9 0.870692 0.192962 0.152053
O O10 0.924987 0.117405 0.351993
O O11 0.000000 0.202956 0.232822
O O12 0.879162 0.704485 0.723095
O O13 0.000000 0.746666 0.677413
O O14 0.817205 0.084476 0.491497
O O15 0.699851 0.119980 0.384117
O O16 0.732508 0.000000 0.423100
O O17 0.695860 0.760877 0.456457
O O18 0.754405 0.699233 0.687065
O O19 0.102790 0.000000 0.411701
#
# Coordination Sequence:
#
# PCOD9373437 Si02
#       8
#     8   8   8   8   8   8   8   8
#     4  10  19  33  46  66 102 135 168 210 247 283
#     4  10  20  32  45  69 104 141 181 212 240 286
#     4  10  20  34  48  70 107 137 170 212 248 295
#     4   9  19  34  52  75 103 132 162 211 266 305
#     4   9  20  36  52  72  99 131 166 215 267 302
#     4  11  22  33  50  78  97 134 181 214 252 298
#     4  10  18  32  48  68 100 140 182 209 240 286
#     4  11  20  34  57  74 100 128 171 218 252 315
#
# _framework density 17.731643999999999
#
# number of rings (size 3 to 8) (size 9 to 14) (size 15 to 20)
#    0.000    2.000    3.750    2.250    1.750    2.750 
#    0.000    0.000    0.000    0.375    0.000    0.000 
#    0.000    1.000    0.000    0.000    0.000    0.000 
#
# Total GULP energy -178248.854826 kJ/mol
# GULP energy per Si atom -5570.276713 kJ/mol
# Density = 1.769129 g / cm^3
# Si number density = 17.731644 Si / 1000 Ang^3
#
#
#
# Elastic Constant Matrix: (Units=GPa)
#
#
# Indices 1 2 3 4 5 6 
#
# 1 66.0774 50.2351 12.9930 0.0000 0.0000 0.0000
# 2 50.2351 116.6582 25.8447 0.0000 0.0000 0.0000
# 3 12.9930 25.8447 29.6800 0.0000 0.0000 0.0000
# 4 0.0000 0.0000 0.0000 16.4165 0.0000 0.0000
# 5 0.0000 0.0000 0.0000 0.0000 23.0875 0.0000
# 6 0.0000 0.0000 0.0000 0.0000 0.0000 2.3969
#
#
#
# Elastic Compliance Matrix: (Units=1/GPa)
#
#
# Indices 1 2 3 4 5 6 
#
# 1 0.022573 -0.009331 -0.001756 0.000000 0.000000 0.000000
# 2 -0.009331 0.014478 -0.008523 0.000000 0.000000 0.000000
# 3 -0.001756 -0.008523 0.041883 0.000000 0.000000 0.000000
# 4 0.000000 0.000000 0.000000 0.060914 0.000000 0.000000
# 5 0.000000 0.000000 0.000000 0.000000 0.043313 0.000000
# 6 0.000000 0.000000 0.000000 0.000000 0.000000 0.417208
#
#
# Mechanical properties :
#
#
# Convention : Reuss Voigt Hill
#
# Bulk Modulus (GPa) = 25.18001 43.39571 34.28786
# Shear Modulus (GPa) = 7.65898 16.60302 12.13100
#
# Velocity S-wave (km/s) = 2.08057 3.06330 2.61845
# Velocity P-wave (km/s) = 4.47248 6.08593 5.34049
#
# Compressibility (1/GPa) = 0.03971404
#
# Stress axis : x y z
#
# Youngs Moduli (GPa) = 44.30021 69.06837 23.87618
#
# Poissons Ratio (x) = 0.64450 0.04193
# Poissons Ratio (y) = 0.41338 0.20348
# Poissons Ratio (z) = 0.07781 0.58864
#
# Static dielectric constant tensor:
#      x y z
#    x 1.620240 0.000000 0.000000 
#    y 0.000000 1.648690 0.000000 
#    z 0.000000 0.000000 1.658330 
# 
# From -- ./inp_files/8513.got.cif
#   From: 2010.05.17/outbox.cif.g08.bks.cpg/sg44_5_cif.got.tgz:8513.got - 2010.06.03 19:37:08.
