data_PCOD9373799
_publ_section_title
;
Structure prediction by ZEFSAII (Michael W. Deem and Ramdas Pophale) SiO2 
 PCOD9373799
Probable space group: I M M 2
;
_chemical_formula_sum "Si O2"
_cell_formula_units_Z 56
_cell_length_a 24.240911
_cell_length_b 8.861931
_cell_length_c 14.198608
_cell_angle_alpha 90.000000
_cell_angle_beta 90.000000
_cell_angle_gamma 90.000000
_cell_volume 3050.163154
_symmetry_space_group_name_H-M "I M M 2"
_symmetry_group_IT_number 44
_symmetry_cell_setting 'orthorhombic'
loop_
_space_group_symop_operation_xyz
x,y,z
-x,-y,z
-x,y,z
x,-y,z
1/2+x,1/2+y,1/2+z
1/2-x,1/2-y,1/2+z
1/2-x,1/2+y,1/2+z
1/2+x,1/2-y,1/2+z
loop_
_atom_site_type_symbol
_atom_site_label
_atom_site_fract_x
_atom_site_fract_y
_atom_site_fract_z
Si Si1 0.618978 0.819526 0.614780
Si Si2 0.064686 0.180015 0.295405
Si Si3 0.438121 0.319021 0.437590
Si Si4 0.670812 0.318849 0.325368
Si Si5 0.663058 0.682648 0.110636
Si Si6 0.063759 0.680550 0.499873
Si Si7 0.228295 0.318548 0.000952
O O1 0.602705 0.745288 0.713181
O O2 0.576594 0.762559 0.535009
O O3 0.679137 0.776232 0.573597
O O4 0.616774 0.000000 0.623122
O O5 0.076850 0.253349 0.396481
O O6 0.000000 0.212980 0.273430
O O7 0.070823 0.000000 0.301561
O O8 0.500000 0.281771 0.406443
O O9 0.435232 0.500000 0.452952
O O10 0.390399 0.279178 0.363500
O O11 0.676212 0.500000 0.329121
O O12 0.676676 0.271086 0.217536
O O13 0.713131 0.248811 0.399757
O O14 0.659177 0.500000 0.109176
O O15 0.606239 0.751241 0.074046
O O16 0.713002 0.728827 0.042180
O O17 0.068074 0.500000 0.497515
O O18 0.000000 0.721009 0.520840
O O19 0.227674 0.500000 0.994095
#
# Coordination Sequence:
#
# PCOD9373799 Si02
#       7
#     8   8   8   8   8   8   8
#     4  10  19  31  49  75 109 145 180 223 272 316
#     4  10  20  34  53  78 109 145 183 222 265 315
#     4   9  17  30  48  72 103 138 178 223 269 320
#     4   9  19  35  55  79 106 138 178 222 266 315
#     4  10  21  38  59  81 106 139 178 218 264 317
#     4  10  22  39  57  80 109 138 173 218 265 316
#     4   9  20  37  54  77 110 143 178 222 267 314
#
# _framework density 18.359673999999998
#
# number of rings (size 3 to 8) (size 9 to 14) (size 15 to 20)
#    0.000    2.429    0.000    1.714    0.000    7.143 
#    0.000    2.857    0.000    0.000    0.000    0.000 
#    0.000    0.000    0.000    0.000    0.000    0.000 
#
# Total GULP energy -156278.695036 kJ/mol
# GULP energy per Si atom -5581.381966 kJ/mol
# Density = 1.831789 g / cm^3
# Si number density = 18.359674 Si / 1000 Ang^3
#
#
#
# Elastic Constant Matrix: (Units=GPa)
#
#
# Indices 1 2 3 4 5 6 
#
# 1 95.4564 31.7512 77.8883 0.0000 0.0000 0.0000
# 2 31.7512 24.8960 38.9543 0.0000 0.0000 0.0000
# 3 77.8883 38.9543 143.5430 0.0000 0.0000 0.0000
# 4 0.0000 0.0000 0.0000 30.9521 0.0000 0.0000
# 5 0.0000 0.0000 0.0000 0.0000 17.5544 0.0000
# 6 0.0000 0.0000 0.0000 0.0000 0.0000 1.1497
#
#
#
# Elastic Compliance Matrix: (Units=1/GPa)
#
#
# Indices 1 2 3 4 5 6 
#
# 1 0.022061 -0.016346 -0.007535 0.000000 0.000000 0.000000
# 2 -0.016346 0.081922 -0.013362 0.000000 0.000000 0.000000
# 3 -0.007535 -0.013362 0.014681 0.000000 0.000000 0.000000
# 4 0.000000 0.000000 0.000000 0.032308 0.000000 0.000000
# 5 0.000000 0.000000 0.000000 0.000000 0.056966 0.000000
# 6 0.000000 0.000000 0.000000 0.000000 0.000000 0.869815
#
#
# Mechanical properties :
#
#
# Convention : Reuss Voigt Hill
#
# Bulk Modulus (GPa) = 22.63575 62.34256 42.48915
# Shear Modulus (GPa) = 4.28462 17.61801 10.95132
#
# Velocity S-wave (km/s) = 1.52931 3.10111 2.44496
# Velocity P-wave (km/s) = 3.93373 6.84489 5.58241
#
# Compressibility (1/GPa) = 0.04417790
#
# Stress axis : x y z
#
# Youngs Moduli (GPa) = 45.32853 12.20679 68.11515
#
# Poissons Ratio (x) = 0.19954 0.51322
# Poissons Ratio (y) = 0.74096 0.91014
# Poissons Ratio (z) = 0.34153 0.16311
#
# Static dielectric constant tensor:
#      x y z
#    x 1.635310 0.000000 0.000000 
#    y 0.000000 1.615980 0.000000 
#    z 0.000000 0.000000 1.603080 
# 
# From -- ./inp_files/19180.got.cif
#   From: 2010.05.17/outbox.cif.g08.bks.cpg/sg44_10_cif.got.tgz:19180.got - 2010.06.03 19:37:08.
