data_PCOD9373396
_publ_section_title
;
Structure prediction by ZEFSAII (Michael W. Deem and Ramdas Pophale) SiO2 
 PCOD9373396
Probable space group: I M M 2
;
_chemical_formula_sum "Si O2"
_cell_formula_units_Z 48
_cell_length_a 14.452098
_cell_length_b 7.226794
_cell_length_c 19.148769
_cell_angle_alpha 90.000000
_cell_angle_beta 90.000000
_cell_angle_gamma 90.000000
_cell_volume 1999.942149
_symmetry_space_group_name_H-M "I M M 2"
_symmetry_group_IT_number 44
_symmetry_cell_setting 'orthorhombic'
loop_
_space_group_symop_operation_xyz
x,y,z
-x,-y,z
-x,y,z
x,-y,z
1/2+x,1/2+y,1/2+z
1/2-x,1/2-y,1/2+z
1/2-x,1/2+y,1/2+z
1/2+x,1/2-y,1/2+z
loop_
_atom_site_type_symbol
_atom_site_label
_atom_site_fract_x
_atom_site_fract_y
_atom_site_fract_z
Si Si1 0.097888 0.723011 0.666970
Si Si2 0.302358 0.721083 0.814090
Si Si3 0.893549 0.225884 0.168874
Si Si4 0.602272 0.782032 0.953133
Si Si5 0.600581 0.223613 0.330234
Si Si6 0.747147 0.276050 0.559911
O O1 0.099356 0.500000 0.665282
O O2 0.099945 0.770620 0.747863
O O3 0.183375 0.779688 0.621960
O O4 0.000000 0.784602 0.636977
O O5 0.291574 0.500000 0.807036
O O6 0.333774 0.785475 0.737055
O O7 0.380245 0.760262 0.871015
O O8 0.204381 0.788678 0.847381
O O9 0.850178 0.282944 0.093846
O O10 0.000000 0.281739 0.176348
O O11 0.890973 0.000000 0.170105
O O12 0.500000 0.708030 0.970965
O O13 0.598883 0.000000 0.970370
O O14 0.694297 0.710028 0.992887
O O15 0.500000 0.287501 0.359206
O O16 0.599117 0.000000 0.338169
O O17 0.740417 0.500000 0.553556
#
# Coordination Sequence:
#
# PCOD9373396 Si02
#       6
#     8   8   8   8   8   8
#     4   8  11  17  34  60  86 109 139 185 234 270
#     4  10  18  31  51  75 102 130 161 200 246 294
#     4   9  16  26  44  71  97 121 157 206 251 286
#     4  10  21  34  48  70 100 132 164 200 245 297
#     4   8  13  22  40  69  98 119 148 195 243 278
#     4   9  15  26  42  63  91 121 155 197 241 281
#
# _framework density 24.000693999999999
#
# number of rings (size 3 to 8) (size 9 to 14) (size 15 to 20)
#    0.000    3.000    1.667    2.000    0.000    3.000 
#    0.000    0.833    0.000    2.500    0.000    0.000 
#    0.000    0.000    0.000    0.000    0.000    0.000 
#
# Total GULP energy -133684.960376 kJ/mol
# GULP energy per Si atom -5570.206682 kJ/mol
# Density = 2.394607 g / cm^3
# Si number density = 24.000694 Si / 1000 Ang^3
#
#
#
# Elastic Constant Matrix: (Units=GPa)
#
#
# Indices 1 2 3 4 5 6 
#
# 1 160.8733 3.3473 41.7721 0.0000 0.0000 0.0000
# 2 3.3473 111.2686 -4.9242 0.0000 0.0000 0.0000
# 3 41.7721 -4.9242 86.5107 0.0000 0.0000 0.0000
# 4 0.0000 0.0000 0.0000 -1.9940 0.0000 0.0000
# 5 0.0000 0.0000 0.0000 0.0000 -28.8287 0.0000
# 6 0.0000 0.0000 0.0000 0.0000 0.0000 -18.3254
#
#
#
# Elastic Compliance Matrix: (Units=1/GPa)
#
#
# Indices 1 2 3 4 5 6 
#
# 1 0.007122 -0.000367 -0.003460 0.000000 0.000000 0.000000
# 2 -0.000367 0.009029 0.000691 0.000000 0.000000 0.000000
# 3 -0.003460 0.000691 0.013269 0.000000 0.000000 0.000000
# 4 0.000000 0.000000 0.000000 -0.501495 0.000000 0.000000
# 5 0.000000 0.000000 0.000000 0.000000 -0.034688 0.000000
# 6 0.000000 0.000000 0.000000 0.000000 0.000000 -0.054569
#
#
# Mechanical properties :
#
#
# Convention : Reuss Voigt Hill
#
# Bulk Modulus (GPa) = 43.19951 48.78255 45.99103
# Shear Modulus (GPa) = -9.13503 11.40087 1.13292
#
# Velocity S-wave (km/s) = -1.95305 2.18187 0.68779
# Velocity P-wave (km/s) = 3.59895 5.16885 4.45362
#
# Compressibility (1/GPa) = 0.02314841
#
# Stress axis : x y z
#
# Youngs Moduli (GPa) = 140.40813 110.75537 75.36234
#
# Poissons Ratio (x) = 0.04069 0.26074
# Poissons Ratio (y) = 0.05158 -0.05210
# Poissons Ratio (z) = 0.48579 -0.07657
#
# Static dielectric constant tensor:
#      x y z
#    x 2.005710 0.000000 0.000000 
#    y 0.000000 1.990500 0.000000 
#    z 0.000000 0.000000 1.870520 
# 
# From -- ./inp_files/21724.got.cif
#   From: 2010.05.17/outbox.cif.g08.bks.cpg/sg44_11_cif.got.tgz:21724.got - 2010.06.03 19:37:08.
