data_PCOD9373560
_publ_section_title
;
Structure prediction by ZEFSAII (Michael W. Deem and Ramdas Pophale) SiO2 
 PCOD9373560
Probable space group: I M M 2
;
_chemical_formula_sum "Si O2"
_cell_formula_units_Z 64
_cell_length_a 12.211796
_cell_length_b 17.290658
_cell_length_c 13.823397
_cell_angle_alpha 90.000000
_cell_angle_beta 90.000000
_cell_angle_gamma 90.000000
_cell_volume 2918.810113
_symmetry_space_group_name_H-M "I M M 2"
_symmetry_group_IT_number 44
_symmetry_cell_setting 'orthorhombic'
loop_
_space_group_symop_operation_xyz
x,y,z
-x,-y,z
-x,y,z
x,-y,z
1/2+x,1/2+y,1/2+z
1/2-x,1/2-y,1/2+z
1/2-x,1/2+y,1/2+z
1/2+x,1/2-y,1/2+z
loop_
_atom_site_type_symbol
_atom_site_label
_atom_site_fract_x
_atom_site_fract_y
_atom_site_fract_z
Si Si1 0.738654 0.235725 0.244390
Si Si2 0.620685 0.235634 0.931856
Si Si3 0.248720 0.410738 0.461053
Si Si4 0.874995 0.385107 0.970305
Si Si5 0.875962 0.415395 0.741816
Si Si6 0.129244 0.887725 0.547254
Si Si7 0.379091 0.615632 0.270950
Si Si8 0.377344 0.723980 0.566008
O O1 0.802339 0.235797 0.345196
O O2 0.700499 0.152670 0.209254
O O3 0.637328 0.292171 0.261447
O O4 0.816230 0.261963 0.157623
O O5 0.500000 0.240895 0.892015
O O6 0.645464 0.147346 0.960219
O O7 0.629036 0.295964 0.020510
O O8 0.235318 0.500000 0.491652
O O9 0.293033 0.411862 0.350178
O O10 0.331346 0.355572 0.521399
O O11 0.751812 0.411771 0.006552
O O12 0.875693 0.292433 0.986781
O O13 0.000000 0.408880 0.008698
O O14 0.878043 0.407763 0.858179
O O15 0.835960 0.500000 0.715326
O O16 0.000000 0.405986 0.706699
O O17 0.133953 0.909284 0.660000
O O18 0.000000 0.910567 0.516302
O O19 0.500000 0.595474 0.305185
O O20 0.500000 0.708446 0.597211
#
# Coordination Sequence:
#
# PCOD9373560 Si02
#       8
#     8   8   8   8   8   8   8   8
#     4  11  19  35  59  85 114 146 195 238 295 342
#     4  10  20  36  61  87 114 147 190 241 300 354
#     4  11  23  39  56  80 116 154 197 240 294 352
#     4  10  18  36  61  87 116 151 196 247 293 346
#     4  10  21  36  57  86 120 155 191 236 293 356
#     4  10  18  35  60  89 116 145 191 249 300 348
#     4  10  20  34  57  83 110 147 196 246 294 341
#     4  11  22  36  58  85 112 148 200 250 293 341
#
# _framework density 21.926743999999999
#
# number of rings (size 3 to 8) (size 9 to 14) (size 15 to 20)
#    0.000    1.625    3.750    1.875    0.000    2.750 
#    0.000    1.250    0.000    3.750    0.000    0.000 
#    0.000    0.000    0.000    0.000    0.000    0.000 
#
# Total GULP energy -178188.849093 kJ/mol
# GULP energy per Si atom -5568.401534 kJ/mol
# Density = 2.187684 g / cm^3
# Si number density = 21.926744 Si / 1000 Ang^3
#
#
#
# Elastic Constant Matrix: (Units=GPa)
#
#
# Indices 1 2 3 4 5 6 
#
# 1 125.8605 9.6518 18.4827 0.0000 0.0000 0.0000
# 2 9.6518 147.1012 9.8428 0.0000 0.0000 0.0000
# 3 18.4827 9.8428 72.0753 -0.0001 0.0000 0.0000
# 4 0.0000 0.0000 -0.0001 -27.2932 0.0000 0.0000
# 5 0.0000 0.0000 0.0000 0.0000 17.3252 0.0000
# 6 0.0000 0.0000 0.0000 0.0000 0.0000 -15.8920
#
#
#
# Elastic Compliance Matrix: (Units=1/GPa)
#
#
# Indices 1 2 3 4 5 6 
#
# 1 0.008280 -0.000405 -0.002068 0.000000 0.000000 0.000000
# 2 -0.000405 0.006881 -0.000836 0.000000 0.000000 0.000000
# 3 -0.002068 -0.000836 0.014519 0.000000 0.000000 0.000000
# 4 0.000000 0.000000 0.000000 -0.036639 0.000000 0.000000
# 5 0.000000 0.000000 0.000000 0.000000 0.057719 0.000000
# 6 0.000000 0.000000 0.000000 0.000000 0.000000 -0.062925
#
#
# Mechanical properties :
#
#
# Convention : Reuss Voigt Hill
#
# Bulk Modulus (GPa) = 43.36138 46.77684 45.06911
# Shear Modulus (GPa) = 2336.65650 15.29864 1175.97757
#
# Velocity S-wave (km/s) = 32.67994 2.64430 23.18373
# Velocity P-wave (km/s) = 37.99724 5.54099 27.15228
#
# Compressibility (1/GPa) = 0.02306200
#
# Stress axis : x y z
#
# Youngs Moduli (GPa) = 120.77236 145.33754 68.87607
#
# Poissons Ratio (x) = 0.05885 0.14244
# Poissons Ratio (y) = 0.04890 0.05757
# Poissons Ratio (z) = 0.24976 0.12147
#
# Static dielectric constant tensor:
#      x y z
#    x 1.862610 0.000000 0.000000 
#    y 0.000000 1.843530 0.000000 
#    z 0.000000 0.000000 1.787670 
# 
# From -- ./inp_files/17933.got.cif
#   From: 2010.05.17/outbox.cif.g08.bks.cpg/sg44_9_cif.got.tgz:17933.got - 2010.06.03 19:37:08.
