data_PCOD9373009
_publ_section_title
;
Structure prediction by ZEFSAII (Michael W. Deem and Ramdas Pophale) SiO2 
 PCOD9373009
Probable space group: I M M 2
;
_chemical_formula_sum "Si O2"
_cell_formula_units_Z 26
_cell_length_a 15.463860
_cell_length_b 9.787414
_cell_length_c 6.933218
_cell_angle_alpha 90.000000
_cell_angle_beta 90.000000
_cell_angle_gamma 90.000000
_cell_volume 1049.350863
_symmetry_space_group_name_H-M "I M M 2"
_symmetry_group_IT_number 44
_symmetry_cell_setting 'orthorhombic'
loop_
_space_group_symop_operation_xyz
x,y,z
-x,-y,z
-x,y,z
x,-y,z
1/2+x,1/2+y,1/2+z
1/2-x,1/2-y,1/2+z
1/2-x,1/2+y,1/2+z
1/2+x,1/2-y,1/2+z
loop_
_atom_site_type_symbol
_atom_site_label
_atom_site_fract_x
_atom_site_fract_y
_atom_site_fract_z
Si Si1 0.000000 0.835051 0.318521
Si Si2 0.000000 0.000000 0.668214
Si Si3 0.277659 0.500000 0.649314
Si Si4 0.844597 0.714481 0.097106
Si Si5 0.698313 0.500000 0.120476
Si Si6 0.095491 0.500000 0.785213
O O1 0.917990 0.748607 0.252603
O O2 0.000000 0.000000 0.244722
O O3 0.000000 0.860784 0.543773
O O4 0.896566 0.000000 0.718088
O O5 0.311984 0.364835 0.552542
O O6 0.306828 0.500000 0.879674
O O7 0.174529 0.500000 0.640361
O O8 0.760854 0.628681 0.159738
O O9 0.888598 0.630520 0.924644
O O10 0.000000 0.500000 0.704239
#
# Coordination Sequence:
#
# PCOD9373009 Si02
#       6
#     4   2   4   8   4   4
#     4  10  16  29  65  76 101 148 187 217 266 312
#     4  10  18  38  58  76 106 154 178 216 272 326
#     4  10  18  38  54  79 112 143 173 226 268 317
#     4  10  18  33  56  84 104 144 179 225 262 323
#     4  10  22  33  59  82 109 141 184 223 273 313
#     4  10  22  34  57  81 106 142 183 223 267 312
#
# _framework density 24.777224
#
# number of rings (size 3 to 8) (size 9 to 14) (size 15 to 20)
#    0.462    1.846    6.154    0.000    0.000    0.000 
#    2.769   12.308    0.000    0.000    0.000    0.000 
#    0.000    0.000    0.000    0.000    0.000    0.000 
#
# Total GULP energy -72538.828488 kJ/mol
# GULP energy per Si atom -5579.909884 kJ/mol
# Density = 2.472083 g / cm^3
# Si number density = 24.777224 Si / 1000 Ang^3
#
#
#
# Elastic Constant Matrix: (Units=GPa)
#
#
# Indices 1 2 3 4 5 6 
#
# 1 239.1966 68.6912 31.1940 0.0000 0.0000 0.0000
# 2 68.6912 181.5100 20.0550 0.0000 0.0000 0.0000
# 3 31.1940 20.0550 63.2841 0.0000 0.0000 0.0000
# 4 0.0000 0.0000 0.0000 -58.7874 0.0000 0.0000
# 5 0.0000 0.0000 0.0000 0.0000 -2.0733 0.0000
# 6 0.0000 0.0000 0.0000 0.0000 0.0000 22.1717
#
#
#
# Elastic Compliance Matrix: (Units=1/GPa)
#
#
# Indices 1 2 3 4 5 6 
#
# 1 0.004900 -0.001645 -0.001894 0.000000 0.000000 0.000000
# 2 -0.001645 0.006262 -0.001173 0.000000 0.000000 0.000000
# 3 -0.001894 -0.001173 0.017107 0.000000 0.000000 0.000000
# 4 0.000000 0.000000 0.000000 -0.017010 0.000000 0.000000
# 5 0.000000 0.000000 0.000000 0.000000 -0.482334 0.000000
# 6 0.000000 0.000000 0.000000 0.000000 0.000000 0.045103
#
#
# Mechanical properties :
#
#
# Convention : Reuss Voigt Hill
#
# Bulk Modulus (GPa) = 53.06788 80.43011 66.74899
# Shear Modulus (GPa) = -12.18719 16.53225 2.17253
#
# Velocity S-wave (km/s) = -2.22022 2.58589 0.93741
# Velocity P-wave (km/s) = 3.85901 6.43798 5.30752
#
# Compressibility (1/GPa) = 0.01884379
#
# Stress axis : x y z
#
# Youngs Moduli (GPa) = 204.07728 159.70415 58.45494
#
# Poissons Ratio (x) = 0.26274 0.11071
# Poissons Ratio (y) = 0.33574 0.06859
# Poissons Ratio (z) = 0.38652 0.18740
#
# Static dielectric constant tensor:
#      x y z
#    x 2.060300 0.000000 0.000000 
#    y 0.000000 1.949080 0.000000 
#    z 0.000000 0.000000 2.039790 
# 
# From -- ./inp_files/7826.got.cif
#   From: 2010.05.17/outbox.cif.g08.bks.cpg/sg44_4_cif.got.tgz:7826.got - 2010.06.03 19:37:08.
