data_PCOD9373208
_publ_section_title
;
Structure prediction by ZEFSAII (Michael W. Deem and Ramdas Pophale) SiO2 
 PCOD9373208
Probable space group: I M M 2
;
_chemical_formula_sum "Si O2"
_cell_formula_units_Z 56
_cell_length_a 14.079607
_cell_length_b 7.833375
_cell_length_c 33.334121
_cell_angle_alpha 90.000000
_cell_angle_beta 90.000000
_cell_angle_gamma 90.000000
_cell_volume 3676.448255
_symmetry_space_group_name_H-M "I M M 2"
_symmetry_group_IT_number 44
_symmetry_cell_setting 'orthorhombic'
loop_
_space_group_symop_operation_xyz
x,y,z
-x,-y,z
-x,y,z
x,-y,z
1/2+x,1/2+y,1/2+z
1/2-x,1/2-y,1/2+z
1/2-x,1/2+y,1/2+z
1/2+x,1/2-y,1/2+z
loop_
_atom_site_type_symbol
_atom_site_label
_atom_site_fract_x
_atom_site_fract_y
_atom_site_fract_z
Si Si1 0.892902 0.295917 0.556980
Si Si2 0.208468 0.798964 0.639069
Si Si3 0.387328 0.190999 0.220013
Si Si4 0.384945 0.500000 0.368466
Si Si5 0.893017 0.708968 0.093936
Si Si6 0.793607 0.295244 0.012535
Si Si7 0.114137 0.701689 0.928990
Si Si8 0.884419 0.000000 0.776946
O O1 0.893890 0.500000 0.560722
O O2 0.856499 0.224321 0.599569
O O3 0.814352 0.249506 0.523810
O O4 0.000000 0.236845 0.548269
O O5 0.165633 0.709782 0.677785
O O6 0.312774 0.737248 0.625525
O O7 0.213199 0.000000 0.648087
O O8 0.500000 0.216934 0.212355
O O9 0.355972 0.333556 0.251651
O O10 0.374652 0.000000 0.236009
O O11 0.500000 0.500000 0.366882
O O12 0.358764 0.670356 0.393183
O O13 0.350117 0.500000 0.322716
O O14 0.891874 0.500000 0.093675
O O15 0.000000 0.764404 0.102163
O O16 0.857731 0.766322 0.049928
O O17 0.801361 0.500000 0.012569
O O18 0.832865 0.240394 0.969585
O O19 0.134301 0.500000 0.921276
O O20 0.000000 0.714582 0.935301
O O21 0.000000 0.000000 0.778335
#
# Coordination Sequence:
#
# PCOD9373208 Si02
#       8
#     8   8   8   4   8   8   8   4
#     4  10  20  30  40  58  86 119 154 194 231 262
#     4  10  18  28  44  63  86 119 155 189 225 266
#     4  10  19  30  46  66  90 121 152 186 225 267
#     4   9  18  30  46  68  93 121 151 187 228 268
#     4   8  14  25  41  61  86 117 152 188 223 260
#     4   9  17  28  44  63  84 117 154 187 223 261
#     4   9  17  29  46  68  93 121 152 184 221 270
#     4   9  18  32  46  66  93 119 153 189 224 274
#
# _framework density 15.232093000000001
#
# number of rings (size 3 to 8) (size 9 to 14) (size 15 to 20)
#    0.000    2.714    0.714    2.571    1.000    5.143 
#    0.000    2.857    0.000    7.714    0.000    0.000 
#    0.000    2.286    0.000    3.143    0.000    0.286 
#
# Total GULP energy -156028.430527 kJ/mol
# GULP energy per Si atom -5572.443947 kJ/mol
# Density = 1.519742 g / cm^3
# Si number density = 15.232093 Si / 1000 Ang^3
#
#
#
# Elastic Constant Matrix: (Units=GPa)
#
#
# Indices 1 2 3 4 5 6 
#
# 1 73.1958 22.7015 47.3036 0.0000 0.0000 0.0000
# 2 22.7015 61.9222 51.0245 0.0000 0.0000 0.0000
# 3 47.3036 51.0245 114.9932 0.0000 0.0000 0.0000
# 4 0.0000 0.0000 0.0000 10.6440 0.0000 0.0000
# 5 0.0000 0.0000 0.0000 0.0000 16.1739 0.0000
# 6 0.0000 0.0000 0.0000 0.0000 0.0000 5.6955
#
#
#
# Elastic Compliance Matrix: (Units=1/GPa)
#
#
# Indices 1 2 3 4 5 6 
#
# 1 0.018635 -0.000812 -0.007305 0.000000 0.000000 0.000000
# 2 -0.000812 0.025492 -0.010977 0.000000 0.000000 0.000000
# 3 -0.007305 -0.010977 0.016572 0.000000 0.000000 0.000000
# 4 0.000000 0.000000 0.000000 0.093950 0.000000 0.000000
# 5 0.000000 0.000000 0.000000 0.000000 0.061828 0.000000
# 6 0.000000 0.000000 0.000000 0.000000 0.000000 0.175576
#
#
# Mechanical properties :
#
#
# Convention : Reuss Voigt Hill
#
# Bulk Modulus (GPa) = 44.42492 54.68562 49.55527
# Shear Modulus (GPa) = 11.42213 15.10811 13.26512
#
# Velocity S-wave (km/s) = 2.74135 3.15280 2.95425
# Velocity P-wave (km/s) = 6.26488 7.01663 6.65138
#
# Compressibility (1/GPa) = 0.02250989
#
# Stress axis : x y z
#
# Youngs Moduli (GPa) = 53.66235 39.22722 60.34227
#
# Poissons Ratio (x) = 0.03186 0.44082
# Poissons Ratio (y) = 0.04359 0.66240
# Poissons Ratio (z) = 0.39202 0.43061
#
# Static dielectric constant tensor:
#      x y z
#    x 1.504670 0.000000 0.000000 
#    y 0.000000 1.546460 0.000000 
#    z 0.000000 0.000000 1.487270 
# 
# From -- ./inp_files/27484.got.cif
#   From: 2010.05.17/outbox.cif.g08.bks.cpg/sg44_14_cif.got.tgz:27484.got - 2010.06.03 19:37:08.
