data_PCOD9373003
_publ_section_title
;
Structure prediction by ZEFSAII (Michael W. Deem and Ramdas Pophale) SiO2 
 PCOD9373003
Probable space group: I M M 2
;
_chemical_formula_sum "Si O2"
_cell_formula_units_Z 42
_cell_length_a 7.923170
_cell_length_b 22.802195
_cell_length_c 9.395989
_cell_angle_alpha 90.000000
_cell_angle_beta 90.000000
_cell_angle_gamma 90.000000
_cell_volume 1697.532623
_symmetry_space_group_name_H-M "I M M 2"
_symmetry_group_IT_number 44
_symmetry_cell_setting 'orthorhombic'
loop_
_space_group_symop_operation_xyz
x,y,z
-x,-y,z
-x,y,z
x,-y,z
1/2+x,1/2+y,1/2+z
1/2-x,1/2-y,1/2+z
1/2-x,1/2+y,1/2+z
1/2+x,1/2-y,1/2+z
loop_
_atom_site_type_symbol
_atom_site_label
_atom_site_fract_x
_atom_site_fract_y
_atom_site_fract_z
Si Si1 0.500000 0.500000 0.959301
Si Si2 0.696974 0.182121 0.289360
Si Si3 0.315106 0.936091 0.568488
Si Si4 0.196126 0.876420 0.837978
Si Si5 0.197495 0.735681 0.503679
Si Si6 0.705132 0.434140 0.633253
O O1 0.650750 0.449010 0.972564
O O2 0.500000 0.193478 0.308964
O O3 0.781295 0.200571 0.436453
O O4 0.765291 0.223493 0.161270
O O5 0.723506 0.117376 0.229946
O O6 0.500000 0.927974 0.499079
O O7 0.290540 0.889167 0.692269
O O8 0.320877 0.000000 0.646449
O O9 0.215844 0.811156 0.899136
O O10 0.250046 0.917523 0.970443
O O11 0.000000 0.889183 0.809650
O O12 0.000000 0.720736 0.507854
O O13 0.500000 0.433132 0.643696
O O14 0.759621 0.500000 0.668897
#
# Coordination Sequence:
#
# PCOD9373003 Si02
#       6
#     2   8   8   8   8   8
#     4   8  14  24  32  50  84 124 158 210 258 326
#     4  10  21  37  55  83 114 150 193 238 289 346
#     4   9  15  22  35  55  84 122 164 207 261 322
#     4  10  16  27  44  69 102 139 176 221 276 334
#     4  10  21  35  54  78 111 147 192 239 286 348
#     4   9  18  30  50  76 109 145 183 229 286 342
#
# _framework density 24.741792
#
# number of rings (size 3 to 8) (size 9 to 14) (size 15 to 20)
#    0.571    1.905    0.952    2.286    0.000    4.190 
#    0.000    0.000    0.000    0.000    0.000    6.667 
#    0.000   26.286    0.000    0.000    0.000    0.000 
#
# Total GULP energy -117113.196229 kJ/mol
# GULP energy per Si atom -5576.818868 kJ/mol
# Density = 2.468548 g / cm^3
# Si number density = 24.741792 Si / 1000 Ang^3
#
#
#
# Elastic Constant Matrix: (Units=GPa)
#
#
# Indices 1 2 3 4 5 6 
#
# 1 107.0502 1.7804 25.1336 -0.0002 0.0000 0.0000
# 2 1.7804 90.9447 62.8607 0.0002 0.0003 0.0000
# 3 25.1336 62.8607 103.4798 -0.0006 -0.0005 0.0001
# 4 -0.0002 0.0002 -0.0006 44.9305 -0.0001 0.0000
# 5 0.0000 0.0003 -0.0005 -0.0001 13.1673 0.0000
# 6 0.0000 0.0000 0.0001 0.0000 0.0000 33.8517
#
#
#
# Elastic Compliance Matrix: (Units=1/GPa)
#
#
# Indices 1 2 3 4 5 6 
#
# 1 0.010257 0.002622 -0.004084 0.000000 0.000000 0.000000
# 2 0.002622 0.019625 -0.012558 0.000000 -0.000001 0.000000
# 3 -0.004084 -0.012558 0.018284 0.000000 0.000001 0.000000
# 4 0.000000 0.000000 0.000000 0.022257 0.000000 0.000000
# 5 0.000000 -0.000001 0.000001 0.000000 0.075946 0.000000
# 6 0.000000 0.000000 0.000000 0.000000 0.000000 0.029541
#
#
# Mechanical properties :
#
#
# Convention : Reuss Voigt Hill
#
# Bulk Modulus (GPa) = 49.68856 53.44713 51.56785
# Shear Modulus (GPa) = 23.73525 32.50323 28.11924
#
# Velocity S-wave (km/s) = 3.10065 3.62843 3.37487
# Velocity P-wave (km/s) = 5.73978 6.26122 6.00616
#
# Compressibility (1/GPa) = 0.02012536
#
# Stress axis : x y z
#
# Youngs Moduli (GPa) = 97.49764 50.95665 54.69162
#
# Poissons Ratio (x) = -0.13361 0.22336
# Poissons Ratio (y) = -0.25564 0.68683
# Poissons Ratio (z) = 0.39818 0.63992
#
# Static dielectric constant tensor:
#      x y z
#    x 1.905290 0.000000 0.000000 
#    y 0.000000 1.985970 0.000000 
#    z 0.000000 0.000000 1.970500 
# 
# From -- ./inp_files/11096.got.cif
#   From: 2010.05.17/outbox.cif.g08.bks.cpg/sg44_6_cif.got.tgz:11096.got - 2010.06.03 19:37:08.
