data_PCOD9373803
_publ_section_title
;
Structure prediction by ZEFSAII (Michael W. Deem and Ramdas Pophale) SiO2 
 PCOD9373803
Probable space group: I M M 2
;
_chemical_formula_sum "Si O2"
_cell_formula_units_Z 64
_cell_length_a 8.829697
_cell_length_b 14.721670
_cell_length_c 29.051385
_cell_angle_alpha 90.000000
_cell_angle_beta 90.000000
_cell_angle_gamma 90.000000
_cell_volume 3776.328105
_symmetry_space_group_name_H-M "I M M 2"
_symmetry_group_IT_number 44
_symmetry_cell_setting 'orthorhombic'
loop_
_space_group_symop_operation_xyz
x,y,z
-x,-y,z
-x,y,z
x,-y,z
1/2+x,1/2+y,1/2+z
1/2-x,1/2-y,1/2+z
1/2-x,1/2+y,1/2+z
1/2+x,1/2-y,1/2+z
loop_
_atom_site_type_symbol
_atom_site_label
_atom_site_fract_x
_atom_site_fract_y
_atom_site_fract_z
Si Si1 0.318434 0.394236 0.900850
Si Si2 0.177202 0.608648 0.724764
Si Si3 0.181224 0.605275 0.000676
Si Si4 0.683055 0.285827 0.810831
Si Si5 0.818994 0.894252 0.125480
Si Si6 0.682348 0.897188 0.768082
Si Si7 0.818306 0.225217 0.581250
Si Si8 0.318768 0.605848 0.169217
O O1 0.500000 0.384596 0.906935
O O2 0.288914 0.500000 0.888881
O O3 0.268640 0.330769 0.858790
O O4 0.237848 0.374715 0.949070
O O5 0.190307 0.500000 0.731613
O O6 0.251238 0.659153 0.767679
O O7 0.256963 0.630073 0.676314
O O8 0.000000 0.632305 0.721196
O O9 0.225401 0.500000 0.010880
O O10 0.254547 0.673188 0.037112
O O11 0.000000 0.611116 0.002851
O O12 0.500000 0.291766 0.809008
O O13 0.727726 0.180789 0.803783
O O14 0.746468 0.825574 0.089148
O O15 0.000000 0.886016 0.125183
O O16 0.779101 0.000000 0.117163
O O17 0.500000 0.899067 0.766595
O O18 0.741595 0.870557 0.717507
O O19 0.735968 0.000000 0.777936
O O20 0.771700 0.167539 0.626548
O O21 0.000000 0.227287 0.579383
O O22 0.500000 0.614015 0.174682
O O23 0.283847 0.500000 0.159399
#
# Coordination Sequence:
#
# PCOD9373803 Si02
#       8
#     8   8   8   8   8   8   8   8
#     4   9  18  33  52  73  97 125 160 204 254 306
#     4  10  20  32  47  71 103 135 167 205 249 298
#     4  10  21  36  54  77 104 132 163 201 248 304
#     4  10  19  31  50  73  97 130 170 208 250 302
#     4  10  21  36  52  71 100 137 173 210 251 295
#     4   9  18  31  46  67  97 131 165 202 241 281
#     4  11  21  33  53  77 101 131 168 209 252 300
#     4   9  18  31  46  68  99 132 164 198 239 288
#
# _framework density 16.947679999999998
#
# number of rings (size 3 to 8) (size 9 to 14) (size 15 to 20)
#    0.000    2.250    0.000    3.000    0.000    7.250 
#    0.000    2.500    0.000    0.750    0.000    1.750 
#    0.000    0.000    0.000    0.000    0.000    0.000 
#
# Total GULP energy -178622.498191 kJ/mol
# GULP energy per Si atom -5581.953068 kJ/mol
# Density = 1.690911 g / cm^3
# Si number density = 16.947680 Si / 1000 Ang^3
#
#
#
# Elastic Constant Matrix: (Units=GPa)
#
#
# Indices 1 2 3 4 5 6 
#
# 1 33.9935 44.2532 41.3543 0.0000 0.0000 0.0000
# 2 44.2532 107.3207 94.8605 0.0000 0.0000 0.0000
# 3 41.3543 94.8605 119.0856 0.0000 0.0000 0.0000
# 4 0.0000 0.0000 0.0000 33.6652 0.0000 0.0000
# 5 0.0000 0.0000 0.0000 0.0000 26.6089 0.0000
# 6 0.0000 0.0000 0.0000 0.0000 0.0000 22.4345
#
#
#
# Elastic Compliance Matrix: (Units=1/GPa)
#
#
# Indices 1 2 3 4 5 6 
#
# 1 0.064088 -0.022827 -0.004072 0.000000 0.000000 0.000000
# 2 -0.022827 0.039620 -0.023633 0.000000 0.000000 0.000000
# 3 -0.004072 -0.023633 0.028637 0.000000 0.000000 0.000000
# 4 0.000000 0.000000 0.000000 0.029704 0.000000 0.000000
# 5 0.000000 0.000000 0.000000 0.000000 0.037581 0.000000
# 6 0.000000 0.000000 0.000000 0.000000 0.000000 0.044574
#
#
# Mechanical properties :
#
#
# Convention : Reuss Voigt Hill
#
# Bulk Modulus (GPa) = 31.96910 69.03732 50.50321
# Shear Modulus (GPa) = 14.05700 21.87052 17.96376
#
# Velocity S-wave (km/s) = 2.88312 3.59621 3.25923
# Velocity P-wave (km/s) = 5.47608 7.62021 6.63533
#
# Compressibility (1/GPa) = 0.03128021
#
# Stress axis : x y z
#
# Youngs Moduli (GPa) = 15.60355 25.24004 34.92028
#
# Poissons Ratio (x) = 0.57616 0.14219
# Poissons Ratio (y) = 0.35619 0.82526
# Poissons Ratio (z) = 0.06354 0.59649
#
# Static dielectric constant tensor:
#      x y z
#    x 1.567390 0.000000 0.000000 
#    y 0.000000 1.597210 0.000000 
#    z 0.000000 0.000000 1.533600 
# 
# From -- ./inp_files/25141.got.cif
#   From: 2010.05.17/outbox.cif.g08.bks.cpg/sg44_13_cif.got.tgz:25141.got - 2010.06.03 19:37:08.
