data_PCOD9373781
_publ_section_title
;
Structure prediction by ZEFSAII (Michael W. Deem and Ramdas Pophale) SiO2 
 PCOD9373781
Probable space group: I M M 2
;
_chemical_formula_sum "Si O2"
_cell_formula_units_Z 64
_cell_length_a 15.505017
_cell_length_b 7.593817
_cell_length_c 28.015239
_cell_angle_alpha 90.000000
_cell_angle_beta 90.000000
_cell_angle_gamma 90.000000
_cell_volume 3298.577601
_symmetry_space_group_name_H-M "I M M 2"
_symmetry_group_IT_number 44
_symmetry_cell_setting 'orthorhombic'
loop_
_space_group_symop_operation_xyz
x,y,z
-x,-y,z
-x,y,z
x,-y,z
1/2+x,1/2+y,1/2+z
1/2-x,1/2-y,1/2+z
1/2-x,1/2+y,1/2+z
1/2+x,1/2-y,1/2+z
loop_
_atom_site_type_symbol
_atom_site_label
_atom_site_fract_x
_atom_site_fract_y
_atom_site_fract_z
Si Si1 0.902173 0.712760 0.425420
Si Si2 0.723567 0.791818 0.289586
Si Si3 0.278926 0.783708 0.011050
Si Si4 0.596931 0.290990 0.205120
Si Si5 0.904679 0.206740 0.314970
Si Si6 0.097035 0.713179 0.870938
Si Si7 0.095689 0.791764 0.981853
Si Si8 0.597227 0.211385 0.095009
O O1 0.899780 0.500000 0.423790
O O2 0.832036 0.770997 0.463904
O O3 0.887441 0.778582 0.371794
O O4 0.000000 0.763711 0.439699
O O5 0.668225 0.774106 0.241813
O O6 0.820448 0.717902 0.289004
O O7 0.667089 0.719370 0.333547
O O8 0.732848 0.000000 0.299045
O O9 0.180260 0.721651 0.008294
O O10 0.332508 0.725117 0.057228
O O11 0.277645 0.000000 0.010835
O O12 0.500000 0.219531 0.215046
O O13 0.593215 0.500000 0.210560
O O14 0.617464 0.251039 0.150028
O O15 0.000000 0.284752 0.306182
O O16 0.910737 0.000000 0.302941
O O17 0.098239 0.500000 0.870549
O O18 0.000000 0.768844 0.856933
O O19 0.111813 0.771040 0.925176
O O20 0.000000 0.717056 0.991870
O O21 0.091515 0.000000 0.991948
O O22 0.500000 0.278176 0.085167
O O23 0.594139 0.000000 0.090046
#
# Coordination Sequence:
#
# PCOD9373781 Si02
#       8
#     8   8   8   8   8   8   8   8
#     4   9  16  26  42  65  92 121 153 187 223 265
#     4  10  19  31  49  69  90 122 160 191 223 270
#     4   9  16  27  45  67  89 115 150 188 220 257
#     4  10  21  35  50  71  97 118 140 181 235 282
#     4   9  18  31  45  65  95 126 156 192 229 263
#     4   9  17  28  42  63  91 120 152 188 221 259
#     4   9  17  28  42  62  90 122 152 182 218 259
#     4   9  17  31  51  70  88 114 147 181 221 271
#
# _framework density 19.402303
#
# number of rings (size 3 to 8) (size 9 to 14) (size 15 to 20)
#    0.000    2.750    0.000    1.875    0.000    3.750 
#    0.000    2.500    0.000    3.750    0.000    3.500 
#    0.000    0.000    0.000    0.000    0.000    0.000 
#
# Total GULP energy -178511.074775 kJ/mol
# GULP energy per Si atom -5578.471087 kJ/mol
# Density = 1.935814 g / cm^3
# Si number density = 19.402303 Si / 1000 Ang^3
#
#
#
# Elastic Constant Matrix: (Units=GPa)
#
#
# Indices 1 2 3 4 5 6 
#
# 1 194.5923 7.4073 92.0395 0.0000 0.0000 0.0000
# 2 7.4073 41.3894 -7.9995 0.0000 0.0000 0.0000
# 3 92.0395 -7.9995 64.6276 0.0000 0.0000 0.0000
# 4 0.0000 0.0000 0.0000 15.5496 0.0000 0.0000
# 5 0.0000 0.0000 0.0000 0.0000 27.7544 0.0000
# 6 0.0000 0.0000 0.0000 0.0000 0.0000 3.1497
#
#
#
# Elastic Compliance Matrix: (Units=1/GPa)
#
#
# Indices 1 2 3 4 5 6 
#
# 1 0.018260 -0.008497 -0.027056 0.000000 0.000000 0.000000
# 2 -0.008497 0.028707 0.015655 0.000000 0.000000 0.000000
# 3 -0.027056 0.015655 0.055943 0.000000 0.000000 0.000000
# 4 0.000000 0.000000 0.000000 0.064310 0.000000 0.000000
# 5 0.000000 0.000000 0.000000 0.000000 0.036030 0.000000
# 6 0.000000 0.000000 0.000000 0.000000 0.000000 0.317492
#
#
# Mechanical properties :
#
#
# Convention : Reuss Voigt Hill
#
# Bulk Modulus (GPa) = 15.84478 53.72266 34.78372
# Shear Modulus (GPa) = 8.59730 23.23486 15.91608
#
# Velocity S-wave (km/s) = 2.10729 3.46429 2.86723
# Velocity P-wave (km/s) = 3.75567 6.61443 5.37846
#
# Compressibility (1/GPa) = 0.06311228
#
# Stress axis : x y z
#
# Youngs Moduli (GPa) = 54.76544 34.83459 17.87522
#
# Poissons Ratio (x) = 0.29599 0.48364
# Poissons Ratio (y) = 0.46535 -0.27983
# Poissons Ratio (z) = 1.48175 -0.54532
#
# Static dielectric constant tensor:
#      x y z
#    x 1.727050 0.000000 0.000000 
#    y 0.000000 1.731320 0.000000 
#    z 0.000000 0.000000 1.629590 
# 
# From -- ./inp_files/25094.got.cif
#   From: 2010.05.17/outbox.cif.g08.bks.cpg/sg44_13_cif.got.tgz:25094.got - 2010.06.03 19:37:08.
