data_PCOD9373128
_publ_section_title
;
Structure prediction by ZEFSAII (Michael W. Deem and Ramdas Pophale) SiO2 
 PCOD9373128
Probable space group: I M M 2
;
_chemical_formula_sum "Si O2"
_cell_formula_units_Z 48
_cell_length_a 14.820296
_cell_length_b 8.550662
_cell_length_c 20.990793
_cell_angle_alpha 90.000000
_cell_angle_beta 90.000000
_cell_angle_gamma 90.000000
_cell_volume 2660.023437
_symmetry_space_group_name_H-M "I M M 2"
_symmetry_group_IT_number 44
_symmetry_cell_setting 'orthorhombic'
loop_
_space_group_symop_operation_xyz
x,y,z
-x,-y,z
-x,y,z
x,-y,z
1/2+x,1/2+y,1/2+z
1/2-x,1/2-y,1/2+z
1/2-x,1/2+y,1/2+z
1/2+x,1/2-y,1/2+z
loop_
_atom_site_type_symbol
_atom_site_label
_atom_site_fract_x
_atom_site_fract_y
_atom_site_fract_z
Si Si1 0.500000 0.310748 0.488621
Si Si2 0.309050 0.312118 0.687798
Si Si3 0.687456 0.810703 0.924962
Si Si4 0.000000 0.685618 0.844639
Si Si5 0.691816 0.309533 0.543820
Si Si6 0.000000 0.814839 0.378237
Si Si7 0.500000 0.186219 0.735151
Si Si8 0.189721 0.187130 0.802785
O O1 0.500000 0.500000 0.488759
O O2 0.500000 0.256762 0.415727
O O3 0.591430 0.257906 0.523276
O O4 0.305910 0.500000 0.690965
O O5 0.286820 0.261166 0.615710
O O6 0.410054 0.257156 0.704441
O O7 0.241805 0.243435 0.740228
O O8 0.590041 0.736029 0.914970
O O9 0.750755 0.768117 0.864816
O O10 0.678695 0.000000 0.924992
O O11 0.737336 0.761298 0.989774
O O12 0.090585 0.742129 0.809959
O O13 0.000000 0.500000 0.849190
O O14 0.690635 0.500000 0.543126
O O15 0.000000 0.729194 0.309896
O O16 0.000000 0.000000 0.367165
O O17 0.500000 0.000000 0.728121
O O18 0.183016 0.000000 0.802730
#
# Coordination Sequence:
#
# PCOD9373128 Si02
#       8
#     4   8   8   4   8   4   4   8
#     4  10  17  35  61  87 119 155 196 233 288 358
#     4  11  22  38  61  90 121 153 197 247 294 343
#     4  10  20  38  63  86 114 154 200 239 286 356
#     4  12  24  37  58  91 123 151 197 251 292 334
#     4   9  19  36  61  88 117 156 194 236 289 355
#     4  12  24  37  58  89 121 151 195 253 298 334
#     4  12  23  37  57  85 123 163 196 233 294 360
#     4  11  22  39  63  86 117 157 197 240 293 355
#
# _framework density 18.044954000000001
#
# number of rings (size 3 to 8) (size 9 to 14) (size 15 to 20)
#    0.000    1.333    3.333    3.750    0.000    2.000 
#    0.000    5.000    0.000    2.000    0.000    0.000 
#    0.000    0.000    0.000    0.000    0.000    0.000 
#
# Total GULP energy -134138.545907 kJ/mol
# GULP energy per Si atom -5589.106079 kJ/mol
# Density = 1.800388 g / cm^3
# Si number density = 18.044954 Si / 1000 Ang^3
#
#
#
# Elastic Constant Matrix: (Units=GPa)
#
#
# Indices 1 2 3 4 5 6 
#
# 1 132.2661 19.1703 61.2709 0.0000 0.0000 0.0000
# 2 19.1703 32.8982 9.1437 0.0000 0.0000 0.0000
# 3 61.2709 9.1437 142.5724 0.0000 0.0000 0.0000
# 4 0.0000 0.0000 0.0000 25.4696 0.0000 0.0000
# 5 0.0000 0.0000 0.0000 0.0000 14.7105 0.0000
# 6 0.0000 0.0000 0.0000 0.0000 0.0000 21.0936
#
#
#
# Elastic Compliance Matrix: (Units=1/GPa)
#
#
# Indices 1 2 3 4 5 6 
#
# 1 0.010127 -0.004777 -0.004046 0.000000 0.000000 0.000000
# 2 -0.004777 0.033202 -0.000077 0.000000 0.000000 0.000000
# 3 -0.004046 -0.000077 0.008758 0.000000 0.000000 0.000000
# 4 0.000000 0.000000 0.000000 0.039263 0.000000 0.000000
# 5 0.000000 0.000000 0.000000 0.000000 0.067979 0.000000
# 6 0.000000 0.000000 0.000000 0.000000 0.000000 0.047408
#
#
# Mechanical properties :
#
#
# Convention : Reuss Voigt Hill
#
# Bulk Modulus (GPa) = 29.16460 54.10070 41.63265
# Shear Modulus (GPa) = 21.18982 26.79818 23.99400
#
# Velocity S-wave (km/s) = 3.43049 3.85785 3.65043
# Velocity P-wave (km/s) = 5.64698 7.06330 6.39447
#
# Compressibility (1/GPa) = 0.03428815
#
# Stress axis : x y z
#
# Youngs Moduli (GPa) = 98.74605 30.11907 114.18700
#
# Poissons Ratio (x) = 0.14387 0.46197
# Poissons Ratio (y) = 0.47168 0.00874
# Poissons Ratio (z) = 0.39950 0.00231
#
# Static dielectric constant tensor:
#      x y z
#    x 1.588330 0.000000 0.000000 
#    y 0.000000 1.611100 0.000000 
#    z 0.000000 0.000000 1.605570 
# 
# From -- ./inp_files/21761.got.cif
#   From: 2010.05.17/outbox.cif.g08.bks.cpg/sg44_11_cif.got.tgz:21761.got - 2010.06.03 19:37:08.
