data_PCOD9373106
_publ_section_title
;
Structure prediction by ZEFSAII (Michael W. Deem and Ramdas Pophale) SiO2 
 PCOD9373106
Probable space group: I M M 2
;
_chemical_formula_sum "Si O2"
_cell_formula_units_Z 58
_cell_length_a 15.998794
_cell_length_b 7.440291
_cell_length_c 19.259939
_cell_angle_alpha 90.000000
_cell_angle_beta 90.000000
_cell_angle_gamma 90.000000
_cell_volume 2292.619994
_symmetry_space_group_name_H-M "I M M 2"
_symmetry_group_IT_number 44
_symmetry_cell_setting 'orthorhombic'
loop_
_space_group_symop_operation_xyz
x,y,z
-x,-y,z
-x,y,z
x,-y,z
1/2+x,1/2+y,1/2+z
1/2-x,1/2-y,1/2+z
1/2-x,1/2+y,1/2+z
1/2+x,1/2-y,1/2+z
loop_
_atom_site_type_symbol
_atom_site_label
_atom_site_fract_x
_atom_site_fract_y
_atom_site_fract_z
Si Si1 0.411233 0.216284 0.366540
Si Si2 0.721518 0.281569 0.715776
Si Si3 0.094017 0.783337 0.094518
Si Si4 0.000000 0.000000 0.557390
Si Si5 0.707433 0.798527 0.473437
Si Si6 0.591501 0.215074 0.201551
Si Si7 0.617735 0.196335 0.999142
Si Si8 0.594861 0.282630 0.835560
O O1 0.500000 0.285516 0.394042
O O2 0.329037 0.286276 0.403635
O O3 0.410922 0.241202 0.284804
O O4 0.409592 0.000000 0.377594
O O5 0.730103 0.500000 0.722090
O O6 0.655843 0.236216 0.656287
O O7 0.813569 0.218216 0.689894
O O8 0.672635 0.223763 0.786694
O O9 0.000000 0.728267 0.109406
O O10 0.095809 0.000000 0.087192
O O11 0.129095 0.701038 0.024295
O O12 0.072426 0.155319 0.543740
O O13 0.783258 0.701131 0.509206
O O14 0.738529 0.000000 0.458820
O O15 0.500000 0.292689 0.176923
O O16 0.589338 0.000000 0.187183
O O17 0.604255 0.228945 0.916402
O O18 0.587854 0.000000 0.017578
O O19 0.500000 0.226844 0.813003
O O20 0.595084 0.500000 0.833248
#
# Coordination Sequence:
#
# PCOD9373106 Si02
#       8
#     8   8   8   2   8   8   8   8
#     4   8  14  25  46  79 112 144 186 236 299 371
#     4   9  17  29  51  76 108 157 206 252 309 367
#     4  10  21  37  54  79 113 155 206 261 314 369
#     4  12  22  44  60  90 126 164 202 244 312 372
#     4  11  21  36  57  81 113 154 201 249 304 372
#     4   8  13  23  42  71 105 136 176 237 299 363
#     4  12  23  38  62  91 124 163 201 252 306 368
#     4  10  17  31  53  83 118 154 195 244 303 369
#
# _framework density 25.298566999999998
#
# number of rings (size 3 to 8) (size 9 to 14) (size 15 to 20)
#    0.000    2.207    2.069    3.103    0.000    4.690 
#    0.000    0.690    1.517    1.655    0.000    0.000 
#    0.000    1.103    0.000    0.000    0.000    0.000 
#
# Total GULP energy -161817.279732 kJ/mol
# GULP energy per Si atom -5579.906198 kJ/mol
# Density = 2.524099 g / cm^3
# Si number density = 25.298567 Si / 1000 Ang^3
#
#
#
# Elastic Constant Matrix: (Units=GPa)
#
#
# Indices 1 2 3 4 5 6 
#
# 1 231.3410 18.2838 38.1204 0.0000 0.0000 0.0000
# 2 18.2838 101.1096 -13.0826 0.0000 0.0000 0.0000
# 3 38.1204 -13.0826 81.9758 0.0000 0.0000 0.0000
# 4 0.0000 0.0000 0.0000 -96.6635 0.0000 0.0000
# 5 0.0000 0.0000 0.0000 0.0000 62.3877 0.0000
# 6 0.0000 0.0000 0.0000 0.0000 0.0000 4.0985
#
#
#
# Elastic Compliance Matrix: (Units=1/GPa)
#
#
# Indices 1 2 3 4 5 6 
#
# 1 0.004817 -0.001185 -0.002429 0.000000 0.000000 0.000000
# 2 -0.001185 0.010390 0.002209 0.000000 0.000000 0.000000
# 3 -0.002429 0.002209 0.013681 0.000000 0.000000 0.000000
# 4 0.000000 0.000000 0.000000 -0.010345 0.000000 0.000000
# 5 0.000000 0.000000 0.000000 0.000000 0.016029 0.000000
# 6 0.000000 0.000000 0.000000 0.000000 0.000000 0.243989
#
#
# Mechanical properties :
#
#
# Convention : Reuss Voigt Hill
#
# Bulk Modulus (GPa) = 38.34616 55.67437 47.01027
# Shear Modulus (GPa) = 17.23762 18.70487 17.97124
#
# Velocity S-wave (km/s) = 2.61313 2.72208 2.66816
# Velocity P-wave (km/s) = 4.92899 5.65104 5.30232
#
# Compressibility (1/GPa) = 0.02607823
#
# Stress axis : x y z
#
# Youngs Moduli (GPa) = 207.61792 96.24205 73.09496
#
# Poissons Ratio (x) = 0.11407 0.17754
# Poissons Ratio (y) = 0.24608 -0.16150
# Poissons Ratio (z) = 0.50429 -0.21264
#
# Static dielectric constant tensor:
#      x y z
#    x 2.009880 0.000000 0.000000 
#    y 0.000000 2.004560 0.000000 
#    z 0.000000 0.000000 2.011440 
# 
# From -- ./inp_files/25731.got.cif
#   From: 2010.05.17/outbox.cif.g08.bks.cpg/sg44_13_cif.got.tgz:25731.got - 2010.06.03 19:37:08.
