data_PCOD9373750
_publ_section_title
;
Structure prediction by ZEFSAII (Michael W. Deem and Ramdas Pophale) SiO2 
 PCOD9373750
Probable space group: I M M 2
;
_chemical_formula_sum "Si O2"
_cell_formula_units_Z 56
_cell_length_a 9.345988
_cell_length_b 18.626205
_cell_length_c 21.004773
_cell_angle_alpha 90.000000
_cell_angle_beta 90.000000
_cell_angle_gamma 90.000000
_cell_volume 3656.516942
_symmetry_space_group_name_H-M "I M M 2"
_symmetry_group_IT_number 44
_symmetry_cell_setting 'orthorhombic'
loop_
_space_group_symop_operation_xyz
x,y,z
-x,-y,z
-x,y,z
x,-y,z
1/2+x,1/2+y,1/2+z
1/2-x,1/2-y,1/2+z
1/2-x,1/2+y,1/2+z
1/2+x,1/2-y,1/2+z
loop_
_atom_site_type_symbol
_atom_site_label
_atom_site_fract_x
_atom_site_fract_y
_atom_site_fract_z
Si Si1 0.670492 0.415031 0.365810
Si Si2 0.170426 0.339787 0.249766
Si Si3 0.329699 0.916668 0.614486
Si Si4 0.670677 0.583835 0.632103
Si Si5 0.170047 0.161792 0.998836
Si Si6 0.335072 0.789358 0.192018
Si Si7 0.164101 0.790433 0.554381
O O1 0.500000 0.405511 0.354086
O O2 0.698753 0.500000 0.368578
O O3 0.759904 0.378673 0.309837
O O4 0.704108 0.378774 0.433601
O O5 0.196341 0.387745 0.186256
O O6 0.245977 0.263358 0.237392
O O7 0.000000 0.331574 0.256687
O O8 0.500000 0.910135 0.603321
O O9 0.245580 0.864760 0.566739
O O10 0.289044 0.000000 0.609577
O O11 0.500000 0.593034 0.642402
O O12 0.705482 0.500000 0.638120
O O13 0.700438 0.611362 0.560091
O O14 0.758100 0.635046 0.679354
O O15 0.000000 0.176577 0.000103
O O16 0.255051 0.235691 0.007939
O O17 0.500000 0.796893 0.212062
O O18 0.334346 0.749681 0.123118
O O19 0.000000 0.801472 0.535689
#
# Coordination Sequence:
#
# PCOD9373750 Si02
#       7
#     8   8   8   8   8   8   8
#     4  10  20  32  46  66  92 122 155 187 218 256
#     4  10  19  31  46  64  89 121 155 188 222 262
#     4   9  17  29  45  65  89 117 148 182 222 268
#     4   9  16  27  45  68  92 118 149 185 224 265
#     4   9  17  30  46  63  88 123 156 183 215 260
#     4   9  17  29  44  63  88 117 149 185 226 269
#     4   9  17  28  43  64  88 114 146 185 226 264
#
# _framework density 15.315121
#
# number of rings (size 3 to 8) (size 9 to 14) (size 15 to 20)
#    0.000    2.714    0.000    2.143    0.000    7.714 
#    0.000    0.000    0.000    2.571    0.000    1.000 
#    0.000    1.143    0.000    0.000    0.000    0.000 
#
# Total GULP energy -156061.373185 kJ/mol
# GULP energy per Si atom -5573.620471 kJ/mol
# Density = 1.528026 g / cm^3
# Si number density = 15.315121 Si / 1000 Ang^3
#
#
#
# Elastic Constant Matrix: (Units=GPa)
#
#
# Indices 1 2 3 4 5 6 
#
# 1 81.3621 89.1966 55.3625 0.0000 0.0000 0.0000
# 2 89.1966 160.1219 60.3643 0.0000 0.0000 0.0000
# 3 55.3625 60.3643 66.4024 0.0000 0.0000 0.0000
# 4 0.0000 0.0000 0.0000 24.7683 0.0000 0.0000
# 5 0.0000 0.0000 0.0000 0.0000 22.4791 0.0000
# 6 0.0000 0.0000 0.0000 0.0000 0.0000 24.6858
#
#
#
# Elastic Compliance Matrix: (Units=1/GPa)
#
#
# Indices 1 2 3 4 5 6 
#
# 1 0.047962 -0.017713 -0.023886 0.000000 0.000000 0.000000
# 2 -0.017713 0.016043 0.000184 0.000000 0.000000 0.000000
# 3 -0.023886 0.000184 0.034807 0.000000 0.000000 0.000000
# 4 0.000000 0.000000 0.000000 0.040374 0.000000 0.000000
# 5 0.000000 0.000000 0.000000 0.000000 0.044486 0.000000
# 6 0.000000 0.000000 0.000000 0.000000 0.000000 0.040509
#
#
# Mechanical properties :
#
#
# Convention : Reuss Voigt Hill
#
# Bulk Modulus (GPa) = 62.56831 79.74814 71.15823
# Shear Modulus (GPa) = 16.00823 21.25084 18.62954
#
# Velocity S-wave (km/s) = 3.23655 3.72905 3.49150
# Velocity P-wave (km/s) = 7.41010 8.40986 7.92576
#
# Compressibility (1/GPa) = 0.01598253
#
# Stress axis : x y z
#
# Youngs Moduli (GPa) = 20.84972 62.33266 28.72948
#
# Poissons Ratio (x) = 1.10409 0.68623
# Poissons Ratio (y) = 0.36931 -0.00528
# Poissons Ratio (z) = 0.49802 -0.01146
#
# Static dielectric constant tensor:
#      x y z
#    x 1.513260 0.000000 0.000000 
#    y 0.000000 1.494250 0.000000 
#    z 0.000000 0.000000 1.483980 
# 
# From -- ./inp_files/23209.got.cif
#   From: 2010.05.17/outbox.cif.g08.bks.cpg/sg44_12_cif.got.tgz:23209.got - 2010.06.03 19:37:08.
