data_PCOD9373832
_publ_section_title
;
Structure prediction by ZEFSAII (Michael W. Deem and Ramdas Pophale) SiO2 
 PCOD9373832
Probable space group: I M M 2
;
_chemical_formula_sum "Si O2"
_cell_formula_units_Z 64
_cell_length_a 19.619980
_cell_length_b 19.475495
_cell_length_c 9.968276
_cell_angle_alpha 90.000000
_cell_angle_beta 90.000000
_cell_angle_gamma 90.000000
_cell_volume 3808.966204
_symmetry_space_group_name_H-M "I M M 2"
_symmetry_group_IT_number 44
_symmetry_cell_setting 'orthorhombic'
loop_
_space_group_symop_operation_xyz
x,y,z
-x,-y,z
-x,y,z
x,-y,z
1/2+x,1/2+y,1/2+z
1/2-x,1/2-y,1/2+z
1/2-x,1/2+y,1/2+z
1/2+x,1/2-y,1/2+z
loop_
_atom_site_type_symbol
_atom_site_label
_atom_site_fract_x
_atom_site_fract_y
_atom_site_fract_z
Si Si1 0.683241 0.575305 0.710730
Si Si2 0.784987 0.862702 0.939001
Si Si3 0.425884 0.719421 0.466870
Si Si4 0.422672 0.151901 0.266202
Si Si5 0.154393 0.273696 0.529120
Si Si6 0.192653 0.422703 0.920527
Si Si7 0.630916 0.273125 0.744559
Si Si8 0.750696 0.670529 0.156929
O O1 0.650754 0.500000 0.730595
O O2 0.707584 0.581598 0.556143
O O3 0.747192 0.580046 0.810622
O O4 0.640846 0.644440 0.741241
O O5 0.858320 0.824787 0.938315
O O6 0.765495 0.877271 0.785095
O O7 0.723995 0.813059 0.988457
O O8 0.500000 0.684595 0.450335
O O9 0.423890 0.783243 0.366878
O O10 0.418668 0.743317 0.621446
O O11 0.500000 0.128744 0.243553
O O12 0.388087 0.179311 0.130068
O O13 0.375354 0.097318 0.341109
O O14 0.115034 0.253270 0.393263
O O15 0.181645 0.205031 0.601963
O O16 0.188681 0.500000 0.974198
O O17 0.211426 0.369583 0.038151
O O18 0.701442 0.233635 0.706515
#
# Coordination Sequence:
#
# PCOD9373832 Si02
#       8
#     8   8   8   8   8   8   8   8
#     4  10  19  31  50  79 108 137 176 221 273 329
#     4  10  19  31  53  74 105 140 173 235 274 323
#     4  10  19  31  50  79 108 137 176 221 273 329
#     4  11  21  35  53  79 112 145 183 226 273 331
#     4  11  18  31  53  79 102 136 187 225 286 318
#     4  11  21  35  53  79 112 145 183 226 273 331
#     4  10  19  31  53  74 105 140 173 235 274 323
#     4  11  18  31  53  79 102 136 187 225 286 318
#
# _framework density 16.80246
#
# number of rings (size 3 to 8) (size 9 to 14) (size 15 to 20)
#    0.000    1.500    7.500    0.000    0.000    1.250 
#    0.000    0.000    0.000    6.000    0.000    0.000 
#    0.000    0.500    0.000    0.000    0.000    0.000 
#
# Total GULP energy -178193.269585 kJ/mol
# GULP energy per Si atom -5568.539675 kJ/mol
# Density = 1.676422 g / cm^3
# Si number density = 16.802460 Si / 1000 Ang^3
#
#
#
# Elastic Constant Matrix: (Units=GPa)
#
#
# Indices 1 2 3 4 5 6 
#
# 1 39.1740 -20.7068 1.0563 0.0000 0.0000 0.0000
# 2 -20.7068 26.0253 -7.7687 0.0000 0.0000 0.0000
# 3 1.0563 -7.7687 80.2251 0.0000 0.0000 0.0000
# 4 0.0000 0.0000 0.0000 12.3111 0.0000 0.0000
# 5 0.0000 0.0000 0.0000 0.0000 4.2485 0.0000
# 6 0.0000 0.0000 0.0000 0.0000 0.0000 12.1414
#
#
#
# Elastic Compliance Matrix: (Units=1/GPa)
#
#
# Indices 1 2 3 4 5 6 
#
# 1 0.044719 0.036458 0.002942 0.000000 0.000000 0.000000
# 2 0.036458 0.069292 0.006230 0.000000 0.000000 0.000000
# 3 0.002942 0.006230 0.013029 0.000000 0.000000 0.000000
# 4 0.000000 0.000000 0.000000 0.081228 0.000000 0.000000
# 5 0.000000 0.000000 0.000000 0.000000 0.235376 0.000000
# 6 0.000000 0.000000 0.000000 0.000000 0.000000 0.082363
#
#
# Mechanical properties :
#
#
# Convention : Reuss Voigt Hill
#
# Bulk Modulus (GPa) = 4.58085 10.06513 7.32299
# Shear Modulus (GPa) = 9.85196 17.26310 13.55753
#
# Velocity S-wave (km/s) = 2.42407 3.20881 2.84364
# Velocity P-wave (km/s) = 3.25070 4.44206 3.89223
#
# Compressibility (1/GPa) = 0.21829999
#
# Stress axis : x y z
#
# Youngs Moduli (GPa) = 22.36180 14.43178 76.74904
#
# Poissons Ratio (x) = -0.52616 -0.22577
# Poissons Ratio (y) = -0.81528 -0.47814
# Poissons Ratio (z) = -0.06578 -0.08991
#
# Static dielectric constant tensor:
#      x y z
#    x 1.573270 0.000000 0.000000 
#    y 0.000000 1.566870 0.000000 
#    z 0.000000 0.000000 1.592370 
# 
# From -- ./inp_files/9124.got.cif
#   From: 2010.05.17/outbox.cif.g08.bks.cpg/sg44_5_cif.got.tgz:9124.got - 2010.06.03 19:37:08.
