data_PCOD9373299
_publ_section_title
;
Structure prediction by ZEFSAII (Michael W. Deem and Ramdas Pophale) SiO2 
 PCOD9373299
Probable space group: I M M 2
;
_chemical_formula_sum "Si O2"
_cell_formula_units_Z 56
_cell_length_a 23.626679
_cell_length_b 8.749678
_cell_length_c 14.536287
_cell_angle_alpha 90.000000
_cell_angle_beta 90.000000
_cell_angle_gamma 90.000000
_cell_volume 3005.026045
_symmetry_space_group_name_H-M "I M M 2"
_symmetry_group_IT_number 44
_symmetry_cell_setting 'orthorhombic'
loop_
_space_group_symop_operation_xyz
x,y,z
-x,-y,z
-x,y,z
x,-y,z
1/2+x,1/2+y,1/2+z
1/2-x,1/2-y,1/2+z
1/2-x,1/2+y,1/2+z
1/2+x,1/2-y,1/2+z
loop_
_atom_site_type_symbol
_atom_site_label
_atom_site_fract_x
_atom_site_fract_y
_atom_site_fract_z
Si Si1 0.500000 0.684304 0.851891
Si Si2 0.764240 0.678997 0.622515
Si Si3 0.652380 0.818384 0.359262
Si Si4 0.731008 0.177269 0.809602
Si Si5 0.355710 0.678270 0.546255
Si Si6 0.000000 0.314090 0.556511
Si Si7 0.612835 0.183850 0.158100
Si Si8 0.616690 0.684571 0.753941
O O1 0.500000 0.500000 0.860273
O O2 0.556568 0.727394 0.796429
O O3 0.500000 0.756590 0.952489
O O4 0.762730 0.500000 0.656620
O O5 0.747599 0.794573 0.703054
O O6 0.712913 0.689202 0.552101
O O7 0.829481 0.711270 0.599860
O O8 0.717701 0.764646 0.358120
O O9 0.624982 0.760660 0.453789
O O10 0.624452 0.762015 0.263015
O O11 0.650812 0.000000 0.357476
O O12 0.668231 0.246745 0.813423
O O13 0.731110 0.000000 0.835088
O O14 0.370391 0.500000 0.538826
O O15 0.377472 0.732749 0.646412
O O16 0.943676 0.259159 0.609675
O O17 0.000000 0.500000 0.555812
O O18 0.606956 0.000000 0.163921
O O19 0.622680 0.500000 0.754322
#
# Coordination Sequence:
#
# PCOD9373299 Si02
#       8
#     4   8   8   8   8   4   8   8
#     4  10  22  40  59  78 100 132 173 212 257 312
#     4   8  15  30  49  70 101 137 167 202 257 314
#     4  10  19  32  50  74 107 144 177 211 258 313
#     4  10  18  29  49  76 103 132 171 215 255 299
#     4   9  17  30  50  76 104 135 171 210 256 312
#     4  10  20  36  57  78 100 132 177 222 261 304
#     4   8  16  32  52  72  99 137 174 208 254 309
#     4   9  19  37  56  74 105 143 172 207 259 315
#
# _framework density 18.635445000000001
#
# number of rings (size 3 to 8) (size 9 to 14) (size 15 to 20)
#    0.000    2.857    0.000    3.429    0.000    4.000 
#    0.000    5.714    0.000    0.000    0.000    0.000 
#    0.000    0.000    0.000    0.000    0.000    0.000 
#
# Total GULP energy -155888.368326 kJ/mol
# GULP energy per Si atom -5567.441726 kJ/mol
# Density = 1.859303 g / cm^3
# Si number density = 18.635445 Si / 1000 Ang^3
#
#
#
# Elastic Constant Matrix: (Units=GPa)
#
#
# Indices 1 2 3 4 5 6 
#
# 1 141.3770 19.2363 57.5984 0.0000 0.0000 0.0000
# 2 19.2363 23.6184 24.4121 0.0000 0.0000 0.0000
# 3 57.5984 24.4121 112.5979 0.0000 0.0000 0.0000
# 4 0.0000 0.0000 0.0000 27.7000 0.0000 0.0000
# 5 0.0000 0.0000 0.0000 0.0000 12.4833 0.0000
# 6 0.0000 0.0000 0.0000 0.0000 0.0000 10.4658
#
#
#
# Elastic Compliance Matrix: (Units=1/GPa)
#
#
# Indices 1 2 3 4 5 6 
#
# 1 0.009138 -0.003365 -0.003945 0.000000 0.000000 0.000000
# 2 -0.003365 0.055807 -0.010378 0.000000 0.000000 0.000000
# 3 -0.003945 -0.010378 0.013149 0.000000 0.000000 0.000000
# 4 0.000000 0.000000 0.000000 0.036101 0.000000 0.000000
# 5 0.000000 0.000000 0.000000 0.000000 0.080107 0.000000
# 6 0.000000 0.000000 0.000000 0.000000 0.000000 0.095549
#
#
# Mechanical properties :
#
#
# Convention : Reuss Voigt Hill
#
# Bulk Modulus (GPa) = 23.40908 53.34297 38.37603
# Shear Modulus (GPa) = 14.72891 21.88627 18.30759
#
# Velocity S-wave (km/s) = 2.81440 3.43073 3.13774
# Velocity P-wave (km/s) = 4.81145 6.66182 5.81076
#
# Compressibility (1/GPa) = 0.04271846
#
# Stress axis : x y z
#
# Youngs Moduli (GPa) = 109.42796 17.91876 76.04998
#
# Poissons Ratio (x) = 0.06030 0.30002
# Poissons Ratio (y) = 0.36825 0.78925
# Poissons Ratio (z) = 0.43170 0.18596
#
# Static dielectric constant tensor:
#      x y z
#    x 1.656390 0.000000 0.000000 
#    y 0.000000 1.636060 0.000000 
#    z 0.000000 0.000000 1.671120 
# 
# From -- ./inp_files/19260.got.cif
#   From: 2010.05.17/outbox.cif.g08.bks.cpg/sg44_10_cif.got.tgz:19260.got - 2010.06.03 19:37:08.
