data_PCOD9373272
_publ_section_title
;
Structure prediction by ZEFSAII (Michael W. Deem and Ramdas Pophale) SiO2 
 PCOD9373272
Probable space group: I M M 2
;
_chemical_formula_sum "Si O2"
_cell_formula_units_Z 64
_cell_length_a 7.870964
_cell_length_b 31.567903
_cell_length_c 15.126789
_cell_angle_alpha 90.000000
_cell_angle_beta 90.000000
_cell_angle_gamma 90.000000
_cell_volume 3758.550662
_symmetry_space_group_name_H-M "I M M 2"
_symmetry_group_IT_number 44
_symmetry_cell_setting 'orthorhombic'
loop_
_space_group_symop_operation_xyz
x,y,z
-x,-y,z
-x,y,z
x,-y,z
1/2+x,1/2+y,1/2+z
1/2-x,1/2-y,1/2+z
1/2-x,1/2+y,1/2+z
1/2+x,1/2-y,1/2+z
loop_
_atom_site_type_symbol
_atom_site_label
_atom_site_fract_x
_atom_site_fract_y
_atom_site_fract_z
Si Si1 0.297061 0.547361 0.186680
Si Si2 0.205431 0.867799 0.608836
Si Si3 0.797809 0.547893 0.387973
Si Si4 0.296294 0.792336 0.483780
Si Si5 0.294907 0.226096 0.288578
Si Si6 0.296369 0.291906 0.590337
Si Si7 0.707172 0.676564 0.288402
Si Si8 0.204771 0.132430 0.967873
O O1 0.500000 0.545075 0.174749
O O2 0.225729 0.500000 0.174466
O O3 0.233511 0.583847 0.120655
O O4 0.269973 0.559519 0.289826
O O5 0.258030 0.836767 0.530618
O O6 0.264191 0.845086 0.698752
O O7 0.000000 0.868716 0.608853
O O8 0.735947 0.500000 0.407561
O O9 0.752898 0.583240 0.460302
O O10 0.000000 0.546590 0.380576
O O11 0.500000 0.787490 0.480661
O O12 0.234068 0.792326 0.382354
O O13 0.232487 0.751343 0.540953
O O14 0.500000 0.224911 0.289316
O O15 0.240866 0.207713 0.194385
O O16 0.239712 0.274970 0.289409
O O17 0.500000 0.291021 0.579711
O O18 0.234068 0.335044 0.543124
O O19 0.500000 0.675690 0.289289
O O20 0.765432 0.652729 0.375595
O O21 0.000000 0.133581 0.969443
#
# Coordination Sequence:
#
# PCOD9373272 Si02
#       8
#     8   8   8   8   8   8   8   8
#     4   9  17  30  48  68  92 126 163 193 230 283
#     4  10  18  29  47  69  93 124 160 196 231 274
#     4  10  20  31  44  68 100 126 152 193 238 278
#     4  10  20  32  47  68  95 127 159 192 233 280
#     4  10  19  33  48  63  93 131 160 190 232 280
#     4  10  20  32  48  70  94 121 159 202 234 266
#     4   9  15  26  45  67  91 122 157 190 226 269
#     4  10  18  32  50  67  92 128 163 194 232 278
#
# _framework density 17.027839
#
# number of rings (size 3 to 8) (size 9 to 14) (size 15 to 20)
#    0.000    2.250    3.750    0.375    0.000    2.250 
#    0.000    0.625    0.000    0.000    0.000    0.875 
#    0.000    3.000    0.000    0.000    0.000    0.000 
#
# Total GULP energy -178320.028550 kJ/mol
# GULP energy per Si atom -5572.500892 kJ/mol
# Density = 1.698908 g / cm^3
# Si number density = 17.027839 Si / 1000 Ang^3
#
#
#
# Elastic Constant Matrix: (Units=GPa)
#
#
# Indices 1 2 3 4 5 6 
#
# 1 17.8027 7.8792 5.4638 0.0000 0.0000 0.0000
# 2 7.8792 140.4257 74.7572 0.0000 0.0000 0.0000
# 3 5.4638 74.7572 116.6265 0.0000 0.0000 0.0000
# 4 0.0000 0.0000 0.0000 21.6823 0.0000 0.0000
# 5 0.0000 0.0000 0.0000 0.0000 18.6718 0.0000
# 6 0.0000 0.0000 0.0000 0.0000 0.0000 9.1494
#
#
#
# Elastic Compliance Matrix: (Units=1/GPa)
#
#
# Indices 1 2 3 4 5 6 
#
# 1 0.057671 -0.002729 -0.000953 0.000000 0.000000 0.000000
# 2 -0.002729 0.010939 -0.006884 0.000000 0.000000 0.000000
# 3 -0.000953 -0.006884 0.013032 0.000000 0.000000 0.000000
# 4 0.000000 0.000000 0.000000 0.046120 0.000000 0.000000
# 5 0.000000 0.000000 0.000000 0.000000 0.053557 0.000000
# 6 0.000000 0.000000 0.000000 0.000000 0.000000 0.109296
#
#
# Mechanical properties :
#
#
# Convention : Reuss Voigt Hill
#
# Bulk Modulus (GPa) = 16.52588 50.11724 33.32156
# Shear Modulus (GPa) = 15.06400 22.35104 18.70752
#
# Velocity S-wave (km/s) = 2.97757 3.62694 3.31817
# Velocity P-wave (km/s) = 4.64193 6.85828 5.85591
#
# Compressibility (1/GPa) = 0.06051115
#
# Stress axis : x y z
#
# Youngs Moduli (GPa) = 17.33961 91.41480 76.73591
#
# Poissons Ratio (x) = 0.24944 0.07311
# Poissons Ratio (y) = 0.04731 0.52826
# Poissons Ratio (z) = 0.01652 0.62931
#
# Static dielectric constant tensor:
#      x y z
#    x 1.624950 0.000000 0.000000 
#    y 0.000000 1.617600 0.000000 
#    z 0.000000 0.000000 1.568030 
# 
# From -- ./inp_files/17122.got.cif
#   From: 2010.05.17/outbox.cif.g08.bks.cpg/sg44_9_cif.got.tgz:17122.got - 2010.06.03 19:37:08.
