data_PCOD9373405
_publ_section_title
;
Structure prediction by ZEFSAII (Michael W. Deem and Ramdas Pophale) SiO2 
 PCOD9373405
Probable space group: I M M 2
;
_chemical_formula_sum "Si O2"
_cell_formula_units_Z 64
_cell_length_a 21.366822
_cell_length_b 7.574158
_cell_length_c 20.489620
_cell_angle_alpha 90.000000
_cell_angle_beta 90.000000
_cell_angle_gamma 90.000000
_cell_volume 3315.951704
_symmetry_space_group_name_H-M "I M M 2"
_symmetry_group_IT_number 44
_symmetry_cell_setting 'orthorhombic'
loop_
_space_group_symop_operation_xyz
x,y,z
-x,-y,z
-x,y,z
x,-y,z
1/2+x,1/2+y,1/2+z
1/2-x,1/2-y,1/2+z
1/2-x,1/2+y,1/2+z
1/2+x,1/2-y,1/2+z
loop_
_atom_site_type_symbol
_atom_site_label
_atom_site_fract_x
_atom_site_fract_y
_atom_site_fract_z
Si Si1 0.264555 0.784397 0.897240
Si Si2 0.568216 0.790529 0.113966
Si Si3 0.763423 0.715081 0.253147
Si Si4 0.193330 0.708714 0.115066
Si Si5 0.068585 0.212923 0.036219
Si Si6 0.117632 0.787218 0.754340
Si Si7 0.618077 0.284941 0.398148
Si Si8 0.684961 0.207373 0.031743
O O1 0.285239 0.726989 0.824974
O O2 0.191322 0.736516 0.904858
O O3 0.265874 0.000000 0.898183
O O4 0.302898 0.718391 0.959458
O O5 0.500000 0.716396 0.096762
O O6 0.580193 0.769719 0.191060
O O7 0.627465 0.717133 0.073751
O O8 0.566406 0.000000 0.101748
O O9 0.764789 0.500000 0.254194
O O10 0.800319 0.776094 0.189297
O O11 0.690413 0.766438 0.246092
O O12 0.203855 0.500000 0.117188
O O13 0.126653 0.740384 0.082010
O O14 0.250214 0.780843 0.071585
O O15 0.000000 0.274340 0.058069
O O16 0.067442 0.000000 0.033745
O O17 0.082131 0.276080 0.962311
O O18 0.096142 0.726748 0.826258
O O19 0.116561 0.000000 0.755180
O O20 0.615358 0.500000 0.398058
O O21 0.672106 0.000000 0.022932
#
# Coordination Sequence:
#
# PCOD9373405 Si02
#       8
#     8   8   8   8   8   8   8   8
#     4   8  13  25  48  72  91 116 155 200 240 275
#     4  10  21  33  44  67 103 134 158 194 244 289
#     4   8  15  27  46  73  98 119 149 197 245 280
#     4  11  20  31  50  74 101 126 154 199 247 289
#     4  10  20  34  51  71  97 130 167 200 232 279
#     4   9  16  29  49  71  94 125 165 199 230 277
#     4   8  14  26  47  72  94 119 161 206 231 264
#     4  10  18  31  53  72  91 126 167 202 235 282
#
# _framework density 19.300643999999998
#
# number of rings (size 3 to 8) (size 9 to 14) (size 15 to 20)
#    0.000    2.750    2.500    1.875    0.000    1.000 
#    0.000    1.875    0.000    2.250    0.000    3.500 
#    0.000    0.000    0.000    0.000    0.000    0.000 
#
# Total GULP energy -178442.074407 kJ/mol
# GULP energy per Si atom -5576.314825 kJ/mol
# Density = 1.925672 g / cm^3
# Si number density = 19.300644 Si / 1000 Ang^3
#
#
#
# Elastic Constant Matrix: (Units=GPa)
#
#
# Indices 1 2 3 4 5 6 
#
# 1 103.6511 -4.2672 70.9764 0.0000 0.0000 0.0000
# 2 -4.2672 40.9811 -1.0512 0.0000 0.0000 0.0000
# 3 70.9764 -1.0512 149.2468 0.0000 0.0000 0.0000
# 4 0.0000 0.0000 0.0000 14.7108 0.0000 0.0000
# 5 0.0000 0.0000 0.0000 0.0000 18.9266 0.0000
# 6 0.0000 0.0000 0.0000 0.0000 0.0000 32.7098
#
#
#
# Elastic Compliance Matrix: (Units=1/GPa)
#
#
# Indices 1 2 3 4 5 6 
#
# 1 0.014378 0.001322 -0.006828 0.000000 0.000000 0.000000
# 2 0.001322 0.024527 -0.000456 0.000000 0.000000 0.000000
# 3 -0.006828 -0.000456 0.009944 0.000000 0.000000 0.000000
# 4 0.000000 0.000000 0.000000 0.067977 0.000000 0.000000
# 5 0.000000 0.000000 0.000000 0.000000 0.052836 0.000000
# 6 0.000000 0.000000 0.000000 0.000000 0.000000 0.030572
#
#
# Mechanical properties :
#
#
# Convention : Reuss Voigt Hill
#
# Bulk Modulus (GPa) = 27.08173 47.24388 37.16281
# Shear Modulus (GPa) = 22.27493 28.48417 25.37955
#
# Velocity S-wave (km/s) = 3.40089 3.84580 3.63017
# Velocity P-wave (km/s) = 5.42986 6.65216 6.07185
#
# Compressibility (1/GPa) = 0.03692526
#
# Stress axis : x y z
#
# Youngs Moduli (GPa) = 69.55084 40.77064 100.55900
#
# Poissons Ratio (x) = -0.05390 0.68665
# Poissons Ratio (y) = -0.09195 0.04585
# Poissons Ratio (z) = 0.47492 0.01859
#
# Static dielectric constant tensor:
#      x y z
#    x 1.668280 0.000000 0.000000 
#    y 0.000000 1.748170 0.000000 
#    z 0.000000 0.000000 1.699670 
# 
# From -- ./inp_files/24343.got.cif
#   From: 2010.05.17/outbox.cif.g08.bks.cpg/sg44_13_cif.got.tgz:24343.got - 2010.06.03 19:37:08.
