data_PCOD9373455
_publ_section_title
;
Structure prediction by ZEFSAII (Michael W. Deem and Ramdas Pophale) SiO2 
 PCOD9373455
Probable space group: I M M 2
;
_chemical_formula_sum "Si O2"
_cell_formula_units_Z 48
_cell_length_a 7.657309
_cell_length_b 10.820163
_cell_length_c 28.840845
_cell_angle_alpha 90.000000
_cell_angle_beta 90.000000
_cell_angle_gamma 90.000000
_cell_volume 2389.560092
_symmetry_space_group_name_H-M "I M M 2"
_symmetry_group_IT_number 44
_symmetry_cell_setting 'orthorhombic'
loop_
_space_group_symop_operation_xyz
x,y,z
-x,-y,z
-x,y,z
x,-y,z
1/2+x,1/2+y,1/2+z
1/2-x,1/2-y,1/2+z
1/2-x,1/2+y,1/2+z
1/2+x,1/2-y,1/2+z
loop_
_atom_site_type_symbol
_atom_site_label
_atom_site_fract_x
_atom_site_fract_y
_atom_site_fract_z
Si Si1 0.707920 0.000000 0.441970
Si Si2 0.289840 0.357918 0.202861
Si Si3 0.711055 0.500000 0.050285
Si Si4 0.291067 0.500000 0.451381
Si Si5 0.295267 0.745317 0.402393
Si Si6 0.786223 0.244626 0.606086
Si Si7 0.289096 0.000000 0.059897
Si Si8 0.206691 0.641584 0.306535
O O1 0.781487 0.125834 0.419996
O O2 0.500000 0.000000 0.432370
O O3 0.733814 0.000000 0.497019
O O4 0.500000 0.361979 0.200815
O O5 0.226609 0.500000 0.197812
O O6 0.230295 0.278004 0.159140
O O7 0.241020 0.314642 0.254229
O O8 0.500000 0.500000 0.052037
O O9 0.769281 0.375090 0.076304
O O10 0.500000 0.500000 0.443252
O O11 0.219168 0.624062 0.427527
O O12 0.259328 0.500000 0.505980
O O13 0.500000 0.747863 0.414986
O O14 0.281555 0.723957 0.347552
O O15 0.727019 0.373931 0.584347
O O16 0.000000 0.245577 0.605411
O O17 0.500000 0.000000 0.062715
O O18 0.276197 0.500000 0.310213
O O19 0.000000 0.636632 0.313380
#
# Coordination Sequence:
#
# PCOD9373455 Si02
#       8
#     4   8   4   4   8   8   4   8
#     4  10  22  36  51  76 107 135 170 215 255 298
#     4   9  16  30  53  74  96 131 172 207 246 300
#     4  10  18  32  53  74  99 135 176 209 245 298
#     4  10  20  34  53  74  99 135 176 209 245 302
#     4  10  20  36  55  75 102 137 174 209 251 305
#     4   9  17  31  51  76 101 131 171 209 245 296
#     4  10  20  32  49  74 105 133 164 211 257 292
#     4  10  20  33  52  80 107 128 164 216 261 302
#
# _framework density 20.087381000000001
#
# number of rings (size 3 to 8) (size 9 to 14) (size 15 to 20)
#    0.000    2.333    1.667    1.500    0.000    2.000 
#    0.000    2.500    0.000    3.000    0.000    0.000 
#    0.000    0.000    0.000    0.000    0.000    0.000 
#
# Total GULP energy -133981.664570 kJ/mol
# GULP energy per Si atom -5582.569357 kJ/mol
# Density = 2.004166 g / cm^3
# Si number density = 20.087381 Si / 1000 Ang^3
#
#
#
# Elastic Constant Matrix: (Units=GPa)
#
#
# Indices 1 2 3 4 5 6 
#
# 1 33.4505 10.4750 -17.9955 0.0000 0.0000 0.0000
# 2 10.4750 182.9941 106.7605 0.0000 0.0000 0.0000
# 3 -17.9955 106.7605 154.3961 0.0000 0.0000 0.0000
# 4 0.0000 0.0000 0.0000 -8.8210 0.0000 0.0000
# 5 0.0000 0.0000 0.0000 0.0000 26.4669 0.0000
# 6 0.0000 0.0000 0.0000 0.0000 0.0000 -2.2015
#
#
#
# Elastic Compliance Matrix: (Units=1/GPa)
#
#
# Indices 1 2 3 4 5 6 
#
# 1 0.037676 -0.007909 0.009860 0.000000 0.000000 0.000000
# 2 -0.007909 0.010820 -0.008404 0.000000 0.000000 0.000000
# 3 0.009860 -0.008404 0.013437 0.000000 0.000000 0.000000
# 4 0.000000 0.000000 0.000000 -0.113366 0.000000 0.000000
# 5 0.000000 0.000000 0.000000 0.000000 0.037783 0.000000
# 6 0.000000 0.000000 0.000000 0.000000 0.000000 -0.454232
#
#
# Mechanical properties :
#
#
# Convention : Reuss Voigt Hill
#
# Bulk Modulus (GPa) = 20.39634 63.25785 41.82710
# Shear Modulus (GPa) = -11.39906 21.19558 4.89826
#
# Velocity S-wave (km/s) = -2.38475 3.25186 1.56326
# Velocity P-wave (km/s) = 1.61031 6.75716 4.91184
#
# Compressibility (1/GPa) = 0.04902840
#
# Stress axis : x y z
#
# Youngs Moduli (GPa) = 26.54179 92.41935 74.42089
#
# Poissons Ratio (x) = 0.73098 -0.73382
# Poissons Ratio (y) = 0.20993 0.62542
# Poissons Ratio (z) = -0.26171 0.77667
#
# Static dielectric constant tensor:
#      x y z
#    x 1.742490 0.000000 0.000000 
#    y 0.000000 1.718010 0.000000 
#    z 0.000000 0.000000 1.676660 
# 
# From -- ./inp_files/26990.got.cif
#   From: 2010.05.17/outbox.cif.g08.bks.cpg/sg44_14_cif.got.tgz:26990.got - 2010.06.03 19:37:08.
