data_PCOD9373037
_publ_section_title
;
Structure prediction by ZEFSAII (Michael W. Deem and Ramdas Pophale) SiO2 
 PCOD9373037
Probable space group: I M M 2
;
_chemical_formula_sum "Si O2"
_cell_formula_units_Z 64
_cell_length_a 8.272848
_cell_length_b 27.388597
_cell_length_c 19.017327
_cell_angle_alpha 90.000000
_cell_angle_beta 90.000000
_cell_angle_gamma 90.000000
_cell_volume 4308.978279
_symmetry_space_group_name_H-M "I M M 2"
_symmetry_group_IT_number 44
_symmetry_cell_setting 'orthorhombic'
loop_
_space_group_symop_operation_xyz
x,y,z
-x,-y,z
-x,y,z
x,-y,z
1/2+x,1/2+y,1/2+z
1/2-x,1/2-y,1/2+z
1/2-x,1/2+y,1/2+z
1/2+x,1/2-y,1/2+z
loop_
_atom_site_type_symbol
_atom_site_label
_atom_site_fract_x
_atom_site_fract_y
_atom_site_fract_z
Si Si1 0.694609 0.352980 0.592260
Si Si2 0.311706 0.290646 0.047666
Si Si3 0.808844 0.237493 0.339576
Si Si4 0.695607 0.256841 0.678670
Si Si5 0.688064 0.700633 0.460169
Si Si6 0.802780 0.555615 0.839463
Si Si7 0.808095 0.353712 0.930450
Si Si8 0.805075 0.555488 0.678891
O O1 0.500000 0.350946 0.589967
O O2 0.747358 0.308389 0.643258
O O3 0.751690 0.341254 0.512731
O O4 0.746292 0.403891 0.625148
O O5 0.500000 0.278644 0.037896
O O6 0.266115 0.285611 0.129068
O O7 0.206050 0.248984 0.008924
O O8 0.273187 0.339369 0.004330
O O9 0.753273 0.244688 0.259683
O O10 0.776186 0.284403 0.388756
O O11 0.726301 0.191005 0.376741
O O12 0.000000 0.227655 0.338906
O O13 0.500000 0.254353 0.676204
O O14 0.500000 0.692294 0.444632
O O15 0.753394 0.500000 0.855740
O O16 0.748062 0.596776 0.893722
O O17 0.752240 0.567000 0.759134
O O18 0.000000 0.556406 0.839647
O O19 0.000000 0.357119 0.941224
O O20 0.752383 0.500000 0.662738
O O21 0.000000 0.555784 0.678928
#
# Coordination Sequence:
#
# PCOD9373037 Si02
#       8
#     8   8   8   8   8   8   8   8
#     4   9  17  28  41  56  77 107 136 163 196 233
#     4  10  18  27  40  57  78 104 135 167 197 235
#     4  10  18  27  41  60  82 106 133 166 199 236
#     4   9  18  30  41  57  82 107 133 166 201 235
#     4   9  17  29  41  55  79 106 133 165 199 235
#     4   8  15  27  41  58  79 104 136 169 198 230
#     4  10  17  26  42  59  79 108 137 166 200 236
#     4   9  17  28  41  58  80 104 133 170 202 228
#
# _framework density 14.85271
#
# number of rings (size 3 to 8) (size 9 to 14) (size 15 to 20)
#    0.000    2.750    0.000    6.000    0.000    3.750 
#    0.000    0.625    0.000    3.000    0.000    0.000 
#    0.000    1.000    0.000    9.000    0.000    5.250 
#
# Total GULP energy -178202.892598 kJ/mol
# GULP energy per Si atom -5568.840394 kJ/mol
# Density = 1.481890 g / cm^3
# Si number density = 14.852710 Si / 1000 Ang^3
#
#
#
# Elastic Constant Matrix: (Units=GPa)
#
#
# Indices 1 2 3 4 5 6 
#
# 1 14.4327 3.0936 7.1128 0.0000 0.0000 0.0000
# 2 3.0936 79.0547 46.9590 0.0000 0.0000 0.0000
# 3 7.1128 46.9590 97.2193 0.0000 0.0000 0.0000
# 4 0.0000 0.0000 0.0000 28.7606 0.0000 0.0000
# 5 0.0000 0.0000 0.0000 0.0000 19.0813 0.0000
# 6 0.0000 0.0000 0.0000 0.0000 0.0000 13.8396
#
#
#
# Elastic Compliance Matrix: (Units=1/GPa)
#
#
# Indices 1 2 3 4 5 6 
#
# 1 0.071889 0.000436 -0.005470 0.000000 0.000000 0.000000
# 2 0.000436 0.017742 -0.008602 0.000000 0.000000 0.000000
# 3 -0.005470 -0.008602 0.014841 0.000000 0.000000 0.000000
# 4 0.000000 0.000000 0.000000 0.034770 0.000000 0.000000
# 5 0.000000 0.000000 0.000000 0.000000 0.052407 0.000000
# 6 0.000000 0.000000 0.000000 0.000000 0.000000 0.072256
#
#
# Mechanical properties :
#
#
# Convention : Reuss Voigt Hill
#
# Bulk Modulus (GPa) = 12.95323 33.89305 23.42314
# Shear Modulus (GPa) = 15.77733 21.23906 18.50819
#
# Velocity S-wave (km/s) = 3.26276 3.78561 3.53387
# Velocity P-wave (km/s) = 4.78896 6.47895 5.69697
#
# Compressibility (1/GPa) = 0.07720084
#
# Stress axis : x y z
#
# Youngs Moduli (GPa) = 13.91026 56.36413 67.38091
#
# Poissons Ratio (x) = -0.02459 0.36860
# Poissons Ratio (y) = -0.00607 0.57958
# Poissons Ratio (z) = 0.07609 0.48482
#
# Static dielectric constant tensor:
#      x y z
#    x 1.519520 0.000000 0.000000 
#    y 0.000000 1.488310 0.000000 
#    z 0.000000 0.000000 1.513530 
# 
# From -- ./inp_files/23481.got.cif
#   From: 2010.05.17/outbox.cif.g08.bks.cpg/sg44_12_cif.got.tgz:23481.got - 2010.06.03 19:37:08.
