data_PCOD9373667
_publ_section_title
;
Structure prediction by ZEFSAII (Michael W. Deem and Ramdas Pophale) SiO2 
 PCOD9373667
Probable space group: I M M 2
;
_chemical_formula_sum "Si O2"
_cell_formula_units_Z 56
_cell_length_a 9.214707
_cell_length_b 18.806387
_cell_length_c 21.020205
_cell_angle_alpha 90.000000
_cell_angle_beta 90.000000
_cell_angle_gamma 90.000000
_cell_volume 3642.703697
_symmetry_space_group_name_H-M "I M M 2"
_symmetry_group_IT_number 44
_symmetry_cell_setting 'orthorhombic'
loop_
_space_group_symop_operation_xyz
x,y,z
-x,-y,z
-x,y,z
x,-y,z
1/2+x,1/2+y,1/2+z
1/2-x,1/2-y,1/2+z
1/2-x,1/2+y,1/2+z
1/2+x,1/2-y,1/2+z
loop_
_atom_site_type_symbol
_atom_site_label
_atom_site_fract_x
_atom_site_fract_y
_atom_site_fract_z
Si Si1 0.825704 0.582502 0.146270
Si Si2 0.833847 0.283310 0.073620
Si Si3 0.826236 0.842415 0.764811
Si Si4 0.173687 0.916888 0.898825
Si Si5 0.672521 0.845103 0.018233
Si Si6 0.167069 0.789925 0.213703
Si Si7 0.826399 0.417313 0.654025
O O1 0.795719 0.500000 0.133857
O O2 0.788122 0.635879 0.088441
O O3 0.742161 0.609461 0.208782
O O4 0.000000 0.590862 0.156728
O O5 0.832445 0.247354 0.143860
O O6 0.000000 0.281681 0.050298
O O7 0.733586 0.233965 0.030695
O O8 0.793001 0.877526 0.832674
O O9 0.756216 0.764408 0.757459
O O10 0.000000 0.838665 0.756820
O O11 0.253336 0.880662 0.957737
O O12 0.000000 0.912586 0.908530
O O13 0.213239 0.000000 0.894287
O O14 0.500000 0.843841 0.010924
O O15 0.706422 0.890677 0.082130
O O16 0.243069 0.865413 0.202109
O O17 0.000000 0.796542 0.233866
O O18 0.788347 0.500000 0.660890
O O19 0.000000 0.409382 0.662634
#
# Coordination Sequence:
#
# PCOD9373667 Si02
#       7
#     8   8   8   8   8   8   8
#     4   9  17  29  46  69  94 118 146 182 223 265
#     4   8  15  28  44  62  87 118 147 177 218 266
#     4  10  19  31  46  64  89 121 154 185 220 263
#     4  10  21  34  46  63  89 121 154 184 216 259
#     4  10  19  30  45  65  89 118 152 187 220 256
#     4   9  17  29  45  65  88 116 150 185 224 267
#     4   9  17  29  45  67  94 120 147 183 226 268
#
# _framework density 15.373196
#
# number of rings (size 3 to 8) (size 9 to 14) (size 15 to 20)
#    0.000    2.714    0.000    3.000    0.000    7.143 
#    0.000    0.000    0.000    0.000    0.000    1.000 
#    0.000    3.429    0.000    0.000    0.000    0.000 
#
# Total GULP energy -156033.168147 kJ/mol
# GULP energy per Si atom -5572.613148 kJ/mol
# Density = 1.533821 g / cm^3
# Si number density = 15.373196 Si / 1000 Ang^3
#
#
#
# Elastic Constant Matrix: (Units=GPa)
#
#
# Indices 1 2 3 4 5 6 
#
# 1 56.6155 67.5031 48.4670 0.0000 0.0000 0.0000
# 2 67.5031 164.3883 64.5870 0.0000 0.0000 0.0000
# 3 48.4670 64.5870 69.4134 0.0000 0.0000 0.0000
# 4 0.0000 0.0000 0.0000 23.4883 0.0000 0.0000
# 5 0.0000 0.0000 0.0000 0.0000 21.8578 0.0000
# 6 0.0000 0.0000 0.0000 0.0000 0.0000 24.2701
#
#
#
# Elastic Compliance Matrix: (Units=1/GPa)
#
#
# Indices 1 2 3 4 5 6 
#
# 1 0.055678 -0.011962 -0.027746 0.000000 0.000000 0.000000
# 2 -0.011962 0.012158 -0.002961 0.000000 0.000000 0.000000
# 3 -0.027746 -0.002961 0.036535 0.000000 0.000000 0.000000
# 4 0.000000 0.000000 0.000000 0.042574 0.000000 0.000000
# 5 0.000000 0.000000 0.000000 0.000000 0.045750 0.000000
# 6 0.000000 0.000000 0.000000 0.000000 0.000000 0.041203
#
#
# Mechanical properties :
#
#
# Convention : Reuss Voigt Hill
#
# Bulk Modulus (GPa) = 52.53931 72.39238 62.46585
# Shear Modulus (GPa) = 15.35716 21.24725 18.30220
#
# Velocity S-wave (km/s) = 3.16406 3.72169 3.45414
# Velocity P-wave (km/s) = 6.89916 8.10310 7.52525
#
# Compressibility (1/GPa) = 0.01903337
#
# Stress axis : x y z
#
# Youngs Moduli (GPa) = 17.96041 82.24807 27.37116
#
# Poissons Ratio (x) = 0.98384 0.75945
# Poissons Ratio (y) = 0.21484 0.08104
# Poissons Ratio (z) = 0.49833 0.24352
#
# Static dielectric constant tensor:
#      x y z
#    x 1.514530 0.000000 0.000000 
#    y 0.000000 1.523260 0.000000 
#    z 0.000000 0.000000 1.479650 
# 
# From -- ./inp_files/23221.got.cif
#   From: 2010.05.17/outbox.cif.g08.bks.cpg/sg44_12_cif.got.tgz:23221.got - 2010.06.03 19:37:08.
