data_PCOD9373094
_publ_section_title
;
Structure prediction by ZEFSAII (Michael W. Deem and Ramdas Pophale) SiO2 
 PCOD9373094
Probable space group: I M M 2
;
_chemical_formula_sum "Si O2"
_cell_formula_units_Z 48
_cell_length_a 7.495992
_cell_length_b 14.983920
_cell_length_c 21.164691
_cell_angle_alpha 90.000000
_cell_angle_beta 90.000000
_cell_angle_gamma 90.000000
_cell_volume 2377.204219
_symmetry_space_group_name_H-M "I M M 2"
_symmetry_group_IT_number 44
_symmetry_cell_setting 'orthorhombic'
loop_
_space_group_symop_operation_xyz
x,y,z
-x,-y,z
-x,y,z
x,-y,z
1/2+x,1/2+y,1/2+z
1/2-x,1/2-y,1/2+z
1/2-x,1/2+y,1/2+z
1/2+x,1/2-y,1/2+z
loop_
_atom_site_type_symbol
_atom_site_label
_atom_site_fract_x
_atom_site_fract_y
_atom_site_fract_z
Si Si1 0.784076 0.694582 0.275280
Si Si2 0.290489 0.305018 0.895122
Si Si3 0.280643 0.689424 0.036127
Si Si4 0.281100 0.000000 0.198530
Si Si5 0.711794 0.810599 0.150579
Si Si6 0.286365 0.000000 0.344821
Si Si7 0.711277 0.000000 0.740593
Si Si8 0.785122 0.000000 0.591372
O O1 0.716553 0.746703 0.337172
O O2 0.738326 0.749746 0.212391
O O3 0.717696 0.593159 0.268036
O O4 0.000000 0.692446 0.277887
O O5 0.500000 0.283530 0.898128
O O6 0.273954 0.409410 0.878190
O O7 0.218587 0.289781 0.965372
O O8 0.500000 0.688927 0.036042
O O9 0.219501 0.759502 0.088975
O O10 0.223854 0.590449 0.057655
O O11 0.219037 0.090599 0.165273
O O12 0.500000 0.000000 0.198811
O O13 0.225501 0.000000 0.271890
O O14 0.500000 0.819824 0.141345
O O15 0.500000 0.000000 0.344791
O O16 0.735271 0.000000 0.665011
O O17 0.500000 0.000000 0.753309
O O18 0.000000 0.000000 0.588822
#
# Coordination Sequence:
#
# PCOD9373094 Si02
#       8
#     8   8   8   4   8   4   4   4
#     4  10  20  33  51  73 101 135 168 205 253 302
#     4  10  20  35  52  74 104 139 173 206 249 308
#     4   9  18  31  51  75 100 131 169 209 247 295
#     4   9  18  30  49  78 105 124 159 214 258 290
#     4  10  18  33  54  74 100 132 168 211 252 296
#     4  11  20  32  52  80 107 133 164 210 265 304
#     4  10  20  33  48  74 106 128 159 209 253 295
#     4  10  17  29  51  76  96 125 166 207 248 293
#
# _framework density 20.191784999999999
#
# number of rings (size 3 to 8) (size 9 to 14) (size 15 to 20)
#    0.000    2.167    3.333    0.750    0.000    1.333 
#    0.000    3.750    0.000    5.000    0.000    0.000 
#    0.000    2.667    0.000    0.000    0.000    0.000 
#
# Total GULP energy -134041.045603 kJ/mol
# GULP energy per Si atom -5585.043567 kJ/mol
# Density = 2.014583 g / cm^3
# Si number density = 20.191785 Si / 1000 Ang^3
#
#
#
# Elastic Constant Matrix: (Units=GPa)
#
#
# Indices 1 2 3 4 5 6 
#
# 1 50.2517 -6.3963 -6.4370 0.0000 0.0000 0.0000
# 2 -6.3963 171.1844 105.2754 0.0000 0.0000 0.0000
# 3 -6.4370 105.2754 200.2592 0.0000 0.0000 0.0000
# 4 0.0000 0.0000 0.0000 40.1882 0.0000 0.0000
# 5 0.0000 0.0000 0.0000 0.0000 12.8172 0.0000
# 6 0.0000 0.0000 0.0000 0.0000 0.0000 5.7983
#
#
#
# Elastic Compliance Matrix: (Units=1/GPa)
#
#
# Indices 1 2 3 4 5 6 
#
# 1 0.020013 0.000520 0.000370 0.000000 0.000000 0.000000
# 2 0.000520 0.008646 -0.004528 0.000000 0.000000 0.000000
# 3 0.000370 -0.004528 0.007386 0.000000 0.000000 0.000000
# 4 0.000000 0.000000 0.000000 0.024883 0.000000 0.000000
# 5 0.000000 0.000000 0.000000 0.000000 0.078020 0.000000
# 6 0.000000 0.000000 0.000000 0.000000 0.000000 0.172465
#
#
# Mechanical properties :
#
#
# Convention : Reuss Voigt Hill
#
# Bulk Modulus (GPa) = 34.75986 67.39774 51.07880
# Shear Modulus (GPa) = 15.23092 33.71094 24.47093
#
# Velocity S-wave (km/s) = 2.74945 4.09043 3.48505
# Velocity P-wave (km/s) = 5.22796 7.46727 6.44560
#
# Compressibility (1/GPa) = 0.02876882
#
# Stress axis : x y z
#
# Youngs Moduli (GPa) = 49.96650 115.66025 135.39131
#
# Poissons Ratio (x) = -0.06019 -0.05005
# Poissons Ratio (y) = -0.02600 0.61311
# Poissons Ratio (z) = -0.01847 0.52376
#
# Static dielectric constant tensor:
#      x y z
#    x 1.770750 0.000000 0.000000 
#    y 0.000000 1.693390 0.000000 
#    z 0.000000 0.000000 1.689410 
# 
# From -- ./inp_files/20367.got.cif
#   From: 2010.05.17/outbox.cif.g08.bks.cpg/sg44_11_cif.got.tgz:20367.got - 2010.06.03 19:37:08.
