data_PCOD9373185
_publ_section_title
;
Structure prediction by ZEFSAII (Michael W. Deem and Ramdas Pophale) SiO2 
 PCOD9373185
Probable space group: I M M 2
;
_chemical_formula_sum "Si O2"
_cell_formula_units_Z 56
_cell_length_a 7.820023
_cell_length_b 33.295460
_cell_length_c 14.104359
_cell_angle_alpha 90.000000
_cell_angle_beta 90.000000
_cell_angle_gamma 90.000000
_cell_volume 3672.369767
_symmetry_space_group_name_H-M "I M M 2"
_symmetry_group_IT_number 44
_symmetry_cell_setting 'orthorhombic'
loop_
_space_group_symop_operation_xyz
x,y,z
-x,-y,z
-x,y,z
x,-y,z
1/2+x,1/2+y,1/2+z
1/2-x,1/2-y,1/2+z
1/2-x,1/2+y,1/2+z
1/2+x,1/2-y,1/2+z
loop_
_atom_site_type_symbol
_atom_site_label
_atom_site_fract_x
_atom_site_fract_y
_atom_site_fract_z
Si Si1 0.798040 0.394083 0.139530
Si Si2 0.790953 0.770430 0.128936
Si Si3 0.299654 0.316200 0.811919
Si Si4 0.205916 0.689557 0.232346
Si Si5 0.202938 0.234970 0.915933
Si Si6 0.308292 0.103842 0.413506
Si Si7 0.500000 0.545971 0.909178
Si Si8 0.500000 0.454400 0.139338
O O1 0.742028 0.353442 0.192435
O O2 0.670342 0.429899 0.166481
O O3 0.000000 0.401856 0.158696
O O4 0.782394 0.387745 0.025895
O O5 0.734746 0.802435 0.208171
O O6 0.736047 0.726468 0.165875
O O7 0.000000 0.771169 0.131060
O O8 0.735374 0.776080 0.021023
O O9 0.500000 0.326061 0.804856
O O10 0.281519 0.276423 0.876850
O O11 0.210197 0.354366 0.858019
O O12 0.262161 0.700908 0.338033
O O13 0.000000 0.690094 0.230432
O O14 0.000000 0.241865 0.921230
O O15 0.500000 0.087827 0.402071
O O16 0.166703 0.071727 0.382248
O O17 0.500000 0.500000 0.874764
O O18 0.500000 0.544213 0.024238
O O19 0.500000 0.500000 0.174387
#
# Coordination Sequence:
#
# PCOD9373185 Si02
#       8
#     8   8   8   8   8   8   4   4
#     4   9  18  30  46  65  93 123 149 184 227 268
#     4   8  16  29  42  57  86 120 151 188 231 263
#     4  10  18  30  44  60  86 122 155 189 227 267
#     4   9  17  30  43  59  85 120 152 186 226 266
#     4  10  18  28  42  62  85 117 156 194 227 265
#     4  10  18  30  47  68  90 121 155 185 220 269
#     4   9  18  32  46  68  95 121 149 187 230 270
#     4   9  18  30  46  68  93 117 155 191 220 272
#
# _framework density 15.249008999999999
#
# number of rings (size 3 to 8) (size 9 to 14) (size 15 to 20)
#    0.000    2.714    0.714    2.571    1.000    2.857 
#    0.000   10.000    0.000    0.000    0.000    0.000 
#    0.000    2.286    0.000    3.143    0.000    0.286 
#
# Total GULP energy -156033.485963 kJ/mol
# GULP energy per Si atom -5572.624499 kJ/mol
# Density = 1.521430 g / cm^3
# Si number density = 15.249009 Si / 1000 Ang^3
#
#
#
# Elastic Constant Matrix: (Units=GPa)
#
#
# Indices 1 2 3 4 5 6 
#
# 1 58.9536 45.2482 25.3449 0.0000 0.0000 0.0000
# 2 45.2482 112.0913 47.4723 0.0000 0.0000 0.0000
# 3 25.3449 47.4723 83.2558 0.0001 0.0000 0.0000
# 4 0.0000 0.0000 0.0001 16.7354 0.0000 0.0000
# 5 0.0000 0.0000 0.0000 0.0000 14.9879 0.0000
# 6 0.0000 0.0000 0.0000 0.0000 0.0000 18.5185
#
#
#
# Elastic Compliance Matrix: (Units=1/GPa)
#
#
# Indices 1 2 3 4 5 6 
#
# 1 0.024948 -0.009037 -0.002442 0.000000 0.000000 0.000000
# 2 -0.009037 0.015035 -0.005822 0.000000 0.000000 0.000000
# 3 -0.002442 -0.005822 0.016074 0.000000 0.000000 0.000000
# 4 0.000000 0.000000 0.000000 0.059753 0.000000 0.000000
# 5 0.000000 0.000000 0.000000 0.000000 0.066720 0.000000
# 6 0.000000 0.000000 0.000000 0.000000 0.000000 0.054000
#
#
# Mechanical properties :
#
#
# Convention : Reuss Voigt Hill
#
# Bulk Modulus (GPa) = 46.60703 54.49241 50.54972
# Shear Modulus (GPa) = 17.96724 19.13073 18.54899
#
# Velocity S-wave (km/s) = 3.43630 3.54581 3.49148
# Velocity P-wave (km/s) = 6.80988 7.25096 7.03388
#
# Compressibility (1/GPa) = 0.02145599
#
# Stress axis : x y z
#
# Youngs Moduli (GPa) = 40.08306 66.51240 62.21144
#
# Poissons Ratio (x) = 0.60105 0.15193
# Poissons Ratio (y) = 0.36222 0.36219
# Poissons Ratio (z) = 0.09789 0.38723
#
# Static dielectric constant tensor:
#      x y z
#    x 1.544370 0.000000 0.000000 
#    y 0.000000 1.483490 0.000000 
#    z 0.000000 0.000000 1.502510 
# 
# From -- ./inp_files/17040.got.cif
#   From: 2010.05.17/outbox.cif.g08.bks.cpg/sg44_9_cif.got.tgz:17040.got - 2010.06.03 19:37:08.
