data_PCOD9373364
_publ_section_title
;
Structure prediction by ZEFSAII (Michael W. Deem and Ramdas Pophale) SiO2 
 PCOD9373364
Probable space group: I M M 2
;
_chemical_formula_sum "Si O2"
_cell_formula_units_Z 64
_cell_length_a 8.061395
_cell_length_b 17.717936
_cell_length_c 21.251619
_cell_angle_alpha 90.000000
_cell_angle_beta 90.000000
_cell_angle_gamma 90.000000
_cell_volume 3035.395958
_symmetry_space_group_name_H-M "I M M 2"
_symmetry_group_IT_number 44
_symmetry_cell_setting 'orthorhombic'
loop_
_space_group_symop_operation_xyz
x,y,z
-x,-y,z
-x,y,z
x,-y,z
1/2+x,1/2+y,1/2+z
1/2-x,1/2-y,1/2+z
1/2-x,1/2+y,1/2+z
1/2+x,1/2-y,1/2+z
loop_
_atom_site_type_symbol
_atom_site_label
_atom_site_fract_x
_atom_site_fract_y
_atom_site_fract_z
Si Si1 0.194870 0.082710 0.462170
Si Si2 0.194346 0.381909 0.099612
Si Si3 0.804894 0.288631 0.602624
Si Si4 0.694468 0.880051 0.872249
Si Si5 0.296957 0.917960 0.009059
Si Si6 0.693700 0.701263 0.737006
Si Si7 0.696690 0.883922 0.736529
Si Si8 0.690398 0.211839 0.371317
O O1 0.218990 0.089074 0.537103
O O2 0.278356 0.152111 0.426289
O O3 0.000000 0.086992 0.447929
O O4 0.258197 0.000000 0.442220
O O5 0.211549 0.290916 0.098642
O O6 0.262384 0.407691 0.168069
O O7 0.000000 0.401818 0.096269
O O8 0.742876 0.348106 0.551371
O O9 0.781231 0.322151 0.672574
O O10 0.000000 0.273221 0.592186
O O11 0.500000 0.900608 0.870283
O O12 0.766361 0.906273 0.804826
O O13 0.705739 0.788905 0.877510
O O14 0.763563 0.911044 0.937340
O O15 0.500000 0.914532 0.007856
O O16 0.250411 0.000000 0.034718
O O17 0.500000 0.682560 0.733867
O O18 0.709124 0.792730 0.737655
O O19 0.766614 0.675653 0.803534
O O20 0.500000 0.902481 0.735852
O O21 0.500000 0.235725 0.371025
#
# Coordination Sequence:
#
# PCOD9373364 Si02
#       8
#     8   8   8   8   8   8   8   8
#     4  11  24  40  55  73 102 140 179 219 265 317
#     4  10  19  33  54  79 107 136 171 218 269 320
#     4  10  18  30  52  80 108 139 178 222 268 315
#     4   9  16  31  55  79 106 139 175 214 258 309
#     4   9  18  31  48  73 105 141 180 219 256 299
#     4   9  17  32  53  77 106 136 172 217 262 311
#     4   7  13  26  47  76 103 128 161 207 258 302
#     4  11  21  34  56  83 107 132 168 214 266 323
#
# _framework density 21.084562999999999
#
# number of rings (size 3 to 8) (size 9 to 14) (size 15 to 20)
#    0.000    2.500    0.000    4.875    0.000    2.000 
#    0.000    2.500    0.000    7.875    0.000    0.000 
#    0.000    0.000    0.000    0.000    0.000    0.000 
#
# Total GULP energy -178516.519734 kJ/mol
# GULP energy per Si atom -5578.641242 kJ/mol
# Density = 2.103657 g / cm^3
# Si number density = 21.084563 Si / 1000 Ang^3
#
#
#
# Elastic Constant Matrix: (Units=GPa)
#
#
# Indices 1 2 3 4 5 6 
#
# 1 26.6382 -11.4301 0.8791 0.0000 0.0000 0.0000
# 2 -11.4301 66.6785 39.0010 0.0000 0.0000 0.0000
# 3 0.8791 39.0010 108.1656 0.0000 0.0000 0.0000
# 4 0.0000 0.0000 0.0000 -33.9728 0.0000 0.0000
# 5 0.0000 0.0000 0.0000 0.0000 23.8399 0.0000
# 6 0.0000 0.0000 0.0000 0.0000 0.0000 -5.8885
#
#
#
# Elastic Compliance Matrix: (Units=1/GPa)
#
#
# Indices 1 2 3 4 5 6 
#
# 1 0.041652 0.009299 -0.003692 0.000000 0.000000 0.000000
# 2 0.009299 0.021082 -0.007677 0.000000 0.000000 0.000000
# 3 -0.003692 -0.007677 0.012043 0.000000 0.000000 0.000000
# 4 0.000000 0.000000 0.000000 -0.029435 0.000000 0.000000
# 5 0.000000 0.000000 0.000000 0.000000 0.041947 0.000000
# 6 0.000000 0.000000 0.000000 0.000000 0.000000 -0.169823
#
#
# Mechanical properties :
#
#
# Convention : Reuss Voigt Hill
#
# Bulk Modulus (GPa) = 14.15660 28.70916 21.43288
# Shear Modulus (GPa) = -91.15734 8.33121 -41.41307
#
# Velocity S-wave (km/s) = -6.58240 1.98995 -4.43667
# Velocity P-wave (km/s) = 7.14436 4.35036 4.00726
#
# Compressibility (1/GPa) = 0.07063842
#
# Stress axis : x y z
#
# Youngs Moduli (GPa) = 24.00842 47.43433 83.03462
#
# Poissons Ratio (x) = -0.44110 0.30653
# Poissons Ratio (y) = -0.22326 0.63746
# Poissons Ratio (z) = 0.08863 0.36415
#
# Static dielectric constant tensor:
#      x y z
#    x 1.742540 0.000000 0.000000 
#    y 0.000000 1.758120 0.000000 
#    z 0.000000 0.000000 1.797740 
# 
# From -- ./inp_files/23279.got.cif
#   From: 2010.05.17/outbox.cif.g08.bks.cpg/sg44_12_cif.got.tgz:23279.got - 2010.06.03 19:37:08.
