data_PCOD9373418
_publ_section_title
;
Structure prediction by ZEFSAII (Michael W. Deem and Ramdas Pophale) SiO2 
 PCOD9373418
Probable space group: I M M 2
;
_chemical_formula_sum "Si O2"
_cell_formula_units_Z 64
_cell_length_a 7.802250
_cell_length_b 21.498726
_cell_length_c 20.129617
_cell_angle_alpha 90.000000
_cell_angle_beta 90.000000
_cell_angle_gamma 90.000000
_cell_volume 3376.510451
_symmetry_space_group_name_H-M "I M M 2"
_symmetry_group_IT_number 44
_symmetry_cell_setting 'orthorhombic'
loop_
_space_group_symop_operation_xyz
x,y,z
-x,-y,z
-x,y,z
x,-y,z
1/2+x,1/2+y,1/2+z
1/2-x,1/2-y,1/2+z
1/2-x,1/2+y,1/2+z
1/2+x,1/2-y,1/2+z
loop_
_atom_site_type_symbol
_atom_site_label
_atom_site_fract_x
_atom_site_fract_y
_atom_site_fract_z
Si Si1 0.708001 0.118353 0.594860
Si Si2 0.795775 0.932019 0.736560
Si Si3 0.302691 0.748149 0.940630
Si Si4 0.796022 0.238540 0.085214
Si Si5 0.197444 0.607841 0.949074
Si Si6 0.789752 0.568825 0.806214
Si Si7 0.206014 0.312723 0.723099
Si Si8 0.793770 0.807224 0.804730
O O1 0.500000 0.117220 0.593857
O O2 0.768035 0.080925 0.658546
O O3 0.762873 0.190713 0.601809
O O4 0.770999 0.095643 0.522450
O O5 0.726296 0.872596 0.776754
O O6 0.000000 0.933621 0.748227
O O7 0.724894 0.000000 0.754082
O O8 0.500000 0.731057 0.931432
O O9 0.201173 0.682830 0.940041
O O10 0.247598 0.792282 0.880825
O O11 0.278197 0.777492 0.013253
O O12 0.749532 0.194376 0.145984
O O13 0.000000 0.240615 0.078416
O O14 0.271863 0.579466 0.881916
O O15 0.000000 0.586893 0.951822
O O16 0.741157 0.500000 0.783317
O O17 0.731204 0.625167 0.759572
O O18 0.000000 0.571474 0.807823
O O19 0.271266 0.251136 0.761208
O O20 0.000000 0.312578 0.729031
O O21 0.000000 0.808044 0.797742
#
# Coordination Sequence:
#
# PCOD9373418 Si02
#       8
#     8   8   8   8   8   8   8   8
#     4   9  18  30  48  73 102 135 171 211 249 297
#     4  10  21  35  51  72 101 138 175 210 255 308
#     4  11  21  32  52  80 106 132 170 215 261 305
#     4  10  20  34  53  77 106 135 169 213 261 306
#     4   9  17  32  50  73 104 140 177 208 250 300
#     4   9  17  30  50  75 104 138 175 211 249 300
#     4  10  18  31  54  79 102 135 174 212 256 300
#     4  10  19  34  54  75 103 137 171 211 257 305
#
# _framework density 18.954481000000001
#
# number of rings (size 3 to 8) (size 9 to 14) (size 15 to 20)
#    0.000    2.250    2.500    2.250    0.000    3.750 
#    0.000    1.250    0.000    2.250    0.000    0.000 
#    0.000    0.000    0.000    0.000    0.000    0.000 
#
# Total GULP energy -178563.950676 kJ/mol
# GULP energy per Si atom -5580.123459 kJ/mol
# Density = 1.891134 g / cm^3
# Si number density = 18.954481 Si / 1000 Ang^3
#
#
#
# Elastic Constant Matrix: (Units=GPa)
#
#
# Indices 1 2 3 4 5 6 
#
# 1 25.6264 7.6960 -7.7088 0.0000 0.0000 0.0000
# 2 7.6960 117.0774 69.8432 0.0000 0.0000 0.0000
# 3 -7.7088 69.8432 109.4933 0.0000 0.0000 0.0000
# 4 0.0000 0.0000 0.0000 21.1459 0.0000 0.0000
# 5 0.0000 0.0000 0.0000 0.0000 20.5043 0.0000
# 6 0.0000 0.0000 0.0000 0.0000 0.0000 -5.8157
#
#
#
# Elastic Compliance Matrix: (Units=1/GPa)
#
#
# Indices 1 2 3 4 5 6 
#
# 1 0.043687 -0.007598 0.007922 0.000000 0.000000 0.000000
# 2 -0.007598 0.015109 -0.010173 0.000000 0.000000 0.000000
# 3 0.007922 -0.010173 0.016180 0.000000 0.000000 0.000000
# 4 0.000000 0.000000 0.000000 0.047291 0.000000 0.000000
# 5 0.000000 0.000000 0.000000 0.000000 0.048770 0.000000
# 6 0.000000 0.000000 0.000000 0.000000 0.000000 -0.171949
#
#
# Mechanical properties :
#
#
# Convention : Reuss Voigt Hill
#
# Bulk Modulus (GPa) = 18.08995 43.53978 30.81486
# Shear Modulus (GPa) = 134.36680 19.32469 76.84575
#
# Velocity S-wave (km/s) = 8.42871 3.19647 6.37419
# Velocity P-wave (km/s) = 10.21219 6.05342 8.39442
#
# Compressibility (1/GPa) = 0.05527933
#
# Stress axis : x y z
#
# Youngs Moduli (GPa) = 22.89010 66.18358 61.80552
#
# Poissons Ratio (x) = 0.50285 -0.48963
# Poissons Ratio (y) = 0.17391 0.62874
# Poissons Ratio (z) = -0.18134 0.67328
#
# Static dielectric constant tensor:
#      x y z
#    x 1.693010 0.000000 0.000000 
#    y 0.000000 1.664320 0.000000 
#    z 0.000000 0.000000 1.653550 
# 
# From -- ./inp_files/23409.got.cif
#   From: 2010.05.17/outbox.cif.g08.bks.cpg/sg44_12_cif.got.tgz:23409.got - 2010.06.03 19:37:08.
