data_PCOD9373237
_publ_section_title
;
Structure prediction by ZEFSAII (Michael W. Deem and Ramdas Pophale) SiO2 
 PCOD9373237
Probable space group: I M M 2
;
_chemical_formula_sum "Si O2"
_cell_formula_units_Z 40
_cell_length_a 27.032571
_cell_length_b 7.635215
_cell_length_c 9.447563
_cell_angle_alpha 90.000000
_cell_angle_beta 90.000000
_cell_angle_gamma 90.000000
_cell_volume 1949.972200
_symmetry_space_group_name_H-M "I M M 2"
_symmetry_group_IT_number 44
_symmetry_cell_setting 'orthorhombic'
loop_
_space_group_symop_operation_xyz
x,y,z
-x,-y,z
-x,y,z
x,-y,z
1/2+x,1/2+y,1/2+z
1/2-x,1/2-y,1/2+z
1/2-x,1/2+y,1/2+z
1/2+x,1/2-y,1/2+z
loop_
_atom_site_type_symbol
_atom_site_label
_atom_site_fract_x
_atom_site_fract_y
_atom_site_fract_z
Si Si1 0.500000 0.198256 0.432650
Si Si2 0.699310 0.790463 0.963532
Si Si3 0.296719 0.788651 0.283987
Si Si4 0.893060 0.289331 0.283490
Si Si5 0.607253 0.215078 0.456331
Si Si6 0.000000 0.797669 0.253040
O O1 0.553693 0.276693 0.399337
O O2 0.500000 0.192352 0.605133
O O3 0.500000 0.000000 0.376382
O O4 0.747931 0.758185 0.871125
O O5 0.650748 0.722050 0.882581
O O6 0.693238 0.000000 0.974685
O O7 0.705244 0.722521 0.123013
O O8 0.346132 0.728149 0.364469
O O9 0.298940 0.000000 0.280518
O O10 0.890019 0.500000 0.280695
O O11 0.948620 0.241858 0.330177
O O12 0.887075 0.229535 0.120273
O O13 0.605772 0.000000 0.456214
O O14 0.000000 0.000000 0.211993
#
# Coordination Sequence:
#
# PCOD9373237 Si02
#       6
#     4   8   8   8   8   4
#     4   8  14  28  49  70  96 134 172 200 239 294
#     4  10  21  35  52  75 101 133 172 210 253 305
#     4  10  20  34  52  76 104 132 168 213 258 302
#     4   9  17  32  51  70  97 133 169 202 243 297
#     4   8  14  27  49  72  95 127 164 202 242 289
#     4  10  18  28  47  76 102 124 160 206 249 292
#
# _framework density 20.513112
#
# number of rings (size 3 to 8) (size 9 to 14) (size 15 to 20)
#    0.000    2.800    0.000    3.300    0.000    3.200 
#    0.000    7.000    0.000    4.800    0.000    5.600 
#    0.000    0.000    0.000    0.000    0.000    0.000 
#
# Total GULP energy -111557.287147 kJ/mol
# GULP energy per Si atom -5577.864357 kJ/mol
# Density = 2.046642 g / cm^3
# Si number density = 20.513112 Si / 1000 Ang^3
#
#
#
# Elastic Constant Matrix: (Units=GPa)
#
#
# Indices 1 2 3 4 5 6 
#
# 1 229.8765 -8.7230 107.7357 0.0000 0.0000 0.0000
# 2 -8.7230 42.4227 3.3451 0.0000 0.0000 0.0000
# 3 107.7357 3.3451 127.4343 0.0000 0.0000 0.0000
# 4 0.0000 0.0000 0.0000 7.8402 0.0000 0.0000
# 5 0.0000 0.0000 0.0000 0.0000 36.4307 0.0000
# 6 0.0000 0.0000 0.0000 0.0000 0.0000 20.4240
#
#
#
# Elastic Compliance Matrix: (Units=1/GPa)
#
#
# Indices 1 2 3 4 5 6 
#
# 1 0.007372 0.002012 -0.006286 0.000000 0.000000 0.000000
# 2 0.002012 0.024170 -0.002335 0.000000 0.000000 0.000000
# 3 -0.006286 -0.002335 0.013222 0.000000 0.000000 0.000000
# 4 0.000000 0.000000 0.000000 0.127547 0.000000 0.000000
# 5 0.000000 0.000000 0.000000 0.000000 0.027449 0.000000
# 6 0.000000 0.000000 0.000000 0.000000 0.000000 0.048962
#
#
# Mechanical properties :
#
#
# Convention : Reuss Voigt Hill
#
# Bulk Modulus (GPa) = 31.69906 67.16100 49.43003
# Shear Modulus (GPa) = 18.35154 32.76404 25.55779
#
# Velocity S-wave (km/s) = 2.99427 4.00086 3.53359
# Velocity P-wave (km/s) = 5.23840 7.35895 6.38729
#
# Compressibility (1/GPa) = 0.03154668
#
# Stress axis : x y z
#
# Youngs Moduli (GPa) = 135.64281 41.37356 75.62939
#
# Poissons Ratio (x) = -0.08322 0.47537
# Poissons Ratio (y) = -0.27285 0.17660
# Poissons Ratio (z) = 0.85258 0.09661
#
# Static dielectric constant tensor:
#      x y z
#    x 1.740130 0.000000 0.000000 
#    y 0.000000 1.791820 0.000000 
#    z 0.000000 0.000000 1.705710 
# 
# From -- ./inp_files/4622.got.cif
#   From: 2010.05.17/outbox.cif.g08.bks.cpg/sg44_3_cif.got.tgz:4622.got - 2010.06.03 19:37:08.
