data_PCOD9373253
_publ_section_title
;
Structure prediction by ZEFSAII (Michael W. Deem and Ramdas Pophale) SiO2 
 PCOD9373253
Probable space group: I M M 2
;
_chemical_formula_sum "Si O2"
_cell_formula_units_Z 40
_cell_length_a 7.298562
_cell_length_b 8.115925
_cell_length_c 33.320674
_cell_angle_alpha 90.000000
_cell_angle_beta 90.000000
_cell_angle_gamma 90.000000
_cell_volume 1973.736190
_symmetry_space_group_name_H-M "I M M 2"
_symmetry_group_IT_number 44
_symmetry_cell_setting 'orthorhombic'
loop_
_space_group_symop_operation_xyz
x,y,z
-x,-y,z
-x,y,z
x,-y,z
1/2+x,1/2+y,1/2+z
1/2-x,1/2-y,1/2+z
1/2-x,1/2+y,1/2+z
1/2+x,1/2-y,1/2+z
loop_
_atom_site_type_symbol
_atom_site_label
_atom_site_fract_x
_atom_site_fract_y
_atom_site_fract_z
Si Si1 0.724295 0.000000 0.467401
Si Si2 0.280278 0.500000 0.255168
Si Si3 0.776875 0.184830 0.111790
Si Si4 0.778325 0.500000 0.875978
Si Si5 0.721927 0.177959 0.300207
Si Si6 0.282486 0.000000 0.660585
Si Si7 0.722689 0.685552 0.518926
O O1 0.786499 0.000000 0.421236
O O2 0.782374 0.835098 0.490801
O O3 0.500000 0.000000 0.467475
O O4 0.500000 0.500000 0.259934
O O5 0.209800 0.664023 0.277034
O O6 0.244766 0.500000 0.208020
O O7 0.712226 0.333236 0.139751
O O8 0.000000 0.183947 0.112570
O O9 0.718615 0.000000 0.123615
O O10 0.724164 0.212839 0.065346
O O11 0.726309 0.345921 0.847151
O O12 0.000000 0.500000 0.877958
O O13 0.500000 0.184260 0.299348
O O14 0.774921 0.000000 0.281786
O O15 0.500000 0.000000 0.653217
O O16 0.500000 0.685925 0.518268
O O17 0.780070 0.500000 0.507155
#
# Coordination Sequence:
#
# PCOD9373253 Si02
#       7
#     4   4   8   4   8   4   8
#     4   9  13  18  28  46  72  97 127 164 188 212
#     4  10  18  29  45  59  75 105 138 164 198 242
#     4   8  14  25  38  52  76 107 134 158 191 238
#     4   7  12  23  34  48  71  97 130 164 190 225
#     4   7  13  26  39  52  70  97 133 163 190 234
#     4  10  19  28  41  63  81  99 133 172 202 229
#     4   8  13  20  30  46  69 101 134 155 180 225
#
# _framework density 20.266131999999999
#
# number of rings (size 3 to 8) (size 9 to 14) (size 15 to 20)
#    0.600    3.200    0.000    1.800    0.000    3.200 
#    1.800    0.000    0.000    0.000    0.000    0.000 
#    0.000    0.000    0.000    7.200    2.400    9.400 
#
# Total GULP energy -111364.936448 kJ/mol
# GULP energy per Si atom -5568.246822 kJ/mol
# Density = 2.022001 g / cm^3
# Si number density = 20.266132 Si / 1000 Ang^3
#
#
#
# Elastic Constant Matrix: (Units=GPa)
#
#
# Indices 1 2 3 4 5 6 
#
# 1 83.5687 9.1464 1.5764 0.0000 0.0000 0.0000
# 2 9.1464 234.4149 153.8225 0.0000 0.0000 0.0000
# 3 1.5764 153.8225 166.0781 0.0000 0.0000 0.0000
# 4 0.0000 0.0000 0.0000 17.3585 0.0000 0.0000
# 5 0.0000 0.0000 0.0000 0.0000 1.3899 0.0000
# 6 0.0000 0.0000 0.0000 0.0000 0.0000 -18.3682
#
#
#
# Elastic Compliance Matrix: (Units=1/GPa)
#
#
# Indices 1 2 3 4 5 6 
#
# 1 0.012061 -0.001008 0.000819 0.000000 0.000000 0.000000
# 2 -0.001008 0.010961 -0.010142 0.000000 0.000000 0.000000
# 3 0.000819 -0.010142 0.015407 0.000000 0.000000 0.000000
# 4 0.000000 0.000000 0.000000 0.057609 0.000000 0.000000
# 5 0.000000 0.000000 0.000000 0.000000 0.719487 0.000000
# 6 0.000000 0.000000 0.000000 0.000000 0.000000 -0.054442
#
#
# Mechanical properties :
#
#
# Convention : Reuss Voigt Hill
#
# Bulk Modulus (GPa) = 56.28480 90.35024 73.31752
# Shear Modulus (GPa) = 6.34787 21.37713 13.86250
#
# Velocity S-wave (km/s) = 1.77174 3.25132 2.61822
# Velocity P-wave (km/s) = 5.65849 7.66639 6.73766
#
# Compressibility (1/GPa) = 0.01776678
#
# Stress axis : x y z
#
# Youngs Moduli (GPa) = 82.91111 91.23659 64.90486
#
# Poissons Ratio (x) = 0.09199 -0.05318
# Poissons Ratio (y) = 0.08360 0.65827
# Poissons Ratio (z) = -0.06794 0.92533
#
# Static dielectric constant tensor:
#      x y z
#    x 1.979570 0.000000 0.000000 
#    y 0.000000 1.713670 0.000000 
#    z 0.000000 0.000000 1.672790 
# 
# From -- ./inp_files/26001.got.cif
#   From: 2010.05.17/outbox.cif.g08.bks.cpg/sg44_14_cif.got.tgz:26001.got - 2010.06.03 19:37:08.
