data_PCOD9373086
_publ_section_title
;
Structure prediction by ZEFSAII (Michael W. Deem and Ramdas Pophale) SiO2 
 PCOD9373086
Probable space group: I M M 2
;
_chemical_formula_sum "Si O2"
_cell_formula_units_Z 40
_cell_length_a 11.199135
_cell_length_b 7.280906
_cell_length_c 23.091365
_cell_angle_alpha 90.000000
_cell_angle_beta 90.000000
_cell_angle_gamma 90.000000
_cell_volume 1882.866420
_symmetry_space_group_name_H-M "I M M 2"
_symmetry_group_IT_number 44
_symmetry_cell_setting 'orthorhombic'
loop_
_space_group_symop_operation_xyz
x,y,z
-x,-y,z
-x,y,z
x,-y,z
1/2+x,1/2+y,1/2+z
1/2-x,1/2-y,1/2+z
1/2-x,1/2+y,1/2+z
1/2+x,1/2-y,1/2+z
loop_
_atom_site_type_symbol
_atom_site_label
_atom_site_fract_x
_atom_site_fract_y
_atom_site_fract_z
Si Si1 0.239420 0.224879 0.209040
Si Si2 0.500000 0.791377 0.218302
Si Si3 0.000000 0.216783 0.273056
Si Si4 0.000000 0.720523 0.409259
Si Si5 0.000000 0.778397 0.583184
Si Si6 0.297723 0.207679 0.992076
Si Si7 0.863530 0.775932 0.087105
O O1 0.368910 0.288258 0.231994
O O2 0.214473 0.281725 0.142623
O O3 0.123765 0.285377 0.245401
O O4 0.243712 0.000000 0.209497
O O5 0.500000 0.791328 0.148224
O O6 0.500000 0.000000 0.240649
O O7 0.000000 0.242933 0.341689
O O8 0.000000 0.000000 0.259990
O O9 0.879777 0.790069 0.441297
O O10 0.000000 0.500000 0.419011
O O11 0.111514 0.707137 0.546460
O O12 0.000000 0.000000 0.583067
O O13 0.267201 0.000000 0.973966
O O14 0.183255 0.289309 0.024467
O O15 0.000000 0.723593 0.097685
O O16 0.859132 0.000000 0.085864
#
# Coordination Sequence:
#
# PCOD9373086 Si02
#       7
#     8   4   4   4   4   8   8
#     4   9  16  26  47  75  98 122 159 200 243 293
#     4  10  17  29  48  69  95 129 163 198 243 293
#     4  10  19  33  52  75  97 125 168 213 245 283
#     4   9  19  33  50  70  94 131 172 202 235 291
#     4  11  19  25  40  70 102 125 151 191 243 297
#     4   9  17  31  50  70  93 125 166 205 243 288
#     4   9  14  23  46  78 101 117 151 207 255 289
#
# _framework density 21.244206999999999
#
# number of rings (size 3 to 8) (size 9 to 14) (size 15 to 20)
#    0.000    2.600    3.000    1.500    0.000    1.600 
#    0.000    1.000    2.200    0.600    0.000    0.000 
#    0.000    0.000    0.000    0.000    0.000    0.000 
#
# Total GULP energy -111464.530115 kJ/mol
# GULP energy per Si atom -5573.226506 kJ/mol
# Density = 2.119585 g / cm^3
# Si number density = 21.244207 Si / 1000 Ang^3
#
#
#
# Elastic Constant Matrix: (Units=GPa)
#
#
# Indices 1 2 3 4 5 6 
#
# 1 176.6443 4.4873 56.7351 0.0000 0.0000 0.0000
# 2 4.4873 104.1011 -8.9154 0.0000 0.0000 0.0000
# 3 56.7351 -8.9154 98.6924 0.0000 0.0000 0.0000
# 4 0.0000 0.0000 0.0000 9.8450 0.0000 0.0000
# 5 0.0000 0.0000 0.0000 0.0000 30.5271 0.0000
# 6 0.0000 0.0000 0.0000 0.0000 0.0000 -43.0640
#
#
#
# Elastic Compliance Matrix: (Units=1/GPa)
#
#
# Indices 1 2 3 4 5 6 
#
# 1 0.006986 -0.000650 -0.004075 0.000000 0.000000 0.000000
# 2 -0.000650 0.009741 0.001254 0.000000 0.000000 0.000000
# 3 -0.004075 0.001254 0.012588 0.000000 0.000000 0.000000
# 4 0.000000 0.000000 0.000000 0.101574 0.000000 0.000000
# 5 0.000000 0.000000 0.000000 0.000000 0.032758 0.000000
# 6 0.000000 0.000000 0.000000 0.000000 0.000000 -0.023221
#
#
# Mechanical properties :
#
#
# Convention : Reuss Voigt Hill
#
# Bulk Modulus (GPa) = 44.69593 53.78354 49.23974
# Shear Modulus (GPa) = 32.29399 21.27035 26.78217
#
# Velocity S-wave (km/s) = 3.90312 3.16766 3.55446
# Velocity P-wave (km/s) = 6.43407 6.22499 6.33039
#
# Compressibility (1/GPa) = 0.02237340
#
# Stress axis : x y z
#
# Youngs Moduli (GPa) = 143.13456 102.65423 79.43853
#
# Poissons Ratio (x) = 0.06674 0.32371
# Poissons Ratio (y) = 0.09306 -0.09960
# Poissons Ratio (z) = 0.58327 -0.12870
#
# Static dielectric constant tensor:
#      x y z
#    x 1.860110 0.000000 0.000000 
#    y 0.000000 1.818040 0.000000 
#    z 0.000000 0.000000 1.703640 
# 
# From -- ./inp_files/22823.got.cif
#   From: 2010.05.17/outbox.cif.g08.bks.cpg/sg44_12_cif.got.tgz:22823.got - 2010.06.03 19:37:08.
