data_PCOD9373698
_publ_section_title
;
Structure prediction by ZEFSAII (Michael W. Deem and Ramdas Pophale) SiO2 
 PCOD9373698
Probable space group: I M M 2
;
_chemical_formula_sum "Si O2"
_cell_formula_units_Z 64
_cell_length_a 15.046754
_cell_length_b 8.380715
_cell_length_c 28.983384
_cell_angle_alpha 90.000000
_cell_angle_beta 90.000000
_cell_angle_gamma 90.000000
_cell_volume 3654.878831
_symmetry_space_group_name_H-M "I M M 2"
_symmetry_group_IT_number 44
_symmetry_cell_setting 'orthorhombic'
loop_
_space_group_symop_operation_xyz
x,y,z
-x,-y,z
-x,y,z
x,-y,z
1/2+x,1/2+y,1/2+z
1/2-x,1/2-y,1/2+z
1/2-x,1/2+y,1/2+z
1/2+x,1/2-y,1/2+z
loop_
_atom_site_type_symbol
_atom_site_label
_atom_site_fract_x
_atom_site_fract_y
_atom_site_fract_z
Si Si1 0.399750 0.307267 0.770100
Si Si2 0.721791 0.191489 0.227826
Si Si3 0.601801 0.692783 0.041262
Si Si4 0.897532 0.690968 0.373206
Si Si5 0.899027 0.192470 0.917176
Si Si6 0.396258 0.691904 0.311738
Si Si7 0.222333 0.190471 0.456985
Si Si8 0.398276 0.807078 0.144020
O O1 0.500000 0.249997 0.759999
O O2 0.401007 0.500000 0.768789
O O3 0.322015 0.249343 0.736338
O O4 0.377021 0.256201 0.822302
O O5 0.665517 0.231558 0.273423
O O6 0.669256 0.252643 0.183071
O O7 0.725965 0.000000 0.223500
O O8 0.500000 0.744399 0.030913
O O9 0.602292 0.500000 0.041212
O O10 0.624197 0.750906 0.092563
O O11 0.669968 0.749912 0.002255
O O12 0.891709 0.500000 0.371880
O O13 0.832544 0.754748 0.412180
O O14 0.000000 0.736665 0.383763
O O15 0.877078 0.243227 0.864417
O O16 0.822854 0.250951 0.951092
O O17 0.000000 0.244999 0.927624
O O18 0.899065 0.000000 0.916934
O O19 0.500000 0.728531 0.302599
O O20 0.385966 0.500000 0.309842
O O21 0.222390 0.000000 0.458350
O O22 0.500000 0.755246 0.154139
O O23 0.397768 0.000000 0.144576
#
# Coordination Sequence:
#
# PCOD9373698 Si02
#       8
#     8   8   8   8   8   8   8   8
#     4   9  18  32  48  67  95 130 164 198 236 277
#     4  10  19  30  47  71  96 124 158 195 236 280
#     4   9  19  35  52  71  96 124 154 190 235 288
#     4  10  20  32  47  70 100 132 165 200 239 286
#     4   9  19  35  51  69  98 133 167 203 238 275
#     4   9  18  31  46  67  96 128 159 191 229 274
#     4  11  21  32  50  74  98 126 161 201 244 289
#     4   9  18  32  49  70  95 120 150 193 241 286
#
# _framework density 17.510840999999999
#
# number of rings (size 3 to 8) (size 9 to 14) (size 15 to 20)
#    0.000    2.500    0.000    3.000    0.000    6.750 
#    0.000    3.750    0.000    0.750    0.000    1.750 
#    0.000    0.000    0.000    0.000    0.000    0.000 
#
# Total GULP energy -178529.249391 kJ/mol
# GULP energy per Si atom -5579.039043 kJ/mol
# Density = 1.747099 g / cm^3
# Si number density = 17.510841 Si / 1000 Ang^3
#
#
#
# Elastic Constant Matrix: (Units=GPa)
#
#
# Indices 1 2 3 4 5 6 
#
# 1 134.2566 17.4170 108.4485 0.0000 0.0000 0.0000
# 2 17.4170 4.6332 12.7292 0.0000 0.0000 0.0000
# 3 108.4485 12.7292 112.5576 0.0000 0.0000 0.0000
# 4 0.0000 0.0000 0.0000 22.9114 0.0000 0.0000
# 5 0.0000 0.0000 0.0000 0.0000 32.3654 0.0000
# 6 0.0000 0.0000 0.0000 0.0000 0.0000 21.9679
#
#
#
# Elastic Compliance Matrix: (Units=1/GPa)
#
#
# Indices 1 2 3 4 5 6 
#
# 1 0.046611 -0.075200 -0.036405 0.000000 0.000000 0.000000
# 2 -0.075200 0.434450 0.023322 0.000000 0.000000 0.000000
# 3 -0.036405 0.023322 0.041322 0.000000 0.000000 0.000000
# 4 0.000000 0.000000 0.000000 0.043646 0.000000 0.000000
# 5 0.000000 0.000000 0.000000 0.000000 0.030897 0.000000
# 6 0.000000 0.000000 0.000000 0.000000 0.000000 0.045521
#
#
# Mechanical properties :
#
#
# Convention : Reuss Voigt Hill
#
# Bulk Modulus (GPa) = 2.89169 58.73743 30.81456
# Shear Modulus (GPa) = 5.35169 22.97246 14.16208
#
# Velocity S-wave (km/s) = 1.75010 3.62594 2.84696
# Velocity P-wave (km/s) = 2.39557 7.15166 5.33315
#
# Compressibility (1/GPa) = 0.34581847
#
# Stress axis : x y z
#
# Youngs Moduli (GPa) = 21.45438 2.30176 24.19998
#
# Poissons Ratio (x) = 0.17309 0.88099
# Poissons Ratio (y) = 1.61336 -0.56440
# Poissons Ratio (z) = 0.78104 -0.05368
#
# Static dielectric constant tensor:
#      x y z
#    x 1.623160 0.000000 0.000000 
#    y 0.000000 1.603890 0.000000 
#    z 0.000000 0.000000 1.568900 
# 
# From -- ./inp_files/25086.got.cif
#   From: 2010.05.17/outbox.cif.g08.bks.cpg/sg44_13_cif.got.tgz:25086.got - 2010.06.03 19:37:08.
