data_PCOD9373478
_publ_section_title
;
Structure prediction by ZEFSAII (Michael W. Deem and Ramdas Pophale) SiO2 
 PCOD9373478
Probable space group: I M M 2
;
_chemical_formula_sum "Si O2"
_cell_formula_units_Z 48
_cell_length_a 10.367481
_cell_length_b 7.816917
_cell_length_c 28.884502
_cell_angle_alpha 90.000000
_cell_angle_beta 90.000000
_cell_angle_gamma 90.000000
_cell_volume 2340.850257
_symmetry_space_group_name_H-M "I M M 2"
_symmetry_group_IT_number 44
_symmetry_cell_setting 'orthorhombic'
loop_
_space_group_symop_operation_xyz
x,y,z
-x,-y,z
-x,y,z
x,-y,z
1/2+x,1/2+y,1/2+z
1/2-x,1/2-y,1/2+z
1/2-x,1/2+y,1/2+z
1/2+x,1/2-y,1/2+z
loop_
_atom_site_type_symbol
_atom_site_label
_atom_site_fract_x
_atom_site_fract_y
_atom_site_fract_z
Si Si1 0.000000 0.793376 0.971791
Si Si2 0.752642 0.706660 0.417664
Si Si3 0.500000 0.206346 0.581057
Si Si4 0.000000 0.206372 0.576300
Si Si5 0.149666 0.796502 0.316101
Si Si6 0.500000 0.202880 0.970480
Si Si7 0.254440 0.290633 0.135075
Si Si8 0.850486 0.794664 0.735233
O O1 0.875914 0.730818 0.943093
O O2 0.000000 0.749917 0.026423
O O3 0.000000 0.000000 0.970120
O O4 0.748111 0.500000 0.420230
O O5 0.782993 0.749783 0.364691
O O6 0.872911 0.774613 0.446956
O O7 0.375039 0.267482 0.609514
O O8 0.500000 0.000000 0.582882
O O9 0.126174 0.262290 0.603456
O O10 0.000000 0.269774 0.524528
O O11 0.000000 0.000000 0.575760
O O12 0.248735 0.741637 0.275936
O O13 0.000000 0.728904 0.313430
O O14 0.139692 0.000000 0.313746
O O15 0.500000 0.000000 0.961139
O O16 0.250031 0.500000 0.136352
O O17 0.286821 0.232533 0.187077
O O18 0.000000 0.732317 0.741452
O O19 0.860769 0.000000 0.731696
#
# Coordination Sequence:
#
# PCOD9373478 Si02
#       8
#     4   8   4   4   8   4   8   8
#     4  10  22  38  57  84 117 153 194 239 285 338
#     4  10  21  39  60  82 113 151 195 241 284 343
#     4  10  20  34  55  84 117 153 194 237 283 336
#     4  10  18  32  55  80 111 145 182 233 285 338
#     4  11  25  42  60  87 121 152 190 243 302 357
#     4  10  20  34  55  82 111 145 188 237 285 340
#     4   9  18  34  56  84 113 146 192 238 278 334
#     4  10  21  39  64  90 117 153 198 243 291 348
#
# _framework density 20.505372000000001
#
# number of rings (size 3 to 8) (size 9 to 14) (size 15 to 20)
#    0.000    2.000    1.667    1.500    2.333    2.667 
#    0.000    1.667    0.000    0.000    0.000    0.000 
#    0.000    0.000    0.000    0.000    0.000    0.000 
#
# Total GULP energy -133942.075502 kJ/mol
# GULP energy per Si atom -5580.919813 kJ/mol
# Density = 2.045870 g / cm^3
# Si number density = 20.505372 Si / 1000 Ang^3
#
#
#
# Elastic Constant Matrix: (Units=GPa)
#
#
# Indices 1 2 3 4 5 6 
#
# 1 248.0099 15.0671 136.6221 0.0000 0.0000 0.0000
# 2 15.0671 25.3276 -5.7912 0.0000 0.0000 0.0000
# 3 136.6221 -5.7912 200.1711 0.0000 0.0000 0.0000
# 4 0.0000 0.0000 0.0000 28.1974 0.0000 0.0000
# 5 0.0000 0.0000 0.0000 0.0000 41.5557 0.0000
# 6 0.0000 0.0000 0.0000 0.0000 0.0000 2.5020
#
#
#
# Elastic Compliance Matrix: (Units=1/GPa)
#
#
# Indices 1 2 3 4 5 6 
#
# 1 0.007123 -0.005385 -0.005018 0.000000 0.000000 0.000000
# 2 -0.005385 0.043816 0.004943 0.000000 0.000000 0.000000
# 3 -0.005018 0.004943 0.008563 0.000000 0.000000 0.000000
# 4 0.000000 0.000000 0.000000 0.035464 0.000000 0.000000
# 5 0.000000 0.000000 0.000000 0.000000 0.024064 0.000000
# 6 0.000000 0.000000 0.000000 0.000000 0.000000 0.399676
#
#
# Mechanical properties :
#
#
# Convention : Reuss Voigt Hill
#
# Bulk Modulus (GPa) = 20.58291 85.03381 52.80836
# Shear Modulus (GPa) = 9.16050 36.29171 22.72611
#
# Velocity S-wave (km/s) = 2.11591 4.21154 3.33273
# Velocity P-wave (km/s) = 4.00363 8.07518 6.37328
#
# Compressibility (1/GPa) = 0.04858400
#
# Stress axis : x y z
#
# Youngs Moduli (GPa) = 140.38365 22.82253 116.77575
#
# Poissons Ratio (x) = 0.12290 0.58594
# Poissons Ratio (y) = 0.75595 -0.57722
# Poissons Ratio (z) = 0.70440 -0.11281
#
# Static dielectric constant tensor:
#      x y z
#    x 1.772230 0.000000 0.000000 
#    y 0.000000 1.753690 0.000000 
#    z 0.000000 0.000000 1.695520 
# 
# From -- ./inp_files/27051.got.cif
#   From: 2010.05.17/outbox.cif.g08.bks.cpg/sg44_14_cif.got.tgz:27051.got - 2010.06.03 19:37:08.
