data_PCOD9373157
_publ_section_title
;
Structure prediction by ZEFSAII (Michael W. Deem and Ramdas Pophale) SiO2 
 PCOD9373157
Probable space group: I M M 2
;
_chemical_formula_sum "Si O2"
_cell_formula_units_Z 56
_cell_length_a 21.995490
_cell_length_b 7.673964
_cell_length_c 19.036830
_cell_angle_alpha 90.000000
_cell_angle_beta 90.000000
_cell_angle_gamma 90.000000
_cell_volume 3213.276001
_symmetry_space_group_name_H-M "I M M 2"
_symmetry_group_IT_number 44
_symmetry_cell_setting 'orthorhombic'
loop_
_space_group_symop_operation_xyz
x,y,z
-x,-y,z
-x,y,z
x,-y,z
1/2+x,1/2+y,1/2+z
1/2-x,1/2-y,1/2+z
1/2-x,1/2+y,1/2+z
1/2+x,1/2-y,1/2+z
loop_
_atom_site_type_symbol
_atom_site_label
_atom_site_fract_x
_atom_site_fract_y
_atom_site_fract_z
Si Si1 0.000000 0.214821 0.000000
Si Si2 0.253108 0.707853 0.660890
Si Si3 0.376539 0.285932 0.737939
Si Si4 0.745004 0.794107 0.499507
Si Si5 0.379129 0.704134 0.423989
Si Si6 0.198582 0.792808 0.799803
Si Si7 0.500000 0.712857 0.662297
Si Si8 0.678827 0.698396 0.875756
O O1 0.939183 0.276874 0.960471
O O2 0.000000 0.000000 0.001090
O O3 0.000000 0.268670 0.081285
O O4 0.255325 0.500000 0.660294
O O5 0.318160 0.770783 0.691915
O O6 0.244542 0.767141 0.581453
O O7 0.201741 0.762969 0.716815
O O8 0.375339 0.500000 0.739400
O O9 0.438965 0.231359 0.702076
O O10 0.367340 0.224534 0.818446
O O11 0.680048 0.720692 0.474058
O O12 0.799081 0.722086 0.449510
O O13 0.741784 0.000000 0.485242
O O14 0.391825 0.500000 0.414641
O O15 0.357572 0.770108 0.347446
O O16 0.257999 0.699905 0.831663
O O17 0.205793 0.000000 0.812370
O O18 0.500000 0.500000 0.662471
O O19 0.658730 0.500000 0.889333
#
# Coordination Sequence:
#
# PCOD9373157 Si02
#       8
#     4   8   8   8   8   8   4   8
#     4   9  16  26  41  63  88 115 146 174 201 241
#     4  10  18  28  42  60  84 110 137 171 213 258
#     4   8  14  24  38  57  80 106 133 162 196 235
#     4  10  18  27  41  61  85 110 138 175 216 254
#     4   9  17  29  44  61  85 116 146 174 206 250
#     4   9  16  26  41  61  82 106 139 175 210 248
#     4   9  14  20  36  61  84 105 134 166 191 227
#     4   8  15  27  40  56  81 110 136 166 207 249
#
# _framework density 17.427696999999998
#
# number of rings (size 3 to 8) (size 9 to 14) (size 15 to 20)
#    0.000    3.000    0.000    3.000    0.000    3.429 
#    0.000    0.357    0.000    0.000    0.000   13.000 
#    0.000    5.714    0.000    0.000    0.000    0.000 
#
# Total GULP energy -155880.379130 kJ/mol
# GULP energy per Si atom -5567.156397 kJ/mol
# Density = 1.738803 g / cm^3
# Si number density = 17.427697 Si / 1000 Ang^3
#
#
#
# Elastic Constant Matrix: (Units=GPa)
#
#
# Indices 1 2 3 4 5 6 
#
# 1 95.9857 0.9686 80.3400 0.0000 0.0000 0.0000
# 2 0.9686 33.9372 -6.5401 0.0000 0.0000 0.0000
# 3 80.3400 -6.5401 171.1269 0.0000 0.0000 0.0000
# 4 0.0000 0.0000 0.0000 16.1771 0.0000 0.0000
# 5 0.0000 0.0000 0.0000 0.0000 28.6391 0.0000
# 6 0.0000 0.0000 0.0000 0.0000 0.0000 9.6167
#
#
#
# Elastic Compliance Matrix: (Units=1/GPa)
#
#
# Indices 1 2 3 4 5 6 
#
# 1 0.017306 -0.002075 -0.008204 0.000000 0.000000 0.000000
# 2 -0.002075 0.029934 0.002118 0.000000 0.000000 0.000000
# 3 -0.008204 0.002118 0.009776 0.000000 0.000000 0.000000
# 4 0.000000 0.000000 0.000000 0.061816 0.000000 0.000000
# 5 0.000000 0.000000 0.000000 0.000000 0.034917 0.000000
# 6 0.000000 0.000000 0.000000 0.000000 0.000000 0.103986
#
#
# Mechanical properties :
#
#
# Convention : Reuss Voigt Hill
#
# Bulk Modulus (GPa) = 24.57361 50.06519 37.31940
# Shear Modulus (GPa) = 17.38400 25.97201 21.67800
#
# Velocity S-wave (km/s) = 3.16174 3.86459 3.53070
# Velocity P-wave (km/s) = 5.24020 6.97877 6.17102
#
# Compressibility (1/GPa) = 0.04069407
#
# Stress axis : x y z
#
# Youngs Moduli (GPa) = 57.78375 33.40724 102.28971
#
# Poissons Ratio (x) = 0.06932 0.83919
# Poissons Ratio (y) = 0.11990 -0.21666
# Poissons Ratio (z) = 0.47406 -0.07076
#
# Static dielectric constant tensor:
#      x y z
#    x 1.580330 0.000000 0.000000 
#    y 0.000000 1.656870 0.000000 
#    z 0.000000 0.000000 1.636300 
# 
# From -- ./inp_files/24443.got.cif
#   From: 2010.05.17/outbox.cif.g08.bks.cpg/sg44_13_cif.got.tgz:24443.got - 2010.06.03 19:37:08.
