data_PCOD9373180
_publ_section_title
;
Structure prediction by ZEFSAII (Michael W. Deem and Ramdas Pophale) SiO2 
 PCOD9373180
Probable space group: I M M 2
;
_chemical_formula_sum "Si O2"
_cell_formula_units_Z 56
_cell_length_a 30.358201
_cell_length_b 7.827672
_cell_length_c 14.229249
_cell_angle_alpha 90.000000
_cell_angle_beta 90.000000
_cell_angle_gamma 90.000000
_cell_volume 3381.353925
_symmetry_space_group_name_H-M "I M M 2"
_symmetry_group_IT_number 44
_symmetry_cell_setting 'orthorhombic'
loop_
_space_group_symop_operation_xyz
x,y,z
-x,-y,z
-x,y,z
x,-y,z
1/2+x,1/2+y,1/2+z
1/2-x,1/2-y,1/2+z
1/2-x,1/2+y,1/2+z
1/2+x,1/2-y,1/2+z
loop_
_atom_site_type_symbol
_atom_site_label
_atom_site_fract_x
_atom_site_fract_y
_atom_site_fract_z
Si Si1 0.403519 0.797362 0.147830
Si Si2 0.815835 0.207138 0.329600
Si Si3 0.312864 0.299586 0.237963
Si Si4 0.726707 0.295286 0.430450
Si Si5 0.000000 0.291758 0.634188
Si Si6 0.500000 0.698806 0.916322
Si Si7 0.904624 0.207522 0.427572
Si Si8 0.726060 0.701285 0.638123
O O1 0.362525 0.722210 0.203793
O O2 0.452959 0.741118 0.177641
O O3 0.401285 0.000000 0.159711
O O4 0.399203 0.757950 0.036678
O O5 0.776859 0.259036 0.400086
O O6 0.862927 0.266017 0.367443
O O7 0.801754 0.271367 0.226236
O O8 0.816414 0.000000 0.327204
O O9 0.302243 0.500000 0.238212
O O10 0.302880 0.231828 0.343104
O O11 0.277321 0.218170 0.167378
O O12 0.721100 0.500000 0.435251
O O13 0.718030 0.224889 0.534601
O O14 0.000000 0.500000 0.625135
O O15 0.000000 0.213750 0.529726
O O16 0.500000 0.500000 0.888284
O O17 0.452149 0.771812 0.890339
O O18 0.905762 0.000000 0.425568
O O19 0.715960 0.500000 0.633737
#
# Coordination Sequence:
#
# PCOD9373180 Si02
#       8
#     8   8   8   8   4   4   8   8
#     4  10  18  28  42  60  82 108 134 162 195 235
#     4   9  17  27  41  60  80 103 134 166 197 232
#     4  10  19  29  41  60  82 105 133 165 199 236
#     4   9  18  30  42  56  78 106 134 163 197 234
#     4   8  16  28  40  56  79 104 132 162 193 230
#     4   8  14  24  38  56  81 108 132 158 195 238
#     4   9  16  26  40  60  84 109 134 163 197 235
#     4   9  17  30  44  58  78 107 138 167 197 232
#
# _framework density 16.561413000000002
#
# number of rings (size 3 to 8) (size 9 to 14) (size 15 to 20)
#    0.000    2.857    0.000    1.714    0.000    4.571 
#    0.000    0.000    0.000    0.000    0.000    1.000 
#    0.000    4.571    0.000    6.571    0.000    1.143 
#
# Total GULP energy -155915.102443 kJ/mol
# GULP energy per Si atom -5568.396516 kJ/mol
# Density = 1.652372 g / cm^3
# Si number density = 16.561413 Si / 1000 Ang^3
#
#
#
# Elastic Constant Matrix: (Units=GPa)
#
#
# Indices 1 2 3 4 5 6 
#
# 1 123.6977 -7.0969 47.6630 0.0000 0.0000 0.0000
# 2 -7.0969 19.1272 -0.5131 0.0000 0.0000 0.0000
# 3 47.6630 -0.5131 90.9491 0.0000 0.0000 0.0000
# 4 0.0000 0.0000 0.0000 8.8344 0.0000 0.0000
# 5 0.0000 0.0000 0.0000 0.0000 22.3791 0.0000
# 6 0.0000 0.0000 0.0000 0.0000 0.0000 7.8044
#
#
#
# Elastic Compliance Matrix: (Units=1/GPa)
#
#
# Indices 1 2 3 4 5 6 
#
# 1 0.010386 0.003708 -0.005422 0.000000 0.000000 0.000000
# 2 0.003708 0.053613 -0.001641 0.000000 0.000000 0.000000
# 3 -0.005422 -0.001641 0.013827 0.000000 0.000000 0.000000
# 4 0.000000 0.000000 0.000000 0.113194 0.000000 0.000000
# 5 0.000000 0.000000 0.000000 0.000000 0.044685 0.000000
# 6 0.000000 0.000000 0.000000 0.000000 0.000000 0.128133
#
#
# Mechanical properties :
#
#
# Convention : Reuss Voigt Hill
#
# Bulk Modulus (GPa) = 14.06124 34.87556 24.46840
# Shear Modulus (GPa) = 12.68218 20.71830 16.70024
#
# Velocity S-wave (km/s) = 2.77025 3.54078 3.17895
# Velocity P-wave (km/s) = 4.32911 6.14982 5.31796
#
# Compressibility (1/GPa) = 0.07111750
#
# Stress axis : x y z
#
# Youngs Moduli (GPa) = 96.28142 18.65207 72.32004
#
# Poissons Ratio (x) = -0.06917 0.39213
# Poissons Ratio (y) = -0.35703 0.11867
# Poissons Ratio (z) = 0.52205 0.03061
#
# Static dielectric constant tensor:
#      x y z
#    x 1.583230 0.000000 0.000000 
#    y 0.000000 1.600270 0.000000 
#    z 0.000000 0.000000 1.560960 
# 
# From -- ./inp_files/17044.got.cif
#   From: 2010.05.17/outbox.cif.g08.bks.cpg/sg44_9_cif.got.tgz:17044.got - 2010.06.03 19:37:08.
