data_PCOD9373753
_publ_section_title
;
Structure prediction by ZEFSAII (Michael W. Deem and Ramdas Pophale) SiO2 
 PCOD9373753
Probable space group: I M M 2
;
_chemical_formula_sum "Si O2"
_cell_formula_units_Z 64
_cell_length_a 24.291349
_cell_length_b 7.573496
_cell_length_c 19.813268
_cell_angle_alpha 90.000000
_cell_angle_beta 90.000000
_cell_angle_gamma 90.000000
_cell_volume 3645.055523
_symmetry_space_group_name_H-M "I M M 2"
_symmetry_group_IT_number 44
_symmetry_cell_setting 'orthorhombic'
loop_
_space_group_symop_operation_xyz
x,y,z
-x,-y,z
-x,y,z
x,-y,z
1/2+x,1/2+y,1/2+z
1/2-x,1/2-y,1/2+z
1/2-x,1/2+y,1/2+z
1/2+x,1/2-y,1/2+z
loop_
_atom_site_type_symbol
_atom_site_label
_atom_site_fract_x
_atom_site_fract_y
_atom_site_fract_z
Si Si1 0.938284 0.206652 0.723560
Si Si2 0.229316 0.212765 0.513431
Si Si3 0.762955 0.792856 0.867054
Si Si4 0.271027 0.214727 0.723478
Si Si5 0.337399 0.284429 0.138737
Si Si6 0.163160 0.284524 0.098154
Si Si7 0.389860 0.203305 0.367136
Si Si8 0.062642 0.283706 0.009458
O O1 0.894118 0.282117 0.670517
O O2 0.911679 0.214716 0.798030
O O3 0.000000 0.282363 0.723283
O O4 0.943085 0.000000 0.706837
O O5 0.230017 0.269975 0.436275
O O6 0.180754 0.271863 0.563728
O O7 0.286886 0.268203 0.548373
O O8 0.229188 0.000000 0.513683
O O9 0.731470 0.725286 0.800635
O O10 0.823798 0.711294 0.872520
O O11 0.773290 0.000000 0.856605
O O12 0.213178 0.263745 0.688132
O O13 0.319241 0.274340 0.672996
O O14 0.273552 0.000000 0.723479
O O15 0.338759 0.500000 0.138594
O O16 0.162710 0.500000 0.098452
O O17 0.105820 0.225699 0.066406
O O18 0.415949 0.276457 0.435997
O O19 0.407009 0.000000 0.363053
O O20 0.063970 0.500000 0.008727
O O21 0.000000 0.229248 0.020819
#
# Coordination Sequence:
#
# PCOD9373753 Si02
#       8
#     8   8   8   8   8   8   8   8
#     4  10  19  31  47  66  88 117 153 189 223 259
#     4   9  16  28  46  63  83 114 147 177 217 265
#     4  11  19  28  44  66  90 114 145 182 222 260
#     4   8  14  24  41  59  80 109 139 172 212 256
#     4   8  14  27  45  63  84 113 147 180 215 260
#     4   8  13  24  41  60  79 106 142 172 206 251
#     4  11  20  30  42  61  92 124 152 175 209 261
#     4   9  16  25  39  60  84 108 138 174 206 240
#
# _framework density 17.558032000000001
#
# number of rings (size 3 to 8) (size 9 to 14) (size 15 to 20)
#    0.000    2.750    2.500    2.625    0.000    0.750 
#    0.000    0.625    0.000    0.000    0.000    0.875 
#    0.000    1.000    0.000    0.000    0.000    0.000 
#
# Total GULP energy -178394.010369 kJ/mol
# GULP energy per Si atom -5574.812824 kJ/mol
# Density = 1.751807 g / cm^3
# Si number density = 17.558032 Si / 1000 Ang^3
#
#
#
# Elastic Constant Matrix: (Units=GPa)
#
#
# Indices 1 2 3 4 5 6 
#
# 1 121.8163 2.3925 87.6007 0.0000 0.0000 0.0000
# 2 2.3925 37.0383 -2.0848 0.0000 0.0000 0.0000
# 3 87.6007 -2.0848 158.6625 0.0000 0.0000 0.0000
# 4 0.0000 0.0000 0.0000 14.1159 0.0000 0.0000
# 5 0.0000 0.0000 0.0000 0.0000 19.5642 0.0000
# 6 0.0000 0.0000 0.0000 0.0000 0.0000 4.4722
#
#
#
# Elastic Compliance Matrix: (Units=1/GPa)
#
#
# Indices 1 2 3 4 5 6 
#
# 1 0.013678 -0.001310 -0.007569 0.000000 0.000000 0.000000
# 2 -0.001310 0.027144 0.001080 0.000000 0.000000 0.000000
# 3 -0.007569 0.001080 0.010496 0.000000 0.000000 0.000000
# 4 0.000000 0.000000 0.000000 0.070842 0.000000 0.000000
# 5 0.000000 0.000000 0.000000 0.000000 0.051114 0.000000
# 6 0.000000 0.000000 0.000000 0.000000 0.000000 0.223601
#
#
# Mechanical properties :
#
#
# Convention : Reuss Voigt Hill
#
# Bulk Modulus (GPa) = 27.99520 54.81490 41.40505
# Shear Modulus (GPa) = 11.78190 22.93773 17.35981
#
# Velocity S-wave (km/s) = 2.59323 3.61833 3.14779
# Velocity P-wave (km/s) = 4.99454 6.98165 6.06996
#
# Compressibility (1/GPa) = 0.03572041
#
# Stress axis : x y z
#
# Youngs Moduli (GPa) = 73.11094 36.83994 95.27547
#
# Poissons Ratio (x) = 0.04824 0.72114
# Poissons Ratio (y) = 0.09574 -0.10287
# Poissons Ratio (z) = 0.55338 -0.03978
#
# Static dielectric constant tensor:
#      x y z
#    x 1.584630 0.000000 0.000000 
#    y 0.000000 1.672860 0.000000 
#    z 0.000000 0.000000 1.608500 
# 
# From -- ./inp_files/20923.got.cif
#   From: 2010.05.17/outbox.cif.g08.bks.cpg/sg44_11_cif.got.tgz:20923.got - 2010.06.03 19:37:08.
