data_PCOD9373111
_publ_section_title
;
Structure prediction by ZEFSAII (Michael W. Deem and Ramdas Pophale) SiO2 
 PCOD9373111
Probable space group: I M M 2
;
_chemical_formula_sum "Si O2"
_cell_formula_units_Z 48
_cell_length_a 19.033435
_cell_length_b 7.994959
_cell_length_c 15.486545
_cell_angle_alpha 90.000000
_cell_angle_beta 90.000000
_cell_angle_gamma 90.000000
_cell_volume 2356.611285
_symmetry_space_group_name_H-M "I M M 2"
_symmetry_group_IT_number 44
_symmetry_cell_setting 'orthorhombic'
loop_
_space_group_symop_operation_xyz
x,y,z
-x,-y,z
-x,y,z
x,-y,z
1/2+x,1/2+y,1/2+z
1/2-x,1/2-y,1/2+z
1/2-x,1/2+y,1/2+z
1/2+x,1/2-y,1/2+z
loop_
_atom_site_type_symbol
_atom_site_label
_atom_site_fract_x
_atom_site_fract_y
_atom_site_fract_z
Si Si1 0.116789 0.798593 0.344090
Si Si2 0.732247 0.693113 0.389944
Si Si3 0.000000 0.795539 0.477179
Si Si4 0.652908 0.804506 0.224485
Si Si5 0.424125 0.702296 0.651181
Si Si6 0.500000 0.697340 0.170452
Si Si7 0.729015 0.294537 0.587393
O O1 0.191212 0.711390 0.348594
O O2 0.079935 0.764266 0.253337
O O3 0.068282 0.745154 0.423332
O O4 0.127805 0.000000 0.348215
O O5 0.711001 0.500000 0.396436
O O6 0.680546 0.777000 0.321458
O O7 0.739161 0.758528 0.487964
O O8 0.000000 0.729104 0.573616
O O9 0.000000 0.000000 0.476769
O O10 0.573716 0.740942 0.214334
O O11 0.710179 0.735408 0.154227
O O12 0.650348 0.000000 0.206970
O O13 0.500000 0.763995 0.617473
O O14 0.424202 0.500000 0.640523
O O15 0.349709 0.760918 0.613497
O O16 0.500000 0.500000 0.160400
O O17 0.729988 0.500000 0.590806
#
# Coordination Sequence:
#
# PCOD9373111 Si02
#       7
#     8   8   4   8   8   4   8
#     4  10  17  31  56  83 111 147 190 231 283 353
#     4  11  22  36  55  84 117 149 191 245 298 340
#     4   9  18  31  55  90 119 146 188 244 296 346
#     4  11  22  41  64  83 113 158 203 239 284 353
#     4   9  15  28  54  83 109 141 184 229 273 333
#     4  11  23  39  57  86 123 150 188 246 302 342
#     4   9  19  35  56  84 114 149 194 239 285 349
#
# _framework density 20.368230000000001
#
# number of rings (size 3 to 8) (size 9 to 14) (size 15 to 20)
#    0.000    2.000    2.500    2.250    0.000    0.000 
#    1.500    3.750    0.000    0.000    0.000    0.000 
#    0.000    0.000    0.000    0.000    0.000    0.000 
#
# Total GULP energy -133884.667755 kJ/mol
# GULP energy per Si atom -5578.527823 kJ/mol
# Density = 2.032187 g / cm^3
# Si number density = 20.368230 Si / 1000 Ang^3
#
#
#
# Elastic Constant Matrix: (Units=GPa)
#
#
# Indices 1 2 3 4 5 6 
#
# 1 158.3973 13.4664 41.8384 0.0000 0.0000 0.0000
# 2 13.4664 14.2960 7.6335 0.0000 0.0000 0.0000
# 3 41.8384 7.6335 71.5443 0.0000 0.0000 0.0000
# 4 0.0000 0.0000 0.0000 16.1842 0.0000 0.0000
# 5 0.0000 0.0000 0.0000 0.0000 8.9756 0.0000
# 6 0.0000 0.0000 0.0000 0.0000 0.0000 -24.7816
#
#
#
# Elastic Compliance Matrix: (Units=1/GPa)
#
#
# Indices 1 2 3 4 5 6 
#
# 1 0.007817 -0.005220 -0.004015 0.000000 0.000000 0.000000
# 2 -0.005220 0.077662 -0.005234 0.000000 0.000000 0.000000
# 3 -0.004015 -0.005234 0.016883 0.000000 0.000000 0.000000
# 4 0.000000 0.000000 0.000000 0.061788 0.000000 0.000000
# 5 0.000000 0.000000 0.000000 0.000000 0.111414 0.000000
# 6 0.000000 0.000000 0.000000 0.000000 0.000000 -0.040353
#
#
# Mechanical properties :
#
#
# Convention : Reuss Voigt Hill
#
# Bulk Modulus (GPa) = 13.61918 41.12379 27.37149
# Shear Modulus (GPa) = 17.32359 12.16227 14.74293
#
# Velocity S-wave (km/s) = 2.91953 2.44625 2.69331
# Velocity P-wave (km/s) = 4.25040 5.31158 4.81034
#
# Compressibility (1/GPa) = 0.07342585
#
# Stress axis : x y z
#
# Youngs Moduli (GPa) = 127.91926 12.87639 59.22963
#
# Poissons Ratio (x) = 0.06722 0.23778
# Poissons Ratio (y) = 0.66776 0.30998
# Poissons Ratio (z) = 0.51354 0.06739
#
# Static dielectric constant tensor:
#      x y z
#    x 1.745210 0.000000 0.000000 
#    y 0.000000 1.730230 0.000000 
#    z 0.000000 0.000000 1.718450 
# 
# From -- ./inp_files/16154.got.cif
#   From: 2010.05.17/outbox.cif.g08.bks.cpg/sg44_9_cif.got.tgz:16154.got - 2010.06.03 19:37:08.
