data_PCOD9373147
_publ_section_title
;
Structure prediction by ZEFSAII (Michael W. Deem and Ramdas Pophale) SiO2 
 PCOD9373147
Probable space group: I M M 2
;
_chemical_formula_sum "Si O2"
_cell_formula_units_Z 64
_cell_length_a 19.079278
_cell_length_b 8.775349
_cell_length_c 27.026534
_cell_angle_alpha 90.000000
_cell_angle_beta 90.000000
_cell_angle_gamma 90.000000
_cell_volume 4524.980241
_symmetry_space_group_name_H-M "I M M 2"
_symmetry_group_IT_number 44
_symmetry_cell_setting 'orthorhombic'
loop_
_space_group_symop_operation_xyz
x,y,z
-x,-y,z
-x,y,z
x,-y,z
1/2+x,1/2+y,1/2+z
1/2-x,1/2-y,1/2+z
1/2-x,1/2+y,1/2+z
1/2+x,1/2-y,1/2+z
loop_
_atom_site_type_symbol
_atom_site_label
_atom_site_fract_x
_atom_site_fract_y
_atom_site_fract_z
Si Si1 0.657362 0.682415 0.042130
Si Si2 0.707784 0.819292 0.197841
Si Si3 0.921066 0.684661 0.153015
Si Si4 0.418763 0.316515 0.145637
Si Si5 0.081577 0.681306 0.448480
Si Si6 0.666345 0.182735 0.751040
Si Si7 0.581706 0.682309 0.841764
Si Si8 0.285923 0.816466 0.602663
O O1 0.650504 0.500000 0.035799
O O2 0.612660 0.724439 0.091412
O O3 0.738612 0.717707 0.055079
O O4 0.628150 0.764010 0.994080
O O5 0.630095 0.755245 0.188006
O O6 0.756083 0.747651 0.240647
O O7 0.748169 0.766954 0.148056
O O8 0.706567 0.000000 0.202364
O O9 0.924910 0.500000 0.154046
O O10 0.883493 0.729732 0.204512
O O11 0.867522 0.723795 0.108524
O O12 0.000000 0.744075 0.148890
O O13 0.500000 0.272243 0.148862
O O14 0.413639 0.500000 0.149176
O O15 0.086616 0.500000 0.442310
O O16 0.100087 0.761347 0.396788
O O17 0.000000 0.719890 0.459285
O O18 0.630920 0.243817 0.800592
O O19 0.669377 0.000000 0.751240
O O20 0.500000 0.726466 0.832835
O O21 0.586316 0.500000 0.839243
O O22 0.279515 0.000000 0.610913
#
# Coordination Sequence:
#
# PCOD9373147 Si02
#       8
#     8   8   8   8   8   8   8   8
#     4   9  16  27  42  58  79 109 141 171 206 247
#     4  10  18  27  40  59  83 109 139 174 209 244
#     4   8  13  22  39  61  81 104 136 170 200 234
#     4   9  17  29  44  61  83 112 143 173 209 253
#     4  10  20  31  42  58  80 106 138 174 208 243
#     4  10  18  29  44  60  82 112 144 173 204 245
#     4  10  20  32  45  62  84 108 136 172 211 248
#     4   8  15  27  40  56  80 109 139 170 207 250
#
# _framework density 14.143708
#
# number of rings (size 3 to 8) (size 9 to 14) (size 15 to 20)
#    0.000    2.750    0.000    4.500    0.000    4.750 
#    0.000    0.000    0.000    3.375    0.000    0.000 
#    0.000    1.000    0.000    5.000    0.000    3.375 
#
# Total GULP energy -178183.290261 kJ/mol
# GULP energy per Si atom -5568.227821 kJ/mol
# Density = 1.411152 g / cm^3
# Si number density = 14.143708 Si / 1000 Ang^3
#
#
#
# Elastic Constant Matrix: (Units=GPa)
#
#
# Indices 1 2 3 4 5 6 
#
# 1 117.0768 32.9398 58.0907 0.0000 0.0000 0.0000
# 2 32.9398 36.0998 32.9858 0.0000 0.0000 0.0000
# 3 58.0907 32.9858 81.7010 0.0000 0.0000 0.0000
# 4 0.0000 0.0000 0.0000 22.4681 0.0000 0.0000
# 5 0.0000 0.0000 0.0000 0.0000 26.1251 0.0000
# 6 0.0000 0.0000 0.0000 0.0000 0.0000 15.2522
#
#
#
# Elastic Compliance Matrix: (Units=1/GPa)
#
#
# Indices 1 2 3 4 5 6 
#
# 1 0.013923 -0.005797 -0.007559 0.000000 0.000000 0.000000
# 2 -0.005797 0.046308 -0.014574 0.000000 0.000000 0.000000
# 3 -0.007559 -0.014574 0.023498 0.000000 0.000000 0.000000
# 4 0.000000 0.000000 0.000000 0.044508 0.000000 0.000000
# 5 0.000000 0.000000 0.000000 0.000000 0.038277 0.000000
# 6 0.000000 0.000000 0.000000 0.000000 0.000000 0.065564
#
#
# Mechanical properties :
#
#
# Convention : Reuss Voigt Hill
#
# Bulk Modulus (GPa) = 35.88297 53.65670 44.76983
# Shear Modulus (GPa) = 16.82203 20.15983 18.49093
#
# Velocity S-wave (km/s) = 3.45246 3.77949 3.61967
# Velocity P-wave (km/s) = 6.42791 7.55415 7.01367
#
# Compressibility (1/GPa) = 0.02786837
#
# Stress axis : x y z
#
# Youngs Moduli (GPa) = 71.82326 21.59451 42.55608
#
# Poissons Ratio (x) = 0.12519 0.32168
# Poissons Ratio (y) = 0.41639 0.62022
# Poissons Ratio (z) = 0.54290 0.31472
#
# Static dielectric constant tensor:
#      x y z
#    x 1.492990 0.000000 0.000000 
#    y 0.000000 1.470450 0.000000 
#    z 0.000000 0.000000 1.442520 
# 
# From -- ./inp_files/25873.got.cif
#   From: 2010.05.17/outbox.cif.g08.bks.cpg/sg44_13_cif.got.tgz:25873.got - 2010.06.03 19:37:08.
