data_PCOD9373761
_publ_section_title
;
Structure prediction by ZEFSAII (Michael W. Deem and Ramdas Pophale) SiO2 
 PCOD9373761
Probable space group: I M M 2
;
_chemical_formula_sum "Si O2"
_cell_formula_units_Z 64
_cell_length_a 16.992088
_cell_length_b 25.557172
_cell_length_c 5.901424
_cell_angle_alpha 90.000000
_cell_angle_beta 90.000000
_cell_angle_gamma 90.000000
_cell_volume 2562.809722
_symmetry_space_group_name_H-M "I M M 2"
_symmetry_group_IT_number 44
_symmetry_cell_setting 'orthorhombic'
loop_
_space_group_symop_operation_xyz
x,y,z
-x,-y,z
-x,y,z
x,-y,z
1/2+x,1/2+y,1/2+z
1/2-x,1/2-y,1/2+z
1/2-x,1/2+y,1/2+z
1/2+x,1/2-y,1/2+z
loop_
_atom_site_type_symbol
_atom_site_label
_atom_site_fract_x
_atom_site_fract_y
_atom_site_fract_z
Si Si1 0.632159 0.935957 0.932310
Si Si2 0.807445 0.926452 0.431290
Si Si3 0.844617 0.725950 0.519255
Si Si4 0.582790 0.203395 0.614944
Si Si5 0.320149 0.582875 0.428172
Si Si6 0.243314 0.317548 0.875456
Si Si7 0.618932 0.940415 0.432591
Si Si8 0.089324 0.808631 0.880625
O O1 0.725294 0.922067 0.924418
O O2 0.597708 0.918808 0.684942
O O3 0.627621 0.000000 0.933077
O O4 0.598966 0.918758 0.180272
O O5 0.842900 0.940710 0.678011
O O6 0.802222 0.863137 0.432559
O O7 0.715072 0.941901 0.430102
O O8 0.841711 0.939583 0.180873
O O9 0.911913 0.698058 0.381243
O O10 0.793287 0.680673 0.628994
O O11 0.781706 0.760734 0.385223
O O12 0.880629 0.768406 0.689279
O O13 0.500000 0.186287 0.512317
O O14 0.663983 0.180509 0.522933
O O15 0.586851 0.266904 0.585711
O O16 0.356965 0.641248 0.421829
O O17 0.590482 0.000000 0.433051
O O18 0.000000 0.825829 0.832595
#
# Coordination Sequence:
#
# PCOD9373761 Si02
#       8
#     8   8   8   8   8   8   8   8
#     4   8  14  25  42  63  90 124 157 192 242 297
#     4  10  20  30  49  74 100 125 162 209 247 294
#     4  11  20  33  50  70  92 129 168 209 252 295
#     4  10  22  37  50  68  96 132 168 207 253 302
#     4  10  19  31  47  71  98 125 164 208 250 295
#     4  11  21  30  51  72  96 127 167 209 252 293
#     4   8  14  26  42  65  95 126 152 188 246 299
#     4  10  21  34  48  66  94 128 170 214 255 298
#
# _framework density 24.972591999999999
#
# number of rings (size 3 to 8) (size 9 to 14) (size 15 to 20)
#    0.000    2.250    2.500    1.125    3.500    0.500 
#    0.000    0.000    0.000    0.375    0.000    0.000 
#    0.000   10.500    0.000    0.250    0.000    1.500 
#
# Total GULP energy -178310.355440 kJ/mol
# GULP energy per Si atom -5572.198607 kJ/mol
# Density = 2.491575 g / cm^3
# Si number density = 24.972592 Si / 1000 Ang^3
#
#
#
# Elastic Constant Matrix: (Units=GPa)
#
#
# Indices 1 2 3 4 5 6 
#
# 1 68.2291 3.2234 35.8663 0.0000 0.0000 0.0000
# 2 3.2234 89.6795 26.2293 0.0000 0.0000 0.0000
# 3 35.8663 26.2293 220.4972 0.0001 -0.0001 0.0000
# 4 0.0000 0.0000 0.0001 12.5113 0.0000 0.0000
# 5 0.0000 0.0000 -0.0001 0.0000 1.5604 0.0000
# 6 0.0000 0.0000 0.0000 0.0000 0.0000 -22.3477
#
#
#
# Elastic Compliance Matrix: (Units=1/GPa)
#
#
# Indices 1 2 3 4 5 6 
#
# 1 0.016030 0.000193 -0.002630 0.000000 0.000000 0.000000
# 2 0.000193 0.011555 -0.001406 0.000000 0.000000 0.000000
# 3 -0.002630 -0.001406 0.005130 0.000000 0.000000 0.000000
# 4 0.000000 0.000000 0.000000 0.079928 0.000000 0.000000
# 5 0.000000 0.000000 0.000000 0.000000 0.640882 -0.000001
# 6 0.000000 0.000000 0.000000 0.000000 -0.000001 -0.044747
#
#
# Mechanical properties :
#
#
# Convention : Reuss Voigt Hill
#
# Bulk Modulus (GPa) = 39.95355 56.56042 48.25698
# Shear Modulus (GPa) = 6.89838 19.21724 13.05781
#
# Velocity S-wave (km/s) = 1.66384 2.77706 2.28915
# Velocity P-wave (km/s) = 4.44127 5.74290 5.13351
#
# Compressibility (1/GPa) = 0.02502907
#
# Stress axis : x y z
#
# Youngs Moduli (GPa) = 62.38252 86.54193 194.91948
#
# Poissons Ratio (x) = -0.01672 0.51273
# Poissons Ratio (y) = -0.01205 0.27405
# Poissons Ratio (z) = 0.16409 0.12167
#
# Static dielectric constant tensor:
#      x y z
#    x 1.962880 0.000000 0.000000 
#    y 0.000000 2.010520 0.000000 
#    z 0.000000 0.000000 2.204390 
# 
# From -- ./inp_files/2180.got.cif
#   From: 2010.05.17/outbox.cif.g08.bks.cpg/sg44_2_cif.got.tgz:2180.got - 2010.06.03 19:37:08.
