data_PCOD9373606
_publ_section_title
;
Structure prediction by ZEFSAII (Michael W. Deem and Ramdas Pophale) SiO2 
 PCOD9373606
Probable space group: I M M 2
;
_chemical_formula_sum "Si O2"
_cell_formula_units_Z 56
_cell_length_a 7.649425
_cell_length_b 19.327707
_cell_length_c 21.460940
_cell_angle_alpha 90.000000
_cell_angle_beta 90.000000
_cell_angle_gamma 90.000000
_cell_volume 3172.910811
_symmetry_space_group_name_H-M "I M M 2"
_symmetry_group_IT_number 44
_symmetry_cell_setting 'orthorhombic'
loop_
_space_group_symop_operation_xyz
x,y,z
-x,-y,z
-x,y,z
x,-y,z
1/2+x,1/2+y,1/2+z
1/2-x,1/2-y,1/2+z
1/2-x,1/2+y,1/2+z
1/2+x,1/2-y,1/2+z
loop_
_atom_site_type_symbol
_atom_site_label
_atom_site_fract_x
_atom_site_fract_y
_atom_site_fract_z
Si Si1 0.708274 0.651775 0.319220
Si Si2 0.285462 0.079128 0.202446
Si Si3 0.210481 0.652457 0.574214
Si Si4 0.291859 0.781521 0.644582
Si Si5 0.699210 0.791925 0.271211
Si Si6 0.293602 0.923174 0.691036
Si Si7 0.210742 0.421000 0.449036
O O1 0.500000 0.656279 0.310957
O O2 0.779286 0.730558 0.312792
O O3 0.774038 0.605240 0.261650
O O4 0.746162 0.617282 0.384982
O O5 0.500000 0.080979 0.202930
O O6 0.229988 0.108534 0.134759
O O7 0.223523 0.132862 0.255647
O O8 0.231753 0.000000 0.210713
O O9 0.259806 0.732275 0.585963
O O10 0.275195 0.619748 0.509978
O O11 0.000000 0.648763 0.573946
O O12 0.500000 0.781291 0.657271
O O13 0.200023 0.743620 0.702693
O O14 0.229099 0.860817 0.646726
O O15 0.500000 0.803151 0.292626
O O16 0.500000 0.928902 0.678959
O O17 0.216625 0.000000 0.684748
O O18 0.275275 0.500000 0.448232
O O19 0.000000 0.423742 0.453323
#
# Coordination Sequence:
#
# PCOD9373606 Si02
#       7
#     8   8   8   8   8   8   8
#     4  10  19  29  41  60  87 115 142 174 211 246
#     4   8  12  21  41  64  80  98 129 167 202 237
#     4   9  17  29  43  59  82 110 138 168 203 245
#     4   9  16  26  42  62  82 106 136 169 205 244
#     4   8  15  27  41  58  82 110 137 167 205 248
#     4   9  17  29  44  62  85 112 140 170 206 249
#     4  10  20  32  45  61  82 112 148 177 201 238
#
# _framework density 17.649408999999999
#
# number of rings (size 3 to 8) (size 9 to 14) (size 15 to 20)
#    0.000    3.000    0.000    2.571    0.000    5.714 
#    0.000    0.000    0.000   10.286    0.000    1.000 
#    0.000    5.714    0.000    0.000    0.000    0.000 
#
# Total GULP energy -155889.414608 kJ/mol
# GULP energy per Si atom -5567.479093 kJ/mol
# Density = 1.760924 g / cm^3
# Si number density = 17.649409 Si / 1000 Ang^3
#
#
#
# Elastic Constant Matrix: (Units=GPa)
#
#
# Indices 1 2 3 4 5 6 
#
# 1 37.6023 1.5131 -3.5502 0.0000 0.0000 0.0000
# 2 1.5131 203.3082 74.0618 0.0000 0.0000 0.0000
# 3 -3.5502 74.0618 76.4480 0.0000 0.0000 0.0000
# 4 0.0000 0.0000 0.0000 26.8334 0.0000 0.0000
# 5 0.0000 0.0000 0.0000 0.0000 4.0338 0.0000
# 6 0.0000 0.0000 0.0000 0.0000 0.0000 13.1098
#
#
#
# Elastic Compliance Matrix: (Units=1/GPa)
#
#
# Indices 1 2 3 4 5 6 
#
# 1 0.026845 -0.001011 0.002226 0.000000 0.000000 0.000000
# 2 -0.001011 0.007639 -0.007448 0.000000 0.000000 0.000000
# 3 0.002226 -0.007448 0.020399 0.000000 0.000000 0.000000
# 4 0.000000 0.000000 0.000000 0.037267 0.000000 0.000000
# 5 0.000000 0.000000 0.000000 0.000000 0.247903 0.000000
# 6 0.000000 0.000000 0.000000 0.000000 0.000000 0.076279
#
#
# Mechanical properties :
#
#
# Convention : Reuss Voigt Hill
#
# Bulk Modulus (GPa) = 23.57472 51.26755 37.42113
# Shear Modulus (GPa) = 11.28827 25.15098 18.21963
#
# Velocity S-wave (km/s) = 2.53174 3.77906 3.21644
# Velocity P-wave (km/s) = 4.68322 6.93920 5.91967
#
# Compressibility (1/GPa) = 0.04241832
#
# Stress axis : x y z
#
# Youngs Moduli (GPa) = 37.25103 130.90283 49.02098
#
# Poissons Ratio (x) = 0.13229 -0.10911
# Poissons Ratio (y) = 0.03764 0.36510
# Poissons Ratio (z) = -0.08291 0.97493
#
# Static dielectric constant tensor:
#      x y z
#    x 1.672680 0.000000 0.000000 
#    y 0.000000 1.669410 0.000000 
#    z 0.000000 0.000000 1.568060 
# 
# From -- ./inp_files/23212.got.cif
#   From: 2010.05.17/outbox.cif.g08.bks.cpg/sg44_12_cif.got.tgz:23212.got - 2010.06.03 19:37:08.
