data_PCOD9373201
_publ_section_title
;
Structure prediction by ZEFSAII (Michael W. Deem and Ramdas Pophale) SiO2 
 PCOD9373201
Probable space group: I M M 2
;
_chemical_formula_sum "Si O2"
_cell_formula_units_Z 56
_cell_length_a 8.423369
_cell_length_b 30.391670
_cell_length_c 14.203467
_cell_angle_alpha 90.000000
_cell_angle_beta 90.000000
_cell_angle_gamma 90.000000
_cell_volume 3636.091116
_symmetry_space_group_name_H-M "I M M 2"
_symmetry_group_IT_number 44
_symmetry_cell_setting 'orthorhombic'
loop_
_space_group_symop_operation_xyz
x,y,z
-x,-y,z
-x,y,z
x,-y,z
1/2+x,1/2+y,1/2+z
1/2-x,1/2-y,1/2+z
1/2-x,1/2+y,1/2+z
1/2+x,1/2-y,1/2+z
loop_
_atom_site_type_symbol
_atom_site_label
_atom_site_fract_x
_atom_site_fract_y
_atom_site_fract_z
Si Si1 0.192941 0.404247 0.266300
Si Si2 0.689354 0.403095 0.051244
Si Si3 0.308403 0.728773 0.765533
Si Si4 0.189480 0.318480 0.944231
Si Si5 0.808271 0.230354 0.051751
Si Si6 0.691620 0.182861 0.873101
Si Si7 0.691243 0.500000 0.063147
Si Si8 0.312617 0.000000 0.774560
O O1 0.247972 0.398561 0.158374
O O2 0.245816 0.363182 0.329169
O O3 0.250113 0.451997 0.304145
O O4 0.000000 0.404714 0.265194
O O5 0.500000 0.399425 0.053635
O O6 0.729700 0.452913 0.017434
O O7 0.755729 0.364547 0.986594
O O8 0.500000 0.728434 0.765105
O O9 0.250826 0.692690 0.840021
O O10 0.252794 0.723312 0.658452
O O11 0.257290 0.776281 0.806854
O O12 0.000000 0.317407 0.943341
O O13 0.244977 0.277892 0.010994
O O14 0.000000 0.230608 0.052383
O O15 0.751306 0.194233 0.977154
O O16 0.500000 0.182635 0.874143
O O17 0.500000 0.500000 0.081350
O O18 0.782311 0.500000 0.162394
O O19 0.500000 0.000000 0.794852
#
# Coordination Sequence:
#
# PCOD9373201 Si02
#       8
#     8   8   8   8   8   8   4   4
#     4   9  16  27  42  62  88 116 143 174 209 247
#     4  10  18  28  43  63  87 115 143 172 206 248
#     4   9  17  30  44  59  82 112 141 172 209 249
#     4  10  19  30  44  64  87 111 140 174 210 250
#     4   9  18  31  45  61  85 113 142 176 211 246
#     4   9  17  28  43  62  85 111 140 172 210 253
#     4   8  16  28  40  58  85 112 139 170 205 244
#     4   8  14  24  40  60  83 112 143 170 205 250
#
# _framework density 15.401154999999999
#
# number of rings (size 3 to 8) (size 9 to 14) (size 15 to 20)
#    0.000    2.857    0.000    1.714    0.000    4.571 
#    0.000    2.857    0.000    0.000    0.000    1.000 
#    0.000    4.571    0.000    0.000    0.000    0.000 
#
# Total GULP energy -155911.987720 kJ/mol
# GULP energy per Si atom -5568.285276 kJ/mol
# Density = 1.536610 g / cm^3
# Si number density = 15.401155 Si / 1000 Ang^3
#
#
#
# Elastic Constant Matrix: (Units=GPa)
#
#
# Indices 1 2 3 4 5 6 
#
# 1 8.4532 17.2342 16.5606 0.0000 0.0000 0.0000
# 2 17.2342 141.9726 77.3630 0.0000 0.0000 0.0000
# 3 16.5606 77.3630 118.9189 0.0000 0.0000 0.0000
# 4 0.0000 0.0000 0.0000 25.6604 0.0000 0.0000
# 5 0.0000 0.0000 0.0000 0.0000 21.7579 0.0000
# 6 0.0000 0.0000 0.0000 0.0000 0.0000 16.1242
#
#
#
# Elastic Compliance Matrix: (Units=1/GPa)
#
#
# Indices 1 2 3 4 5 6 
#
# 1 0.175701 -0.012387 -0.016410 0.000000 0.000000 0.000000
# 2 -0.012387 0.011785 -0.005942 0.000000 0.000000 0.000000
# 3 -0.016410 -0.005942 0.014560 0.000000 0.000000 0.000000
# 4 0.000000 0.000000 0.000000 0.038971 0.000000 0.000000
# 5 0.000000 0.000000 0.000000 0.000000 0.045960 0.000000
# 6 0.000000 0.000000 0.000000 0.000000 0.000000 0.062019
#
#
# Mechanical properties :
#
#
# Convention : Reuss Voigt Hill
#
# Bulk Modulus (GPa) = 7.54324 54.62892 31.08608
# Shear Modulus (GPa) = 10.80704 23.25429 17.03066
#
# Velocity S-wave (km/s) = 2.65184 3.88997 3.32897
# Velocity P-wave (km/s) = 3.77953 7.46481 5.91643
#
# Compressibility (1/GPa) = 0.13256905
#
# Stress axis : x y z
#
# Youngs Moduli (GPa) = 5.69150 84.85340 68.68226
#
# Poissons Ratio (x) = 1.05104 1.12706
# Poissons Ratio (y) = 0.07050 0.40810
# Poissons Ratio (z) = 0.09340 0.50419
#
# Static dielectric constant tensor:
#      x y z
#    x 1.529890 0.000000 0.000000 
#    y 0.000000 1.544340 0.000000 
#    z 0.000000 0.000000 1.482750 
# 
# From -- ./inp_files/17045.got.cif
#   From: 2010.05.17/outbox.cif.g08.bks.cpg/sg44_9_cif.got.tgz:17045.got - 2010.06.03 19:37:08.
