data_PCOD9373557
_publ_section_title
;
Structure prediction by ZEFSAII (Michael W. Deem and Ramdas Pophale) SiO2 
 PCOD9373557
Probable space group: I M M 2
;
_chemical_formula_sum "Si O2"
_cell_formula_units_Z 64
_cell_length_a 14.646159
_cell_length_b 23.111341
_cell_length_c 9.125284
_cell_angle_alpha 90.000000
_cell_angle_beta 90.000000
_cell_angle_gamma 90.000000
_cell_volume 3088.839054
_symmetry_space_group_name_H-M "I M M 2"
_symmetry_group_IT_number 44
_symmetry_cell_setting 'orthorhombic'
loop_
_space_group_symop_operation_xyz
x,y,z
-x,-y,z
-x,y,z
x,-y,z
1/2+x,1/2+y,1/2+z
1/2-x,1/2-y,1/2+z
1/2-x,1/2+y,1/2+z
1/2+x,1/2-y,1/2+z
loop_
_atom_site_type_symbol
_atom_site_label
_atom_site_fract_x
_atom_site_fract_y
_atom_site_fract_z
Si Si1 0.810064 0.378884 0.233720
Si Si2 0.600776 0.933142 0.492084
Si Si3 0.761606 0.433112 0.754188
Si Si4 0.357647 0.763883 0.215458
Si Si5 0.669949 0.236514 0.561687
Si Si6 0.099712 0.867447 0.761914
Si Si7 0.599910 0.640194 0.612683
Si Si8 0.603103 0.878768 0.045229
O O1 0.845930 0.322729 0.146180
O O2 0.700922 0.387712 0.211795
O O3 0.835765 0.368695 0.401529
O O4 0.869776 0.428854 0.160596
O O5 0.500000 0.906878 0.465263
O O6 0.687776 0.910844 0.400598
O O7 0.594819 0.000000 0.447988
O O8 0.731893 0.500000 0.767858
O O9 0.679937 0.391921 0.700226
O O10 0.842940 0.426854 0.636583
O O11 0.336100 0.772060 0.387634
O O12 0.269469 0.755731 0.114184
O O13 0.403248 0.700466 0.217424
O O14 0.401267 0.820972 0.145978
O O15 0.608666 0.290231 0.614034
O O16 0.000000 0.892684 0.716197
O O17 0.104975 0.873534 0.938752
O O18 0.500000 0.622663 0.667660
O O19 0.500000 0.894888 0.006285
#
# Coordination Sequence:
#
# PCOD9373557 Si02
#       8
#     8   8   8   8   8   8   8   8
#     4  11  22  38  62  91 127 165 204 253 305 369
#     4  10  23  44  67  90 121 162 207 257 319 381
#     4  11  23  42  64  87 116 155 208 265 319 372
#     4  10  18  35  57  88 123 164 204 245 302 361
#     4  10  20  34  61  88 125 164 203 248 303 369
#     4   9  18  35  59  88 124 165 201 240 298 361
#     4  10  20  38  62  90 123 159 203 251 304 366
#     4  12  23  37  58  89 125 156 203 257 309 372
#
# _framework density 20.719759
#
# number of rings (size 3 to 8) (size 9 to 14) (size 15 to 20)
#    0.000    1.625    2.500    3.375    0.000    3.000 
#    0.000    0.625    0.000    1.125    0.000    0.000 
#    0.000    0.000    0.000    0.000    0.000    0.000 
#
# Total GULP energy -178350.582041 kJ/mol
# GULP energy per Si atom -5573.455689 kJ/mol
# Density = 2.067260 g / cm^3
# Si number density = 20.719759 Si / 1000 Ang^3
#
#
#
# Elastic Constant Matrix: (Units=GPa)
#
#
# Indices 1 2 3 4 5 6 
#
# 1 150.9882 24.0578 32.3088 -0.0001 0.0000 0.0000
# 2 24.0578 48.5461 15.2345 0.0000 0.0000 0.0000
# 3 32.3088 15.2345 83.2025 0.0004 0.0001 0.0000
# 4 -0.0001 0.0000 0.0004 25.4558 0.0000 0.0000
# 5 0.0000 0.0000 0.0001 0.0000 17.6396 0.0000
# 6 0.0000 0.0000 0.0000 0.0000 0.0000 9.2072
#
#
#
# Elastic Compliance Matrix: (Units=1/GPa)
#
#
# Indices 1 2 3 4 5 6 
#
# 1 0.007619 -0.003021 -0.002405 0.000000 0.000000 0.000000
# 2 -0.003021 0.023052 -0.003048 0.000000 0.000000 0.000000
# 3 -0.002405 -0.003048 0.013511 0.000000 0.000000 0.000000
# 4 0.000000 0.000000 0.000000 0.039284 0.000000 0.000000
# 5 0.000000 0.000000 0.000000 0.000000 0.056691 0.000000
# 6 0.000000 0.000000 0.000000 0.000000 0.000000 0.108611
#
#
# Mechanical properties :
#
#
# Convention : Reuss Voigt Hill
#
# Bulk Modulus (GPa) = 36.71870 47.32658 42.02264
# Shear Modulus (GPa) = 18.19539 24.53621 21.36580
#
# Velocity S-wave (km/s) = 2.96660 3.44494 3.21468
# Velocity P-wave (km/s) = 5.43087 6.22209 5.83990
#
# Compressibility (1/GPa) = 0.02723408
#
# Stress axis : x y z
#
# Youngs Moduli (GPa) = 131.24909 43.37926 74.01360
#
# Poissons Ratio (x) = 0.13104 0.17804
# Poissons Ratio (y) = 0.39649 0.22559
# Poissons Ratio (z) = 0.31572 0.13222
#
# Static dielectric constant tensor:
#      x y z
#    x 1.793990 0.000000 0.000000 
#    y 0.000000 1.782140 0.000000 
#    z 0.000000 0.000000 1.745660 
# 
# From -- ./inp_files/7565.got.cif
#   From: 2010.05.17/outbox.cif.g08.bks.cpg/sg44_4_cif.got.tgz:7565.got - 2010.06.03 19:37:08.
