data_PCOD9373471
_publ_section_title
;
Structure prediction by ZEFSAII (Michael W. Deem and Ramdas Pophale) SiO2 
 PCOD9373471
Probable space group: I M M 2
;
_chemical_formula_sum "Si O2"
_cell_formula_units_Z 48
_cell_length_a 7.418470
_cell_length_b 14.379469
_cell_length_c 19.266519
_cell_angle_alpha 90.000000
_cell_angle_beta 90.000000
_cell_angle_gamma 90.000000
_cell_volume 2055.230085
_symmetry_space_group_name_H-M "I M M 2"
_symmetry_group_IT_number 44
_symmetry_cell_setting 'orthorhombic'
loop_
_space_group_symop_operation_xyz
x,y,z
-x,-y,z
-x,y,z
x,-y,z
1/2+x,1/2+y,1/2+z
1/2-x,1/2-y,1/2+z
1/2-x,1/2+y,1/2+z
1/2+x,1/2-y,1/2+z
loop_
_atom_site_type_symbol
_atom_site_label
_atom_site_fract_x
_atom_site_fract_y
_atom_site_fract_z
Si Si1 0.284484 0.605493 0.657340
Si Si2 0.284802 0.399283 0.314135
Si Si3 0.283784 0.804355 0.306332
Si Si4 0.214487 0.899166 0.648348
Si Si5 0.200928 0.242970 0.047180
Si Si6 0.279590 0.897380 0.443213
O O1 0.500000 0.602110 0.648212
O O2 0.217824 0.500000 0.666074
O O3 0.255704 0.664134 0.727927
O O4 0.213318 0.655769 0.587364
O O5 0.500000 0.400297 0.328598
O O6 0.214403 0.500000 0.339692
O O7 0.214130 0.296811 0.331692
O O8 0.261886 0.398674 0.230747
O O9 0.500000 0.797084 0.308776
O O10 0.229425 0.879708 0.363346
O O11 0.310811 0.816677 0.610118
O O12 0.000000 0.889873 0.636033
O O13 0.275389 0.000000 0.622797
O O14 0.000000 0.215869 0.022381
O O15 0.284141 0.308775 0.988018
O O16 0.500000 0.896928 0.448530
O O17 0.218178 0.000000 0.465315
#
# Coordination Sequence:
#
# PCOD9373471 Si02
#       6
#     8   8   8   8   8   8
#     4  10  21  35  50  71 100 131 165 208 253 295
#     4   8  14  25  43  70 100 123 149 195 246 281
#     4  10  18  32  55  77  99 130 168 205 244 294
#     4   9  16  27  45  70  99 125 153 197 245 283
#     4  10  19  32  49  69  97 132 166 200 244 296
#     4   9  18  31  48  74 103 128 161 207 250 289
#
# _framework density 23.355048
#
# number of rings (size 3 to 8) (size 9 to 14) (size 15 to 20)
#    0.000    2.667    1.667    2.000    0.000    2.000 
#    0.000    1.667    0.000    8.500    0.000    0.000 
#    0.000    2.667    0.000    0.000    0.000    0.000 
#
# Total GULP energy -133781.602472 kJ/mol
# GULP energy per Si atom -5574.233436 kJ/mol
# Density = 2.330189 g / cm^3
# Si number density = 23.355048 Si / 1000 Ang^3
#
#
#
# Elastic Constant Matrix: (Units=GPa)
#
#
# Indices 1 2 3 4 5 6 
#
# 1 67.6128 -0.5970 1.7290 0.0000 0.0000 0.0000
# 2 -0.5970 158.5400 41.7753 0.0000 0.0000 0.0000
# 3 1.7290 41.7753 84.0981 0.0000 0.0000 0.0000
# 4 0.0000 0.0000 0.0000 50.4247 0.0000 0.0000
# 5 0.0000 0.0000 0.0000 0.0000 5.7826 0.0000
# 6 0.0000 0.0000 0.0000 0.0000 0.0000 2.3098
#
#
#
# Elastic Compliance Matrix: (Units=1/GPa)
#
#
# Indices 1 2 3 4 5 6 
#
# 1 0.014801 0.000156 -0.000382 0.000000 0.000000 0.000000
# 2 0.000156 0.007259 -0.003609 0.000000 0.000000 0.000000
# 3 -0.000382 -0.003609 0.013692 0.000000 0.000000 0.000000
# 4 0.000000 0.000000 0.000000 0.019832 0.000000 0.000000
# 5 0.000000 0.000000 0.000000 0.000000 0.172932 0.000000
# 6 0.000000 0.000000 0.000000 0.000000 0.000000 0.432940
#
#
# Mechanical properties :
#
#
# Convention : Reuss Voigt Hill
#
# Bulk Modulus (GPa) = 35.60946 44.00730 39.80838
# Shear Modulus (GPa) = 7.36935 29.52632 18.44784
#
# Velocity S-wave (km/s) = 1.77826 3.55947 2.81354
# Velocity P-wave (km/s) = 4.41547 5.98137 5.25705
#
# Compressibility (1/GPa) = 0.02808242
#
# Stress axis : x y z
#
# Youngs Moduli (GPa) = 67.56188 137.75698 73.03770
#
# Poissons Ratio (x) = -0.02154 0.02790
# Poissons Ratio (y) = -0.01057 0.26361
# Poissons Ratio (z) = 0.02581 0.49719
#
# Static dielectric constant tensor:
#      x y z
#    x 1.944840 0.000000 0.000000 
#    y 0.000000 1.808980 0.000000 
#    z 0.000000 0.000000 1.855000 
# 
# From -- ./inp_files/20320.got.cif
#   From: 2010.05.17/outbox.cif.g08.bks.cpg/sg44_11_cif.got.tgz:20320.got - 2010.06.03 19:37:08.
