data_PCOD9373610
_publ_section_title
;
Structure prediction by ZEFSAII (Michael W. Deem and Ramdas Pophale) SiO2 
 PCOD9373610
Probable space group: I M M 2
;
_chemical_formula_sum "Si O2"
_cell_formula_units_Z 64
_cell_length_a 18.727223
_cell_length_b 9.068815
_cell_length_c 27.034341
_cell_angle_alpha 90.000000
_cell_angle_beta 90.000000
_cell_angle_gamma 90.000000
_cell_volume 4591.342723
_symmetry_space_group_name_H-M "I M M 2"
_symmetry_group_IT_number 44
_symmetry_cell_setting 'orthorhombic'
loop_
_space_group_symop_operation_xyz
x,y,z
-x,-y,z
-x,y,z
x,-y,z
1/2+x,1/2+y,1/2+z
1/2-x,1/2-y,1/2+z
1/2-x,1/2+y,1/2+z
1/2+x,1/2-y,1/2+z
loop_
_atom_site_type_symbol
_atom_site_label
_atom_site_fract_x
_atom_site_fract_y
_atom_site_fract_z
Si Si1 0.843863 0.177928 0.654150
Si Si2 0.583645 0.676311 0.955993
Si Si3 0.703845 0.169293 0.705674
Si Si4 0.703621 0.329836 0.307379
Si Si5 0.669150 0.322514 0.857733
Si Si6 0.415942 0.824642 0.249466
Si Si7 0.418602 0.322872 0.759348
Si Si8 0.085056 0.674650 0.560380
O O1 0.761087 0.219203 0.664788
O O2 0.890275 0.247257 0.698726
O O3 0.872529 0.240040 0.602803
O O4 0.848717 0.000000 0.656491
O O5 0.500000 0.704520 0.944211
O O6 0.590546 0.500000 0.964183
O O7 0.632562 0.717479 0.909487
O O8 0.601711 0.761949 0.006113
O O9 0.750280 0.172714 0.756394
O O10 0.633819 0.262592 0.717089
O O11 0.683958 0.000000 0.696055
O O12 0.688971 0.500000 0.319397
O O13 0.755132 0.253512 0.347150
O O14 0.632096 0.242472 0.293351
O O15 0.677599 0.500000 0.856173
O O16 0.616077 0.281680 0.812406
O O17 0.500000 0.799734 0.256717
O O18 0.403150 0.000000 0.245504
O O19 0.500000 0.270091 0.755471
O O20 0.418946 0.500000 0.757421
O O21 0.098809 0.500000 0.562935
O O22 0.000000 0.697637 0.568404
#
# Coordination Sequence:
#
# PCOD9373610 Si02
#       8
#     8   8   8   8   8   8   8   8
#     4  10  19  30  44  60  80 108 141 173 206 247
#     4   9  17  29  44  61  82 110 143 176 209 244
#     4   8  16  28  39  55  78 104 134 166 200 238
#     4   9  17  28  41  58  81 108 138 170 203 242
#     4   9  16  27  43  60  81 110 141 172 205 240
#     4  10  19  29  42  61  84 109 138 171 206 245
#     4   9  16  25  39  60  83 107 136 167 198 235
#     4  10  20  31  42  59  83 109 139 175 211 245
#
# _framework density 13.939278
#
# number of rings (size 3 to 8) (size 9 to 14) (size 15 to 20)
#    0.000    2.750    0.000    3.000    0.000    9.000 
#    0.000    0.000    0.000    2.250    0.000    0.000 
#    0.000    1.000    0.000    5.500    0.000    4.125 
#
# Total GULP energy -178265.688364 kJ/mol
# GULP energy per Si atom -5570.802761 kJ/mol
# Density = 1.390755 g / cm^3
# Si number density = 13.939278 Si / 1000 Ang^3
#
#
#
# Elastic Constant Matrix: (Units=GPa)
#
#
# Indices 1 2 3 4 5 6 
#
# 1 105.7135 57.0737 60.3963 0.0000 0.0000 0.0000
# 2 57.0737 56.1106 44.3607 0.0000 0.0000 0.0000
# 3 60.3963 44.3607 86.3142 0.0000 0.0000 0.0000
# 4 0.0000 0.0000 0.0000 20.0766 0.0000 0.0000
# 5 0.0000 0.0000 0.0000 0.0000 27.3709 0.0000
# 6 0.0000 0.0000 0.0000 0.0000 0.0000 20.2954
#
#
#
# Elastic Compliance Matrix: (Units=1/GPa)
#
#
# Indices 1 2 3 4 5 6 
#
# 1 0.023198 -0.018129 -0.006915 0.000000 0.000000 0.000000
# 2 -0.018129 0.044188 -0.010025 0.000000 0.000000 0.000000
# 3 -0.006915 -0.010025 0.021576 0.000000 0.000000 0.000000
# 4 0.000000 0.000000 0.000000 0.049809 0.000000 0.000000
# 5 0.000000 0.000000 0.000000 0.000000 0.036535 0.000000
# 6 0.000000 0.000000 0.000000 0.000000 0.000000 0.049272
#
#
# Mechanical properties :
#
#
# Convention : Reuss Voigt Hill
#
# Bulk Modulus (GPa) = 53.12194 63.53329 58.32762
# Shear Modulus (GPa) = 16.61183 19.30242 17.95713
#
# Velocity S-wave (km/s) = 3.45589 3.72526 3.59310
# Velocity P-wave (km/s) = 7.35639 8.01130 7.69082
#
# Compressibility (1/GPa) = 0.01882461
#
# Stress axis : x y z
#
# Youngs Moduli (GPa) = 43.10741 22.63068 46.34783
#
# Poissons Ratio (x) = 0.41028 0.32048
# Poissons Ratio (y) = 0.78151 0.46461
# Poissons Ratio (z) = 0.29807 0.22686
#
# Static dielectric constant tensor:
#      x y z
#    x 1.455190 0.000000 0.000000 
#    y 0.000000 1.468760 0.000000 
#    z 0.000000 0.000000 1.437320 
# 
# From -- ./inp_files/25215.got.cif
#   From: 2010.05.17/outbox.cif.g08.bks.cpg/sg44_13_cif.got.tgz:25215.got - 2010.06.03 19:37:08.
