data_PCOD9373909
_publ_section_title
;
Structure prediction by ZEFSAII (Michael W. Deem and Ramdas Pophale) SiO2 
 PCOD9373909
Probable space group: I M M 2
;
_chemical_formula_sum "Si O2"
_cell_formula_units_Z 56
_cell_length_a 24.159144
_cell_length_b 7.662531
_cell_length_c 14.424863
_cell_angle_alpha 90.000000
_cell_angle_beta 90.000000
_cell_angle_gamma 90.000000
_cell_volume 2670.333377
_symmetry_space_group_name_H-M "I M M 2"
_symmetry_group_IT_number 44
_symmetry_cell_setting 'orthorhombic'
loop_
_space_group_symop_operation_xyz
x,y,z
-x,-y,z
-x,y,z
x,-y,z
1/2+x,1/2+y,1/2+z
1/2-x,1/2-y,1/2+z
1/2-x,1/2+y,1/2+z
1/2+x,1/2-y,1/2+z
loop_
_atom_site_type_symbol
_atom_site_label
_atom_site_fract_x
_atom_site_fract_y
_atom_site_fract_z
Si Si1 0.629853 0.203807 0.767410
Si Si2 0.329318 0.286568 0.054208
Si Si3 0.338777 0.702661 0.259652
Si Si4 0.263259 0.299353 0.879806
Si Si5 0.437258 0.710518 0.382727
Si Si6 0.562097 0.711302 0.944157
Si Si7 0.563110 0.790479 0.593924
O O1 0.683535 0.292269 0.811891
O O2 0.581655 0.221124 0.844179
O O3 0.605755 0.275049 0.671173
O O4 0.644273 0.000000 0.755897
O O5 0.325994 0.500000 0.050890
O O6 0.322472 0.224229 0.159146
O O7 0.284891 0.225327 0.977849
O O8 0.390172 0.237346 0.016468
O O9 0.352010 0.500000 0.241357
O O10 0.287930 0.710053 0.330291
O O11 0.392744 0.779499 0.309570
O O12 0.247017 0.500000 0.893814
O O13 0.500000 0.774993 0.368469
O O14 0.438494 0.500000 0.375776
O O15 0.420735 0.752323 0.488349
O O16 0.500000 0.768018 0.967134
O O17 0.562596 0.500000 0.939951
O O18 0.500000 0.724477 0.607746
O O19 0.561170 0.000000 0.605181
#
# Coordination Sequence:
#
# PCOD9373909 Si02
#       7
#     8   8   8   8   8   8   8
#     4  10  19  32  51  75 104 138 176 215 256 302
#     4   8  17  34  53  73 100 133 168 207 250 302
#     4  10  20  36  57  78 101 133 171 208 252 303
#     4  10  21  37  54  75 103 133 170 213 257 305
#     4   9  19  34  52  77 106 133 166 211 256 297
#     4   9  17  30  50  77 107 139 174 211 253 300
#     4   9  18  32  50  73 103 140 177 210 250 303
#
# _framework density 20.971163000000001
#
# number of rings (size 3 to 8) (size 9 to 14) (size 15 to 20)
#    0.000    2.714    0.000    2.143    0.000    4.286 
#    0.000   12.143    0.000    0.000    0.000    4.000 
#    0.000    0.000    0.000    0.000    0.000    0.000 
#
# Total GULP energy -156228.637500 kJ/mol
# GULP energy per Si atom -5579.594196 kJ/mol
# Density = 2.092343 g / cm^3
# Si number density = 20.971163 Si / 1000 Ang^3
#
#
#
# Elastic Constant Matrix: (Units=GPa)
#
#
# Indices 1 2 3 4 5 6 
#
# 1 76.7551 -7.8875 75.2184 0.0000 0.0000 0.0000
# 2 -7.8875 37.4090 -2.3157 0.0000 0.0000 0.0000
# 3 75.2184 -2.3157 162.9874 0.0000 0.0000 0.0000
# 4 0.0000 0.0000 0.0000 52.5542 0.0000 0.0000
# 5 0.0000 0.0000 0.0000 0.0000 17.0991 0.0000
# 6 0.0000 0.0000 0.0000 0.0000 0.0000 34.4660
#
#
#
# Elastic Compliance Matrix: (Units=1/GPa)
#
#
# Indices 1 2 3 4 5 6 
#
# 1 0.024511 0.004472 -0.011248 0.000000 0.000000 0.000000
# 2 0.004472 0.027571 -0.001672 0.000000 0.000000 0.000000
# 3 -0.011248 -0.001672 0.011303 0.000000 0.000000 0.000000
# 4 0.000000 0.000000 0.000000 0.019028 0.000000 0.000000
# 5 0.000000 0.000000 0.000000 0.000000 0.058482 0.000000
# 6 0.000000 0.000000 0.000000 0.000000 0.000000 0.029014
#
#
# Mechanical properties :
#
#
# Convention : Reuss Voigt Hill
#
# Bulk Modulus (GPa) = 21.51110 45.24242 33.37676
# Shear Modulus (GPa) = 24.71551 34.96628 29.84090
#
# Velocity S-wave (km/s) = 3.43672 4.08775 3.77629
# Velocity P-wave (km/s) = 5.10175 6.62571 5.91303
#
# Compressibility (1/GPa) = 0.04648764
#
# Stress axis : x y z
#
# Youngs Moduli (GPa) = 40.79798 36.27015 88.47415
#
# Poissons Ratio (x) = -0.16219 0.99518
# Poissons Ratio (y) = -0.18244 0.14793
# Poissons Ratio (z) = 0.45891 0.06064
#
# Static dielectric constant tensor:
#      x y z
#    x 1.737700 0.000000 0.000000 
#    y 0.000000 1.770180 0.000000 
#    z 0.000000 0.000000 1.744890 
# 
# From -- ./inp_files/16455.got.cif
#   From: 2010.05.17/outbox.cif.g08.bks.cpg/sg44_9_cif.got.tgz:16455.got - 2010.06.03 19:37:08.
