data_PCOD9373920
_publ_section_title
;
Structure prediction by ZEFSAII (Michael W. Deem and Ramdas Pophale) SiO2 
 PCOD9373920
Probable space group: I M M 2
;
_chemical_formula_sum "Si O2"
_cell_formula_units_Z 56
_cell_length_a 9.027817
_cell_length_b 25.338571
_cell_length_c 14.530541
_cell_angle_alpha 90.000000
_cell_angle_beta 90.000000
_cell_angle_gamma 90.000000
_cell_volume 3323.890054
_symmetry_space_group_name_H-M "I M M 2"
_symmetry_group_IT_number 44
_symmetry_cell_setting 'orthorhombic'
loop_
_space_group_symop_operation_xyz
x,y,z
-x,-y,z
-x,y,z
x,-y,z
1/2+x,1/2+y,1/2+z
1/2-x,1/2-y,1/2+z
1/2-x,1/2+y,1/2+z
1/2+x,1/2-y,1/2+z
loop_
_atom_site_type_symbol
_atom_site_label
_atom_site_fract_x
_atom_site_fract_y
_atom_site_fract_z
Si Si1 0.680232 0.000000 0.823680
Si Si2 0.327118 0.786938 0.409529
Si Si3 0.666317 0.663778 0.393431
Si Si4 0.327828 0.607425 0.587795
Si Si5 0.325189 0.109820 0.734215
Si Si6 0.178154 0.500000 0.540074
Si Si7 0.820988 0.296039 0.695261
Si Si8 0.323393 0.685665 0.094602
O O1 0.727672 0.947537 0.769373
O O2 0.500000 0.000000 0.825124
O O3 0.725413 0.000000 0.931345
O O4 0.500000 0.802044 0.419332
O O5 0.317060 0.723964 0.423503
O O6 0.282652 0.796207 0.303626
O O7 0.232791 0.812820 0.489998
O O8 0.500000 0.658719 0.351985
O O9 0.676397 0.627305 0.482242
O O10 0.787469 0.647894 0.319665
O O11 0.500000 0.600867 0.613812
O O12 0.241750 0.552244 0.588266
O O13 0.252927 0.653938 0.646411
O O14 0.500000 0.107369 0.717296
O O15 0.244307 0.136031 0.648215
O O16 0.000000 0.500000 0.542268
O O17 0.777215 0.240447 0.646811
O O18 0.000000 0.299480 0.687932
O O19 0.500000 0.683731 0.098014
#
# Coordination Sequence:
#
# PCOD9373920 Si02
#       8
#     4   8   8   8   8   4   8   8
#     4   9  20  35  53  80 109 142 185 227 264 324
#     4  10  20  37  55  78 112 150 187 224 270 327
#     4  10  19  32  51  80 116 146 179 225 268 321
#     4  11  22  35  54  82 115 147 186 228 276 326
#     4  11  21  35  55  79 110 148 188 225 273 329
#     4  11  21  37  57  80 113 148 187 225 274 332
#     4  10  21  36  55  78 111 149 185 225 274 331
#     4  11  22  36  54  82 114 145 183 228 280 330
#
# _framework density 16.847729999999999
#
# number of rings (size 3 to 8) (size 9 to 14) (size 15 to 20)
#    0.000    1.571    4.286    1.500    0.000    2.286 
#    0.000    1.429    0.000    0.857    0.000    2.000 
#    0.000    0.000    0.000    0.000    0.000    0.000 
#
# Total GULP energy -156251.661862 kJ/mol
# GULP energy per Si atom -5580.416495 kJ/mol
# Density = 1.680938 g / cm^3
# Si number density = 16.847730 Si / 1000 Ang^3
#
#
#
# Elastic Constant Matrix: (Units=GPa)
#
#
# Indices 1 2 3 4 5 6 
#
# 1 44.7275 26.3619 27.9680 0.0000 0.0000 0.0000
# 2 26.3619 71.2761 15.0497 0.0000 0.0000 0.0000
# 3 27.9680 15.0497 68.3377 0.0000 0.0000 0.0000
# 4 0.0000 0.0000 0.0000 28.2134 0.0000 0.0000
# 5 0.0000 0.0000 0.0000 0.0000 29.2980 0.0000
# 6 0.0000 0.0000 0.0000 0.0000 0.0000 25.4961
#
#
#
# Elastic Compliance Matrix: (Units=1/GPa)
#
#
# Indices 1 2 3 4 5 6 
#
# 1 0.036663 -0.010898 -0.012604 0.000000 0.000000 0.000000
# 2 -0.010898 0.017954 0.000506 0.000000 0.000000 0.000000
# 3 -0.012604 0.000506 0.019680 0.000000 0.000000 0.000000
# 4 0.000000 0.000000 0.000000 0.035444 0.000000 0.000000
# 5 0.000000 0.000000 0.000000 0.000000 0.034132 0.000000
# 6 0.000000 0.000000 0.000000 0.000000 0.000000 0.039222
#
#
# Mechanical properties :
#
#
# Convention : Reuss Voigt Hill
#
# Bulk Modulus (GPa) = 35.33114 35.90005 35.61559
# Shear Modulus (GPa) = 20.96242 24.26561 22.61402
#
# Velocity S-wave (km/s) = 3.53119 3.79923 3.66766
# Velocity P-wave (km/s) = 6.13532 6.37184 6.25470
#
# Compressibility (1/GPa) = 0.02830364
#
# Stress axis : x y z
#
# Youngs Moduli (GPa) = 27.27579 55.69825 50.81246
#
# Poissons Ratio (x) = 0.60703 0.64046
# Poissons Ratio (y) = 0.29726 -0.02573
# Poissons Ratio (z) = 0.34380 -0.02821
#
# Static dielectric constant tensor:
#      x y z
#    x 1.577110 0.000000 0.000000 
#    y 0.000000 1.556550 0.000000 
#    z 0.000000 0.000000 1.560780 
# 
# From -- ./inp_files/16527.got.cif
#   From: 2010.05.17/outbox.cif.g08.bks.cpg/sg44_9_cif.got.tgz:16527.got - 2010.06.03 19:37:08.
