data_PCOD9373495
_publ_section_title
;
Structure prediction by ZEFSAII (Michael W. Deem and Ramdas Pophale) SiO2 
 PCOD9373495
Probable space group: I M M 2
;
_chemical_formula_sum "Si O2"
_cell_formula_units_Z 64
_cell_length_a 7.720092
_cell_length_b 16.048517
_cell_length_c 24.543769
_cell_angle_alpha 90.000000
_cell_angle_beta 90.000000
_cell_angle_gamma 90.000000
_cell_volume 3040.875484
_symmetry_space_group_name_H-M "I M M 2"
_symmetry_group_IT_number 44
_symmetry_cell_setting 'orthorhombic'
loop_
_space_group_symop_operation_xyz
x,y,z
-x,-y,z
-x,y,z
x,-y,z
1/2+x,1/2+y,1/2+z
1/2-x,1/2-y,1/2+z
1/2-x,1/2+y,1/2+z
1/2+x,1/2-y,1/2+z
loop_
_atom_site_type_symbol
_atom_site_label
_atom_site_fract_x
_atom_site_fract_y
_atom_site_fract_z
Si Si1 0.787911 0.092241 0.896220
Si Si2 0.204140 0.092073 0.393617
Si Si3 0.206080 0.408730 0.633016
Si Si4 0.292154 0.247184 0.202101
Si Si5 0.209321 0.152606 0.014068
Si Si6 0.709726 0.154313 0.512878
Si Si7 0.795083 0.246466 0.824731
Si Si8 0.790951 0.407802 0.130823
O O1 0.724877 0.168148 0.858929
O O2 0.000000 0.094178 0.896248
O O3 0.734899 0.000000 0.878167
O O4 0.733740 0.108666 0.958515
O O5 0.231523 0.110645 0.457570
O O6 0.276388 0.168453 0.358583
O O7 0.000000 0.090736 0.383106
O O8 0.276078 0.000000 0.380694
O O9 0.278054 0.500000 0.646936
O O10 0.277507 0.330867 0.667221
O O11 0.231620 0.390628 0.569236
O O12 0.000000 0.411418 0.642786
O O13 0.500000 0.237393 0.204817
O O14 0.223240 0.247547 0.263703
O O15 0.259307 0.333254 0.170710
O O16 0.265538 0.249125 0.013078
O O17 0.000000 0.152166 0.014560
O O18 0.500000 0.152992 0.512243
O O19 0.768268 0.112327 0.569135
O O20 0.000000 0.230800 0.819255
O O21 0.730506 0.500000 0.147392
O O22 0.000000 0.408952 0.129306
#
# Coordination Sequence:
#
# PCOD9373495 Si02
#       8
#     8   8   8   8   8   8   8   8
#     4   9  17  31  53  81 110 136 172 226 277 324
#     4  11  24  39  57  85 118 150 185 232 290 342
#     4  10  21  36  53  78 113 147 180 225 282 337
#     4  10  22  38  58  82 110 147 193 240 282 329
#     4  10  18  32  57  84 108 140 182 224 273 332
#     4  10  19  35  60  86 112 147 191 232 276 338
#     4  10  21  39  60  82 108 148 196 235 278 332
#     4  10  21  37  58  84 115 151 189 232 284 340
#
# _framework density 21.046569999999999
#
# number of rings (size 3 to 8) (size 9 to 14) (size 15 to 20)
#    0.000    2.000    2.500    1.125    0.000    5.000 
#    0.000    2.500    0.000    0.375    0.000    0.000 
#    0.000    0.000    0.000    0.000    0.000    0.000 
#
# Total GULP energy -178763.157525 kJ/mol
# GULP energy per Si atom -5586.348673 kJ/mol
# Density = 2.099867 g / cm^3
# Si number density = 21.046570 Si / 1000 Ang^3
#
#
#
# Elastic Constant Matrix: (Units=GPa)
#
#
# Indices 1 2 3 4 5 6 
#
# 1 29.6043 0.6393 -1.1001 0.0000 0.0000 0.0000
# 2 0.6393 208.4432 95.6042 0.0000 0.0000 0.0000
# 3 -1.1001 95.6042 164.7278 0.0000 0.0000 0.0000
# 4 0.0000 0.0000 0.0000 -3.5175 0.0000 0.0000
# 5 0.0000 0.0000 0.0000 0.0000 19.4979 0.0000
# 6 0.0000 0.0000 0.0000 0.0000 0.0000 19.1634
#
#
#
# Elastic Compliance Matrix: (Units=1/GPa)
#
#
# Indices 1 2 3 4 5 6 
#
# 1 0.033799 -0.000282 0.000390 0.000000 0.000000 0.000000
# 2 -0.000282 0.006540 -0.003798 0.000000 0.000000 0.000000
# 3 0.000390 -0.003798 0.008277 0.000000 0.000000 0.000000
# 4 0.000000 0.000000 0.000000 -0.284291 0.000000 0.000000
# 5 0.000000 0.000000 0.000000 0.000000 0.051288 0.000000
# 6 0.000000 0.000000 0.000000 0.000000 0.000000 0.052183
#
#
# Mechanical properties :
#
#
# Convention : Reuss Voigt Hill
#
# Bulk Modulus (GPa) = 24.25059 65.89578 45.07319
# Shear Modulus (GPa) = -45.01373 27.53754 -8.73809
#
# Velocity S-wave (km/s) = -4.62970 3.62112 -2.03980
# Velocity P-wave (km/s) = 4.12692 6.99005 3.98932
#
# Compressibility (1/GPa) = 0.04123610
#
# Stress axis : x y z
#
# Youngs Moduli (GPa) = 29.58627 152.90158 120.81254
#
# Poissons Ratio (x) = 0.04317 -0.04707
# Poissons Ratio (y) = 0.00835 0.45880
# Poissons Ratio (z) = -0.01153 0.58067
#
# Static dielectric constant tensor:
#      x y z
#    x 1.793330 0.000000 0.000000 
#    y 0.000000 1.759810 0.000000 
#    z 0.000000 0.000000 1.720300 
# 
# From -- ./inp_files/25076.got.cif
#   From: 2010.05.17/outbox.cif.g08.bks.cpg/sg44_13_cif.got.tgz:25076.got - 2010.06.03 19:37:08.
