data_PCOD9373724
_publ_section_title
;
Structure prediction by ZEFSAII (Michael W. Deem and Ramdas Pophale) SiO2 
 PCOD9373724
Probable space group: I M M 2
;
_chemical_formula_sum "Si O2"
_cell_formula_units_Z 64
_cell_length_a 17.371180
_cell_length_b 17.127408
_cell_length_c 11.438942
_cell_angle_alpha 90.000000
_cell_angle_beta 90.000000
_cell_angle_gamma 90.000000
_cell_volume 3403.351627
_symmetry_space_group_name_H-M "I M M 2"
_symmetry_group_IT_number 44
_symmetry_cell_setting 'orthorhombic'
loop_
_space_group_symop_operation_xyz
x,y,z
-x,-y,z
-x,y,z
x,-y,z
1/2+x,1/2+y,1/2+z
1/2-x,1/2-y,1/2+z
1/2-x,1/2+y,1/2+z
1/2+x,1/2-y,1/2+z
loop_
_atom_site_type_symbol
_atom_site_label
_atom_site_fract_x
_atom_site_fract_y
_atom_site_fract_z
Si Si1 0.629189 0.911249 0.237340
Si Si2 0.782580 0.910130 0.094568
Si Si3 0.788276 0.145024 0.663990
Si Si4 0.290144 0.196740 0.891787
Si Si5 0.915675 0.086494 0.825298
Si Si6 0.087996 0.727698 0.569611
Si Si7 0.318570 0.162592 0.467503
Si Si8 0.912194 0.195796 0.052362
O O1 0.717277 0.909192 0.192195
O O2 0.588453 0.848120 0.154167
O O3 0.634251 0.884539 0.371268
O O4 0.600620 0.000000 0.224388
O O5 0.801668 0.000000 0.071300
O O6 0.745883 0.868133 0.980423
O O7 0.855682 0.858005 0.128134
O O8 0.725890 0.171978 0.760083
O O9 0.847246 0.090752 0.733385
O O10 0.846444 0.214734 0.623491
O O11 0.738118 0.116341 0.554620
O O12 0.239268 0.274764 0.907706
O O13 0.375887 0.208425 0.942096
O O14 0.909211 0.152667 0.924513
O O15 0.000000 0.097258 0.769041
O O16 0.915730 0.000000 0.879279
O O17 0.000000 0.756987 0.564154
O O18 0.376991 0.218679 0.537718
O O19 0.000000 0.196209 0.090840
#
# Coordination Sequence:
#
# PCOD9373724 Si02
#       8
#     8   8   8   8   8   8   8   8
#     4  10  20  35  54  76 104 139 177 221 265 311
#     4   9  17  31  52  75 101 132 170 215 263 313
#     4  11  19  33  56  75 106 146 176 211 268 320
#     4   9  18  32  52  77 103 136 174 221 265 311
#     4  10  19  30  49  80 110 131 162 212 268 323
#     4  10  20  35  56  80 104 136 182 231 269 308
#     4  10  20  33  51  74 105 140 181 213 252 317
#     4  10  19  30  48  75 104 133 165 214 269 310
#
# _framework density 18.804991999999999
#
# number of rings (size 3 to 8) (size 9 to 14) (size 15 to 20)
#    0.000    2.125    3.750    1.500    0.000    3.000 
#    0.000    0.625    0.000    0.750    0.000    0.000 
#    0.000    3.000    0.000    0.000    0.000    0.000 
#
# Total GULP energy -178254.411968 kJ/mol
# GULP energy per Si atom -5570.450374 kJ/mol
# Density = 1.876219 g / cm^3
# Si number density = 18.804992 Si / 1000 Ang^3
#
#
#
# Elastic Constant Matrix: (Units=GPa)
#
#
# Indices 1 2 3 4 5 6 
#
# 1 92.8406 15.3199 20.2803 0.0000 0.0000 0.0000
# 2 15.3199 43.2635 -2.8809 0.0000 0.0000 0.0000
# 3 20.2803 -2.8809 40.8252 0.0000 0.0000 0.0000
# 4 0.0000 0.0000 0.0000 13.9367 0.0000 0.0000
# 5 0.0000 0.0000 0.0000 0.0000 9.0821 0.0000
# 6 0.0000 0.0000 0.0000 0.0000 0.0000 1.3356
#
#
#
# Elastic Compliance Matrix: (Units=1/GPa)
#
#
# Indices 1 2 3 4 5 6 
#
# 1 0.013115 -0.005102 -0.006875 0.000000 0.000000 0.000000
# 2 -0.005102 0.025208 0.004313 0.000000 0.000000 0.000000
# 3 -0.006875 0.004313 0.028214 0.000000 0.000000 0.000000
# 4 0.000000 0.000000 0.000000 0.071753 0.000000 0.000000
# 5 0.000000 0.000000 0.000000 0.000000 0.110107 0.000000
# 6 0.000000 0.000000 0.000000 0.000000 0.000000 0.748745
#
#
# Mechanical properties :
#
#
# Convention : Reuss Voigt Hill
#
# Bulk Modulus (GPa) = 19.52745 26.92976 23.22860
# Shear Modulus (GPa) = 4.85654 14.48486 9.67070
#
# Velocity S-wave (km/s) = 1.60878 2.77838 2.27020
# Velocity P-wave (km/s) = 3.72259 4.96429 4.38758
#
# Compressibility (1/GPa) = 0.05120996
#
# Stress axis : x y z
#
# Youngs Moduli (GPa) = 76.24977 39.66995 35.44311
#
# Poissons Ratio (x) = 0.20239 0.24367
# Poissons Ratio (y) = 0.38901 -0.15287
# Poissons Ratio (z) = 0.52421 -0.17111
#
# Static dielectric constant tensor:
#      x y z
#    x 1.672610 0.000000 0.000000 
#    y 0.000000 1.673330 0.000000 
#    z 0.000000 0.000000 1.674780 
# 
# From -- ./inp_files/14058.got.cif
#   From: 2010.05.17/outbox.cif.g08.bks.cpg/sg44_8_cif.got.tgz:14058.got - 2010.06.03 19:37:08.
