data_PCOD9373078
_publ_section_title
;
Structure prediction by ZEFSAII (Michael W. Deem and Ramdas Pophale) SiO2 
 PCOD9373078
Probable space group: I M M 2
;
_chemical_formula_sum "Si O2"
_cell_formula_units_Z 64
_cell_length_a 8.142183
_cell_length_b 24.019796
_cell_length_c 19.898801
_cell_angle_alpha 90.000000
_cell_angle_beta 90.000000
_cell_angle_gamma 90.000000
_cell_volume 3891.679643
_symmetry_space_group_name_H-M "I M M 2"
_symmetry_group_IT_number 44
_symmetry_cell_setting 'orthorhombic'
loop_
_space_group_symop_operation_xyz
x,y,z
-x,-y,z
-x,y,z
x,-y,z
1/2+x,1/2+y,1/2+z
1/2-x,1/2-y,1/2+z
1/2-x,1/2+y,1/2+z
1/2+x,1/2-y,1/2+z
loop_
_atom_site_type_symbol
_atom_site_label
_atom_site_fract_x
_atom_site_fract_y
_atom_site_fract_z
Si Si1 0.195646 0.563173 0.198040
Si Si2 0.299796 0.228051 0.210159
Si Si3 0.198142 0.839294 0.789556
Si Si4 0.802292 0.877086 0.561288
Si Si5 0.802281 0.774374 0.918246
Si Si6 0.697791 0.562950 0.925877
Si Si7 0.697986 0.249138 0.063199
Si Si8 0.698270 0.164153 0.339352
O O1 0.259331 0.500000 0.204168
O O2 0.240994 0.602865 0.260112
O O3 0.259663 0.591980 0.130080
O O4 0.000000 0.560976 0.193290
O O5 0.500000 0.227292 0.210151
O O6 0.252393 0.288597 0.239800
O O7 0.243946 0.222805 0.133501
O O8 0.246627 0.182427 0.264814
O O9 0.252672 0.820432 0.863951
O O10 0.000000 0.840526 0.789134
O O11 0.741120 0.910607 0.496163
O O12 0.742086 0.813338 0.560778
O O13 0.000000 0.874676 0.557074
O O14 0.746529 0.714136 0.889280
O O15 0.000000 0.773875 0.916666
O O16 0.747522 0.780625 0.994537
O O17 0.500000 0.560807 0.929877
O O18 0.758674 0.500000 0.916841
O O19 0.742973 0.605502 0.867022
O O20 0.500000 0.250669 0.065422
O O21 0.500000 0.164319 0.339833
#
# Coordination Sequence:
#
# PCOD9373078 Si02
#       8
#     8   8   8   8   8   8   8   8
#     4  11  23  34  45  67  97 125 158 202 241 269
#     4   8  15  29  47  67  90 118 153 190 227 268
#     4   9  17  33  51  66  89 125 161 190 225 278
#     4  10  19  32  48  65  91 130 167 189 216 272
#     4   9  18  30  47  70  96 121 150 191 236 276
#     4  10  20  32  45  64  92 124 159 194 223 259
#     4  10  17  28  49  71  93 123 156 187 224 276
#     4   9  17  30  47  65  89 120 153 191 230 269
#
# _framework density 16.445342
#
# number of rings (size 3 to 8) (size 9 to 14) (size 15 to 20)
#    0.000    2.500    2.500    2.250    0.000    3.250 
#    0.000    2.500    0.000    0.000    0.000    0.875 
#    0.000    1.000    0.000    0.000    0.000    0.000 
#
# Total GULP energy -178400.288201 kJ/mol
# GULP energy per Si atom -5575.009006 kJ/mol
# Density = 1.640791 g / cm^3
# Si number density = 16.445342 Si / 1000 Ang^3
#
#
#
# Elastic Constant Matrix: (Units=GPa)
#
#
# Indices 1 2 3 4 5 6 
#
# 1 3.2691 2.4686 5.6646 0.0000 0.0000 0.0000
# 2 2.4686 84.4531 62.6691 0.0000 0.0000 0.0000
# 3 5.6646 62.6691 153.5279 0.0000 0.0000 0.0000
# 4 0.0000 0.0000 0.0000 19.9751 0.0000 0.0000
# 5 0.0000 0.0000 0.0000 0.0000 23.2349 0.0000
# 6 0.0000 0.0000 0.0000 0.0000 0.0000 17.9319
#
#
#
# Elastic Compliance Matrix: (Units=1/GPa)
#
#
# Indices 1 2 3 4 5 6 
#
# 1 0.326826 -0.000868 -0.011704 0.000000 0.000000 0.000000
# 2 -0.000868 0.016988 -0.006902 0.000000 0.000000 0.000000
# 3 -0.011704 -0.006902 0.009763 0.000000 0.000000 0.000000
# 4 0.000000 0.000000 0.000000 0.050062 0.000000 0.000000
# 5 0.000000 0.000000 0.000000 0.000000 0.043039 0.000000
# 6 0.000000 0.000000 0.000000 0.000000 0.000000 0.055766
#
#
# Mechanical properties :
#
#
# Convention : Reuss Voigt Hill
#
# Bulk Modulus (GPa) = 3.17836 42.53941 22.85889
# Shear Modulus (GPa) = 7.73670 23.59158 15.66414
#
# Velocity S-wave (km/s) = 2.17134 3.79165 3.08960
# Velocity P-wave (km/s) = 2.86760 6.71506 5.16310
#
# Compressibility (1/GPa) = 0.31462771
#
# Stress axis : x y z
#
# Youngs Moduli (GPa) = 3.05973 58.86400 102.42892
#
# Poissons Ratio (x) = 0.05110 1.19885
# Poissons Ratio (y) = 0.00266 0.70701
# Poissons Ratio (z) = 0.03581 0.40631
#
# Static dielectric constant tensor:
#      x y z
#    x 1.586450 0.000000 0.000000 
#    y 0.000000 1.540500 0.000000 
#    z 0.000000 0.000000 1.563760 
# 
# From -- ./inp_files/20850.got.cif
#   From: 2010.05.17/outbox.cif.g08.bks.cpg/sg44_11_cif.got.tgz:20850.got - 2010.06.03 19:37:08.
