data_PCOD9373469
_publ_section_title
;
Structure prediction by ZEFSAII (Michael W. Deem and Ramdas Pophale) SiO2 
 PCOD9373469
Probable space group: I M M 2
;
_chemical_formula_sum "Si O2"
_cell_formula_units_Z 56
_cell_length_a 18.408300
_cell_length_b 15.562781
_cell_length_c 9.293849
_cell_angle_alpha 90.000000
_cell_angle_beta 90.000000
_cell_angle_gamma 90.000000
_cell_volume 2662.542211
_symmetry_space_group_name_H-M "I M M 2"
_symmetry_group_IT_number 44
_symmetry_cell_setting 'orthorhombic'
loop_
_space_group_symop_operation_xyz
x,y,z
-x,-y,z
-x,y,z
x,-y,z
1/2+x,1/2+y,1/2+z
1/2-x,1/2-y,1/2+z
1/2-x,1/2+y,1/2+z
1/2+x,1/2-y,1/2+z
loop_
_atom_site_type_symbol
_atom_site_label
_atom_site_fract_x
_atom_site_fract_y
_atom_site_fract_z
Si Si1 0.417160 0.629171 0.676000
Si Si2 0.912719 0.597667 0.531935
Si Si3 0.580046 0.832543 0.706760
Si Si4 0.663927 0.399115 0.389165
Si Si5 0.123455 0.095633 0.494395
Si Si6 0.273663 0.099654 0.652266
Si Si7 0.581117 0.261239 0.198399
O O1 0.500000 0.600465 0.637820
O O2 0.422193 0.730504 0.703793
O O3 0.357701 0.608725 0.554765
O O4 0.390568 0.592721 0.826711
O O5 0.884074 0.500000 0.548535
O O6 0.906270 0.629793 0.366958
O O7 0.884518 0.672006 0.640629
O O8 0.000000 0.594406 0.556200
O O9 0.500000 0.864702 0.659706
O O10 0.651618 0.854594 0.616972
O O11 0.647826 0.500000 0.352051
O O12 0.742038 0.382910 0.313633
O O13 0.618079 0.322640 0.315251
O O14 0.206215 0.114667 0.544709
O O15 0.079308 0.174054 0.562141
O O16 0.104514 0.000000 0.551047
O O17 0.290750 0.000000 0.647020
O O18 0.500000 0.242312 0.249662
#
# Coordination Sequence:
#
# PCOD9373469 Si02
#       7
#     8   8   8   8   8   8   8
#     4  11  22  36  56  89 128 166 215 257 296 363
#     4   9  17  31  55  86 117 152 201 260 313 362
#     4  10  20  36  61  90 119 155 204 259 312 367
#     4  10  22  38  56  86 129 171 207 250 307 366
#     4  10  20  34  55  85 123 162 201 249 302 359
#     4   9  20  38  59  86 120 158 207 258 309 374
#     4  10  18  32  54  84 119 158 208 253 298 364
#
# _framework density 21.032530999999999
#
# number of rings (size 3 to 8) (size 9 to 14) (size 15 to 20)
#    0.000    2.143    1.429    3.000    0.000    5.429 
#    0.000    0.000    0.000    1.714    0.000    6.000 
#    0.000    0.000    0.000    0.000    0.000    0.000 
#
# Total GULP energy -155920.700033 kJ/mol
# GULP energy per Si atom -5568.596430 kJ/mol
# Density = 2.098466 g / cm^3
# Si number density = 21.032531 Si / 1000 Ang^3
#
#
#
# Elastic Constant Matrix: (Units=GPa)
#
#
# Indices 1 2 3 4 5 6 
#
# 1 88.6058 26.6580 -6.0150 0.0000 0.0000 0.0000
# 2 26.6580 116.7673 3.3985 0.0000 0.0000 0.0000
# 3 -6.0150 3.3985 52.6559 0.0000 0.0000 0.0000
# 4 0.0000 0.0000 0.0000 22.1536 0.0000 0.0000
# 5 0.0000 0.0000 0.0000 0.0000 0.8715 0.0000
# 6 0.0000 0.0000 0.0000 0.0000 0.0000 8.4289
#
#
#
# Elastic Compliance Matrix: (Units=1/GPa)
#
#
# Indices 1 2 3 4 5 6 
#
# 1 0.012249 -0.002842 0.001583 0.000000 0.000000 0.000000
# 2 -0.002842 0.009240 -0.000921 0.000000 0.000000 0.000000
# 3 0.001583 -0.000921 0.019231 0.000000 0.000000 0.000000
# 4 0.000000 0.000000 0.000000 0.045139 0.000000 0.000000
# 5 0.000000 0.000000 0.000000 0.000000 1.147383 0.000000
# 6 0.000000 0.000000 0.000000 0.000000 0.000000 0.118639
#
#
# Mechanical properties :
#
#
# Convention : Reuss Voigt Hill
#
# Bulk Modulus (GPa) = 27.50418 34.01246 30.75832
# Shear Modulus (GPa) = 3.65400 21.88997 12.77199
#
# Velocity S-wave (km/s) = 1.31950 3.22959 2.46692
# Velocity P-wave (km/s) = 3.92770 5.48758 4.77181
#
# Compressibility (1/GPa) = 0.03635811
#
# Stress axis : x y z
#
# Youngs Moduli (GPa) = 81.64226 108.22771 51.99817
#
# Poissons Ratio (x) = 0.30763 -0.08229
# Poissons Ratio (y) = 0.23206 0.04789
# Poissons Ratio (z) = -0.12921 0.09968
#
# Static dielectric constant tensor:
#      x y z
#    x 1.857190 0.000000 0.000000 
#    y 0.000000 1.768050 0.000000 
#    z 0.000000 0.000000 1.794210 
# 
# From -- ./inp_files/8914.got.cif
#   From: 2010.05.17/outbox.cif.g08.bks.cpg/sg44_5_cif.got.tgz:8914.got - 2010.06.03 19:37:08.
