data_PCOD9373135
_publ_section_title
;
Structure prediction by ZEFSAII (Michael W. Deem and Ramdas Pophale) SiO2 
 PCOD9373135
Probable space group: I M M 2
;
_chemical_formula_sum "Si O2"
_cell_formula_units_Z 56
_cell_length_a 7.475346
_cell_length_b 14.241861
_cell_length_c 30.588901
_cell_angle_alpha 90.000000
_cell_angle_beta 90.000000
_cell_angle_gamma 90.000000
_cell_volume 3256.581232
_symmetry_space_group_name_H-M "I M M 2"
_symmetry_group_IT_number 44
_symmetry_cell_setting 'orthorhombic'
loop_
_space_group_symop_operation_xyz
x,y,z
-x,-y,z
-x,y,z
x,-y,z
1/2+x,1/2+y,1/2+z
1/2-x,1/2-y,1/2+z
1/2-x,1/2+y,1/2+z
1/2+x,1/2-y,1/2+z
loop_
_atom_site_type_symbol
_atom_site_label
_atom_site_fract_x
_atom_site_fract_y
_atom_site_fract_z
Si Si1 0.719135 0.291820 0.231890
Si Si2 0.290947 0.614042 0.048412
Si Si3 0.208413 0.395700 0.774923
Si Si4 0.210201 0.796642 0.364848
Si Si5 0.215507 0.894983 0.819954
Si Si6 0.281044 0.390642 0.953079
Si Si7 0.218980 0.890924 0.643719
O O1 0.500000 0.291313 0.232045
O O2 0.783130 0.187744 0.244820
O O3 0.773667 0.359813 0.271834
O O4 0.776582 0.330073 0.185046
O O5 0.500000 0.641279 0.048472
O O6 0.284768 0.500000 0.048459
O O7 0.217460 0.642378 0.095786
O O8 0.216859 0.642101 0.001063
O O9 0.287158 0.500000 0.772050
O O10 0.214368 0.356434 0.824406
O O11 0.000000 0.402950 0.763120
O O12 0.235668 0.687255 0.353638
O O13 0.279499 0.829903 0.411819
O O14 0.000000 0.816544 0.364549
O O15 0.000000 0.897733 0.819001
O O16 0.280394 0.000000 0.829518
O O17 0.500000 0.388554 0.954615
O O18 0.231495 0.500000 0.946717
O O19 0.000000 0.889890 0.642742
O O20 0.270260 0.000000 0.649823
#
# Coordination Sequence:
#
# PCOD9373135 Si02
#       7
#     8   8   8   8   8   8   8
#     4   8  13  21  34  52  71  94 124 152 181 218
#     4   7  10  16  26  43  69  97 120 143 176 220
#     4   9  17  28  39  52  75 105 132 158 188 222
#     4  10  18  26  39  58  77  99 128 159 190 223
#     4   9  17  29  42  55  76 104 128 152 184 222
#     4   8  13  21  32  48  73 102 126 148 180 222
#     4   8  11  15  27  48  71  93 118 148 180 218
#
# _framework density 17.195948000000001
#
# number of rings (size 3 to 8) (size 9 to 14) (size 15 to 20)
#    0.000    3.571    0.000    3.857    0.000    2.857 
#    0.000    0.000    0.000    0.000    0.000    1.000 
#    0.000   14.857    0.000   36.571    0.000   28.714 
#
# Total GULP energy -155890.926864 kJ/mol
# GULP energy per Si atom -5567.533102 kJ/mol
# Density = 1.715681 g / cm^3
# Si number density = 17.195948 Si / 1000 Ang^3
#
#
#
# Elastic Constant Matrix: (Units=GPa)
#
#
# Indices 1 2 3 4 5 6 
#
# 1 46.8030 -1.1503 1.2646 0.0000 0.0000 0.0000
# 2 -1.1503 105.7786 80.5277 0.0000 0.0000 0.0000
# 3 1.2646 80.5277 183.7455 0.0000 0.0000 0.0000
# 4 0.0000 0.0000 0.0000 26.6086 0.0000 0.0000
# 5 0.0000 0.0000 0.0000 0.0000 6.2861 0.0000
# 6 0.0000 0.0000 0.0000 0.0000 0.0000 3.1947
#
#
#
# Elastic Compliance Matrix: (Units=1/GPa)
#
#
# Indices 1 2 3 4 5 6 
#
# 1 0.021389 0.000517 -0.000374 0.000000 0.000000 0.000000
# 2 0.000517 0.014200 -0.006227 0.000000 0.000000 0.000000
# 3 -0.000374 -0.006227 0.008174 0.000000 0.000000 0.000000
# 4 0.000000 0.000000 0.000000 0.037582 0.000000 0.000000
# 5 0.000000 0.000000 0.000000 0.000000 0.159080 0.000000
# 6 0.000000 0.000000 0.000000 0.000000 0.000000 0.313023
#
#
# Mechanical properties :
#
#
# Convention : Reuss Voigt Hill
#
# Bulk Modulus (GPa) = 31.64982 55.29010 43.46996
# Shear Modulus (GPa) = 8.67836 24.26355 16.47095
#
# Velocity S-wave (km/s) = 2.24893 3.76041 3.09826
# Velocity P-wave (km/s) = 5.01886 7.14682 6.17519
#
# Compressibility (1/GPa) = 0.03159575
#
# Stress axis : x y z
#
# Youngs Moduli (GPa) = 46.75304 70.42472 122.34309
#
# Poissons Ratio (x) = -0.03643 0.04574
# Poissons Ratio (y) = -0.02418 0.76178
# Poissons Ratio (z) = 0.01748 0.43851
#
# Static dielectric constant tensor:
#      x y z
#    x 1.723440 0.000000 0.000000 
#    y 0.000000 1.570090 0.000000 
#    z 0.000000 0.000000 1.605490 
# 
# From -- ./inp_files/27216.got.cif
#   From: 2010.05.17/outbox.cif.g08.bks.cpg/sg44_14_cif.got.tgz:27216.got - 2010.06.03 19:37:08.
