data_PCOD9373539
_publ_section_title
;
Structure prediction by ZEFSAII (Michael W. Deem and Ramdas Pophale) SiO2 
 PCOD9373539
Probable space group: I M M 2
;
_chemical_formula_sum "Si O2"
_cell_formula_units_Z 40
_cell_length_a 7.925573
_cell_length_b 11.994799
_cell_length_c 20.852220
_cell_angle_alpha 90.000000
_cell_angle_beta 90.000000
_cell_angle_gamma 90.000000
_cell_volume 1982.329954
_symmetry_space_group_name_H-M "I M M 2"
_symmetry_group_IT_number 44
_symmetry_cell_setting 'orthorhombic'
loop_
_space_group_symop_operation_xyz
x,y,z
-x,-y,z
-x,y,z
x,-y,z
1/2+x,1/2+y,1/2+z
1/2-x,1/2-y,1/2+z
1/2-x,1/2+y,1/2+z
1/2+x,1/2-y,1/2+z
loop_
_atom_site_type_symbol
_atom_site_label
_atom_site_fract_x
_atom_site_fract_y
_atom_site_fract_z
Si Si1 0.796867 0.220079 0.069860
Si Si2 0.701131 0.748483 0.810606
Si Si3 0.793354 0.372394 0.182729
Si Si4 0.805087 0.500000 0.794926
Si Si5 0.202402 0.626790 0.436479
Si Si6 0.795449 0.000000 0.147745
O O1 0.738643 0.322032 0.114387
O O2 0.000000 0.222672 0.068611
O O3 0.745468 0.108820 0.108279
O O4 0.739275 0.204565 0.997309
O O5 0.500000 0.765266 0.809008
O O6 0.764307 0.795424 0.742190
O O7 0.730727 0.617085 0.818484
O O8 0.768360 0.819079 0.870693
O O9 0.741444 0.500000 0.191923
O O10 0.000000 0.370096 0.182700
O O11 0.779241 0.500000 0.718292
O O12 0.000000 0.500000 0.811440
O O13 0.266877 0.500000 0.446631
O O14 0.000000 0.619402 0.431130
O O15 0.000000 0.000000 0.154671
#
# Coordination Sequence:
#
# PCOD9373539 Si02
#       6
#     8   8   8   4   8   4
#     4  10  19  33  56  82 111 147 186 227 272 328
#     4  10  20  38  60  80 109 148 188 225 275 341
#     4   9  17  32  57  84 106 138 188 234 266 315
#     4  12  24  36  56  86 114 141 182 239 286 323
#     4  10  21  36  57  85 113 144 183 232 280 326
#     4  10  18  34  58  84 108 145 188 223 272 337
#
# _framework density 20.178274999999999
#
# number of rings (size 3 to 8) (size 9 to 14) (size 15 to 20)
#    0.000    2.000    3.000    1.500    0.000    4.000 
#    1.800    0.000    0.000    3.000    0.000    0.000 
#    0.000    0.000    0.000    0.000    0.000    0.000 
#
# Total GULP energy -111630.859624 kJ/mol
# GULP energy per Si atom -5581.542981 kJ/mol
# Density = 2.013235 g / cm^3
# Si number density = 20.178275 Si / 1000 Ang^3
#
#
#
# Elastic Constant Matrix: (Units=GPa)
#
#
# Indices 1 2 3 4 5 6 
#
# 1 11.3028 2.0801 7.2757 0.0000 0.0000 0.0000
# 2 2.0801 121.4974 57.0136 0.0000 0.0000 0.0000
# 3 7.2757 57.0136 136.2719 0.0000 0.0000 0.0000
# 4 0.0000 0.0000 0.0000 36.6459 0.0000 0.0000
# 5 0.0000 0.0000 0.0000 0.0000 21.6582 0.0000
# 6 0.0000 0.0000 0.0000 0.0000 0.0000 5.3293
#
#
#
# Elastic Compliance Matrix: (Units=1/GPa)
#
#
# Indices 1 2 3 4 5 6 
#
# 1 0.091702 0.000905 -0.005275 0.000000 0.000000 0.000000
# 2 0.000905 0.010250 -0.004337 0.000000 0.000000 0.000000
# 3 -0.005275 -0.004337 0.009434 0.000000 0.000000 0.000000
# 4 0.000000 0.000000 0.000000 0.027288 0.000000 0.000000
# 5 0.000000 0.000000 0.000000 0.000000 0.046172 0.000000
# 6 0.000000 0.000000 0.000000 0.000000 0.000000 0.187641
#
#
# Mechanical properties :
#
#
# Convention : Reuss Voigt Hill
#
# Bulk Modulus (GPa) = 10.64124 44.64568 27.64346
# Shear Modulus (GPa) = 11.87014 26.24019 19.05516
#
# Velocity S-wave (km/s) = 2.42805 3.61004 3.07635
# Velocity P-wave (km/s) = 3.62569 6.28889 5.13302
#
# Compressibility (1/GPa) = 0.09397398
#
# Stress axis : x y z
#
# Youngs Moduli (GPa) = 10.90486 97.55888 105.99567
#
# Poissons Ratio (x) = -0.08832 0.55911
# Poissons Ratio (y) = -0.00987 0.45969
# Poissons Ratio (z) = 0.05752 0.42310
#
# Static dielectric constant tensor:
#      x y z
#    x 1.741130 0.000000 0.000000 
#    y 0.000000 1.716880 0.000000 
#    z 0.000000 0.000000 1.697950 
# 
# From -- ./inp_files/22761.got.cif
#   From: 2010.05.17/outbox.cif.g08.bks.cpg/sg44_12_cif.got.tgz:22761.got - 2010.06.03 19:37:08.
