data_PCOD9373352
_publ_section_title
;
Structure prediction by ZEFSAII (Michael W. Deem and Ramdas Pophale) SiO2 
 PCOD9373352
Probable space group: I M M 2
;
_chemical_formula_sum "Si O2"
_cell_formula_units_Z 56
_cell_length_a 7.552139
_cell_length_b 16.394657
_cell_length_c 20.899196
_cell_angle_alpha 90.000000
_cell_angle_beta 90.000000
_cell_angle_gamma 90.000000
_cell_volume 2587.628279
_symmetry_space_group_name_H-M "I M M 2"
_symmetry_group_IT_number 44
_symmetry_cell_setting 'orthorhombic'
loop_
_space_group_symop_operation_xyz
x,y,z
-x,-y,z
-x,y,z
x,-y,z
1/2+x,1/2+y,1/2+z
1/2-x,1/2-y,1/2+z
1/2-x,1/2+y,1/2+z
1/2+x,1/2-y,1/2+z
loop_
_atom_site_type_symbol
_atom_site_label
_atom_site_fract_x
_atom_site_fract_y
_atom_site_fract_z
Si Si1 0.704964 0.586133 0.372530
Si Si2 0.714877 0.689423 0.039954
Si Si3 0.785335 0.743813 0.821065
Si Si4 0.800532 0.765703 0.678717
Si Si5 0.202789 0.087066 0.151676
Si Si6 0.788073 0.092821 0.415343
Si Si7 0.712825 0.123851 0.012335
O O1 0.500000 0.587327 0.351474
O O2 0.783145 0.500000 0.348508
O O3 0.780553 0.674688 0.356309
O O4 0.714399 0.585713 0.448571
O O5 0.500000 0.682902 0.043705
O O6 0.777384 0.691274 0.114690
O O7 0.776726 0.626850 0.984893
O O8 0.755335 0.779807 0.014062
O O9 0.717497 0.761163 0.748997
O O10 0.742607 0.660821 0.859828
O O11 0.000000 0.742608 0.818173
O O12 0.808214 0.668964 0.664723
O O13 0.000000 0.798976 0.685355
O O14 0.000000 0.096888 0.173996
O O15 0.270843 0.000000 0.176529
O O16 0.206107 0.085416 0.075272
O O17 0.000000 0.088074 0.420942
O O18 0.723610 0.000000 0.402311
O O19 0.500000 0.114415 0.014477
#
# Coordination Sequence:
#
# PCOD9373352 Si02
#       7
#     8   8   8   8   8   8   8
#     4  10  20  33  50  75 107 140 175 218 271 327
#     4   8  15  31  52  75 101 131 173 222 266 312
#     4  10  21  37  55  78 111 147 183 228 280 333
#     4   9  19  35  54  73 100 141 184 226 272 325
#     4  10  20  32  47  72 105 136 170 214 265 322
#     4  10  20  35  57  83 111 145 186 234 283 333
#     4  10  18  30  51  76 104 136 170 212 262 317
#
# _framework density 21.641441
#
# number of rings (size 3 to 8) (size 9 to 14) (size 15 to 20)
#    0.000    2.429    1.429    2.143    0.000    4.571 
#    0.000    3.571    0.000    4.286    0.000    0.000 
#    0.000    3.714    0.000    0.000    0.000    0.000 
#
# Total GULP energy -155873.495949 kJ/mol
# GULP energy per Si atom -5566.910570 kJ/mol
# Density = 2.159218 g / cm^3
# Si number density = 21.641441 Si / 1000 Ang^3
#
#
#
# Elastic Constant Matrix: (Units=GPa)
#
#
# Indices 1 2 3 4 5 6 
#
# 1 59.3319 6.2252 -6.4433 0.0000 0.0000 0.0000
# 2 6.2252 127.4960 49.0526 0.0000 0.0000 0.0000
# 3 -6.4433 49.0526 128.0571 0.0000 0.0000 0.0000
# 4 0.0000 0.0000 0.0000 25.5478 0.0000 0.0000
# 5 0.0000 0.0000 0.0000 0.0000 9.7174 0.0000
# 6 0.0000 0.0000 0.0000 0.0000 0.0000 13.5355
#
#
#
# Elastic Compliance Matrix: (Units=1/GPa)
#
#
# Indices 1 2 3 4 5 6 
#
# 1 0.017149 -0.001371 0.001388 0.000000 0.000000 0.000000
# 2 -0.001371 0.009309 -0.003635 0.000000 0.000000 0.000000
# 3 0.001388 -0.003635 0.009271 0.000000 0.000000 0.000000
# 4 0.000000 0.000000 0.000000 0.039142 0.000000 0.000000
# 5 0.000000 0.000000 0.000000 0.000000 0.102908 0.000000
# 6 0.000000 0.000000 0.000000 0.000000 0.000000 0.073880
#
#
# Mechanical properties :
#
#
# Convention : Reuss Voigt Hill
#
# Bulk Modulus (GPa) = 35.09640 45.83934 40.46787
# Shear Modulus (GPa) = 18.62940 27.49684 23.06312
#
# Velocity S-wave (km/s) = 2.93716 3.56836 3.26804
# Velocity P-wave (km/s) = 5.26830 6.18101 5.74282
#
# Compressibility (1/GPa) = 0.02849295
#
# Stress axis : x y z
#
# Youngs Moduli (GPa) = 58.31251 107.42556 107.86132
#
# Poissons Ratio (x) = 0.14733 -0.14973
# Poissons Ratio (y) = 0.07997 0.39205
# Poissons Ratio (z) = -0.08095 0.39047
#
# Static dielectric constant tensor:
#      x y z
#    x 1.847210 0.000000 0.000000 
#    y 0.000000 1.837420 0.000000 
#    z 0.000000 0.000000 1.832800 
# 
# From -- ./inp_files/23039.got.cif
#   From: 2010.05.17/outbox.cif.g08.bks.cpg/sg44_12_cif.got.tgz:23039.got - 2010.06.03 19:37:08.
