data_PCOD9373365
_publ_section_title
;
Structure prediction by ZEFSAII (Michael W. Deem and Ramdas Pophale) SiO2 
 PCOD9373365
Probable space group: I M M 2
;
_chemical_formula_sum "Si O2"
_cell_formula_units_Z 56
_cell_length_a 21.497779
_cell_length_b 9.637934
_cell_length_c 14.186140
_cell_angle_alpha 90.000000
_cell_angle_beta 90.000000
_cell_angle_gamma 90.000000
_cell_volume 2939.285576
_symmetry_space_group_name_H-M "I M M 2"
_symmetry_group_IT_number 44
_symmetry_cell_setting 'orthorhombic'
loop_
_space_group_symop_operation_xyz
x,y,z
-x,-y,z
-x,y,z
x,-y,z
1/2+x,1/2+y,1/2+z
1/2-x,1/2-y,1/2+z
1/2-x,1/2+y,1/2+z
1/2+x,1/2-y,1/2+z
loop_
_atom_site_type_symbol
_atom_site_label
_atom_site_fract_x
_atom_site_fract_y
_atom_site_fract_z
Si Si1 0.073011 0.836619 0.448750
Si Si2 0.500000 0.831116 0.448994
Si Si3 0.216178 0.659934 0.775960
Si Si4 0.500000 0.831973 0.231477
Si Si5 0.882598 0.340115 0.610262
Si Si6 0.930779 0.653954 0.268428
Si Si7 0.143014 0.330948 0.967873
Si Si8 0.806802 0.341306 0.160362
O O1 0.118084 0.758112 0.520561
O O2 0.080090 0.769812 0.346294
O O3 0.000000 0.810989 0.475117
O O4 0.083597 0.000000 0.448541
O O5 0.500000 0.789082 0.338971
O O6 0.570225 0.786305 0.480719
O O7 0.500000 0.000000 0.457677
O O8 0.235787 0.500000 0.793774
O O9 0.174553 0.660867 0.681305
O O10 0.174314 0.704242 0.866327
O O11 0.272149 0.757324 0.742534
O O12 0.439687 0.789548 0.174552
O O13 0.500000 0.000000 0.234268
O O14 0.894106 0.500000 0.580932
O O15 0.928318 0.500000 0.314220
O O16 0.878759 0.655740 0.190275
O O17 0.000000 0.670287 0.228157
O O18 0.141491 0.500000 0.970714
O O19 0.188477 0.284938 0.053363
O O20 0.782747 0.500000 0.158468
#
# Coordination Sequence:
#
# PCOD9373365 Si02
#       8
#     8   4   8   4   8   8   8   8
#     4  10  20  32  49  77 110 143 180 223 274 327
#     4   9  14  26  54  88 113 134 174 239 293 326
#     4  10  21  37  56  81 113 149 187 224 271 338
#     4   9  14  24  47  80 109 134 172 227 283 326
#     4  10  18  30  52  80 109 144 186 230 275 326
#     4   9  19  36  56  78 105 139 183 233 282 334
#     4   9  18  33  56  86 114 140 181 234 284 329
#     4  10  22  38  57  83 112 143 181 229 284 334
#
# _framework density 19.052249
#
# number of rings (size 3 to 8) (size 9 to 14) (size 15 to 20)
#    0.000    2.429    2.143    0.429    1.000    2.857 
#    0.000    3.571    0.000    0.000    0.000    1.000 
#    0.000    0.000    0.000    0.000    0.000    0.000 
#
# Total GULP energy -155888.640776 kJ/mol
# GULP energy per Si atom -5567.451456 kJ/mol
# Density = 1.900889 g / cm^3
# Si number density = 19.052249 Si / 1000 Ang^3
#
#
#
# Elastic Constant Matrix: (Units=GPa)
#
#
# Indices 1 2 3 4 5 6 
#
# 1 59.7457 15.7950 21.5099 0.0000 0.0000 0.0000
# 2 15.7950 43.3586 28.1514 0.0000 0.0000 0.0000
# 3 21.5099 28.1514 60.4325 0.0000 0.0000 0.0000
# 4 0.0000 0.0000 0.0000 14.7374 0.0000 0.0000
# 5 0.0000 0.0000 0.0000 0.0000 18.0478 0.0000
# 6 0.0000 0.0000 0.0000 0.0000 0.0000 19.1195
#
#
#
# Elastic Compliance Matrix: (Units=1/GPa)
#
#
# Indices 1 2 3 4 5 6 
#
# 1 0.019613 -0.003745 -0.005236 0.000000 0.000000 0.000000
# 2 -0.003745 0.033779 -0.014402 0.000000 0.000000 0.000000
# 3 -0.005236 -0.014402 0.025120 0.000000 0.000000 0.000000
# 4 0.000000 0.000000 0.000000 0.067855 0.000000 0.000000
# 5 0.000000 0.000000 0.000000 0.000000 0.055408 0.000000
# 6 0.000000 0.000000 0.000000 0.000000 0.000000 0.052303
#
#
# Mechanical properties :
#
#
# Convention : Reuss Voigt Hill
#
# Bulk Modulus (GPa) = 31.50133 32.71660 32.10896
# Shear Modulus (GPa) = 16.05518 16.91964 16.48741
#
# Velocity S-wave (km/s) = 2.90607 2.98327 2.94492
# Velocity P-wave (km/s) = 5.27545 5.39221 5.33415
#
# Compressibility (1/GPa) = 0.03174469
#
# Stress axis : x y z
#
# Youngs Moduli (GPa) = 50.98691 29.60457 39.80864
#
# Poissons Ratio (x) = 0.11087 0.20845
# Poissons Ratio (y) = 0.19094 0.57333
# Poissons Ratio (z) = 0.26699 0.42637
#
# Static dielectric constant tensor:
#      x y z
#    x 1.723040 0.000000 0.000000 
#    y 0.000000 1.651170 0.000000 
#    z 0.000000 0.000000 1.668970 
# 
# From -- ./inp_files/19258.got.cif
#   From: 2010.05.17/outbox.cif.g08.bks.cpg/sg44_10_cif.got.tgz:19258.got - 2010.06.03 19:37:08.
