data_PCOD9373740
_publ_section_title
;
Structure prediction by ZEFSAII (Michael W. Deem and Ramdas Pophale) SiO2 
 PCOD9373740
Probable space group: I M M 2
;
_chemical_formula_sum "Si O2"
_cell_formula_units_Z 64
_cell_length_a 8.255152
_cell_length_b 15.913821
_cell_length_c 23.642106
_cell_angle_alpha 90.000000
_cell_angle_beta 90.000000
_cell_angle_gamma 90.000000
_cell_volume 3105.887373
_symmetry_space_group_name_H-M "I M M 2"
_symmetry_group_IT_number 44
_symmetry_cell_setting 'orthorhombic'
loop_
_space_group_symop_operation_xyz
x,y,z
-x,-y,z
-x,y,z
x,-y,z
1/2+x,1/2+y,1/2+z
1/2-x,1/2-y,1/2+z
1/2-x,1/2+y,1/2+z
1/2+x,1/2-y,1/2+z
loop_
_atom_site_type_symbol
_atom_site_label
_atom_site_fract_x
_atom_site_fract_y
_atom_site_fract_z
Si Si1 0.691624 0.229555 0.076190
Si Si2 0.804382 0.904220 0.726922
Si Si3 0.807814 0.910634 0.536530
Si Si4 0.812304 0.177574 0.958959
Si Si5 0.313856 0.868622 0.416148
Si Si6 0.190902 0.227504 0.193975
Si Si7 0.195783 0.095865 0.289023
Si Si8 0.684220 0.599399 0.349671
O O1 0.500000 0.235034 0.085952
O O2 0.758432 0.324036 0.062299
O O3 0.772688 0.191860 0.131752
O O4 0.724152 0.179421 0.018569
O O5 0.762558 0.822043 0.691592
O O6 0.739195 0.879146 0.789577
O O7 0.000000 0.909043 0.730110
O O8 0.750402 0.000000 0.712029
O O9 0.781484 0.907985 0.468912
O O10 0.000000 0.910015 0.547671
O O11 0.741527 0.000000 0.558201
O O12 0.810137 0.270277 0.931572
O O13 0.737159 0.122922 0.908706
O O14 0.000000 0.152975 0.969127
O O15 0.500000 0.897172 0.418468
O O16 0.247656 0.884690 0.353512
O O17 0.254521 0.166532 0.244131
O O18 0.000000 0.235647 0.202290
O O19 0.000000 0.096913 0.287214
O O20 0.248410 0.000000 0.275169
O O21 0.500000 0.635969 0.350570
O O22 0.668932 0.500000 0.347243
#
# Coordination Sequence:
#
# PCOD9373740 Si02
#       8
#     8   8   8   8   8   8   8   8
#     4  10  21  36  53  72  97 133 176 216 258 314
#     4   9  18  34  57  84 114 146 176 207 252 316
#     4   9  18  33  52  74 102 135 167 200 245 307
#     4   9  17  31  51  75 104 134 165 207 257 306
#     4  10  19  30  50  81 110 134 164 207 260 314
#     4  11  23  38  56  77 103 138 182 230 272 309
#     4  10  22  39  56  75 103 141 182 222 268 322
#     4   8  14  27  50  78 103 130 167 206 246 302
#
# _framework density 20.606027000000001
#
# number of rings (size 3 to 8) (size 9 to 14) (size 15 to 20)
#    0.000    2.500    0.000    3.000    0.000    5.750 
#    0.000    2.500    0.000    4.875    0.000    0.000 
#    0.000    0.000    0.000    0.000    0.000    0.000 
#
# Total GULP energy -178303.416017 kJ/mol
# GULP energy per Si atom -5571.981751 kJ/mol
# Density = 2.055913 g / cm^3
# Si number density = 20.606027 Si / 1000 Ang^3
#
#
#
# Elastic Constant Matrix: (Units=GPa)
#
#
# Indices 1 2 3 4 5 6 
#
# 1 17.7169 5.3623 -2.9875 0.0000 0.0000 0.0000
# 2 5.3623 24.4993 30.8589 0.0000 0.0000 0.0000
# 3 -2.9875 30.8589 108.1263 0.0000 0.0000 0.0000
# 4 0.0000 0.0000 0.0000 5.5662 0.0000 0.0000
# 5 0.0000 0.0000 0.0000 0.0000 20.0970 0.0000
# 6 0.0000 0.0000 0.0000 0.0000 0.0000 13.0148
#
#
#
# Elastic Compliance Matrix: (Units=1/GPa)
#
#
# Indices 1 2 3 4 5 6 
#
# 1 0.065907 -0.026102 0.009271 0.000000 0.000000 0.000000
# 2 -0.026102 0.074063 -0.021859 0.000000 0.000000 0.000000
# 3 0.009271 -0.021859 0.015743 0.000000 0.000000 0.000000
# 4 0.000000 0.000000 0.000000 0.179655 0.000000 0.000000
# 5 0.000000 0.000000 0.000000 0.000000 0.049759 0.000000
# 6 0.000000 0.000000 0.000000 0.000000 0.000000 0.076835
#
#
# Mechanical properties :
#
#
# Convention : Reuss Voigt Hill
#
# Bulk Modulus (GPa) = 12.76617 24.09001 18.42809
# Shear Modulus (GPa) = 8.84244 15.54287 12.19265
#
# Velocity S-wave (km/s) = 2.07377 2.74941 2.43513
# Velocity P-wave (km/s) = 3.45584 4.66853 4.10719
#
# Compressibility (1/GPa) = 0.07833201
#
# Stress axis : x y z
#
# Youngs Moduli (GPa) = 15.17294 13.50193 63.52045
#
# Poissons Ratio (x) = 0.35243 -0.58887
# Poissons Ratio (y) = 0.39605 1.38847
# Poissons Ratio (z) = -0.14066 0.29513
#
# Static dielectric constant tensor:
#      x y z
#    x 1.731720 0.000000 0.000000 
#    y 0.000000 1.792430 0.000000 
#    z 0.000000 0.000000 1.768570 
# 
# From -- ./inp_files/23291.got.cif
#   From: 2010.05.17/outbox.cif.g08.bks.cpg/sg44_12_cif.got.tgz:23291.got - 2010.06.03 19:37:08.
