data_PCOD9373081
_publ_section_title
;
Structure prediction by ZEFSAII (Michael W. Deem and Ramdas Pophale) SiO2 
 PCOD9373081
Probable space group: I M M 2
;
_chemical_formula_sum "Si O2"
_cell_formula_units_Z 64
_cell_length_a 15.233739
_cell_length_b 18.561399
_cell_length_c 11.330371
_cell_angle_alpha 90.000000
_cell_angle_beta 90.000000
_cell_angle_gamma 90.000000
_cell_volume 3203.770128
_symmetry_space_group_name_H-M "I M M 2"
_symmetry_group_IT_number 44
_symmetry_cell_setting 'orthorhombic'
loop_
_space_group_symop_operation_xyz
x,y,z
-x,-y,z
-x,y,z
x,-y,z
1/2+x,1/2+y,1/2+z
1/2-x,1/2-y,1/2+z
1/2-x,1/2+y,1/2+z
1/2+x,1/2-y,1/2+z
loop_
_atom_site_type_symbol
_atom_site_label
_atom_site_fract_x
_atom_site_fract_y
_atom_site_fract_z
Si Si1 0.397597 0.195371 0.945270
Si Si2 0.595640 0.717894 0.472833
Si Si3 0.399335 0.889590 0.510961
Si Si4 0.904080 0.139161 0.461568
Si Si5 0.903229 0.126511 0.742181
Si Si6 0.755853 0.703227 0.640209
Si Si7 0.255693 0.077499 0.328900
Si Si8 0.213826 0.634713 0.234625
O O1 0.500000 0.175931 0.953987
O O2 0.393662 0.280204 0.910209
O O3 0.345406 0.148727 0.849300
O O4 0.345702 0.193740 0.068074
O O5 0.500000 0.694982 0.520760
O O6 0.600173 0.803777 0.483940
O O7 0.599121 0.691324 0.337822
O O8 0.676617 0.688980 0.548106
O O9 0.500000 0.913026 0.520661
O O10 0.344397 0.922083 0.404422
O O11 0.345062 0.899516 0.631677
O O12 0.904436 0.145626 0.603526
O O13 0.824518 0.090855 0.419020
O O14 0.000000 0.111063 0.425984
O O15 0.805710 0.093656 0.758230
O O16 0.000000 0.090957 0.763367
O O17 0.754297 0.644719 0.742093
O O18 0.741117 0.784553 0.687984
O O19 0.245174 0.000000 0.269071
#
# Coordination Sequence:
#
# PCOD9373081 Si02
#       8
#     8   8   8   8   8   8   8   8
#     4  11  21  33  56  88 118 148 181 237 306 351
#     4   9  18  32  56  88 116 144 175 231 303 348
#     4  10  21  36  55  82 114 147 191 239 285 341
#     4  10  20  35  55  84 118 148 186 235 290 350
#     4  10  17  28  53  84 113 142 175 223 291 354
#     4  11  21  33  53  80 117 151 187 235 277 345
#     4  12  25  40  56  78 114 165 202 227 269 335
#     4  11  18  33  58  84 116 143 180 240 307 346
#
# _framework density 19.976465000000001
#
# number of rings (size 3 to 8) (size 9 to 14) (size 15 to 20)
#    0.000    1.500    5.000    1.875    0.000    2.000 
#    0.000    0.000    0.000    3.000    0.000    1.750 
#    0.000    0.000    0.000    0.000    0.000    0.000 
#
# Total GULP energy -178465.168144 kJ/mol
# GULP energy per Si atom -5577.036505 kJ/mol
# Density = 1.993100 g / cm^3
# Si number density = 19.976465 Si / 1000 Ang^3
#
#
#
# Elastic Constant Matrix: (Units=GPa)
#
#
# Indices 1 2 3 4 5 6 
#
# 1 190.5094 26.1909 42.5247 0.0000 0.0000 0.0000
# 2 26.1909 38.6750 16.3327 0.0000 0.0000 0.0000
# 3 42.5247 16.3327 65.0151 0.0000 0.0000 0.0000
# 4 0.0000 0.0000 0.0000 -11.8038 0.0000 0.0000
# 5 0.0000 0.0000 0.0000 0.0000 20.3078 0.0000
# 6 0.0000 0.0000 0.0000 0.0000 0.0000 -25.3408
#
#
#
# Elastic Compliance Matrix: (Units=1/GPa)
#
#
# Indices 1 2 3 4 5 6 
#
# 1 0.006421 -0.002880 -0.003476 0.000000 0.000000 0.000000
# 2 -0.002880 0.030217 -0.005707 0.000000 0.000000 0.000000
# 3 -0.003476 -0.005707 0.019088 0.000000 0.000000 0.000000
# 4 0.000000 0.000000 0.000000 -0.084718 0.000000 0.000000
# 5 0.000000 0.000000 0.000000 0.000000 0.049242 0.000000
# 6 0.000000 0.000000 0.000000 0.000000 0.000000 -0.039462
#
#
# Mechanical properties :
#
#
# Convention : Reuss Voigt Hill
#
# Bulk Modulus (GPa) = 31.64612 51.58845 41.61728
# Shear Modulus (GPa) = 323.64746 10.57604 167.11175
#
# Velocity S-wave (km/s) = 12.74230 2.30342 9.15620
# Velocity P-wave (km/s) = 15.24350 5.74064 11.51780
#
# Compressibility (1/GPa) = 0.03159945
#
# Stress axis : x y z
#
# Youngs Moduli (GPa) = 155.73853 33.09381 52.38767
#
# Poissons Ratio (x) = 0.09532 0.18211
# Poissons Ratio (y) = 0.44857 0.29898
# Poissons Ratio (z) = 0.54139 0.18887
#
# Static dielectric constant tensor:
#      x y z
#    x 1.758580 0.000000 0.000000 
#    y 0.000000 1.705150 0.000000 
#    z 0.000000 0.000000 1.682950 
# 
# From -- ./inp_files/13449.got.cif
#   From: 2010.05.17/outbox.cif.g08.bks.cpg/sg44_7_cif.got.tgz:13449.got - 2010.06.03 19:37:08.
