data_PCOD9373258
_publ_section_title
;
Structure prediction by ZEFSAII (Michael W. Deem and Ramdas Pophale) SiO2 
 PCOD9373258
Probable space group: I M M 2
;
_chemical_formula_sum "Si O2"
_cell_formula_units_Z 64
_cell_length_a 23.624216
_cell_length_b 7.786720
_cell_length_c 19.990721
_cell_angle_alpha 90.000000
_cell_angle_beta 90.000000
_cell_angle_gamma 90.000000
_cell_volume 3677.396184
_symmetry_space_group_name_H-M "I M M 2"
_symmetry_group_IT_number 44
_symmetry_cell_setting 'orthorhombic'
loop_
_space_group_symop_operation_xyz
x,y,z
-x,-y,z
-x,y,z
x,-y,z
1/2+x,1/2+y,1/2+z
1/2-x,1/2-y,1/2+z
1/2-x,1/2+y,1/2+z
1/2+x,1/2-y,1/2+z
loop_
_atom_site_type_symbol
_atom_site_label
_atom_site_fract_x
_atom_site_fract_y
_atom_site_fract_z
Si Si1 0.271830 0.208286 0.608430
Si Si2 0.722876 0.792144 0.315644
Si Si3 0.564482 0.789654 0.828356
Si Si4 0.663755 0.206140 0.736619
Si Si5 0.157844 0.704482 0.686928
Si Si6 0.133495 0.300566 0.458515
Si Si7 0.435497 0.701698 0.087663
Si Si8 0.238274 0.699300 0.961878
O O1 0.316523 0.270439 0.663968
O O2 0.209894 0.254835 0.636833
O O3 0.279915 0.275141 0.533285
O O4 0.273774 0.000000 0.606468
O O5 0.784840 0.746519 0.287162
O O6 0.678084 0.731033 0.259814
O O7 0.717347 0.725870 0.391303
O O8 0.719982 0.000000 0.317282
O O9 0.500000 0.730778 0.823864
O O10 0.605363 0.731399 0.768425
O O11 0.594186 0.737965 0.897830
O O12 0.563535 0.000000 0.828126
O O13 0.659937 0.000000 0.732023
O O14 0.152269 0.500000 0.690566
O O15 0.100632 0.775202 0.655091
O O16 0.147249 0.500000 0.445628
O O17 0.099043 0.287311 0.527316
O O18 0.193339 0.206043 0.461588
O O19 0.500000 0.765469 0.092541
O O20 0.437135 0.500000 0.072082
O O21 0.220611 0.500000 0.962214
#
# Coordination Sequence:
#
# PCOD9373258 Si02
#       8
#     8   8   8   8   8   8   8   8
#     4   9  17  28  45  65  88 118 150 186 227 271
#     4   9  18  30  45  65  91 119 147 185 230 273
#     4   9  17  28  42  62  89 119 151 188 224 255
#     4   9  16  28  44  63  85 114 153 190 224 265
#     4  10  19  31  47  67  89 117 153 192 231 270
#     4  11  20  30  45  66  93 123 158 191 219 260
#     4  11  23  36  48  64  90 124 158 192 231 275
#     4  10  18  29  45  66  94 124 151 180 226 278
#
# _framework density 17.403618000000002
#
# number of rings (size 3 to 8) (size 9 to 14) (size 15 to 20)
#    0.000    2.250    2.500    1.500    0.000    2.000 
#    0.000    0.000    0.000    1.125    0.000    0.875 
#    0.000    5.000    0.000    0.000    0.000    0.500 
#
# Total GULP energy -178468.427182 kJ/mol
# GULP energy per Si atom -5577.138349 kJ/mol
# Density = 1.736401 g / cm^3
# Si number density = 17.403618 Si / 1000 Ang^3
#
#
#
# Elastic Constant Matrix: (Units=GPa)
#
#
# Indices 1 2 3 4 5 6 
#
# 1 60.3865 -6.0224 41.9297 0.0000 0.0000 0.0000
# 2 -6.0224 27.0290 -2.8364 0.0000 0.0000 0.0000
# 3 41.9297 -2.8364 148.7172 0.0000 0.0000 0.0000
# 4 0.0000 0.0000 0.0000 10.3052 0.0000 0.0000
# 5 0.0000 0.0000 0.0000 0.0000 20.3258 0.0000
# 6 0.0000 0.0000 0.0000 0.0000 0.0000 9.2485
#
#
#
# Elastic Compliance Matrix: (Units=1/GPa)
#
#
# Indices 1 2 3 4 5 6 
#
# 1 0.021029 0.004072 -0.005851 0.000000 0.000000 0.000000
# 2 0.004072 0.037860 -0.000426 0.000000 0.000000 0.000000
# 3 -0.005851 -0.000426 0.008366 0.000000 0.000000 0.000000
# 4 0.000000 0.000000 0.000000 0.097038 0.000000 0.000000
# 5 0.000000 0.000000 0.000000 0.000000 0.049198 0.000000
# 6 0.000000 0.000000 0.000000 0.000000 0.000000 0.108126
#
#
# Mechanical properties :
#
#
# Convention : Reuss Voigt Hill
#
# Bulk Modulus (GPa) = 15.91260 33.58604 24.74932
# Shear Modulus (GPa) = 14.41021 21.51336 17.96178
#
# Velocity S-wave (km/s) = 2.88062 3.51970 3.21607
# Velocity P-wave (km/s) = 4.49745 5.98815 5.29552
#
# Compressibility (1/GPa) = 0.06284328
#
# Stress axis : x y z
#
# Youngs Moduli (GPa) = 47.55354 26.41322 119.53461
#
# Poissons Ratio (x) = -0.10754 0.69943
# Poissons Ratio (y) = -0.19361 0.05090
# Poissons Ratio (z) = 0.27825 0.01125
#
# Static dielectric constant tensor:
#      x y z
#    x 1.562560 0.000000 0.000000 
#    y 0.000000 1.630360 0.000000 
#    z 0.000000 0.000000 1.635220 
# 
# From -- ./inp_files/20898.got.cif
#   From: 2010.05.17/outbox.cif.g08.bks.cpg/sg44_11_cif.got.tgz:20898.got - 2010.06.03 19:37:08.
