data_PCOD9373520
_publ_section_title
;
Structure prediction by ZEFSAII (Michael W. Deem and Ramdas Pophale) SiO2 
 PCOD9373520
Probable space group: I M M 2
;
_chemical_formula_sum "Si O2"
_cell_formula_units_Z 64
_cell_length_a 13.737622
_cell_length_b 27.775281
_cell_length_c 9.195233
_cell_angle_alpha 90.000000
_cell_angle_beta 90.000000
_cell_angle_gamma 90.000000
_cell_volume 3508.591138
_symmetry_space_group_name_H-M "I M M 2"
_symmetry_group_IT_number 44
_symmetry_cell_setting 'orthorhombic'
loop_
_space_group_symop_operation_xyz
x,y,z
-x,-y,z
-x,y,z
x,-y,z
1/2+x,1/2+y,1/2+z
1/2-x,1/2-y,1/2+z
1/2-x,1/2+y,1/2+z
1/2+x,1/2-y,1/2+z
loop_
_atom_site_type_symbol
_atom_site_label
_atom_site_fract_x
_atom_site_fract_y
_atom_site_fract_z
Si Si1 0.211071 0.183546 0.019910
Si Si2 0.887008 0.555135 0.855198
Si Si3 0.210585 0.293691 0.074517
Si Si4 0.114445 0.350560 0.328541
Si Si5 0.688926 0.946640 0.681528
Si Si6 0.268306 0.368112 0.819142
Si Si7 0.604944 0.680118 0.240726
Si Si8 0.391645 0.583305 0.052819
O O1 0.187992 0.240276 0.023955
O O2 0.199903 0.160266 0.176983
O O3 0.318566 0.172303 0.955094
O O4 0.137089 0.163459 0.899845
O O5 0.860482 0.500000 0.816690
O O6 0.818704 0.594964 0.784235
O O7 0.000000 0.562627 0.822834
O O8 0.869495 0.559453 0.029507
O O9 0.134003 0.318012 0.184415
O O10 0.309126 0.289009 0.170598
O O11 0.231504 0.329993 0.941360
O O12 0.158001 0.403031 0.285631
O O13 0.000000 0.352993 0.360974
O O14 0.802166 0.943629 0.631464
O O15 0.668638 0.000000 0.740340
O O16 0.352044 0.400322 0.895054
O O17 0.500000 0.704290 0.241576
O O18 0.600882 0.632937 0.141747
O O19 0.500000 0.561445 0.048915
#
# Coordination Sequence:
#
# PCOD9373520 Si02
#       8
#     8   8   8   8   8   8   8   8
#     4  11  22  36  54  79 117 151 181 231 286 338
#     4   9  17  31  54  81 108 141 184 228 272 328
#     4  10  20  38  56  76 106 148 192 239 275 324
#     4  11  22  39  57  83 117 151 191 237 281 336
#     4  10  18  33  59  87 110 144 186 234 286 329
#     4  10  19  33  54  81 110 146 185 231 283 332
#     4   9  18  35  56  74 103 142 183 226 275 326
#     4   9  17  34  57  82 108 140 184 232 275 327
#
# _framework density 18.240940999999999
#
# number of rings (size 3 to 8) (size 9 to 14) (size 15 to 20)
#    0.000    2.125    5.000    1.875    0.000    3.000 
#    0.000    4.375    0.000    0.000    0.000    0.000 
#    0.000    0.000    0.000    0.000    0.000    0.000 
#
# Total GULP energy -178322.132108 kJ/mol
# GULP energy per Si atom -5572.566628 kJ/mol
# Density = 1.819942 g / cm^3
# Si number density = 18.240941 Si / 1000 Ang^3
#
#
#
# Elastic Constant Matrix: (Units=GPa)
#
#
# Indices 1 2 3 4 5 6 
#
# 1 84.0961 14.5982 0.6690 0.0004 0.0001 0.0000
# 2 14.5982 77.9967 -0.5238 -0.0009 0.0001 -0.0003
# 3 0.6690 -0.5238 42.8769 -0.0037 0.0008 -0.0003
# 4 0.0004 -0.0009 -0.0037 8.1816 0.0002 -0.0006
# 5 0.0001 0.0001 0.0008 0.0002 7.1120 0.0000
# 6 0.0000 -0.0003 -0.0003 -0.0006 0.0000 7.3456
#
#
#
# Elastic Compliance Matrix: (Units=1/GPa)
#
#
# Indices 1 2 3 4 5 6 
#
# 1 0.012293 -0.002302 -0.000220 -0.000001 0.000000 0.000000
# 2 -0.002302 0.013253 0.000198 0.000002 0.000000 0.000001
# 3 -0.000220 0.000198 0.023328 0.000010 -0.000003 0.000001
# 4 -0.000001 0.000002 0.000010 0.122225 -0.000003 0.000009
# 5 0.000000 0.000000 -0.000003 -0.000003 0.140607 -0.000001
# 6 0.000000 0.000001 0.000001 0.000009 -0.000001 0.136136
#
#
# Mechanical properties :
#
#
# Convention : Reuss Voigt Hill
#
# Bulk Modulus (GPa) = 22.61131 26.05072 24.33102
# Shear Modulus (GPa) = 10.70129 17.20960 13.95545
#
# Velocity S-wave (km/s) = 2.42474 3.07491 2.76898
# Velocity P-wave (km/s) = 4.50133 5.18838 4.85702
#
# Compressibility (1/GPa) = 0.04422565
#
# Stress axis : x y z
#
# Youngs Moduli (GPa) = 81.35016 75.45302 42.86617
#
# Poissons Ratio (x) = 0.17371 0.00943
# Poissons Ratio (y) = 0.18728 -0.00848
# Poissons Ratio (z) = 0.01789 -0.01493
#
# Static dielectric constant tensor:
#      x y z
#    x 1.663550 0.000000 0.000000 
#    y 0.000000 1.643500 0.000000 
#    z 0.000000 0.000000 1.620370 
# 
# From -- ./inp_files/7700.got.cif
#   From: 2010.05.17/outbox.cif.g08.bks.cpg/sg44_4_cif.got.tgz:7700.got - 2010.06.03 19:37:08.
