data_PCOD9373169
_publ_section_title
;
Structure prediction by ZEFSAII (Michael W. Deem and Ramdas Pophale) SiO2 
 PCOD9373169
Probable space group: I M M 2
;
_chemical_formula_sum "Si O2"
_cell_formula_units_Z 56
_cell_length_a 8.200086
_cell_length_b 30.455314
_cell_length_c 14.219299
_cell_angle_alpha 90.000000
_cell_angle_beta 90.000000
_cell_angle_gamma 90.000000
_cell_volume 3551.073613
_symmetry_space_group_name_H-M "I M M 2"
_symmetry_group_IT_number 44
_symmetry_cell_setting 'orthorhombic'
loop_
_space_group_symop_operation_xyz
x,y,z
-x,-y,z
-x,y,z
x,-y,z
1/2+x,1/2+y,1/2+z
1/2-x,1/2-y,1/2+z
1/2-x,1/2+y,1/2+z
1/2+x,1/2-y,1/2+z
loop_
_atom_site_type_symbol
_atom_site_label
_atom_site_fract_x
_atom_site_fract_y
_atom_site_fract_z
Si Si1 0.194184 0.404743 0.537540
Si Si2 0.803045 0.183084 0.722955
Si Si3 0.688509 0.500000 0.544480
Si Si4 0.803536 0.680253 0.646908
Si Si5 0.697043 0.595144 0.321929
Si Si6 0.804695 0.267866 0.042256
Si Si7 0.191082 0.000000 0.816334
Si Si8 0.300959 0.228834 0.329935
O O1 0.234681 0.453685 0.573610
O O2 0.256697 0.365557 0.604059
O O3 0.263578 0.399328 0.432206
O O4 0.000000 0.401002 0.530259
O O5 0.743377 0.136676 0.762653
O O6 0.747891 0.196238 0.618875
O O7 0.751862 0.223217 0.790949
O O8 0.000000 0.182451 0.723780
O O9 0.500000 0.500000 0.571134
O O10 0.697568 0.500000 0.430263
O O11 0.759008 0.720902 0.579273
O O12 0.745657 0.693872 0.751337
O O13 0.000000 0.677984 0.651136
O O14 0.500000 0.593741 0.314846
O O15 0.761500 0.547381 0.288787
O O16 0.000000 0.265624 0.040778
O O17 0.745618 0.277446 0.936622
O O18 0.000000 0.000000 0.789001
O O19 0.500000 0.227998 0.330411
#
# Coordination Sequence:
#
# PCOD9373169 Si02
#       8
#     8   8   4   8   8   8   4   8
#     4  10  18  27  43  66  89 111 141 181 213 241
#     4   9  17  29  43  59  83 114 142 168 209 261
#     4   9  17  29  43  59  86 119 144 168 207 260
#     4   9  18  31  44  60  85 114 140 169 211 257
#     4   9  16  27  43  61  86 118 144 168 207 260
#     4  10  18  28  44  63  82 107 143 181 209 243
#     4   7  12  23  39  59  78 103 140 168 189 234
#     4   8  15  28  42  56  79 111 140 166 204 254
#
# _framework density 15.769878
#
# number of rings (size 3 to 8) (size 9 to 14) (size 15 to 20)
#    0.000    3.000    0.000    3.643    0.000    2.857 
#    0.000    7.143    0.000    0.000    0.000    1.000 
#    0.000    3.429    0.000    0.000    0.000    0.000 
#
# Total GULP energy -155901.647476 kJ/mol
# GULP energy per Si atom -5567.915981 kJ/mol
# Density = 1.573399 g / cm^3
# Si number density = 15.769878 Si / 1000 Ang^3
#
#
#
# Elastic Constant Matrix: (Units=GPa)
#
#
# Indices 1 2 3 4 5 6 
#
# 1 2.9892 7.7692 2.6096 0.0000 0.0000 0.0000
# 2 7.7692 154.0416 78.1211 -0.0001 0.0000 0.0000
# 3 2.6096 78.1211 112.3085 -0.0002 -0.0001 0.0000
# 4 0.0000 -0.0001 -0.0002 25.5961 0.0000 0.0000
# 5 0.0000 0.0000 -0.0001 0.0000 15.9406 0.0000
# 6 0.0000 0.0000 0.0000 0.0000 0.0000 16.4292
#
#
#
# Elastic Compliance Matrix: (Units=1/GPa)
#
#
# Indices 1 2 3 4 5 6 
#
# 1 0.388645 -0.023209 0.007114 -0.000001 0.000000 0.000000
# 2 -0.023209 0.011416 -0.007402 0.000000 0.000000 0.000000
# 3 0.007114 -0.007402 0.013887 0.000000 0.000000 0.000000
# 4 -0.000001 0.000000 0.000000 0.039068 0.000000 0.000000
# 5 0.000000 0.000000 0.000000 0.000000 0.062733 0.000000
# 6 0.000000 0.000000 0.000000 0.000000 0.000000 0.060867
#
#
# Mechanical properties :
#
#
# Convention : Reuss Voigt Hill
#
# Bulk Modulus (GPa) = 2.72514 49.59323 26.15918
# Shear Modulus (GPa) = 6.70305 23.64917 15.17611
#
# Velocity S-wave (km/s) = 2.06392 3.87672 3.10554
# Velocity P-wave (km/s) = 2.72241 7.18018 5.42985
#
# Compressibility (1/GPa) = 0.36695397
#
# Stress axis : x y z
#
# Youngs Moduli (GPa) = 2.57304 87.59649 72.00848
#
# Poissons Ratio (x) = 2.03304 -0.51224
# Poissons Ratio (y) = 0.05972 0.53298
# Poissons Ratio (z) = -0.01830 0.64835
#
# Static dielectric constant tensor:
#      x y z
#    x 1.554360 0.000000 0.000000 
#    y 0.000000 1.556070 0.000000 
#    z 0.000000 0.000000 1.512370 
# 
# From -- ./inp_files/17052.got.cif
#   From: 2010.05.17/outbox.cif.g08.bks.cpg/sg44_9_cif.got.tgz:17052.got - 2010.06.03 19:37:08.
