data_PCOD9373679
_publ_section_title
;
Structure prediction by ZEFSAII (Michael W. Deem and Ramdas Pophale) SiO2 
 PCOD9373679
Probable space group: I M M 2
;
_chemical_formula_sum "Si O2"
_cell_formula_units_Z 64
_cell_length_a 9.128377
_cell_length_b 22.090048
_cell_length_c 16.082951
_cell_angle_alpha 90.000000
_cell_angle_beta 90.000000
_cell_angle_gamma 90.000000
_cell_volume 3243.067339
_symmetry_space_group_name_H-M "I M M 2"
_symmetry_group_IT_number 44
_symmetry_cell_setting 'orthorhombic'
loop_
_space_group_symop_operation_xyz
x,y,z
-x,-y,z
-x,y,z
x,-y,z
1/2+x,1/2+y,1/2+z
1/2-x,1/2-y,1/2+z
1/2-x,1/2+y,1/2+z
1/2+x,1/2-y,1/2+z
loop_
_atom_site_type_symbol
_atom_site_label
_atom_site_fract_x
_atom_site_fract_y
_atom_site_fract_z
Si Si1 0.675710 0.430968 0.678090
Si Si2 0.832336 0.426281 0.506472
Si Si3 0.331552 0.240492 0.602847
Si Si4 0.167895 0.603145 0.169782
Si Si5 0.322220 0.687719 0.761299
Si Si6 0.823390 0.198453 0.442956
Si Si7 0.175956 0.065444 0.505533
Si Si8 0.830132 0.926487 0.839068
O O1 0.500000 0.430108 0.666178
O O2 0.719421 0.500000 0.696633
O O3 0.749951 0.411136 0.591756
O O4 0.710651 0.383246 0.749947
O O5 0.833989 0.500000 0.503695
O O6 0.747518 0.405843 0.424102
O O7 0.000000 0.405140 0.506608
O O8 0.500000 0.259053 0.586826
O O9 0.333163 0.172706 0.640126
O O10 0.267956 0.280360 0.677697
O O11 0.244715 0.237704 0.516787
O O12 0.254561 0.569005 0.097108
O O13 0.246121 0.596305 0.257902
O O14 0.000000 0.582050 0.175652
O O15 0.500000 0.694249 0.760837
O O16 0.272586 0.713417 0.849612
O O17 0.782446 0.127671 0.459462
O O18 0.000000 0.202677 0.446715
O O19 0.000000 0.067046 0.512551
O O20 0.216079 0.000000 0.467309
O O21 0.000000 0.908523 0.837737
O O22 0.824681 0.000000 0.837479
#
# Coordination Sequence:
#
# PCOD9373679 Si02
#       8
#     8   8   8   8   8   8   8   8
#     4   9  17  31  53  79 105 134 169 209 258 317
#     4   9  17  30  47  68  99 136 170 208 255 306
#     4   9  19  37  55  72 103 142 175 215 264 310
#     4  10  19  30  46  68  97 136 178 218 260 310
#     4   9  18  35  58  80 106 139 173 214 265 314
#     4   9  18  34  56  79 104 136 175 219 261 308
#     4   9  17  29  47  73 104 134 166 209 261 313
#     4  10  19  30  46  69  99 135 175 220 268 315
#
# _framework density 19.734404999999999
#
# number of rings (size 3 to 8) (size 9 to 14) (size 15 to 20)
#    0.000    2.750    0.000    1.500    0.000    5.000 
#    2.250    4.375    0.000    0.000    0.000    1.750 
#    0.000    0.000    0.000    0.000    0.000    0.000 
#
# Total GULP energy -178452.240072 kJ/mol
# GULP energy per Si atom -5576.632502 kJ/mol
# Density = 1.968949 g / cm^3
# Si number density = 19.734405 Si / 1000 Ang^3
#
#
#
# Elastic Constant Matrix: (Units=GPa)
#
#
# Indices 1 2 3 4 5 6 
#
# 1 26.9424 4.7531 30.6906 0.0000 0.0000 0.0000
# 2 4.7531 35.0909 28.0853 0.0000 0.0000 0.0000
# 3 30.6906 28.0853 146.7717 0.0000 0.0000 0.0000
# 4 0.0000 0.0000 0.0000 17.1986 0.0000 0.0000
# 5 0.0000 0.0000 0.0000 0.0000 22.8896 0.0000
# 6 0.0000 0.0000 0.0000 0.0000 0.0000 9.7133
#
#
#
# Elastic Compliance Matrix: (Units=1/GPa)
#
#
# Indices 1 2 3 4 5 6 
#
# 1 0.048822 0.001840 -0.010561 0.000000 0.000000 0.000000
# 2 0.001840 0.033720 -0.006837 0.000000 0.000000 0.000000
# 3 -0.010561 -0.006837 0.010330 0.000000 0.000000 0.000000
# 4 0.000000 0.000000 0.000000 0.058144 0.000000 0.000000
# 5 0.000000 0.000000 0.000000 0.000000 0.043688 0.000000
# 6 0.000000 0.000000 0.000000 0.000000 0.000000 0.102951
#
#
# Mechanical properties :
#
#
# Convention : Reuss Voigt Hill
#
# Bulk Modulus (GPa) = 16.19299 37.31809 26.75554
# Shear Modulus (GPa) = 14.31198 19.64537 16.97868
#
# Velocity S-wave (km/s) = 2.69593 3.15856 2.93637
# Velocity P-wave (km/s) = 4.23249 5.67919 5.00835
#
# Compressibility (1/GPa) = 0.06175512
#
# Stress axis : x y z
#
# Youngs Moduli (GPa) = 20.48268 29.65559 96.80604
#
# Poissons Ratio (x) = -0.05455 1.02235
# Poissons Ratio (y) = -0.03768 0.66188
# Poissons Ratio (z) = 0.21631 0.20276
#
# Static dielectric constant tensor:
#      x y z
#    x 1.671630 0.000000 0.000000 
#    y 0.000000 1.744170 0.000000 
#    z 0.000000 0.000000 1.667840 
# 
# From -- ./inp_files/16872.got.cif
#   From: 2010.05.17/outbox.cif.g08.bks.cpg/sg44_9_cif.got.tgz:16872.got - 2010.06.03 19:37:08.
