data_PCOD9373514
_publ_section_title
;
Structure prediction by ZEFSAII (Michael W. Deem and Ramdas Pophale) SiO2 
 PCOD9373514
Probable space group: I M M 2
;
_chemical_formula_sum "Si O2"
_cell_formula_units_Z 64
_cell_length_a 24.630235
_cell_length_b 7.520639
_cell_length_c 15.932772
_cell_angle_alpha 90.000000
_cell_angle_beta 90.000000
_cell_angle_gamma 90.000000
_cell_volume 2951.308709
_symmetry_space_group_name_H-M "I M M 2"
_symmetry_group_IT_number 44
_symmetry_cell_setting 'orthorhombic'
loop_
_space_group_symop_operation_xyz
x,y,z
-x,-y,z
-x,y,z
x,-y,z
1/2+x,1/2+y,1/2+z
1/2-x,1/2-y,1/2+z
1/2-x,1/2+y,1/2+z
1/2+x,1/2-y,1/2+z
loop_
_atom_site_type_symbol
_atom_site_label
_atom_site_fract_x
_atom_site_fract_y
_atom_site_fract_z
Si Si1 0.939218 0.208198 0.046620
Si Si2 0.362126 0.713013 0.693050
Si Si3 0.128899 0.717925 0.694263
Si Si4 0.437839 0.782494 0.031219
Si Si5 0.860856 0.287500 0.380502
Si Si6 0.876365 0.705232 0.879557
Si Si7 0.746760 0.216480 0.132010
Si Si8 0.243813 0.215280 0.936234
O O1 0.901523 0.284694 0.120518
O O2 0.000000 0.283871 0.042071
O O3 0.944637 0.000000 0.066632
O O4 0.908159 0.216403 0.958257
O O5 0.359099 0.500000 0.682943
O O6 0.380981 0.749968 0.787107
O O7 0.300651 0.779667 0.679342
O O8 0.129393 0.500000 0.696103
O O9 0.089178 0.771266 0.619183
O O10 0.112901 0.780448 0.786977
O O11 0.190042 0.775897 0.671358
O O12 0.500000 0.725088 0.023410
O O13 0.437640 0.000000 0.030134
O O14 0.400221 0.721721 0.954053
O O15 0.857993 0.500000 0.391004
O O16 0.799041 0.221781 0.391942
O O17 0.892515 0.500000 0.878036
O O18 0.811896 0.717440 0.896674
O O19 0.745605 0.000000 0.134221
O O20 0.751913 0.265713 0.034217
O O21 0.241305 0.000000 0.932634
#
# Coordination Sequence:
#
# PCOD9373514 Si02
#       8
#     8   8   8   8   8   8   8   8
#     4  10  22  41  61  78 103 148 197 228 263 328
#     4  10  20  35  56  78 104 140 181 223 270 327
#     4   9  17  30  50  78 108 140 176 217 267 323
#     4   9  17  31  51  75 105 141 180 218 261 320
#     4  10  20  33  54  83 111 140 178 225 274 318
#     4  11  22  34  55  86 116 139 173 230 286 323
#     4   9  15  29  53  75 100 139 181 215 255 316
#     4  10  18  33  56  78 108 147 184 218 263 332
#
# _framework density 21.685293999999999
#
# number of rings (size 3 to 8) (size 9 to 14) (size 15 to 20)
#    0.000    2.250    2.500    1.125    0.000    3.250 
#    0.000    1.250    0.000    2.250    0.000    0.000 
#    0.000    0.000    0.000    0.000    0.000    0.000 
#
# Total GULP energy -178781.844552 kJ/mol
# GULP energy per Si atom -5586.932642 kJ/mol
# Density = 2.163594 g / cm^3
# Si number density = 21.685294 Si / 1000 Ang^3
#
#
#
# Elastic Constant Matrix: (Units=GPa)
#
#
# Indices 1 2 3 4 5 6 
#
# 1 144.0915 -2.9656 64.0355 0.0000 0.0000 0.0000
# 2 -2.9656 52.4333 -9.8170 0.0000 0.0000 0.0000
# 3 64.0355 -9.8170 165.0095 0.0000 0.0000 0.0000
# 4 0.0000 0.0000 0.0000 2.5444 0.0000 0.0000
# 5 0.0000 0.0000 0.0000 0.0000 0.1103 0.0000
# 6 0.0000 0.0000 0.0000 0.0000 0.0000 -5.2385
#
#
#
# Elastic Compliance Matrix: (Units=1/GPa)
#
#
# Indices 1 2 3 4 5 6 
#
# 1 0.008387 -0.000137 -0.003263 0.000000 0.000000 0.000000
# 2 -0.000137 0.019289 0.001201 0.000000 0.000000 0.000000
# 3 -0.003263 0.001201 0.007398 0.000000 0.000000 0.000000
# 4 0.000000 0.000000 0.000000 0.393027 0.000000 0.000000
# 5 0.000000 0.000000 0.000000 0.000000 9.069798 0.000000
# 6 0.000000 0.000000 0.000000 0.000000 0.000000 -0.190896
#
#
# Mechanical properties :
#
#
# Convention : Reuss Voigt Hill
#
# Bulk Modulus (GPa) = 32.59856 51.56001 42.07929
# Shear Modulus (GPa) = 0.53639 20.16865 10.35252
#
# Velocity S-wave (km/s) = 0.49788 3.05300 2.18731
# Velocity P-wave (km/s) = 3.92374 6.02128 5.08191
#
# Compressibility (1/GPa) = 0.03067620
#
# Stress axis : x y z
#
# Youngs Moduli (GPa) = 119.22733 51.84328 135.17226
#
# Poissons Ratio (x) = 0.00708 0.44107
# Poissons Ratio (y) = 0.01628 -0.16228
# Poissons Ratio (z) = 0.38904 -0.06224
#
# Static dielectric constant tensor:
#      x y z
#    x 1.762140 0.000000 0.000000 
#    y 0.000000 1.829460 0.000000 
#    z 0.000000 0.000000 1.763330 
# 
# From -- ./inp_files/16779.got.cif
#   From: 2010.05.17/outbox.cif.g08.bks.cpg/sg44_9_cif.got.tgz:16779.got - 2010.06.03 19:37:08.
