data_PCOD9373099
_publ_section_title
;
Structure prediction by ZEFSAII (Michael W. Deem and Ramdas Pophale) SiO2 
 PCOD9373099
Probable space group: I M M 2
;
_chemical_formula_sum "Si O2"
_cell_formula_units_Z 64
_cell_length_a 21.356862
_cell_length_b 7.608974
_cell_length_c 20.497771
_cell_angle_alpha 90.000000
_cell_angle_beta 90.000000
_cell_angle_gamma 90.000000
_cell_volume 3330.965836
_symmetry_space_group_name_H-M "I M M 2"
_symmetry_group_IT_number 44
_symmetry_cell_setting 'orthorhombic'
loop_
_space_group_symop_operation_xyz
x,y,z
-x,-y,z
-x,y,z
x,-y,z
1/2+x,1/2+y,1/2+z
1/2-x,1/2-y,1/2+z
1/2-x,1/2+y,1/2+z
1/2+x,1/2-y,1/2+z
loop_
_atom_site_type_symbol
_atom_site_label
_atom_site_fract_x
_atom_site_fract_y
_atom_site_fract_z
Si Si1 0.309048 0.786679 0.489130
Si Si2 0.273885 0.203726 0.348082
Si Si3 0.732685 0.784118 0.205411
Si Si4 0.568624 0.206029 0.564340
Si Si5 0.569852 0.784857 0.981013
Si Si6 0.183350 0.290513 0.569753
Si Si7 0.128667 0.708988 0.346177
Si Si8 0.877676 0.208981 0.201236
O O1 0.301230 0.720417 0.414909
O O2 0.371539 0.721079 0.525320
O O3 0.247132 0.738823 0.529621
O O4 0.310524 0.000000 0.487734
O O5 0.289477 0.278166 0.276606
O O6 0.198184 0.210876 0.351553
O O7 0.293140 0.000000 0.346844
O O8 0.693607 0.723806 0.143122
O O9 0.805244 0.729819 0.196110
O O10 0.733000 0.000000 0.206588
O O11 0.500000 0.282968 0.550482
O O12 0.583007 0.218136 0.641365
O O13 0.566095 0.000000 0.547521
O O14 0.500000 0.728200 0.998359
O O15 0.587554 0.731971 0.907283
O O16 0.570486 0.000000 0.981846
O O17 0.624132 0.721815 0.029540
O O18 0.174846 0.500000 0.574958
O O19 0.136993 0.500000 0.351401
O O20 0.101504 0.747999 0.274711
O O21 0.877756 0.000000 0.194105
#
# Coordination Sequence:
#
# PCOD9373099 Si02
#       8
#     8   8   8   8   8   8   8   8
#     4  10  19  31  50  72  96 126 162 208 248 288
#     4   9  17  30  47  70  99 126 157 199 250 292
#     4   8  15  27  46  70  93 119 149 193 243 286
#     4  10  21  35  49  69  98 133 169 205 251 302
#     4   9  18  30  45  68  97 128 160 197 240 283
#     4  10  17  30  51  71  92 122 162 203 242 291
#     4  10  18  29  47  70  98 131 167 199 236 289
#     4  10  19  32  49  70  99 129 163 203 245 292
#
# _framework density 19.213646000000001
#
# number of rings (size 3 to 8) (size 9 to 14) (size 15 to 20)
#    0.000    2.500    2.500    1.500    0.000    0.750 
#    0.000    1.250    0.000    3.750    0.000    5.250 
#    0.000    0.000    0.000    2.625    0.000    4.500 
#
# Total GULP energy -178500.170922 kJ/mol
# GULP energy per Si atom -5578.130341 kJ/mol
# Density = 1.916992 g / cm^3
# Si number density = 19.213646 Si / 1000 Ang^3
#
#
#
# Elastic Constant Matrix: (Units=GPa)
#
#
# Indices 1 2 3 4 5 6 
#
# 1 127.3536 -4.2824 86.7466 0.0000 0.0000 0.0000
# 2 -4.2824 39.0016 -3.7157 0.0000 0.0000 0.0000
# 3 86.7466 -3.7157 158.4820 0.0000 0.0000 0.0000
# 4 0.0000 0.0000 0.0000 10.6919 0.0000 0.0000
# 5 0.0000 0.0000 0.0000 0.0000 16.5071 0.0000
# 6 0.0000 0.0000 0.0000 0.0000 0.0000 12.9820
#
#
#
# Elastic Compliance Matrix: (Units=1/GPa)
#
#
# Indices 1 2 3 4 5 6 
#
# 1 0.012540 0.000725 -0.006847 0.000000 0.000000 0.000000
# 2 0.000725 0.025739 0.000207 0.000000 0.000000 0.000000
# 3 -0.006847 0.000207 0.010063 0.000000 0.000000 0.000000
# 4 0.000000 0.000000 0.000000 0.093528 0.000000 0.000000
# 5 0.000000 0.000000 0.000000 0.000000 0.060580 0.000000
# 6 0.000000 0.000000 0.000000 0.000000 0.000000 0.077030
#
#
# Mechanical properties :
#
#
# Convention : Reuss Voigt Hill
#
# Bulk Modulus (GPa) = 27.38908 53.59269 40.49088
# Shear Modulus (GPa) = 16.47542 24.44210 20.45876
#
# Velocity S-wave (km/s) = 2.93146 3.57055 3.26667
# Velocity P-wave (km/s) = 5.07385 6.70463 5.94542
#
# Compressibility (1/GPa) = 0.03651091
#
# Stress axis : x y z
#
# Youngs Moduli (GPa) = 79.74210 38.85115 99.37828
#
# Poissons Ratio (x) = -0.02815 0.68046
# Poissons Ratio (y) = -0.05778 -0.02056
# Poissons Ratio (z) = 0.54600 -0.00804
#
# Static dielectric constant tensor:
#      x y z
#    x 1.650680 0.000000 0.000000 
#    y 0.000000 1.733420 0.000000 
#    z 0.000000 0.000000 1.693070 
# 
# From -- ./inp_files/23437.got.cif
#   From: 2010.05.17/outbox.cif.g08.bks.cpg/sg44_12_cif.got.tgz:23437.got - 2010.06.03 19:37:08.
