data_PCOD9373367
_publ_section_title
;
Structure prediction by ZEFSAII (Michael W. Deem and Ramdas Pophale) SiO2 
 PCOD9373367
Probable space group: I M M 2
;
_chemical_formula_sum "Si O2"
_cell_formula_units_Z 56
_cell_length_a 19.568733
_cell_length_b 8.921525
_cell_length_c 15.499756
_cell_angle_alpha 90.000000
_cell_angle_beta 90.000000
_cell_angle_gamma 90.000000
_cell_volume 2705.992982
_symmetry_space_group_name_H-M "I M M 2"
_symmetry_group_IT_number 44
_symmetry_cell_setting 'orthorhombic'
loop_
_space_group_symop_operation_xyz
x,y,z
-x,-y,z
-x,y,z
x,-y,z
1/2+x,1/2+y,1/2+z
1/2-x,1/2-y,1/2+z
1/2-x,1/2+y,1/2+z
1/2+x,1/2-y,1/2+z
loop_
_atom_site_type_symbol
_atom_site_label
_atom_site_fract_x
_atom_site_fract_y
_atom_site_fract_z
Si Si1 0.422111 0.321397 0.772060
Si Si2 0.422402 0.179939 0.142997
Si Si3 0.353268 0.330359 0.294453
Si Si4 0.144504 0.319776 0.117801
Si Si5 0.500000 0.660181 0.382552
Si Si6 0.724178 0.324516 0.463750
Si Si7 0.500000 0.826140 0.546471
Si Si8 0.112953 0.675136 0.450185
O O1 0.500000 0.274999 0.746214
O O2 0.417079 0.500000 0.762886
O O3 0.363253 0.243000 0.714514
O O4 0.413211 0.271396 0.870615
O O5 0.500000 0.221962 0.169416
O O6 0.363561 0.243923 0.205075
O O7 0.417972 0.000000 0.146159
O O8 0.413172 0.225648 0.043682
O O9 0.328051 0.500000 0.277871
O O10 0.430696 0.338122 0.329516
O O11 0.310197 0.265574 0.374803
O O12 0.148364 0.500000 0.119620
O O13 0.071786 0.264484 0.078657
O O14 0.199665 0.257444 0.050577
O O15 0.500000 0.500000 0.432636
O O16 0.500000 0.800835 0.444847
O O17 0.703356 0.500000 0.470709
O O18 0.805122 0.317500 0.453888
O O19 0.500000 0.000000 0.570436
O O20 0.093074 0.500000 0.437664
#
# Coordination Sequence:
#
# PCOD9373367 Si02
#       8
#     8   8   8   8   4   8   4   8
#     4  11  24  41  64  92 119 153 201 257 311 361
#     4  10  21  37  59  85 111 145 190 240 291 340
#     4  10  20  34  55  84 116 149 186 232 288 346
#     4  11  22  37  60  90 123 158 197 245 302 362
#     4  10  18  30  52  81 114 151 186 235 296 346
#     4  10  22  40  60  87 123 161 198 238 293 359
#     4  10  20  32  52  85 118 151 192 241 294 350
#     4  10  23  43  63  84 117 159 202 248 297 355
#
# _framework density 20.694806
#
# number of rings (size 3 to 8) (size 9 to 14) (size 15 to 20)
#    0.000    1.714    2.857    1.286    0.000    5.429 
#    0.000    2.857    0.000    0.000    0.000    0.000 
#    0.000    0.000    0.000    0.000    0.000    0.000 
#
# Total GULP energy -156228.350123 kJ/mol
# GULP energy per Si atom -5579.583933 kJ/mol
# Density = 2.064770 g / cm^3
# Si number density = 20.694806 Si / 1000 Ang^3
#
#
#
# Elastic Constant Matrix: (Units=GPa)
#
#
# Indices 1 2 3 4 5 6 
#
# 1 42.2042 15.1010 16.6465 0.0000 0.0000 0.0000
# 2 15.1010 38.9678 39.0973 0.0000 0.0000 0.0000
# 3 16.6465 39.0973 121.5172 0.0000 0.0000 0.0000
# 4 0.0000 0.0000 0.0000 32.5823 0.0000 0.0000
# 5 0.0000 0.0000 0.0000 0.0000 26.6220 0.0000
# 6 0.0000 0.0000 0.0000 0.0000 0.0000 18.2909
#
#
#
# Elastic Compliance Matrix: (Units=1/GPa)
#
#
# Indices 1 2 3 4 5 6 
#
# 1 0.027529 -0.010166 -0.000500 0.000000 0.000000 0.000000
# 2 -0.010166 0.041650 -0.012008 0.000000 0.000000 0.000000
# 3 -0.000500 -0.012008 0.012161 0.000000 0.000000 0.000000
# 4 0.000000 0.000000 0.000000 0.030691 0.000000 0.000000
# 5 0.000000 0.000000 0.000000 0.000000 0.037563 0.000000
# 6 0.000000 0.000000 0.000000 0.000000 0.000000 0.054672
#
#
# Mechanical properties :
#
#
# Convention : Reuss Voigt Hill
#
# Bulk Modulus (GPa) = 27.78447 38.26429 33.02438
# Shear Modulus (GPa) = 19.11224 24.28867 21.70045
#
# Velocity S-wave (km/s) = 3.04226 3.42959 3.24171
# Velocity P-wave (km/s) = 5.07892 5.84916 5.47760
#
# Compressibility (1/GPa) = 0.03599133
#
# Stress axis : x y z
#
# Youngs Moduli (GPa) = 36.32500 24.00980 82.22849
#
# Poissons Ratio (x) = 0.24409 0.04113
# Poissons Ratio (y) = 0.36929 0.98738
# Poissons Ratio (z) = 0.01817 0.28830
#
# Static dielectric constant tensor:
#      x y z
#    x 1.739960 0.000000 0.000000 
#    y 0.000000 1.742190 0.000000 
#    z 0.000000 0.000000 1.772350 
# 
# From -- ./inp_files/19267.got.cif
#   From: 2010.05.17/outbox.cif.g08.bks.cpg/sg44_10_cif.got.tgz:19267.got - 2010.06.03 19:37:08.
