data_PCOD9373521
_publ_section_title
;
Structure prediction by ZEFSAII (Michael W. Deem and Ramdas Pophale) SiO2 
 PCOD9373521
Probable space group: I M M 2
;
_chemical_formula_sum "Si O2"
_cell_formula_units_Z 64
_cell_length_a 18.564305
_cell_length_b 16.132285
_cell_length_c 10.615711
_cell_angle_alpha 90.000000
_cell_angle_beta 90.000000
_cell_angle_gamma 90.000000
_cell_volume 3179.242590
_symmetry_space_group_name_H-M "I M M 2"
_symmetry_group_IT_number 44
_symmetry_cell_setting 'orthorhombic'
loop_
_space_group_symop_operation_xyz
x,y,z
-x,-y,z
-x,y,z
x,-y,z
1/2+x,1/2+y,1/2+z
1/2-x,1/2-y,1/2+z
1/2-x,1/2+y,1/2+z
1/2+x,1/2-y,1/2+z
loop_
_atom_site_type_symbol
_atom_site_label
_atom_site_fract_x
_atom_site_fract_y
_atom_site_fract_z
Si Si1 0.855474 0.410869 0.518810
Si Si2 0.586825 0.088085 0.482997
Si Si3 0.415751 0.402940 0.904954
Si Si4 0.914612 0.770171 0.899309
Si Si5 0.584911 0.139810 0.761963
Si Si6 0.773193 0.192048 0.016881
Si Si7 0.915376 0.237002 0.617054
Si Si8 0.692685 0.289795 0.796347
O O1 0.866685 0.500000 0.582456
O O2 0.896423 0.411669 0.385570
O O3 0.771549 0.391631 0.493995
O O4 0.880888 0.325972 0.585280
O O5 0.500000 0.083795 0.480809
O O6 0.603364 0.172115 0.410868
O O7 0.607622 0.100192 0.629294
O O8 0.615550 0.000000 0.435283
O O9 0.500000 0.390587 0.861930
O O10 0.410005 0.500000 0.939323
O O11 0.349796 0.376254 0.814273
O O12 0.403720 0.336968 0.018230
O O13 0.858124 0.814225 0.990064
O O14 0.898385 0.794349 0.756460
O O15 0.000000 0.781194 0.927518
O O16 0.500000 0.155031 0.755565
O O17 0.628061 0.224023 0.781818
O O18 0.739711 0.258603 0.916479
O O19 0.765326 0.214631 0.164219
O O20 0.000000 0.255157 0.615806
#
# Coordination Sequence:
#
# PCOD9373521 Si02
#       8
#     8   8   8   8   8   8   8   8
#     4  11  23  37  57  87 125 165 199 244 308 375
#     4   9  17  30  51  84 120 151 195 252 305 364
#     4  10  21  40  68  97 124 161 215 273 321 374
#     4  10  21  37  61  86 117 167 214 260 320 373
#     4  10  18  33  59  89 119 156 201 253 311 369
#     4  11  23  39  62  86 128 166 214 256 310 375
#     4  10  20  38  62  91 126 162 206 257 314 383
#     4  11  22  38  63  90 126 167 213 260 317 376
#
# _framework density 20.130580999999999
#
# number of rings (size 3 to 8) (size 9 to 14) (size 15 to 20)
#    0.000    1.750    3.750    1.875    0.000    3.000 
#    0.000    2.500    0.000    1.125    0.000    0.000 
#    0.000    0.000    0.000    0.000    0.000    0.000 
#
# Total GULP energy -178295.281004 kJ/mol
# GULP energy per Si atom -5571.727531 kJ/mol
# Density = 2.008476 g / cm^3
# Si number density = 20.130581 Si / 1000 Ang^3
#
#
#
# Elastic Constant Matrix: (Units=GPa)
#
#
# Indices 1 2 3 4 5 6 
#
# 1 57.0901 14.0274 27.5215 0.0000 0.0000 0.0000
# 2 14.0274 74.6500 8.1854 0.0000 0.0000 0.0000
# 3 27.5215 8.1854 90.9541 0.0000 0.0000 0.0000
# 4 0.0000 0.0000 0.0000 -0.9908 0.0000 0.0000
# 5 0.0000 0.0000 0.0000 0.0000 26.9195 0.0000
# 6 0.0000 0.0000 0.0000 0.0000 0.0000 10.3409
#
#
#
# Elastic Compliance Matrix: (Units=1/GPa)
#
#
# Indices 1 2 3 4 5 6 
#
# 1 0.021296 -0.003328 -0.006144 0.000000 0.000000 0.000000
# 2 -0.003328 0.014049 -0.000257 0.000000 0.000000 0.000000
# 3 -0.006144 -0.000257 0.012877 0.000000 0.000000 0.000000
# 4 0.000000 0.000000 0.000000 -1.009306 0.000000 0.000000
# 5 0.000000 0.000000 0.000000 0.000000 0.037148 0.000000
# 6 0.000000 0.000000 0.000000 0.000000 0.000000 0.096703
#
#
# Mechanical properties :
#
#
# Convention : Reuss Voigt Hill
#
# Bulk Modulus (GPa) = 34.76707 35.79587 35.28147
# Shear Modulus (GPa) = -6.26420 18.78460 6.26020
#
# Velocity S-wave (km/s) = -1.76594 3.05804 1.76537
# Velocity P-wave (km/s) = 3.62632 5.50357 4.66044
#
# Compressibility (1/GPa) = 0.02876285
#
# Stress axis : x y z
#
# Youngs Moduli (GPa) = 46.95743 71.17730 77.65834
#
# Poissons Ratio (x) = 0.23687 0.47716
# Poissons Ratio (y) = 0.15627 0.01999
# Poissons Ratio (z) = 0.28852 0.01832
#
# Static dielectric constant tensor:
#      x y z
#    x 1.757520 0.000000 0.000000 
#    y 0.000000 1.721200 0.000000 
#    z 0.000000 0.000000 1.777010 
# 
# From -- ./inp_files/13993.got.cif
#   From: 2010.05.17/outbox.cif.g08.bks.cpg/sg44_7_cif.got.tgz:13993.got - 2010.06.03 19:37:08.
