data_PCOD9373591
_publ_section_title
;
Structure prediction by ZEFSAII (Michael W. Deem and Ramdas Pophale) SiO2 
 PCOD9373591
Probable space group: I M M 2
;
_chemical_formula_sum "Si O2"
_cell_formula_units_Z 64
_cell_length_a 19.397382
_cell_length_b 8.336878
_cell_length_c 22.071733
_cell_angle_alpha 90.000000
_cell_angle_beta 90.000000
_cell_angle_gamma 90.000000
_cell_volume 3569.299562
_symmetry_space_group_name_H-M "I M M 2"
_symmetry_group_IT_number 44
_symmetry_cell_setting 'orthorhombic'
loop_
_space_group_symop_operation_xyz
x,y,z
-x,-y,z
-x,y,z
x,-y,z
1/2+x,1/2+y,1/2+z
1/2-x,1/2-y,1/2+z
1/2-x,1/2+y,1/2+z
1/2+x,1/2-y,1/2+z
loop_
_atom_site_type_symbol
_atom_site_label
_atom_site_fract_x
_atom_site_fract_y
_atom_site_fract_z
Si Si1 0.424054 0.306615 0.429120
Si Si2 0.627696 0.305941 0.561927
Si Si3 0.921924 0.183979 0.379578
Si Si4 0.719642 0.811731 0.385930
Si Si5 0.225893 0.692941 0.514738
Si Si6 0.924915 0.694318 0.517068
Si Si7 0.422637 0.807336 0.690363
Si Si8 0.818321 0.316508 0.289083
O O1 0.500000 0.251226 0.410114
O O2 0.422503 0.500000 0.426704
O O3 0.410588 0.262357 0.499431
O O4 0.359068 0.244858 0.391695
O O5 0.625842 0.500000 0.567195
O O6 0.707201 0.252627 0.552302
O O7 0.593498 0.232417 0.620943
O O8 0.924349 0.238678 0.448840
O O9 0.876179 0.303227 0.341184
O O10 0.000000 0.186271 0.356594
O O11 0.895833 0.000000 0.375177
O O12 0.760396 0.739211 0.444312
O O13 0.753911 0.765532 0.322030
O O14 0.722563 0.000000 0.393683
O O15 0.226825 0.500000 0.516146
O O16 0.151088 0.746352 0.539616
O O17 0.924744 0.500000 0.515996
O O18 0.000000 0.743305 0.543972
O O19 0.500000 0.747856 0.705800
O O20 0.359445 0.744010 0.731750
O O21 0.423292 0.000000 0.698976
O O22 0.799920 0.500000 0.276062
#
# Coordination Sequence:
#
# PCOD9373591 Si02
#       8
#     8   8   8   8   8   8   8   8
#     4   9  18  34  55  77 102 133 165 198 244 303
#     4   9  18  32  51  73  98 130 167 205 247 294
#     4  10  19  28  40  63  93 122 156 198 240 282
#     4  11  21  31  47  73 101 128 161 204 253 298
#     4   9  17  31  48  68  97 131 165 202 246 302
#     4   9  16  26  43  65  90 125 163 195 233 286
#     4  10  22  37  51  70  96 129 171 214 252 292
#     4  11  21  34  49  64  91 131 171 205 241 296
#
# _framework density 17.930689000000001
#
# number of rings (size 3 to 8) (size 9 to 14) (size 15 to 20)
#    0.000    2.250    1.250    3.375    0.000    5.250 
#    0.000    0.000    0.000    0.000    0.000    0.875 
#    0.000    3.000    0.000    0.000    0.000    0.000 
#
# Total GULP energy -178266.733874 kJ/mol
# GULP energy per Si atom -5570.835434 kJ/mol
# Density = 1.788988 g / cm^3
# Si number density = 17.930689 Si / 1000 Ang^3
#
#
#
# Elastic Constant Matrix: (Units=GPa)
#
#
# Indices 1 2 3 4 5 6 
#
# 1 149.0209 12.7808 28.2935 0.0000 0.0000 0.0000
# 2 12.7808 7.1533 2.4665 0.0000 0.0000 0.0000
# 3 28.2935 2.4665 50.4659 0.0000 0.0000 0.0000
# 4 0.0000 0.0000 0.0000 16.7654 0.0000 0.0000
# 5 0.0000 0.0000 0.0000 0.0000 20.6586 0.0000
# 6 0.0000 0.0000 0.0000 0.0000 0.0000 1.2127
#
#
#
# Elastic Compliance Matrix: (Units=1/GPa)
#
#
# Indices 1 2 3 4 5 6 
#
# 1 0.008719 -0.014132 -0.004198 0.000000 0.000000 0.000000
# 2 -0.014132 0.165094 -0.000146 0.000000 0.000000 0.000000
# 3 -0.004198 -0.000146 0.022176 0.000000 0.000000 0.000000
# 4 0.000000 0.000000 0.000000 0.059647 0.000000 0.000000
# 5 0.000000 0.000000 0.000000 0.000000 0.048406 0.000000
# 6 0.000000 0.000000 0.000000 0.000000 0.000000 0.824597
#
#
# Mechanical properties :
#
#
# Convention : Reuss Voigt Hill
#
# Bulk Modulus (GPa) = 6.28778 32.63574 19.46176
# Shear Modulus (GPa) = 4.10306 18.60062 11.35184
#
# Velocity S-wave (km/s) = 1.51435 3.22431 2.51887
# Velocity P-wave (km/s) = 2.56359 5.66587 4.39739
#
# Compressibility (1/GPa) = 0.15903860
#
# Stress axis : x y z
#
# Youngs Moduli (GPa) = 114.68571 6.05714 45.09371
#
# Poissons Ratio (x) = 0.08560 0.18930
# Poissons Ratio (y) = 1.62069 0.00659
# Poissons Ratio (z) = 0.48143 0.00089
#
# Static dielectric constant tensor:
#      x y z
#    x 1.691810 0.000000 0.000000 
#    y 0.000000 1.624350 0.000000 
#    z 0.000000 0.000000 1.587240 
# 
# From -- ./inp_files/24459.got.cif
#   From: 2010.05.17/outbox.cif.g08.bks.cpg/sg44_13_cif.got.tgz:24459.got - 2010.06.03 19:37:08.
