data_PCOD9373768
_publ_section_title
;
Structure prediction by ZEFSAII (Michael W. Deem and Ramdas Pophale) SiO2 
 PCOD9373768
Probable space group: I M M 2
;
_chemical_formula_sum "Si O2"
_cell_formula_units_Z 40
_cell_length_a 9.588652
_cell_length_b 26.701923
_cell_length_c 7.387218
_cell_angle_alpha 90.000000
_cell_angle_beta 90.000000
_cell_angle_gamma 90.000000
_cell_volume 1891.389666
_symmetry_space_group_name_H-M "I M M 2"
_symmetry_group_IT_number 44
_symmetry_cell_setting 'orthorhombic'
loop_
_space_group_symop_operation_xyz
x,y,z
-x,-y,z
-x,y,z
x,-y,z
1/2+x,1/2+y,1/2+z
1/2-x,1/2-y,1/2+z
1/2-x,1/2+y,1/2+z
1/2+x,1/2-y,1/2+z
loop_
_atom_site_type_symbol
_atom_site_label
_atom_site_fract_x
_atom_site_fract_y
_atom_site_fract_z
Si Si1 0.660294 0.198828 0.061950
Si Si2 0.661241 0.096611 0.682537
Si Si3 0.344333 0.907940 0.125779
Si Si4 0.838140 0.000000 0.682759
Si Si5 0.341763 0.500000 0.625167
Si Si6 0.339111 0.689491 0.214112
O O1 0.500000 0.194490 0.986890
O O2 0.676162 0.149567 0.186746
O O3 0.670530 0.254201 0.140526
O O4 0.781933 0.193863 0.916924
O O5 0.500000 0.094460 0.625162
O O6 0.752460 0.049042 0.625028
O O7 0.738671 0.147773 0.627854
O O8 0.660825 0.094932 0.904513
O O9 0.500000 0.924307 0.174805
O O10 0.235805 0.949555 0.184177
O O11 0.000000 0.000000 0.626899
O O12 0.838807 0.000000 0.904180
O O13 0.500000 0.500000 0.684584
O O14 0.500000 0.673051 0.205906
#
# Coordination Sequence:
#
# PCOD9373768 Si02
#       6
#     8   8   8   4   4   8
#     4   9  19  33  47  67  94 122 155 192 230 275
#     4   9  16  26  40  60  88 119 149 184 228 275
#     4   8  14  25  39  55  81 115 144 174 217 266
#     4   9  15  23  37  59  86 115 148 185 226 272
#     4   9  15  21  33  57  84 107 138 179 218 260
#     4  10  19  31  48  69  93 122 156 193 232 276
#
# _framework density 21.148472000000002
#
# number of rings (size 3 to 8) (size 9 to 14) (size 15 to 20)
#    0.000    3.000    0.000    3.000    0.000    8.800 
#    0.000    0.000    0.000    0.000    0.000    1.400 
#    0.000    4.800    0.000    0.000    0.000    0.000 
#
# Total GULP energy -111526.600097 kJ/mol
# GULP energy per Si atom -5576.330005 kJ/mol
# Density = 2.110034 g / cm^3
# Si number density = 21.148472 Si / 1000 Ang^3
#
#
#
# Elastic Constant Matrix: (Units=GPa)
#
#
# Indices 1 2 3 4 5 6 
#
# 1 196.8988 130.7516 16.2677 0.0005 0.0000 0.0027
# 2 130.7516 190.8462 1.3168 -0.0017 -0.0009 0.0013
# 3 16.2677 1.3168 42.5047 0.0015 0.0010 0.0091
# 4 0.0005 -0.0017 0.0015 4.6336 -0.0011 0.0015
# 5 0.0000 -0.0009 0.0010 -0.0011 -3.3757 0.0022
# 6 0.0027 0.0013 0.0091 0.0015 0.0022 67.0634
#
#
#
# Elastic Compliance Matrix: (Units=1/GPa)
#
#
# Indices 1 2 3 4 5 6 
#
# 1 0.009827 -0.006708 -0.003553 -0.000003 0.000001 0.000000
# 2 -0.006708 0.009820 0.002263 0.000004 -0.000002 0.000000
# 3 -0.003553 0.002263 0.024817 -0.000007 0.000007 -0.000003
# 4 -0.000003 0.000004 -0.000007 0.215815 -0.000071 -0.000005
# 5 0.000001 -0.000002 0.000007 -0.000071 -0.296238 0.000010
# 6 0.000000 0.000000 -0.000003 -0.000005 0.000010 0.014911
#
#
# Mechanical properties :
#
#
# Convention : Reuss Voigt Hill
#
# Bulk Modulus (GPa) = 35.12813 80.76912 57.94862
# Shear Modulus (GPa) = 1127.10768 32.45849 579.78309
#
# Velocity S-wave (km/s) = 23.11075 3.92189 16.57541
# Velocity P-wave (km/s) = 26.99609 7.66699 19.84404
#
# Compressibility (1/GPa) = 0.02846722
#
# Stress axis : x y z
#
# Youngs Moduli (GPa) = 101.76296 101.83378 40.29567
#
# Poissons Ratio (x) = 0.68310 0.14318
# Poissons Ratio (y) = 0.68262 -0.09119
# Poissons Ratio (z) = 0.36158 -0.23046
#
# Static dielectric constant tensor:
#      x y z
#    x 1.720880 0.000000 0.000000 
#    y 0.000000 1.785150 0.000000 
#    z 0.000000 0.000000 1.838940 
# 
# From -- ./inp_files/4630.got.cif
#   From: 2010.05.17/outbox.cif.g08.bks.cpg/sg44_3_cif.got.tgz:4630.got - 2010.06.03 19:37:08.
