data_PCOD9373767
_publ_section_title
;
Structure prediction by ZEFSAII (Michael W. Deem and Ramdas Pophale) SiO2 
 PCOD9373767
Probable space group: I M M 2
;
_chemical_formula_sum "Si O2"
_cell_formula_units_Z 64
_cell_length_a 20.498395
_cell_length_b 7.511884
_cell_length_c 21.253371
_cell_angle_alpha 90.000000
_cell_angle_beta 90.000000
_cell_angle_gamma 90.000000
_cell_volume 3272.627337
_symmetry_space_group_name_H-M "I M M 2"
_symmetry_group_IT_number 44
_symmetry_cell_setting 'orthorhombic'
loop_
_space_group_symop_operation_xyz
x,y,z
-x,-y,z
-x,y,z
x,-y,z
1/2+x,1/2+y,1/2+z
1/2-x,1/2-y,1/2+z
1/2-x,1/2+y,1/2+z
1/2+x,1/2-y,1/2+z
loop_
_atom_site_type_symbol
_atom_site_label
_atom_site_fract_x
_atom_site_fract_y
_atom_site_fract_z
Si Si1 0.214819 0.795422 0.656510
Si Si2 0.289661 0.782182 0.533621
Si Si3 0.072463 0.291906 0.613562
Si Si4 0.293591 0.717643 0.911036
Si Si5 0.071993 0.716228 0.987749
Si Si6 0.571515 0.216712 0.339826
Si Si7 0.291212 0.207209 0.296151
Si Si8 0.428073 0.715637 0.965541
O O1 0.252664 0.718907 0.596138
O O2 0.137214 0.786496 0.643977
O O3 0.229884 0.715878 0.724242
O O4 0.234186 0.000000 0.660735
O O5 0.250101 0.730475 0.471085
O O6 0.364579 0.724241 0.525814
O O7 0.288601 0.000000 0.534321
O O8 0.072516 0.500000 0.630265
O O9 0.079826 0.272955 0.538140
O O10 0.000000 0.220064 0.629642
O O11 0.295542 0.500000 0.910237
O O12 0.259383 0.781141 0.847169
O O13 0.367294 0.777447 0.924284
O O14 0.071845 0.500000 0.990052
O O15 0.079310 0.761357 0.913804
O O16 0.000000 0.776722 0.008552
O O17 0.500000 0.279545 0.318410
O O18 0.635635 0.282445 0.304196
O O19 0.569507 0.000000 0.335574
O O20 0.297582 0.000000 0.313417
O O21 0.500000 0.773582 0.944332
O O22 0.427239 0.500000 0.966338
#
# Coordination Sequence:
#
# PCOD9373767 Si02
#       8
#     8   8   8   8   8   8   8   8
#     4  11  22  34  48  67  98 134 166 201 244 294
#     4   9  15  26  45  68  92 122 159 199 240 282
#     4  10  20  33  49  71  99 129 163 202 244 292
#     4   9  15  27  48  71  92 123 163 203 243 283
#     4   8  12  20  39  68  95 115 144 190 239 281
#     4   8  13  22  39  65  92 114 139 178 227 274
#     4  10  19  31  48  68  95 127 160 198 240 286
#     4   9  16  28  49  75  99 125 161 203 249 297
#
# _framework density 19.556152000000001
#
# number of rings (size 3 to 8) (size 9 to 14) (size 15 to 20)
#    0.000    2.750    2.500    1.500    0.000    1.250 
#    0.000    1.875    0.000    0.750    0.000    0.000 
#    0.000    1.500    0.000    0.000    0.000    0.000 
#
# Total GULP energy -178469.988811 kJ/mol
# GULP energy per Si atom -5577.187150 kJ/mol
# Density = 1.951164 g / cm^3
# Si number density = 19.556152 Si / 1000 Ang^3
#
#
#
# Elastic Constant Matrix: (Units=GPa)
#
#
# Indices 1 2 3 4 5 6 
#
# 1 145.4307 0.6862 72.0126 0.0000 0.0000 0.0000
# 2 0.6862 46.0727 -5.8999 0.0000 0.0000 0.0000
# 3 72.0126 -5.8999 102.1305 0.0000 0.0000 0.0000
# 4 0.0000 0.0000 0.0000 7.4820 0.0000 0.0000
# 5 0.0000 0.0000 0.0000 0.0000 21.8387 0.0000
# 6 0.0000 0.0000 0.0000 0.0000 0.0000 -1.6889
#
#
#
# Elastic Compliance Matrix: (Units=1/GPa)
#
#
# Indices 1 2 3 4 5 6 
#
# 1 0.010622 -0.001126 -0.007555 0.000000 0.000000 0.000000
# 2 -0.001126 0.021986 0.002064 0.000000 0.000000 0.000000
# 3 -0.007555 0.002064 0.015238 0.000000 0.000000 0.000000
# 4 0.000000 0.000000 0.000000 0.133655 0.000000 0.000000
# 5 0.000000 0.000000 0.000000 0.000000 0.045790 0.000000
# 6 0.000000 0.000000 0.000000 0.000000 0.000000 -0.592092
#
#
# Mechanical properties :
#
#
# Convention : Reuss Voigt Hill
#
# Bulk Modulus (GPa) = 28.89144 47.47018 38.18081
# Shear Modulus (GPa) = -14.70460 20.64869 2.97204
#
# Velocity S-wave (km/s) = -2.74508 3.25294 1.23412
# Velocity P-wave (km/s) = 2.18136 6.19962 4.64724
#
# Compressibility (1/GPa) = 0.03461233
#
# Stress axis : x y z
#
# Youngs Moduli (GPa) = 94.14077 45.48375 65.62702
#
# Poissons Ratio (x) = 0.05120 0.49581
# Poissons Ratio (y) = 0.10597 -0.13544
# Poissons Ratio (z) = 0.71123 -0.09387
#
# Static dielectric constant tensor:
#      x y z
#    x 1.714700 0.000000 0.000000 
#    y 0.000000 1.761190 0.000000 
#    z 0.000000 0.000000 1.652460 
# 
# From -- ./inp_files/20742.got.cif
#   From: 2010.05.17/outbox.cif.g08.bks.cpg/sg44_11_cif.got.tgz:20742.got - 2010.06.03 19:37:08.
