data_PCOD9373392
_publ_section_title
;
Structure prediction by ZEFSAII (Michael W. Deem and Ramdas Pophale) SiO2 
 PCOD9373392
Probable space group: I M M 2
;
_chemical_formula_sum "Si O2"
_cell_formula_units_Z 64
_cell_length_a 8.557522
_cell_length_b 23.891054
_cell_length_c 19.824494
_cell_angle_alpha 90.000000
_cell_angle_beta 90.000000
_cell_angle_gamma 90.000000
_cell_volume 4053.082515
_symmetry_space_group_name_H-M "I M M 2"
_symmetry_group_IT_number 44
_symmetry_cell_setting 'orthorhombic'
loop_
_space_group_symop_operation_xyz
x,y,z
-x,-y,z
-x,y,z
x,-y,z
1/2+x,1/2+y,1/2+z
1/2-x,1/2-y,1/2+z
1/2-x,1/2+y,1/2+z
1/2+x,1/2-y,1/2+z
loop_
_atom_site_type_symbol
_atom_site_label
_atom_site_fract_x
_atom_site_fract_y
_atom_site_fract_z
Si Si1 0.189781 0.272974 0.397280
Si Si2 0.811279 0.564246 0.891286
Si Si3 0.187071 0.162363 0.479887
Si Si4 0.312174 0.837445 0.026339
Si Si5 0.311009 0.747614 0.750474
Si Si6 0.187276 0.064370 0.114195
Si Si7 0.312322 0.120872 0.250065
Si Si8 0.312372 0.772158 0.602368
O O1 0.236751 0.213202 0.429702
O O2 0.238483 0.320391 0.450556
O O3 0.243747 0.275799 0.320211
O O4 0.000000 0.273564 0.396709
O O5 0.759710 0.500000 0.897732
O O6 0.748154 0.604812 0.949238
O O7 0.762976 0.589614 0.818779
O O8 0.000000 0.565203 0.893129
O O9 0.251180 0.179604 0.552960
O O10 0.000000 0.162242 0.481915
O O11 0.500000 0.838474 0.028930
O O12 0.246472 0.894835 0.055364
O O13 0.253908 0.786374 0.073388
O O14 0.500000 0.746446 0.751489
O O15 0.253050 0.683718 0.749728
O O16 0.263508 0.776521 0.680443
O O17 0.252754 0.088187 0.184538
O O18 0.000000 0.066799 0.116676
O O19 0.236044 0.000000 0.104974
O O20 0.500000 0.122926 0.248236
O O21 0.500000 0.770165 0.598919
#
# Coordination Sequence:
#
# PCOD9373392 Si02
#       8
#     8   8   8   8   8   8   8   8
#     4   8  16  30  48  70  96 124 156 197 243 288
#     4  10  21  35  49  69  99 132 167 206 248 293
#     4  10  19  32  50  70  96 129 166 206 243 285
#     4  10  19  32  50  72  97 126 162 205 247 289
#     4  10  18  31  50  72  99 131 163 195 239 294
#     4  11  23  36  49  67  95 134 174 206 241 289
#     4  11  21  32  48  71 100 131 166 204 242 285
#     4  10  19  30  49  72  99 130 161 199 245 294
#
# _framework density 15.790452
#
# number of rings (size 3 to 8) (size 9 to 14) (size 15 to 20)
#    0.000    2.000    2.500    3.000    0.000    2.750 
#    0.000    0.625    0.000    0.000    0.000    0.875 
#    0.000    3.000    0.000    0.000    0.000    0.000 
#
# Total GULP energy -178528.683872 kJ/mol
# GULP energy per Si atom -5579.021371 kJ/mol
# Density = 1.575451 g / cm^3
# Si number density = 15.790452 Si / 1000 Ang^3
#
#
#
# Elastic Constant Matrix: (Units=GPa)
#
#
# Indices 1 2 3 4 5 6 
#
# 1 19.5916 14.1862 26.4433 0.0000 0.0000 0.0000
# 2 14.1862 92.2149 78.3379 0.0000 0.0000 0.0000
# 3 26.4433 78.3379 164.7552 0.0000 0.0000 0.0000
# 4 0.0000 0.0000 0.0000 19.9041 0.0000 0.0000
# 5 0.0000 0.0000 0.0000 0.0000 17.0962 0.0000
# 6 0.0000 0.0000 0.0000 0.0000 0.0000 21.8064
#
#
#
# Elastic Compliance Matrix: (Units=1/GPa)
#
#
# Indices 1 2 3 4 5 6 
#
# 1 0.065359 -0.001918 -0.009578 0.000000 0.000000 0.000000
# 2 -0.001918 0.018249 -0.008369 0.000000 0.000000 0.000000
# 3 -0.009578 -0.008369 0.011586 0.000000 0.000000 0.000000
# 4 0.000000 0.000000 0.000000 0.050241 0.000000 0.000000
# 5 0.000000 0.000000 0.000000 0.000000 0.058492 0.000000
# 6 0.000000 0.000000 0.000000 0.000000 0.000000 0.045858
#
#
# Mechanical properties :
#
#
# Convention : Reuss Voigt Hill
#
# Bulk Modulus (GPa) = 18.02984 57.16628 37.59806
# Shear Modulus (GPa) = 16.23353 22.26763 19.25058
#
# Velocity S-wave (km/s) = 3.20982 3.75933 3.49539
# Velocity P-wave (km/s) = 5.01799 7.42463 6.33661
#
# Compressibility (1/GPa) = 0.05546360
#
# Stress axis : x y z
#
# Youngs Moduli (GPa) = 15.30014 54.79722 86.30851
#
# Poissons Ratio (x) = 0.10509 0.82668
# Poissons Ratio (y) = 0.02934 0.72234
# Poissons Ratio (z) = 0.14655 0.45861
#
# Static dielectric constant tensor:
#      x y z
#    x 1.534390 0.000000 0.000000 
#    y 0.000000 1.498240 0.000000 
#    z 0.000000 0.000000 1.545600 
# 
# From -- ./inp_files/23430.got.cif
#   From: 2010.05.17/outbox.cif.g08.bks.cpg/sg44_12_cif.got.tgz:23430.got - 2010.06.03 19:37:08.
