data_PCOD9373264
_publ_section_title
;
Structure prediction by ZEFSAII (Michael W. Deem and Ramdas Pophale) SiO2 
 PCOD9373264
Probable space group: I M M 2
;
_chemical_formula_sum "Si O2"
_cell_formula_units_Z 64
_cell_length_a 8.508426
_cell_length_b 24.072264
_cell_length_c 19.763889
_cell_angle_alpha 90.000000
_cell_angle_beta 90.000000
_cell_angle_gamma 90.000000
_cell_volume 4047.981973
_symmetry_space_group_name_H-M "I M M 2"
_symmetry_group_IT_number 44
_symmetry_cell_setting 'orthorhombic'
loop_
_space_group_symop_operation_xyz
x,y,z
-x,-y,z
-x,y,z
x,-y,z
1/2+x,1/2+y,1/2+z
1/2-x,1/2-y,1/2+z
1/2-x,1/2+y,1/2+z
1/2+x,1/2-y,1/2+z
loop_
_atom_site_type_symbol
_atom_site_label
_atom_site_fract_x
_atom_site_fract_y
_atom_site_fract_z
Si Si1 0.311704 0.063817 0.111710
Si Si2 0.810446 0.247641 0.252810
Si Si3 0.692107 0.436828 0.891942
Si Si4 0.186447 0.836556 0.027498
Si Si5 0.690242 0.618264 0.749681
Si Si6 0.688272 0.269992 0.108508
Si Si7 0.310211 0.775899 0.900753
Si Si8 0.690752 0.336004 0.981150
O O1 0.500000 0.065140 0.109710
O O2 0.246702 0.104567 0.054112
O O3 0.255895 0.088352 0.183553
O O4 0.258955 0.000000 0.104671
O O5 0.760497 0.182808 0.252565
O O6 0.751110 0.274991 0.184061
O O7 0.759417 0.276327 0.322762
O O8 0.000000 0.247604 0.252655
O O9 0.500000 0.436908 0.892991
O O10 0.744930 0.500000 0.901183
O O11 0.737405 0.412981 0.818466
O O12 0.746379 0.393563 0.949189
O O13 0.256734 0.788462 0.076116
O O14 0.000000 0.834234 0.033235
O O15 0.238847 0.820716 0.951746
O O16 0.500000 0.617358 0.746068
O O17 0.500000 0.269809 0.109485
O O18 0.742902 0.317453 0.055793
O O19 0.500000 0.780452 0.903706
O O20 0.269055 0.715249 0.931515
O O21 0.500000 0.338264 0.982469
#
# Coordination Sequence:
#
# PCOD9373264 Si02
#       8
#     8   8   8   8   8   8   8   8
#     4  11  23  36  49  67  95 132 168 199 238 289
#     4  10  18  29  48  72  98 127 157 194 239 292
#     4   9  15  24  42  67  93 123 160 195 229 271
#     4  11  21  33  49  70  94 122 161 205 244 285
#     4  10  18  29  46  70  98 128 162 200 233 272
#     4  10  19  30  47  66  93 128 160 198 242 287
#     4   9  17  31  49  67  94 126 154 190 243 296
#     4   8  14  26  41  61  88 120 154 189 230 274
#
# _framework density 15.810347
#
# number of rings (size 3 to 8) (size 9 to 14) (size 15 to 20)
#    0.000    2.250    2.500    3.000    0.000    2.000 
#    0.000    0.000    0.000    0.000    0.000    0.875 
#    0.000    3.000    0.000    0.000    0.000    0.000 
#
# Total GULP energy -178464.370382 kJ/mol
# GULP energy per Si atom -5577.011574 kJ/mol
# Density = 1.577436 g / cm^3
# Si number density = 15.810347 Si / 1000 Ang^3
#
#
#
# Elastic Constant Matrix: (Units=GPa)
#
#
# Indices 1 2 3 4 5 6 
#
# 1 16.6247 16.8062 23.7521 0.0000 0.0000 0.0000
# 2 16.8062 102.8645 77.9189 0.0000 0.0000 0.0000
# 3 23.7521 77.9189 157.0883 0.0000 0.0000 0.0000
# 4 0.0000 0.0000 0.0000 20.2053 0.0000 0.0000
# 5 0.0000 0.0000 0.0000 0.0000 24.9118 0.0000
# 6 0.0000 0.0000 0.0000 0.0000 0.0000 11.3923
#
#
#
# Elastic Compliance Matrix: (Units=1/GPa)
#
#
# Indices 1 2 3 4 5 6 
#
# 1 0.079113 -0.006190 -0.008891 0.000000 0.000000 0.000000
# 2 -0.006190 0.016057 -0.007029 0.000000 0.000000 0.000000
# 3 -0.008891 -0.007029 0.011197 0.000000 0.000000 0.000000
# 4 0.000000 0.000000 0.000000 0.049492 0.000000 0.000000
# 5 0.000000 0.000000 0.000000 0.000000 0.040142 0.000000
# 6 0.000000 0.000000 0.000000 0.000000 0.000000 0.087779
#
#
# Mechanical properties :
#
#
# Convention : Reuss Voigt Hill
#
# Bulk Modulus (GPa) = 16.09123 57.05909 36.57516
# Shear Modulus (GPa) = 14.33834 21.84189 18.09011
#
# Velocity S-wave (km/s) = 3.01474 3.72088 3.38626
# Velocity P-wave (km/s) = 4.72419 7.39107 6.20266
#
# Compressibility (1/GPa) = 0.06214566
#
# Stress axis : x y z
#
# Youngs Moduli (GPa) = 12.64013 62.27804 89.31301
#
# Poissons Ratio (x) = 0.38553 0.79412
# Poissons Ratio (y) = 0.07825 0.62774
# Poissons Ratio (z) = 0.11239 0.43773
#
# Static dielectric constant tensor:
#      x y z
#    x 1.541600 0.000000 0.000000 
#    y 0.000000 1.516110 0.000000 
#    z 0.000000 0.000000 1.531780 
# 
# From -- ./inp_files/20866.got.cif
#   From: 2010.05.17/outbox.cif.g08.bks.cpg/sg44_11_cif.got.tgz:20866.got - 2010.06.03 19:37:08.
