data_PCOD9373734
_publ_section_title
;
Structure prediction by ZEFSAII (Michael W. Deem and Ramdas Pophale) SiO2 
 PCOD9373734
Probable space group: I M M 2
;
_chemical_formula_sum "Si O2"
_cell_formula_units_Z 64
_cell_length_a 13.944370
_cell_length_b 29.869295
_cell_length_c 8.931699
_cell_angle_alpha 90.000000
_cell_angle_beta 90.000000
_cell_angle_gamma 90.000000
_cell_volume 3720.128563
_symmetry_space_group_name_H-M "I M M 2"
_symmetry_group_IT_number 44
_symmetry_cell_setting 'orthorhombic'
loop_
_space_group_symop_operation_xyz
x,y,z
-x,-y,z
-x,y,z
x,-y,z
1/2+x,1/2+y,1/2+z
1/2-x,1/2-y,1/2+z
1/2-x,1/2+y,1/2+z
1/2+x,1/2-y,1/2+z
loop_
_atom_site_type_symbol
_atom_site_label
_atom_site_fract_x
_atom_site_fract_y
_atom_site_fract_z
Si Si1 0.891323 0.670482 0.701460
Si Si2 0.386045 0.688671 0.620384
Si Si3 0.386271 0.373664 0.893052
Si Si4 0.783560 0.628152 0.125808
Si Si5 0.785650 0.050507 0.204828
Si Si6 0.383728 0.215405 0.499216
Si Si7 0.752913 0.873425 0.972624
Si Si8 0.891824 0.577393 0.889558
O O1 0.861737 0.708440 0.821770
O O2 0.822189 0.657845 0.565255
O O3 0.893314 0.625258 0.802281
O O4 0.000000 0.679612 0.649903
O O5 0.500000 0.690713 0.624707
O O6 0.357176 0.667214 0.780782
O O7 0.352165 0.737618 0.570465
O O8 0.351560 0.653096 0.497698
O O9 0.500000 0.371666 0.922908
O O10 0.358732 0.418581 0.800386
O O11 0.317675 0.372544 0.036950
O O12 0.772659 0.622127 0.301157
O O13 0.834313 0.675169 0.088064
O O14 0.849856 0.589842 0.051376
O O15 0.762133 0.079134 0.056504
O O16 0.687179 0.049692 0.300353
O O17 0.818808 0.000000 0.178028
O O18 0.500000 0.211414 0.510015
O O19 0.000000 0.559927 0.892449
#
# Coordination Sequence:
#
# PCOD9373734 Si02
#       8
#     8   8   8   8   8   8   8   8
#     4   8  15  29  48  68  94 129 166 201 237 283
#     4   9  18  33  51  70  96 132 174 218 256 290
#     4   9  19  36  55  74  98 130 169 212 256 298
#     4  10  19  30  49  75 104 137 165 199 249 304
#     4   9  18  34  55  75  94 124 169 213 254 304
#     4   9  17  31  51  73  98 133 177 215 244 284
#     4  10  20  31  47  74 105 136 164 201 254 306
#     4   8  15  30  50  71  96 126 161 201 244 291
#
# _framework density 17.203707000000001
#
# number of rings (size 3 to 8) (size 9 to 14) (size 15 to 20)
#    0.000    3.000    0.000    3.375    0.000    4.000 
#    0.000    2.500    0.000    5.250    0.000    0.000 
#    0.000    0.000    0.000    0.000    0.000    0.000 
#
# Total GULP energy -178177.646353 kJ/mol
# GULP energy per Si atom -5568.051449 kJ/mol
# Density = 1.716455 g / cm^3
# Si number density = 17.203707 Si / 1000 Ang^3
#
#
#
# Elastic Constant Matrix: (Units=GPa)
#
#
# Indices 1 2 3 4 5 6 
#
# 1 61.1413 18.2641 26.6743 0.0004 -0.0001 0.0001
# 2 18.2641 102.2405 38.5572 0.0005 -0.0001 0.0000
# 3 26.6743 38.5572 121.2808 -0.0006 0.0007 0.0000
# 4 0.0004 0.0005 -0.0006 7.8122 0.0000 -0.0001
# 5 -0.0001 -0.0001 0.0007 0.0000 15.9017 -0.0001
# 6 0.0001 0.0000 0.0000 -0.0001 -0.0001 11.3361
#
#
#
# Elastic Compliance Matrix: (Units=1/GPa)
#
#
# Indices 1 2 3 4 5 6 
#
# 1 0.018447 -0.002006 -0.003419 -0.000001 0.000000 0.000000
# 2 -0.002006 0.011331 -0.003161 -0.000001 0.000000 0.000000
# 3 -0.003419 -0.003161 0.010002 0.000001 0.000000 0.000000
# 4 -0.000001 -0.000001 0.000001 0.128005 0.000000 0.000001
# 5 0.000000 0.000000 0.000000 0.000000 0.062887 0.000000
# 6 0.000000 0.000000 0.000000 0.000001 0.000000 0.088214
#
#
# Mechanical properties :
#
#
# Convention : Reuss Voigt Hill
#
# Bulk Modulus (GPa) = 44.23333 50.18378 47.20855
# Shear Modulus (GPa) = 14.55204 20.42111 17.48657
#
# Velocity S-wave (km/s) = 2.91153 3.44905 3.19163
# Velocity P-wave (km/s) = 6.08852 6.71528 6.40956
#
# Compressibility (1/GPa) = 0.02260739
#
# Stress axis : x y z
#
# Youngs Moduli (GPa) = 54.21072 88.25073 99.97572
#
# Poissons Ratio (x) = 0.17701 0.34186
# Poissons Ratio (y) = 0.10873 0.31605
# Poissons Ratio (z) = 0.18537 0.27899
#
# Static dielectric constant tensor:
#      x y z
#    x 1.623110 0.000000 0.000000 
#    y 0.000000 1.593150 0.000000 
#    z 0.000000 0.000000 1.572620 
# 
# From -- ./inp_files/7696.got.cif
#   From: 2010.05.17/outbox.cif.g08.bks.cpg/sg44_4_cif.got.tgz:7696.got - 2010.06.03 19:37:08.
