data_PCOD9373890
_publ_section_title
;
Structure prediction by ZEFSAII (Michael W. Deem and Ramdas Pophale) SiO2 
 PCOD9373890
Probable space group: I M M 2
;
_chemical_formula_sum "Si O2"
_cell_formula_units_Z 64
_cell_length_a 20.149516
_cell_length_b 7.705307
_cell_length_c 21.689141
_cell_angle_alpha 90.000000
_cell_angle_beta 90.000000
_cell_angle_gamma 90.000000
_cell_volume 3367.417136
_symmetry_space_group_name_H-M "I M M 2"
_symmetry_group_IT_number 44
_symmetry_cell_setting 'orthorhombic'
loop_
_space_group_symop_operation_xyz
x,y,z
-x,-y,z
-x,y,z
x,-y,z
1/2+x,1/2+y,1/2+z
1/2-x,1/2-y,1/2+z
1/2-x,1/2+y,1/2+z
1/2+x,1/2-y,1/2+z
loop_
_atom_site_type_symbol
_atom_site_label
_atom_site_fract_x
_atom_site_fract_y
_atom_site_fract_z
Si Si1 0.712315 0.703919 0.496430
Si Si2 0.073427 0.790612 0.420166
Si Si3 0.210591 0.205630 0.618193
Si Si4 0.074305 0.708080 0.942144
Si Si5 0.926374 0.212049 0.563784
Si Si6 0.926838 0.205496 0.798903
Si Si7 0.214293 0.294896 0.374752
Si Si8 0.213514 0.213198 0.752533
O O1 0.725770 0.500000 0.497839
O O2 0.740766 0.772030 0.560538
O O3 0.634515 0.732427 0.484698
O O4 0.750731 0.779341 0.436435
O O5 0.081584 0.737914 0.491890
O O6 0.135822 0.727662 0.381652
O O7 0.000000 0.733249 0.399809
O O8 0.074293 0.000000 0.419314
O O9 0.137587 0.275989 0.600546
O O10 0.235060 0.270905 0.684497
O O11 0.201344 0.000000 0.625794
O O12 0.074803 0.500000 0.940615
O O13 0.085468 0.771833 0.872078
O O14 0.000000 0.765848 0.960537
O O15 0.000000 0.266842 0.584831
O O16 0.926199 0.000000 0.565260
O O17 0.862581 0.270651 0.763317
O O18 0.000000 0.279731 0.785194
O O19 0.929996 0.000000 0.786371
O O20 0.229476 0.500000 0.375001
O O21 0.243762 0.224999 0.310896
O O22 0.215122 0.000000 0.754420
#
# Coordination Sequence:
#
# PCOD9373890 Si02
#       8
#     8   8   8   8   8   8   8   8
#     4  11  21  34  53  75 103 135 170 212 255 304
#     4   9  17  30  49  74 100 124 160 209 252 291
#     4  10  19  32  52  73 101 137 174 214 253 299
#     4  10  20  33  52  79 105 130 168 214 257 303
#     4   8  14  25  43  70 100 127 159 200 244 289
#     4   9  16  29  49  73 105 142 175 206 246 297
#     4  10  19  32  50  73 102 134 169 205 245 298
#     4   9  18  32  48  73 104 136 173 211 249 295
#
# _framework density 19.005665
#
# number of rings (size 3 to 8) (size 9 to 14) (size 15 to 20)
#    0.000    2.500    2.500    1.500    0.000    2.000 
#    0.000    3.750    0.000    1.125    0.000    1.750 
#    0.000    0.000    0.000    0.000    0.000    0.000 
#
# Total GULP energy -178464.079745 kJ/mol
# GULP energy per Si atom -5577.002492 kJ/mol
# Density = 1.896241 g / cm^3
# Si number density = 19.005665 Si / 1000 Ang^3
#
#
#
# Elastic Constant Matrix: (Units=GPa)
#
#
# Indices 1 2 3 4 5 6 
#
# 1 104.0262 -11.0025 80.1530 0.0000 0.0000 0.0000
# 2 -11.0025 24.4319 4.8295 0.0000 0.0000 0.0000
# 3 80.1530 4.8295 134.1796 0.0000 0.0000 0.0000
# 4 0.0000 0.0000 0.0000 10.8859 0.0000 0.0000
# 5 0.0000 0.0000 0.0000 0.0000 21.5114 0.0000
# 6 0.0000 0.0000 0.0000 0.0000 0.0000 14.9522
#
#
#
# Elastic Compliance Matrix: (Units=1/GPa)
#
#
# Indices 1 2 3 4 5 6 
#
# 1 0.020749 0.011878 -0.012822 0.000000 0.000000 0.000000
# 2 0.011878 0.048023 -0.008824 0.000000 0.000000 0.000000
# 3 -0.012822 -0.008824 0.015429 0.000000 0.000000 0.000000
# 4 0.000000 0.000000 0.000000 0.091862 0.000000 0.000000
# 5 0.000000 0.000000 0.000000 0.000000 0.046487 0.000000
# 6 0.000000 0.000000 0.000000 0.000000 0.000000 0.066880
#
#
# Mechanical properties :
#
#
# Convention : Reuss Voigt Hill
#
# Bulk Modulus (GPa) = 15.46399 45.62198 30.54299
# Shear Modulus (GPa) = 15.12765 22.04708 18.58736
#
# Velocity S-wave (km/s) = 2.82433 3.40961 3.13068
# Velocity P-wave (km/s) = 4.33474 6.28945 5.40125
#
# Compressibility (1/GPa) = 0.06466634
#
# Stress axis : x y z
#
# Youngs Moduli (GPa) = 48.19603 20.82314 64.81096
#
# Poissons Ratio (x) = -0.24734 0.83099
# Poissons Ratio (y) = -0.57249 0.57190
# Poissons Ratio (z) = 0.61796 0.18374
#
# Static dielectric constant tensor:
#      x y z
#    x 1.666700 0.000000 0.000000 
#    y 0.000000 1.713360 0.000000 
#    z 0.000000 0.000000 1.659090 
# 
# From -- ./inp_files/20741.got.cif
#   From: 2010.05.17/outbox.cif.g08.bks.cpg/sg44_11_cif.got.tgz:20741.got - 2010.06.03 19:37:08.
