data_PCOD9373695
_publ_section_title
;
Structure prediction by ZEFSAII (Michael W. Deem and Ramdas Pophale) SiO2 
 PCOD9373695
Probable space group: I M M 2
;
_chemical_formula_sum "Si O2"
_cell_formula_units_Z 64
_cell_length_a 21.055447
_cell_length_b 7.491107
_cell_length_c 20.403622
_cell_angle_alpha 90.000000
_cell_angle_beta 90.000000
_cell_angle_gamma 90.000000
_cell_volume 3218.234864
_symmetry_space_group_name_H-M "I M M 2"
_symmetry_group_IT_number 44
_symmetry_cell_setting 'orthorhombic'
loop_
_space_group_symop_operation_xyz
x,y,z
-x,-y,z
-x,y,z
x,-y,z
1/2+x,1/2+y,1/2+z
1/2-x,1/2-y,1/2+z
1/2-x,1/2+y,1/2+z
1/2+x,1/2-y,1/2+z
loop_
_atom_site_type_symbol
_atom_site_label
_atom_site_fract_x
_atom_site_fract_y
_atom_site_fract_z
Si Si1 0.927734 0.717633 0.080620
Si Si2 0.824964 0.281023 0.186217
Si Si3 0.427376 0.217817 0.431191
Si Si4 0.928983 0.787224 0.589081
Si Si5 0.823286 0.710630 0.827818
Si Si6 0.816473 0.793261 0.677249
Si Si7 0.322437 0.784838 0.835762
Si Si8 0.928129 0.284882 0.437141
O O1 0.926915 0.500000 0.080984
O O2 0.877476 0.777745 0.134487
O O3 0.000000 0.772062 0.095661
O O4 0.912966 0.772784 0.005987
O O5 0.824476 0.500000 0.186358
O O6 0.754170 0.217929 0.167744
O O7 0.836905 0.225623 0.261325
O O8 0.500000 0.271143 0.415599
O O9 0.375081 0.279805 0.379327
O O10 0.426459 0.000000 0.430887
O O11 0.873870 0.713337 0.635560
O O12 0.913904 0.760115 0.512577
O O13 0.000000 0.714459 0.601011
O O14 0.932516 0.000000 0.600637
O O15 0.833642 0.500000 0.820765
O O16 0.829527 0.788375 0.754935
O O17 0.750650 0.737740 0.850730
O O18 0.811786 0.000000 0.656943
O O19 0.374153 0.718716 0.887681
O O20 0.325306 0.000000 0.835675
O O21 0.929292 0.500000 0.432246
O O22 0.000000 0.221157 0.422476
#
# Coordination Sequence:
#
# PCOD9373695 Si02
#       8
#     8   8   8   8   8   8   8   8
#     4   8  13  22  38  61  87 111 138 177 222 263
#     4   8  14  25  41  60  83 114 147 177 214 262
#     4   8  15  27  41  62  93 120 143 182 232 271
#     4   9  18  32  49  69  93 121 154 194 239 286
#     4  10  19  30  47  69  92 121 158 195 230 275
#     4   9  18  32  47  64  91 122 150 186 232 278
#     4   9  18  32  47  66  97 128 153 189 234 276
#     4   9  18  32  49  69  94 125 159 195 237 284
#
# _framework density 19.886679999999998
#
# number of rings (size 3 to 8) (size 9 to 14) (size 15 to 20)
#    0.000    3.250    0.000    1.875    0.000    3.000 
#    0.000    5.000    0.000    1.125    0.000    0.875 
#    0.000    8.000    0.000    0.000    0.000    0.000 
#
# Total GULP energy -178429.029024 kJ/mol
# GULP energy per Si atom -5575.907157 kJ/mol
# Density = 1.984142 g / cm^3
# Si number density = 19.886680 Si / 1000 Ang^3
#
#
#
# Elastic Constant Matrix: (Units=GPa)
#
#
# Indices 1 2 3 4 5 6 
#
# 1 187.7743 -3.2581 139.8970 0.0000 0.0000 0.0000
# 2 -3.2581 52.7489 -8.3868 0.0000 0.0000 0.0000
# 3 139.8970 -8.3868 120.1382 0.0000 0.0000 0.0000
# 4 0.0000 0.0000 0.0000 13.4843 0.0000 0.0000
# 5 0.0000 0.0000 0.0000 0.0000 48.8344 0.0000
# 6 0.0000 0.0000 0.0000 0.0000 0.0000 9.6566
#
#
#
# Elastic Compliance Matrix: (Units=1/GPa)
#
#
# Indices 1 2 3 4 5 6 
#
# 1 0.041568 -0.005186 -0.048767 0.000000 0.000000 0.000000
# 2 -0.005186 0.019818 0.007423 0.000000 0.000000 0.000000
# 3 -0.048767 0.007423 0.065630 0.000000 0.000000 0.000000
# 4 0.000000 0.000000 0.000000 0.074160 0.000000 0.000000
# 5 0.000000 0.000000 0.000000 0.000000 0.020477 0.000000
# 6 0.000000 0.000000 0.000000 0.000000 0.000000 0.103557
#
#
# Mechanical properties :
#
#
# Convention : Reuss Voigt Hill
#
# Bulk Modulus (GPa) = 29.45143 68.57396 49.01269
# Shear Modulus (GPa) = 11.63903 29.88900 20.76401
#
# Velocity S-wave (km/s) = 2.42185 3.88102 3.23478
# Velocity P-wave (km/s) = 4.76049 7.39191 6.21701
#
# Compressibility (1/GPa) = 0.03395421
#
# Stress axis : x y z
#
# Youngs Moduli (GPa) = 24.05677 50.46032 15.23704
#
# Poissons Ratio (x) = 0.26170 0.74307
# Poissons Ratio (y) = 0.12476 -0.11310
# Poissons Ratio (z) = 1.17318 -0.37455
#
# Static dielectric constant tensor:
#      x y z
#    x 1.691690 0.000000 0.000000 
#    y 0.000000 1.779030 0.000000 
#    z 0.000000 0.000000 1.662640 
# 
# From -- ./inp_files/22279.got.cif
#   From: 2010.05.17/outbox.cif.g08.bks.cpg/sg44_12_cif.got.tgz:22279.got - 2010.06.03 19:37:08.
