data_PCOD9373704
_publ_section_title
;
Structure prediction by ZEFSAII (Michael W. Deem and Ramdas Pophale) SiO2 
 PCOD9373704
Probable space group: I M M 2
;
_chemical_formula_sum "Si O2"
_cell_formula_units_Z 48
_cell_length_a 14.067402
_cell_length_b 9.062874
_cell_length_c 24.326749
_cell_angle_alpha 90.000000
_cell_angle_beta 90.000000
_cell_angle_gamma 90.000000
_cell_volume 3101.443791
_symmetry_space_group_name_H-M "I M M 2"
_symmetry_group_IT_number 44
_symmetry_cell_setting 'orthorhombic'
loop_
_space_group_symop_operation_xyz
x,y,z
-x,-y,z
-x,y,z
x,-y,z
1/2+x,1/2+y,1/2+z
1/2-x,1/2-y,1/2+z
1/2-x,1/2+y,1/2+z
1/2+x,1/2-y,1/2+z
loop_
_atom_site_type_symbol
_atom_site_label
_atom_site_fract_x
_atom_site_fract_y
_atom_site_fract_z
Si Si1 0.609019 0.676955 0.013320
Si Si2 0.888732 0.323208 0.727619
Si Si3 0.286893 0.822962 0.115135
Si Si4 0.791545 0.324011 0.945886
Si Si5 0.611372 0.323926 0.342879
Si Si6 0.390340 0.177025 0.561455
O O1 0.500000 0.712369 0.000367
O O2 0.616684 0.500000 0.022316
O O3 0.643716 0.757878 0.068344
O O4 0.684809 0.713531 0.965713
O O5 0.881778 0.500000 0.734938
O O6 0.826109 0.280941 0.675056
O O7 0.860970 0.244074 0.784066
O O8 0.000000 0.288623 0.716515
O O9 0.183434 0.758046 0.101220
O O10 0.285860 0.000000 0.111375
O O11 0.796940 0.500000 0.936344
O O12 0.827267 0.240381 0.892499
O O13 0.857506 0.289812 0.998902
O O14 0.500000 0.284268 0.352048
O O15 0.618514 0.500000 0.341041
O O16 0.500000 0.217531 0.569770
O O17 0.380553 0.000000 0.568221
#
# Coordination Sequence:
#
# PCOD9373704 Si02
#       6
#     8   8   8   8   8   8
#     4   9  18  32  49  69  94 125 158 189 225 273
#     4   9  18  32  48  66  91 123 154 184 224 275
#     4  10  19  30  47  72  98 122 152 191 233 275
#     4   9  17  30  48  68  91 121 154 186 224 271
#     4  10  20  31  45  68  94 119 150 189 231 272
#     4   9  18  32  49  69  94 126 160 189 223 272
#
# _framework density 15.476663
#
# number of rings (size 3 to 8) (size 9 to 14) (size 15 to 20)
#    0.000    2.667    0.000    3.000    0.000    7.000 
#    0.000    1.667    0.000    1.000    0.000    2.333 
#    0.000    0.000    0.000    0.000    0.000    0.000 
#
# Total GULP energy -133815.032346 kJ/mol
# GULP energy per Si atom -5575.626348 kJ/mol
# Density = 1.544144 g / cm^3
# Si number density = 15.476663 Si / 1000 Ang^3
#
#
#
# Elastic Constant Matrix: (Units=GPa)
#
#
# Indices 1 2 3 4 5 6 
#
# 1 128.6891 47.3150 88.3262 0.0000 0.0000 0.0000
# 2 47.3150 34.2398 58.3404 0.0000 0.0000 0.0000
# 3 88.3262 58.3404 148.4777 0.0000 0.0000 0.0000
# 4 0.0000 0.0000 0.0000 29.1331 0.0000 0.0000
# 5 0.0000 0.0000 0.0000 0.0000 21.3739 0.0000
# 6 0.0000 0.0000 0.0000 0.0000 0.0000 23.4102
#
#
#
# Elastic Compliance Matrix: (Units=1/GPa)
#
#
# Indices 1 2 3 4 5 6 
#
# 1 0.016104 -0.017945 -0.002529 0.000000 0.000000 0.000000
# 2 -0.017945 0.108362 -0.031903 0.000000 0.000000 0.000000
# 3 -0.002529 -0.031903 0.020775 0.000000 0.000000 0.000000
# 4 0.000000 0.000000 0.000000 0.034325 0.000000 0.000000
# 5 0.000000 0.000000 0.000000 0.000000 0.046786 0.000000
# 6 0.000000 0.000000 0.000000 0.000000 0.000000 0.042716
#
#
# Mechanical properties :
#
#
# Convention : Reuss Voigt Hill
#
# Bulk Modulus (GPa) = 24.69901 77.70774 51.20338
# Shear Modulus (GPa) = 12.90927 22.61177 17.76052
#
# Velocity S-wave (km/s) = 2.89123 3.82648 3.39125
# Velocity P-wave (km/s) = 5.20953 8.35711 6.96349
#
# Compressibility (1/GPa) = 0.04048744
#
# Stress axis : x y z
#
# Youngs Moduli (GPa) = 62.09527 9.22834 48.13455
#
# Poissons Ratio (x) = 0.16560 0.12175
# Poissons Ratio (y) = 1.11427 1.53564
# Poissons Ratio (z) = 0.15706 0.29441
#
# Static dielectric constant tensor:
#      x y z
#    x 1.515540 0.000000 0.000000 
#    y 0.000000 1.515890 0.000000 
#    z 0.000000 0.000000 1.484600 
# 
# From -- ./inp_files/22898.got.cif
#   From: 2010.05.17/outbox.cif.g08.bks.cpg/sg44_12_cif.got.tgz:22898.got - 2010.06.03 19:37:08.
