data_PCOD9373494
_publ_section_title
;
Structure prediction by ZEFSAII (Michael W. Deem and Ramdas Pophale) SiO2 
 PCOD9373494
Probable space group: I M M 2
;
_chemical_formula_sum "Si O2"
_cell_formula_units_Z 48
_cell_length_a 7.417601
_cell_length_b 22.522419
_cell_length_c 12.449578
_cell_angle_alpha 90.000000
_cell_angle_beta 90.000000
_cell_angle_gamma 90.000000
_cell_volume 2079.855355
_symmetry_space_group_name_H-M "I M M 2"
_symmetry_group_IT_number 44
_symmetry_cell_setting 'orthorhombic'
loop_
_space_group_symop_operation_xyz
x,y,z
-x,-y,z
-x,y,z
x,-y,z
1/2+x,1/2+y,1/2+z
1/2-x,1/2-y,1/2+z
1/2-x,1/2+y,1/2+z
1/2+x,1/2-y,1/2+z
loop_
_atom_site_type_symbol
_atom_site_label
_atom_site_fract_x
_atom_site_fract_y
_atom_site_fract_z
Si Si1 0.781446 0.500000 0.942101
Si Si2 0.718517 0.000000 0.192062
Si Si3 0.214867 0.631347 0.677092
Si Si4 0.284286 0.328815 0.446834
Si Si5 0.282591 0.885028 0.572252
Si Si6 0.779328 0.299059 0.889083
Si Si7 0.788640 0.067200 0.804974
O O1 0.734608 0.500000 0.818133
O O2 0.000000 0.500000 0.944936
O O3 0.720640 0.441844 0.003797
O O4 0.783904 0.935580 0.152640
O O5 0.500000 0.000000 0.179190
O O6 0.248737 0.671397 0.573512
O O7 0.281570 0.661633 0.787288
O O8 0.000000 0.625455 0.691940
O O9 0.500000 0.329397 0.432593
O O10 0.218868 0.269072 0.389060
O O11 0.210245 0.389466 0.395430
O O12 0.500000 0.884682 0.573649
O O13 0.224861 0.828627 0.502407
O O14 0.225173 0.896939 0.693384
O O15 0.000000 0.299676 0.886471
O O16 0.000000 0.060336 0.828020
O O17 0.713449 0.000000 0.796015
#
# Coordination Sequence:
#
# PCOD9373494 Si02
#       7
#     4   4   8   8   8   8   8
#     4   9  14  26  50  81 108 134 167 214 273 318
#     4   9  16  30  54  83 112 136 169 222 277 318
#     4  10  20  36  59  84 107 137 179 224 268 317
#     4  10  23  40  55  75 110 151 182 213 261 322
#     4  10  18  32  57  84 108 136 177 226 270 314
#     4   9  19  36  58  82 109 140 175 220 275 322
#     4  10  22  38  54  75 109 150 183 215 263 319
#
# _framework density 23.078530000000001
#
# number of rings (size 3 to 8) (size 9 to 14) (size 15 to 20)
#    0.000    2.333    2.500    0.000    3.500    0.667 
#    0.000    1.667    0.000    1.000    0.000    0.000 
#    0.000    0.000    0.000    0.000    0.000    0.000 
#
# Total GULP energy -134008.140796 kJ/mol
# GULP energy per Si atom -5583.672533 kJ/mol
# Density = 2.302600 g / cm^3
# Si number density = 23.078530 Si / 1000 Ang^3
#
#
#
# Elastic Constant Matrix: (Units=GPa)
#
#
# Indices 1 2 3 4 5 6 
#
# 1 75.9577 13.7232 -10.5499 0.0000 0.0000 0.0000
# 2 13.7232 146.2676 64.4567 0.0000 0.0000 0.0000
# 3 -10.5499 64.4567 75.5743 -0.0002 0.0000 0.0000
# 4 0.0000 0.0000 -0.0002 30.3950 0.0000 0.0000
# 5 0.0000 0.0000 0.0000 0.0000 18.1005 0.0000
# 6 0.0000 0.0000 0.0000 0.0000 0.0000 -3.5745
#
#
#
# Elastic Compliance Matrix: (Units=1/GPa)
#
#
# Indices 1 2 3 4 5 6 
#
# 1 0.014529 -0.003616 0.005112 0.000000 0.000000 0.000000
# 2 -0.003616 0.011854 -0.010615 0.000000 0.000000 0.000000
# 3 0.005112 -0.010615 0.022999 0.000000 0.000000 0.000000
# 4 0.000000 0.000000 0.000000 0.032900 0.000000 0.000000
# 5 0.000000 0.000000 0.000000 0.000000 0.055247 0.000000
# 6 0.000000 0.000000 0.000000 0.000000 0.000000 -0.279763
#
#
# Mechanical properties :
#
#
# Convention : Reuss Voigt Hill
#
# Bulk Modulus (GPa) = 32.10885 48.11774 40.11330
# Shear Modulus (GPa) = -44.00792 24.32884 -9.83954
#
# Velocity S-wave (km/s) = -4.37152 3.25033 -2.06707
# Velocity P-wave (km/s) = 3.39664 5.91448 3.42373
#
# Compressibility (1/GPa) = 0.03114406
#
# Stress axis : x y z
#
# Youngs Moduli (GPa) = 68.83017 84.36213 43.48055
#
# Poissons Ratio (x) = 0.30504 -0.22228
# Poissons Ratio (y) = 0.24888 0.46153
# Poissons Ratio (z) = -0.35186 0.89547
#
# Static dielectric constant tensor:
#      x y z
#    x 1.887060 0.000000 0.000000 
#    y 0.000000 1.874540 0.000000 
#    z 0.000000 0.000000 1.811520 
# 
# From -- ./inp_files/12390.got.cif
#   From: 2010.05.17/outbox.cif.g08.bks.cpg/sg44_7_cif.got.tgz:12390.got - 2010.06.03 19:37:08.
