data_PCOD9373449
_publ_section_title
;
Structure prediction by ZEFSAII (Michael W. Deem and Ramdas Pophale) SiO2 
 PCOD9373449
Probable space group: I M M 2
;
_chemical_formula_sum "Si O2"
_cell_formula_units_Z 64
_cell_length_a 29.505174
_cell_length_b 7.544502
_cell_length_c 13.081721
_cell_angle_alpha 90.000000
_cell_angle_beta 90.000000
_cell_angle_gamma 90.000000
_cell_volume 2912.015221
_symmetry_space_group_name_H-M "I M M 2"
_symmetry_group_IT_number 44
_symmetry_cell_setting 'orthorhombic'
loop_
_space_group_symop_operation_xyz
x,y,z
-x,-y,z
-x,y,z
x,-y,z
1/2+x,1/2+y,1/2+z
1/2-x,1/2-y,1/2+z
1/2-x,1/2+y,1/2+z
1/2+x,1/2-y,1/2+z
loop_
_atom_site_type_symbol
_atom_site_label
_atom_site_fract_x
_atom_site_fract_y
_atom_site_fract_z
Si Si1 0.801991 0.786530 0.495530
Si Si2 0.204171 0.717587 0.062374
Si Si3 0.332453 0.792094 0.781133
Si Si4 0.381625 0.797630 0.448370
Si Si5 0.430914 0.300487 0.842089
Si Si6 0.596950 0.718098 0.056301
Si Si7 0.551225 0.290782 0.265466
Si Si8 0.450835 0.284961 0.621338
O O1 0.755700 0.724439 0.547085
O O2 0.799636 0.732287 0.376986
O O3 0.850405 0.725902 0.541790
O O4 0.802751 0.000000 0.501222
O O5 0.203616 0.500000 0.060043
O O6 0.186750 0.771139 0.173987
O O7 0.167588 0.779560 0.977654
O O8 0.377749 0.693141 0.814416
O O9 0.343803 0.000000 0.771556
O O10 0.414302 0.725071 0.360358
O O11 0.410559 0.787796 0.553125
O O12 0.373849 0.000000 0.419178
O O13 0.449164 0.500000 0.849666
O O14 0.450326 0.219462 0.738334
O O15 0.431141 0.221960 0.955672
O O16 0.596935 0.500000 0.053663
O O17 0.574459 0.778946 0.161611
O O18 0.500000 0.220389 0.283922
O O19 0.546348 0.500000 0.248512
O O20 0.500000 0.243432 0.575122
O O21 0.446211 0.500000 0.623442
#
# Coordination Sequence:
#
# PCOD9373449 Si02
#       8
#     8   8   8   8   8   8   8   8
#     4   9  18  35  55  77 105 141 182 224 275 329
#     4   9  19  34  53  75 104 141 178 221 272 327
#     4  10  18  32  52  76 106 138 173 218 270 321
#     4  11  22  37  54  75 105 145 185 222 275 334
#     4   9  17  32  54  78 104 138 174 213 267 326
#     4   8  16  32  55  78 102 136 176 217 269 325
#     4  10  21  37  56  79 109 145 185 232 279 325
#     4  10  20  33  52  80 109 135 172 223 270 316
#
# _framework density 21.977905
#
# number of rings (size 3 to 8) (size 9 to 14) (size 15 to 20)
#    0.000    2.500    1.250    1.875    0.000    3.500 
#    0.000    8.750    0.000    0.000    0.000    1.750 
#    0.000    0.000    0.000    0.000    0.000    0.000 
#
# Total GULP energy -178489.635595 kJ/mol
# GULP energy per Si atom -5577.801112 kJ/mol
# Density = 2.192788 g / cm^3
# Si number density = 21.977905 Si / 1000 Ang^3
#
#
#
# Elastic Constant Matrix: (Units=GPa)
#
#
# Indices 1 2 3 4 5 6 
#
# 1 85.5430 7.5891 48.3642 0.0000 0.0000 0.0000
# 2 7.5891 56.6168 0.1625 0.0000 0.0000 0.0000
# 3 48.3642 0.1625 136.8617 0.0000 0.0000 0.0000
# 4 0.0000 0.0000 0.0000 -31.8570 0.0000 0.0000
# 5 0.0000 0.0000 0.0000 0.0000 22.2690 0.0000
# 6 0.0000 0.0000 0.0000 0.0000 0.0000 -4.6645
#
#
#
# Elastic Compliance Matrix: (Units=1/GPa)
#
#
# Indices 1 2 3 4 5 6 
#
# 1 0.014826 -0.001972 -0.005237 0.000000 0.000000 0.000000
# 2 -0.001972 0.017925 0.000676 0.000000 0.000000 0.000000
# 3 -0.005237 0.000676 0.009156 0.000000 0.000000 0.000000
# 4 0.000000 0.000000 0.000000 -0.031390 0.000000 0.000000
# 5 0.000000 0.000000 0.000000 0.000000 0.044905 0.000000
# 6 0.000000 0.000000 0.000000 0.000000 0.000000 -0.214385
#
#
# Mechanical properties :
#
#
# Convention : Reuss Voigt Hill
#
# Bulk Modulus (GPa) = 34.67351 43.47257 39.07304
# Shear Modulus (GPa) = -36.68853 12.00988 -12.33933
#
# Velocity S-wave (km/s) = -4.09018 2.34017 -2.37205
# Velocity P-wave (km/s) = 2.54860 5.20816 3.21166
#
# Compressibility (1/GPa) = 0.02884046
#
# Stress axis : x y z
#
# Youngs Moduli (GPa) = 67.45008 55.78794 109.21291
#
# Poissons Ratio (x) = 0.11003 0.57193
# Poissons Ratio (y) = 0.13303 -0.07379
# Poissons Ratio (z) = 0.35322 -0.03769
#
# Static dielectric constant tensor:
#      x y z
#    x 1.813550 0.000000 0.000000 
#    y 0.000000 1.858120 0.000000 
#    z 0.000000 0.000000 1.795930 
# 
# From -- ./inp_files/11507.got.cif
#   From: 2010.05.17/outbox.cif.g08.bks.cpg/sg44_6_cif.got.tgz:11507.got - 2010.06.03 19:37:08.
