data_PCOD9373848
_publ_section_title
;
Structure prediction by ZEFSAII (Michael W. Deem and Ramdas Pophale) SiO2 
 PCOD9373848
Probable space group: I M M 2
;
_chemical_formula_sum "Si O2"
_cell_formula_units_Z 64
_cell_length_a 8.712215
_cell_length_b 21.314233
_cell_length_c 20.016856
_cell_angle_alpha 90.000000
_cell_angle_beta 90.000000
_cell_angle_gamma 90.000000
_cell_volume 3717.013670
_symmetry_space_group_name_H-M "I M M 2"
_symmetry_group_IT_number 44
_symmetry_cell_setting 'orthorhombic'
loop_
_space_group_symop_operation_xyz
x,y,z
-x,-y,z
-x,y,z
x,-y,z
1/2+x,1/2+y,1/2+z
1/2-x,1/2-y,1/2+z
1/2-x,1/2+y,1/2+z
1/2+x,1/2-y,1/2+z
loop_
_atom_site_type_symbol
_atom_site_label
_atom_site_fract_x
_atom_site_fract_y
_atom_site_fract_z
Si Si1 0.816134 0.260032 0.866930
Si Si2 0.316485 0.119483 0.867060
Si Si3 0.184928 0.429689 0.657727
Si Si4 0.184928 0.068951 0.732958
Si Si5 0.815766 0.625314 0.516416
Si Si6 0.683925 0.307846 0.152907
Si Si7 0.682451 0.764780 0.518650
Si Si8 0.682836 0.310693 0.734133
O O1 0.742208 0.191014 0.859571
O O2 0.750958 0.302705 0.808217
O O3 0.000000 0.253966 0.860456
O O4 0.781261 0.282884 0.942114
O O5 0.500000 0.117899 0.860286
O O6 0.242149 0.079897 0.808181
O O7 0.275875 0.099719 0.942887
O O8 0.231335 0.500000 0.677111
O O9 0.220697 0.417752 0.579502
O O10 0.261430 0.374689 0.699998
O O11 0.000000 0.424639 0.664595
O O12 0.236353 0.127797 0.688164
O O13 0.000000 0.070268 0.733004
O O14 0.235049 0.000000 0.709280
O O15 0.734451 0.692310 0.525563
O O16 0.000000 0.636252 0.516534
O O17 0.500000 0.303327 0.158149
O O18 0.733725 0.303564 0.076007
O O19 0.755026 0.248192 0.191104
O O20 0.500000 0.768787 0.528272
O O21 0.500000 0.307998 0.735908
#
# Coordination Sequence:
#
# PCOD9373848 Si02
#       8
#     8   8   8   8   8   8   8   8
#     4  10  20  35  55  80 111 144 178 223 278 329
#     4  10  19  31  51  80 110 143 183 225 266 316
#     4  10  21  37  56  78 109 151 190 224 272 331
#     4  10  22  38  54  75 107 149 189 224 269 327
#     4   9  18  32  51  76 109 146 183 219 264 322
#     4  11  21  35  57  80 108 145 183 226 276 327
#     4  10  20  33  54  83 111 138 177 227 274 323
#     4  12  23  35  56  84 111 141 185 234 275 320
#
# _framework density 17.218125000000001
#
# number of rings (size 3 to 8) (size 9 to 14) (size 15 to 20)
#    0.000    1.750    2.500    2.625    0.000    3.500 
#    0.000    1.250    0.000    0.750    0.000    3.500 
#    0.000    0.000    0.000    0.000    0.000    0.000 
#
# Total GULP energy -178654.661817 kJ/mol
# GULP energy per Si atom -5582.958182 kJ/mol
# Density = 1.717894 g / cm^3
# Si number density = 17.218125 Si / 1000 Ang^3
#
#
#
# Elastic Constant Matrix: (Units=GPa)
#
#
# Indices 1 2 3 4 5 6 
#
# 1 21.2242 21.7730 22.2592 0.0000 0.0000 0.0000
# 2 21.7730 105.6001 56.0954 0.0000 0.0000 0.0000
# 3 22.2592 56.0954 98.0644 0.0000 0.0000 0.0000
# 4 0.0000 0.0000 0.0000 21.1269 0.0000 0.0000
# 5 0.0000 0.0000 0.0000 0.0000 28.8745 0.0000
# 6 0.0000 0.0000 0.0000 0.0000 0.0000 7.3891
#
#
#
# Elastic Compliance Matrix: (Units=1/GPa)
#
#
# Indices 1 2 3 4 5 6 
#
# 1 0.066401 -0.008166 -0.010401 0.000000 0.000000 0.000000
# 2 -0.008166 0.014607 -0.006502 0.000000 0.000000 0.000000
# 3 -0.010401 -0.006502 0.016278 0.000000 0.000000 0.000000
# 4 0.000000 0.000000 0.000000 0.047333 0.000000 0.000000
# 5 0.000000 0.000000 0.000000 0.000000 0.034633 0.000000
# 6 0.000000 0.000000 0.000000 0.000000 0.000000 0.135335
#
#
# Mechanical properties :
#
#
# Convention : Reuss Voigt Hill
#
# Bulk Modulus (GPa) = 21.20971 47.23823 34.22397
# Shear Modulus (GPa) = 13.14262 19.79548 16.46905
#
# Velocity S-wave (km/s) = 2.76579 3.39438 3.09608
# Velocity P-wave (km/s) = 4.74810 6.54654 5.71846
#
# Compressibility (1/GPa) = 0.04714821
#
# Stress axis : x y z
#
# Youngs Moduli (GPa) = 15.05992 68.45843 61.43341
#
# Poissons Ratio (x) = 0.55901 0.63898
# Poissons Ratio (y) = 0.12298 0.39946
# Poissons Ratio (z) = 0.15664 0.44514
#
# Static dielectric constant tensor:
#      x y z
#    x 1.575510 0.000000 0.000000 
#    y 0.000000 1.567380 0.000000 
#    z 0.000000 0.000000 1.598160 
# 
# From -- ./inp_files/20747.got.cif
#   From: 2010.05.17/outbox.cif.g08.bks.cpg/sg44_11_cif.got.tgz:20747.got - 2010.06.03 19:37:08.
