data_PCOD9373366
_publ_section_title
;
Structure prediction by ZEFSAII (Michael W. Deem and Ramdas Pophale) SiO2 
 PCOD9373366
Probable space group: I M M 2
;
_chemical_formula_sum "Si O2"
_cell_formula_units_Z 56
_cell_length_a 16.179655
_cell_length_b 8.038422
_cell_length_c 20.770925
_cell_angle_alpha 90.000000
_cell_angle_beta 90.000000
_cell_angle_gamma 90.000000
_cell_volume 2701.443547
_symmetry_space_group_name_H-M "I M M 2"
_symmetry_group_IT_number 44
_symmetry_cell_setting 'orthorhombic'
loop_
_space_group_symop_operation_xyz
x,y,z
-x,-y,z
-x,y,z
x,-y,z
1/2+x,1/2+y,1/2+z
1/2-x,1/2-y,1/2+z
1/2-x,1/2+y,1/2+z
1/2+x,1/2-y,1/2+z
loop_
_atom_site_type_symbol
_atom_site_label
_atom_site_fract_x
_atom_site_fract_y
_atom_site_fract_z
Si Si1 0.589014 0.310352 0.326530
Si Si2 0.809236 0.702541 0.493187
Si Si3 0.742539 0.693025 0.773420
Si Si4 0.906406 0.300028 0.367506
Si Si5 0.873763 0.309979 0.956627
Si Si6 0.766547 0.309559 0.633582
Si Si7 0.410718 0.195553 0.603666
O O1 0.500000 0.244456 0.303291
O O2 0.597929 0.500000 0.303808
O O3 0.671594 0.211014 0.310843
O O4 0.588725 0.307908 0.403643
O O5 0.806651 0.500000 0.494672
O O6 0.876753 0.753238 0.439604
O O7 0.722609 0.768928 0.466028
O O8 0.810559 0.759113 0.568576
O O9 0.723250 0.500000 0.761870
O O10 0.664953 0.758654 0.815040
O O11 0.767087 0.772344 0.704096
O O12 0.909806 0.500000 0.369107
O O13 0.000000 0.239129 0.353200
O O14 0.885010 0.500000 0.935031
O O15 0.912743 0.295985 0.026668
O O16 0.796418 0.500000 0.639385
O O17 0.668241 0.303082 0.620956
O O18 0.500000 0.245830 0.630569
O O19 0.396470 0.000000 0.620583
#
# Coordination Sequence:
#
# PCOD9373366 Si02
#       7
#     8   8   8   8   8   8   8
#     4  11  23  37  55  80 110 145 184 228 282 344
#     4   9  17  34  57  80 110 146 189 235 281 337
#     4  11  23  39  58  83 117 153 191 241 296 348
#     4  10  21  37  60  88 117 154 199 245 293 348
#     4  10  18  30  52  81 112 142 174 219 275 330
#     4   9  20  36  54  77 107 147 189 234 289 341
#     4   9  18  31  48  75 109 143 180 221 269 331
#
# _framework density 20.729657
#
# number of rings (size 3 to 8) (size 9 to 14) (size 15 to 20)
#    0.000    2.143    1.429    1.714    0.000    4.571 
#    0.000    3.571    0.000    2.571    0.000    0.000 
#    0.000    0.000    0.000    0.000    0.000    0.000 
#
# Total GULP energy -155900.932863 kJ/mol
# GULP energy per Si atom -5567.890459 kJ/mol
# Density = 2.068248 g / cm^3
# Si number density = 20.729657 Si / 1000 Ang^3
#
#
#
# Elastic Constant Matrix: (Units=GPa)
#
#
# Indices 1 2 3 4 5 6 
#
# 1 105.1187 6.8863 34.6681 0.0000 0.0000 0.0000
# 2 6.8863 21.9618 11.7143 0.0000 0.0000 0.0000
# 3 34.6681 11.7143 110.7177 0.0000 0.0000 0.0000
# 4 0.0000 0.0000 0.0000 15.8366 0.0000 0.0000
# 5 0.0000 0.0000 0.0000 0.0000 1.9491 0.0000
# 6 0.0000 0.0000 0.0000 0.0000 0.0000 -2.2940
#
#
#
# Elastic Compliance Matrix: (Units=1/GPa)
#
#
# Indices 1 2 3 4 5 6 
#
# 1 0.010665 -0.001656 -0.003164 0.000000 0.000000 0.000000
# 2 -0.001656 0.048514 -0.004614 0.000000 0.000000 0.000000
# 3 -0.003164 -0.004614 0.010511 0.000000 0.000000 0.000000
# 4 0.000000 0.000000 0.000000 0.063145 0.000000 0.000000
# 5 0.000000 0.000000 0.000000 0.000000 0.513050 0.000000
# 6 0.000000 0.000000 0.000000 0.000000 0.000000 -0.435916
#
#
# Mechanical properties :
#
#
# Convention : Reuss Voigt Hill
#
# Bulk Modulus (GPa) = 19.67708 38.25951 28.96830
# Shear Modulus (GPa) = 20.34339 15.40029 17.87184
#
# Velocity S-wave (km/s) = 3.13608 2.72860 2.93941
# Velocity P-wave (km/s) = 4.75669 5.33137 5.05221
#
# Compressibility (1/GPa) = 0.05082055
#
# Stress axis : x y z
#
# Youngs Moduli (GPa) = 93.76357 20.61247 95.13859
#
# Poissons Ratio (x) = 0.03414 0.30104
# Poissons Ratio (y) = 0.15531 0.43900
# Poissons Ratio (z) = 0.29669 0.09511
#
# Static dielectric constant tensor:
#      x y z
#    x 1.772490 0.000000 0.000000 
#    y 0.000000 1.745590 0.000000 
#    z 0.000000 0.000000 1.818650 
# 
# From -- ./inp_files/23040.got.cif
#   From: 2010.05.17/outbox.cif.g08.bks.cpg/sg44_12_cif.got.tgz:23040.got - 2010.06.03 19:37:08.
