data_PCOD9373995
_publ_section_title
;
Structure prediction by ZEFSAII (Michael W. Deem and Ramdas Pophale) SiO2 
 PCOD9373995
Probable space group: I M M 2
;
_chemical_formula_sum "Si O2"
_cell_formula_units_Z 64
_cell_length_a 31.242336
_cell_length_b 7.679457
_cell_length_c 15.112361
_cell_angle_alpha 90.000000
_cell_angle_beta 90.000000
_cell_angle_gamma 90.000000
_cell_volume 3625.820759
_symmetry_space_group_name_H-M "I M M 2"
_symmetry_group_IT_number 44
_symmetry_cell_setting 'orthorhombic'
loop_
_space_group_symop_operation_xyz
x,y,z
-x,-y,z
-x,y,z
x,-y,z
1/2+x,1/2+y,1/2+z
1/2-x,1/2-y,1/2+z
1/2-x,1/2+y,1/2+z
1/2+x,1/2-y,1/2+z
loop_
_atom_site_type_symbol
_atom_site_label
_atom_site_fract_x
_atom_site_fract_y
_atom_site_fract_z
Si Si1 0.134028 0.212189 0.422550
Si Si2 0.547762 0.709255 0.003070
Si Si3 0.283395 0.701710 0.392422
Si Si4 0.134564 0.701666 0.784319
Si Si5 0.799916 0.792675 0.278619
Si Si6 0.221189 0.202892 0.089222
Si Si7 0.680929 0.289749 0.105206
Si Si8 0.951660 0.710267 0.709258
O O1 0.085720 0.274133 0.440135
O O2 0.161781 0.276407 0.340004
O O3 0.159855 0.254087 0.511721
O O4 0.132781 0.000000 0.417219
O O5 0.500000 0.777589 0.985060
O O6 0.546609 0.500000 0.994233
O O7 0.557495 0.744715 0.106546
O O8 0.271770 0.500000 0.402824
O O9 0.329698 0.714777 0.346814
O O10 0.245576 0.773063 0.329676
O O11 0.285319 0.780853 0.491268
O O12 0.131699 0.500000 0.810707
O O13 0.153987 0.715854 0.685988
O O14 0.086498 0.774681 0.772577
O O15 0.798952 0.719863 0.178893
O O16 0.806079 0.000000 0.270556
O O17 0.271667 0.215226 0.107112
O O18 0.207856 0.000000 0.084093
O O19 0.682582 0.500000 0.113858
O O20 0.951527 0.500000 0.714763
O O21 0.000000 0.771774 0.729073
#
# Coordination Sequence:
#
# PCOD9373995 Si02
#       8
#     8   8   8   8   8   8   8   8
#     4   9  17  28  44  68  93 123 158 186 225 275
#     4   9  16  27  44  67  95 123 152 188 229 275
#     4  11  22  33  46  68  93 120 158 198 233 274
#     4  11  21  32  47  68  94 128 159 188 231 281
#     4  10  19  33  49  65  89 124 159 192 233 278
#     4  10  21  34  47  65  92 124 160 198 234 270
#     4  11  19  28  46  70  96 125 157 192 227 269
#     4   9  18  31  46  66  92 120 152 189 228 275
#
# _framework density 17.651174999999999
#
# number of rings (size 3 to 8) (size 9 to 14) (size 15 to 20)
#    0.000    2.000    3.750    1.125    0.000    1.000 
#    0.000    0.625    0.000    0.000    0.000    0.875 
#    0.000    3.000    0.000    0.000    0.000    0.000 
#
# Total GULP energy -178418.458007 kJ/mol
# GULP energy per Si atom -5575.576813 kJ/mol
# Density = 1.761100 g / cm^3
# Si number density = 17.651175 Si / 1000 Ang^3
#
#
#
# Elastic Constant Matrix: (Units=GPa)
#
#
# Indices 1 2 3 4 5 6 
#
# 1 101.1617 -10.9852 31.7862 0.0000 0.0000 0.0000
# 2 -10.9852 32.0208 -2.4074 0.0000 0.0000 0.0000
# 3 31.7862 -2.4074 82.8212 0.0000 0.0000 0.0000
# 4 0.0000 0.0000 0.0000 7.3679 0.0000 0.0000
# 5 0.0000 0.0000 0.0000 0.0000 22.9251 0.0000
# 6 0.0000 0.0000 0.0000 0.0000 0.0000 -6.6935
#
#
#
# Elastic Compliance Matrix: (Units=1/GPa)
#
#
# Indices 1 2 3 4 5 6 
#
# 1 0.011656 0.003670 -0.004367 0.000000 0.000000 0.000000
# 2 0.003670 0.032454 -0.000465 0.000000 0.000000 0.000000
# 3 -0.004367 -0.000465 0.013737 0.000000 0.000000 0.000000
# 4 0.000000 0.000000 0.000000 0.135724 0.000000 0.000000
# 5 0.000000 0.000000 0.000000 0.000000 0.043620 0.000000
# 6 0.000000 0.000000 0.000000 0.000000 0.000000 -0.149399
#
#
# Mechanical properties :
#
#
# Convention : Reuss Voigt Hill
#
# Bulk Modulus (GPa) = 18.01055 28.08787 23.04921
# Shear Modulus (GPa) = 46.03102 17.89392 31.96247
#
# Velocity S-wave (km/s) = 5.11222 3.18740 4.25995
# Velocity P-wave (km/s) = 6.71358 5.43078 6.10596
#
# Compressibility (1/GPa) = 0.05552300
#
# Stress axis : x y z
#
# Youngs Moduli (GPa) = 85.79409 30.81296 72.79823
#
# Poissons Ratio (x) = -0.11310 0.31789
# Poissons Ratio (y) = -0.31490 0.03387
# Poissons Ratio (z) = 0.37464 0.01434
#
# Static dielectric constant tensor:
#      x y z
#    x 1.624160 0.000000 0.000000 
#    y 0.000000 1.658220 0.000000 
#    z 0.000000 0.000000 1.611460 
# 
# From -- ./inp_files/17109.got.cif
#   From: 2010.05.17/outbox.cif.g08.bks.cpg/sg44_9_cif.got.tgz:17109.got - 2010.06.03 19:37:08.
