data_PCOD9373177
_publ_section_title
;
Structure prediction by ZEFSAII (Michael W. Deem and Ramdas Pophale) SiO2 
 PCOD9373177
Probable space group: I M M 2
;
_chemical_formula_sum "Si O2"
_cell_formula_units_Z 64
_cell_length_a 9.126621
_cell_length_b 18.872711
_cell_length_c 27.078555
_cell_angle_alpha 90.000000
_cell_angle_beta 90.000000
_cell_angle_gamma 90.000000
_cell_volume 4664.120808
_symmetry_space_group_name_H-M "I M M 2"
_symmetry_group_IT_number 44
_symmetry_cell_setting 'orthorhombic'
loop_
_space_group_symop_operation_xyz
x,y,z
-x,-y,z
-x,y,z
x,-y,z
1/2+x,1/2+y,1/2+z
1/2-x,1/2-y,1/2+z
1/2-x,1/2+y,1/2+z
1/2+x,1/2-y,1/2+z
loop_
_atom_site_type_symbol
_atom_site_label
_atom_site_fract_x
_atom_site_fract_y
_atom_site_fract_z
Si Si1 0.176345 0.917542 0.866250
Si Si2 0.323934 0.164230 0.267673
Si Si3 0.676253 0.417062 0.565190
Si Si4 0.675654 0.917527 0.168205
Si Si5 0.668077 0.289152 0.919455
Si Si6 0.176543 0.082667 0.358074
Si Si7 0.824111 0.836707 0.967074
Si Si8 0.330748 0.206721 0.814035
O O1 0.216453 0.887099 0.920599
O O2 0.253417 0.867528 0.826070
O O3 0.000000 0.911106 0.861669
O O4 0.215547 0.000000 0.862254
O O5 0.500000 0.166747 0.272244
O O6 0.284884 0.131120 0.214683
O O7 0.258146 0.113314 0.310152
O O8 0.255820 0.241691 0.277158
O O9 0.500000 0.411747 0.569055
O O10 0.711383 0.500000 0.556056
O O11 0.748212 0.396544 0.617075
O O12 0.725610 0.370697 0.518542
O O13 0.500000 0.914629 0.162230
O O14 0.714959 0.000000 0.178505
O O15 0.500000 0.291376 0.936381
O O16 0.718225 0.367984 0.904732
O O17 0.761688 0.240954 0.955847
O O18 0.671588 0.248545 0.866562
O O19 0.000000 0.091685 0.351319
O O20 0.207106 0.000000 0.364913
O O21 0.000000 0.833743 0.967804
O O22 0.500000 0.198204 0.799561
#
# Coordination Sequence:
#
# PCOD9373177 Si02
#       8
#     8   8   8   8   8   8   8   8
#     4   9  16  26  41  60  82 108 136 165 198 235
#     4  10  18  28  42  58  78 105 136 167 199 236
#     4   9  17  28  41  57  77 102 133 166 196 228
#     4   9  18  30  41  56  79 104 131 165 201 234
#     4   8  15  26  38  54  76 102 131 161 193 231
#     4   9  17  28  41  58  81 107 134 164 197 234
#     4   9  16  26  40  57  78 105 135 165 196 230
#     4   9  17  28  40  56  79 105 134 166 198 235
#
# _framework density 13.721771
#
# number of rings (size 3 to 8) (size 9 to 14) (size 15 to 20)
#    0.000    3.000    0.000    2.250    0.000    7.000 
#    0.000    1.250    0.000    2.250    0.000    0.000 
#    0.000    1.000    0.000    5.500    0.000    3.750 
#
# Total GULP energy -178165.522795 kJ/mol
# GULP energy per Si atom -5567.672587 kJ/mol
# Density = 1.369054 g / cm^3
# Si number density = 13.721771 Si / 1000 Ang^3
#
#
#
# Elastic Constant Matrix: (Units=GPa)
#
#
# Indices 1 2 3 4 5 6 
#
# 1 32.0397 42.0426 37.6311 0.0000 0.0000 0.0000
# 2 42.0426 118.3344 63.9614 0.0000 0.0000 0.0000
# 3 37.6311 63.9614 92.2367 0.0000 0.0000 0.0000
# 4 0.0000 0.0000 0.0000 25.7903 0.0000 0.0000
# 5 0.0000 0.0000 0.0000 0.0000 20.4725 0.0000
# 6 0.0000 0.0000 0.0000 0.0000 0.0000 21.2946
#
#
#
# Elastic Compliance Matrix: (Units=1/GPa)
#
#
# Indices 1 2 3 4 5 6 
#
# 1 0.075476 -0.016270 -0.019511 0.000000 0.000000 0.000000
# 2 -0.016270 0.017024 -0.005168 0.000000 0.000000 0.000000
# 3 -0.019511 -0.005168 0.022385 0.000000 0.000000 0.000000
# 4 0.000000 0.000000 0.000000 0.038774 0.000000 0.000000
# 5 0.000000 0.000000 0.000000 0.000000 0.048846 0.000000
# 6 0.000000 0.000000 0.000000 0.000000 0.000000 0.046960
#
#
# Mechanical properties :
#
#
# Convention : Reuss Voigt Hill
#
# Bulk Modulus (GPa) = 30.31292 58.87568 44.59430
# Shear Modulus (GPa) = 14.60453 20.10984 17.35719
#
# Velocity S-wave (km/s) = 3.26595 3.83239 3.56045
# Velocity P-wave (km/s) = 6.03001 7.91094 7.03363
#
# Compressibility (1/GPa) = 0.03298924
#
# Stress axis : x y z
#
# Youngs Moduli (GPa) = 13.24918 58.73980 44.67231
#
# Poissons Ratio (x) = 0.95569 0.87160
# Poissons Ratio (y) = 0.21556 0.23085
# Poissons Ratio (z) = 0.25850 0.30354
#
# Static dielectric constant tensor:
#      x y z
#    x 1.462260 0.000000 0.000000 
#    y 0.000000 1.454890 0.000000 
#    z 0.000000 0.000000 1.427530 
# 
# From -- ./inp_files/25222.got.cif
#   From: 2010.05.17/outbox.cif.g08.bks.cpg/sg44_13_cif.got.tgz:25222.got - 2010.06.03 19:37:08.
