data_PCOD9373672
_publ_section_title
;
Structure prediction by ZEFSAII (Michael W. Deem and Ramdas Pophale) SiO2 
 PCOD9373672
Probable space group: I M M 2
;
_chemical_formula_sum "Si O2"
_cell_formula_units_Z 64
_cell_length_a 12.930772
_cell_length_b 13.321422
_cell_length_c 17.504984
_cell_angle_alpha 90.000000
_cell_angle_beta 90.000000
_cell_angle_gamma 90.000000
_cell_volume 3015.343261
_symmetry_space_group_name_H-M "I M M 2"
_symmetry_group_IT_number 44
_symmetry_cell_setting 'orthorhombic'
loop_
_space_group_symop_operation_xyz
x,y,z
-x,-y,z
-x,y,z
x,-y,z
1/2+x,1/2+y,1/2+z
1/2-x,1/2-y,1/2+z
1/2-x,1/2+y,1/2+z
1/2+x,1/2-y,1/2+z
loop_
_atom_site_type_symbol
_atom_site_label
_atom_site_fract_x
_atom_site_fract_y
_atom_site_fract_z
Si Si1 0.617891 0.381727 0.539770
Si Si2 0.337324 0.114623 0.224061
Si Si3 0.199404 0.764895 0.601198
Si Si4 0.389161 0.671983 0.772098
Si Si5 0.389814 0.120133 0.397154
Si Si6 0.699414 0.115901 0.731347
Si Si7 0.731839 0.611447 0.392397
Si Si8 0.668978 0.302560 0.939865
O O1 0.500000 0.356437 0.559954
O O2 0.636696 0.500000 0.559922
O O3 0.704584 0.306977 0.573394
O O4 0.634610 0.375029 0.447716
O O5 0.363728 0.192522 0.157941
O O6 0.212671 0.122119 0.236851
O O7 0.381268 0.143794 0.307035
O O8 0.366014 0.000000 0.207115
O O9 0.247531 0.853415 0.652270
O O10 0.138496 0.807269 0.527883
O O11 0.500000 0.635761 0.743936
O O12 0.377123 0.791146 0.751700
O O13 0.383707 0.653755 0.864050
O O14 0.500000 0.156096 0.428072
O O15 0.287358 0.158901 0.436848
O O16 0.387888 0.000000 0.402382
O O17 0.780981 0.124383 0.801996
O O18 0.661454 0.000000 0.730339
O O19 0.769978 0.500000 0.405023
O O20 0.820561 0.685734 0.419839
#
# Coordination Sequence:
#
# PCOD9373672 Si02
#       8
#     8   8   8   8   8   8   8   8
#     4   9  17  29  47  71  95 119 150 193 245 293
#     4   9  18  33  53  75  97 123 156 197 245 288
#     4  10  19  30  45  69 100 129 154 188 237 293
#     4   9  18  33  51  70  93 125 167 204 230 270
#     4   9  18  34  55  75  94 121 161 204 240 278
#     4   9  18  32  49  67  90 125 164 199 236 277
#     4   8  15  30  49  66  86 117 159 200 235 273
#     4   9  18  31  49  71  97 127 159 195 239 283
#
# _framework density 21.224779999999999
#
# number of rings (size 3 to 8) (size 9 to 14) (size 15 to 20)
#    0.000    3.000    0.000    1.125    0.000    5.500 
#    0.000    0.625    0.000    0.750    0.000    0.000 
#    0.000    0.000    0.000    0.000    0.000    0.000 
#
# Total GULP energy -178187.824473 kJ/mol
# GULP energy per Si atom -5568.369515 kJ/mol
# Density = 2.117647 g / cm^3
# Si number density = 21.224780 Si / 1000 Ang^3
#
#
#
# Elastic Constant Matrix: (Units=GPa)
#
#
# Indices 1 2 3 4 5 6 
#
# 1 50.4088 6.9343 -8.3848 0.0000 0.0000 0.0000
# 2 6.9343 51.0287 -0.1206 0.0000 0.0000 0.0000
# 3 -8.3848 -0.1206 109.0544 0.0000 0.0000 0.0000
# 4 0.0000 0.0000 0.0000 19.6005 0.0000 0.0000
# 5 0.0000 0.0000 0.0000 0.0000 -3.0850 0.0000
# 6 0.0000 0.0000 0.0000 0.0000 0.0000 -6.6227
#
#
#
# Elastic Compliance Matrix: (Units=1/GPa)
#
#
# Indices 1 2 3 4 5 6 
#
# 1 0.020482 -0.002780 0.001572 0.000000 0.000000 0.000000
# 2 -0.002780 0.019974 -0.000192 0.000000 0.000000 0.000000
# 3 0.001572 -0.000192 0.009290 0.000000 0.000000 0.000000
# 4 0.000000 0.000000 0.000000 0.051019 0.000000 0.000000
# 5 0.000000 0.000000 0.000000 0.000000 -0.324154 0.000000
# 6 0.000000 0.000000 0.000000 0.000000 0.000000 -0.150995
#
#
# Mechanical properties :
#
#
# Convention : Reuss Voigt Hill
#
# Bulk Modulus (GPa) = 21.30059 23.03887 22.16973
# Shear Modulus (GPa) = -14.04747 16.11611 1.03432
#
# Velocity S-wave (km/s) = -2.57542 2.75854 0.69884
# Velocity P-wave (km/s) = 1.10172 4.58523 3.33452
#
# Compressibility (1/GPa) = 0.04694705
#
# Stress axis : x y z
#
# Youngs Moduli (GPa) = 48.82437 50.06489 107.63845
#
# Poissons Ratio (x) = 0.13916 -0.16917
# Poissons Ratio (y) = 0.13571 0.02062
# Poissons Ratio (z) = -0.07674 0.00959
#
# Static dielectric constant tensor:
#      x y z
#    x 1.752390 0.000000 0.000000 
#    y 0.000000 1.805960 0.000000 
#    z 0.000000 0.000000 1.834070 
# 
# From -- ./inp_files/21960.got.cif
#   From: 2010.05.17/outbox.cif.g08.bks.cpg/sg44_11_cif.got.tgz:21960.got - 2010.06.03 19:37:08.
