data_PCOD9373314
_publ_section_title
;
Structure prediction by ZEFSAII (Michael W. Deem and Ramdas Pophale) SiO2 
 PCOD9373314
Probable space group: I M M 2
;
_chemical_formula_sum "Si O2"
_cell_formula_units_Z 64
_cell_length_a 19.428838
_cell_length_b 7.465877
_cell_length_c 22.384501
_cell_angle_alpha 90.000000
_cell_angle_beta 90.000000
_cell_angle_gamma 90.000000
_cell_volume 3246.946069
_symmetry_space_group_name_H-M "I M M 2"
_symmetry_group_IT_number 44
_symmetry_cell_setting 'orthorhombic'
loop_
_space_group_symop_operation_xyz
x,y,z
-x,-y,z
-x,y,z
x,-y,z
1/2+x,1/2+y,1/2+z
1/2-x,1/2-y,1/2+z
1/2-x,1/2+y,1/2+z
1/2+x,1/2-y,1/2+z
loop_
_atom_site_type_symbol
_atom_site_label
_atom_site_fract_x
_atom_site_fract_y
_atom_site_fract_z
Si Si1 0.815262 0.701005 0.406800
Si Si2 0.627290 0.787421 0.681077
Si Si3 0.724750 0.784005 0.133136
Si Si4 0.924539 0.291943 0.643177
Si Si5 0.076110 0.214236 0.503349
Si Si6 0.922051 0.719939 0.310171
Si Si7 0.278759 0.712381 0.503987
Si Si8 0.424438 0.216069 0.553308
O O1 0.796019 0.500000 0.386789
O O2 0.868710 0.695603 0.461776
O O3 0.861238 0.783301 0.354175
O O4 0.750709 0.786530 0.441581
O O5 0.708968 0.758610 0.673236
O O6 0.596195 0.721290 0.742987
O O7 0.592668 0.716946 0.620367
O O8 0.614881 0.000000 0.681400
O O9 0.651310 0.716811 0.158144
O O10 0.719781 0.000000 0.129287
O O11 0.742800 0.717837 0.065450
O O12 0.925593 0.500000 0.661644
O O13 0.922327 0.281873 0.571019
O O14 0.000000 0.214562 0.660522
O O15 0.000000 0.250785 0.479191
O O16 0.086697 0.000000 0.504161
O O17 0.921426 0.500000 0.312608
O O18 0.000000 0.775102 0.326066
O O19 0.264736 0.500000 0.502682
O O20 0.359860 0.735150 0.512687
O O21 0.500000 0.277471 0.534482
O O22 0.425351 0.000000 0.555788
#
# Coordination Sequence:
#
# PCOD9373314 Si02
#       8
#     8   8   8   8   8   8   8   8
#     4  10  18  30  46  63  86 120 156 187 219 261
#     4   9  17  29  46  67  89 116 150 188 225 262
#     4   9  16  28  43  63  89 116 148 186 224 266
#     4   9  16  27  43  61  84 116 151 184 218 262
#     4  10  19  27  37  58  88 119 149 182 218 257
#     4   9  17  29  47  69  90 117 157 195 219 252
#     4   9  17  28  42  64  90 114 145 184 222 265
#     4   9  17  29  46  67  90 116 144 178 224 274
#
# _framework density 19.710830000000001
#
# number of rings (size 3 to 8) (size 9 to 14) (size 15 to 20)
#    0.000    2.750    1.250    1.125    0.000    4.000 
#    0.000    0.625    0.000    1.875    0.000    0.875 
#    0.000    5.000    0.000    0.000    0.000    0.125 
#
# Total GULP energy -178297.563760 kJ/mol
# GULP energy per Si atom -5571.798867 kJ/mol
# Density = 1.966597 g / cm^3
# Si number density = 19.710830 Si / 1000 Ang^3
#
#
#
# Elastic Constant Matrix: (Units=GPa)
#
#
# Indices 1 2 3 4 5 6 
#
# 1 149.5111 0.9662 45.7697 0.0000 0.0000 0.0000
# 2 0.9662 60.4822 0.8626 0.0000 0.0000 0.0000
# 3 45.7697 0.8626 70.6442 0.0000 0.0000 0.0000
# 4 0.0000 0.0000 0.0000 228.1147 0.0000 0.0000
# 5 0.0000 0.0000 0.0000 0.0000 27.5015 0.0000
# 6 0.0000 0.0000 0.0000 0.0000 0.0000 22.0991
#
#
#
# Elastic Compliance Matrix: (Units=1/GPa)
#
#
# Indices 1 2 3 4 5 6 
#
# 1 0.008343 -0.000056 -0.005405 0.000000 0.000000 0.000000
# 2 -0.000056 0.016537 -0.000166 0.000000 0.000000 0.000000
# 3 -0.005405 -0.000166 0.017659 0.000000 0.000000 0.000000
# 4 0.000000 0.000000 0.000000 0.004384 0.000000 0.000000
# 5 0.000000 0.000000 0.000000 0.000000 0.036362 0.000000
# 6 0.000000 0.000000 0.000000 0.000000 0.000000 0.045251
#
#
# Mechanical properties :
#
#
# Convention : Reuss Voigt Hill
#
# Bulk Modulus (GPa) = 31.96275 41.75939 36.86107
# Shear Modulus (GPa) = 33.28498 71.07900 52.18199
#
# Velocity S-wave (km/s) = 4.11379 6.01159 5.15085
# Velocity P-wave (km/s) = 6.23020 8.33172 7.35639
#
# Compressibility (1/GPa) = 0.03128642
#
# Stress axis : x y z
#
# Youngs Moduli (GPa) = 119.85458 60.47032 56.62745
#
# Poissons Ratio (x) = 0.00340 0.30607
# Poissons Ratio (y) = 0.00673 0.00937
# Poissons Ratio (z) = 0.64781 0.01001
#
# Static dielectric constant tensor:
#      x y z
#    x 1.763710 0.000000 0.000000 
#    y 0.000000 1.729980 0.000000 
#    z 0.000000 0.000000 1.675240 
# 
# From -- ./inp_files/23404.got.cif
#   From: 2010.05.17/outbox.cif.g08.bks.cpg/sg44_12_cif.got.tgz:23404.got - 2010.06.03 19:37:08.
