data_PCOD9373546
_publ_section_title
;
Structure prediction by ZEFSAII (Michael W. Deem and Ramdas Pophale) SiO2 
 PCOD9373546
Probable space group: I M M 2
;
_chemical_formula_sum "Si O2"
_cell_formula_units_Z 64
_cell_length_a 7.562742
_cell_length_b 32.024512
_cell_length_c 12.239793
_cell_angle_alpha 90.000000
_cell_angle_beta 90.000000
_cell_angle_gamma 90.000000
_cell_volume 2964.393678
_symmetry_space_group_name_H-M "I M M 2"
_symmetry_group_IT_number 44
_symmetry_cell_setting 'orthorhombic'
loop_
_space_group_symop_operation_xyz
x,y,z
-x,-y,z
-x,y,z
x,-y,z
1/2+x,1/2+y,1/2+z
1/2-x,1/2-y,1/2+z
1/2-x,1/2+y,1/2+z
1/2+x,1/2-y,1/2+z
loop_
_atom_site_type_symbol
_atom_site_label
_atom_site_fract_x
_atom_site_fract_y
_atom_site_fract_z
Si Si1 0.216999 0.045456 0.352880
Si Si2 0.707373 0.126998 0.978460
Si Si3 0.791053 0.206459 0.356705
Si Si4 0.795513 0.067397 0.591548
Si Si5 0.287639 0.835935 0.585139
Si Si6 0.294011 0.372744 0.729060
Si Si7 0.716572 0.200081 0.818675
Si Si8 0.785821 0.046596 0.833113
O O1 0.278206 0.049753 0.478472
O O2 0.280257 0.085319 0.284384
O O3 0.000000 0.046401 0.353278
O O4 0.268949 0.000000 0.309148
O O5 0.500000 0.134163 0.994234
O O6 0.777583 0.165416 0.905628
O O7 0.729911 0.084148 0.911440
O O8 0.785763 0.125054 0.099052
O O9 0.767855 0.189907 0.479315
O O10 0.716891 0.170253 0.277506
O O11 0.719813 0.253171 0.342839
O O12 0.000000 0.210240 0.332804
O O13 0.786528 0.117347 0.581634
O O14 0.719984 0.054527 0.709019
O O15 0.000000 0.053829 0.594354
O O16 0.500000 0.839318 0.585320
O O17 0.231543 0.814199 0.697515
O O18 0.500000 0.372099 0.762136
O O19 0.500000 0.199489 0.821822
O O20 0.000000 0.047765 0.830994
O O21 0.732109 0.000000 0.868291
#
# Coordination Sequence:
#
# PCOD9373546 Si02
#       8
#     8   8   8   8   8   8   8   8
#     4   9  17  32  56  84 111 141 181 230 284 334
#     4  11  23  40  58  80 115 156 191 230 289 347
#     4  10  21  40  61  83 113 150 194 238 285 339
#     4  10  18  34  59  87 115 147 184 228 281 339
#     4  11  21  36  59  87 117 148 184 234 291 342
#     4  10  21  37  58  83 111 148 192 240 287 333
#     4   9  21  39  58  81 115 153 186 233 287 339
#     4  10  21  37  60  89 116 146 191 241 281 328
#
# _framework density 21.589576999999998
#
# number of rings (size 3 to 8) (size 9 to 14) (size 15 to 20)
#    0.000    2.000    2.500    1.125    1.750    2.750 
#    0.000    3.125    0.000    1.875    0.000    0.000 
#    0.000    0.000    0.000    0.000    0.000    0.000 
#
# Total GULP energy -178775.048543 kJ/mol
# GULP energy per Si atom -5586.720267 kJ/mol
# Density = 2.154044 g / cm^3
# Si number density = 21.589577 Si / 1000 Ang^3
#
#
#
# Elastic Constant Matrix: (Units=GPa)
#
#
# Indices 1 2 3 4 5 6 
#
# 1 45.0191 -0.6408 -20.7283 0.0000 0.0000 0.0000
# 2 -0.6408 204.7586 86.9205 0.0001 0.0000 0.0000
# 3 -20.7283 86.9205 122.1926 0.0000 0.0000 0.0001
# 4 0.0000 0.0001 0.0000 47.1847 -0.0002 0.0000
# 5 0.0000 0.0000 0.0000 -0.0002 -3.7874 0.0000
# 6 0.0000 0.0000 0.0001 0.0000 0.0000 24.2635
#
#
#
# Elastic Compliance Matrix: (Units=1/GPa)
#
#
# Indices 1 2 3 4 5 6 
#
# 1 0.024931 -0.002460 0.005979 0.000000 0.000000 0.000000
# 2 -0.002460 0.007239 -0.005567 0.000000 0.000000 0.000000
# 3 0.005979 -0.005567 0.013158 0.000000 0.000000 0.000000
# 4 0.000000 0.000000 0.000000 0.021193 -0.000001 0.000000
# 5 0.000000 0.000000 0.000000 -0.000001 -0.264035 0.000000
# 6 0.000000 0.000000 0.000000 0.000000 0.000000 0.041214
#
#
# Mechanical properties :
#
#
# Convention : Reuss Voigt Hill
#
# Bulk Modulus (GPa) = 24.25283 55.89700 40.07492
# Shear Modulus (GPa) = -36.11161 33.96010 -1.07575
#
# Velocity S-wave (km/s) = -4.09423 3.97039 -0.70665
# Velocity P-wave (km/s) = 3.33051 6.85315 4.23517
#
# Compressibility (1/GPa) = 0.04123230
#
# Stress axis : x y z
#
# Youngs Moduli (GPa) = 40.11107 138.13563 75.99913
#
# Poissons Ratio (x) = 0.33983 -0.45441
# Poissons Ratio (y) = 0.09868 0.42308
# Poissons Ratio (z) = -0.23983 0.76899
#
# Static dielectric constant tensor:
#      x y z
#    x 1.839560 0.000000 0.000000 
#    y 0.000000 1.767010 0.000000 
#    z 0.000000 0.000000 1.734330 
# 
# From -- ./inp_files/11481.got.cif
#   From: 2010.05.17/outbox.cif.g08.bks.cpg/sg44_6_cif.got.tgz:11481.got - 2010.06.03 19:37:08.
