data_PCOD9373363
_publ_section_title
;
Structure prediction by ZEFSAII (Michael W. Deem and Ramdas Pophale) SiO2 
 PCOD9373363
Probable space group: I M M 2
;
_chemical_formula_sum "Si O2"
_cell_formula_units_Z 64
_cell_length_a 14.751226
_cell_length_b 10.127034
_cell_length_c 24.388112
_cell_angle_alpha 90.000000
_cell_angle_beta 90.000000
_cell_angle_gamma 90.000000
_cell_volume 3643.246578
_symmetry_space_group_name_H-M "I M M 2"
_symmetry_group_IT_number 44
_symmetry_cell_setting 'orthorhombic'
loop_
_space_group_symop_operation_xyz
x,y,z
-x,-y,z
-x,y,z
x,-y,z
1/2+x,1/2+y,1/2+z
1/2-x,1/2-y,1/2+z
1/2-x,1/2+y,1/2+z
1/2+x,1/2-y,1/2+z
loop_
_atom_site_type_symbol
_atom_site_label
_atom_site_fract_x
_atom_site_fract_y
_atom_site_fract_z
Si Si1 0.602930 0.339383 0.230930
Si Si2 0.107916 0.156224 0.508618
Si Si3 0.105392 0.147503 0.239512
Si Si4 0.401016 0.342473 0.497163
Si Si5 0.219233 0.342309 0.434466
Si Si6 0.266442 0.844205 0.804409
Si Si7 0.101568 0.261709 0.120385
Si Si8 0.802528 0.848397 0.620601
O O1 0.500000 0.291948 0.234402
O O2 0.599894 0.500000 0.228795
O O3 0.666802 0.307427 0.282146
O O4 0.652763 0.290636 0.175518
O O5 0.142037 0.250108 0.460101
O O6 0.159094 0.206342 0.563624
O O7 0.000000 0.164466 0.516344
O O8 0.130197 0.000000 0.499169
O O9 0.163001 0.257259 0.270413
O O10 0.107837 0.169239 0.173846
O O11 0.000000 0.158446 0.255654
O O12 0.137884 0.000000 0.252510
O O13 0.500000 0.290356 0.478790
O O14 0.402964 0.500000 0.491168
O O15 0.313829 0.298196 0.463004
O O16 0.393027 0.309714 0.561608
O O17 0.205503 0.500000 0.445587
O O18 0.225038 0.325951 0.369219
O O19 0.280837 0.000000 0.792232
O O20 0.193795 0.345012 0.123327
O O21 0.000000 0.324307 0.123002
O O22 0.832839 0.000000 0.619359
#
# Coordination Sequence:
#
# PCOD9373363 Si02
#       8
#     8   8   8   8   8   8   8   8
#     4   9  17  31  53  79 105 135 174 220 265 311
#     4  10  21  37  57  80 107 141 182 225 267 317
#     4  10  21  36  55  80 108 140 178 218 265 324
#     4   9  17  31  52  77 105 135 168 211 265 320
#     4  10  21  36  55  79 108 140 179 225 268 313
#     4  10  21  36  54  80 108 139 181 225 268 312
#     4  10  18  30  52  80 107 137 173 215 266 323
#     4  10  18  31  52  80 110 139 174 215 266 324
#
# _framework density 17.566749999999999
#
# number of rings (size 3 to 8) (size 9 to 14) (size 15 to 20)
#    0.000    2.250    2.500    0.750    0.000    5.250 
#    0.000    6.250    0.000    0.750    0.000    1.750 
#    0.000    0.000    0.000    0.000    0.000    0.000 
#
# Total GULP energy -178203.280831 kJ/mol
# GULP energy per Si atom -5568.852526 kJ/mol
# Density = 1.752677 g / cm^3
# Si number density = 17.566750 Si / 1000 Ang^3
#
#
#
# Elastic Constant Matrix: (Units=GPa)
#
#
# Indices 1 2 3 4 5 6 
#
# 1 99.3575 35.8746 50.2871 0.0000 0.0000 0.0000
# 2 35.8746 39.8374 37.7700 0.0000 0.0000 0.0000
# 3 50.2871 37.7700 92.1652 0.0000 0.0000 0.0000
# 4 0.0000 0.0000 0.0000 17.5619 0.0000 0.0000
# 5 0.0000 0.0000 0.0000 0.0000 11.8553 0.0000
# 6 0.0000 0.0000 0.0000 0.0000 0.0000 22.2061
#
#
#
# Elastic Compliance Matrix: (Units=1/GPa)
#
#
# Indices 1 2 3 4 5 6 
#
# 1 0.016038 -0.010052 -0.004631 0.000000 0.000000 0.000000
# 2 -0.010052 0.047352 -0.013921 0.000000 0.000000 0.000000
# 3 -0.004631 -0.013921 0.019082 0.000000 0.000000 0.000000
# 4 0.000000 0.000000 0.000000 0.056941 0.000000 0.000000
# 5 0.000000 0.000000 0.000000 0.000000 0.084350 0.000000
# 6 0.000000 0.000000 0.000000 0.000000 0.000000 0.045033
#
#
# Mechanical properties :
#
#
# Convention : Reuss Voigt Hill
#
# Bulk Modulus (GPa) = 39.58153 53.24704 46.41429
# Shear Modulus (GPa) = 14.95099 17.48657 16.21878
#
# Velocity S-wave (km/s) = 2.92052 3.15848 3.04183
# Velocity P-wave (km/s) = 5.82697 6.60896 6.23025
#
# Compressibility (1/GPa) = 0.02526431
#
# Stress axis : x y z
#
# Youngs Moduli (GPa) = 62.35179 21.11834 52.40536
#
# Poissons Ratio (x) = 0.21227 0.24271
# Poissons Ratio (y) = 0.62673 0.72953
# Poissons Ratio (z) = 0.28878 0.29399
#
# Static dielectric constant tensor:
#      x y z
#    x 1.616020 0.000000 0.000000 
#    y 0.000000 1.588200 0.000000 
#    z 0.000000 0.000000 1.605110 
# 
# From -- ./inp_files/25153.got.cif
#   From: 2010.05.17/outbox.cif.g08.bks.cpg/sg44_13_cif.got.tgz:25153.got - 2010.06.03 19:37:08.
