data_PCOD9373203
_publ_section_title
;
Structure prediction by ZEFSAII (Michael W. Deem and Ramdas Pophale) SiO2 
 PCOD9373203
Probable space group: I M M 2
;
_chemical_formula_sum "Si O2"
_cell_formula_units_Z 48
_cell_length_a 17.328495
_cell_length_b 7.359039
_cell_length_c 19.156154
_cell_angle_alpha 90.000000
_cell_angle_beta 90.000000
_cell_angle_gamma 90.000000
_cell_volume 2442.813265
_symmetry_space_group_name_H-M "I M M 2"
_symmetry_group_IT_number 44
_symmetry_cell_setting 'orthorhombic'
loop_
_space_group_symop_operation_xyz
x,y,z
-x,-y,z
-x,y,z
x,-y,z
1/2+x,1/2+y,1/2+z
1/2-x,1/2-y,1/2+z
1/2-x,1/2+y,1/2+z
1/2+x,1/2-y,1/2+z
loop_
_atom_site_type_symbol
_atom_site_label
_atom_site_fract_x
_atom_site_fract_y
_atom_site_fract_z
Si Si1 0.658971 0.284382 0.857790
Si Si2 0.234469 0.279348 0.978201
Si Si3 0.412226 0.221937 0.562938
Si Si4 0.000000 0.221492 0.587997
Si Si5 0.168373 0.220908 0.614500
Si Si6 0.184829 0.717431 0.195898
Si Si7 0.000000 0.222140 0.425337
O O1 0.657287 0.500000 0.869909
O O2 0.730347 0.215923 0.904889
O O3 0.666894 0.258120 0.775579
O O4 0.577600 0.214575 0.887192
O O5 0.230754 0.500000 0.977248
O O6 0.150285 0.219600 0.004783
O O7 0.295491 0.230690 0.039157
O O8 0.500000 0.282191 0.552769
O O9 0.377351 0.279462 0.638116
O O10 0.413076 0.000000 0.562555
O O11 0.919430 0.283053 0.621103
O O12 0.000000 0.273019 0.506461
O O13 0.000000 0.000000 0.589948
O O14 0.230752 0.282638 0.671317
O O15 0.166799 0.000000 0.616152
O O16 0.185949 0.500000 0.189501
O O17 0.000000 0.000000 0.423723
#
# Coordination Sequence:
#
# PCOD9373203 Si02
#       7
#     8   8   8   4   8   8   4
#     4  10  18  28  43  64  89 113 136 167 210 256
#     4   8  13  23  40  60  81 106 139 176 208 239
#     4   8  14  25  42  63  83 105 139 180 211 236
#     4   9  12  20  42  67  85 100 133 184 220 237
#     4   8  13  23  40  63  85 106 137 177 212 240
#     4   9  18  29  42  63  90 114 137 168 208 253
#     4   9  16  24  39  67  91 104 129 174 218 249
#
# _framework density 19.649476
#
# number of rings (size 3 to 8) (size 9 to 14) (size 15 to 20)
#    0.000    3.333    1.667    2.000    1.167    0.000 
#    0.000    0.000    1.833    4.000    0.000    0.000 
#    0.000    0.000    0.000    0.000    0.000    0.000 
#
# Total GULP energy -133801.073747 kJ/mol
# GULP energy per Si atom -5575.044739 kJ/mol
# Density = 1.960475 g / cm^3
# Si number density = 19.649476 Si / 1000 Ang^3
#
#
#
# Elastic Constant Matrix: (Units=GPa)
#
#
# Indices 1 2 3 4 5 6 
#
# 1 202.6369 10.0802 68.8613 0.0000 0.0000 0.0000
# 2 10.0802 68.8833 2.1763 0.0000 0.0000 0.0000
# 3 68.8613 2.1763 94.5871 0.0000 0.0000 0.0000
# 4 0.0000 0.0000 0.0000 15.9538 0.0000 0.0000
# 5 0.0000 0.0000 0.0000 0.0000 21.5604 0.0000
# 6 0.0000 0.0000 0.0000 0.0000 0.0000 -17.2473
#
#
#
# Elastic Compliance Matrix: (Units=1/GPa)
#
#
# Indices 1 2 3 4 5 6 
#
# 1 0.006603 -0.000815 -0.004788 0.000000 0.000000 0.000000
# 2 -0.000815 0.014628 0.000257 0.000000 0.000000 0.000000
# 3 -0.004788 0.000257 0.014052 0.000000 0.000000 0.000000
# 4 0.000000 0.000000 0.000000 0.062681 0.000000 0.000000
# 5 0.000000 0.000000 0.000000 0.000000 0.046381 0.000000
# 6 0.000000 0.000000 0.000000 0.000000 0.000000 -0.057980
#
#
# Mechanical properties :
#
#
# Convention : Reuss Voigt Hill
#
# Bulk Modulus (GPa) = 40.66589 58.70477 49.68533
# Shear Modulus (GPa) = 47.50376 23.05269 35.27822
#
# Velocity S-wave (km/s) = 4.92220 3.42891 4.24179
# Velocity P-wave (km/s) = 7.28318 6.75407 7.02361
#
# Compressibility (1/GPa) = 0.02459063
#
# Stress axis : x y z
#
# Youngs Moduli (GPa) = 151.45587 68.35995 71.16339
#
# Poissons Ratio (x) = 0.05571 0.34073
# Poissons Ratio (y) = 0.12343 -0.01827
# Poissons Ratio (z) = 0.72518 -0.01755
#
# Static dielectric constant tensor:
#      x y z
#    x 1.697820 0.000000 0.000000 
#    y 0.000000 1.770310 0.000000 
#    z 0.000000 0.000000 1.660960 
# 
# From -- ./inp_files/24293.got.cif
#   From: 2010.05.17/outbox.cif.g08.bks.cpg/sg44_13_cif.got.tgz:24293.got - 2010.06.03 19:37:08.
