data_PCOD9373683
_publ_section_title
;
Structure prediction by ZEFSAII (Michael W. Deem and Ramdas Pophale) SiO2 
 PCOD9373683
Probable space group: I M M 2
;
_chemical_formula_sum "Si O2"
_cell_formula_units_Z 64
_cell_length_a 28.639413
_cell_length_b 7.825691
_cell_length_c 15.266178
_cell_angle_alpha 90.000000
_cell_angle_beta 90.000000
_cell_angle_gamma 90.000000
_cell_volume 3421.504613
_symmetry_space_group_name_H-M "I M M 2"
_symmetry_group_IT_number 44
_symmetry_cell_setting 'orthorhombic'
loop_
_space_group_symop_operation_xyz
x,y,z
-x,-y,z
-x,y,z
x,-y,z
1/2+x,1/2+y,1/2+z
1/2-x,1/2-y,1/2+z
1/2-x,1/2+y,1/2+z
1/2+x,1/2-y,1/2+z
loop_
_atom_site_type_symbol
_atom_site_label
_atom_site_fract_x
_atom_site_fract_y
_atom_site_fract_z
Si Si1 0.676362 0.793655 0.222360
Si Si2 0.135789 0.208953 0.096231
Si Si3 0.217310 0.791442 0.226419
Si Si4 0.446353 0.708747 0.719987
Si Si5 0.947459 0.203615 0.416346
Si Si6 0.632468 0.803540 0.049668
Si Si7 0.713046 0.700604 0.924198
Si Si8 0.179527 0.204185 0.920091
O O1 0.729864 0.733602 0.208383
O O2 0.643343 0.725957 0.145173
O O3 0.664025 0.749947 0.322066
O O4 0.677428 0.000000 0.215889
O O5 0.180255 0.262229 0.154441
O O6 0.089596 0.268301 0.146403
O O7 0.134826 0.000000 0.096537
O O8 0.144942 0.263186 0.996762
O O9 0.203499 0.738286 0.324808
O O10 0.217905 0.000000 0.227402
O O11 0.500000 0.758478 0.704470
O O12 0.444834 0.500000 0.719284
O O13 0.433266 0.765411 0.818838
O O14 0.909003 0.234297 0.489808
O O15 0.000000 0.268985 0.436059
O O16 0.951170 0.000000 0.408112
O O17 0.620565 0.000000 0.063790
O O18 0.680590 0.790539 0.994808
O O19 0.701504 0.500000 0.928747
O O20 0.768451 0.723536 0.936694
O O21 0.183930 0.000000 0.925414
#
# Coordination Sequence:
#
# PCOD9373683 Si02
#       8
#     8   8   8   8   8   8   8   8
#     4   9  19  34  47  62  90 129 166 200 242 289
#     4   9  15  24  42  67  93 121 153 192 236 280
#     4   8  14  26  44  64  89 122 156 187 226 281
#     4   8  14  26  46  72  99 126 156 188 228 285
#     4   9  18  33  53  76 100 125 154 192 242 298
#     4  11  21  32  50  73  96 127 167 205 241 286
#     4  10  19  31  48  70  99 133 163 194 238 290
#     4  10  19  30  46  69  96 127 165 207 245 281
#
# _framework density 18.705221000000002
#
# number of rings (size 3 to 8) (size 9 to 14) (size 15 to 20)
#    0.000    2.750    0.000    4.125    0.000    5.250 
#    0.000    0.000    0.000    9.000    0.000    1.750 
#    0.000    0.000    0.000    0.000    0.000    0.000 
#
# Total GULP energy -178457.092544 kJ/mol
# GULP energy per Si atom -5576.784142 kJ/mol
# Density = 1.866265 g / cm^3
# Si number density = 18.705221 Si / 1000 Ang^3
#
#
#
# Elastic Constant Matrix: (Units=GPa)
#
#
# Indices 1 2 3 4 5 6 
#
# 1 90.9589 -0.4469 101.2546 0.0000 0.0000 0.0000
# 2 -0.4469 18.3761 -1.1771 0.0000 0.0000 0.0000
# 3 101.2546 -1.1771 163.1261 0.0000 0.0000 0.0000
# 4 0.0000 0.0000 0.0000 15.3242 0.0000 0.0000
# 5 0.0000 0.0000 0.0000 0.0000 29.6164 0.0000
# 6 0.0000 0.0000 0.0000 0.0000 0.0000 33.8871
#
#
#
# Elastic Compliance Matrix: (Units=1/GPa)
#
#
# Indices 1 2 3 4 5 6 
#
# 1 0.035582 -0.000550 -0.022090 0.000000 0.000000 0.000000
# 2 -0.000550 0.054452 0.000734 0.000000 0.000000 0.000000
# 3 -0.022090 0.000734 0.019847 0.000000 0.000000 0.000000
# 4 0.000000 0.000000 0.000000 0.065256 0.000000 0.000000
# 5 0.000000 0.000000 0.000000 0.000000 0.033765 0.000000
# 6 0.000000 0.000000 0.000000 0.000000 0.000000 0.029510
#
#
# Mechanical properties :
#
#
# Convention : Reuss Voigt Hill
#
# Bulk Modulus (GPa) = 15.13550 52.41361 33.77456
# Shear Modulus (GPa) = 16.43406 27.28757 21.86081
#
# Velocity S-wave (km/s) = 2.96730 3.82360 3.42234
# Velocity P-wave (km/s) = 4.45522 6.89745 5.80620
#
# Compressibility (1/GPa) = 0.06606982
#
# Stress axis : x y z
#
# Youngs Moduli (GPa) = 28.10446 18.36474 50.38538
#
# Poissons Ratio (x) = 0.01009 1.11301
# Poissons Ratio (y) = 0.01545 -0.03699
# Poissons Ratio (z) = 0.62082 -0.01348
#
# Static dielectric constant tensor:
#      x y z
#    x 1.633190 0.000000 0.000000 
#    y 0.000000 1.691840 0.000000 
#    z 0.000000 0.000000 1.670120 
# 
# From -- ./inp_files/19694.got.cif
#   From: 2010.05.17/outbox.cif.g08.bks.cpg/sg44_10_cif.got.tgz:19694.got - 2010.06.03 19:37:08.
