data_PCOD9373372
_publ_section_title
;
Structure prediction by ZEFSAII (Michael W. Deem and Ramdas Pophale) SiO2 
 PCOD9373372
Probable space group: I M M 2
;
_chemical_formula_sum "Si O2"
_cell_formula_units_Z 56
_cell_length_a 16.413865
_cell_length_b 8.278740
_cell_length_c 20.148629
_cell_angle_alpha 90.000000
_cell_angle_beta 90.000000
_cell_angle_gamma 90.000000
_cell_volume 2737.919033
_symmetry_space_group_name_H-M "I M M 2"
_symmetry_group_IT_number 44
_symmetry_cell_setting 'orthorhombic'
loop_
_space_group_symop_operation_xyz
x,y,z
-x,-y,z
-x,y,z
x,-y,z
1/2+x,1/2+y,1/2+z
1/2-x,1/2-y,1/2+z
1/2-x,1/2+y,1/2+z
1/2+x,1/2-y,1/2+z
loop_
_atom_site_type_symbol
_atom_site_label
_atom_site_fract_x
_atom_site_fract_y
_atom_site_fract_z
Si Si1 0.756601 0.688250 0.926950
Si Si2 0.197305 0.306448 0.136965
Si Si3 0.241331 0.684462 0.283501
Si Si4 0.588955 0.813108 0.253090
Si Si5 0.093737 0.806749 0.014443
Si Si6 0.873741 0.680974 0.601059
Si Si7 0.913837 0.186420 0.471847
O O1 0.760826 0.500000 0.945749
O O2 0.739007 0.707397 0.848891
O O3 0.673273 0.763575 0.955677
O O4 0.839488 0.760911 0.957768
O O5 0.208976 0.500000 0.135245
O O6 0.194598 0.262888 0.215890
O O7 0.126129 0.260976 0.085481
O O8 0.278438 0.220115 0.110115
O O9 0.217578 0.500000 0.298517
O O10 0.337809 0.694649 0.268903
O O11 0.500000 0.768747 0.279494
O O12 0.588174 0.814834 0.173610
O O13 0.606866 0.000000 0.273943
O O14 0.000000 0.752896 0.001089
O O15 0.093356 0.000000 0.019076
O O16 0.885596 0.500000 0.574476
O O17 0.912629 0.805808 0.551107
O O18 0.000000 0.257520 0.447835
O O19 0.911526 0.000000 0.449143
#
# Coordination Sequence:
#
# PCOD9373372 Si02
#       7
#     8   8   8   8   8   8   8
#     4  11  23  40  62  87 120 162 204 249 307 371
#     4  10  20  37  60  87 118 156 200 247 303 361
#     4  10  22  38  58  82 114 156 201 251 307 362
#     4   9  18  32  50  77 112 147 187 231 281 348
#     4  11  24  41  64  94 126 163 209 263 318 371
#     4  10  18  30  53  83 115 148 183 229 283 340
#     4  10  21  36  55  82 115 149 187 234 291 355
#
# _framework density 20.453489000000001
#
# number of rings (size 3 to 8) (size 9 to 14) (size 15 to 20)
#    0.000    1.857    1.429    2.571    0.000    5.714 
#    0.000    0.714    0.000    2.571    0.000    0.000 
#    0.000    0.000    0.000    0.000    0.000    0.000 
#
# Total GULP energy -155959.448562 kJ/mol
# GULP energy per Si atom -5569.980306 kJ/mol
# Density = 2.040694 g / cm^3
# Si number density = 20.453489 Si / 1000 Ang^3
#
#
#
# Elastic Constant Matrix: (Units=GPa)
#
#
# Indices 1 2 3 4 5 6 
#
# 1 114.9471 13.3721 23.3027 0.0000 0.0000 0.0000
# 2 13.3721 34.1518 4.3055 0.0000 0.0000 0.0000
# 3 23.3027 4.3055 67.5143 0.0000 0.0000 0.0000
# 4 0.0000 0.0000 0.0000 27.1332 0.0000 0.0000
# 5 0.0000 0.0000 0.0000 0.0000 4.1078 0.0000
# 6 0.0000 0.0000 0.0000 0.0000 0.0000 6.8241
#
#
#
# Elastic Compliance Matrix: (Units=1/GPa)
#
#
# Indices 1 2 3 4 5 6 
#
# 1 0.009734 -0.003415 -0.003142 0.000000 0.000000 0.000000
# 2 -0.003415 0.030717 -0.000780 0.000000 0.000000 0.000000
# 3 -0.003142 -0.000780 0.015946 0.000000 0.000000 0.000000
# 4 0.000000 0.000000 0.000000 0.036855 0.000000 0.000000
# 5 0.000000 0.000000 0.000000 0.000000 0.243439 0.000000
# 6 0.000000 0.000000 0.000000 0.000000 0.000000 0.146539
#
#
# Mechanical properties :
#
#
# Convention : Reuss Voigt Hill
#
# Bulk Modulus (GPa) = 23.96818 33.17486 28.57152
# Shear Modulus (GPa) = 9.76923 19.32188 14.54556
#
# Velocity S-wave (km/s) = 2.18785 3.07689 2.66964
# Velocity P-wave (km/s) = 4.25747 5.37381 4.84788
#
# Compressibility (1/GPa) = 0.04172199
#
# Stress axis : x y z
#
# Youngs Moduli (GPa) = 102.73388 32.55571 62.71224
#
# Poissons Ratio (x) = 0.11118 0.19703
# Poissons Ratio (y) = 0.35086 0.04892
# Poissons Ratio (z) = 0.32278 0.02540
#
# Static dielectric constant tensor:
#      x y z
#    x 1.794480 0.000000 0.000000 
#    y 0.000000 1.735070 0.000000 
#    z 0.000000 0.000000 1.778930 
# 
# From -- ./inp_files/23043.got.cif
#   From: 2010.05.17/outbox.cif.g08.bks.cpg/sg44_12_cif.got.tgz:23043.got - 2010.06.03 19:37:08.
