data_PCOD9373335
_publ_section_title
;
Structure prediction by ZEFSAII (Michael W. Deem and Ramdas Pophale) SiO2 
 PCOD9373335
Probable space group: I M M 2
;
_chemical_formula_sum "Si O2"
_cell_formula_units_Z 64
_cell_length_a 14.889030
_cell_length_b 7.759475
_cell_length_c 25.051297
_cell_angle_alpha 90.000000
_cell_angle_beta 90.000000
_cell_angle_gamma 90.000000
_cell_volume 2894.202798
_symmetry_space_group_name_H-M "I M M 2"
_symmetry_group_IT_number 44
_symmetry_cell_setting 'orthorhombic'
loop_
_space_group_symop_operation_xyz
x,y,z
-x,-y,z
-x,y,z
x,-y,z
1/2+x,1/2+y,1/2+z
1/2-x,1/2-y,1/2+z
1/2-x,1/2+y,1/2+z
1/2+x,1/2-y,1/2+z
loop_
_atom_site_type_symbol
_atom_site_label
_atom_site_fract_x
_atom_site_fract_y
_atom_site_fract_z
Si Si1 0.625872 0.198566 0.480910
Si Si2 0.596230 0.698431 0.597134
Si Si3 0.901251 0.801282 0.861780
Si Si4 0.254191 0.806716 0.667530
Si Si5 0.397395 0.289914 0.091829
Si Si6 0.898528 0.703483 0.249780
Si Si7 0.807354 0.794872 0.358575
Si Si8 0.839927 0.801769 0.475965
O O1 0.593980 0.290392 0.533740
O O2 0.598284 0.285514 0.425983
O O3 0.733219 0.195306 0.484126
O O4 0.874222 0.000000 0.473046
O O5 0.500000 0.757824 0.618489
O O6 0.610444 0.500000 0.612558
O O7 0.675864 0.812644 0.618607
O O8 0.800458 0.732520 0.849021
O O9 0.000000 0.727970 0.843915
O O10 0.900470 0.000000 0.845187
O O11 0.167999 0.724627 0.638842
O O12 0.317283 0.723702 0.713064
O O13 0.228955 0.000000 0.685919
O O14 0.500000 0.255066 0.104968
O O15 0.383946 0.500000 0.089979
O O16 0.378325 0.226109 0.031192
O O17 0.902846 0.500000 0.236444
O O18 0.865038 0.722795 0.310152
O O19 0.000000 0.774383 0.243310
O O20 0.843894 0.725471 0.415937
O O21 0.818792 0.000000 0.360818
O O22 0.596647 0.000000 0.480066
#
# Coordination Sequence:
#
# PCOD9373335 Si02
#       8
#     8   8   8   8   8   8   8   8
#     4  10  18  30  49  75 110 152 194 233 275 336
#     4  11  22  32  46  74 109 145 186 233 289 346
#     4  10  20  34  53  80 117 157 193 234 287 343
#     4  10  20  37  59  81 108 146 191 236 289 350
#     4   9  16  29  54  86 115 141 176 229 286 341
#     4  10  22  40  60  82 112 150 193 245 301 357
#     4  10  21  36  58  86 115 151 197 244 290 348
#     4   8  15  29  49  79 113 143 179 224 277 332
#
# _framework density 22.113168999999999
#
# number of rings (size 3 to 8) (size 9 to 14) (size 15 to 20)
#    0.000    2.250    1.250    3.000    0.000    5.250 
#    0.000    1.875    0.000    2.625    0.000    0.000 
#    0.000    0.000    0.000    0.000    0.000    0.000 
#
# Total GULP energy -178306.704747 kJ/mol
# GULP energy per Si atom -5572.084523 kJ/mol
# Density = 2.206284 g / cm^3
# Si number density = 22.113169 Si / 1000 Ang^3
#
#
#
# Elastic Constant Matrix: (Units=GPa)
#
#
# Indices 1 2 3 4 5 6 
#
# 1 135.0416 2.3081 62.4636 0.0000 0.0000 0.0000
# 2 2.3081 42.0000 -3.4107 0.0000 0.0000 0.0000
# 3 62.4636 -3.4107 119.5668 0.0000 0.0000 0.0000
# 4 0.0000 0.0000 0.0000 16.7019 0.0000 0.0000
# 5 0.0000 0.0000 0.0000 0.0000 8.0019 0.0000
# 6 0.0000 0.0000 0.0000 0.0000 0.0000 6.7315
#
#
#
# Elastic Compliance Matrix: (Units=1/GPa)
#
#
# Indices 1 2 3 4 5 6 
#
# 1 0.009803 -0.000957 -0.005149 0.000000 0.000000 0.000000
# 2 -0.000957 0.023958 0.001183 0.000000 0.000000 0.000000
# 3 -0.005149 0.001183 0.011087 0.000000 0.000000 0.000000
# 4 0.000000 0.000000 0.000000 0.059874 0.000000 0.000000
# 5 0.000000 0.000000 0.000000 0.000000 0.124971 0.000000
# 6 0.000000 0.000000 0.000000 0.000000 0.000000 0.148555
#
#
# Mechanical properties :
#
#
# Convention : Reuss Voigt Hill
#
# Bulk Modulus (GPa) = 28.56817 46.59227 37.58022
# Shear Modulus (GPa) = 12.50752 21.97021 17.23886
#
# Velocity S-wave (km/s) = 2.38084 3.15546 2.79512
# Velocity P-wave (km/s) = 4.52825 5.86443 5.23911
#
# Compressibility (1/GPa) = 0.03500400
#
# Stress axis : x y z
#
# Youngs Moduli (GPa) = 102.01042 41.73937 90.19619
#
# Poissons Ratio (x) = 0.03994 0.46438
# Poissons Ratio (y) = 0.09760 -0.10673
# Poissons Ratio (z) = 0.52520 -0.04939
#
# Static dielectric constant tensor:
#      x y z
#    x 1.834850 0.000000 0.000000 
#    y 0.000000 1.856050 0.000000 
#    z 0.000000 0.000000 1.838100 
# 
# From -- ./inp_files/25762.got.cif
#   From: 2010.05.17/outbox.cif.g08.bks.cpg/sg44_13_cif.got.tgz:25762.got - 2010.06.03 19:37:08.
