data_PCOD9373896
_publ_section_title
;
Structure prediction by ZEFSAII (Michael W. Deem and Ramdas Pophale) SiO2 
 PCOD9373896
Probable space group: I M M 2
;
_chemical_formula_sum "Si O2"
_cell_formula_units_Z 64
_cell_length_a 8.818605
_cell_length_b 30.767101
_cell_length_c 14.673424
_cell_angle_alpha 90.000000
_cell_angle_beta 90.000000
_cell_angle_gamma 90.000000
_cell_volume 3981.236110
_symmetry_space_group_name_H-M "I M M 2"
_symmetry_group_IT_number 44
_symmetry_cell_setting 'orthorhombic'
loop_
_space_group_symop_operation_xyz
x,y,z
-x,-y,z
-x,y,z
x,-y,z
1/2+x,1/2+y,1/2+z
1/2-x,1/2-y,1/2+z
1/2-x,1/2+y,1/2+z
1/2+x,1/2-y,1/2+z
loop_
_atom_site_type_symbol
_atom_site_label
_atom_site_fract_x
_atom_site_fract_y
_atom_site_fract_z
Si Si1 0.677978 0.371789 0.524350
Si Si2 0.821273 0.449709 0.431559
Si Si3 0.181100 0.788874 0.544823
Si Si4 0.681212 0.450019 0.232364
Si Si5 0.176583 0.276700 0.846891
Si Si6 0.677290 0.866033 0.658283
Si Si7 0.182737 0.206204 0.154411
Si Si8 0.828578 0.827052 0.828617
O O1 0.500000 0.381541 0.538067
O O2 0.767689 0.416163 0.508208
O O3 0.727566 0.337865 0.601415
O O4 0.692180 0.346143 0.428774
O O5 0.792942 0.500000 0.456333
O O6 0.733318 0.441153 0.336663
O O7 0.000000 0.444364 0.413906
O O8 0.241362 0.786942 0.441627
O O9 0.236392 0.833705 0.590321
O O10 0.249822 0.748246 0.602009
O O11 0.000000 0.785795 0.548019
O O12 0.500000 0.446611 0.227903
O O13 0.725226 0.500000 0.212218
O O14 0.756675 0.414521 0.167105
O O15 0.257845 0.295121 0.757420
O O16 0.179948 0.224608 0.834461
O O17 0.000000 0.289958 0.850978
O O18 0.500000 0.866567 0.637569
O O19 0.708535 0.845311 0.757831
O O20 0.000000 0.209764 0.151543
O O21 0.000000 0.838975 0.796932
#
# Coordination Sequence:
#
# PCOD9373896 Si02
#       8
#     8   8   8   8   8   8   8   8
#     4  10  20  34  52  73 104 142 178 216 258 311
#     4  10  20  32  48  74 106 137 174 219 263 311
#     4  12  24  37  54  76 105 142 181 220 262 313
#     4  10  20  34  52  74 104 140 175 213 262 319
#     4  11  22  38  55  75 105 140 179 224 265 310
#     4  12  23  34  52  77 106 141 180 221 262 312
#     4  11  22  37  54  77 106 138 179 222 264 313
#     4  10  19  32  50  74 106 141 177 216 258 306
#
# _framework density 16.075409000000001
#
# number of rings (size 3 to 8) (size 9 to 14) (size 15 to 20)
#    0.000    1.250    3.750    3.750    0.000    3.000 
#    0.000    0.000    0.000    0.000    0.000    0.875 
#    0.000    3.000    0.000    0.000    0.000    0.000 
#
# Total GULP energy -178721.813144 kJ/mol
# GULP energy per Si atom -5585.056661 kJ/mol
# Density = 1.603882 g / cm^3
# Si number density = 16.075409 Si / 1000 Ang^3
#
#
#
# Elastic Constant Matrix: (Units=GPa)
#
#
# Indices 1 2 3 4 5 6 
#
# 1 90.7087 39.1636 36.7949 -0.0001 0.0000 0.0000
# 2 39.1636 90.8847 36.4790 -0.0002 0.0000 0.0000
# 3 36.7949 36.4790 81.8990 -0.0002 0.0000 0.0000
# 4 -0.0001 -0.0002 -0.0002 23.3883 0.0000 0.0000
# 5 0.0000 0.0000 0.0000 0.0000 24.6471 0.0000
# 6 0.0000 0.0000 0.0000 0.0000 0.0000 28.4948
#
#
#
# Elastic Compliance Matrix: (Units=1/GPa)
#
#
# Indices 1 2 3 4 5 6 
#
# 1 0.014875 -0.004539 -0.004661 0.000000 0.000000 0.000000
# 2 -0.004539 0.014783 -0.004545 0.000000 0.000000 0.000000
# 3 -0.004661 -0.004545 0.016329 0.000000 0.000000 0.000000
# 4 0.000000 0.000000 0.000000 0.042757 0.000000 0.000000
# 5 0.000000 0.000000 0.000000 0.000000 0.040573 0.000000
# 6 0.000000 0.000000 0.000000 0.000000 0.000000 0.035094
#
#
# Mechanical properties :
#
#
# Convention : Reuss Voigt Hill
#
# Bulk Modulus (GPa) = 54.06598 54.26305 54.16452
# Shear Modulus (GPa) = 25.24406 25.37637 25.31022
#
# Velocity S-wave (km/s) = 3.96707 3.97745 3.97226
# Velocity P-wave (km/s) = 7.39522 7.41094 7.40308
#
# Compressibility (1/GPa) = 0.01849592
#
# Stress axis : x y z
#
# Youngs Moduli (GPa) = 67.22834 67.64404 61.24119
#
# Poissons Ratio (x) = 0.30703 0.28545
# Poissons Ratio (y) = 0.30514 0.27837
# Poissons Ratio (z) = 0.31336 0.30748
#
# Static dielectric constant tensor:
#      x y z
#    x 1.548240 0.000000 0.000000 
#    y 0.000000 1.550270 0.000000 
#    z 0.000000 0.000000 1.514910 
# 
# From -- ./inp_files/17145.got.cif
#   From: 2010.05.17/outbox.cif.g08.bks.cpg/sg44_9_cif.got.tgz:17145.got - 2010.06.03 19:37:08.
