data_PCOD9373210
_publ_section_title
;
Structure prediction by ZEFSAII (Michael W. Deem and Ramdas Pophale) SiO2 
 PCOD9373210
Probable space group: I M M 2
;
_chemical_formula_sum "Si O2"
_cell_formula_units_Z 48
_cell_length_a 24.546385
_cell_length_b 7.614410
_cell_length_c 14.303695
_cell_angle_alpha 90.000000
_cell_angle_beta 90.000000
_cell_angle_gamma 90.000000
_cell_volume 2673.449842
_symmetry_space_group_name_H-M "I M M 2"
_symmetry_group_IT_number 44
_symmetry_cell_setting 'orthorhombic'
loop_
_space_group_symop_operation_xyz
x,y,z
-x,-y,z
-x,y,z
x,-y,z
1/2+x,1/2+y,1/2+z
1/2-x,1/2-y,1/2+z
1/2-x,1/2+y,1/2+z
1/2+x,1/2-y,1/2+z
loop_
_atom_site_type_symbol
_atom_site_label
_atom_site_fract_x
_atom_site_fract_y
_atom_site_fract_z
Si Si1 0.264372 0.293257 0.190020
Si Si2 0.833975 0.287788 0.516993
Si Si3 0.272067 0.715064 0.401199
Si Si4 0.659451 0.704115 0.571368
Si Si5 0.061959 0.787804 0.196186
Si Si6 0.438781 0.210123 0.911155
O O1 0.252621 0.500000 0.196717
O O2 0.314647 0.267206 0.119620
O O3 0.275690 0.226885 0.294296
O O4 0.211264 0.211232 0.141133
O O5 0.834852 0.500000 0.515876
O O6 0.785762 0.232784 0.446267
O O7 0.891823 0.222267 0.479515
O O8 0.273746 0.500000 0.402335
O O9 0.318551 0.778444 0.473159
O O10 0.646763 0.500000 0.553658
O O11 0.607049 0.780670 0.623881
O O12 0.076524 0.741763 0.303002
O O13 0.000000 0.726157 0.178930
O O14 0.061615 0.000000 0.191201
O O15 0.500000 0.280642 0.925615
O O16 0.441246 0.000000 0.923675
#
# Coordination Sequence:
#
# PCOD9373210 Si02
#       6
#     8   8   8   8   8   8
#     4  10  18  28  44  65  86 109 142 180 215 251
#     4   9  17  30  45  62  87 115 141 171 212 259
#     4   8  15  27  42  59  82 112 139 168 208 252
#     4   9  17  30  45  61  86 117 143 170 212 261
#     4   9  17  28  44  67  91 114 143 180 217 252
#     4   9  17  29  46  66  88 117 148 175 210 259
#
# _framework density 17.954329999999999
#
# number of rings (size 3 to 8) (size 9 to 14) (size 15 to 20)
#    0.000    3.000    0.000    2.500    0.000    2.667 
#    0.000    8.333    0.000    1.000    0.000    2.333 
#    0.000    0.000    0.000    0.000    0.000    0.000 
#
# Total GULP energy -133767.596985 kJ/mol
# GULP energy per Si atom -5573.649874 kJ/mol
# Density = 1.791347 g / cm^3
# Si number density = 17.954330 Si / 1000 Ang^3
#
#
#
# Elastic Constant Matrix: (Units=GPa)
#
#
# Indices 1 2 3 4 5 6 
#
# 1 81.2127 -2.8836 66.8855 0.0000 0.0000 0.0000
# 2 -2.8836 36.3652 -5.1109 0.0000 0.0000 0.0000
# 3 66.8855 -5.1109 155.6904 0.0000 0.0000 0.0000
# 4 0.0000 0.0000 0.0000 11.5094 0.0000 0.0000
# 5 0.0000 0.0000 0.0000 0.0000 28.9266 0.0000
# 6 0.0000 0.0000 0.0000 0.0000 0.0000 15.2993
#
#
#
# Elastic Compliance Matrix: (Units=1/GPa)
#
#
# Indices 1 2 3 4 5 6 
#
# 1 0.019060 0.000362 -0.008176 0.000000 0.000000 0.000000
# 2 0.000362 0.027633 0.000752 0.000000 0.000000 0.000000
# 3 -0.008176 0.000752 0.009960 0.000000 0.000000 0.000000
# 4 0.000000 0.000000 0.000000 0.086886 0.000000 0.000000
# 5 0.000000 0.000000 0.000000 0.000000 0.034570 0.000000
# 6 0.000000 0.000000 0.000000 0.000000 0.000000 0.065363
#
#
# Mechanical properties :
#
#
# Convention : Reuss Voigt Hill
#
# Bulk Modulus (GPa) = 23.51378 43.45003 33.48190
# Shear Modulus (GPa) = 18.39764 25.43887 21.91826
#
# Velocity S-wave (km/s) = 3.20455 3.76821 3.49775
# Velocity P-wave (km/s) = 5.17852 6.57156 5.91618
#
# Compressibility (1/GPa) = 0.04252825
#
# Stress axis : x y z
#
# Youngs Moduli (GPa) = 52.46526 36.18839 100.39811
#
# Poissons Ratio (x) = -0.01311 0.82090
# Poissons Ratio (y) = -0.01901 -0.07545
# Poissons Ratio (z) = 0.42898 -0.02720
#
# Static dielectric constant tensor:
#      x y z
#    x 1.624060 0.000000 0.000000 
#    y 0.000000 1.678660 0.000000 
#    z 0.000000 0.000000 1.603860 
# 
# From -- ./inp_files/11157.got.cif
#   From: 2010.05.17/outbox.cif.g08.bks.cpg/sg44_6_cif.got.tgz:11157.got - 2010.06.03 19:37:08.
