data_PCOD9373064
_publ_section_title
;
Structure prediction by ZEFSAII (Michael W. Deem and Ramdas Pophale) SiO2 
 PCOD9373064
Probable space group: I M M 2
;
_chemical_formula_sum "Si O2"
_cell_formula_units_Z 64
_cell_length_a 15.237774
_cell_length_b 8.154046
_cell_length_c 28.720117
_cell_angle_alpha 90.000000
_cell_angle_beta 90.000000
_cell_angle_gamma 90.000000
_cell_volume 3568.460468
_symmetry_space_group_name_H-M "I M M 2"
_symmetry_group_IT_number 44
_symmetry_cell_setting 'orthorhombic'
loop_
_space_group_symop_operation_xyz
x,y,z
-x,-y,z
-x,y,z
x,-y,z
1/2+x,1/2+y,1/2+z
1/2-x,1/2-y,1/2+z
1/2-x,1/2+y,1/2+z
1/2+x,1/2-y,1/2+z
loop_
_atom_site_type_symbol
_atom_site_label
_atom_site_fract_x
_atom_site_fract_y
_atom_site_fract_z
Si Si1 0.901366 0.197244 0.873750
Si Si2 0.400621 0.804134 0.099692
Si Si3 0.400403 0.698021 0.994616
Si Si4 0.599930 0.802088 0.829196
Si Si5 0.723342 0.305492 0.912583
Si Si6 0.221364 0.198016 0.683449
Si Si7 0.598466 0.799809 0.721790
Si Si8 0.899671 0.800185 0.767917
O O1 0.822585 0.245623 0.907140
O O2 0.880877 0.254060 0.820754
O O3 0.000000 0.254677 0.885781
O O4 0.904140 0.000000 0.872086
O O5 0.500000 0.743032 0.110883
O O6 0.330382 0.747125 0.137384
O O7 0.402997 0.000000 0.100112
O O8 0.379492 0.746993 0.047428
O O9 0.500000 0.755728 0.984224
O O10 0.401428 0.500000 0.992321
O O11 0.331300 0.760934 0.956680
O O12 0.500000 0.751063 0.841178
O O13 0.669248 0.738332 0.866115
O O14 0.616771 0.752806 0.775626
O O15 0.602988 0.000000 0.830241
O O16 0.725972 0.500000 0.916845
O O17 0.321682 0.254942 0.689361
O O18 0.166769 0.257410 0.728558
O O19 0.222254 0.000000 0.685162
O O20 0.500000 0.744616 0.709534
O O21 0.597092 0.000000 0.721281
O O22 0.000000 0.754013 0.756583
O O23 0.896188 0.000000 0.768238
#
# Coordination Sequence:
#
# PCOD9373064 Si02
#       8
#     8   8   8   8   8   8   8   8
#     4   9  18  33  51  70  96 132 172 208 236 270
#     4  10  21  35  50  71  98 122 147 189 243 291
#     4   9  19  36  54  71  94 124 156 189 230 286
#     4   9  17  30  49  72  99 132 168 202 235 278
#     4  11  21  31  48  74 102 129 158 198 246 292
#     4  10  17  27  49  73  93 124 162 196 233 280
#     4   8  15  28  46  70  98 128 166 206 233 261
#     4   8  14  25  43  68  94 122 161 201 230 266
#
# _framework density 17.934904
#
# number of rings (size 3 to 8) (size 9 to 14) (size 15 to 20)
#    0.000    2.750    0.000    3.750    0.000    5.250 
#    0.000    3.750    0.000    2.625    0.000    1.750 
#    0.000    0.000    0.000    0.000    0.000    0.000 
#
# Total GULP energy -178453.486952 kJ/mol
# GULP energy per Si atom -5576.671467 kJ/mol
# Density = 1.789408 g / cm^3
# Si number density = 17.934904 Si / 1000 Ang^3
#
#
#
# Elastic Constant Matrix: (Units=GPa)
#
#
# Indices 1 2 3 4 5 6 
#
# 1 166.0110 17.5021 108.9181 0.0000 0.0000 0.0000
# 2 17.5021 9.2851 10.4227 0.0000 0.0000 0.0000
# 3 108.9181 10.4227 101.3685 0.0000 0.0000 0.0000
# 4 0.0000 0.0000 0.0000 16.3404 0.0000 0.0000
# 5 0.0000 0.0000 0.0000 0.0000 31.7528 0.0000
# 6 0.0000 0.0000 0.0000 0.0000 0.0000 17.4217
#
#
#
# Elastic Compliance Matrix: (Units=1/GPa)
#
#
# Indices 1 2 3 4 5 6 
#
# 1 0.022653 -0.017385 -0.022553 0.000000 0.000000 0.000000
# 2 -0.017385 0.135094 0.004789 0.000000 0.000000 0.000000
# 3 -0.022553 0.004789 0.033605 0.000000 0.000000 0.000000
# 4 0.000000 0.000000 0.000000 0.061198 0.000000 0.000000
# 5 0.000000 0.000000 0.000000 0.000000 0.031493 0.000000
# 6 0.000000 0.000000 0.000000 0.000000 0.000000 0.057400
#
#
# Mechanical properties :
#
#
# Convention : Reuss Voigt Hill
#
# Bulk Modulus (GPa) = 8.26069 61.15002 34.70536
# Shear Modulus (GPa) = 11.05972 22.42444 16.74208
#
# Velocity S-wave (km/s) = 2.48596 3.53983 3.05862
# Velocity P-wave (km/s) = 3.58551 7.13279 5.64503
#
# Compressibility (1/GPa) = 0.12105520
#
# Stress axis : x y z
#
# Youngs Moduli (GPa) = 44.14387 7.40227 29.75742
#
# Poissons Ratio (x) = 0.12869 0.67111
# Poissons Ratio (y) = 0.76743 -0.14251
# Poissons Ratio (z) = 0.99557 -0.03545
#
# Static dielectric constant tensor:
#      x y z
#    x 1.637230 0.000000 0.000000 
#    y 0.000000 1.640260 0.000000 
#    z 0.000000 0.000000 1.590810 
# 
# From -- ./inp_files/25806.got.cif
#   From: 2010.05.17/outbox.cif.g08.bks.cpg/sg44_13_cif.got.tgz:25806.got - 2010.06.03 19:37:08.
