data_PCOD9373107
_publ_section_title
;
Structure prediction by ZEFSAII (Michael W. Deem and Ramdas Pophale) SiO2 
 PCOD9373107
Probable space group: I M M 2
;
_chemical_formula_sum "Si O2"
_cell_formula_units_Z 64
_cell_length_a 21.075978
_cell_length_b 7.615215
_cell_length_c 20.647560
_cell_angle_alpha 90.000000
_cell_angle_beta 90.000000
_cell_angle_gamma 90.000000
_cell_volume 3313.894228
_symmetry_space_group_name_H-M "I M M 2"
_symmetry_group_IT_number 44
_symmetry_cell_setting 'orthorhombic'
loop_
_space_group_symop_operation_xyz
x,y,z
-x,-y,z
-x,y,z
x,-y,z
1/2+x,1/2+y,1/2+z
1/2-x,1/2-y,1/2+z
1/2-x,1/2+y,1/2+z
1/2+x,1/2-y,1/2+z
loop_
_atom_site_type_symbol
_atom_site_label
_atom_site_fract_x
_atom_site_fract_y
_atom_site_fract_z
Si Si1 0.196147 0.207253 0.378480
Si Si2 0.181888 0.205497 0.962041
Si Si3 0.224353 0.798147 0.237650
Si Si4 0.370348 0.293149 0.235971
Si Si5 0.269667 0.284127 0.596591
Si Si6 0.622250 0.211333 0.093845
Si Si7 0.429299 0.284975 0.369786
Si Si8 0.070287 0.287427 0.457036
O O1 0.251817 0.283283 0.423329
O O2 0.200786 0.280691 0.305319
O O3 0.127986 0.233170 0.411082
O O4 0.209649 0.000000 0.374800
O O5 0.125500 0.279078 0.918058
O O6 0.167387 0.000000 0.970665
O O7 0.192302 0.278513 0.033955
O O8 0.301177 0.795384 0.238463
O O9 0.207345 0.722213 0.167159
O O10 0.202293 0.000000 0.236877
O O11 0.358296 0.500000 0.244178
O O12 0.400075 0.265924 0.165162
O O13 0.411827 0.232552 0.296483
O O14 0.269945 0.500000 0.597271
O O15 0.195909 0.232177 0.588326
O O16 0.621340 0.000000 0.092835
O O17 0.584996 0.272827 0.030573
O O18 0.500000 0.228627 0.387375
O O19 0.428574 0.500000 0.370412
O O20 0.070468 0.500000 0.457905
O O21 0.000000 0.228699 0.437050
#
# Coordination Sequence:
#
# PCOD9373107 Si02
#       8
#     8   8   8   8   8   8   8   8
#     4  11  21  32  51  76 104 131 162 214 264 301
#     4  10  17  31  54  73  94 129 172 211 246 298
#     4   9  18  32  48  70 101 132 162 201 255 306
#     4  10  18  28  46  71 100 133 170 206 242 292
#     4   8  14  27  49  71  91 123 162 202 243 288
#     4   9  17  31  48  68  99 131 165 204 245 295
#     4   9  18  30  45  70 102 132 163 206 253 290
#     4  10  21  37  55  73  98 136 178 212 247 304
#
# _framework density 19.312626000000002
#
# number of rings (size 3 to 8) (size 9 to 14) (size 15 to 20)
#    0.000    2.500    2.500    1.500    0.000    1.750 
#    0.000    0.000    0.000    3.750    0.000    3.500 
#    0.000    0.000    0.000    0.000    0.000    0.000 
#
# Total GULP energy -178477.786708 kJ/mol
# GULP energy per Si atom -5577.430835 kJ/mol
# Density = 1.926867 g / cm^3
# Si number density = 19.312626 Si / 1000 Ang^3
#
#
#
# Elastic Constant Matrix: (Units=GPa)
#
#
# Indices 1 2 3 4 5 6 
#
# 1 93.8049 -9.5443 66.0683 0.0000 0.0000 0.0000
# 2 -9.5443 39.0193 -2.2122 0.0000 0.0000 0.0000
# 3 66.0683 -2.2122 165.3910 0.0000 0.0000 0.0000
# 4 0.0000 0.0000 0.0000 14.8578 0.0000 0.0000
# 5 0.0000 0.0000 0.0000 0.0000 23.2481 0.0000
# 6 0.0000 0.0000 0.0000 0.0000 0.0000 42.1385
#
#
#
# Elastic Compliance Matrix: (Units=1/GPa)
#
#
# Indices 1 2 3 4 5 6 
#
# 1 0.015270 0.003392 -0.006054 0.000000 0.000000 0.000000
# 2 0.003392 0.026401 -0.001002 0.000000 0.000000 0.000000
# 3 -0.006054 -0.001002 0.008451 0.000000 0.000000 0.000000
# 4 0.000000 0.000000 0.000000 0.067305 0.000000 0.000000
# 5 0.000000 0.000000 0.000000 0.000000 0.043014 0.000000
# 6 0.000000 0.000000 0.000000 0.000000 0.000000 0.023731
#
#
# Mechanical properties :
#
#
# Convention : Reuss Voigt Hill
#
# Bulk Modulus (GPa) = 23.36798 45.20431 34.28615
# Shear Modulus (GPa) = 24.29948 32.30911 28.30429
#
# Velocity S-wave (km/s) = 3.55098 4.09461 3.83245
# Velocity P-wave (km/s) = 5.37948 6.76845 6.11354
#
# Compressibility (1/GPa) = 0.04279359
#
# Stress axis : x y z
#
# Youngs Moduli (GPa) = 65.48905 37.87707 118.32343
#
# Poissons Ratio (x) = -0.12847 0.71638
# Poissons Ratio (y) = -0.22213 0.11853
# Poissons Ratio (z) = 0.39650 0.03794
#
# Static dielectric constant tensor:
#      x y z
#    x 1.638050 0.000000 0.000000 
#    y 0.000000 1.741170 0.000000 
#    z 0.000000 0.000000 1.710540 
# 
# From -- ./inp_files/23272.got.cif
#   From: 2010.05.17/outbox.cif.g08.bks.cpg/sg44_12_cif.got.tgz:23272.got - 2010.06.03 19:37:08.
