data_PCOD9373500
_publ_section_title
;
Structure prediction by ZEFSAII (Michael W. Deem and Ramdas Pophale) SiO2 
 PCOD9373500
Probable space group: I M M 2
;
_chemical_formula_sum "Si O2"
_cell_formula_units_Z 52
_cell_length_a 8.552864
_cell_length_b 21.073063
_cell_length_c 14.978584
_cell_angle_alpha 90.000000
_cell_angle_beta 90.000000
_cell_angle_gamma 90.000000
_cell_volume 2699.665715
_symmetry_space_group_name_H-M "I M M 2"
_symmetry_group_IT_number 44
_symmetry_cell_setting 'orthorhombic'
loop_
_space_group_symop_operation_xyz
x,y,z
-x,-y,z
-x,y,z
x,-y,z
1/2+x,1/2+y,1/2+z
1/2-x,1/2-y,1/2+z
1/2-x,1/2+y,1/2+z
1/2+x,1/2-y,1/2+z
loop_
_atom_site_type_symbol
_atom_site_label
_atom_site_fract_x
_atom_site_fract_y
_atom_site_fract_z
Si Si1 0.311159 0.425784 0.779150
Si Si2 0.685649 0.888494 0.738649
Si Si3 0.687120 0.619409 0.973984
Si Si4 0.315159 0.777929 0.605498
Si Si5 0.814296 0.925689 0.924298
Si Si6 0.183468 0.638204 0.600811
Si Si7 0.222233 0.000000 0.608088
O O1 0.500000 0.422293 0.772737
O O2 0.268330 0.500000 0.782934
O O3 0.265495 0.392361 0.871902
O O4 0.238413 0.393201 0.693029
O O5 0.500000 0.900684 0.724944
O O6 0.722289 0.821644 0.691692
O O7 0.728273 0.892003 0.841935
O O8 0.773228 0.944305 0.685599
O O9 0.500000 0.629857 0.977316
O O10 0.772739 0.677654 0.021490
O O11 0.719667 0.555882 0.031019
O O12 0.500000 0.764450 0.606401
O O13 0.223282 0.712591 0.603590
O O14 0.000000 0.921690 0.909818
O O15 0.769383 0.000000 0.925286
O O16 0.771381 0.894055 0.017910
O O17 0.000000 0.628427 0.588516
#
# Coordination Sequence:
#
# PCOD9373500 Si02
#       7
#     8   8   8   8   8   8   4
#     4  10  21  40  65  93 124 162 203 249 304 363
#     4  10  21  38  62  92 126 162 202 250 307 363
#     4  10  20  36  62  94 127 161 202 248 301 365
#     4  10  23  42  62  89 124 166 206 251 308 364
#     4  11  24  41  64  94 123 160 204 254 310 365
#     4  12  26  43  63  86 119 165 211 258 306 362
#     4  10  18  32  60  94 128 160 194 242 300 358
#
# _framework density 19.261642999999999
#
# number of rings (size 3 to 8) (size 9 to 14) (size 15 to 20)
#    0.000    1.538    1.538    3.231    0.000    9.231 
#    0.000    1.538    0.000    0.000    0.000    0.000 
#    0.000    0.000    0.000    0.000    0.000    0.000 
#
# Total GULP energy -144798.147951 kJ/mol
# GULP energy per Si atom -5569.159537 kJ/mol
# Density = 1.921780 g / cm^3
# Si number density = 19.261643 Si / 1000 Ang^3
#
#
#
# Elastic Constant Matrix: (Units=GPa)
#
#
# Indices 1 2 3 4 5 6 
#
# 1 15.3108 10.0290 5.2079 0.0000 0.0000 0.0000
# 2 10.0290 64.3369 25.6777 0.0000 0.0000 0.0000
# 3 5.2079 25.6777 126.0751 0.0000 0.0000 0.0000
# 4 0.0000 0.0000 0.0000 19.7447 0.0000 0.0000
# 5 0.0000 0.0000 0.0000 0.0000 33.9213 0.0000
# 6 0.0000 0.0000 0.0000 0.0000 0.0000 13.3017
#
#
#
# Elastic Compliance Matrix: (Units=1/GPa)
#
#
# Indices 1 2 3 4 5 6 
#
# 1 0.072807 -0.011047 -0.000758 0.000000 0.000000 0.000000
# 2 -0.011047 0.018595 -0.003331 0.000000 0.000000 0.000000
# 3 -0.000758 -0.003331 0.008641 0.000000 0.000000 0.000000
# 4 0.000000 0.000000 0.000000 0.050647 0.000000 0.000000
# 5 0.000000 0.000000 0.000000 0.000000 0.029480 0.000000
# 6 0.000000 0.000000 0.000000 0.000000 0.000000 0.075178
#
#
# Mechanical properties :
#
#
# Convention : Reuss Voigt Hill
#
# Bulk Modulus (GPa) = 14.33232 31.95021 23.14126
# Shear Modulus (GPa) = 16.18771 24.38076 20.28424
#
# Velocity S-wave (km/s) = 2.90213 3.56162 3.24865
# Velocity P-wave (km/s) = 4.32283 5.79112 5.10998
#
# Compressibility (1/GPa) = 0.06977239
#
# Stress axis : x y z
#
# Youngs Moduli (GPa) = 13.73493 53.77908 115.72117
#
# Poissons Ratio (x) = 0.59410 0.08767
# Poissons Ratio (y) = 0.15173 0.38545
# Poissons Ratio (z) = 0.01040 0.17913
#
# Static dielectric constant tensor:
#      x y z
#    x 1.687300 0.000000 0.000000 
#    y 0.000000 1.632290 0.000000 
#    z 0.000000 0.000000 1.647260 
# 
# From -- ./inp_files/16334.got.cif
#   From: 2010.05.17/outbox.cif.g08.bks.cpg/sg44_9_cif.got.tgz:16334.got - 2010.06.03 19:37:08.
