data_PCOD9373987
_publ_section_title
;
Structure prediction by ZEFSAII (Michael W. Deem and Ramdas Pophale) SiO2 
 PCOD9373987
Probable space group: I M M 2
;
_chemical_formula_sum "Si O2"
_cell_formula_units_Z 64
_cell_length_a 8.594053
_cell_length_b 25.344656
_cell_length_c 15.124043
_cell_angle_alpha 90.000000
_cell_angle_beta 90.000000
_cell_angle_gamma 90.000000
_cell_volume 3294.217971
_symmetry_space_group_name_H-M "I M M 2"
_symmetry_group_IT_number 44
_symmetry_cell_setting 'orthorhombic'
loop_
_space_group_symop_operation_xyz
x,y,z
-x,-y,z
-x,y,z
x,-y,z
1/2+x,1/2+y,1/2+z
1/2-x,1/2-y,1/2+z
1/2-x,1/2+y,1/2+z
1/2+x,1/2-y,1/2+z
loop_
_atom_site_type_symbol
_atom_site_label
_atom_site_fract_x
_atom_site_fract_y
_atom_site_fract_z
Si Si1 0.184424 0.784251 0.494190
Si Si2 0.314811 0.126360 0.190050
Si Si3 0.315676 0.440751 0.196979
Si Si4 0.683163 0.231223 0.301090
Si Si5 0.314035 0.156774 0.805693
Si Si6 0.689134 0.834393 0.008602
Si Si7 0.180891 0.062743 0.349037
Si Si8 0.680636 0.105412 0.526621
O O1 0.220033 0.782979 0.389097
O O2 0.235288 0.726357 0.526044
O O3 0.272621 0.833423 0.535941
O O4 0.000000 0.790374 0.508726
O O5 0.500000 0.114828 0.192281
O O6 0.294488 0.185116 0.230246
O O7 0.259272 0.128664 0.088756
O O8 0.228832 0.086678 0.255063
O O9 0.500000 0.437551 0.211603
O O10 0.262549 0.500000 0.219787
O O11 0.233751 0.394609 0.251779
O O12 0.279471 0.429300 0.094391
O O13 0.500000 0.232292 0.324193
O O14 0.735343 0.289357 0.271190
O O15 0.500000 0.163682 0.803317
O O16 0.264415 0.151352 0.908905
O O17 0.500000 0.834594 0.010059
O O18 0.282037 0.088781 0.426467
O O19 0.000000 0.074775 0.367165
O O20 0.202356 0.000000 0.350026
O O21 0.500000 0.098012 0.546092
#
# Coordination Sequence:
#
# PCOD9373987 Si02
#       8
#     8   8   8   8   8   8   8   8
#     4  10  19  34  57  84 121 162 197 238 293 353
#     4  10  20  36  59  87 119 157 201 246 294 349
#     4  11  25  44  64  86 115 154 201 252 307 364
#     4  10  19  32  55  87 122 157 196 243 294 351
#     4  10  21  39  62  87 119 157 200 250 302 357
#     4   8  18  36  58  86 119 156 196 240 292 348
#     4  11  24  41  60  84 118 160 202 246 300 358
#     4  12  24  38  59  90 121 154 197 243 297 362
#
# _framework density 19.427980000000002
#
# number of rings (size 3 to 8) (size 9 to 14) (size 15 to 20)
#    0.000    1.750    1.250    4.125    1.750    4.000 
#    0.000    4.375    0.000    3.750    0.000    0.000 
#    0.000    0.000    0.000    0.000    0.000    0.000 
#
# Total GULP energy -178795.345281 kJ/mol
# GULP energy per Si atom -5587.354540 kJ/mol
# Density = 1.938376 g / cm^3
# Si number density = 19.427980 Si / 1000 Ang^3
#
#
#
# Elastic Constant Matrix: (Units=GPa)
#
#
# Indices 1 2 3 4 5 6 
#
# 1 30.4231 8.7964 -1.5090 0.0000 0.0000 0.0000
# 2 8.7964 59.8381 0.6899 0.0000 0.0000 0.0000
# 3 -1.5090 0.6899 32.8990 -0.0001 0.0000 0.0000
# 4 0.0000 0.0000 -0.0001 27.2326 0.0000 0.0000
# 5 0.0000 0.0000 0.0000 0.0000 22.9933 0.0000
# 6 0.0000 0.0000 0.0000 0.0000 0.0000 19.8894
#
#
#
# Elastic Compliance Matrix: (Units=1/GPa)
#
#
# Indices 1 2 3 4 5 6 
#
# 1 0.034422 -0.005080 0.001685 0.000000 0.000000 0.000000
# 2 -0.005080 0.017465 -0.000599 0.000000 0.000000 0.000000
# 3 0.001685 -0.000599 0.030486 0.000000 0.000000 0.000000
# 4 0.000000 0.000000 0.000000 0.036721 0.000000 0.000000
# 5 0.000000 0.000000 0.000000 0.000000 0.043491 0.000000
# 6 0.000000 0.000000 0.000000 0.000000 0.000000 0.050278
#
#
# Mechanical properties :
#
#
# Convention : Reuss Voigt Hill
#
# Bulk Modulus (GPa) = 13.44331 15.45721 14.45026
# Shear Modulus (GPa) = 20.35453 21.70191 21.02822
#
# Velocity S-wave (km/s) = 3.24032 3.34585 3.29351
# Velocity P-wave (km/s) = 4.57538 4.78536 4.68155
#
# Compressibility (1/GPa) = 0.07438642
#
# Stress axis : x y z
#
# Youngs Moduli (GPa) = 29.05112 57.25614 32.80203
#
# Poissons Ratio (x) = 0.29084 -0.05528
# Poissons Ratio (y) = 0.14757 0.01966
# Poissons Ratio (z) = -0.04896 0.03431
#
# Static dielectric constant tensor:
#      x y z
#    x 1.656270 0.000000 0.000000 
#    y 0.000000 1.664720 0.000000 
#    z 0.000000 0.000000 1.689200 
# 
# From -- ./inp_files/16863.got.cif
#   From: 2010.05.17/outbox.cif.g08.bks.cpg/sg44_9_cif.got.tgz:16863.got - 2010.06.03 19:37:08.
