data_PCOD9373944
_publ_section_title
;
Structure prediction by ZEFSAII (Michael W. Deem and Ramdas Pophale) SiO2 
 PCOD9373944
Probable space group: I M M 2
;
_chemical_formula_sum "Si O2"
_cell_formula_units_Z 56
_cell_length_a 9.554464
_cell_length_b 20.151245
_cell_length_c 15.650696
_cell_angle_alpha 90.000000
_cell_angle_beta 90.000000
_cell_angle_gamma 90.000000
_cell_volume 3013.296502
_symmetry_space_group_name_H-M "I M M 2"
_symmetry_group_IT_number 44
_symmetry_cell_setting 'orthorhombic'
loop_
_space_group_symop_operation_xyz
x,y,z
-x,-y,z
-x,y,z
x,-y,z
1/2+x,1/2+y,1/2+z
1/2-x,1/2-y,1/2+z
1/2-x,1/2+y,1/2+z
1/2+x,1/2-y,1/2+z
loop_
_atom_site_type_symbol
_atom_site_label
_atom_site_fract_x
_atom_site_fract_y
_atom_site_fract_z
Si Si1 0.169015 0.282070 0.831220
Si Si2 0.657266 0.079666 0.764475
Si Si3 0.152357 0.075582 0.910161
Si Si4 0.658777 0.391092 0.601096
Si Si5 0.168705 0.425213 0.765940
Si Si6 0.663711 0.243305 0.525912
Si Si7 0.332534 0.683235 0.175616
O O1 0.213208 0.359200 0.818390
O O2 0.212853 0.236199 0.750423
O O3 0.000000 0.281227 0.828321
O O4 0.206730 0.256292 0.926062
O O5 0.500000 0.104631 0.749895
O O6 0.716253 0.100882 0.857532
O O7 0.769567 0.112796 0.702941
O O8 0.652902 0.000000 0.757139
O O9 0.000000 0.109910 0.894875
O O10 0.137739 0.000000 0.880413
O O11 0.176178 0.073513 0.010444
O O12 0.500000 0.403049 0.632268
O O13 0.766790 0.413355 0.672205
O O14 0.670736 0.315051 0.570959
O O15 0.209080 0.500000 0.795543
O O16 0.000000 0.423955 0.761916
O O17 0.500000 0.221817 0.529260
O O18 0.764250 0.200313 0.585033
O O19 0.500000 0.683566 0.172158
#
# Coordination Sequence:
#
# PCOD9373944 Si02
#       7
#     8   8   8   8   8   8   8
#     4   9  19  37  58  81 113 152 194 237 287 344
#     4  10  21  36  54  79 111 145 183 231 284 337
#     4   9  17  30  49  75 108 146 184 219 267 333
#     4  10  19  32  52  79 111 147 186 232 289 345
#     4  10  20  35  56  81 112 151 195 243 292 345
#     4  10  20  35  56  81 110 146 190 240 287 340
#     4  11  21  37  60  83 112 149 187 234 287 341
#
# _framework density 18.584296999999999
#
# number of rings (size 3 to 8) (size 9 to 14) (size 15 to 20)
#    0.000    2.143    1.429    2.143    0.000    4.571 
#    0.000    5.714    0.000    2.571    0.000    0.000 
#    0.000    0.000    0.000    0.000    0.000    0.000 
#
# Total GULP energy -155942.601846 kJ/mol
# GULP energy per Si atom -5569.378637 kJ/mol
# Density = 1.854200 g / cm^3
# Si number density = 18.584297 Si / 1000 Ang^3
#
#
#
# Elastic Constant Matrix: (Units=GPa)
#
#
# Indices 1 2 3 4 5 6 
#
# 1 55.1138 24.8691 28.0127 0.0000 0.0000 0.0000
# 2 24.8691 65.1236 14.8586 0.0000 0.0000 0.0000
# 3 28.0127 14.8586 67.9941 0.0000 0.0000 0.0000
# 4 0.0000 0.0000 0.0000 14.5754 0.0000 0.0000
# 5 0.0000 0.0000 0.0000 0.0000 30.5049 0.0000
# 6 0.0000 0.0000 0.0000 0.0000 0.0000 15.2754
#
#
#
# Elastic Compliance Matrix: (Units=1/GPa)
#
#
# Indices 1 2 3 4 5 6 
#
# 1 0.026390 -0.007996 -0.009125 0.000000 0.000000 0.000000
# 2 -0.007996 0.018584 -0.000767 0.000000 0.000000 0.000000
# 3 -0.009125 -0.000767 0.018634 0.000000 0.000000 0.000000
# 4 0.000000 0.000000 0.000000 0.068609 0.000000 0.000000
# 5 0.000000 0.000000 0.000000 0.000000 0.032782 0.000000
# 6 0.000000 0.000000 0.000000 0.000000 0.000000 0.065465
#
#
# Mechanical properties :
#
#
# Convention : Reuss Voigt Hill
#
# Bulk Modulus (GPa) = 35.92917 35.96804 35.94861
# Shear Modulus (GPa) = 18.14773 20.10389 19.12581
#
# Velocity S-wave (km/s) = 3.12830 3.29259 3.21150
# Velocity P-wave (km/s) = 5.69416 5.81815 5.75649
#
# Compressibility (1/GPa) = 0.02783254
#
# Stress axis : x y z
#
# Youngs Moduli (GPa) = 37.89274 53.81034 53.66474
#
# Poissons Ratio (x) = 0.43026 0.48970
# Poissons Ratio (y) = 0.30298 0.04116
# Poissons Ratio (z) = 0.34578 0.04127
#
# Static dielectric constant tensor:
#      x y z
#    x 1.646500 0.000000 0.000000 
#    y 0.000000 1.912940 0.000000 
#    z 0.000000 0.000000 1.638670 
# 
# From -- ./inp_files/16451.got.cif
#   From: 2010.05.17/outbox.cif.g08.bks.cpg/sg44_9_cif.got.tgz:16451.got - 2010.06.03 19:37:08.
