data_PCOD9373988
_publ_section_title
;
Structure prediction by ZEFSAII (Michael W. Deem and Ramdas Pophale) SiO2 
 PCOD9373988
Probable space group: I M M 2
;
_chemical_formula_sum "Si O2"
_cell_formula_units_Z 64
_cell_length_a 19.608085
_cell_length_b 21.311427
_cell_length_c 8.965844
_cell_angle_alpha 90.000000
_cell_angle_beta 90.000000
_cell_angle_gamma 90.000000
_cell_volume 3746.613467
_symmetry_space_group_name_H-M "I M M 2"
_symmetry_group_IT_number 44
_symmetry_cell_setting 'orthorhombic'
loop_
_space_group_symop_operation_xyz
x,y,z
-x,-y,z
-x,y,z
x,-y,z
1/2+x,1/2+y,1/2+z
1/2-x,1/2-y,1/2+z
1/2-x,1/2+y,1/2+z
1/2+x,1/2-y,1/2+z
loop_
_atom_site_type_symbol
_atom_site_label
_atom_site_fract_x
_atom_site_fract_y
_atom_site_fract_z
Si Si1 0.219702 0.303461 0.698900
Si Si2 0.577464 0.746051 0.502192
Si Si3 0.425872 0.225543 0.150287
Si Si4 0.171684 0.122551 0.015936
Si Si5 0.077437 0.932117 0.236980
Si Si6 0.078513 0.866719 0.532629
Si Si7 0.208113 0.315986 0.056662
Si Si8 0.708164 0.574668 0.191784
O O1 0.143876 0.312029 0.631928
O O2 0.269377 0.353044 0.623960
O O3 0.246810 0.235094 0.646751
O O4 0.220348 0.307900 0.878480
O O5 0.500000 0.741699 0.562738
O O6 0.571598 0.763999 0.328420
O O7 0.618460 0.680492 0.500263
O O8 0.628892 0.795900 0.578974
O O9 0.500000 0.199938 0.102888
O O10 0.417007 0.293868 0.075747
O O11 0.128589 0.070865 0.101715
O O12 0.201500 0.098672 0.861355
O O13 0.090935 0.878438 0.357651
O O14 0.000000 0.925362 0.183203
O O15 0.082733 0.000000 0.314513
O O16 0.135758 0.905591 0.618487
O O17 0.000000 0.886811 0.563715
O O18 0.233637 0.383843 0.110044
O O19 0.718675 0.500000 0.182568
#
# Coordination Sequence:
#
# PCOD9373988 Si02
#       8
#     8   8   8   8   8   8   8   8
#     4  10  19  32  56  77 106 137 170 224 280 324
#     4   9  17  31  54  79 104 129 165 221 277 326
#     4   9  16  30  52  77 102 128 162 206 264 323
#     4  11  21  33  51  75 105 142 180 222 269 317
#     4  10  21  35  48  70 107 145 181 219 259 310
#     4  10  19  33  51  72 104 138 176 218 261 319
#     4  10  19  35  53  80 105 137 178 221 278 329
#     4  12  23  36  52  73 107 150 193 224 260 324
#
# _framework density 17.082094000000001
#
# number of rings (size 3 to 8) (size 9 to 14) (size 15 to 20)
#    0.000    1.875    2.500    3.375    0.000    1.250 
#    0.000    0.625    0.000    0.375    0.000    0.000 
#    0.000    3.500    0.000    0.000    0.000    0.000 
#
# Total GULP energy -178365.447377 kJ/mol
# GULP energy per Si atom -5573.920231 kJ/mol
# Density = 1.704321 g / cm^3
# Si number density = 17.082094 Si / 1000 Ang^3
#
#
#
# Elastic Constant Matrix: (Units=GPa)
#
#
# Indices 1 2 3 4 5 6 
#
# 1 110.7824 39.0245 36.3319 0.0000 0.0000 0.0000
# 2 39.0245 68.0921 31.2431 0.0000 0.0000 0.0000
# 3 36.3319 31.2431 60.6753 0.0000 0.0000 0.0000
# 4 0.0000 0.0000 0.0000 15.0430 0.0000 0.0000
# 5 0.0000 0.0000 0.0000 0.0000 20.5733 0.0000
# 6 0.0000 0.0000 0.0000 0.0000 0.0000 19.7326
#
#
#
# Elastic Compliance Matrix: (Units=1/GPa)
#
#
# Indices 1 2 3 4 5 6 
#
# 1 0.012332 -0.004818 -0.004904 0.000000 0.000000 0.000000
# 2 -0.004818 0.021111 -0.007986 0.000000 0.000000 0.000000
# 3 -0.004904 -0.007986 0.023529 0.000000 0.000000 0.000000
# 4 0.000000 0.000000 0.000000 0.066476 0.000000 0.000000
# 5 0.000000 0.000000 0.000000 0.000000 0.048607 0.000000
# 6 0.000000 0.000000 0.000000 0.000000 0.000000 0.050678
#
#
# Mechanical properties :
#
#
# Convention : Reuss Voigt Hill
#
# Bulk Modulus (GPa) = 46.38541 50.30541 48.34541
# Shear Modulus (GPa) = 18.84422 19.93314 19.38868
#
# Velocity S-wave (km/s) = 3.32498 3.41970 3.37267
# Velocity P-wave (km/s) = 6.47719 6.71607 6.59771
#
# Compressibility (1/GPa) = 0.02155850
#
# Stress axis : x y z
#
# Youngs Moduli (GPa) = 81.09016 47.36805 42.49987
#
# Poissons Ratio (x) = 0.22820 0.20840
# Poissons Ratio (y) = 0.39067 0.33940
# Poissons Ratio (z) = 0.39763 0.37828
#
# Static dielectric constant tensor:
#      x y z
#    x 1.619780 0.000000 0.000000 
#    y 0.000000 1.574020 0.000000 
#    z 0.000000 0.000000 1.588650 
# 
# From -- ./inp_files/9108.got.cif
#   From: 2010.05.17/outbox.cif.g08.bks.cpg/sg44_5_cif.got.tgz:9108.got - 2010.06.03 19:37:08.
