data_PCOD9373817
_publ_section_title
;
Structure prediction by ZEFSAII (Michael W. Deem and Ramdas Pophale) SiO2 
 PCOD9373817
Probable space group: I M M 2
;
_chemical_formula_sum "Si O2"
_cell_formula_units_Z 48
_cell_length_a 33.091559
_cell_length_b 7.752651
_cell_length_c 9.194594
_cell_angle_alpha 90.000000
_cell_angle_beta 90.000000
_cell_angle_gamma 90.000000
_cell_volume 2358.848339
_symmetry_space_group_name_H-M "I M M 2"
_symmetry_group_IT_number 44
_symmetry_cell_setting 'orthorhombic'
loop_
_space_group_symop_operation_xyz
x,y,z
-x,-y,z
-x,y,z
x,-y,z
1/2+x,1/2+y,1/2+z
1/2-x,1/2-y,1/2+z
1/2-x,1/2+y,1/2+z
1/2+x,1/2-y,1/2+z
loop_
_atom_site_type_symbol
_atom_site_label
_atom_site_fract_x
_atom_site_fract_y
_atom_site_fract_z
Si Si1 0.870615 0.202663 0.226210
Si Si2 0.043336 0.796752 0.188833
Si Si3 0.792482 0.704008 0.046214
Si Si4 0.456466 0.790099 0.031255
Si Si5 0.130734 0.298655 0.559389
Si Si6 0.210886 0.290443 0.715377
O O1 0.911930 0.270769 0.149970
O O2 0.831062 0.222509 0.129824
O O3 0.864858 0.286246 0.384720
O O4 0.877032 0.000000 0.254872
O O5 0.043308 0.773191 0.364151
O O6 0.000000 0.721884 0.137338
O O7 0.042409 0.000000 0.153383
O O8 0.799090 0.500000 0.038585
O O9 0.751218 0.736890 0.132136
O O10 0.788592 0.769866 0.881789
O O11 0.500000 0.738951 0.096482
O O12 0.455307 0.000000 0.027469
O O13 0.413964 0.727710 0.096956
O O14 0.129782 0.500000 0.599634
O O15 0.170303 0.224826 0.636126
O O16 0.210646 0.500000 0.713858
#
# Coordination Sequence:
#
# PCOD9373817 Si02
#       6
#     8   8   8   8   8   8
#     4  10  19  31  50  76 103 130 163 201 240 286
#     4   8  14  25  42  66  96 128 160 195 234 274
#     4  11  23  37  53  72  96 126 160 200 245 293
#     4   8  13  22  40  68  98 127 160 196 234 276
#     4   9  17  31  51  74 102 133 163 200 243 284
#     4  10  22  38  54  73  97 126 162 201 242 291
#
# _framework density 20.348914000000001
#
# number of rings (size 3 to 8) (size 9 to 14) (size 15 to 20)
#    0.000    2.667    0.000    2.000    0.000    5.333 
#    0.000    0.000    0.000    1.000    0.000    2.333 
#    0.000    5.333    0.000    0.000    0.000    0.000 
#
# Total GULP energy -133706.337660 kJ/mol
# GULP energy per Si atom -5571.097403 kJ/mol
# Density = 2.030260 g / cm^3
# Si number density = 20.348914 Si / 1000 Ang^3
#
#
#
# Elastic Constant Matrix: (Units=GPa)
#
#
# Indices 1 2 3 4 5 6 
#
# 1 224.6393 -8.4149 56.0131 0.0000 0.0000 0.0000
# 2 -8.4149 33.0817 -9.8064 0.0000 0.0000 0.0000
# 3 56.0131 -9.8064 52.9113 0.0000 0.0000 0.0000
# 4 0.0000 0.0000 0.0000 7.8620 0.0000 0.0000
# 5 0.0000 0.0000 0.0000 0.0000 24.0855 0.0000
# 6 0.0000 0.0000 0.0000 0.0000 0.0000 126.6334
#
#
#
# Elastic Compliance Matrix: (Units=1/GPa)
#
#
# Indices 1 2 3 4 5 6 
#
# 1 0.006053 -0.000381 -0.006478 0.000000 0.000000 0.000000
# 2 -0.000381 0.032009 0.006335 0.000000 0.000000 0.000000
# 3 -0.006478 0.006335 0.026931 0.000000 0.000000 0.000000
# 4 0.000000 0.000000 0.000000 0.127195 0.000000 0.000000
# 5 0.000000 0.000000 0.000000 0.000000 0.041519 0.000000
# 6 0.000000 0.000000 0.000000 0.000000 0.000000 0.007897
#
#
# Mechanical properties :
#
#
# Convention : Reuss Voigt Hill
#
# Bulk Modulus (GPa) = 15.63794 42.91289 29.27542
# Shear Modulus (GPa) = 18.94186 49.90555 34.42371
#
# Velocity S-wave (km/s) = 3.05430 4.95764 4.11746
# Velocity P-wave (km/s) = 4.48775 7.34202 6.08462
#
# Compressibility (1/GPa) = 0.06394704
#
# Stress axis : x y z
#
# Youngs Moduli (GPa) = 165.21888 31.24089 37.13131
#
# Poissons Ratio (x) = 0.01189 0.24053
# Poissons Ratio (y) = 0.06290 -0.23524
# Poissons Ratio (z) = 1.07028 -0.19793
#
# Static dielectric constant tensor:
#      x y z
#    x 1.798030 0.000000 0.000000 
#    y 0.000000 1.754220 0.000000 
#    z 0.000000 0.000000 1.676980 
# 
# From -- ./inp_files/4899.got.cif
#   From: 2010.05.17/outbox.cif.g08.bks.cpg/sg44_3_cif.got.tgz:4899.got - 2010.06.03 19:37:08.
