data_PCOD9373011
_publ_section_title
;
Structure prediction by ZEFSAII (Michael W. Deem and Ramdas Pophale) SiO2 
 PCOD9373011
Probable space group: I M M 2
;
_chemical_formula_sum "Si O2"
_cell_formula_units_Z 52
_cell_length_a 12.506827
_cell_length_b 7.700063
_cell_length_c 25.975121
_cell_angle_alpha 90.000000
_cell_angle_beta 90.000000
_cell_angle_gamma 90.000000
_cell_volume 2501.491320
_symmetry_space_group_name_H-M "I M M 2"
_symmetry_group_IT_number 44
_symmetry_cell_setting 'orthorhombic'
loop_
_space_group_symop_operation_xyz
x,y,z
-x,-y,z
-x,y,z
x,-y,z
1/2+x,1/2+y,1/2+z
1/2-x,1/2-y,1/2+z
1/2-x,1/2+y,1/2+z
1/2+x,1/2-y,1/2+z
loop_
_atom_site_type_symbol
_atom_site_label
_atom_site_fract_x
_atom_site_fract_y
_atom_site_fract_z
Si Si1 0.880115 0.706804 0.812880
Si Si2 0.767615 0.793144 0.407156
Si Si3 0.378572 0.707112 0.618912
Si Si4 0.500000 0.786631 0.787532
Si Si5 0.787075 0.706370 0.226781
Si Si6 0.000000 0.748950 0.399856
Si Si7 0.739960 0.790469 0.024136
Si Si8 0.000000 0.288503 0.512873
O O1 0.887958 0.500000 0.819216
O O2 0.814908 0.766342 0.863442
O O3 0.813341 0.736818 0.760833
O O4 0.000000 0.779026 0.810353
O O5 0.733467 0.772751 0.466485
O O6 0.877088 0.685503 0.400715
O O7 0.792026 0.000000 0.398945
O O8 0.500000 0.775470 0.626995
O O9 0.387655 0.500000 0.612933
O O10 0.303353 0.736195 0.668247
O O11 0.320740 0.775318 0.567624
O O12 0.605492 0.738115 0.756502
O O13 0.500000 0.688829 0.841429
O O14 0.500000 0.000000 0.796326
O O15 0.786284 0.500000 0.226537
O O16 0.000000 0.813078 0.458695
O O17 0.615241 0.748341 0.037291
O O18 0.746058 0.000000 0.022832
O O19 0.000000 0.500000 0.502257
#
# Coordination Sequence:
#
# PCOD9373011 Si02
#       8
#     8   8   8   4   8   4   8   4
#     4  10  22  40  58  80 114 154 191 226 272 337
#     4  10  20  33  53  83 113 143 182 229 279 328
#     4  10  21  38  58  81 110 145 187 233 278 332
#     4  10  19  31  53  86 115 142 176 225 281 333
#     4  11  22  38  59  85 114 144 184 233 284 336
#     4  10  16  30  52  80 111 146 175 224 271 332
#     4   9  19  35  55  78 106 145 187 227 274 328
#     4   8  15  29  51  76 103 136 178 221 265 321
#
# _framework density 20.787602
#
# number of rings (size 3 to 8) (size 9 to 14) (size 15 to 20)
#    0.000    2.154    2.308    0.923    0.000    2.769 
#    1.385    0.000    0.000    0.000    0.000    0.000 
#    0.000    0.000    0.000    0.000    0.000    0.000 
#
# Total GULP energy -144790.283186 kJ/mol
# GULP energy per Si atom -5568.857046 kJ/mol
# Density = 2.074029 g / cm^3
# Si number density = 20.787602 Si / 1000 Ang^3
#
#
#
# Elastic Constant Matrix: (Units=GPa)
#
#
# Indices 1 2 3 4 5 6 
#
# 1 170.2235 14.6040 89.3190 0.0000 0.0000 0.0000
# 2 14.6040 50.4644 4.6150 0.0000 0.0000 0.0000
# 3 89.3190 4.6150 160.9456 0.0000 0.0000 0.0000
# 4 0.0000 0.0000 0.0000 -10.8475 0.0000 0.0000
# 5 0.0000 0.0000 0.0000 0.0000 35.7884 0.0000
# 6 0.0000 0.0000 0.0000 0.0000 0.0000 1010.6328
#
#
#
# Elastic Compliance Matrix: (Units=1/GPa)
#
#
# Indices 1 2 3 4 5 6 
#
# 1 0.008491 -0.002032 -0.004654 0.000000 0.000000 0.000000
# 2 -0.002032 0.020354 0.000544 0.000000 0.000000 0.000000
# 3 -0.004654 0.000544 0.008780 0.000000 0.000000 0.000000
# 4 0.000000 0.000000 0.000000 -0.092187 0.000000 0.000000
# 5 0.000000 0.000000 0.000000 0.000000 0.027942 0.000000
# 6 0.000000 0.000000 0.000000 0.000000 0.000000 0.000989
#
#
# Mechanical properties :
#
#
# Convention : Reuss Voigt Hill
#
# Bulk Modulus (GPa) = 39.45995 66.52326 52.99160
# Shear Modulus (GPa) = -1020.44773 225.32113 -397.56330
#
# Velocity S-wave (km/s) = -22.18013 10.42245 -13.84433
# Velocity P-wave (km/s) = 25.23729 13.30065 15.16597
#
# Compressibility (1/GPa) = 0.02534215
#
# Stress axis : x y z
#
# Youngs Moduli (GPa) = 117.77330 49.13004 113.88972
#
# Poissons Ratio (x) = 0.09981 0.53003
# Poissons Ratio (y) = 0.23927 -0.06194
# Poissons Ratio (z) = 0.54810 -0.02672
#
# Static dielectric constant tensor:
#      x y z
#    x 1.741130 0.000000 0.000000 
#    y 0.000000 1.849740 0.000000 
#    z 0.000000 0.000000 1.731410 
# 
# From -- ./inp_files/26377.got.cif
#   From: 2010.05.17/outbox.cif.g08.bks.cpg/sg44_14_cif.got.tgz:26377.got - 2010.06.03 19:37:08.
