data_PCOD9373275
_publ_section_title
;
Structure prediction by ZEFSAII (Michael W. Deem and Ramdas Pophale) SiO2 
 PCOD9373275
Probable space group: I M M 2
;
_chemical_formula_sum "Si O2"
_cell_formula_units_Z 64
_cell_length_a 21.473686
_cell_length_b 7.487006
_cell_length_c 20.287633
_cell_angle_alpha 90.000000
_cell_angle_beta 90.000000
_cell_angle_gamma 90.000000
_cell_volume 3261.716116
_symmetry_space_group_name_H-M "I M M 2"
_symmetry_group_IT_number 44
_symmetry_cell_setting 'orthorhombic'
loop_
_space_group_symop_operation_xyz
x,y,z
-x,-y,z
-x,y,z
x,-y,z
1/2+x,1/2+y,1/2+z
1/2-x,1/2-y,1/2+z
1/2-x,1/2+y,1/2+z
1/2+x,1/2-y,1/2+z
loop_
_atom_site_type_symbol
_atom_site_label
_atom_site_fract_x
_atom_site_fract_y
_atom_site_fract_z
Si Si1 0.188642 0.281440 0.354390
Si Si2 0.190124 0.217796 0.937896
Si Si3 0.238431 0.715129 0.217193
Si Si4 0.382911 0.281736 0.219489
Si Si5 0.251088 0.291438 0.571550
Si Si6 0.607507 0.297158 0.075506
Si Si7 0.431335 0.281742 0.360525
Si Si8 0.068144 0.292641 0.431255
O O1 0.188131 0.500000 0.355870
O O2 0.250789 0.228252 0.393716
O O3 0.197062 0.225032 0.278664
O O4 0.127012 0.216289 0.391705
O O5 0.125634 0.279212 0.906033
O O6 0.188008 0.000000 0.936740
O O7 0.205511 0.273621 0.012394
O O8 0.238872 0.500000 0.218001
O O9 0.310474 0.772102 0.226871
O O10 0.220004 0.772009 0.143908
O O11 0.383737 0.500000 0.217020
O O12 0.406874 0.219901 0.147973
O O13 0.419030 0.227258 0.284812
O O14 0.238027 0.500000 0.559137
O O15 0.183010 0.202664 0.571751
O O16 0.584583 0.500000 0.074208
O O17 0.582182 0.210786 0.009319
O O18 0.500000 0.225476 0.381993
O O19 0.430118 0.500000 0.360663
O O20 0.065167 0.500000 0.411684
O O21 0.000000 0.212599 0.418926
#
# Coordination Sequence:
#
# PCOD9373275 Si02
#       8
#     8   8   8   8   8   8   8   8
#     4   9  15  28  49  67  87 121 162 202 238 281
#     4   9  15  25  44  66  88 121 157 189 232 277
#     4   9  16  28  48  69  91 120 157 197 239 281
#     4   8  14  24  38  61  90 119 148 183 226 273
#     4  10  18  29  47  70  98 125 155 195 241 286
#     4  10  19  30  46  69  98 129 161 193 235 286
#     4   9  15  23  38  63  92 119 151 190 226 268
#     4  10  20  33  49  70  95 128 167 203 244 292
#
# _framework density 19.621573000000001
#
# number of rings (size 3 to 8) (size 9 to 14) (size 15 to 20)
#    0.000    2.750    2.500    1.500    0.000    0.750 
#    0.000    1.875    0.000    0.750    0.000    0.000 
#    0.000   11.500    0.000    0.000    0.000    0.000 
#
# Total GULP energy -178517.396329 kJ/mol
# GULP energy per Si atom -5578.668635 kJ/mol
# Density = 1.957691 g / cm^3
# Si number density = 19.621573 Si / 1000 Ang^3
#
#
#
# Elastic Constant Matrix: (Units=GPa)
#
#
# Indices 1 2 3 4 5 6 
#
# 1 136.7294 1.5212 80.2125 0.0000 0.0000 0.0000
# 2 1.5212 53.5269 -3.2269 0.0000 0.0000 0.0000
# 3 80.2125 -3.2269 136.1463 0.0000 0.0000 0.0000
# 4 0.0000 0.0000 0.0000 16.0015 0.0000 0.0000
# 5 0.0000 0.0000 0.0000 0.0000 20.5969 0.0000
# 6 0.0000 0.0000 0.0000 0.0000 0.0000 0.8047
#
#
#
# Elastic Compliance Matrix: (Units=1/GPa)
#
#
# Indices 1 2 3 4 5 6 
#
# 1 0.011204 -0.000717 -0.006618 0.000000 0.000000 0.000000
# 2 -0.000717 0.018755 0.000867 0.000000 0.000000 0.000000
# 3 -0.006618 0.000867 0.011265 0.000000 0.000000 0.000000
# 4 0.000000 0.000000 0.000000 0.062494 0.000000 0.000000
# 5 0.000000 0.000000 0.000000 0.000000 0.048551 0.000000
# 6 0.000000 0.000000 0.000000 0.000000 0.000000 1.242682
#
#
# Mechanical properties :
#
#
# Convention : Reuss Voigt Hill
#
# Bulk Modulus (GPa) = 35.35171 53.71292 44.53232
# Shear Modulus (GPa) = 3.52779 24.00700 13.76739
#
# Velocity S-wave (km/s) = 1.34232 3.50165 2.65173
# Velocity P-wave (km/s) = 4.52308 6.61684 5.66749
#
# Compressibility (1/GPa) = 0.02828717
#
# Stress axis : x y z
#
# Youngs Moduli (GPa) = 89.25194 53.31949 88.77238
#
# Poissons Ratio (x) = 0.03825 0.58751
# Poissons Ratio (y) = 0.06403 -0.07698
# Poissons Ratio (z) = 0.59068 -0.04624
#
# Static dielectric constant tensor:
#      x y z
#    x 1.672590 0.000000 0.000000 
#    y 0.000000 1.753690 0.000000 
#    z 0.000000 0.000000 1.690910 
# 
# From -- ./inp_files/23320.got.cif
#   From: 2010.05.17/outbox.cif.g08.bks.cpg/sg44_12_cif.got.tgz:23320.got - 2010.06.03 19:37:08.
