data_PCOD9373532
_publ_section_title
;
Structure prediction by ZEFSAII (Michael W. Deem and Ramdas Pophale) SiO2 
 PCOD9373532
Probable space group: I M M 2
;
_chemical_formula_sum "Si O2"
_cell_formula_units_Z 48
_cell_length_a 7.670015
_cell_length_b 10.705368
_cell_length_c 29.183749
_cell_angle_alpha 90.000000
_cell_angle_beta 90.000000
_cell_angle_gamma 90.000000
_cell_volume 2396.287353
_symmetry_space_group_name_H-M "I M M 2"
_symmetry_group_IT_number 44
_symmetry_cell_setting 'orthorhombic'
loop_
_space_group_symop_operation_xyz
x,y,z
-x,-y,z
-x,y,z
x,-y,z
1/2+x,1/2+y,1/2+z
1/2-x,1/2-y,1/2+z
1/2-x,1/2+y,1/2+z
1/2+x,1/2-y,1/2+z
loop_
_atom_site_type_symbol
_atom_site_label
_atom_site_fract_x
_atom_site_fract_y
_atom_site_fract_z
Si Si1 0.213934 0.245511 0.474870
Si Si2 0.708959 0.856488 0.672549
Si Si3 0.790956 0.856869 0.570746
Si Si4 0.299385 0.500000 0.923323
Si Si5 0.711059 0.248042 0.767409
Si Si6 0.286471 0.000000 0.927425
Si Si7 0.212861 0.500000 0.321873
Si Si8 0.198860 0.500000 0.820482
O O1 0.269676 0.221846 0.527194
O O2 0.274279 0.127382 0.444541
O O3 0.271864 0.375216 0.453115
O O4 0.000000 0.248710 0.473997
O O5 0.500000 0.863451 0.676630
O O6 0.748622 0.809665 0.621558
O O7 0.771279 0.773962 0.715141
O O8 0.775445 0.000000 0.676350
O O9 0.000000 0.862903 0.567539
O O10 0.724437 0.000000 0.567258
O O11 0.500000 0.500000 0.939282
O O12 0.299582 0.500000 0.868528
O O13 0.500000 0.248840 0.767740
O O14 0.768204 0.126087 0.796071
O O15 0.766813 0.376376 0.790810
O O16 0.500000 0.000000 0.927158
O O17 0.231652 0.000000 0.874519
O O18 0.000000 0.500000 0.320866
O O19 0.000000 0.500000 0.835220
#
# Coordination Sequence:
#
# PCOD9373532 Si02
#       8
#     8   8   8   4   8   4   4   4
#     4   9  16  28  48  75 102 130 171 215 253 299
#     4   9  17  31  53  81 106 128 167 219 264 308
#     4   9  16  28  47  72 102 134 171 209 250 304
#     4  10  18  34  57  74  94 135 185 224 257 302
#     4  10  19  36  59  80 104 137 177 222 266 315
#     4   9  16  24  41  73 104 123 151 209 266 297
#     4   9  16  30  56  85 101 123 176 227 262 305
#     4  12  26  38  49  76 115 145 176 218 271 332
#
# _framework density 20.030988000000001
#
# number of rings (size 3 to 8) (size 9 to 14) (size 15 to 20)
#    0.000    2.500    1.667    1.750    0.000    3.333 
#    0.000    2.083    0.000    1.000    0.000    1.167 
#    0.000    0.000    0.000    0.000    0.000    0.000 
#
# Total GULP energy -133933.734964 kJ/mol
# GULP energy per Si atom -5580.572290 kJ/mol
# Density = 1.998540 g / cm^3
# Si number density = 20.030988 Si / 1000 Ang^3
#
#
#
# Elastic Constant Matrix: (Units=GPa)
#
#
# Indices 1 2 3 4 5 6 
#
# 1 34.3701 2.6883 -5.6865 0.0000 0.0000 0.0000
# 2 2.6883 163.2383 102.0694 0.0000 0.0000 0.0000
# 3 -5.6865 102.0694 190.2705 0.0000 0.0000 0.0000
# 4 0.0000 0.0000 0.0000 -2.7340 0.0000 0.0000
# 5 0.0000 0.0000 0.0000 0.0000 18.1864 0.0000
# 6 0.0000 0.0000 0.0000 0.0000 0.0000 -8.1051
#
#
#
# Elastic Compliance Matrix: (Units=1/GPa)
#
#
# Indices 1 2 3 4 5 6 
#
# 1 0.029502 -0.001561 0.001719 0.000000 0.000000 0.000000
# 2 -0.001561 0.009301 -0.005036 0.000000 0.000000 0.000000
# 3 0.001719 -0.005036 0.008008 0.000000 0.000000 0.000000
# 4 0.000000 0.000000 0.000000 -0.365758 0.000000 0.000000
# 5 0.000000 0.000000 0.000000 0.000000 0.054986 0.000000
# 6 0.000000 0.000000 0.000000 0.000000 0.000000 -0.123379
#
#
# Mechanical properties :
#
#
# Convention : Reuss Voigt Hill
#
# Bulk Modulus (GPa) = 26.98664 65.11345 46.05004
# Shear Modulus (GPa) = -13.68987 20.72330 3.51671
#
# Velocity S-wave (km/s) = -2.61709 3.21995 1.32644
# Velocity P-wave (km/s) = 2.09032 6.81183 5.03838
#
# Compressibility (1/GPa) = 0.03705537
#
# Stress axis : x y z
#
# Youngs Moduli (GPa) = 33.89656 107.52088 124.86744
#
# Poissons Ratio (x) = 0.16780 -0.21463
# Poissons Ratio (y) = 0.05290 0.62881
# Poissons Ratio (z) = -0.05826 0.54146
#
# Static dielectric constant tensor:
#      x y z
#    x 1.760020 0.000000 0.000000 
#    y 0.000000 1.670460 0.000000 
#    z 0.000000 0.000000 1.702780 
# 
# From -- ./inp_files/27021.got.cif
#   From: 2010.05.17/outbox.cif.g08.bks.cpg/sg44_14_cif.got.tgz:27021.got - 2010.06.03 19:37:08.
