data_PCOD9373593
_publ_section_title
;
Structure prediction by ZEFSAII (Michael W. Deem and Ramdas Pophale) SiO2 
 PCOD9373593
Probable space group: I M M 2
;
_chemical_formula_sum "Si O2"
_cell_formula_units_Z 64
_cell_length_a 9.236086
_cell_length_b 13.930984
_cell_length_c 35.054550
_cell_angle_alpha 90.000000
_cell_angle_beta 90.000000
_cell_angle_gamma 90.000000
_cell_volume 4510.390647
_symmetry_space_group_name_H-M "I M M 2"
_symmetry_group_IT_number 44
_symmetry_cell_setting 'orthorhombic'
loop_
_space_group_symop_operation_xyz
x,y,z
-x,-y,z
-x,y,z
x,-y,z
1/2+x,1/2+y,1/2+z
1/2-x,1/2-y,1/2+z
1/2-x,1/2+y,1/2+z
1/2+x,1/2-y,1/2+z
loop_
_atom_site_type_symbol
_atom_site_label
_atom_site_fract_x
_atom_site_fract_y
_atom_site_fract_z
Si Si1 0.828094 0.385167 0.803300
Si Si2 0.828593 0.390696 0.658899
Si Si3 0.827471 0.200833 0.230458
Si Si4 0.174289 0.613391 0.041676
Si Si5 0.165710 0.116718 0.380826
Si Si6 0.171888 0.609278 0.185388
Si Si7 0.672246 0.298652 0.113699
Si Si8 0.667115 0.116751 0.455854
O O1 0.803553 0.500000 0.798159
O O2 0.750522 0.329642 0.769140
O O3 0.760247 0.356958 0.844030
O O4 0.000000 0.369263 0.802941
O O5 0.800247 0.500000 0.647156
O O6 0.736126 0.363216 0.696006
O O7 0.799018 0.311035 0.626751
O O8 0.000000 0.382669 0.668640
O O9 0.797825 0.310515 0.217359
O O10 0.000000 0.187850 0.233705
O O11 0.209073 0.500000 0.046167
O O12 0.252813 0.672446 0.074402
O O13 0.000000 0.621890 0.044888
O O14 0.214509 0.644100 0.998560
O O15 0.235564 0.149603 0.420655
O O16 0.000000 0.148313 0.376758
O O17 0.165619 0.000000 0.381969
O O18 0.202560 0.500000 0.196961
O O19 0.260912 0.637233 0.147726
O O20 0.000000 0.616356 0.176413
O O21 0.500000 0.312762 0.111480
O O22 0.500000 0.145947 0.450167
O O23 0.667756 0.000000 0.455778
#
# Coordination Sequence:
#
# PCOD9373593 Si02
#       8
#     8   8   8   8   8   8   8   8
#     4  10  19  29  41  57  81 113 141 164 196 240
#     4   9  18  32  45  56  77 109 138 165 204 250
#     4  10  19  29  43  63  82 101 133 174 205 233
#     4   9  17  28  41  57  81 113 141 164 196 240
#     4   9  16  25  38  57  80 105 134 168 201 231
#     4   9  18  32  46  58  78 109 137 162 201 249
#     4  10  19  28  41  62  82 102 135 175 206 234
#     4   8  14  25  39  54  75 106 139 163 189 234
#
# _framework density 14.189458
#
# number of rings (size 3 to 8) (size 9 to 14) (size 15 to 20)
#    0.000    2.750    0.000    3.000    0.000    7.500 
#    0.000    1.250    0.000    0.000    0.000    0.000 
#    0.000    1.000    0.000    9.750    0.000    3.000 
#
# Total GULP energy -178288.856135 kJ/mol
# GULP energy per Si atom -5571.526754 kJ/mol
# Density = 1.415716 g / cm^3
# Si number density = 14.189458 Si / 1000 Ang^3
#
#
#
# Elastic Constant Matrix: (Units=GPa)
#
#
# Indices 1 2 3 4 5 6 
#
# 1 68.6177 40.4580 74.1989 0.0000 0.0000 0.0000
# 2 40.4580 67.1032 49.4529 0.0000 0.0000 0.0000
# 3 74.1989 49.4529 142.1293 0.0000 0.0000 0.0000
# 4 0.0000 0.0000 0.0000 18.2760 0.0000 0.0000
# 5 0.0000 0.0000 0.0000 0.0000 29.9831 0.0000
# 6 0.0000 0.0000 0.0000 0.0000 0.0000 16.4318
#
#
#
# Elastic Compliance Matrix: (Units=1/GPa)
#
#
# Indices 1 2 3 4 5 6 
#
# 1 0.039084 -0.011468 -0.016414 0.000000 0.000000 0.000000
# 2 -0.011468 0.023407 -0.002157 0.000000 0.000000 0.000000
# 3 -0.016414 -0.002157 0.016355 0.000000 0.000000 0.000000
# 4 0.000000 0.000000 0.000000 0.054717 0.000000 0.000000
# 5 0.000000 0.000000 0.000000 0.000000 0.033352 0.000000
# 6 0.000000 0.000000 0.000000 0.000000 0.000000 0.060858
#
#
# Mechanical properties :
#
#
# Convention : Reuss Voigt Hill
#
# Bulk Modulus (GPa) = 53.28285 67.34110 60.31198
# Shear Modulus (GPa) = 17.00066 20.52087 18.76077
#
# Velocity S-wave (km/s) = 3.46514 3.80703 3.64010
# Velocity P-wave (km/s) = 7.32408 8.17840 7.76300
#
# Compressibility (1/GPa) = 0.01876776
#
# Stress axis : x y z
#
# Youngs Moduli (GPa) = 25.58588 42.72291 61.14286
#
# Poissons Ratio (x) = 0.48996 1.00357
# Poissons Ratio (y) = 0.29343 0.13189
# Poissons Ratio (z) = 0.41996 0.09216
#
# Static dielectric constant tensor:
#      x y z
#    x 1.473390 0.000000 0.000000 
#    y 0.000000 1.454380 0.000000 
#    z 0.000000 0.000000 1.455880 
# 
# From -- ./inp_files/27301.got.cif
#   From: 2010.05.17/outbox.cif.g08.bks.cpg/sg44_14_cif.got.tgz:27301.got - 2010.06.03 19:37:08.
