data_PCOD9373477
_publ_section_title
;
Structure prediction by ZEFSAII (Michael W. Deem and Ramdas Pophale) SiO2 
 PCOD9373477
Probable space group: I M M 2
;
_chemical_formula_sum "Si O2"
_cell_formula_units_Z 48
_cell_length_a 7.509811
_cell_length_b 10.318311
_cell_length_c 28.668245
_cell_angle_alpha 90.000000
_cell_angle_beta 90.000000
_cell_angle_gamma 90.000000
_cell_volume 2221.461179
_symmetry_space_group_name_H-M "I M M 2"
_symmetry_group_IT_number 44
_symmetry_cell_setting 'orthorhombic'
loop_
_space_group_symop_operation_xyz
x,y,z
-x,-y,z
-x,y,z
x,-y,z
1/2+x,1/2+y,1/2+z
1/2-x,1/2-y,1/2+z
1/2-x,1/2+y,1/2+z
1/2+x,1/2-y,1/2+z
loop_
_atom_site_type_symbol
_atom_site_label
_atom_site_fract_x
_atom_site_fract_y
_atom_site_fract_z
Si Si1 0.784123 0.000000 0.350940
Si Si2 0.718287 0.349722 0.017107
Si Si3 0.217912 0.500000 0.362456
Si Si4 0.783199 0.240379 0.414379
Si Si5 0.202418 0.256727 0.193967
Si Si6 0.281360 0.000000 0.753915
Si Si7 0.797366 0.500000 0.744417
Si Si8 0.292715 0.852049 0.094320
O O1 0.730869 0.125264 0.380018
O O2 0.707205 0.000000 0.299709
O O3 0.000000 0.000000 0.346792
O O4 0.500000 0.352367 0.017957
O O5 0.774203 0.500000 0.023130
O O6 0.781671 0.249743 0.056740
O O7 0.773290 0.294370 0.966677
O O8 0.275456 0.625801 0.391330
O O9 0.275100 0.500000 0.308152
O O10 0.000000 0.500000 0.361473
O O11 0.000000 0.243114 0.415627
O O12 0.278061 0.374122 0.224695
O O13 0.284939 0.214275 0.145017
O O14 0.000000 0.293219 0.182861
O O15 0.207048 0.128929 0.225558
O O16 0.500000 0.000000 0.755411
O O17 0.000000 0.500000 0.726616
O O18 0.500000 0.866038 0.082025
O O19 0.218193 0.000000 0.095566
#
# Coordination Sequence:
#
# PCOD9373477 Si02
#       8
#     4   8   4   8   8   4   4   8
#     4  10  18  32  55  80 106 143 187 232 279 328
#     4   9  17  30  48  76 112 147 184 227 277 331
#     4   9  16  26  43  71 108 139 167 217 280 325
#     4   9  16  27  48  78 109 140 181 229 274 324
#     4  11  22  39  61  82 111 149 190 237 285 339
#     4   9  20  36  54  83 115 143 184 233 280 333
#     4  12  24  38  57  84 115 147 188 236 289 352
#     4  10  21  35  53  80 115 147 184 233 285 338
#
# _framework density 21.607399999999998
#
# number of rings (size 3 to 8) (size 9 to 14) (size 15 to 20)
#    0.000    2.167    1.667    2.250    2.333    2.667 
#    0.000    1.250    0.000    1.000    0.000    0.000 
#    0.000    0.000    0.000    0.000    0.000    0.000 
#
# Total GULP energy -134036.227578 kJ/mol
# GULP energy per Si atom -5584.842816 kJ/mol
# Density = 2.155822 g / cm^3
# Si number density = 21.607400 Si / 1000 Ang^3
#
#
#
# Elastic Constant Matrix: (Units=GPa)
#
#
# Indices 1 2 3 4 5 6 
#
# 1 56.2109 0.7989 -4.1465 0.0000 0.0000 0.0000
# 2 0.7989 223.3818 116.4897 0.0000 0.0000 0.0000
# 3 -4.1465 116.4897 193.2140 0.0000 0.0000 0.0000
# 4 0.0000 0.0000 0.0000 40.2767 0.0000 0.0000
# 5 0.0000 0.0000 0.0000 0.0000 14.6093 0.0000
# 6 0.0000 0.0000 0.0000 0.0000 0.0000 0.4481
#
#
#
# Elastic Compliance Matrix: (Units=1/GPa)
#
#
# Indices 1 2 3 4 5 6 
#
# 1 0.017841 -0.000384 0.000615 0.000000 0.000000 0.000000
# 2 -0.000384 0.006538 -0.003950 0.000000 0.000000 0.000000
# 3 0.000615 -0.003950 0.007570 0.000000 0.000000 0.000000
# 4 0.000000 0.000000 0.000000 0.024828 0.000000 0.000000
# 5 0.000000 0.000000 0.000000 0.000000 0.068449 0.000000
# 6 0.000000 0.000000 0.000000 0.000000 0.000000 2.231770
#
#
# Mechanical properties :
#
#
# Convention : Reuss Voigt Hill
#
# Bulk Modulus (GPa) = 40.80023 77.67678 59.23851
# Shear Modulus (GPa) = 2.10739 35.04446 18.57592
#
# Velocity S-wave (km/s) = 0.98865 4.03162 2.93525
# Velocity P-wave (km/s) = 4.49742 7.59599 6.24203
#
# Compressibility (1/GPa) = 0.02450967
#
# Stress axis : x y z
#
# Youngs Moduli (GPa) = 56.05090 152.95565 132.09624
#
# Poissons Ratio (x) = 0.05878 -0.08118
# Poissons Ratio (y) = 0.02154 0.52177
# Poissons Ratio (z) = -0.03445 0.60417
#
# Static dielectric constant tensor:
#      x y z
#    x 1.843260 0.000000 0.000000 
#    y 0.000000 1.748270 0.000000 
#    z 0.000000 0.000000 1.729770 
# 
# From -- ./inp_files/27045.got.cif
#   From: 2010.05.17/outbox.cif.g08.bks.cpg/sg44_14_cif.got.tgz:27045.got - 2010.06.03 19:37:08.
