data_PCOD9373960
_publ_section_title
;
Structure prediction by ZEFSAII (Michael W. Deem and Ramdas Pophale) SiO2 
 PCOD9373960
Probable space group: I M M 2
;
_chemical_formula_sum "Si O2"
_cell_formula_units_Z 64
_cell_length_a 7.541984
_cell_length_b 19.654432
_cell_length_c 19.265322
_cell_angle_alpha 90.000000
_cell_angle_beta 90.000000
_cell_angle_gamma 90.000000
_cell_volume 2855.764407
_symmetry_space_group_name_H-M "I M M 2"
_symmetry_group_IT_number 44
_symmetry_cell_setting 'orthorhombic'
loop_
_space_group_symop_operation_xyz
x,y,z
-x,-y,z
-x,y,z
x,-y,z
1/2+x,1/2+y,1/2+z
1/2-x,1/2-y,1/2+z
1/2-x,1/2+y,1/2+z
1/2+x,1/2-y,1/2+z
loop_
_atom_site_type_symbol
_atom_site_label
_atom_site_fract_x
_atom_site_fract_y
_atom_site_fract_z
Si Si1 0.201190 0.926090 0.408460
Si Si2 0.289035 0.926649 0.252001
Si Si3 0.717806 0.826703 0.135505
Si Si4 0.215075 0.577524 0.508689
Si Si5 0.217272 0.920950 0.739940
Si Si6 0.707370 0.678740 0.122463
Si Si7 0.205394 0.160831 0.876087
Si Si8 0.800922 0.712694 0.966164
O O1 0.197952 0.927577 0.325600
O O2 0.303783 0.858410 0.426316
O O3 0.000000 0.920320 0.435284
O O4 0.273240 0.000000 0.431595
O O5 0.500000 0.918478 0.264674
O O6 0.225900 0.869712 0.201047
O O7 0.265920 0.000000 0.217032
O O8 0.500000 0.825580 0.133569
O O9 0.771575 0.866752 0.065915
O O10 0.784430 0.750777 0.145850
O O11 0.269490 0.500000 0.524517
O O12 0.281768 0.602004 0.433989
O O13 0.000000 0.578523 0.507284
O O14 0.274708 0.885414 0.666945
O O15 0.275355 0.871918 0.804190
O O16 0.000000 0.923341 0.742788
O O17 0.275437 0.000000 0.746053
O O18 0.500000 0.678820 0.139219
O O19 0.719070 0.689004 0.039419
O O20 0.280825 0.227976 0.916928
O O21 0.000000 0.178674 0.861297
O O22 0.000000 0.736175 0.982544
#
# Coordination Sequence:
#
# PCOD9373960 Si02
#       8
#     8   8   8   8   8   8   8   8
#     4  10  22  39  58  82 112 147 187 232 288 350
#     4   9  17  31  53  80 110 145 185 228 275 330
#     4   9  17  30  51  78 110 149 190 230 276 338
#     4  10  19  32  53  81 113 150 190 232 284 346
#     4   9  19  36  59  86 112 145 195 246 289 342
#     4  10  20  36  59  82 110 149 191 236 290 343
#     4  10  21  37  58  83 114 150 190 238 292 348
#     4  11  23  38  59  86 116 150 192 239 292 352
#
# _framework density 22.410813999999998
#
# number of rings (size 3 to 8) (size 9 to 14) (size 15 to 20)
#    0.000    2.250    1.250    1.500    1.750    4.000 
#    0.000    3.125    0.000    2.250    0.000    0.000 
#    0.000    0.000    0.000    0.000    0.000    0.000 
#
# Total GULP energy -178364.637780 kJ/mol
# GULP energy per Si atom -5573.894931 kJ/mol
# Density = 2.235981 g / cm^3
# Si number density = 22.410814 Si / 1000 Ang^3
#
#
#
# Elastic Constant Matrix: (Units=GPa)
#
#
# Indices 1 2 3 4 5 6 
#
# 1 51.6948 13.2464 -0.0843 0.0000 0.0000 0.0000
# 2 13.2464 162.6689 82.0574 0.0000 0.0000 0.0000
# 3 -0.0843 82.0574 92.5666 0.0000 0.0000 0.0000
# 4 0.0000 0.0000 0.0000 43.8125 0.0000 0.0000
# 5 0.0000 0.0000 0.0000 0.0000 15.0046 0.0000
# 6 0.0000 0.0000 0.0000 0.0000 0.0000 9.3050
#
#
#
# Elastic Compliance Matrix: (Units=1/GPa)
#
#
# Indices 1 2 3 4 5 6 
#
# 1 0.020112 -0.002979 0.002659 0.000000 0.000000 0.000000
# 2 -0.002979 0.011561 -0.010251 0.000000 0.000000 0.000000
# 3 0.002659 -0.010251 0.019893 0.000000 0.000000 0.000000
# 4 0.000000 0.000000 0.000000 0.022825 0.000000 0.000000
# 5 0.000000 0.000000 0.000000 0.000000 0.066646 0.000000
# 6 0.000000 0.000000 0.000000 0.000000 0.000000 0.107469
#
#
# Mechanical properties :
#
#
# Convention : Reuss Voigt Hill
#
# Bulk Modulus (GPa) = 32.86918 55.26328 44.06623
# Shear Modulus (GPa) = 17.87050 27.73845 22.80448
#
# Velocity S-wave (km/s) = 2.82690 3.52195 3.19339
# Velocity P-wave (km/s) = 5.03524 6.42274 5.77084
#
# Compressibility (1/GPa) = 0.03042364
#
# Stress axis : x y z
#
# Youngs Moduli (GPa) = 49.72143 86.49495 50.26874
#
# Poissons Ratio (x) = 0.25769 -0.13368
# Poissons Ratio (y) = 0.14813 0.51533
# Poissons Ratio (z) = -0.13222 0.88670
#
# Static dielectric constant tensor:
#      x y z
#    x 1.898040 0.000000 0.000000 
#    y 0.000000 1.800730 0.000000 
#    z 0.000000 0.000000 1.841940 
# 
# From -- ./inp_files/23294.got.cif
#   From: 2010.05.17/outbox.cif.g08.bks.cpg/sg44_12_cif.got.tgz:23294.got - 2010.06.03 19:37:08.
