data_PCOD9373227
_publ_section_title
;
Structure prediction by ZEFSAII (Michael W. Deem and Ramdas Pophale) SiO2 
 PCOD9373227
Probable space group: I M M 2
;
_chemical_formula_sum "Si O2"
_cell_formula_units_Z 64
_cell_length_a 29.330473
_cell_length_b 7.574570
_cell_length_c 14.881171
_cell_angle_alpha 90.000000
_cell_angle_beta 90.000000
_cell_angle_gamma 90.000000
_cell_volume 3306.086083
_symmetry_space_group_name_H-M "I M M 2"
_symmetry_group_IT_number 44
_symmetry_cell_setting 'orthorhombic'
loop_
_space_group_symop_operation_xyz
x,y,z
-x,-y,z
-x,y,z
x,-y,z
1/2+x,1/2+y,1/2+z
1/2-x,1/2-y,1/2+z
1/2-x,1/2+y,1/2+z
1/2+x,1/2-y,1/2+z
loop_
_atom_site_type_symbol
_atom_site_label
_atom_site_fract_x
_atom_site_fract_y
_atom_site_fract_z
Si Si1 0.678585 0.796318 0.246850
Si Si2 0.135534 0.216789 0.135122
Si Si3 0.219830 0.785047 0.257433
Si Si4 0.448292 0.715067 0.755816
Si Si5 0.948382 0.215741 0.462013
Si Si6 0.637050 0.705497 0.072437
Si Si7 0.723773 0.713557 0.964434
Si Si8 0.172600 0.204467 0.951589
O O1 0.729535 0.719591 0.232722
O O2 0.642222 0.714935 0.179353
O O3 0.668972 0.786274 0.352909
O O4 0.680348 0.000000 0.221582
O O5 0.179450 0.273327 0.193067
O O6 0.089913 0.274006 0.185967
O O7 0.135923 0.000000 0.134161
O O8 0.142191 0.276579 0.032754
O O9 0.211650 0.738810 0.361542
O O10 0.221130 0.000000 0.254280
O O11 0.500000 0.771434 0.735250
O O12 0.448013 0.500000 0.754655
O O13 0.437606 0.765956 0.858828
O O14 0.909016 0.279154 0.529027
O O15 0.000000 0.274169 0.482985
O O16 0.949446 0.000000 0.464136
O O17 0.637241 0.500000 0.046080
O O18 0.683737 0.778498 0.029152
O O19 0.727167 0.500000 0.969189
O O20 0.774548 0.782233 0.982527
O O21 0.161292 0.000000 0.939294
#
# Coordination Sequence:
#
# PCOD9373227 Si02
#       8
#     8   8   8   8   8   8   8   8
#     4  10  20  33  46  61  86 121 158 195 234 271
#     4   9  15  23  39  62  86 113 145 178 213 258
#     4   8  14  25  40  59  85 116 145 172 209 260
#     4   8  13  22  38  63  94 120 139 167 214 269
#     4   8  14  25  43  69  98 122 144 177 224 275
#     4  10  18  28  46  70  94 121 154 189 226 272
#     4   9  17  28  43  66  96 125 149 178 220 270
#     4  10  19  30  44  63  89 122 158 193 226 262
#
# _framework density 19.358238
#
# number of rings (size 3 to 8) (size 9 to 14) (size 15 to 20)
#    0.000    3.000    0.000    3.750    0.000    4.500 
#    0.000    0.000    0.000    1.875    0.000    5.250 
#    0.000    3.500    0.000    0.000    0.000    0.000 
#
# Total GULP energy -178484.831495 kJ/mol
# GULP energy per Si atom -5577.650984 kJ/mol
# Density = 1.931418 g / cm^3
# Si number density = 19.358238 Si / 1000 Ang^3
#
#
#
# Elastic Constant Matrix: (Units=GPa)
#
#
# Indices 1 2 3 4 5 6 
#
# 1 118.2581 0.4362 98.6747 0.0000 0.0000 0.0000
# 2 0.4362 42.2463 -1.3995 0.0000 0.0000 0.0000
# 3 98.6747 -1.3995 113.7390 0.0000 0.0000 0.0000
# 4 0.0000 0.0000 0.0000 9.1266 0.0000 0.0000
# 5 0.0000 0.0000 0.0000 0.0000 35.2598 0.0000
# 6 0.0000 0.0000 0.0000 0.0000 0.0000 5.1486
#
#
#
# Elastic Compliance Matrix: (Units=1/GPa)
#
#
# Indices 1 2 3 4 5 6 
#
# 1 0.030686 -0.001199 -0.026637 0.000000 0.000000 0.000000
# 2 -0.001199 0.023727 0.001332 0.000000 0.000000 0.000000
# 3 -0.026637 0.001332 0.031917 0.000000 0.000000 0.000000
# 4 0.000000 0.000000 0.000000 0.109570 0.000000 0.000000
# 5 0.000000 0.000000 0.000000 0.000000 0.028361 0.000000
# 6 0.000000 0.000000 0.000000 0.000000 0.000000 0.194229
#
#
# Mechanical properties :
#
#
# Convention : Reuss Voigt Hill
#
# Bulk Modulus (GPa) = 30.00884 52.18512 41.09698
# Shear Modulus (GPa) = 10.36045 21.67581 16.01813
#
# Velocity S-wave (km/s) = 2.31594 3.34985 2.87968
# Velocity P-wave (km/s) = 4.76308 6.47905 5.68617
#
# Compressibility (1/GPa) = 0.03332351
#
# Stress axis : x y z
#
# Youngs Moduli (GPa) = 32.58803 42.14568 31.33113
#
# Poissons Ratio (x) = 0.05054 0.83455
# Poissons Ratio (y) = 0.03908 -0.04174
# Poissons Ratio (z) = 0.86803 -0.05615
#
# Static dielectric constant tensor:
#      x y z
#    x 1.667600 0.000000 0.000000 
#    y 0.000000 1.752160 0.000000 
#    z 0.000000 0.000000 1.673040 
# 
# From -- ./inp_files/17147.got.cif
#   From: 2010.05.17/outbox.cif.g08.bks.cpg/sg44_9_cif.got.tgz:17147.got - 2010.06.03 19:37:08.
