data_PCOD9373190
_publ_section_title
;
Structure prediction by ZEFSAII (Michael W. Deem and Ramdas Pophale) SiO2 
 PCOD9373190
Probable space group: I M M 2
;
_chemical_formula_sum "Si O2"
_cell_formula_units_Z 64
_cell_length_a 27.366123
_cell_length_b 8.549214
_cell_length_c 18.899797
_cell_angle_alpha 90.000000
_cell_angle_beta 90.000000
_cell_angle_gamma 90.000000
_cell_volume 4421.774618
_symmetry_space_group_name_H-M "I M M 2"
_symmetry_group_IT_number 44
_symmetry_cell_setting 'orthorhombic'
loop_
_space_group_symop_operation_xyz
x,y,z
-x,-y,z
-x,y,z
x,-y,z
1/2+x,1/2+y,1/2+z
1/2-x,1/2-y,1/2+z
1/2-x,1/2+y,1/2+z
1/2+x,1/2-y,1/2+z
loop_
_atom_site_type_symbol
_atom_site_label
_atom_site_fract_x
_atom_site_fract_y
_atom_site_fract_z
Si Si1 0.260562 0.685895 0.448820
Si Si2 0.555819 0.688864 0.295725
Si Si3 0.792529 0.314321 0.585670
Si Si4 0.353213 0.686856 0.203108
Si Si5 0.555465 0.811217 0.452032
Si Si6 0.648244 0.189773 0.539858
Si Si7 0.762606 0.683477 0.792552
Si Si8 0.702417 0.815895 0.673829
O O1 0.263186 0.500000 0.437658
O O2 0.215683 0.718423 0.502899
O O3 0.309321 0.740611 0.490090
O O4 0.257015 0.768466 0.373658
O O5 0.500000 0.738210 0.279898
O O6 0.556736 0.500000 0.298284
O O7 0.596214 0.738968 0.239019
O O8 0.568528 0.751143 0.373769
O O9 0.783751 0.500000 0.595951
O O10 0.840827 0.265972 0.627930
O O11 0.750097 0.218132 0.625542
O O12 0.353840 0.500000 0.194304
O O13 0.309119 0.730454 0.256905
O O14 0.500000 0.758719 0.467710
O O15 0.596123 0.762021 0.508462
O O16 0.555492 0.000000 0.450173
O O17 0.658934 0.235221 0.621333
O O18 0.652057 0.000000 0.536811
O O19 0.771554 0.500000 0.786156
O O20 0.715046 0.728835 0.746250
O O21 0.698259 0.000000 0.688004
#
# Coordination Sequence:
#
# PCOD9373190 Si02
#       8
#     8   8   8   8   8   8   8   8
#     4  10  19  29  41  58  80 106 134 163 196 234
#     4   9  18  30  41  56  79 106 136 167 196 226
#     4   9  17  28  41  57  78 102 129 162 197 234
#     4  10  18  28  43  59  78 106 136 165 197 233
#     4   9  17  28  41  58  80 105 134 167 199 229
#     4   9  17  28  42  59  79 106 136 165 197 232
#     4  11  20  28  40  58  81 106 133 165 197 233
#     4   9  16  27  41  56  77 103 132 163 195 233
#
# _framework density 14.473827
#
# number of rings (size 3 to 8) (size 9 to 14) (size 15 to 20)
#    0.000    2.500    0.000    4.875    0.000    5.500 
#    0.000    0.000    0.000    0.000    0.000    0.000 
#    0.000    1.000    0.000    4.250    0.000    2.625 
#
# Total GULP energy -178232.505480 kJ/mol
# GULP energy per Si atom -5569.765796 kJ/mol
# Density = 1.444088 g / cm^3
# Si number density = 14.473827 Si / 1000 Ang^3
#
#
#
# Elastic Constant Matrix: (Units=GPa)
#
#
# Indices 1 2 3 4 5 6 
#
# 1 66.4825 4.9604 32.8489 0.0000 0.0000 0.0000
# 2 4.9604 16.6234 8.0653 0.0000 0.0000 0.0000
# 3 32.8489 8.0653 73.8449 0.0000 0.0000 0.0000
# 4 0.0000 0.0000 0.0000 22.5552 0.0000 0.0000
# 5 0.0000 0.0000 0.0000 0.0000 27.4343 0.0000
# 6 0.0000 0.0000 0.0000 0.0000 0.0000 16.4422
#
#
#
# Elastic Compliance Matrix: (Units=1/GPa)
#
#
# Indices 1 2 3 4 5 6 
#
# 1 0.019323 -0.001685 -0.008412 0.000000 0.000000 0.000000
# 2 -0.001685 0.063669 -0.006204 0.000000 0.000000 0.000000
# 3 -0.008412 -0.006204 0.017961 0.000000 0.000000 0.000000
# 4 0.000000 0.000000 0.000000 0.044336 0.000000 0.000000
# 5 0.000000 0.000000 0.000000 0.000000 0.036451 0.000000
# 6 0.000000 0.000000 0.000000 0.000000 0.000000 0.060819
#
#
# Mechanical properties :
#
#
# Convention : Reuss Voigt Hill
#
# Bulk Modulus (GPa) = 14.63017 27.63333 21.13175
# Shear Modulus (GPa) = 16.78158 20.69142 18.73650
#
# Velocity S-wave (km/s) = 3.40875 3.78507 3.60183
# Velocity P-wave (km/s) = 5.06189 6.18351 5.65060
#
# Compressibility (1/GPa) = 0.06835190
#
# Stress axis : x y z
#
# Youngs Moduli (GPa) = 51.75046 15.70620 55.67493
#
# Poissons Ratio (x) = 0.02646 0.46832
# Poissons Ratio (y) = 0.08719 0.34543
# Poissons Ratio (z) = 0.43531 0.09745
#
# Static dielectric constant tensor:
#      x y z
#    x 1.487740 0.000000 0.000000 
#    y 0.000000 1.490030 0.000000 
#    z 0.000000 0.000000 1.486130 
# 
# From -- ./inp_files/20924.got.cif
#   From: 2010.05.17/outbox.cif.g08.bks.cpg/sg44_11_cif.got.tgz:20924.got - 2010.06.03 19:37:08.
