data_PCOD9373971
_publ_section_title
;
Structure prediction by ZEFSAII (Michael W. Deem and Ramdas Pophale) SiO2 
 PCOD9373971
Probable space group: I M M 2
;
_chemical_formula_sum "Si O2"
_cell_formula_units_Z 64
_cell_length_a 8.756575
_cell_length_b 25.717134
_cell_length_c 15.385803
_cell_angle_alpha 90.000000
_cell_angle_beta 90.000000
_cell_angle_gamma 90.000000
_cell_volume 3464.790716
_symmetry_space_group_name_H-M "I M M 2"
_symmetry_group_IT_number 44
_symmetry_cell_setting 'orthorhombic'
loop_
_space_group_symop_operation_xyz
x,y,z
-x,-y,z
-x,y,z
x,-y,z
1/2+x,1/2+y,1/2+z
1/2-x,1/2-y,1/2+z
1/2-x,1/2+y,1/2+z
1/2+x,1/2-y,1/2+z
loop_
_atom_site_type_symbol
_atom_site_label
_atom_site_fract_x
_atom_site_fract_y
_atom_site_fract_z
Si Si1 0.813658 0.058376 0.497250
Si Si2 0.684532 0.650291 0.124270
Si Si3 0.318377 0.719146 0.774353
Si Si4 0.681493 0.164956 0.814786
Si Si5 0.683018 0.603705 0.814068
Si Si6 0.819278 0.733700 0.586361
Si Si7 0.682820 0.939510 0.134537
Si Si8 0.319468 0.637037 0.491020
O O1 0.765375 0.101949 0.565843
O O2 0.764640 0.073772 0.400015
O O3 0.000000 0.059343 0.496683
O O4 0.764972 0.000000 0.519168
O O5 0.500000 0.649334 0.133381
O O6 0.757296 0.649942 0.219732
O O7 0.722110 0.705488 0.078801
O O8 0.500000 0.719891 0.751900
O O9 0.286145 0.772926 0.823550
O O10 0.288565 0.665471 0.823638
O O11 0.222179 0.719423 0.685772
O O12 0.500000 0.158073 0.818804
O O13 0.759197 0.134104 0.892813
O O14 0.500000 0.596872 0.805975
O O15 0.757273 0.583139 0.725824
O O16 0.730258 0.693569 0.526669
O O17 0.000000 0.727766 0.570761
O O18 0.500000 0.936308 0.133545
O O19 0.747085 0.905127 0.055830
O O20 0.728199 0.000000 0.126930
O O21 0.500000 0.631965 0.493700
#
# Coordination Sequence:
#
# PCOD9373971 Si02
#       8
#     8   8   8   8   8   8   8   8
#     4   9  18  33  56  85 114 148 193 238 279 330
#     4   9  19  36  58  83 113 150 193 240 290 341
#     4   9  18  32  53  82 116 151 187 229 281 344
#     4  10  21  37  58  83 117 153 190 239 294 345
#     4  10  19  33  57  87 118 154 193 234 281 340
#     4  10  19  32  54  81 113 150 187 232 287 341
#     4  11  24  41  60  84 117 155 194 240 295 350
#     4  12  24  38  58  85 116 152 197 240 287 348
#
# _framework density 18.471533000000001
#
# number of rings (size 3 to 8) (size 9 to 14) (size 15 to 20)
#    0.000    2.000    1.250    2.625    1.750    2.500 
#    0.000    1.250    0.000    3.375    0.000    0.000 
#    0.000    0.000    0.000    0.000    0.000    0.000 
#
# Total GULP energy -178686.142841 kJ/mol
# GULP energy per Si atom -5583.941964 kJ/mol
# Density = 1.842949 g / cm^3
# Si number density = 18.471533 Si / 1000 Ang^3
#
#
#
# Elastic Constant Matrix: (Units=GPa)
#
#
# Indices 1 2 3 4 5 6 
#
# 1 37.5160 38.8648 33.1648 0.0000 0.0000 0.0000
# 2 38.8648 136.9929 74.7973 0.0000 0.0000 0.0000
# 3 33.1648 74.7973 100.7313 0.0000 0.0000 0.0000
# 4 0.0000 0.0000 0.0000 28.1328 0.0000 0.0000
# 5 0.0000 0.0000 0.0000 0.0000 23.5066 0.0000
# 6 0.0000 0.0000 0.0000 0.0000 0.0000 9.4356
#
#
#
# Elastic Compliance Matrix: (Units=1/GPa)
#
#
# Indices 1 2 3 4 5 6 
#
# 1 0.041480 -0.007251 -0.008273 0.000000 0.000000 0.000000
# 2 -0.007251 0.013545 -0.007670 0.000000 0.000000 0.000000
# 3 -0.008273 -0.007670 0.018347 0.000000 0.000000 0.000000
# 4 0.000000 0.000000 0.000000 0.035546 0.000000 0.000000
# 5 0.000000 0.000000 0.000000 0.000000 0.042541 0.000000
# 6 0.000000 0.000000 0.000000 0.000000 0.000000 0.105981
#
#
# Mechanical properties :
#
#
# Convention : Reuss Voigt Hill
#
# Bulk Modulus (GPa) = 37.05957 63.21046 50.13502
# Shear Modulus (GPa) = 15.98352 20.77589 18.37970
#
# Velocity S-wave (km/s) = 2.94480 3.35737 3.15783
# Velocity P-wave (km/s) = 5.62753 7.02311 6.36369
#
# Compressibility (1/GPa) = 0.02698358
#
# Stress axis : x y z
#
# Youngs Moduli (GPa) = 24.10779 73.83011 54.50624
#
# Poissons Ratio (x) = 0.53535 0.45092
# Poissons Ratio (y) = 0.17481 0.41807
# Poissons Ratio (z) = 0.19944 0.56629
#
# Static dielectric constant tensor:
#      x y z
#    x 1.616970 0.000000 0.000000 
#    y 0.000000 1.641810 0.000000 
#    z 0.000000 0.000000 1.615470 
# 
# From -- ./inp_files/16880.got.cif
#   From: 2010.05.17/outbox.cif.g08.bks.cpg/sg44_9_cif.got.tgz:16880.got - 2010.06.03 19:37:08.
