data_PCOD9373040
_publ_section_title
;
Structure prediction by ZEFSAII (Michael W. Deem and Ramdas Pophale) SiO2 
 PCOD9373040
Probable space group: I M M 2
;
_chemical_formula_sum "Si O2"
_cell_formula_units_Z 64
_cell_length_a 31.892336
_cell_length_b 7.434024
_cell_length_c 14.864151
_cell_angle_alpha 90.000000
_cell_angle_beta 90.000000
_cell_angle_gamma 90.000000
_cell_volume 3524.117648
_symmetry_space_group_name_H-M "I M M 2"
_symmetry_group_IT_number 44
_symmetry_cell_setting 'orthorhombic'
loop_
_space_group_symop_operation_xyz
x,y,z
-x,-y,z
-x,y,z
x,-y,z
1/2+x,1/2+y,1/2+z
1/2-x,1/2-y,1/2+z
1/2-x,1/2+y,1/2+z
1/2+x,1/2-y,1/2+z
loop_
_atom_site_type_symbol
_atom_site_label
_atom_site_fract_x
_atom_site_fract_y
_atom_site_fract_z
Si Si1 0.209318 0.720938 0.559980
Si Si2 0.453108 0.714097 0.463311
Si Si3 0.325337 0.717667 0.344834
Si Si4 0.452529 0.782816 0.252997
Si Si5 0.205874 0.213346 0.161741
Si Si6 0.628699 0.204201 0.163911
Si Si7 0.632700 0.718888 0.534818
Si Si8 0.770086 0.715436 0.359074
O O1 0.208922 0.500000 0.564151
O O2 0.250327 0.780563 0.617273
O O3 0.165288 0.784443 0.601882
O O4 0.213953 0.777260 0.456229
O O5 0.500000 0.787870 0.478089
O O6 0.455170 0.500000 0.477699
O O7 0.442729 0.738403 0.357299
O O8 0.415117 0.783766 0.524621
O O9 0.326730 0.500000 0.335290
O O10 0.350282 0.798775 0.262336
O O11 0.345176 0.762586 0.440407
O O12 0.277384 0.778968 0.343767
O O13 0.500000 0.720566 0.235071
O O14 0.416909 0.714102 0.184894
O O15 0.452164 0.000000 0.247539
O O16 0.164194 0.283290 0.112255
O O17 0.205147 0.241148 0.268440
O O18 0.206642 0.000000 0.144646
O O19 0.621814 0.000000 0.131336
O O20 0.630758 0.500000 0.540783
O O21 0.768088 0.500000 0.365793
#
# Coordination Sequence:
#
# PCOD9373040 Si02
#       8
#     8   8   8   8   8   8   8   8
#     4   9  17  29  44  60  81 111 143 170 205 250
#     4   9  16  26  42  63  85 111 144 174 201 248
#     4  10  17  26  42  62  86 113 139 171 210 245
#     4   9  17  27  39  60  89 113 135 171 216 252
#     4  10  18  30  46  62  83 113 145 175 208 251
#     4  10  18  28  43  62  83 114 147 171 201 250
#     4   9  16  27  43  62  85 116 144 167 207 253
#     4  10  19  31  44  61  86 114 143 177 211 245
#
# _framework density 18.160572999999999
#
# number of rings (size 3 to 8) (size 9 to 14) (size 15 to 20)
#    0.000    2.500    3.750    0.000    0.000    0.000 
#    0.000    2.500    0.000    0.000    0.000    0.875 
#    0.000    1.000    0.000    0.000    0.000    0.000 
#
# Total GULP energy -178425.857906 kJ/mol
# GULP energy per Si atom -5575.808060 kJ/mol
# Density = 1.811924 g / cm^3
# Si number density = 18.160573 Si / 1000 Ang^3
#
#
#
# Elastic Constant Matrix: (Units=GPa)
#
#
# Indices 1 2 3 4 5 6 
#
# 1 146.7117 5.5055 58.0840 0.0000 0.0000 0.0000
# 2 5.5055 56.5947 -1.7556 0.0000 0.0000 0.0000
# 3 58.0840 -1.7556 92.1643 0.0000 0.0000 0.0000
# 4 0.0000 0.0000 0.0000 14.0851 0.0000 0.0000
# 5 0.0000 0.0000 0.0000 0.0000 25.9112 0.0000
# 6 0.0000 0.0000 0.0000 0.0000 0.0000 2.5043
#
#
#
# Elastic Compliance Matrix: (Units=1/GPa)
#
#
# Indices 1 2 3 4 5 6 
#
# 1 0.009146 -0.001069 -0.005785 0.000000 0.000000 0.000000
# 2 -0.001069 0.017805 0.001013 0.000000 0.000000 0.000000
# 3 -0.005785 0.001013 0.014515 0.000000 0.000000 0.000000
# 4 0.000000 0.000000 0.000000 0.070997 0.000000 0.000000
# 5 0.000000 0.000000 0.000000 0.000000 0.038593 0.000000
# 6 0.000000 0.000000 0.000000 0.000000 0.000000 0.399320
#
#
# Mechanical properties :
#
#
# Convention : Reuss Voigt Hill
#
# Bulk Modulus (GPa) = 33.57425 46.57095 40.07260
# Shear Modulus (GPa) = 8.74146 24.07590 16.40868
#
# Velocity S-wave (km/s) = 2.19633 3.64500 3.00914
# Velocity P-wave (km/s) = 4.99594 6.58896 5.84695
#
# Compressibility (1/GPa) = 0.02978473
#
# Stress axis : x y z
#
# Youngs Moduli (GPa) = 109.33300 56.16422 68.89392
#
# Poissons Ratio (x) = 0.06005 0.39852
# Poissons Ratio (y) = 0.11690 -0.06979
# Poissons Ratio (z) = 0.63245 -0.05689
#
# Static dielectric constant tensor:
#      x y z
#    x 1.671270 0.000000 0.000000 
#    y 0.000000 1.734500 0.000000 
#    z 0.000000 0.000000 1.591260 
# 
# From -- ./inp_files/17117.got.cif
#   From: 2010.05.17/outbox.cif.g08.bks.cpg/sg44_9_cif.got.tgz:17117.got - 2010.06.03 19:37:08.
