data_PCOD9373354
_publ_section_title
;
Structure prediction by ZEFSAII (Michael W. Deem and Ramdas Pophale) SiO2 
 PCOD9373354
Probable space group: I M M 2
;
_chemical_formula_sum "Si O2"
_cell_formula_units_Z 64
_cell_length_a 35.257460
_cell_length_b 7.625674
_cell_length_c 11.961328
_cell_angle_alpha 90.000000
_cell_angle_beta 90.000000
_cell_angle_gamma 90.000000
_cell_volume 3215.945325
_symmetry_space_group_name_H-M "I M M 2"
_symmetry_group_IT_number 44
_symmetry_cell_setting 'orthorhombic'
loop_
_space_group_symop_operation_xyz
x,y,z
-x,-y,z
-x,y,z
x,-y,z
1/2+x,1/2+y,1/2+z
1/2-x,1/2-y,1/2+z
1/2-x,1/2+y,1/2+z
1/2+x,1/2-y,1/2+z
loop_
_atom_site_type_symbol
_atom_site_label
_atom_site_fract_x
_atom_site_fract_y
_atom_site_fract_z
Si Si1 0.317849 0.205746 0.631490
Si Si2 0.123969 0.704281 0.703888
Si Si3 0.458494 0.287733 0.889338
Si Si4 0.379420 0.711154 0.802392
Si Si5 0.958017 0.293670 0.650772
Si Si6 0.181448 0.201542 0.877297
Si Si7 0.735346 0.215844 0.834023
Si Si8 0.325018 0.202003 0.005537
O O1 0.358411 0.232700 0.690232
O O2 0.316752 0.290053 0.510682
O O3 0.287582 0.271633 0.723640
O O4 0.310820 0.000000 0.616130
O O5 0.119469 0.500000 0.670619
O O6 0.081386 0.780031 0.700319
O O7 0.144881 0.711721 0.822174
O O8 0.153619 0.781533 0.612562
O O9 0.500000 0.230732 0.849393
O O10 0.458177 0.500000 0.893477
O O11 0.422774 0.232564 0.816195
O O12 0.453870 0.224380 0.016710
O O13 0.377202 0.500000 0.811518
O O14 0.355634 0.790067 0.905368
O O15 0.959676 0.500000 0.679415
O O16 0.000000 0.218963 0.679263
O O17 0.221419 0.275370 0.833363
O O18 0.179512 0.000000 0.842355
O O19 0.712646 0.276390 0.945449
O O20 0.734580 0.000000 0.836378
O O21 0.315832 0.000000 0.033475
#
# Coordination Sequence:
#
# PCOD9373354 Si02
#       8
#     8   8   8   8   8   8   8   8
#     4  10  21  39  57  73 100 137 175 211 259 312
#     4  10  20  33  52  78 108 142 175 213 264 314
#     4   9  17  28  45  74 110 140 165 202 256 312
#     4  10  18  30  51  77 104 135 171 211 254 302
#     4   9  17  30  50  76 106 139 176 216 257 308
#     4  11  23  37  54  77 104 135 177 222 258 304
#     4   8  18  35  54  75 102 134 168 211 259 305
#     4   9  17  32  52  74 104 139 172 207 253 309
#
# _framework density 19.900835000000001
#
# number of rings (size 3 to 8) (size 9 to 14) (size 15 to 20)
#    0.000    2.500    1.250    1.875    1.750    1.500 
#    0.000    5.625    0.000    0.750    0.000    0.000 
#    0.000    0.000    0.000    0.000    0.000    0.000 
#
# Total GULP energy -178437.592295 kJ/mol
# GULP energy per Si atom -5576.174759 kJ/mol
# Density = 1.985554 g / cm^3
# Si number density = 19.900835 Si / 1000 Ang^3
#
#
#
# Elastic Constant Matrix: (Units=GPa)
#
#
# Indices 1 2 3 4 5 6 
#
# 1 157.4407 0.8960 49.3287 0.0000 0.0000 0.0000
# 2 0.8960 44.0405 -2.9251 0.0000 0.0000 0.0000
# 3 49.3287 -2.9251 74.5617 0.0000 0.0000 0.0000
# 4 0.0000 0.0000 0.0000 34.8801 0.0000 0.0000
# 5 0.0000 0.0000 0.0000 0.0000 20.2672 0.0000
# 6 0.0000 0.0000 0.0000 0.0000 0.0000 -14.8703
#
#
#
# Elastic Compliance Matrix: (Units=1/GPa)
#
#
# Indices 1 2 3 4 5 6 
#
# 1 0.008024 -0.000517 -0.005329 0.000000 0.000000 0.000000
# 2 -0.000517 0.022799 0.001237 0.000000 0.000000 0.000000
# 3 -0.005329 0.001237 0.016986 0.000000 0.000000 0.000000
# 4 0.000000 0.000000 0.000000 0.028670 0.000000 0.000000
# 5 0.000000 0.000000 0.000000 0.000000 0.049341 0.000000
# 6 0.000000 0.000000 0.000000 0.000000 0.000000 -0.067248
#
#
# Mechanical properties :
#
#
# Convention : Reuss Voigt Hill
#
# Bulk Modulus (GPa) = 25.91355 41.18247 33.54801
# Shear Modulus (GPa) = 61.99338 23.30495 42.64917
#
# Velocity S-wave (km/s) = 5.58738 3.42578 4.63437
# Velocity P-wave (km/s) = 7.39423 6.03214 6.74764
#
# Compressibility (1/GPa) = 0.03858985
#
# Stress axis : x y z
#
# Youngs Moduli (GPa) = 124.62326 43.86151 58.87285
#
# Poissons Ratio (x) = 0.02268 0.31373
# Poissons Ratio (y) = 0.06445 -0.07280
# Poissons Ratio (z) = 0.66411 -0.05424
#
# Static dielectric constant tensor:
#      x y z
#    x 1.750370 0.000000 0.000000 
#    y 0.000000 1.603620 0.000000 
#    z 0.000000 0.000000 1.658460 
# 
# From -- ./inp_files/15037.got.cif
#   From: 2010.05.17/outbox.cif.g08.bks.cpg/sg44_8_cif.got.tgz:15037.got - 2010.06.03 19:37:08.
