data_PCOD9373611
_publ_section_title
;
Structure prediction by ZEFSAII (Michael W. Deem and Ramdas Pophale) SiO2 
 PCOD9373611
Probable space group: I M M 2
;
_chemical_formula_sum "Si O2"
_cell_formula_units_Z 64
_cell_length_a 9.165791
_cell_length_b 13.988517
_cell_length_c 35.035356
_cell_angle_alpha 90.000000
_cell_angle_beta 90.000000
_cell_angle_gamma 90.000000
_cell_volume 4492.087011
_symmetry_space_group_name_H-M "I M M 2"
_symmetry_group_IT_number 44
_symmetry_cell_setting 'orthorhombic'
loop_
_space_group_symop_operation_xyz
x,y,z
-x,-y,z
-x,y,z
x,-y,z
1/2+x,1/2+y,1/2+z
1/2-x,1/2-y,1/2+z
1/2-x,1/2+y,1/2+z
1/2+x,1/2-y,1/2+z
loop_
_atom_site_type_symbol
_atom_site_label
_atom_site_fract_x
_atom_site_fract_y
_atom_site_fract_z
Si Si1 0.331670 0.616393 0.457130
Si Si2 0.825144 0.612983 0.379107
Si Si3 0.174739 0.609490 0.762844
Si Si4 0.667896 0.116225 0.033735
Si Si5 0.174386 0.285331 0.683388
Si Si6 0.325094 0.111068 0.722668
Si Si7 0.825100 0.283619 0.301346
Si Si8 0.326412 0.385825 0.612218
O O1 0.500000 0.646273 0.458478
O O2 0.329223 0.500000 0.457633
O O3 0.254812 0.644804 0.417677
O O4 0.244956 0.648614 0.494731
O O5 0.795310 0.500000 0.373128
O O6 0.779993 0.670969 0.341551
O O7 0.000000 0.622345 0.383981
O O8 0.221884 0.500000 0.767507
O O9 0.206109 0.646555 0.719918
O O10 0.250710 0.683450 0.791298
O O11 0.000000 0.614198 0.767753
O O12 0.500000 0.147677 0.035846
O O13 0.757249 0.142621 0.071546
O O14 0.667212 0.000000 0.032688
O O15 0.240246 0.182644 0.694836
O O16 0.249750 0.329229 0.646291
O O17 0.000000 0.280527 0.678627
O O18 0.500000 0.122070 0.717331
O O19 0.291739 0.145376 0.765956
O O20 0.288036 0.000000 0.717643
O O21 0.000000 0.272031 0.302060
O O22 0.500000 0.370282 0.612177
O O23 0.300897 0.500000 0.617261
#
# Coordination Sequence:
#
# PCOD9373611 Si02
#       8
#     8   8   8   8   8   8   8   8
#     4   9  16  25  37  55  80 109 140 171 202 239
#     4   9  16  26  40  58  82 111 140 170 205 245
#     4   9  18  31  44  58  80 110 140 172 212 253
#     4   9  16  26  40  57  79 109 141 170 204 246
#     4  10  19  30  44  62  84 110 142 177 211 251
#     4   9  17  30  46  62  83 111 141 175 215 254
#     4   9  17  28  43  63  83 106 140 177 210 247
#     4  10  19  29  42  61  85 112 142 176 211 248
#
# _framework density 14.247274000000001
#
# number of rings (size 3 to 8) (size 9 to 14) (size 15 to 20)
#    0.000    2.750    0.000    2.250    0.000    7.250 
#    0.000    0.000    0.000    2.250    0.000    0.000 
#    0.000    1.000    0.000    7.250    0.000    6.000 
#
# Total GULP energy -178321.314639 kJ/mol
# GULP energy per Si atom -5572.541082 kJ/mol
# Density = 1.421485 g / cm^3
# Si number density = 14.247274 Si / 1000 Ang^3
#
#
#
# Elastic Constant Matrix: (Units=GPa)
#
#
# Indices 1 2 3 4 5 6 
#
# 1 69.4820 45.9792 72.1488 0.0000 0.0000 0.0000
# 2 45.9792 80.0584 58.9062 0.0000 0.0000 0.0000
# 3 72.1488 58.9062 146.4017 0.0000 0.0000 0.0000
# 4 0.0000 0.0000 0.0000 19.9429 0.0000 0.0000
# 5 0.0000 0.0000 0.0000 0.0000 26.3526 0.0000
# 6 0.0000 0.0000 0.0000 0.0000 0.0000 18.6518
#
#
#
# Elastic Compliance Matrix: (Units=1/GPa)
#
#
# Indices 1 2 3 4 5 6 
#
# 1 0.034688 -0.010432 -0.012897 0.000000 0.000000 0.000000
# 2 -0.010432 0.020882 -0.003261 0.000000 0.000000 0.000000
# 3 -0.012897 -0.003261 0.014498 0.000000 0.000000 0.000000
# 4 0.000000 0.000000 0.000000 0.050143 0.000000 0.000000
# 5 0.000000 0.000000 0.000000 0.000000 0.037947 0.000000
# 6 0.000000 0.000000 0.000000 0.000000 0.000000 0.053614
#
#
# Mechanical properties :
#
#
# Convention : Reuss Voigt Hill
#
# Bulk Modulus (GPa) = 59.21545 72.22337 65.71941
# Shear Modulus (GPa) = 18.47870 20.91664 19.69767
#
# Velocity S-wave (km/s) = 3.60529 3.83576 3.72231
# Velocity P-wave (km/s) = 7.68009 8.39167 8.04375
#
# Compressibility (1/GPa) = 0.01688748
#
# Stress axis : x y z
#
# Youngs Moduli (GPa) = 28.82852 47.88897 68.97331
#
# Poissons Ratio (x) = 0.49960 0.88955
# Poissons Ratio (y) = 0.30075 0.22490
# Poissons Ratio (z) = 0.37180 0.15615
#
# Static dielectric constant tensor:
#      x y z
#    x 1.475300 0.000000 0.000000 
#    y 0.000000 1.441110 0.000000 
#    z 0.000000 0.000000 1.457940 
# 
# From -- ./inp_files/27282.got.cif
#   From: 2010.05.17/outbox.cif.g08.bks.cpg/sg44_14_cif.got.tgz:27282.got - 2010.06.03 19:37:08.
