data_PCOD9373692
_publ_section_title
;
Structure prediction by ZEFSAII (Michael W. Deem and Ramdas Pophale) SiO2 
 PCOD9373692
Probable space group: I M M 2
;
_chemical_formula_sum "Si O2"
_cell_formula_units_Z 64
_cell_length_a 8.517648
_cell_length_b 28.589673
_cell_length_c 15.219215
_cell_angle_alpha 90.000000
_cell_angle_beta 90.000000
_cell_angle_gamma 90.000000
_cell_volume 3706.134095
_symmetry_space_group_name_H-M "I M M 2"
_symmetry_group_IT_number 44
_symmetry_cell_setting 'orthorhombic'
loop_
_space_group_symop_operation_xyz
x,y,z
-x,-y,z
-x,y,z
x,-y,z
1/2+x,1/2+y,1/2+z
1/2-x,1/2-y,1/2+z
1/2-x,1/2+y,1/2+z
1/2+x,1/2-y,1/2+z
loop_
_atom_site_type_symbol
_atom_site_label
_atom_site_fract_x
_atom_site_fract_y
_atom_site_fract_z
Si Si1 0.688602 0.719233 0.857840
Si Si2 0.188191 0.282898 0.663494
Si Si3 0.312729 0.635035 0.541741
Si Si4 0.689274 0.946254 0.163550
Si Si5 0.810584 0.865200 0.485094
Si Si6 0.190922 0.825236 0.664776
Si Si7 0.189275 0.446101 0.862315
Si Si8 0.809792 0.176500 0.862522
O O1 0.500000 0.720348 0.853037
O O2 0.757359 0.706293 0.762575
O O3 0.735953 0.680576 0.928949
O O4 0.749801 0.770970 0.880124
O O5 0.261527 0.319306 0.596361
O O6 0.234144 0.228903 0.646263
O O7 0.000000 0.286062 0.658567
O O8 0.500000 0.632157 0.541651
O O9 0.247684 0.589932 0.591614
O O10 0.258584 0.642849 0.441359
O O11 0.500000 0.945522 0.163743
O O12 0.740820 0.932899 0.262883
O O13 0.738806 0.000000 0.147744
O O14 0.754938 0.857756 0.585108
O O15 0.751159 0.910603 0.434556
O O16 0.000000 0.866580 0.485897
O O17 0.242786 0.836839 0.763889
O O18 0.000000 0.826424 0.665185
O O19 0.237199 0.500000 0.877510
O O20 0.000000 0.444816 0.862936
O O21 0.000000 0.178106 0.861955
#
# Coordination Sequence:
#
# PCOD9373692 Si02
#       8
#     8   8   8   8   8   8   8   8
#     4  10  19  30  46  73 104 128 159 204 244 283
#     4  10  19  32  49  68  97 137 169 195 238 291
#     4  11  21  31  48  75 101 126 163 207 245 285
#     4   9  19  36  55  73  95 126 160 192 238 303
#     4  10  19  30  48  72  95 122 158 197 236 279
#     4   8  16  32  49  65  91 129 167 197 228 273
#     4   9  19  35  52  71  96 123 151 187 235 292
#     4   9  19  34  49  67  97 136 169 198 238 287
#
# _framework density 17.268668999999999
#
# number of rings (size 3 to 8) (size 9 to 14) (size 15 to 20)
#    0.000    2.500    0.000    4.125    0.000    6.000 
#    0.000    4.375    0.000    0.750    0.000    5.250 
#    0.000    0.000    0.000    0.000    0.000    0.000 
#
# Total GULP energy -178505.259638 kJ/mol
# GULP energy per Si atom -5578.289364 kJ/mol
# Density = 1.722937 g / cm^3
# Si number density = 17.268669 Si / 1000 Ang^3
#
#
#
# Elastic Constant Matrix: (Units=GPa)
#
#
# Indices 1 2 3 4 5 6 
#
# 1 9.5288 18.0948 20.7685 0.0000 0.0000 0.0000
# 2 18.0948 94.1640 104.0887 0.0001 0.0000 0.0000
# 3 20.7685 104.0887 148.6080 0.0003 0.0000 0.0000
# 4 0.0000 0.0001 0.0003 31.1151 0.0000 0.0000
# 5 0.0000 0.0000 0.0000 0.0000 19.8200 0.0000
# 6 0.0000 0.0000 0.0000 0.0000 0.0000 25.8542
#
#
#
# Elastic Compliance Matrix: (Units=1/GPa)
#
#
# Indices 1 2 3 4 5 6 
#
# 1 0.165723 -0.027660 -0.003787 0.000000 0.000000 0.000000
# 2 -0.027660 0.051658 -0.032317 0.000000 0.000000 0.000000
# 3 -0.003787 -0.032317 0.029894 0.000000 0.000000 0.000000
# 4 0.000000 0.000000 0.000000 0.032139 0.000000 0.000000
# 5 0.000000 0.000000 0.000000 0.000000 0.050454 0.000000
# 6 0.000000 0.000000 0.000000 0.000000 0.000000 0.038678
#
#
# Mechanical properties :
#
#
# Convention : Reuss Voigt Hill
#
# Bulk Modulus (GPa) = 8.35091 59.80054 34.07572
# Shear Modulus (GPa) = 9.32853 22.64776 15.98814
#
# Velocity S-wave (km/s) = 2.32674 3.62538 3.04607
# Velocity P-wave (km/s) = 3.47342 7.22698 5.66983
#
# Compressibility (1/GPa) = 0.11974748
#
# Stress axis : x y z
#
# Youngs Moduli (GPa) = 6.03418 19.35793 33.45136
#
# Poissons Ratio (x) = 0.53544 0.12667
# Poissons Ratio (y) = 0.16690 1.08106
# Poissons Ratio (z) = 0.02285 0.62560
#
# Static dielectric constant tensor:
#      x y z
#    x 1.590580 0.000000 0.000000 
#    y 0.000000 1.562620 0.000000 
#    z 0.000000 0.000000 1.608040 
# 
# From -- ./inp_files/17138.got.cif
#   From: 2010.05.17/outbox.cif.g08.bks.cpg/sg44_9_cif.got.tgz:17138.got - 2010.06.03 19:37:08.
