data_PCOD9373032
_publ_section_title
;
Structure prediction by ZEFSAII (Michael W. Deem and Ramdas Pophale) SiO2 
 PCOD9373032
Probable space group: I M M 2
;
_chemical_formula_sum "Si O2"
_cell_formula_units_Z 64
_cell_length_a 7.328677
_cell_length_b 15.104311
_cell_length_c 28.949018
_cell_angle_alpha 90.000000
_cell_angle_beta 90.000000
_cell_angle_gamma 90.000000
_cell_volume 3204.500449
_symmetry_space_group_name_H-M "I M M 2"
_symmetry_group_IT_number 44
_symmetry_cell_setting 'orthorhombic'
loop_
_space_group_symop_operation_xyz
x,y,z
-x,-y,z
-x,y,z
x,-y,z
1/2+x,1/2+y,1/2+z
1/2-x,1/2-y,1/2+z
1/2-x,1/2+y,1/2+z
1/2+x,1/2-y,1/2+z
loop_
_atom_site_type_symbol
_atom_site_label
_atom_site_fract_x
_atom_site_fract_y
_atom_site_fract_z
Si Si1 0.222506 0.099586 0.004990
Si Si2 0.777494 0.900414 0.111657
Si Si3 0.277241 0.899014 0.376018
Si Si4 0.209138 0.232317 0.188031
Si Si5 0.290862 0.732318 0.428616
Si Si6 0.720294 0.898327 0.270790
Si Si7 0.722759 0.100986 0.740629
Si Si8 0.279706 0.101673 0.845857
O O1 0.274085 0.113852 0.058324
O O2 0.000000 0.099483 0.003353
O O3 0.279609 0.000000 0.991189
O O4 0.289522 0.174686 0.970212
O O5 0.710478 0.825314 0.146435
O O6 0.000000 0.900516 0.113294
O O7 0.720392 0.000000 0.125458
O O8 0.500000 0.897126 0.376034
O O9 0.211048 0.825295 0.411669
O O10 0.222556 0.877105 0.323281
O O11 0.223072 0.000000 0.385936
O O12 0.209505 0.168978 0.232830
O O13 0.288952 0.325295 0.204978
O O14 0.000000 0.250949 0.174668
O O15 0.500000 0.750949 0.441980
O O16 0.290497 0.668978 0.383817
O O17 0.500000 0.895084 0.269430
O O18 0.774467 0.000000 0.260919
O O19 0.500000 0.102874 0.740613
O O20 0.777443 0.122895 0.793366
O O21 0.776928 0.000000 0.730711
O O22 0.500000 0.104917 0.847218
O O23 0.225533 0.000000 0.855729
#
# Coordination Sequence:
#
# PCOD9373032 Si02
#       8
#     8   8   8   8   8   8   8   8
#     4   8  14  24  37  56  82 104 122 155 204 244
#     4   8  14  24  37  56  82 104 122 155 204 244
#     4   8  15  27  40  56  81 110 134 158 196 240
#     4  10  17  25  43  64  77  99 139 174 191 220
#     4  10  17  25  43  64  77  99 139 174 191 220
#     4   9  17  28  40  56  83 113 131 151 196 248
#     4   8  15  27  40  56  81 110 134 158 196 240
#     4   9  17  28  40  56  83 113 131 151 196 248
#
# _framework density 19.971913000000001
#
# number of rings (size 3 to 8) (size 9 to 14) (size 15 to 20)
#    0.000    3.250    0.000    3.750    0.000    1.500 
#    0.000    0.000    0.000    3.750    0.000    8.750 
#    0.000    0.000    0.000    2.250    0.000    2.750 
#
# Total GULP energy -178576.941086 kJ/mol
# GULP energy per Si atom -5580.529409 kJ/mol
# Density = 1.992646 g / cm^3
# Si number density = 19.971913 Si / 1000 Ang^3
#
#
#
# Elastic Constant Matrix: (Units=GPa)
#
#
# Indices 1 2 3 4 5 6 
#
# 1 77.1854 -3.3010 -1.4231 0.0000 0.0000 0.0000
# 2 -3.3010 118.6536 90.8699 0.0000 0.0000 0.0000
# 3 -1.4231 90.8699 102.9035 0.0000 0.0000 0.0000
# 4 0.0000 0.0000 0.0000 40.4053 0.0000 0.0000
# 5 0.0000 0.0000 0.0000 0.0000 4.4501 0.0000
# 6 0.0000 0.0000 0.0000 0.0000 0.0000 -0.7318
#
#
#
# Elastic Compliance Matrix: (Units=1/GPa)
#
#
# Indices 1 2 3 4 5 6 
#
# 1 0.012977 0.000691 -0.000430 0.000000 0.000000 0.000000
# 2 0.000691 0.026072 -0.023013 0.000000 0.000000 0.000000
# 3 -0.000430 -0.023013 0.030034 0.000000 0.000000 0.000000
# 4 0.000000 0.000000 0.000000 0.024749 0.000000 0.000000
# 5 0.000000 0.000000 0.000000 0.000000 0.224713 0.000000
# 6 0.000000 0.000000 0.000000 0.000000 0.000000 -1.366511
#
#
# Mechanical properties :
#
#
# Convention : Reuss Voigt Hill
#
# Bulk Modulus (GPa) = 42.41422 52.33713 47.37568
# Shear Modulus (GPa) = -5.02715 22.99783 8.98534
#
# Velocity S-wave (km/s) = -1.58826 3.39707 2.12338
# Velocity P-wave (km/s) = 4.23316 6.45361 5.45750
#
# Compressibility (1/GPa) = 0.02357700
#
# Stress axis : x y z
#
# Youngs Moduli (GPa) = 77.05689 38.35595 33.29571
#
# Poissons Ratio (x) = -0.02649 0.01433
# Poissons Ratio (y) = -0.05322 0.76624
# Poissons Ratio (z) = 0.03317 0.88269
#
# Static dielectric constant tensor:
#      x y z
#    x 1.807860 0.000000 0.000000 
#    y 0.000000 1.704110 0.000000 
#    z 0.000000 0.000000 1.673910 
# 
# From -- ./inp_files/7713.got.cif
#   From: 2010.05.17/outbox.cif.g08.bks.cpg/sg44_4_cif.got.tgz:7713.got - 2010.06.03 19:37:08.
