data_PCOD9373068
_publ_section_title
;
Structure prediction by ZEFSAII (Michael W. Deem and Ramdas Pophale) SiO2 
 PCOD9373068
Probable space group: I M M 2
;
_chemical_formula_sum "Si O2"
_cell_formula_units_Z 64
_cell_length_a 7.634959
_cell_length_b 24.291839
_cell_length_c 19.732882
_cell_angle_alpha 90.000000
_cell_angle_beta 90.000000
_cell_angle_gamma 90.000000
_cell_volume 3659.802270
_symmetry_space_group_name_H-M "I M M 2"
_symmetry_group_IT_number 44
_symmetry_cell_setting 'orthorhombic'
loop_
_space_group_symop_operation_xyz
x,y,z
-x,-y,z
-x,y,z
x,-y,z
1/2+x,1/2+y,1/2+z
1/2-x,1/2-y,1/2+z
1/2-x,1/2+y,1/2+z
1/2+x,1/2-y,1/2+z
loop_
_atom_site_type_symbol
_atom_site_label
_atom_site_fract_x
_atom_site_fract_y
_atom_site_fract_z
Si Si1 0.285356 0.437955 0.704020
Si Si2 0.785564 0.937219 0.492786
Si Si3 0.704305 0.393654 0.847503
Si Si4 0.285306 0.665250 0.618872
Si Si5 0.207204 0.833498 0.576939
Si Si6 0.790943 0.729244 0.206251
Si Si7 0.205754 0.733163 0.850984
Si Si8 0.797560 0.773275 0.991901
O O1 0.500000 0.436437 0.705032
O O2 0.231907 0.500000 0.688855
O O3 0.222716 0.419920 0.778807
O O4 0.229279 0.392574 0.649585
O O5 0.724498 0.915414 0.419044
O O6 0.731835 0.892354 0.548920
O O7 0.000000 0.937422 0.492564
O O8 0.729051 0.000000 0.504126
O O9 0.500000 0.409309 0.848525
O O10 0.715143 0.327666 0.842577
O O11 0.500000 0.666256 0.617805
O O12 0.230208 0.714357 0.669481
O O13 0.222007 0.682161 0.544190
O O14 0.238057 0.819779 0.655725
O O15 0.291919 0.784341 0.533162
O O16 0.000000 0.829495 0.563952
O O17 0.727258 0.731469 0.283085
O O18 0.000000 0.730653 0.208208
O O19 0.000000 0.723524 0.862583
O O20 0.280644 0.762227 0.918153
O O21 0.000000 0.788977 0.981209
#
# Coordination Sequence:
#
# PCOD9373068 Si02
#       8
#     8   8   8   8   8   8   8   8
#     4   9  15  23  41  67  89 113 152 190 216 258
#     4   9  17  28  44  67  95 127 161 194 227 269
#     4  10  17  28  43  64  93 125 158 187 221 264
#     4   8  14  26  42  61  84 112 143 177 223 267
#     4  10  18  29  47  70  92 117 155 197 232 272
#     4  10  19  32  48  64  89 121 151 188 239 287
#     4  11  20  29  44  67  92 121 157 192 231 273
#     4   9  18  30  44  62  91 124 150 186 234 278
#
# _framework density 17.487282
#
# number of rings (size 3 to 8) (size 9 to 14) (size 15 to 20)
#    0.000    2.500    2.500    2.250    0.000    2.000 
#    0.000    0.000    0.000    4.500    0.000    0.875 
#    0.000    5.000    0.000    0.000    0.000    0.000 
#
# Total GULP energy -178427.010784 kJ/mol
# GULP energy per Si atom -5575.844087 kJ/mol
# Density = 1.744748 g / cm^3
# Si number density = 17.487282 Si / 1000 Ang^3
#
#
#
# Elastic Constant Matrix: (Units=GPa)
#
#
# Indices 1 2 3 4 5 6 
#
# 1 32.6014 -4.9810 -9.7408 0.0000 0.0000 0.0000
# 2 -4.9810 122.9529 77.7661 0.0000 0.0000 0.0000
# 3 -9.7408 77.7661 129.1245 0.0000 0.0000 0.0000
# 4 0.0000 0.0000 0.0000 20.2930 0.0000 0.0000
# 5 0.0000 0.0000 0.0000 0.0000 8.0528 0.0000
# 6 0.0000 0.0000 0.0000 0.0000 0.0000 10.3640
#
#
#
# Elastic Compliance Matrix: (Units=1/GPa)
#
#
# Indices 1 2 3 4 5 6 
#
# 1 0.031391 -0.000365 0.002588 0.000000 0.000000 0.000000
# 2 -0.000365 0.013142 -0.007942 0.000000 0.000000 0.000000
# 3 0.002588 -0.007942 0.012723 0.000000 0.000000 0.000000
# 4 0.000000 0.000000 0.000000 0.049278 0.000000 0.000000
# 5 0.000000 0.000000 0.000000 0.000000 0.124180 0.000000
# 6 0.000000 0.000000 0.000000 0.000000 0.000000 0.096488
#
#
# Mechanical properties :
#
#
# Convention : Reuss Voigt Hill
#
# Bulk Modulus (GPa) = 21.82603 45.64081 33.73342
# Shear Modulus (GPa) = 14.12775 22.51759 18.32267
#
# Velocity S-wave (km/s) = 2.84542 3.59228 3.24044
# Velocity P-wave (km/s) = 4.82736 6.58499 5.77345
#
# Compressibility (1/GPa) = 0.04581686
#
# Stress axis : x y z
#
# Youngs Moduli (GPa) = 31.85624 76.09316 78.59792
#
# Poissons Ratio (x) = 0.02779 -0.20341
# Poissons Ratio (y) = 0.01163 0.62425
# Poissons Ratio (z) = -0.08244 0.60435
#
# Static dielectric constant tensor:
#      x y z
#    x 1.675980 0.000000 0.000000 
#    y 0.000000 1.571720 0.000000 
#    z 0.000000 0.000000 1.616720 
# 
# From -- ./inp_files/20852.got.cif
#   From: 2010.05.17/outbox.cif.g08.bks.cpg/sg44_11_cif.got.tgz:20852.got - 2010.06.03 19:37:08.
