data_PCOD9373504
_publ_section_title
;
Structure prediction by ZEFSAII (Michael W. Deem and Ramdas Pophale) SiO2 
 PCOD9373504
Probable space group: I M M 2
;
_chemical_formula_sum "Si O2"
_cell_formula_units_Z 36
_cell_length_a 13.661857
_cell_length_b 15.586412
_cell_length_c 7.667840
_cell_angle_alpha 90.000000
_cell_angle_beta 90.000000
_cell_angle_gamma 90.000000
_cell_volume 1632.784727
_symmetry_space_group_name_H-M "I M M 2"
_symmetry_group_IT_number 44
_symmetry_cell_setting 'orthorhombic'
loop_
_space_group_symop_operation_xyz
x,y,z
-x,-y,z
-x,y,z
x,-y,z
1/2+x,1/2+y,1/2+z
1/2-x,1/2-y,1/2+z
1/2-x,1/2+y,1/2+z
1/2+x,1/2-y,1/2+z
loop_
_atom_site_type_symbol
_atom_site_label
_atom_site_fract_x
_atom_site_fract_y
_atom_site_fract_z
Si Si1 0.310278 0.000000 0.400230
Si Si2 0.618046 0.183515 0.427821
Si Si3 0.881909 0.187966 0.636519
Si Si4 0.884791 0.000000 0.530304
Si Si5 0.381240 0.000000 0.804141
Si Si6 0.119287 0.687488 0.330864
O O1 0.351708 0.908007 0.345161
O O2 0.339525 0.000000 0.607368
O O3 0.193560 0.000000 0.375113
O O4 0.500000 0.182802 0.432784
O O5 0.651371 0.261033 0.305885
O O6 0.650732 0.194426 0.628634
O O7 0.849788 0.237501 0.461548
O O8 0.000000 0.193473 0.637213
O O9 0.861113 0.087330 0.632091
O O10 0.000000 0.000000 0.483505
O O11 0.353429 0.909355 0.889818
O O12 0.500000 0.000000 0.787601
O O13 0.000000 0.690394 0.329327
#
# Coordination Sequence:
#
# PCOD9373504 Si02
#       6
#     4   8   8   4   4   8
#     4  10  18  33  53  83 113 144 180 230 286 332
#     4   9  17  32  57  87 113 138 176 231 292 339
#     4   9  18  34  55  76 106 150 191 227 269 324
#     4  10  22  40  55  74 114 161 197 228 265 321
#     4   8  14  27  50  81 113 137 167 222 293 343
#     4   8  14  27  50  80 111 142 174 217 277 337
#
# _framework density 22.048220000000001
#
# number of rings (size 3 to 8) (size 9 to 14) (size 15 to 20)
#    0.000    3.111    0.000    2.333    0.000    0.889 
#    8.000    4.444    0.000   12.000    0.000    0.000 
#    0.000    0.000    0.000    0.000    0.000    0.000 
#
# Total GULP energy -100441.054373 kJ/mol
# GULP energy per Si atom -5580.058576 kJ/mol
# Density = 2.199804 g / cm^3
# Si number density = 22.048220 Si / 1000 Ang^3
#
#
#
# Elastic Constant Matrix: (Units=GPa)
#
#
# Indices 1 2 3 4 5 6 
#
# 1 83.4842 23.3467 15.5759 0.0000 0.0000 0.0000
# 2 23.3467 222.4947 88.4975 0.0000 0.0000 0.0000
# 3 15.5759 88.4975 92.4870 0.0000 0.0000 0.0000
# 4 0.0000 0.0000 0.0000 11.2221 0.0000 0.0000
# 5 0.0000 0.0000 0.0000 0.0000 22.7080 0.0000
# 6 0.0000 0.0000 0.0000 0.0000 0.0000 13.7963
#
#
#
# Elastic Compliance Matrix: (Units=1/GPa)
#
#
# Indices 1 2 3 4 5 6 
#
# 1 0.012447 -0.000762 -0.001367 0.000000 0.000000 0.000000
# 2 -0.000762 0.007303 -0.006859 0.000000 0.000000 0.000000
# 3 -0.001367 -0.006859 0.017606 0.000000 0.000000 0.000000
# 4 0.000000 0.000000 0.000000 0.089110 0.000000 0.000000
# 5 0.000000 0.000000 0.000000 0.000000 0.044037 0.000000
# 6 0.000000 0.000000 0.000000 0.000000 0.000000 0.072483
#
#
# Mechanical properties :
#
#
# Convention : Reuss Voigt Hill
#
# Bulk Modulus (GPa) = 51.60370 72.58958 62.09664
# Shear Modulus (GPa) = 18.69702 27.61500 23.15601
#
# Velocity S-wave (km/s) = 2.91521 3.54288 3.24426
# Velocity P-wave (km/s) = 5.89805 7.05199 6.50068
#
# Compressibility (1/GPa) = 0.01937846
#
# Stress axis : x y z
#
# Youngs Moduli (GPa) = 80.34387 136.93316 56.79888
#
# Poissons Ratio (x) = 0.10441 0.07762
# Poissons Ratio (y) = 0.06126 0.38961
# Poissons Ratio (z) = 0.10979 0.93928
#
# Static dielectric constant tensor:
#      x y z
#    x 1.862080 0.000000 0.000000 
#    y 0.000000 1.816430 0.000000 
#    z 0.000000 0.000000 1.777970 
# 
# From -- ./inp_files/6772.got.cif
#   From: 2010.05.17/outbox.cif.g08.bks.cpg/sg44_4_cif.got.tgz:6772.got - 2010.06.03 19:37:08.
