data_PCOD9373179
_publ_section_title
;
Structure prediction by ZEFSAII (Michael W. Deem and Ramdas Pophale) SiO2 
 PCOD9373179
Probable space group: I M M 2
;
_chemical_formula_sum "Si O2"
_cell_formula_units_Z 64
_cell_length_a 26.963908
_cell_length_b 8.691467
_cell_length_c 18.806460
_cell_angle_alpha 90.000000
_cell_angle_beta 90.000000
_cell_angle_gamma 90.000000
_cell_volume 4407.405171
_symmetry_space_group_name_H-M "I M M 2"
_symmetry_group_IT_number 44
_symmetry_cell_setting 'orthorhombic'
loop_
_space_group_symop_operation_xyz
x,y,z
-x,-y,z
-x,y,z
x,-y,z
1/2+x,1/2+y,1/2+z
1/2-x,1/2-y,1/2+z
1/2-x,1/2+y,1/2+z
1/2+x,1/2-y,1/2+z
loop_
_atom_site_type_symbol
_atom_site_label
_atom_site_fract_x
_atom_site_fract_y
_atom_site_fract_z
Si Si1 0.646599 0.182991 0.904260
Si Si2 0.741197 0.315777 0.157464
Si Si3 0.557083 0.184805 0.146845
Si Si4 0.852026 0.315517 0.744524
Si Si5 0.702082 0.683709 0.779850
Si Si6 0.759819 0.815797 0.490650
Si Si7 0.296109 0.683605 0.367599
Si Si8 0.558025 0.316714 0.991810
O O1 0.656459 0.254188 0.826285
O O2 0.594673 0.233392 0.937767
O O3 0.651150 0.000000 0.900556
O O4 0.690046 0.247047 0.956135
O O5 0.739398 0.500000 0.166754
O O6 0.691748 0.244126 0.192596
O O7 0.787821 0.249323 0.201488
O O8 0.742945 0.280246 0.074029
O O9 0.500000 0.223896 0.164107
O O10 0.596028 0.226070 0.207893
O O11 0.559934 0.000000 0.136499
O O12 0.570183 0.264320 0.072220
O O13 0.848195 0.500000 0.750016
O O14 0.842571 0.242397 0.821892
O O15 0.702537 0.500000 0.779291
O O16 0.749488 0.747139 0.823828
O O17 0.713683 0.747446 0.446266
O O18 0.761114 0.000000 0.481446
O O19 0.293845 0.500000 0.367040
O O20 0.500000 0.279202 0.979935
O O21 0.564388 0.500000 0.985977
#
# Coordination Sequence:
#
# PCOD9373179 Si02
#       8
#     8   8   8   8   8   8   8   8
#     4  11  20  30  45  62  84 113 145 177 210 250
#     4  10  19  29  42  61  85 111 140 173 207 247
#     4   9  18  31  45  62  84 111 144 180 215 250
#     4  10  18  28  43  60  82 112 143 174 209 249
#     4  10  18  29  44  60  82 109 139 173 208 248
#     4  10  19  30  44  62  86 113 142 175 210 250
#     4  10  18  28  42  59  82 109 140 175 208 247
#     4  10  20  32  45  62  85 112 143 179 215 249
#
# _framework density 14.521015
#
# number of rings (size 3 to 8) (size 9 to 14) (size 15 to 20)
#    0.000    2.000    0.000    8.625    0.000    5.750 
#    0.000    0.000    0.000    0.000    0.000    0.000 
#    0.000    1.000    0.000    8.250    0.000    3.875 
#
# Total GULP energy -178451.029997 kJ/mol
# GULP energy per Si atom -5576.594687 kJ/mol
# Density = 1.448796 g / cm^3
# Si number density = 14.521015 Si / 1000 Ang^3
#
#
#
# Elastic Constant Matrix: (Units=GPa)
#
#
# Indices 1 2 3 4 5 6 
#
# 1 54.3144 27.9928 37.0158 0.0000 0.0000 0.0000
# 2 27.9928 83.1152 44.1450 0.0000 0.0000 0.0000
# 3 37.0158 44.1450 86.2637 0.0000 0.0000 0.0000
# 4 0.0000 0.0000 0.0000 24.1944 0.0000 0.0000
# 5 0.0000 0.0000 0.0000 0.0000 29.1463 0.0000
# 6 0.0000 0.0000 0.0000 0.0000 0.0000 20.0884
#
#
#
# Elastic Compliance Matrix: (Units=1/GPa)
#
#
# Indices 1 2 3 4 5 6 
#
# 1 0.026970 -0.004033 -0.009509 0.000000 0.000000 0.000000
# 2 -0.004033 0.017125 -0.007033 0.000000 0.000000 0.000000
# 3 -0.009509 -0.007033 0.019272 0.000000 0.000000 0.000000
# 4 0.000000 0.000000 0.000000 0.041332 0.000000 0.000000
# 5 0.000000 0.000000 0.000000 0.000000 0.034310 0.000000
# 6 0.000000 0.000000 0.000000 0.000000 0.000000 0.049780
#
#
# Mechanical properties :
#
#
# Convention : Reuss Voigt Hill
#
# Bulk Modulus (GPa) = 45.01054 49.11117 47.06085
# Shear Modulus (GPa) = 21.06630 22.32180 21.69405
#
# Velocity S-wave (km/s) = 3.81300 3.92498 3.86939
# Velocity P-wave (km/s) = 7.10277 7.37799 7.24169
#
# Compressibility (1/GPa) = 0.02221702
#
# Stress axis : x y z
#
# Youngs Moduli (GPa) = 37.07761 58.39299 51.88872
#
# Poissons Ratio (x) = 0.23549 0.49342
# Poissons Ratio (y) = 0.14953 0.36495
# Poissons Ratio (z) = 0.35258 0.41069
#
# Static dielectric constant tensor:
#      x y z
#    x 1.481840 0.000000 0.000000 
#    y 0.000000 1.485920 0.000000 
#    z 0.000000 0.000000 1.497910 
# 
# From -- ./inp_files/22352.got.cif
#   From: 2010.05.17/outbox.cif.g08.bks.cpg/sg44_12_cif.got.tgz:22352.got - 2010.06.03 19:37:08.
