data_PCOD9373785
_publ_section_title
;
Structure prediction by ZEFSAII (Michael W. Deem and Ramdas Pophale) SiO2 
 PCOD9373785
Probable space group: I M M 2
;
_chemical_formula_sum "Si O2"
_cell_formula_units_Z 64
_cell_length_a 14.975365
_cell_length_b 8.835268
_cell_length_c 28.838861
_cell_angle_alpha 90.000000
_cell_angle_beta 90.000000
_cell_angle_gamma 90.000000
_cell_volume 3815.709011
_symmetry_space_group_name_H-M "I M M 2"
_symmetry_group_IT_number 44
_symmetry_cell_setting 'orthorhombic'
loop_
_space_group_symop_operation_xyz
x,y,z
-x,-y,z
-x,y,z
x,-y,z
1/2+x,1/2+y,1/2+z
1/2-x,1/2-y,1/2+z
1/2-x,1/2+y,1/2+z
1/2+x,1/2-y,1/2+z
loop_
_atom_site_type_symbol
_atom_site_label
_atom_site_fract_x
_atom_site_fract_y
_atom_site_fract_z
Si Si1 0.852644 0.671560 0.501030
Si Si2 0.709723 0.683280 0.093282
Si Si3 0.604851 0.682224 0.288184
Si Si4 0.708934 0.181499 0.373500
Si Si5 0.397655 0.684188 0.182827
Si Si6 0.147633 0.171577 0.966010
Si Si7 0.903685 0.818001 0.406702
Si Si8 0.596085 0.182070 0.560177
O O1 0.886016 0.500000 0.505090
O O2 0.848270 0.753433 0.550474
O O3 0.750012 0.665253 0.483661
O O4 0.899564 0.760987 0.459660
O O5 0.707559 0.500000 0.091254
O O6 0.668155 0.733480 0.142053
O O7 0.812842 0.732672 0.085529
O O8 0.500000 0.717837 0.296293
O O9 0.613688 0.500000 0.291237
O O10 0.667061 0.758369 0.326193
O O11 0.626411 0.729448 0.235272
O O12 0.651931 0.246074 0.416720
O O13 0.812370 0.232237 0.381400
O O14 0.706757 0.000000 0.374910
O O15 0.500000 0.731518 0.173532
O O16 0.397606 0.500000 0.182746
O O17 0.114330 0.000000 0.961336
O O18 0.100131 0.260202 0.007332
O O19 0.000000 0.769376 0.386678
O O20 0.901353 0.000000 0.406900
O O21 0.500000 0.230148 0.580414
O O22 0.598612 0.000000 0.559844
#
# Coordination Sequence:
#
# PCOD9373785 Si02
#       8
#     8   8   8   8   8   8   8   8
#     4   9  17  28  42  64  93 120 148 185 224 258
#     4   9  16  28  47  67  88 118 153 186 222 266
#     4   9  18  33  51  69  90 117 149 186 230 279
#     4  10  19  31  49  71  93 118 150 190 232 270
#     4   8  15  29  49  70  88 110 145 185 223 268
#     4   9  17  29  44  62  87 120 154 185 218 259
#     4   9  18  32  48  66  91 125 160 187 215 262
#     4   9  17  28  42  63  92 123 153 185 220 259
#
# _framework density 16.772767000000002
#
# number of rings (size 3 to 8) (size 9 to 14) (size 15 to 20)
#    0.000    3.000    0.000    1.875    0.000    5.250 
#    0.000    1.875    0.000    1.500    0.000    1.750 
#    0.000    0.000    0.000    0.000    0.000    0.000 
#
# Total GULP energy -178185.528312 kJ/mol
# GULP energy per Si atom -5568.297760 kJ/mol
# Density = 1.673459 g / cm^3
# Si number density = 16.772767 Si / 1000 Ang^3
#
#
#
# Elastic Constant Matrix: (Units=GPa)
#
#
# Indices 1 2 3 4 5 6 
#
# 1 96.4319 16.6004 71.9855 0.0000 0.0000 0.0000
# 2 16.6004 12.2558 23.3297 0.0000 0.0000 0.0000
# 3 71.9855 23.3297 134.9519 0.0000 0.0000 0.0000
# 4 0.0000 0.0000 0.0000 21.9136 0.0000 0.0000
# 5 0.0000 0.0000 0.0000 0.0000 21.8825 0.0000
# 6 0.0000 0.0000 0.0000 0.0000 0.0000 8.2224
#
#
#
# Elastic Compliance Matrix: (Units=1/GPa)
#
#
# Indices 1 2 3 4 5 6 
#
# 1 0.017878 -0.009036 -0.007975 0.000000 0.000000 0.000000
# 2 -0.009036 0.126182 -0.016993 0.000000 0.000000 0.000000
# 3 -0.007975 -0.016993 0.014602 0.000000 0.000000 0.000000
# 4 0.000000 0.000000 0.000000 0.045634 0.000000 0.000000
# 5 0.000000 0.000000 0.000000 0.000000 0.045699 0.000000
# 6 0.000000 0.000000 0.000000 0.000000 0.000000 0.121618
#
#
# Mechanical properties :
#
#
# Convention : Reuss Voigt Hill
#
# Bulk Modulus (GPa) = 11.03104 51.94120 31.48612
# Shear Modulus (GPa) = 10.64195 19.18532 14.91363
#
# Velocity S-wave (km/s) = 2.52162 3.38574 2.98511
# Velocity P-wave (km/s) = 3.88189 6.80581 5.54023
#
# Compressibility (1/GPa) = 0.09065325
#
# Stress axis : x y z
#
# Youngs Moduli (GPa) = 55.93312 7.92508 68.48602
#
# Poissons Ratio (x) = 0.07161 0.54614
# Poissons Ratio (y) = 0.50543 1.16381
# Poissons Ratio (z) = 0.44604 0.13467
#
# Static dielectric constant tensor:
#      x y z
#    x 1.612540 0.000000 0.000000 
#    y 0.000000 1.572030 0.000000 
#    z 0.000000 0.000000 1.537260 
# 
# From -- ./inp_files/27362.got.cif
#   From: 2010.05.17/outbox.cif.g08.bks.cpg/sg44_14_cif.got.tgz:27362.got - 2010.06.03 19:37:08.
