data_PCOD9373928
_publ_section_title
;
Structure prediction by ZEFSAII (Michael W. Deem and Ramdas Pophale) SiO2 
 PCOD9373928
Probable space group: I M M 2
;
_chemical_formula_sum "Si O2"
_cell_formula_units_Z 56
_cell_length_a 14.888524
_cell_length_b 7.601855
_cell_length_c 23.395155
_cell_angle_alpha 90.000000
_cell_angle_beta 90.000000
_cell_angle_gamma 90.000000
_cell_volume 2647.873015
_symmetry_space_group_name_H-M "I M M 2"
_symmetry_group_IT_number 44
_symmetry_cell_setting 'orthorhombic'
loop_
_space_group_symop_operation_xyz
x,y,z
-x,-y,z
-x,y,z
x,-y,z
1/2+x,1/2+y,1/2+z
1/2-x,1/2-y,1/2+z
1/2-x,1/2+y,1/2+z
1/2+x,1/2-y,1/2+z
loop_
_atom_site_type_symbol
_atom_site_label
_atom_site_fract_x
_atom_site_fract_y
_atom_site_fract_z
Si Si1 0.601299 0.788326 0.195910
Si Si2 0.213397 0.707471 0.242325
Si Si3 0.102815 0.713882 0.135178
Si Si4 0.601472 0.215497 0.504904
Si Si5 0.718374 0.294210 0.956554
Si Si6 0.396121 0.787615 0.066308
Si Si7 0.601076 0.707472 0.853603
O O1 0.500000 0.727161 0.209534
O O2 0.680363 0.738507 0.238679
O O3 0.624335 0.727536 0.131104
O O4 0.598232 0.000000 0.193823
O O5 0.197942 0.500000 0.242568
O O6 0.169443 0.779896 0.183817
O O7 0.161089 0.776617 0.297126
O O8 0.107000 0.500000 0.134144
O O9 0.121017 0.771475 0.070361
O O10 0.000000 0.761442 0.149566
O O11 0.500000 0.269290 0.490233
O O12 0.681671 0.279528 0.464884
O O13 0.602238 0.000000 0.504913
O O14 0.730394 0.500000 0.942521
O O15 0.655482 0.215349 0.907426
O O16 0.668322 0.282386 0.017366
O O17 0.500000 0.739440 0.054338
O O18 0.390665 0.000000 0.065400
O O19 0.500000 0.780130 0.846533
O O20 0.590846 0.500000 0.864975
#
# Coordination Sequence:
#
# PCOD9373928 Si02
#       7
#     8   8   8   8   8   8   8
#     4   9  19  36  55  76 106 141 172 206 257 322
#     4  11  21  33  53  78 102 132 174 223 267 306
#     4   8  14  25  43  71 104 130 154 195 255 313
#     4   8  14  26  46  73 102 127 155 199 253 305
#     4  10  19  32  52  76 102 136 180 224 259 296
#     4   9  18  32  51  77 108 139 169 206 258 316
#     4  10  22  38  52  70 102 141 177 216 265 320
#
# _framework density 21.149051
#
# number of rings (size 3 to 8) (size 9 to 14) (size 15 to 20)
#    0.000    2.714    0.000    3.857    0.000    4.286 
#    0.000    2.143    0.000    3.000    0.000    4.000 
#    0.000    0.000    0.000    0.000    0.000    0.000 
#
# Total GULP energy -156277.474608 kJ/mol
# GULP energy per Si atom -5581.338379 kJ/mol
# Density = 2.110091 g / cm^3
# Si number density = 21.149051 Si / 1000 Ang^3
#
#
#
# Elastic Constant Matrix: (Units=GPa)
#
#
# Indices 1 2 3 4 5 6 
#
# 1 176.2810 -1.7987 103.6512 0.0000 0.0000 0.0000
# 2 -1.7987 43.4791 1.6081 0.0000 0.0000 0.0000
# 3 103.6512 1.6081 80.9983 0.0000 0.0000 0.0000
# 4 0.0000 0.0000 0.0000 -14.7434 0.0000 0.0000
# 5 0.0000 0.0000 0.0000 0.0000 21.0985 0.0000
# 6 0.0000 0.0000 0.0000 0.0000 0.0000 6.1007
#
#
#
# Elastic Compliance Matrix: (Units=1/GPa)
#
#
# Indices 1 2 3 4 5 6 
#
# 1 0.023095 0.002050 -0.029595 0.000000 0.000000 0.000000
# 2 0.002050 0.023198 -0.003084 0.000000 0.000000 0.000000
# 3 -0.029595 -0.003084 0.050279 0.000000 0.000000 0.000000
# 4 0.000000 0.000000 0.000000 -0.067827 0.000000 0.000000
# 5 0.000000 0.000000 0.000000 0.000000 0.047397 0.000000
# 6 0.000000 0.000000 0.000000 0.000000 0.000000 0.163916
#
#
# Mechanical properties :
#
#
# Convention : Reuss Voigt Hill
#
# Bulk Modulus (GPa) = 28.31667 56.40885 42.36276
# Shear Modulus (GPa) = 15.97000 15.64435 15.80718
#
# Velocity S-wave (km/s) = 2.75092 2.72273 2.73686
# Velocity P-wave (km/s) = 4.84853 6.05097 5.48282
#
# Compressibility (1/GPa) = 0.03531488
#
# Stress axis : x y z
#
# Youngs Moduli (GPa) = 43.29931 43.10642 19.88914
#
# Poissons Ratio (x) = -0.08837 0.58861
# Poissons Ratio (y) = -0.08876 0.06133
# Poissons Ratio (z) = 1.28143 0.13293
#
# Static dielectric constant tensor:
#      x y z
#    x 1.782630 0.000000 0.000000 
#    y 0.000000 1.853540 0.000000 
#    z 0.000000 0.000000 1.737480 
# 
# From -- ./inp_files/23029.got.cif
#   From: 2010.05.17/outbox.cif.g08.bks.cpg/sg44_12_cif.got.tgz:23029.got - 2010.06.03 19:37:08.
