data_PCOD9373458
_publ_section_title
;
Structure prediction by ZEFSAII (Michael W. Deem and Ramdas Pophale) SiO2 
 PCOD9373458
Probable space group: I M M 2
;
_chemical_formula_sum "Si O2"
_cell_formula_units_Z 58
_cell_length_a 7.430903
_cell_length_b 15.971973
_cell_length_c 19.346073
_cell_angle_alpha 90.000000
_cell_angle_beta 90.000000
_cell_angle_gamma 90.000000
_cell_volume 2296.111543
_symmetry_space_group_name_H-M "I M M 2"
_symmetry_group_IT_number 44
_symmetry_cell_setting 'orthorhombic'
loop_
_space_group_symop_operation_xyz
x,y,z
-x,-y,z
-x,y,z
x,-y,z
1/2+x,1/2+y,1/2+z
1/2-x,1/2-y,1/2+z
1/2-x,1/2+y,1/2+z
1/2+x,1/2-y,1/2+z
loop_
_atom_site_type_symbol
_atom_site_label
_atom_site_fract_x
_atom_site_fract_y
_atom_site_fract_z
Si Si1 0.295205 0.228883 0.049050
Si Si2 0.213753 0.408681 0.916908
Si Si3 0.211205 0.126245 0.776130
Si Si4 0.783378 0.316785 0.788450
Si Si5 0.295288 0.591349 0.074577
Si Si6 0.500000 0.000000 0.717061
Si Si7 0.707257 0.591810 0.653919
Si Si8 0.282764 0.094552 0.938721
O O1 0.500000 0.251328 0.029157
O O2 0.302078 0.163003 0.110748
O O3 0.213519 0.315160 0.080390
O O4 0.216629 0.173370 0.985295
O O5 0.237056 0.500000 0.883326
O O6 0.280489 0.338519 0.865252
O O7 0.300980 0.411439 0.991175
O O8 0.000000 0.397267 0.929478
O O9 0.260816 0.223171 0.767704
O O10 0.237325 0.104639 0.857703
O O11 0.000000 0.114316 0.760836
O O12 0.341957 0.072069 0.729506
O O13 0.715153 0.383204 0.733654
O O14 0.000000 0.323466 0.789840
O O15 0.500000 0.591210 0.102011
O O16 0.208005 0.500000 0.093935
O O17 0.500000 0.592060 0.631566
O O18 0.783824 0.500000 0.642300
O O19 0.500000 0.095040 0.944832
O O20 0.223096 0.000000 0.960629
#
# Coordination Sequence:
#
# PCOD9373458 Si02
#       8
#     8   8   8   8   8   2   8   8
#     4  10  21  36  59  84 112 155 202 243 298 361
#     4   9  17  31  53  85 119 151 185 231 289 349
#     4  11  22  37  61  91 122 165 205 247 308 372
#     4  10  22  38  60  86 115 153 201 244 294 357
#     4   9  18  33  54  83 118 151 187 233 286 346
#     4  12  22  40  60  86 130 164 198 256 312 356
#     4  11  25  42  60  85 116 152 194 245 305 362
#     4  10  18  32  53  84 122 158 195 247 306 362
#
# _framework density 25.260097999999999
#
# number of rings (size 3 to 8) (size 9 to 14) (size 15 to 20)
#    0.000    1.931    1.379    2.276    0.966    3.862 
#    0.000    1.379    1.517    0.000    0.000    0.000 
#    0.000    0.000    0.000    0.000    0.000    0.000 
#
# Total GULP energy -161863.445001 kJ/mol
# GULP energy per Si atom -5581.498103 kJ/mol
# Density = 2.520260 g / cm^3
# Si number density = 25.260098 Si / 1000 Ang^3
#
#
#
# Elastic Constant Matrix: (Units=GPa)
#
#
# Indices 1 2 3 4 5 6 
#
# 1 90.7164 30.9595 -15.3091 0.0000 0.0000 0.0000
# 2 30.9595 209.5569 36.2864 0.0000 0.0000 0.0000
# 3 -15.3091 36.2864 86.8184 0.0000 0.0000 0.0000
# 4 0.0000 0.0000 0.0000 30.4400 0.0000 0.0000
# 5 0.0000 0.0000 0.0000 0.0000 -115.9414 0.0000
# 6 0.0000 0.0000 0.0000 0.0000 0.0000 13.7208
#
#
#
# Elastic Compliance Matrix: (Units=1/GPa)
#
#
# Indices 1 2 3 4 5 6 
#
# 1 0.012371 -0.002377 0.003175 0.000000 0.000000 0.000000
# 2 -0.002377 0.005601 -0.002760 0.000000 0.000000 0.000000
# 3 0.003175 -0.002760 0.013232 0.000000 0.000000 0.000000
# 4 0.000000 0.000000 0.000000 0.032852 0.000000 0.000000
# 5 0.000000 0.000000 0.000000 0.000000 -0.008625 0.000000
# 6 0.000000 0.000000 0.000000 0.000000 0.000000 0.072882
#
#
# Mechanical properties :
#
#
# Convention : Reuss Voigt Hill
#
# Bulk Modulus (GPa) = 36.65926 54.55168 45.60547
# Shear Modulus (GPa) = 35.37819 7.98754 21.68287
#
# Velocity S-wave (km/s) = 3.74646 1.78016 2.93300
# Velocity P-wave (km/s) = 5.76705 5.08608 5.43723
#
# Compressibility (1/GPa) = 0.02727824
#
# Stress axis : x y z
#
# Youngs Moduli (GPa) = 80.83740 178.53437 75.57531
#
# Poissons Ratio (x) = 0.42444 -0.23995
# Poissons Ratio (y) = 0.19218 0.20861
# Poissons Ratio (z) = -0.25666 0.49280
#
# Static dielectric constant tensor:
#      x y z
#    x 2.011820 0.000000 0.000000 
#    y 0.000000 2.031440 0.000000 
#    z 0.000000 0.000000 1.988690 
# 
# From -- ./inp_files/25010.got.cif
#   From: 2010.05.17/outbox.cif.g08.bks.cpg/sg44_13_cif.got.tgz:25010.got - 2010.06.03 19:37:08.
