data_PCOD9373326
_publ_section_title
;
Structure prediction by ZEFSAII (Michael W. Deem and Ramdas Pophale) SiO2 
 PCOD9373326
Probable space group: I M M 2
;
_chemical_formula_sum "Si O2"
_cell_formula_units_Z 64
_cell_length_a 8.754984
_cell_length_b 19.233967
_cell_length_c 22.069690
_cell_angle_alpha 90.000000
_cell_angle_beta 90.000000
_cell_angle_gamma 90.000000
_cell_volume 3716.382927
_symmetry_space_group_name_H-M "I M M 2"
_symmetry_group_IT_number 44
_symmetry_cell_setting 'orthorhombic'
loop_
_space_group_symop_operation_xyz
x,y,z
-x,-y,z
-x,y,z
x,-y,z
1/2+x,1/2+y,1/2+z
1/2-x,1/2-y,1/2+z
1/2-x,1/2+y,1/2+z
1/2+x,1/2-y,1/2+z
loop_
_atom_site_type_symbol
_atom_site_label
_atom_site_fract_x
_atom_site_fract_y
_atom_site_fract_z
Si Si1 0.184590 0.079315 0.701500
Si Si2 0.321166 0.577825 0.870993
Si Si3 0.670224 0.923868 0.496403
Si Si4 0.816162 0.872367 0.835356
Si Si5 0.182528 0.277667 0.882211
Si Si6 0.183888 0.424148 0.459907
Si Si7 0.323509 0.816023 0.605071
Si Si8 0.183145 0.723201 0.509041
O O1 0.228455 0.096196 0.770847
O O2 0.248908 0.140778 0.659486
O O3 0.000000 0.080814 0.697460
O O4 0.233585 0.000000 0.685671
O O5 0.500000 0.581843 0.857221
O O6 0.265597 0.500000 0.851437
O O7 0.240434 0.650072 0.853207
O O8 0.292906 0.579226 0.943519
O O9 0.500000 0.917214 0.467832
O O10 0.682714 0.869156 0.548716
O O11 0.679147 0.000000 0.524705
O O12 0.774347 0.790912 0.843749
O O13 0.743515 0.911946 0.891975
O O14 0.000000 0.877417 0.840148
O O15 0.000000 0.279558 0.887060
O O16 0.248303 0.264112 0.950281
O O17 0.235004 0.500000 0.481953
O O18 0.231144 0.356848 0.498383
O O19 0.000000 0.423443 0.458626
O O20 0.500000 0.799890 0.618696
O O21 0.239284 0.750925 0.574037
O O22 0.000000 0.729573 0.505671
#
# Coordination Sequence:
#
# PCOD9373326 Si02
#       8
#     8   8   8   8   8   8   8   8
#     4  10  21  36  52  71  98 133 171 207 242 284
#     4  10  19  28  41  64  93 124 158 194 235 287
#     4   9  17  28  41  58  85 122 158 192 230 271
#     4   9  19  34  52  73  98 130 168 206 245 289
#     4  10  18  30  48  70  96 126 161 203 248 293
#     4   9  18  32  51  76 103 129 158 198 248 296
#     4  11  21  32  47  68  96 129 165 203 241 283
#     4  10  19  31  48  70  97 128 161 198 242 295
#
# _framework density 17.221046000000001
#
# number of rings (size 3 to 8) (size 9 to 14) (size 15 to 20)
#    0.000    2.250    1.250    2.250    0.000    4.250 
#    0.000    1.250    0.000    0.000    0.000    0.875 
#    0.000    3.000    0.000    0.000    0.000    0.000 
#
# Total GULP energy -178220.017100 kJ/mol
# GULP energy per Si atom -5569.375534 kJ/mol
# Density = 1.718185 g / cm^3
# Si number density = 17.221046 Si / 1000 Ang^3
#
#
#
# Elastic Constant Matrix: (Units=GPa)
#
#
# Indices 1 2 3 4 5 6 
#
# 1 35.2467 26.4437 16.2684 0.0000 0.0000 0.0000
# 2 26.4437 135.9079 31.7645 0.0000 0.0000 0.0000
# 3 16.2684 31.7645 55.3393 0.0000 0.0000 0.0000
# 4 0.0000 0.0000 0.0000 17.3681 0.0000 0.0000
# 5 0.0000 0.0000 0.0000 0.0000 18.9720 0.0000
# 6 0.0000 0.0000 0.0000 0.0000 0.0000 18.4096
#
#
#
# Elastic Compliance Matrix: (Units=1/GPa)
#
#
# Indices 1 2 3 4 5 6 
#
# 1 0.035743 -0.005196 -0.007525 0.000000 0.000000 0.000000
# 2 -0.005196 0.009253 -0.003784 0.000000 0.000000 0.000000
# 3 -0.007525 -0.003784 0.022455 0.000000 0.000000 0.000000
# 4 0.000000 0.000000 0.000000 0.057577 0.000000 0.000000
# 5 0.000000 0.000000 0.000000 0.000000 0.052709 0.000000
# 6 0.000000 0.000000 0.000000 0.000000 0.000000 0.054319
#
#
# Mechanical properties :
#
#
# Convention : Reuss Voigt Hill
#
# Bulk Modulus (GPa) = 29.03523 41.71636 35.37579
# Shear Modulus (GPa) = 18.08018 21.08444 19.58231
#
# Velocity S-wave (km/s) = 3.24371 3.50286 3.37577
# Velocity P-wave (km/s) = 5.56110 6.37469 5.98174
#
# Compressibility (1/GPa) = 0.03444092
#
# Stress axis : x y z
#
# Youngs Moduli (GPa) = 27.97764 108.07034 44.53449
#
# Poissons Ratio (x) = 0.56150 0.33513
# Poissons Ratio (y) = 0.14536 0.16851
# Poissons Ratio (z) = 0.21054 0.40893
#
# Static dielectric constant tensor:
#      x y z
#    x 1.565140 0.000000 0.000000 
#    y 0.000000 1.670520 0.000000 
#    z 0.000000 0.000000 1.549650 
# 
# From -- ./inp_files/23413.got.cif
#   From: 2010.05.17/outbox.cif.g08.bks.cpg/sg44_12_cif.got.tgz:23413.got - 2010.06.03 19:37:08.
