data_PCOD9373338
_publ_section_title
;
Structure prediction by ZEFSAII (Michael W. Deem and Ramdas Pophale) SiO2 
 PCOD9373338
Probable space group: I M M 2
;
_chemical_formula_sum "Si O2"
_cell_formula_units_Z 40
_cell_length_a 12.100101
_cell_length_b 7.373563
_cell_length_c 20.781520
_cell_angle_alpha 90.000000
_cell_angle_beta 90.000000
_cell_angle_gamma 90.000000
_cell_volume 1854.145025
_symmetry_space_group_name_H-M "I M M 2"
_symmetry_group_IT_number 44
_symmetry_cell_setting 'orthorhombic'
loop_
_space_group_symop_operation_xyz
x,y,z
-x,-y,z
-x,y,z
x,-y,z
1/2+x,1/2+y,1/2+z
1/2-x,1/2-y,1/2+z
1/2-x,1/2+y,1/2+z
1/2+x,1/2-y,1/2+z
loop_
_atom_site_type_symbol
_atom_site_label
_atom_site_fract_x
_atom_site_fract_y
_atom_site_fract_z
Si Si1 0.500000 0.221205 0.711550
Si Si2 0.625997 0.721380 0.170675
Si Si3 0.255058 0.221765 0.542319
Si Si4 0.279413 0.782874 0.782605
Si Si5 0.000000 0.720514 0.062511
Si Si6 0.124768 0.784640 0.417812
O O1 0.609045 0.283381 0.748015
O O2 0.500000 0.273651 0.637433
O O3 0.500000 0.000000 0.712542
O O4 0.500000 0.780554 0.161770
O O5 0.625272 0.500000 0.170022
O O6 0.703861 0.776358 0.111086
O O7 0.677543 0.780406 0.238910
O O8 0.382399 0.279589 0.534261
O O9 0.178365 0.284316 0.483727
O O10 0.255060 0.000000 0.542396
O O11 0.294127 0.742545 0.857496
O O12 0.278846 0.000000 0.777640
O O13 0.000000 0.500000 0.060144
O O14 0.000000 0.713731 0.405216
O O15 0.114436 0.000000 0.425641
#
# Coordination Sequence:
#
# PCOD9373338 Si02
#       6
#     4   8   8   8   4   8
#     4   9  14  24  45  73  93 108 145 198 236 263
#     4   9  16  27  46  71  95 120 154 197 238 271
#     4   9  16  27  44  67  94 122 154 193 234 274
#     4  10  18  30  50  72  94 121 155 194 232 275
#     4   9  14  24  44  69  93 116 151 198 236 267
#     4  10  20  32  46  68  98 127 154 189 234 280
#
# _framework density 21.573284000000001
#
# number of rings (size 3 to 8) (size 9 to 14) (size 15 to 20)
#    0.000    2.600    3.000    0.600    0.000    2.400 
#    1.800    0.000    0.000    1.200    0.000    0.000 
#    0.000    0.000    0.000    0.000    0.000    0.000 
#
# Total GULP energy -111641.848619 kJ/mol
# GULP energy per Si atom -5582.092431 kJ/mol
# Density = 2.152418 g / cm^3
# Si number density = 21.573284 Si / 1000 Ang^3
#
#
#
# Elastic Constant Matrix: (Units=GPa)
#
#
# Indices 1 2 3 4 5 6 
#
# 1 146.7866 5.6562 60.1835 0.0000 0.0000 0.0000
# 2 5.6562 75.8465 -0.8720 0.0000 0.0000 0.0000
# 3 60.1835 -0.8720 134.6462 0.0000 0.0000 0.0000
# 4 0.0000 0.0000 0.0000 7.9454 0.0000 0.0000
# 5 0.0000 0.0000 0.0000 0.0000 32.6992 0.0000
# 6 0.0000 0.0000 0.0000 0.0000 0.0000 -6.3048
#
#
#
# Elastic Compliance Matrix: (Units=1/GPa)
#
#
# Indices 1 2 3 4 5 6 
#
# 1 0.008375 -0.000668 -0.003748 0.000000 0.000000 0.000000
# 2 -0.000668 0.013239 0.000384 0.000000 0.000000 0.000000
# 3 -0.003748 0.000384 0.009104 0.000000 0.000000 0.000000
# 4 0.000000 0.000000 0.000000 0.125859 0.000000 0.000000
# 5 0.000000 0.000000 0.000000 0.000000 0.030582 0.000000
# 6 0.000000 0.000000 0.000000 0.000000 0.000000 -0.158609
#
#
# Mechanical properties :
#
#
# Convention : Reuss Voigt Hill
#
# Bulk Modulus (GPa) = 44.13889 54.13495 49.13692
# Shear Modulus (GPa) = 113.21311 26.35540 69.78426
#
# Velocity S-wave (km/s) = 7.25206 3.49903 5.69366
# Velocity P-wave (km/s) = 9.51985 6.43990 8.12711
#
# Compressibility (1/GPa) = 0.02265576
#
# Stress axis : x y z
#
# Youngs Moduli (GPa) = 119.40410 75.53600 109.83591
#
# Poissons Ratio (x) = 0.05043 0.41163
# Poissons Ratio (y) = 0.07972 -0.04219
# Poissons Ratio (z) = 0.44749 -0.02902
#
# Static dielectric constant tensor:
#      x y z
#    x 1.763720 0.000000 0.000000 
#    y 0.000000 1.851230 0.000000 
#    z 0.000000 0.000000 1.743290 
# 
# From -- ./inp_files/22777.got.cif
#   From: 2010.05.17/outbox.cif.g08.bks.cpg/sg44_12_cif.got.tgz:22777.got - 2010.06.03 19:37:08.
