data_PCOD9373599
_publ_section_title
;
Structure prediction by ZEFSAII (Michael W. Deem and Ramdas Pophale) SiO2 
 PCOD9373599
Probable space group: I M M 2
;
_chemical_formula_sum "Si O2"
_cell_formula_units_Z 58
_cell_length_a 7.591466
_cell_length_b 16.095454
_cell_length_c 23.922220
_cell_angle_alpha 90.000000
_cell_angle_beta 90.000000
_cell_angle_gamma 90.000000
_cell_volume 2923.010413
_symmetry_space_group_name_H-M "I M M 2"
_symmetry_group_IT_number 44
_symmetry_cell_setting 'orthorhombic'
loop_
_space_group_symop_operation_xyz
x,y,z
-x,-y,z
-x,y,z
x,-y,z
1/2+x,1/2+y,1/2+z
1/2-x,1/2-y,1/2+z
1/2-x,1/2+y,1/2+z
1/2+x,1/2-y,1/2+z
loop_
_atom_site_type_symbol
_atom_site_label
_atom_site_fract_x
_atom_site_fract_y
_atom_site_fract_z
Si Si1 0.698856 0.272015 0.223420
Si Si2 0.787239 0.907185 0.940500
Si Si3 0.294943 0.764914 0.026261
Si Si4 0.710963 0.908676 0.637973
Si Si5 0.215084 0.905565 0.810923
Si Si6 0.805731 0.858921 0.136280
Si Si7 0.500000 0.000000 0.128656
Si Si8 0.705117 0.589481 0.007649
O O1 0.500000 0.247925 0.239225
O O2 0.697113 0.339429 0.173890
O O3 0.778447 0.328227 0.273415
O O4 0.786539 0.192526 0.194342
O O5 0.737661 0.893423 0.875900
O O6 0.000000 0.905164 0.942815
O O7 0.729779 0.000000 0.956894
O O8 0.717428 0.839729 0.982853
O O9 0.500000 0.748894 0.039041
O O10 0.208937 0.794081 0.084202
O O11 0.220658 0.681405 0.996597
O O12 0.500000 0.894809 0.637173
O O13 0.779116 0.910624 0.574925
O O14 0.744259 0.000000 0.662382
O O15 0.000000 0.905634 0.806890
O O16 0.272162 0.000000 0.795349
O O17 0.653928 0.926631 0.129661
O O18 0.000000 0.896159 0.133689
O O19 0.500000 0.588602 0.990545
O O20 0.782269 0.500000 0.988880
#
# Coordination Sequence:
#
# PCOD9373599 Si02
#       8
#     8   8   8   8   8   8   2   8
#     4  11  19  33  55  82 113 150 195 240 287 361
#     4   9  19  35  55  81 112 153 203 249 302 360
#     4  11  21  35  54  83 118 154 204 251 299 366
#     4  10  19  28  42  71 109 146 182 224 276 337
#     4   8  16  32  55  84 117 155 199 244 297 359
#     4  12  25  41  61  87 120 157 196 250 304 359
#     4  12  26  48  60  86 118 152 210 244 300 372
#     4   9  18  32  49  69 100 144 190 233 282 342
#
# _framework density 19.842555999999998
#
# number of rings (size 3 to 8) (size 9 to 14) (size 15 to 20)
#    0.000    1.931    2.759    2.690    0.966    2.207 
#    0.000    1.379    0.000    1.655    1.793    0.000 
#    0.000    0.000    0.000    0.000    0.000    0.000 
#
# Total GULP energy -161450.542190 kJ/mol
# GULP energy per Si atom -5567.260076 kJ/mol
# Density = 1.979739 g / cm^3
# Si number density = 19.842556 Si / 1000 Ang^3
#
#
#
# Elastic Constant Matrix: (Units=GPa)
#
#
# Indices 1 2 3 4 5 6 
#
# 1 97.7795 30.5216 0.2539 0.0000 0.0000 0.0000
# 2 30.5216 145.8603 37.3876 0.0000 0.0000 0.0000
# 3 0.2539 37.3876 55.8396 0.0000 0.0000 0.0000
# 4 0.0000 0.0000 0.0000 23.6628 0.0000 0.0000
# 5 0.0000 0.0000 0.0000 0.0000 11.9678 0.0000
# 6 0.0000 0.0000 0.0000 0.0000 0.0000 2.0359
#
#
#
# Elastic Compliance Matrix: (Units=1/GPa)
#
#
# Indices 1 2 3 4 5 6 
#
# 1 0.011092 -0.002786 0.001815 0.000000 0.000000 0.000000
# 2 -0.002786 0.008976 -0.005997 0.000000 0.000000 0.000000
# 3 0.001815 -0.005997 0.021916 0.000000 0.000000 0.000000
# 4 0.000000 0.000000 0.000000 0.042260 0.000000 0.000000
# 5 0.000000 0.000000 0.000000 0.000000 0.083557 0.000000
# 6 0.000000 0.000000 0.000000 0.000000 0.000000 0.491190
#
#
# Mechanical properties :
#
#
# Convention : Reuss Voigt Hill
#
# Bulk Modulus (GPa) = 35.65448 48.42285 42.03867
# Shear Modulus (GPa) = 7.32839 22.95439 15.14139
#
# Velocity S-wave (km/s) = 1.92387 3.40490 2.76538
# Velocity P-wave (km/s) = 4.78986 6.31778 5.60612
#
# Compressibility (1/GPa) = 0.02804697
#
# Stress axis : x y z
#
# Youngs Moduli (GPa) = 90.15408 111.40583 45.62933
#
# Poissons Ratio (x) = 0.31041 -0.08282
# Poissons Ratio (y) = 0.25120 0.27366
# Poissons Ratio (z) = -0.16364 0.66814
#
# Static dielectric constant tensor:
#      x y z
#    x 1.739270 0.000000 0.000000 
#    y 0.000000 1.760520 0.000000 
#    z 0.000000 0.000000 1.676210 
# 
# From -- ./inp_files/25007.got.cif
#   From: 2010.05.17/outbox.cif.g08.bks.cpg/sg44_13_cif.got.tgz:25007.got - 2010.06.03 19:37:08.
