data_PCOD9373460
_publ_section_title
;
Structure prediction by ZEFSAII (Michael W. Deem and Ramdas Pophale) SiO2 
 PCOD9373460
Probable space group: I M M 2
;
_chemical_formula_sum "Si O2"
_cell_formula_units_Z 48
_cell_length_a 19.226482
_cell_length_b 7.437123
_cell_length_c 15.327393
_cell_angle_alpha 90.000000
_cell_angle_beta 90.000000
_cell_angle_gamma 90.000000
_cell_volume 2191.659503
_symmetry_space_group_name_H-M "I M M 2"
_symmetry_group_IT_number 44
_symmetry_cell_setting 'orthorhombic'
loop_
_space_group_symop_operation_xyz
x,y,z
-x,-y,z
-x,y,z
x,-y,z
1/2+x,1/2+y,1/2+z
1/2-x,1/2-y,1/2+z
1/2-x,1/2+y,1/2+z
1/2+x,1/2-y,1/2+z
loop_
_atom_site_type_symbol
_atom_site_label
_atom_site_fract_x
_atom_site_fract_y
_atom_site_fract_z
Si Si1 0.000000 0.279779 0.435900
Si Si2 0.887067 0.788390 0.775443
Si Si3 0.152441 0.280386 0.375833
Si Si4 0.759649 0.282329 0.214449
Si Si5 0.771992 0.789886 0.011593
Si Si6 0.000000 0.286699 0.633937
Si Si7 0.074765 0.780134 0.964628
O O1 0.073525 0.222378 0.394748
O O2 0.000000 0.500000 0.434262
O O3 0.000000 0.217573 0.536243
O O4 0.810718 0.714974 0.760062
O O5 0.923025 0.723415 0.863139
O O6 0.933429 0.765949 0.690342
O O7 0.878521 0.000000 0.790105
O O8 0.152122 0.500000 0.379312
O O9 0.178503 0.227453 0.279336
O O10 0.209571 0.220238 0.449116
O O11 0.759386 0.500000 0.212729
O O12 0.757597 0.224076 0.114306
O O13 0.776594 0.000000 0.987385
O O14 0.850469 0.716510 0.999595
O O15 0.000000 0.500000 0.627945
O O16 0.000000 0.721087 0.002603
O O17 0.074319 0.000000 0.970945
#
# Coordination Sequence:
#
# PCOD9373460 Si02
#       7
#     4   8   8   8   8   4   8
#     4   9  18  31  49  74 103 136 174 211 253 312
#     4  10  18  32  54  76 101 138 178 211 254 319
#     4   9  17  33  54  73 101 141 179 211 251 316
#     4  10  20  34  54  80 105 135 179 222 260 309
#     4  10  19  34  56  78 101 136 178 219 264 316
#     4  11  21  31  49  84 113 130 164 223 279 316
#     4   9  16  30  54  76  95 130 179 216 246 309
#
# _framework density 21.901211
#
# number of rings (size 3 to 8) (size 9 to 14) (size 15 to 20)
#    0.000    2.333    2.500    1.250    0.000    2.000 
#    1.500    1.667    0.000    2.000    0.000    0.000 
#    0.000    0.000    0.000    0.000    0.000    0.000 
#
# Total GULP energy -133876.373215 kJ/mol
# GULP energy per Si atom -5578.182217 kJ/mol
# Density = 2.185136 g / cm^3
# Si number density = 21.901211 Si / 1000 Ang^3
#
#
#
# Elastic Constant Matrix: (Units=GPa)
#
#
# Indices 1 2 3 4 5 6 
#
# 1 167.3035 2.9903 28.8372 0.0000 0.0000 0.0000
# 2 2.9903 62.4836 -8.1753 0.0000 0.0000 0.0000
# 3 28.8372 -8.1753 60.1770 0.0000 0.0000 0.0000
# 4 0.0000 0.0000 0.0000 18.1179 0.0000 0.0000
# 5 0.0000 0.0000 0.0000 0.0000 29.3467 0.0000
# 6 0.0000 0.0000 0.0000 0.0000 0.0000 160.5086
#
#
#
# Elastic Compliance Matrix: (Units=1/GPa)
#
#
# Indices 1 2 3 4 5 6 
#
# 1 0.006548 -0.000737 -0.003238 0.000000 0.000000 0.000000
# 2 -0.000737 0.016377 0.002578 0.000000 0.000000 0.000000
# 3 -0.003238 0.002578 0.018520 0.000000 0.000000 0.000000
# 4 0.000000 0.000000 0.000000 0.055194 0.000000 0.000000
# 5 0.000000 0.000000 0.000000 0.000000 0.034075 0.000000
# 6 0.000000 0.000000 0.000000 0.000000 0.000000 0.006230
#
#
# Mechanical properties :
#
#
# Convention : Reuss Voigt Hill
#
# Bulk Modulus (GPa) = 25.87292 37.47429 31.67360
# Shear Modulus (GPa) = 32.76061 59.34877 46.05469
#
# Velocity S-wave (km/s) = 3.87180 5.21126 4.59065
# Velocity P-wave (km/s) = 5.64153 7.30461 6.52626
#
# Compressibility (1/GPa) = 0.03865045
#
# Stress axis : x y z
#
# Youngs Moduli (GPa) = 152.70707 61.06210 53.99671
#
# Poissons Ratio (x) = 0.04501 0.17485
# Poissons Ratio (y) = 0.11256 -0.13921
# Poissons Ratio (z) = 0.49450 -0.15742
#
# Static dielectric constant tensor:
#      x y z
#    x 1.814440 0.000000 0.000000 
#    y 0.000000 1.836370 0.000000 
#    z 0.000000 0.000000 1.760450 
# 
# From -- ./inp_files/16189.got.cif
#   From: 2010.05.17/outbox.cif.g08.bks.cpg/sg44_9_cif.got.tgz:16189.got - 2010.06.03 19:37:08.
