data_PCOD9373288
_publ_section_title
;
Structure prediction by ZEFSAII (Michael W. Deem and Ramdas Pophale) SiO2 
 PCOD9373288
Probable space group: I M M 2
;
_chemical_formula_sum "Si O2"
_cell_formula_units_Z 64
_cell_length_a 15.034645
_cell_length_b 7.989975
_cell_length_c 29.075628
_cell_angle_alpha 90.000000
_cell_angle_beta 90.000000
_cell_angle_gamma 90.000000
_cell_volume 3492.751615
_symmetry_space_group_name_H-M "I M M 2"
_symmetry_group_IT_number 44
_symmetry_cell_setting 'orthorhombic'
loop_
_space_group_symop_operation_xyz
x,y,z
-x,-y,z
-x,y,z
x,-y,z
1/2+x,1/2+y,1/2+z
1/2-x,1/2-y,1/2+z
1/2-x,1/2+y,1/2+z
1/2+x,1/2-y,1/2+z
loop_
_atom_site_type_symbol
_atom_site_label
_atom_site_fract_x
_atom_site_fract_y
_atom_site_fract_z
Si Si1 0.601192 0.297128 0.070380
Si Si2 0.101249 0.297061 0.207656
Si Si3 0.601266 0.704895 0.336525
Si Si4 0.897178 0.800428 0.103403
Si Si5 0.900859 0.799913 0.941110
Si Si6 0.772108 0.802746 0.756808
Si Si7 0.102726 0.300249 0.674754
Si Si8 0.227938 0.694671 0.021484
O O1 0.500000 0.240223 0.061436
O O2 0.601423 0.500000 0.069503
O O3 0.625793 0.244107 0.122235
O O4 0.675585 0.233259 0.035043
O O5 0.101785 0.500000 0.207999
O O6 0.125906 0.241592 0.156010
O O7 0.175300 0.234161 0.243248
O O8 0.000000 0.241126 0.216716
O O9 0.500000 0.753869 0.323946
O O10 0.602667 0.500000 0.335666
O O11 0.618005 0.759211 0.389095
O O12 0.673375 0.767700 0.300034
O O13 0.833164 0.717500 0.066547
O O14 0.000000 0.747672 0.096374
O O15 0.892405 0.000000 0.096874
O O16 0.000000 0.737480 0.954901
O O17 0.907070 0.000000 0.938307
O O18 0.826105 0.763021 0.978300
O O19 0.833484 0.782361 0.711854
O O20 0.760125 0.000000 0.765868
O O21 0.107921 0.500000 0.680229
O O22 0.000000 0.247170 0.682018
O O23 0.240762 0.500000 0.012373
#
# Coordination Sequence:
#
# PCOD9373288 Si02
#       8
#     8   8   8   8   8   8   8   8
#     4   9  19  35  50  64  88 124 161 191 221 266
#     4   9  18  31  45  65  95 126 156 193 231 263
#     4   8  15  29  49  71  92 116 150 188 223 268
#     4  10  20  32  46  66  94 128 160 187 222 272
#     4   9  18  33  51  70  94 123 151 181 224 278
#     4  10  18  29  49  71  90 121 161 192 223 268
#     4  10  20  31  44  68 100 126 149 185 232 274
#     4  11  21  31  48  72  93 117 152 193 234 271
#
# _framework density 18.323663
#
# number of rings (size 3 to 8) (size 9 to 14) (size 15 to 20)
#    0.000    2.500    0.000    3.375    0.000    8.250 
#    0.000    0.625    0.000    1.500    0.000    1.750 
#    0.000    0.000    0.000    0.000    0.000    0.000 
#
# Total GULP energy -178518.435691 kJ/mol
# GULP energy per Si atom -5578.701115 kJ/mol
# Density = 1.828196 g / cm^3
# Si number density = 18.323663 Si / 1000 Ang^3
#
#
#
# Elastic Constant Matrix: (Units=GPa)
#
#
# Indices 1 2 3 4 5 6 
#
# 1 96.4436 -4.0224 79.1400 0.0000 0.0000 0.0000
# 2 -4.0224 8.6336 -4.1518 0.0000 0.0000 0.0000
# 3 79.1400 -4.1518 98.1127 0.0000 0.0000 0.0000
# 4 0.0000 0.0000 0.0000 15.0937 0.0000 0.0000
# 5 0.0000 0.0000 0.0000 0.0000 32.6817 0.0000
# 6 0.0000 0.0000 0.0000 0.0000 0.0000 12.2699
#
#
#
# Elastic Compliance Matrix: (Units=1/GPa)
#
#
# Indices 1 2 3 4 5 6 
#
# 1 0.030718 0.002446 -0.024675 0.000000 0.000000 0.000000
# 2 0.002446 0.118428 0.003039 0.000000 0.000000 0.000000
# 3 -0.024675 0.003039 0.030224 0.000000 0.000000 0.000000
# 4 0.000000 0.000000 0.000000 0.066253 0.000000 0.000000
# 5 0.000000 0.000000 0.000000 0.000000 0.030598 0.000000
# 6 0.000000 0.000000 0.000000 0.000000 0.000000 0.081500
#
#
# Mechanical properties :
#
#
# Convention : Reuss Voigt Hill
#
# Bulk Modulus (GPa) = 7.09271 38.34685 22.71978
# Shear Modulus (GPa) = 11.28418 20.82400 16.05409
#
# Velocity S-wave (km/s) = 2.48428 3.37479 2.96318
# Velocity P-wave (km/s) = 3.47966 6.01320 4.91256
#
# Compressibility (1/GPa) = 0.14098978
#
# Stress axis : x y z
#
# Youngs Moduli (GPa) = 32.55380 8.44397 33.08617
#
# Poissons Ratio (x) = -0.02065 0.81639
# Poissons Ratio (y) = -0.07962 -0.10054
# Poissons Ratio (z) = 0.80325 -0.02566
#
# Static dielectric constant tensor:
#      x y z
#    x 1.668890 0.000000 0.000000 
#    y 0.000000 1.665560 0.000000 
#    z 0.000000 0.000000 1.610100 
# 
# From -- ./inp_files/25183.got.cif
#   From: 2010.05.17/outbox.cif.g08.bks.cpg/sg44_13_cif.got.tgz:25183.got - 2010.06.03 19:37:08.
