data_PCOD9373843
_publ_section_title
;
Structure prediction by ZEFSAII (Michael W. Deem and Ramdas Pophale) SiO2 
 PCOD9373843
Probable space group: I M M 2
;
_chemical_formula_sum "Si O2"
_cell_formula_units_Z 48
_cell_length_a 17.000532
_cell_length_b 8.622617
_cell_length_c 19.021752
_cell_angle_alpha 90.000000
_cell_angle_beta 90.000000
_cell_angle_gamma 90.000000
_cell_volume 2788.381054
_symmetry_space_group_name_H-M "I M M 2"
_symmetry_group_IT_number 44
_symmetry_cell_setting 'orthorhombic'
loop_
_space_group_symop_operation_xyz
x,y,z
-x,-y,z
-x,y,z
x,-y,z
1/2+x,1/2+y,1/2+z
1/2-x,1/2-y,1/2+z
1/2-x,1/2+y,1/2+z
1/2+x,1/2-y,1/2+z
loop_
_atom_site_type_symbol
_atom_site_label
_atom_site_fract_x
_atom_site_fract_y
_atom_site_fract_z
Si Si1 0.846899 0.687826 0.983970
Si Si2 0.000000 0.815545 0.906132
Si Si3 0.261777 0.314541 0.858132
Si Si4 0.818148 0.688301 0.142584
Si Si5 0.000000 0.684064 0.748157
Si Si6 0.333733 0.314071 0.226598
Si Si7 0.589892 0.187671 0.781589
O O1 0.855541 0.500000 0.983526
O O2 0.772021 0.725521 0.934821
O O3 0.923276 0.760395 0.948098
O O4 0.837516 0.741219 0.064278
O O5 0.000000 0.739788 0.829134
O O6 0.000000 0.000000 0.897868
O O7 0.262553 0.500000 0.851466
O O8 0.201099 0.247167 0.800441
O O9 0.347180 0.249903 0.837626
O O10 0.820340 0.500000 0.141257
O O11 0.731090 0.732583 0.168741
O O12 0.878163 0.736656 0.204345
O O13 0.920085 0.748410 0.714621
O O14 0.000000 0.500000 0.746218
O O15 0.336795 0.500000 0.229854
O O16 0.500000 0.237204 0.792612
O O17 0.592375 0.000000 0.783325
#
# Coordination Sequence:
#
# PCOD9373843 Si02
#       7
#     8   4   8   8   4   8   8
#     4  10  20  35  55  77 106 140 174 212 261 316
#     4  12  24  34  50  80 112 141 174 213 262 315
#     4  10  19  31  51  77 105 137 173 214 264 309
#     4   8  17  33  55  78 101 134 174 213 257 312
#     4  12  22  34  54  80 108 137 174 219 268 315
#     4  10  19  34  55  78 104 137 179 218 256 309
#     4   9  18  33  54  77  99 132 178 220 259 307
#
# _framework density 17.214289999999998
#
# number of rings (size 3 to 8) (size 9 to 14) (size 15 to 20)
#    0.000    2.167    1.667    3.500    1.167    1.000 
#    0.000    4.167    1.833    0.000    0.000    0.000 
#    0.000    0.000    0.000    0.000    0.000    0.000 
#
# Total GULP energy -133898.873718 kJ/mol
# GULP energy per Si atom -5579.119738 kJ/mol
# Density = 1.717511 g / cm^3
# Si number density = 17.214290 Si / 1000 Ang^3
#
#
#
# Elastic Constant Matrix: (Units=GPa)
#
#
# Indices 1 2 3 4 5 6 
#
# 1 149.9174 33.7299 35.4833 0.0000 0.0000 0.0000
# 2 33.7299 40.2422 17.6332 0.0000 0.0000 0.0000
# 3 35.4833 17.6332 61.5411 0.0000 0.0000 0.0000
# 4 0.0000 0.0000 0.0000 18.4135 0.0000 0.0000
# 5 0.0000 0.0000 0.0000 0.0000 16.7850 0.0000
# 6 0.0000 0.0000 0.0000 0.0000 0.0000 26.6923
#
#
#
# Elastic Compliance Matrix: (Units=1/GPa)
#
#
# Indices 1 2 3 4 5 6 
#
# 1 0.008797 -0.005890 -0.003384 0.000000 0.000000 0.000000
# 2 -0.005890 0.032361 -0.005876 0.000000 0.000000 0.000000
# 3 -0.003384 -0.005876 0.019884 0.000000 0.000000 0.000000
# 4 0.000000 0.000000 0.000000 0.054308 0.000000 0.000000
# 5 0.000000 0.000000 0.000000 0.000000 0.059577 0.000000
# 6 0.000000 0.000000 0.000000 0.000000 0.000000 0.037464
#
#
# Mechanical properties :
#
#
# Convention : Reuss Voigt Hill
#
# Bulk Modulus (GPa) = 32.52997 47.26596 39.89796
# Shear Modulus (GPa) = 19.76758 23.36844 21.56801
#
# Velocity S-wave (km/s) = 3.39237 3.68843 3.54349
# Velocity P-wave (km/s) = 5.85511 6.75695 6.32213
#
# Compressibility (1/GPa) = 0.03074088
#
# Stress axis : x y z
#
# Youngs Moduli (GPa) = 113.68082 30.90109 50.29096
#
# Poissons Ratio (x) = 0.18201 0.17020
# Poissons Ratio (y) = 0.66960 0.29552
# Poissons Ratio (z) = 0.38472 0.18158
#
# Static dielectric constant tensor:
#      x y z
#    x 1.580850 0.000000 0.000000 
#    y 0.000000 1.586340 0.000000 
#    z 0.000000 0.000000 1.571250 
# 
# From -- ./inp_files/21729.got.cif
#   From: 2010.05.17/outbox.cif.g08.bks.cpg/sg44_11_cif.got.tgz:21729.got - 2010.06.03 19:37:08.
