data_PCOD9373551
_publ_section_title
;
Structure prediction by ZEFSAII (Michael W. Deem and Ramdas Pophale) SiO2 
 PCOD9373551
Probable space group: I M M 2
;
_chemical_formula_sum "Si O2"
_cell_formula_units_Z 64
_cell_length_a 31.804689
_cell_length_b 7.623140
_cell_length_c 12.265502
_cell_angle_alpha 90.000000
_cell_angle_beta 90.000000
_cell_angle_gamma 90.000000
_cell_volume 2973.790547
_symmetry_space_group_name_H-M "I M M 2"
_symmetry_group_IT_number 44
_symmetry_cell_setting 'orthorhombic'
loop_
_space_group_symop_operation_xyz
x,y,z
-x,-y,z
-x,y,z
x,-y,z
1/2+x,1/2+y,1/2+z
1/2-x,1/2-y,1/2+z
1/2-x,1/2+y,1/2+z
1/2+x,1/2-y,1/2+z
loop_
_atom_site_type_symbol
_atom_site_label
_atom_site_fract_x
_atom_site_fract_y
_atom_site_fract_z
Si Si1 0.205946 0.784924 0.014650
Si Si2 0.954231 0.704352 0.981999
Si Si3 0.832492 0.788033 0.242159
Si Si4 0.699675 0.203187 0.979495
Si Si5 0.630776 0.294602 0.361100
Si Si6 0.570064 0.712154 0.723138
Si Si7 0.546360 0.285647 0.964915
Si Si8 0.379393 0.295964 0.119605
O O1 0.193759 0.732717 0.137020
O O2 0.205269 0.000000 0.011898
O O3 0.252994 0.726080 0.987629
O O4 0.169603 0.722256 0.932010
O O5 0.953534 0.500000 0.952699
O O6 0.912787 0.784419 0.927573
O O7 0.000000 0.778089 0.948994
O O8 0.950370 0.720076 0.112667
O O9 0.815519 0.716991 0.355402
O O10 0.880883 0.738743 0.223864
O O11 0.831317 0.000000 0.249625
O O12 0.700981 0.000000 0.012587
O O13 0.664691 0.289084 0.056116
O O14 0.640970 0.500000 0.346052
O O15 0.624971 0.217356 0.240274
O O16 0.566951 0.500000 0.718659
O O17 0.551695 0.770353 0.839139
O O18 0.500000 0.236600 0.004969
O O19 0.548571 0.500000 0.961935
O O20 0.584195 0.221151 0.041252
O O21 0.391172 0.500000 0.134818
#
# Coordination Sequence:
#
# PCOD9373551 Si02
#       8
#     8   8   8   8   8   8   8   8
#     4   9  20  38  57  82 114 148 188 241 290 330
#     4  11  24  39  56  84 122 154 183 230 290 347
#     4  10  19  37  62  83 111 148 190 239 286 330
#     4  11  23  37  57  86 120 152 186 230 291 354
#     4  10  21  40  63  82 107 150 201 245 279 327
#     4  10  18  34  61  85 110 149 193 234 280 334
#     4   9  17  31  53  83 113 140 180 235 285 328
#     4  10  21  38  60  84 113 149 192 240 286 333
#
# _framework density 21.521356000000001
#
# number of rings (size 3 to 8) (size 9 to 14) (size 15 to 20)
#    0.000    2.000    2.500    1.125    1.750    3.000 
#    0.000    3.125    0.000    0.375    0.000    0.000 
#    0.000    0.000    0.000    0.000    0.000    0.000 
#
# Total GULP energy -178753.270935 kJ/mol
# GULP energy per Si atom -5586.039717 kJ/mol
# Density = 2.147237 g / cm^3
# Si number density = 21.521356 Si / 1000 Ang^3
#
#
#
# Elastic Constant Matrix: (Units=GPa)
#
#
# Indices 1 2 3 4 5 6 
#
# 1 148.8593 -9.3627 55.6918 0.0000 0.0000 0.0000
# 2 -9.3627 36.5148 -7.8904 0.0000 0.0000 0.0000
# 3 55.6918 -7.8904 138.5110 0.0000 0.0000 0.0000
# 4 0.0000 0.0000 0.0000 -47.4727 0.0000 0.0000
# 5 0.0000 0.0000 0.0000 0.0000 73.0738 0.0000
# 6 0.0000 0.0000 0.0000 0.0000 0.0000 18.3737
#
#
#
# Elastic Compliance Matrix: (Units=1/GPa)
#
#
# Indices 1 2 3 4 5 6 
#
# 1 0.007974 0.001369 -0.003128 0.000000 0.000000 0.000000
# 2 0.001369 0.027962 0.001043 0.000000 0.000000 0.000000
# 3 -0.003128 0.001043 0.008537 0.000000 0.000000 0.000000
# 4 0.000000 0.000000 0.000000 -0.021065 0.000000 0.000000
# 5 0.000000 0.000000 0.000000 0.000000 0.013685 0.000000
# 6 0.000000 0.000000 0.000000 0.000000 0.000000 0.054426
#
#
# Mechanical properties :
#
#
# Convention : Reuss Voigt Hill
#
# Bulk Modulus (GPa) = 23.23450 44.52916 33.88183
# Shear Modulus (GPa) = 46.59850 27.82471 37.21161
#
# Velocity S-wave (km/s) = 4.65824 3.59958 4.16270
# Velocity P-wave (km/s) = 6.30490 6.16535 6.23551
#
# Compressibility (1/GPa) = 0.04303945
#
# Stress axis : x y z
#
# Youngs Moduli (GPa) = 125.40455 35.76231 117.13955
#
# Poissons Ratio (x) = -0.04895 0.36644
# Poissons Ratio (y) = -0.17164 -0.12213
# Poissons Ratio (z) = 0.39230 -0.03729
#
# Static dielectric constant tensor:
#      x y z
#    x 1.764100 0.000000 0.000000 
#    y 0.000000 1.824360 0.000000 
#    z 0.000000 0.000000 1.744860 
# 
# From -- ./inp_files/15055.got.cif
#   From: 2010.05.17/outbox.cif.g08.bks.cpg/sg44_8_cif.got.tgz:15055.got - 2010.06.03 19:37:08.
