data_PCOD9373822
_publ_section_title
;
Structure prediction by ZEFSAII (Michael W. Deem and Ramdas Pophale) SiO2 
 PCOD9373822
Probable space group: I M M 2
;
_chemical_formula_sum "Si O2"
_cell_formula_units_Z 64
_cell_length_a 9.513771
_cell_length_b 22.225984
_cell_length_c 15.793100
_cell_angle_alpha 90.000000
_cell_angle_beta 90.000000
_cell_angle_gamma 90.000000
_cell_volume 3339.497143
_symmetry_space_group_name_H-M "I M M 2"
_symmetry_group_IT_number 44
_symmetry_cell_setting 'orthorhombic'
loop_
_space_group_symop_operation_xyz
x,y,z
-x,-y,z
-x,y,z
x,-y,z
1/2+x,1/2+y,1/2+z
1/2-x,1/2-y,1/2+z
1/2-x,1/2+y,1/2+z
1/2+x,1/2-y,1/2+z
loop_
_atom_site_type_symbol
_atom_site_label
_atom_site_fract_x
_atom_site_fract_y
_atom_site_fract_z
Si Si1 0.831644 0.389435 0.734380
Si Si2 0.659577 0.573203 0.083019
Si Si3 0.332381 0.565908 0.576909
Si Si4 0.835293 0.684796 0.341388
Si Si5 0.668053 0.930522 0.751446
Si Si6 0.660078 0.072663 0.425046
Si Si7 0.666052 0.303085 0.501654
Si Si8 0.833997 0.771383 0.186134
O O1 0.754598 0.429560 0.663887
O O2 0.800411 0.409037 0.830212
O O3 0.766165 0.323979 0.719127
O O4 0.000000 0.390976 0.722876
O O5 0.500000 0.594999 0.089970
O O6 0.655236 0.500000 0.078342
O O7 0.750531 0.586517 0.165986
O O8 0.736294 0.594815 0.998062
O O9 0.500000 0.569142 0.594283
O O10 0.304644 0.500000 0.537225
O O11 0.298554 0.627033 0.525694
O O12 0.793702 0.615567 0.325375
O O13 0.748708 0.713487 0.417386
O O14 0.816517 0.716716 0.250582
O O15 0.000000 0.687638 0.362553
O O16 0.500000 0.925226 0.736778
O O17 0.699253 0.000000 0.771432
O O18 0.500000 0.093214 0.441811
O O19 0.659113 0.000000 0.428179
O O20 0.500000 0.299605 0.485743
O O21 0.697352 0.264435 0.586250
O O22 0.000000 0.789546 0.189936
#
# Coordination Sequence:
#
# PCOD9373822 Si02
#       8
#     8   8   8   8   8   8   8   8
#     4  10  19  31  50  77 106 139 184 237 280 320
#     4   9  17  29  46  70 101 136 174 216 260 309
#     4   9  18  33  53  78 112 153 187 217 269 336
#     4  10  21  38  60  83 108 143 184 226 275 332
#     4   9  18  34  55  78 107 141 174 213 269 332
#     4   9  17  29  45  68 102 141 178 219 271 326
#     4   9  19  36  57  80 109 144 182 228 276 325
#     4   9  20  40  58  74 106 148 184 225 278 334
#
# _framework density 19.164563000000001
#
# number of rings (size 3 to 8) (size 9 to 14) (size 15 to 20)
#    0.000    2.750    0.000    1.875    0.000    6.750 
#    2.250    1.250    0.000    0.000    0.000    0.000 
#    0.000    0.000    0.000    0.000    0.000    0.000 
#
# Total GULP energy -178385.043727 kJ/mol
# GULP energy per Si atom -5574.532616 kJ/mol
# Density = 1.912094 g / cm^3
# Si number density = 19.164563 Si / 1000 Ang^3
#
#
#
# Elastic Constant Matrix: (Units=GPa)
#
#
# Indices 1 2 3 4 5 6 
#
# 1 32.0488 10.6873 45.2989 0.0000 0.0000 0.0000
# 2 10.6873 24.3577 16.3975 0.0000 0.0000 0.0000
# 3 45.2989 16.3975 111.7481 0.0000 0.0000 0.0000
# 4 0.0000 0.0000 0.0000 18.1327 0.0000 0.0000
# 5 0.0000 0.0000 0.0000 0.0000 31.4594 0.0000
# 6 0.0000 0.0000 0.0000 0.0000 0.0000 9.6358
#
#
#
# Elastic Compliance Matrix: (Units=1/GPa)
#
#
# Indices 1 2 3 4 5 6 
#
# 1 0.077264 -0.014221 -0.029234 0.000000 0.000000 0.000000
# 2 -0.014221 0.048172 -0.001304 0.000000 0.000000 0.000000
# 3 -0.029234 -0.001304 0.020990 0.000000 0.000000 0.000000
# 4 0.000000 0.000000 0.000000 0.055149 0.000000 0.000000
# 5 0.000000 0.000000 0.000000 0.000000 0.031787 0.000000
# 6 0.000000 0.000000 0.000000 0.000000 0.000000 0.103780
#
#
# Mechanical properties :
#
#
# Convention : Reuss Voigt Hill
#
# Bulk Modulus (GPa) = 17.57156 34.76912 26.17034
# Shear Modulus (GPa) = 11.22007 18.23031 14.72519
#
# Velocity S-wave (km/s) = 2.42225 3.08758 2.77493
# Velocity P-wave (km/s) = 4.12453 5.55812 4.89410
#
# Compressibility (1/GPa) = 0.05691013
#
# Stress axis : x y z
#
# Youngs Moduli (GPa) = 12.94256 20.75888 47.64076
#
# Poissons Ratio (x) = 0.29521 1.39272
# Poissons Ratio (y) = 0.18405 0.06212
# Poissons Ratio (z) = 0.37836 0.02707
#
# Static dielectric constant tensor:
#      x y z
#    x 1.642280 0.000000 0.000000 
#    y 0.000000 1.707810 0.000000 
#    z 0.000000 0.000000 1.646860 
# 
# From -- ./inp_files/16787.got.cif
#   From: 2010.05.17/outbox.cif.g08.bks.cpg/sg44_9_cif.got.tgz:16787.got - 2010.06.03 19:37:08.
