data_PCOD9373289
_publ_section_title
;
Structure prediction by ZEFSAII (Michael W. Deem and Ramdas Pophale) SiO2 
 PCOD9373289
Probable space group: I M M 2
;
_chemical_formula_sum "Si O2"
_cell_formula_units_Z 64
_cell_length_a 7.676956
_cell_length_b 15.354415
_cell_length_c 28.517223
_cell_angle_alpha 90.000000
_cell_angle_beta 90.000000
_cell_angle_gamma 90.000000
_cell_volume 3361.472462
_symmetry_space_group_name_H-M "I M M 2"
_symmetry_group_IT_number 44
_symmetry_cell_setting 'orthorhombic'
loop_
_space_group_symop_operation_xyz
x,y,z
-x,-y,z
-x,y,z
x,-y,z
1/2+x,1/2+y,1/2+z
1/2-x,1/2-y,1/2+z
1/2-x,1/2+y,1/2+z
1/2+x,1/2-y,1/2+z
loop_
_atom_site_type_symbol
_atom_site_label
_atom_site_fract_x
_atom_site_fract_y
_atom_site_fract_z
Si Si1 0.708469 0.902367 0.408460
Si Si2 0.710461 0.900713 0.951550
Si Si3 0.791646 0.224070 0.598032
Si Si4 0.210477 0.901599 0.516449
Si Si5 0.712686 0.097634 0.059888
Si Si6 0.792497 0.402350 0.182126
Si Si7 0.291999 0.597473 0.290007
Si Si8 0.205155 0.226781 0.867782
O O1 0.500000 0.905936 0.401870
O O2 0.739308 0.881385 0.463194
O O3 0.779748 0.822498 0.377986
O O4 0.778052 0.000000 0.399613
O O5 0.500000 0.897524 0.949964
O O6 0.778663 0.831457 0.914562
O O7 0.763962 0.000000 0.939529
O O8 0.761530 0.884101 0.005590
O O9 0.723528 0.166212 0.554684
O O10 0.727264 0.322954 0.592371
O O11 0.759179 0.171436 0.645458
O O12 0.000000 0.228672 0.592587
O O13 0.000000 0.901587 0.518306
O O14 0.270512 0.000000 0.527180
O O15 0.500000 0.095275 0.060655
O O16 0.772159 0.000000 0.072134
O O17 0.724557 0.500000 0.169585
O O18 0.736499 0.383274 0.235315
O O19 0.000000 0.406882 0.181703
O O20 0.500000 0.593475 0.297718
O O21 0.221497 0.500000 0.299387
O O22 0.219838 0.670031 0.325125
O O23 0.000000 0.239138 0.858124
#
# Coordination Sequence:
#
# PCOD9373289 Si02
#       8
#     8   8   8   8   8   8   8   8
#     4   9  18  31  45  64  94 129 160 191 227 264
#     4   9  17  29  46  69  97 127 156 187 225 269
#     4  10  18  29  49  71  91 121 158 192 227 269
#     4   9  17  28  43  66  94 123 158 195 227 266
#     4   8  15  28  45  67  95 125 158 193 224 259
#     4  10  21  35  50  70  95 119 145 183 231 280
#     4   9  18  33  51  69  90 116 147 185 230 280
#     4  10  19  30  47  70  94 122 156 192 229 269
#
# _framework density 19.039273999999999
#
# number of rings (size 3 to 8) (size 9 to 14) (size 15 to 20)
#    0.000    2.750    0.000    2.625    0.000    4.500 
#    0.000    3.125    0.000    1.875    0.000    3.500 
#    0.000    0.000    0.000    0.000    0.000    0.000 
#
# Total GULP energy -178496.801682 kJ/mol
# GULP energy per Si atom -5578.025053 kJ/mol
# Density = 1.899594 g / cm^3
# Si number density = 19.039274 Si / 1000 Ang^3
#
#
#
# Elastic Constant Matrix: (Units=GPa)
#
#
# Indices 1 2 3 4 5 6 
#
# 1 31.2140 4.9243 -2.2838 0.0000 0.0000 0.0000
# 2 4.9243 172.4467 112.8916 0.0000 0.0000 0.0000
# 3 -2.2838 112.8916 96.3674 0.0000 0.0000 0.0000
# 4 0.0000 0.0000 0.0000 35.7790 0.0000 0.0000
# 5 0.0000 0.0000 0.0000 0.0000 15.8750 0.0000
# 6 0.0000 0.0000 0.0000 0.0000 0.0000 9.3877
#
#
#
# Elastic Compliance Matrix: (Units=1/GPa)
#
#
# Indices 1 2 3 4 5 6 
#
# 1 0.033644 -0.006361 0.008249 0.000000 0.000000 0.000000
# 2 -0.006361 0.026080 -0.030702 0.000000 0.000000 0.000000
# 3 0.008249 -0.030702 0.046539 0.000000 0.000000 0.000000
# 4 0.000000 0.000000 0.000000 0.027949 0.000000 0.000000
# 5 0.000000 0.000000 0.000000 0.000000 0.062992 0.000000
# 6 0.000000 0.000000 0.000000 0.000000 0.000000 0.106522
#
#
# Mechanical properties :
#
#
# Convention : Reuss Voigt Hill
#
# Bulk Modulus (GPa) = 20.56169 59.01025 39.78597
# Shear Modulus (GPa) = 13.24270 24.50808 18.87539
#
# Velocity S-wave (km/s) = 2.64018 3.59170 3.15205
# Velocity P-wave (km/s) = 4.48521 6.94706 5.84717
#
# Compressibility (1/GPa) = 0.04863413
#
# Stress axis : x y z
#
# Youngs Moduli (GPa) = 29.72314 38.34404 21.48723
#
# Poissons Ratio (x) = 0.24389 -0.17724
# Poissons Ratio (y) = 0.18906 0.65971
# Poissons Ratio (z) = -0.24517 1.17725
#
# Static dielectric constant tensor:
#      x y z
#    x 1.720870 0.000000 0.000000 
#    y 0.000000 1.699900 0.000000 
#    z 0.000000 0.000000 1.631080 
# 
# From -- ./inp_files/25122.got.cif
#   From: 2010.05.17/outbox.cif.g08.bks.cpg/sg44_13_cif.got.tgz:25122.got - 2010.06.03 19:37:08.
