data_PCOD9373958
_publ_section_title
;
Structure prediction by ZEFSAII (Michael W. Deem and Ramdas Pophale) SiO2 
 PCOD9373958
Probable space group: I M M 2
;
_chemical_formula_sum "Si O2"
_cell_formula_units_Z 48
_cell_length_a 8.245314
_cell_length_b 32.881513
_cell_length_c 9.105139
_cell_angle_alpha 90.000000
_cell_angle_beta 90.000000
_cell_angle_gamma 90.000000
_cell_volume 2468.570713
_symmetry_space_group_name_H-M "I M M 2"
_symmetry_group_IT_number 44
_symmetry_cell_setting 'orthorhombic'
loop_
_space_group_symop_operation_xyz
x,y,z
-x,-y,z
-x,y,z
x,-y,z
1/2+x,1/2+y,1/2+z
1/2-x,1/2-y,1/2+z
1/2-x,1/2+y,1/2+z
1/2+x,1/2-y,1/2+z
loop_
_atom_site_type_symbol
_atom_site_label
_atom_site_fract_x
_atom_site_fract_y
_atom_site_fract_z
Si Si1 0.696244 0.456047 0.880270
Si Si2 0.307139 0.043491 0.718126
Si Si3 0.808568 0.132759 0.354975
Si Si4 0.692603 0.130798 0.688201
Si Si5 0.308707 0.789133 0.186107
Si Si6 0.309093 0.291299 0.357841
O O1 0.500000 0.454619 0.897156
O O2 0.737196 0.500000 0.810736
O O3 0.744340 0.413090 0.809288
O O4 0.773317 0.456316 0.042825
O O5 0.500000 0.042461 0.744399
O O6 0.248451 0.088411 0.763184
O O7 0.238893 0.000000 0.773838
O O8 0.776660 0.135805 0.529799
O O9 0.720750 0.169056 0.272241
O O10 0.000000 0.136770 0.327406
O O11 0.500000 0.126855 0.660890
O O12 0.723910 0.169791 0.787081
O O13 0.500000 0.784553 0.159003
O O14 0.252691 0.750673 0.282785
O O15 0.220890 0.789491 0.030608
O O16 0.500000 0.295534 0.328892
#
# Coordination Sequence:
#
# PCOD9373958 Si02
#       6
#     8   8   8   8   8   8
#     4   8  14  25  43  70 103 137 172 210 252 297
#     4   8  14  25  43  70 103 137 172 210 252 297
#     4  10  19  32  53  80 110 142 176 216 259 305
#     4  10  19  32  53  80 110 142 176 216 259 305
#     4  11  24  40  58  79 104 135 171 213 261 313
#     4  11  24  40  58  79 104 135 171 213 261 313
#
# _framework density 19.444451999999998
#
# number of rings (size 3 to 8) (size 9 to 14) (size 15 to 20)
#    0.000    2.333    0.000    3.000    0.000    6.667 
#    0.000    0.000    0.000    1.000    0.000    0.000 
#    0.000    0.000    0.000    0.000    0.000    0.000 
#
# Total GULP energy -133762.795957 kJ/mol
# GULP energy per Si atom -5573.449832 kJ/mol
# Density = 1.940020 g / cm^3
# Si number density = 19.444452 Si / 1000 Ang^3
#
#
#
# Elastic Constant Matrix: (Units=GPa)
#
#
# Indices 1 2 3 4 5 6 
#
# 1 19.3120 3.3022 -9.0804 -0.0001 0.0000 -0.0001
# 2 3.3022 181.5181 31.9486 0.0005 0.0000 -0.0001
# 3 -9.0804 31.9486 34.6432 -0.0008 0.0000 0.0002
# 4 -0.0001 0.0005 -0.0008 19.9803 0.0000 0.0003
# 5 0.0000 0.0000 0.0000 0.0000 23.5697 0.0001
# 6 -0.0001 -0.0001 0.0002 0.0003 0.0001 25.8863
#
#
#
# Elastic Compliance Matrix: (Units=1/GPa)
#
#
# Indices 1 2 3 4 5 6 
#
# 1 0.062362 -0.004789 0.020762 0.000001 0.000000 0.000000
# 2 -0.004789 0.006944 -0.007659 -0.000001 0.000000 0.000000
# 3 0.020762 -0.007659 0.041371 0.000002 0.000000 0.000000
# 4 0.000001 -0.000001 0.000002 0.050049 0.000000 -0.000001
# 5 0.000000 0.000000 0.000000 0.000000 0.042427 0.000000
# 6 0.000000 0.000000 0.000000 -0.000001 0.000000 0.038630
#
#
# Mechanical properties :
#
#
# Convention : Reuss Voigt Hill
#
# Bulk Modulus (GPa) = 7.85507 31.97935 19.91721
# Shear Modulus (GPa) = 18.68513 27.84080 23.26296
#
# Velocity S-wave (km/s) = 3.10328 3.78803 3.46263
# Velocity P-wave (km/s) = 4.10962 5.96779 5.12365
#
# Compressibility (1/GPa) = 0.12730630
#
# Stress axis : x y z
#
# Youngs Moduli (GPa) = 16.03530 144.00254 24.17130
#
# Poissons Ratio (x) = 0.68960 -0.50185
# Poissons Ratio (y) = 0.07679 0.18514
# Poissons Ratio (z) = -0.33293 1.10297
#
# Static dielectric constant tensor:
#      x y z
#    x 1.672230 0.000000 0.000000 
#    y 0.000000 1.758630 0.000000 
#    z 0.000000 0.000000 1.628320 
# 
# From -- ./inp_files/4900.got.cif
#   From: 2010.05.17/outbox.cif.g08.bks.cpg/sg44_3_cif.got.tgz:4900.got - 2010.06.03 19:37:08.
