data_PCOD9373466
_publ_section_title
;
Structure prediction by ZEFSAII (Michael W. Deem and Ramdas Pophale) SiO2 
 PCOD9373466
Probable space group: I M M 2
;
_chemical_formula_sum "Si O2"
_cell_formula_units_Z 56
_cell_length_a 20.228775
_cell_length_b 9.687272
_cell_length_c 15.470908
_cell_angle_alpha 90.000000
_cell_angle_beta 90.000000
_cell_angle_gamma 90.000000
_cell_volume 3031.704591
_symmetry_space_group_name_H-M "I M M 2"
_symmetry_group_IT_number 44
_symmetry_cell_setting 'orthorhombic'
loop_
_space_group_symop_operation_xyz
x,y,z
-x,-y,z
-x,y,z
x,-y,z
1/2+x,1/2+y,1/2+z
1/2-x,1/2-y,1/2+z
1/2-x,1/2+y,1/2+z
1/2+x,1/2-y,1/2+z
loop_
_atom_site_type_symbol
_atom_site_label
_atom_site_fract_x
_atom_site_fract_y
_atom_site_fract_z
Si Si1 0.180191 0.835796 0.476130
Si Si2 0.924155 0.151552 0.724067
Si Si3 0.573775 0.835959 0.576634
Si Si4 0.579647 0.841053 0.070321
Si Si5 0.398547 0.844863 0.373337
Si Si6 0.781565 0.333085 0.133221
Si Si7 0.251058 0.842347 0.299572
O O1 0.116046 0.746920 0.497944
O O2 0.237520 0.802235 0.547349
O O3 0.202000 0.808141 0.378189
O O4 0.167682 0.000000 0.485049
O O5 0.897448 0.265513 0.658441
O O6 0.925839 0.219681 0.817503
O O7 0.000000 0.134983 0.696675
O O8 0.892097 0.000000 0.720434
O O9 0.500000 0.779548 0.597604
O O10 0.586017 0.824966 0.473589
O O11 0.641906 0.785565 0.620079
O O12 0.571327 0.000000 0.595182
O O13 0.500000 0.838229 0.063182
O O14 0.600345 0.000000 0.070721
O O15 0.321621 0.842263 0.348119
O O16 0.422787 0.000000 0.349052
O O17 0.780965 0.500000 0.142078
O O18 0.753745 0.260191 0.218986
O O19 0.239205 0.000000 0.269777
#
# Coordination Sequence:
#
# PCOD9373466 Si02
#       7
#     8   8   8   8   8   8   8
#     4  10  20  37  58  80 112 147 183 229 283 339
#     4  10  20  32  47  73 110 146 177 213 268 335
#     4   9  17  32  56  82 109 146 190 237 288 336
#     4  10  21  36  54  78 107 140 183 232 278 329
#     4  10  18  32  54  80 107 138 183 234 280 332
#     4  10  20  36  57  83 113 148 191 237 279 334
#     4  10  21  36  55  81 112 145 183 231 283 338
#
# _framework density 18.471456
#
# number of rings (size 3 to 8) (size 9 to 14) (size 15 to 20)
#    0.000    2.143    1.429    2.143    0.000    6.286 
#    0.000    1.429    0.000    3.857    0.000    0.000 
#    0.000    0.000    0.000    0.000    0.000    0.000 
#
# Total GULP energy -156023.103863 kJ/mol
# GULP energy per Si atom -5572.253709 kJ/mol
# Density = 1.842941 g / cm^3
# Si number density = 18.471456 Si / 1000 Ang^3
#
#
#
# Elastic Constant Matrix: (Units=GPa)
#
#
# Indices 1 2 3 4 5 6 
#
# 1 74.6588 21.8824 15.5294 0.0000 0.0000 0.0000
# 2 21.8824 59.3656 35.9921 0.0000 0.0000 0.0000
# 3 15.5294 35.9921 51.6201 0.0000 0.0000 0.0000
# 4 0.0000 0.0000 0.0000 24.0146 0.0000 0.0000
# 5 0.0000 0.0000 0.0000 0.0000 29.3118 0.0000
# 6 0.0000 0.0000 0.0000 0.0000 0.0000 10.8362
#
#
#
# Elastic Compliance Matrix: (Units=1/GPa)
#
#
# Indices 1 2 3 4 5 6 
#
# 1 0.015055 -0.004856 -0.001143 0.000000 0.000000 0.000000
# 2 -0.004856 0.030746 -0.019977 0.000000 0.000000 0.000000
# 3 -0.001143 -0.019977 0.033645 0.000000 0.000000 0.000000
# 4 0.000000 0.000000 0.000000 0.041641 0.000000 0.000000
# 5 0.000000 0.000000 0.000000 0.000000 0.034116 0.000000
# 6 0.000000 0.000000 0.000000 0.000000 0.000000 0.092283
#
#
# Mechanical properties :
#
#
# Convention : Reuss Voigt Hill
#
# Bulk Modulus (GPa) = 36.37159 36.93915 36.65537
# Shear Modulus (GPa) = 16.20192 20.31521 18.25857
#
# Velocity S-wave (km/s) = 2.96486 3.31995 3.14741
# Velocity P-wave (km/s) = 5.60838 5.89385 5.75289
#
# Compressibility (1/GPa) = 0.02749398
#
# Stress axis : x y z
#
# Youngs Moduli (GPa) = 66.42107 32.52408 29.72200
#
# Poissons Ratio (x) = 0.15795 0.03398
# Poissons Ratio (y) = 0.32257 0.59375
# Poissons Ratio (z) = 0.07593 0.64973
#
# Static dielectric constant tensor:
#      x y z
#    x 1.747320 0.000000 0.000000 
#    y 0.000000 1.632910 0.000000 
#    z 0.000000 0.000000 1.629380 
# 
# From -- ./inp_files/16438.got.cif
#   From: 2010.05.17/outbox.cif.g08.bks.cpg/sg44_9_cif.got.tgz:16438.got - 2010.06.03 19:37:08.
