data_PCOD9373211
_publ_section_title
;
Structure prediction by ZEFSAII (Michael W. Deem and Ramdas Pophale) SiO2 
 PCOD9373211
Probable space group: I M M 2
;
_chemical_formula_sum "Si O2"
_cell_formula_units_Z 64
_cell_length_a 28.546604
_cell_length_b 7.470212
_cell_length_c 15.339541
_cell_angle_alpha 90.000000
_cell_angle_beta 90.000000
_cell_angle_gamma 90.000000
_cell_volume 3271.144598
_symmetry_space_group_name_H-M "I M M 2"
_symmetry_group_IT_number 44
_symmetry_cell_setting 'orthorhombic'
loop_
_space_group_symop_operation_xyz
x,y,z
-x,-y,z
-x,y,z
x,-y,z
1/2+x,1/2+y,1/2+z
1/2-x,1/2-y,1/2+z
1/2-x,1/2+y,1/2+z
1/2+x,1/2-y,1/2+z
loop_
_atom_site_type_symbol
_atom_site_label
_atom_site_fract_x
_atom_site_fract_y
_atom_site_fract_z
Si Si1 0.135386 0.712731 0.472590
Si Si2 0.053568 0.718442 0.348456
Si Si3 0.281084 0.713891 0.841193
Si Si4 0.724689 0.793658 0.644715
Si Si5 0.053432 0.281774 0.150139
Si Si6 0.173937 0.718769 0.847639
Si Si7 0.361964 0.780756 0.529744
Si Si8 0.832064 0.706182 0.655106
O O1 0.128124 0.500000 0.482052
O O2 0.091317 0.783603 0.418065
O O3 0.181549 0.735098 0.413628
O O4 0.144436 0.787246 0.569225
O O5 0.054538 0.500000 0.348852
O O6 0.065422 0.772841 0.249274
O O7 0.000000 0.771736 0.366713
O O8 0.280621 0.500000 0.834541
O O9 0.292725 0.784828 0.744710
O O10 0.228103 0.772307 0.862873
O O11 0.684520 0.721837 0.581775
O O12 0.775753 0.706277 0.641530
O O13 0.732683 0.000000 0.620438
O O14 0.053655 0.500000 0.149589
O O15 0.091948 0.221338 0.081105
O O16 0.000000 0.226098 0.131625
O O17 0.173749 0.500000 0.845279
O O18 0.159861 0.784221 0.751419
O O19 0.142834 0.774175 0.929416
O O20 0.361847 0.000000 0.532076
O O21 0.847421 0.500000 0.660165
#
# Coordination Sequence:
#
# PCOD9373211 Si02
#       8
#     8   8   8   8   8   8   8   8
#     4  10  18  28  45  66  86 114 153 188 219 264
#     4   8  14  25  41  62  87 111 139 181 228 270
#     4  10  19  30  43  62  90 119 144 176 222 268
#     4  10  18  28  44  65  87 114 149 182 212 257
#     4   8  13  21  34  55  82 106 130 169 219 261
#     4   8  15  27  39  53  79 114 143 168 207 254
#     4   9  15  23  39  60  80 106 141 174 205 251
#     4   9  18  30  42  60  89 120 147 181 222 258
#
# _framework density 19.565017000000001
#
# number of rings (size 3 to 8) (size 9 to 14) (size 15 to 20)
#    0.000    3.000    0.000    3.750    0.000    3.500 
#    0.000    0.000    0.000    1.875    0.000    5.250 
#    0.000    1.500    0.000    0.375    0.000    2.500 
#
# Total GULP energy -178531.949889 kJ/mol
# GULP energy per Si atom -5579.123434 kJ/mol
# Density = 1.952049 g / cm^3
# Si number density = 19.565017 Si / 1000 Ang^3
#
#
#
# Elastic Constant Matrix: (Units=GPa)
#
#
# Indices 1 2 3 4 5 6 
#
# 1 94.4756 3.1433 113.1749 0.0000 0.0000 0.0000
# 2 3.1433 56.9209 2.4710 0.0000 0.0000 0.0000
# 3 113.1749 2.4710 196.8614 0.0000 0.0000 0.0000
# 4 0.0000 0.0000 0.0000 2.5893 0.0000 0.0000
# 5 0.0000 0.0000 0.0000 0.0000 32.4956 0.0000
# 6 0.0000 0.0000 0.0000 0.0000 0.0000 3.5419
#
#
#
# Elastic Compliance Matrix: (Units=1/GPa)
#
#
# Indices 1 2 3 4 5 6 
#
# 1 0.034060 -0.001031 -0.019568 0.000000 0.000000 0.000000
# 2 -0.001031 0.017609 0.000372 0.000000 0.000000 0.000000
# 3 -0.019568 0.000372 0.016325 0.000000 0.000000 0.000000
# 4 0.000000 0.000000 0.000000 0.386207 0.000000 0.000000
# 5 0.000000 0.000000 0.000000 0.000000 0.030773 0.000000
# 6 0.000000 0.000000 0.000000 0.000000 0.000000 0.282332
#
#
# Mechanical properties :
#
#
# Convention : Reuss Voigt Hill
#
# Bulk Modulus (GPa) = 36.31250 65.09293 50.70272
# Shear Modulus (GPa) = 6.12039 23.02328 14.57183
#
# Velocity S-wave (km/s) = 1.77060 3.43411 2.73205
# Velocity P-wave (km/s) = 4.77286 7.00474 5.99361
#
# Compressibility (1/GPa) = 0.02753872
#
# Stress axis : x y z
#
# Youngs Moduli (GPa) = 29.35955 56.78902 61.25651
#
# Poissons Ratio (x) = 0.05857 1.19869
# Poissons Ratio (y) = 0.03028 -0.02278
# Poissons Ratio (z) = 0.57452 -0.02112
#
# Static dielectric constant tensor:
#      x y z
#    x 1.652540 0.000000 0.000000 
#    y 0.000000 1.825270 0.000000 
#    z 0.000000 0.000000 1.698590 
# 
# From -- ./inp_files/19691.got.cif
#   From: 2010.05.17/outbox.cif.g08.bks.cpg/sg44_10_cif.got.tgz:19691.got - 2010.06.03 19:37:08.
