data_PCOD9373719
_publ_section_title
;
Structure prediction by ZEFSAII (Michael W. Deem and Ramdas Pophale) SiO2 
 PCOD9373719
Probable space group: I M M 2
;
_chemical_formula_sum "Si O2"
_cell_formula_units_Z 48
_cell_length_a 8.690622
_cell_length_b 14.139455
_cell_length_c 24.388782
_cell_angle_alpha 90.000000
_cell_angle_beta 90.000000
_cell_angle_gamma 90.000000
_cell_volume 2996.909597
_symmetry_space_group_name_H-M "I M M 2"
_symmetry_group_IT_number 44
_symmetry_cell_setting 'orthorhombic'
loop_
_space_group_symop_operation_xyz
x,y,z
-x,-y,z
-x,y,z
x,-y,z
1/2+x,1/2+y,1/2+z
1/2-x,1/2-y,1/2+z
1/2-x,1/2+y,1/2+z
1/2+x,1/2-y,1/2+z
loop_
_atom_site_type_symbol
_atom_site_label
_atom_site_fract_x
_atom_site_fract_y
_atom_site_fract_z
Si Si1 0.184621 0.108898 0.476310
Si Si2 0.684072 0.610675 0.761469
Si Si3 0.686852 0.393892 0.428148
Si Si4 0.815683 0.389857 0.642304
Si Si5 0.815301 0.784378 0.038104
Si Si6 0.685053 0.793474 0.368477
O O1 0.250908 0.182352 0.520544
O O2 0.251298 0.140863 0.417457
O O3 0.000000 0.116839 0.474657
O O4 0.225501 0.000000 0.487403
O O5 0.500000 0.618521 0.760320
O O6 0.723781 0.500000 0.771353
O O7 0.751744 0.636387 0.702149
O O8 0.751610 0.672117 0.810645
O O9 0.500000 0.396670 0.427328
O O10 0.743891 0.500000 0.418462
O O11 0.730552 0.354959 0.488249
O O12 0.733001 0.313415 0.384828
O O13 0.771049 0.500000 0.632249
O O14 0.748777 0.324721 0.594592
O O15 0.000000 0.384536 0.642622
O O16 0.000000 0.780697 0.039660
O O17 0.500000 0.798204 0.368914
#
# Coordination Sequence:
#
# PCOD9373719 Si02
#       6
#     8   8   8   8   8   8
#     4  10  20  33  49  70  98 131 164 199 241 290
#     4  10  20  33  49  69  95 128 162 197 241 291
#     4   8  15  28  46  69  96 125 156 189 229 279
#     4  10  20  33  50  73 100 128 159 198 242 289
#     4  10  19  31  50  74  99 128 161 199 241 287
#     4  10  19  30  48  73  98 126 160 200 244 289
#
# _framework density 16.016500000000001
#
# number of rings (size 3 to 8) (size 9 to 14) (size 15 to 20)
#    0.000    2.333    0.000    4.500    0.000    6.000 
#    0.000    0.000    0.000   11.000    0.000    2.333 
#    0.000    0.000    0.000    0.000    0.000    0.000 
#
# Total GULP energy -133895.297610 kJ/mol
# GULP energy per Si atom -5578.970734 kJ/mol
# Density = 1.598005 g / cm^3
# Si number density = 16.016500 Si / 1000 Ang^3
#
#
#
# Elastic Constant Matrix: (Units=GPa)
#
#
# Indices 1 2 3 4 5 6 
#
# 1 52.3076 46.9452 49.1322 0.0000 0.0000 0.0000
# 2 46.9452 140.9725 98.9690 0.0000 0.0000 0.0000
# 3 49.1322 98.9690 154.7211 0.0000 0.0000 0.0000
# 4 0.0000 0.0000 0.0000 22.2474 0.0000 0.0000
# 5 0.0000 0.0000 0.0000 0.0000 31.6756 0.0000
# 6 0.0000 0.0000 0.0000 0.0000 0.0000 21.6211
#
#
#
# Elastic Compliance Matrix: (Units=1/GPa)
#
#
# Indices 1 2 3 4 5 6 
#
# 1 0.029757 -0.005945 -0.005647 0.000000 0.000000 0.000000
# 2 -0.005945 0.014064 -0.007108 0.000000 0.000000 0.000000
# 3 -0.005647 -0.007108 0.012803 0.000000 0.000000 0.000000
# 4 0.000000 0.000000 0.000000 0.044949 0.000000 0.000000
# 5 0.000000 0.000000 0.000000 0.000000 0.031570 0.000000
# 6 0.000000 0.000000 0.000000 0.000000 0.000000 0.046251
#
#
# Mechanical properties :
#
#
# Convention : Reuss Voigt Hill
#
# Bulk Modulus (GPa) = 52.01776 82.01045 67.01410
# Shear Modulus (GPa) = 22.40127 25.30581 23.85354
#
# Velocity S-wave (km/s) = 3.74389 3.97921 3.86334
# Velocity P-wave (km/s) = 7.15801 8.51041 7.86334
#
# Compressibility (1/GPa) = 0.01922420
#
# Stress axis : x y z
#
# Youngs Moduli (GPa) = 33.60517 71.10603 78.10696
#
# Poissons Ratio (x) = 0.42275 0.44103
# Poissons Ratio (y) = 0.19980 0.55518
# Poissons Ratio (z) = 0.18975 0.50541
#
# Static dielectric constant tensor:
#      x y z
#    x 1.537750 0.000000 0.000000 
#    y 0.000000 1.537170 0.000000 
#    z 0.000000 0.000000 1.503900 
# 
# From -- ./inp_files/22899.got.cif
#   From: 2010.05.17/outbox.cif.g08.bks.cpg/sg44_12_cif.got.tgz:22899.got - 2010.06.03 19:37:08.
