data_PCOD9373808
_publ_section_title
;
Structure prediction by ZEFSAII (Michael W. Deem and Ramdas Pophale) SiO2 
 PCOD9373808
Probable space group: I M M 2
;
_chemical_formula_sum "Si O2"
_cell_formula_units_Z 64
_cell_length_a 27.836108
_cell_length_b 8.951296
_cell_length_c 15.099242
_cell_angle_alpha 90.000000
_cell_angle_beta 90.000000
_cell_angle_gamma 90.000000
_cell_volume 3762.266687
_symmetry_space_group_name_H-M "I M M 2"
_symmetry_group_IT_number 44
_symmetry_cell_setting 'orthorhombic'
loop_
_space_group_symop_operation_xyz
x,y,z
-x,-y,z
-x,y,z
x,-y,z
1/2+x,1/2+y,1/2+z
1/2-x,1/2-y,1/2+z
1/2-x,1/2+y,1/2+z
1/2+x,1/2-y,1/2+z
loop_
_atom_site_type_symbol
_atom_site_label
_atom_site_fract_x
_atom_site_fract_y
_atom_site_fract_z
Si Si1 0.716132 0.677390 0.222600
Si Si2 0.169641 0.822191 0.025229
Si Si3 0.717719 0.821667 0.035141
Si Si4 0.365908 0.820425 0.900521
Si Si5 0.556819 0.320938 0.228094
Si Si6 0.362517 0.822146 0.347994
Si Si7 0.170512 0.320885 0.213174
Si Si8 0.444299 0.320311 0.025714
O O1 0.708319 0.500000 0.230548
O O2 0.703854 0.733597 0.123865
O O3 0.683245 0.760536 0.293253
O O4 0.773006 0.707496 0.233471
O O5 0.226718 0.789788 0.013234
O O6 0.157313 0.761259 0.122596
O O7 0.163190 0.000000 0.020567
O O8 0.141231 0.742877 0.946731
O O9 0.714001 0.000000 0.052297
O O10 0.682411 0.783192 0.955200
O O11 0.359649 0.773193 0.798859
O O12 0.370180 0.000000 0.901079
O O13 0.409839 0.750644 0.953554
O O14 0.500000 0.292417 0.241091
O O15 0.564097 0.500000 0.235494
O O16 0.590735 0.237763 0.296659
O O17 0.569084 0.276797 0.126637
O O18 0.361926 0.000000 0.349412
O O19 0.165885 0.500000 0.201117
O O20 0.500000 0.278747 0.012049
O O21 0.441206 0.500000 0.021706
#
# Coordination Sequence:
#
# PCOD9373808 Si02
#       8
#     8   8   8   8   8   8   8   8
#     4  10  19  32  50  72 102 139 174 208 249 297
#     4  10  20  35  53  72  99 136 175 212 251 297
#     4   9  18  32  49  74 106 135 166 207 252 298
#     4  10  19  31  50  74 101 133 166 202 248 299
#     4   9  19  37  58  78 102 132 165 204 254 309
#     4  12  23  33  50  76 105 136 171 210 252 300
#     4   9  19  35  51  71 102 136 170 212 257 296
#     4   9  19  35  53  75 103 131 161 201 247 296
#
# _framework density 17.011022000000001
#
# number of rings (size 3 to 8) (size 9 to 14) (size 15 to 20)
#    0.000    2.250    0.000    4.125    0.000    7.000 
#    0.000    2.500    0.000    0.750    0.000    3.500 
#    0.000    0.000    0.000    0.000    0.000    0.000 
#
# Total GULP energy -178656.468373 kJ/mol
# GULP energy per Si atom -5583.014637 kJ/mol
# Density = 1.697230 g / cm^3
# Si number density = 17.011022 Si / 1000 Ang^3
#
#
#
# Elastic Constant Matrix: (Units=GPa)
#
#
# Indices 1 2 3 4 5 6 
#
# 1 68.7130 43.6505 83.5044 0.0000 0.0000 0.0000
# 2 43.6505 57.8857 69.6815 0.0000 0.0000 0.0000
# 3 83.5044 69.6815 168.4346 0.0000 0.0000 0.0000
# 4 0.0000 0.0000 0.0000 30.8160 0.0000 0.0000
# 5 0.0000 0.0000 0.0000 0.0000 26.8272 0.0000
# 6 0.0000 0.0000 0.0000 0.0000 0.0000 24.9266
#
#
#
# Elastic Compliance Matrix: (Units=1/GPa)
#
#
# Indices 1 2 3 4 5 6 
#
# 1 0.040881 -0.012809 -0.014968 0.000000 0.000000 0.000000
# 2 -0.012809 0.038427 -0.009547 0.000000 0.000000 0.000000
# 3 -0.014968 -0.009547 0.017307 0.000000 0.000000 0.000000
# 4 0.000000 0.000000 0.000000 0.032451 0.000000 0.000000
# 5 0.000000 0.000000 0.000000 0.000000 0.037276 0.000000
# 6 0.000000 0.000000 0.000000 0.000000 0.000000 0.040118
#
#
# Mechanical properties :
#
#
# Convention : Reuss Voigt Hill
#
# Bulk Modulus (GPa) = 45.52362 76.52291 61.02326
# Shear Modulus (GPa) = 17.33528 23.06042 20.19785
#
# Velocity S-wave (km/s) = 3.19574 3.68586 3.44952
# Velocity P-wave (km/s) = 6.35896 7.94960 7.19835
#
# Compressibility (1/GPa) = 0.02196662
#
# Stress axis : x y z
#
# Youngs Moduli (GPa) = 24.46145 26.02356 57.77879
#
# Poissons Ratio (x) = 0.33333 0.86485
# Poissons Ratio (y) = 0.31332 0.55161
# Poissons Ratio (z) = 0.36615 0.24845
#
# Static dielectric constant tensor:
#      x y z
#    x 1.563540 0.000000 0.000000 
#    y 0.000000 1.566410 0.000000 
#    z 0.000000 0.000000 1.564980 
# 
# From -- ./inp_files/16766.got.cif
#   From: 2010.05.17/outbox.cif.g08.bks.cpg/sg44_9_cif.got.tgz:16766.got - 2010.06.03 19:37:08.
