data_PCOD9373251
_publ_section_title
;
Structure prediction by ZEFSAII (Michael W. Deem and Ramdas Pophale) SiO2 
 PCOD9373251
Probable space group: I M M 2
;
_chemical_formula_sum "Si O2"
_cell_formula_units_Z 64
_cell_length_a 19.250275
_cell_length_b 7.601497
_cell_length_c 22.600907
_cell_angle_alpha 90.000000
_cell_angle_beta 90.000000
_cell_angle_gamma 90.000000
_cell_volume 3307.211235
_symmetry_space_group_name_H-M "I M M 2"
_symmetry_group_IT_number 44
_symmetry_cell_setting 'orthorhombic'
loop_
_space_group_symop_operation_xyz
x,y,z
-x,-y,z
-x,y,z
x,-y,z
1/2+x,1/2+y,1/2+z
1/2-x,1/2-y,1/2+z
1/2-x,1/2+y,1/2+z
1/2+x,1/2-y,1/2+z
loop_
_atom_site_type_symbol
_atom_site_label
_atom_site_fract_x
_atom_site_fract_y
_atom_site_fract_z
Si Si1 0.922716 0.289556 0.427210
Si Si2 0.277333 0.791363 0.421142
Si Si3 0.229912 0.792304 0.292346
Si Si4 0.075960 0.288517 0.289765
Si Si5 0.078864 0.216346 0.616014
Si Si6 0.813342 0.197004 0.520370
Si Si7 0.423633 0.287082 0.371761
Si Si8 0.624209 0.294764 0.244485
O O1 0.909686 0.500000 0.429478
O O2 0.921492 0.235030 0.358845
O O3 0.868637 0.190838 0.466970
O O4 0.000000 0.257657 0.450063
O O5 0.240841 0.721815 0.360231
O O6 0.249973 0.717358 0.483753
O O7 0.358893 0.767366 0.411383
O O8 0.262904 0.000000 0.423407
O O9 0.152430 0.762841 0.267571
O O10 0.292676 0.718600 0.252952
O O11 0.241492 0.000000 0.295862
O O12 0.073874 0.500000 0.287828
O O13 0.000000 0.226784 0.266219
O O14 0.140775 0.278583 0.572827
O O15 0.096525 0.275910 0.682600
O O16 0.000000 0.269392 0.600080
O O17 0.080020 0.000000 0.613551
O O18 0.792877 0.000000 0.540100
O O19 0.500000 0.229765 0.390940
O O20 0.422746 0.500000 0.369930
O O21 0.408196 0.221081 0.304981
O O22 0.604860 0.500000 0.243561
#
# Coordination Sequence:
#
# PCOD9373251 Si02
#       8
#     8   8   8   8   8   8   8   8
#     4   9  17  27  39  58  86 120 154 185 218 259
#     4   9  18  29  41  63  93 121 148 180 224 277
#     4  10  18  29  44  65  92 121 154 190 230 277
#     4   9  17  28  42  62  89 120 153 187 225 271
#     4   9  17  29  47  70  93 121 160 199 228 260
#     4  10  18  29  44  64  91 123 157 190 223 265
#     4   9  17  29  47  69  89 112 146 188 231 275
#     4   9  17  30  48  67  89 119 154 193 233 270
#
# _framework density 19.351652999999999
#
# number of rings (size 3 to 8) (size 9 to 14) (size 15 to 20)
#    0.000    2.750    1.250    1.875    0.000    3.750 
#    0.000    1.875    0.000    1.875    0.000    0.875 
#    0.000    3.000    0.000    0.000    0.000    0.125 
#
# Total GULP energy -178237.538262 kJ/mol
# GULP energy per Si atom -5569.923071 kJ/mol
# Density = 1.930761 g / cm^3
# Si number density = 19.351653 Si / 1000 Ang^3
#
#
#
# Elastic Constant Matrix: (Units=GPa)
#
#
# Indices 1 2 3 4 5 6 
#
# 1 137.2041 -2.4019 42.9560 0.0000 0.0000 0.0000
# 2 -2.4019 38.2362 1.6511 0.0000 0.0000 0.0000
# 3 42.9560 1.6511 72.5325 0.0000 0.0000 0.0000
# 4 0.0000 0.0000 0.0000 6.7994 0.0000 0.0000
# 5 0.0000 0.0000 0.0000 0.0000 25.3243 0.0000
# 6 0.0000 0.0000 0.0000 0.0000 0.0000 30.7112
#
#
#
# Elastic Compliance Matrix: (Units=1/GPa)
#
#
# Indices 1 2 3 4 5 6 
#
# 1 0.008971 0.000794 -0.005331 0.000000 0.000000 0.000000
# 2 0.000794 0.026249 -0.001068 0.000000 0.000000 0.000000
# 3 -0.005331 -0.001068 0.016969 0.000000 0.000000 0.000000
# 4 0.000000 0.000000 0.000000 0.147071 0.000000 0.000000
# 5 0.000000 0.000000 0.000000 0.000000 0.039488 0.000000
# 6 0.000000 0.000000 0.000000 0.000000 0.000000 0.032561
#
#
# Mechanical properties :
#
#
# Convention : Reuss Voigt Hill
#
# Bulk Modulus (GPa) = 24.40275 36.93146 30.66711
# Shear Modulus (GPa) = 16.88168 26.28482 21.58325
#
# Velocity S-wave (km/s) = 2.95678 3.68947 3.34326
# Velocity P-wave (km/s) = 4.92893 6.10536 5.54841
#
# Compressibility (1/GPa) = 0.04097899
#
# Stress axis : x y z
#
# Youngs Moduli (GPa) = 111.46519 38.09644 58.93258
#
# Poissons Ratio (x) = -0.03024 0.31418
# Poissons Ratio (y) = -0.08848 0.06292
# Poissons Ratio (z) = 0.59425 0.04067
#
# Static dielectric constant tensor:
#      x y z
#    x 1.742250 0.000000 0.000000 
#    y 0.000000 1.768540 0.000000 
#    z 0.000000 0.000000 1.682910 
# 
# From -- ./inp_files/25209.got.cif
#   From: 2010.05.17/outbox.cif.g08.bks.cpg/sg44_13_cif.got.tgz:25209.got - 2010.06.03 19:37:08.
