data_PCOD9373748
_publ_section_title
;
Structure prediction by ZEFSAII (Michael W. Deem and Ramdas Pophale) SiO2 
 PCOD9373748
Probable space group: I M M 2
;
_chemical_formula_sum "Si O2"
_cell_formula_units_Z 64
_cell_length_a 26.953777
_cell_length_b 8.854687
_cell_length_c 18.610017
_cell_angle_alpha 90.000000
_cell_angle_beta 90.000000
_cell_angle_gamma 90.000000
_cell_volume 4441.601744
_symmetry_space_group_name_H-M "I M M 2"
_symmetry_group_IT_number 44
_symmetry_cell_setting 'orthorhombic'
loop_
_space_group_symop_operation_xyz
x,y,z
-x,-y,z
-x,y,z
x,-y,z
1/2+x,1/2+y,1/2+z
1/2-x,1/2-y,1/2+z
1/2-x,1/2+y,1/2+z
1/2+x,1/2-y,1/2+z
loop_
_atom_site_type_symbol
_atom_site_label
_atom_site_fract_x
_atom_site_fract_y
_atom_site_fract_z
Si Si1 0.798384 0.826356 0.977530
Si Si2 0.854548 0.681828 0.444707
Si Si3 0.738065 0.679379 0.857953
Si Si4 0.941645 0.679906 0.201489
Si Si5 0.261935 0.820621 0.701101
Si Si6 0.558355 0.320094 0.857565
Si Si7 0.201616 0.326356 0.581524
Si Si8 0.645452 0.681828 0.614348
O O1 0.783516 0.725444 0.910137
O O2 0.806269 0.000000 0.954517
O O3 0.750000 0.826351 0.029527
O O4 0.841902 0.777409 0.031629
O O5 0.852136 0.500000 0.439594
O O6 0.811329 0.751315 0.394677
O O7 0.906295 0.743994 0.415912
O O8 0.841902 0.722591 0.527425
O O9 0.733149 0.500000 0.853651
O O10 0.744131 0.750000 0.779527
O O11 0.933485 0.500000 0.203574
O O12 0.929667 0.750000 0.279527
O O13 0.906295 0.756006 0.143143
O O14 0.000000 0.707781 0.187903
O O15 0.216484 0.774556 0.648917
O O16 0.311329 0.751315 0.664378
O O17 0.266851 0.000000 0.705403
O O18 0.500000 0.292220 0.871151
O O19 0.566515 0.500000 0.855480
O O20 0.193730 0.500000 0.604537
O O21 0.647864 0.500000 0.619460
#
# Coordination Sequence:
#
# PCOD9373748 Si02
#       8
#     8   8   8   8   8   8   8   8
#     4   8  16  30  44  60  83 109 138 173 211 249
#     4  10  19  31  46  62  84 113 143 176 213 253
#     4  11  20  29  43  62  86 114 144 176 209 249
#     4  10  20  32  45  62  85 112 144 181 215 248
#     4  11  20  29  43  62  86 114 144 176 209 249
#     4  10  20  32  45  62  85 112 144 181 215 248
#     4   8  16  30  44  60  83 109 138 173 211 249
#     4  10  19  31  46  62  84 113 143 176 213 253
#
# _framework density 14.409217
#
# number of rings (size 3 to 8) (size 9 to 14) (size 15 to 20)
#    0.000    2.250    0.000    6.000    0.000    7.000 
#    0.000    0.000    0.000    0.000    0.000    0.000 
#    0.000    1.000    0.000    3.250    0.000    4.750 
#
# Total GULP energy -178434.825109 kJ/mol
# GULP energy per Si atom -5576.088285 kJ/mol
# Density = 1.437642 g / cm^3
# Si number density = 14.409217 Si / 1000 Ang^3
#
#
#
# Elastic Constant Matrix: (Units=GPa)
#
#
# Indices 1 2 3 4 5 6 
#
# 1 52.9617 33.7160 33.5126 0.0000 0.0000 0.0000
# 2 33.7160 88.1061 52.1052 0.0000 0.0000 0.0000
# 3 33.5126 52.1052 82.5332 0.0000 0.0000 0.0000
# 4 0.0000 0.0000 0.0000 24.7339 0.0000 0.0000
# 5 0.0000 0.0000 0.0000 0.0000 28.1919 0.0000
# 6 0.0000 0.0000 0.0000 0.0000 0.0000 -49.6289
#
#
#
# Elastic Compliance Matrix: (Units=1/GPa)
#
#
# Indices 1 2 3 4 5 6 
#
# 1 0.027399 -0.006232 -0.007191 0.000000 0.000000 0.000000
# 2 -0.006232 0.019530 -0.009799 0.000000 0.000000 0.000000
# 3 -0.007191 -0.009799 0.021223 0.000000 0.000000 0.000000
# 4 0.000000 0.000000 0.000000 0.040430 0.000000 0.000000
# 5 0.000000 0.000000 0.000000 0.000000 0.035471 0.000000
# 6 0.000000 0.000000 0.000000 0.000000 0.000000 -0.020150
#
#
# Mechanical properties :
#
#
# Convention : Reuss Voigt Hill
#
# Bulk Modulus (GPa) = 46.06758 51.36319 48.71539
# Shear Modulus (GPa) = 28.15561 7.61051 17.88306
#
# Velocity S-wave (km/s) = 4.42520 2.30069 3.52673
# Velocity P-wave (km/s) = 7.62563 6.54072 7.10391
#
# Compressibility (1/GPa) = 0.02170724
#
# Stress axis : x y z
#
# Youngs Moduli (GPa) = 36.49721 51.20311 47.11966
#
# Poissons Ratio (x) = 0.31912 0.33883
# Poissons Ratio (y) = 0.22747 0.46173
# Poissons Ratio (z) = 0.26244 0.50174
#
# Static dielectric constant tensor:
#      x y z
#    x 1.476810 0.000000 0.000000 
#    y 0.000000 1.479280 0.000000 
#    z 0.000000 0.000000 1.471160 
# 
# From -- ./inp_files/17170.got.cif
#   From: 2010.05.17/outbox.cif.g08.bks.cpg/sg44_9_cif.got.tgz:17170.got - 2010.06.03 19:37:08.
