data_PCOD9373167
_publ_section_title
;
Structure prediction by ZEFSAII (Michael W. Deem and Ramdas Pophale) SiO2 
 PCOD9373167
Probable space group: I M M 2
;
_chemical_formula_sum "Si O2"
_cell_formula_units_Z 56
_cell_length_a 8.691851
_cell_length_b 30.417981
_cell_length_c 14.012137
_cell_angle_alpha 90.000000
_cell_angle_beta 90.000000
_cell_angle_gamma 90.000000
_cell_volume 3704.648704
_symmetry_space_group_name_H-M "I M M 2"
_symmetry_group_IT_number 44
_symmetry_cell_setting 'orthorhombic'
loop_
_space_group_symop_operation_xyz
x,y,z
-x,-y,z
-x,y,z
x,-y,z
1/2+x,1/2+y,1/2+z
1/2-x,1/2-y,1/2+z
1/2-x,1/2+y,1/2+z
1/2+x,1/2-y,1/2+z
loop_
_atom_site_type_symbol
_atom_site_label
_atom_site_fract_x
_atom_site_fract_y
_atom_site_fract_z
Si Si1 0.186521 0.404334 0.261200
Si Si2 0.683163 0.403203 0.046703
Si Si3 0.184790 0.731419 0.756507
Si Si4 0.184633 0.319303 0.944833
Si Si5 0.815309 0.229280 0.048650
Si Si6 0.684969 0.184860 0.863999
Si Si7 0.684442 0.500000 0.057464
Si Si8 0.317021 0.000000 0.768826
O O1 0.248360 0.398911 0.153507
O O2 0.231792 0.362915 0.325253
O O3 0.239955 0.451958 0.301379
O O4 0.000000 0.404839 0.255903
O O5 0.500000 0.399322 0.053529
O O6 0.745639 0.364609 0.980619
O O7 0.719563 0.452896 0.010649
O O8 0.247543 0.720466 0.652475
O O9 0.253326 0.777778 0.792131
O O10 0.000000 0.734661 0.755299
O O11 0.228266 0.696119 0.838264
O O12 0.229053 0.278636 0.013997
O O13 0.000000 0.322708 0.948351
O O14 0.000000 0.227234 0.050457
O O15 0.752160 0.196903 0.967297
O O16 0.500000 0.187077 0.866907
O O17 0.500000 0.500000 0.078079
O O18 0.776988 0.500000 0.156504
O O19 0.500000 0.000000 0.783579
#
# Coordination Sequence:
#
# PCOD9373167 Si02
#       8
#     8   8   8   8   8   8   4   4
#     4   9  17  28  43  63  89 118 146 177 213 252
#     4  10  18  27  43  64  88 117 146 176 212 254
#     4  10  20  33  47  64  88 117 146 181 220 258
#     4   9  19  32  44  62  88 114 143 177 213 253
#     4  10  20  33  47  64  88 117 147 182 218 256
#     4  10  19  30  45  66  90 117 148 181 216 256
#     4   8  16  28  38  58  89 114 139 174 213 252
#     4   8  14  26  42  60  83 114 147 174 207 254
#
# _framework density 15.116144
#
# number of rings (size 3 to 8) (size 9 to 14) (size 15 to 20)
#    0.000    2.571    0.000    3.429    0.000    8.571 
#    0.000    0.000    0.000    0.000    0.000    1.000 
#    0.000    2.286    0.000    0.000    0.000    0.000 
#
# Total GULP energy -155988.426659 kJ/mol
# GULP energy per Si atom -5571.015238 kJ/mol
# Density = 1.508174 g / cm^3
# Si number density = 15.116144 Si / 1000 Ang^3
#
#
#
# Elastic Constant Matrix: (Units=GPa)
#
#
# Indices 1 2 3 4 5 6 
#
# 1 29.0771 34.8569 25.9111 0.0000 0.0000 0.0000
# 2 34.8569 161.1504 68.8232 0.0000 0.0000 0.0000
# 3 25.9111 68.8232 91.6144 0.0000 0.0000 0.0000
# 4 0.0000 0.0000 0.0000 21.6797 0.0000 0.0000
# 5 0.0000 0.0000 0.0000 0.0000 22.7400 0.0000
# 6 0.0000 0.0000 0.0000 0.0000 0.0000 18.4087
#
#
#
# Elastic Compliance Matrix: (Units=1/GPa)
#
#
# Indices 1 2 3 4 5 6 
#
# 1 0.051062 -0.007181 -0.009047 0.000000 0.000000 0.000000
# 2 -0.007181 0.010147 -0.005591 0.000000 0.000000 0.000000
# 3 -0.009047 -0.005591 0.017675 0.000000 0.000000 0.000000
# 4 0.000000 0.000000 0.000000 0.046126 0.000000 0.000000
# 5 0.000000 0.000000 0.000000 0.000000 0.043975 0.000000
# 6 0.000000 0.000000 0.000000 0.000000 0.000000 0.054322
#
#
# Mechanical properties :
#
#
# Convention : Reuss Voigt Hill
#
# Bulk Modulus (GPa) = 28.37381 60.11379 44.24380
# Shear Modulus (GPa) = 17.94089 22.71573 20.32831
#
# Velocity S-wave (km/s) = 3.44883 3.88073 3.67114
# Velocity P-wave (km/s) = 5.88817 7.74173 6.87768
#
# Compressibility (1/GPa) = 0.03524376
#
# Stress axis : x y z
#
# Youngs Moduli (GPa) = 19.58422 98.55568 56.57853
#
# Poissons Ratio (x) = 0.70771 0.51188
# Poissons Ratio (y) = 0.14063 0.31636
# Poissons Ratio (z) = 0.17718 0.55107
#
# Static dielectric constant tensor:
#      x y z
#    x 1.511200 0.000000 0.000000 
#    y 0.000000 1.530670 0.000000 
#    z 0.000000 0.000000 1.471810 
# 
# From -- ./inp_files/17057.got.cif
#   From: 2010.05.17/outbox.cif.g08.bks.cpg/sg44_9_cif.got.tgz:17057.got - 2010.06.03 19:37:08.
