data_PCOD9373735
_publ_section_title
;
Structure prediction by ZEFSAII (Michael W. Deem and Ramdas Pophale) SiO2 
 PCOD9373735
Probable space group: I M M 2
;
_chemical_formula_sum "Si O2"
_cell_formula_units_Z 64
_cell_length_a 21.054036
_cell_length_b 9.120814
_cell_length_c 20.105638
_cell_angle_alpha 90.000000
_cell_angle_beta 90.000000
_cell_angle_gamma 90.000000
_cell_volume 3860.884586
_symmetry_space_group_name_H-M "I M M 2"
_symmetry_group_IT_number 44
_symmetry_cell_setting 'orthorhombic'
loop_
_space_group_symop_operation_xyz
x,y,z
-x,-y,z
-x,y,z
x,-y,z
1/2+x,1/2+y,1/2+z
1/2-x,1/2-y,1/2+z
1/2-x,1/2+y,1/2+z
1/2+x,1/2-y,1/2+z
loop_
_atom_site_type_symbol
_atom_site_label
_atom_site_fract_x
_atom_site_fract_y
_atom_site_fract_z
Si Si1 0.383489 0.174266 0.462210
Si Si2 0.739749 0.675758 0.100187
Si Si3 0.071043 0.323390 0.817589
Si Si4 0.313681 0.824682 0.820554
Si Si5 0.768178 0.173351 0.451356
Si Si6 0.428104 0.323823 0.741991
Si Si7 0.877070 0.174984 0.097704
Si Si8 0.314622 0.675496 0.240143
O O1 0.418590 0.218960 0.394830
O O2 0.308032 0.199769 0.450009
O O3 0.402798 0.257149 0.529164
O O4 0.391945 0.000000 0.472313
O O5 0.752751 0.500000 0.101903
O O6 0.806594 0.758442 0.106993
O O7 0.695759 0.711949 0.162652
O O8 0.712173 0.708106 0.027171
O O9 0.076836 0.500000 0.815108
O O10 0.125851 0.253303 0.773454
O O11 0.000000 0.282291 0.796355
O O12 0.302412 0.765147 0.894703
O O13 0.374742 0.754028 0.785818
O O14 0.250381 0.783954 0.778590
O O15 0.318976 0.000000 0.819997
O O16 0.777991 0.000000 0.439188
O O17 0.500000 0.282987 0.760446
O O18 0.421495 0.500000 0.748869
O O19 0.416009 0.288999 0.664183
O O20 0.873575 0.000000 0.091442
O O21 0.322014 0.500000 0.246012
#
# Coordination Sequence:
#
# PCOD9373735 Si02
#       8
#     8   8   8   8   8   8   8   8
#     4   9  18  32  49  71 104 143 178 210 250 305
#     4   9  18  34  53  76 105 137 172 211 258 311
#     4  10  21  36  53  75 105 142 182 218 256 307
#     4  11  21  33  54  81 107 134 171 219 265 307
#     4   9  17  31  53  76 102 137 173 212 256 308
#     4  10  22  38  53  73 105 143 179 214 258 314
#     4  10  19  30  49  76 104 136 175 216 256 300
#     4  10  20  34  54  79 107 136 171 218 265 308
#
# _framework density 16.576512000000001
#
# number of rings (size 3 to 8) (size 9 to 14) (size 15 to 20)
#    0.000    2.250    2.500    1.500    0.000    5.000 
#    0.000    0.000    0.000    0.750    0.000    1.750 
#    0.000    0.000    0.000    0.000    0.000    0.000 
#
# Total GULP energy -178523.093564 kJ/mol
# GULP energy per Si atom -5578.846674 kJ/mol
# Density = 1.653878 g / cm^3
# Si number density = 16.576512 Si / 1000 Ang^3
#
#
#
# Elastic Constant Matrix: (Units=GPa)
#
#
# Indices 1 2 3 4 5 6 
#
# 1 111.7888 44.8950 70.7994 0.0000 0.0000 0.0000
# 2 44.8950 31.9492 44.8222 0.0000 0.0000 0.0000
# 3 70.7994 44.8222 123.0740 0.0000 0.0000 0.0000
# 4 0.0000 0.0000 0.0000 30.8577 0.0000 0.0000
# 5 0.0000 0.0000 0.0000 0.0000 21.2589 0.0000
# 6 0.0000 0.0000 0.0000 0.0000 0.0000 16.5266
#
#
#
# Elastic Compliance Matrix: (Units=1/GPa)
#
#
# Indices 1 2 3 4 5 6 
#
# 1 0.020970 -0.025647 -0.002723 0.000000 0.000000 0.000000
# 2 -0.025647 0.095366 -0.019977 0.000000 0.000000 0.000000
# 3 -0.002723 -0.019977 0.016967 0.000000 0.000000 0.000000
# 4 0.000000 0.000000 0.000000 0.032407 0.000000 0.000000
# 5 0.000000 0.000000 0.000000 0.000000 0.047039 0.000000
# 6 0.000000 0.000000 0.000000 0.000000 0.000000 0.060508
#
#
# Mechanical properties :
#
#
# Convention : Reuss Voigt Hill
#
# Bulk Modulus (GPa) = 27.31632 65.31614 46.31623
# Shear Modulus (GPa) = 13.08373 20.81502 16.94938
#
# Velocity S-wave (km/s) = 2.81248 3.54742 3.20111
# Velocity P-wave (km/s) = 5.20206 7.50115 6.45480
#
# Compressibility (1/GPa) = 0.03660815
#
# Stress axis : x y z
#
# Youngs Moduli (GPa) = 47.68761 10.48594 58.93792
#
# Poissons Ratio (x) = 0.26893 0.16047
# Poissons Ratio (y) = 1.22305 1.17743
# Poissons Ratio (z) = 0.12984 0.20948
#
# Static dielectric constant tensor:
#      x y z
#    x 1.537600 0.000000 0.000000 
#    y 0.000000 1.551450 0.000000 
#    z 0.000000 0.000000 1.563550 
# 
# From -- ./inp_files/23265.got.cif
#   From: 2010.05.17/outbox.cif.g08.bks.cpg/sg44_12_cif.got.tgz:23265.got - 2010.06.03 19:37:08.
