data_PCOD9373589
_publ_section_title
;
Structure prediction by ZEFSAII (Michael W. Deem and Ramdas Pophale) SiO2 
 PCOD9373589
Probable space group: I M M 2
;
_chemical_formula_sum "Si O2"
_cell_formula_units_Z 64
_cell_length_a 19.295136
_cell_length_b 7.997052
_cell_length_c 22.393549
_cell_angle_alpha 90.000000
_cell_angle_beta 90.000000
_cell_angle_gamma 90.000000
_cell_volume 3455.418797
_symmetry_space_group_name_H-M "I M M 2"
_symmetry_group_IT_number 44
_symmetry_cell_setting 'orthorhombic'
loop_
_space_group_symop_operation_xyz
x,y,z
-x,-y,z
-x,y,z
x,-y,z
1/2+x,1/2+y,1/2+z
1/2-x,1/2-y,1/2+z
1/2-x,1/2+y,1/2+z
1/2+x,1/2-y,1/2+z
loop_
_atom_site_type_symbol
_atom_site_label
_atom_site_fract_x
_atom_site_fract_y
_atom_site_fract_z
Si Si1 0.423889 0.295808 0.429120
Si Si2 0.628004 0.303839 0.558131
Si Si3 0.921533 0.191649 0.369994
Si Si4 0.720670 0.703080 0.379390
Si Si5 0.227195 0.802881 0.509663
Si Si6 0.924061 0.700384 0.507508
Si Si7 0.422012 0.802358 0.685525
Si Si8 0.816781 0.311412 0.280476
O O1 0.500000 0.240786 0.409903
O O2 0.422888 0.500000 0.429185
O O3 0.408823 0.243613 0.497358
O O4 0.358184 0.241730 0.390375
O O5 0.612956 0.500000 0.564786
O O6 0.709958 0.280836 0.545926
O O7 0.600055 0.216278 0.616972
O O8 0.922940 0.232242 0.439763
O O9 0.873289 0.313643 0.333508
O O10 0.000000 0.205746 0.347614
O O11 0.897970 0.000000 0.361870
O O12 0.722906 0.500000 0.377511
O O13 0.762352 0.752897 0.439665
O O14 0.752804 0.766289 0.317119
O O15 0.150161 0.758187 0.532375
O O16 0.236631 0.000000 0.513593
O O17 0.923207 0.500000 0.506273
O O18 0.000000 0.752595 0.532999
O O19 0.500000 0.733634 0.694677
O O20 0.360163 0.729525 0.726695
O O21 0.425053 0.000000 0.700341
O O22 0.796726 0.500000 0.262041
#
# Coordination Sequence:
#
# PCOD9373589 Si02
#       8
#     8   8   8   8   8   8   8   8
#     4   8  14  26  46  71  95 118 150 198 251 298
#     4  10  20  34  52  71  94 127 169 210 254 310
#     4  10  19  28  40  62  91 124 163 203 239 278
#     4   9  17  29  46  69  96 129 167 202 244 306
#     4  11  20  31  49  72  99 128 161 207 258 302
#     4  10  19  30  45  66  95 130 164 197 238 293
#     4  10  21  35  49  69  98 133 175 217 256 299
#     4  10  19  31  47  65  94 134 171 205 246 298
#
# _framework density 18.521633000000001
#
# number of rings (size 3 to 8) (size 9 to 14) (size 15 to 20)
#    0.000    2.250    1.250    3.750    0.000    3.250 
#    0.000    0.000    0.000    3.375    0.000    0.875 
#    0.000    3.000    0.000    0.000    0.000    0.000 
#
# Total GULP energy -178304.950108 kJ/mol
# GULP energy per Si atom -5572.029691 kJ/mol
# Density = 1.847948 g / cm^3
# Si number density = 18.521633 Si / 1000 Ang^3
#
#
#
# Elastic Constant Matrix: (Units=GPa)
#
#
# Indices 1 2 3 4 5 6 
#
# 1 133.7879 -6.1178 39.8192 0.0000 0.0000 0.0000
# 2 -6.1178 27.2234 -2.9792 0.0000 0.0000 0.0000
# 3 39.8192 -2.9792 63.6800 0.0000 0.0000 0.0000
# 4 0.0000 0.0000 0.0000 13.8058 0.0000 0.0000
# 5 0.0000 0.0000 0.0000 0.0000 20.5340 0.0000
# 6 0.0000 0.0000 0.0000 0.0000 0.0000 0.3485
#
#
#
# Elastic Compliance Matrix: (Units=1/GPa)
#
#
# Indices 1 2 3 4 5 6 
#
# 1 0.009240 0.001452 -0.005710 0.000000 0.000000 0.000000
# 2 0.001452 0.037150 0.000830 0.000000 0.000000 0.000000
# 3 -0.005710 0.000830 0.019313 0.000000 0.000000 0.000000
# 4 0.000000 0.000000 0.000000 0.072433 0.000000 0.000000
# 5 0.000000 0.000000 0.000000 0.000000 0.048700 0.000000
# 6 0.000000 0.000000 0.000000 0.000000 0.000000 2.869537
#
#
# Mechanical properties :
#
#
# Convention : Reuss Voigt Hill
#
# Bulk Modulus (GPa) = 16.99319 31.79287 24.39303
# Shear Modulus (GPa) = 1.62188 19.86892 10.74540
#
# Velocity S-wave (km/s) = 0.93679 3.27883 2.41125
# Velocity P-wave (km/s) = 3.21944 5.61576 4.57720
#
# Compressibility (1/GPa) = 0.05884710
#
# Stress axis : x y z
#
# Youngs Moduli (GPa) = 108.22038 26.91780 51.77882
#
# Poissons Ratio (x) = -0.03908 0.29566
# Poissons Ratio (y) = -0.15710 -0.04299
# Poissons Ratio (z) = 0.61795 -0.02235
#
# Static dielectric constant tensor:
#      x y z
#    x 1.711690 0.000000 0.000000 
#    y 0.000000 1.667730 0.000000 
#    z 0.000000 0.000000 1.620830 
# 
# From -- ./inp_files/24458.got.cif
#   From: 2010.05.17/outbox.cif.g08.bks.cpg/sg44_13_cif.got.tgz:24458.got - 2010.06.03 19:37:08.
