data_PCOD9373410
_publ_section_title
;
Structure prediction by ZEFSAII (Michael W. Deem and Ramdas Pophale) SiO2 
 PCOD9373410
Probable space group: I M M 2
;
_chemical_formula_sum "Si O2"
_cell_formula_units_Z 64
_cell_length_a 17.950728
_cell_length_b 12.366605
_cell_length_c 16.168092
_cell_angle_alpha 90.000000
_cell_angle_beta 90.000000
_cell_angle_gamma 90.000000
_cell_volume 3589.147672
_symmetry_space_group_name_H-M "I M M 2"
_symmetry_group_IT_number 44
_symmetry_cell_setting 'orthorhombic'
loop_
_space_group_symop_operation_xyz
x,y,z
-x,-y,z
-x,y,z
x,-y,z
1/2+x,1/2+y,1/2+z
1/2-x,1/2-y,1/2+z
1/2-x,1/2+y,1/2+z
1/2+x,1/2-y,1/2+z
loop_
_atom_site_type_symbol
_atom_site_label
_atom_site_fract_x
_atom_site_fract_y
_atom_site_fract_z
Si Si1 0.660438 0.124506 0.592200
Si Si2 0.309961 0.758881 0.429751
Si Si3 0.582123 0.117666 0.864815
Si Si4 0.588687 0.627171 0.301852
Si Si5 0.191708 0.623649 0.517630
Si Si6 0.769456 0.123684 0.284413
Si Si7 0.313249 0.282909 0.158815
Si Si8 0.415429 0.287558 0.717474
O O1 0.658991 0.154555 0.495160
O O2 0.745167 0.142605 0.626268
O O3 0.611506 0.213643 0.640861
O O4 0.638392 0.000000 0.606264
O O5 0.369588 0.701618 0.369774
O O6 0.271482 0.667860 0.487449
O O7 0.247570 0.816671 0.371678
O O8 0.500000 0.122528 0.903306
O O9 0.641894 0.125272 0.935956
O O10 0.586263 0.206205 0.795145
O O11 0.590837 0.000000 0.823953
O O12 0.500000 0.646542 0.300983
O O13 0.601652 0.500000 0.319935
O O14 0.625960 0.654563 0.212956
O O15 0.195318 0.500000 0.548943
O O16 0.159812 0.710547 0.582103
O O17 0.722715 0.194371 0.219871
O O18 0.852708 0.128233 0.246423
O O19 0.745197 0.000000 0.290857
O O20 0.500000 0.327223 0.705494
#
# Coordination Sequence:
#
# PCOD9373410 Si02
#       8
#     8   8   8   8   8   8   8   8
#     4  10  20  34  55  80 108 141 178 223 271 316
#     4  10  20  35  54  82 107 140 179 225 263 319
#     4   9  17  29  47  73 105 138 172 213 264 318
#     4  10  21  38  59  80 107 142 178 220 267 317
#     4  10  18  31  53  79 107 139 176 221 269 313
#     4  10  19  34  54  75 104 141 179 219 266 314
#     4   9  20  34  53  80 106 137 178 224 264 317
#     4  10  20  34  51  76 108 141 178 218 266 320
#
# _framework density 17.831531999999999
#
# number of rings (size 3 to 8) (size 9 to 14) (size 15 to 20)
#    0.000    2.250    1.250    1.875    0.000    2.000 
#    0.000    0.625    0.000   12.750    0.000    0.000 
#    0.000    0.000    0.000    0.000    0.000    0.000 
#
# Total GULP energy -178241.976890 kJ/mol
# GULP energy per Si atom -5570.061778 kJ/mol
# Density = 1.779095 g / cm^3
# Si number density = 17.831532 Si / 1000 Ang^3
#
#
#
# Elastic Constant Matrix: (Units=GPa)
#
#
# Indices 1 2 3 4 5 6 
#
# 1 67.5834 19.3255 19.6350 0.0000 0.0000 0.0000
# 2 19.3255 72.4980 18.3849 0.0000 0.0000 0.0000
# 3 19.6350 18.3849 72.9297 0.0000 0.0000 0.0000
# 4 0.0000 0.0000 0.0000 -10.4213 0.0000 0.0000
# 5 0.0000 0.0000 0.0000 0.0000 13.5342 0.0000
# 6 0.0000 0.0000 0.0000 0.0000 0.0000 16.2785
#
#
#
# Elastic Compliance Matrix: (Units=1/GPa)
#
#
# Indices 1 2 3 4 5 6 
#
# 1 0.016877 -0.003575 -0.003643 0.000000 0.000000 0.000000
# 2 -0.003575 0.015493 -0.002943 0.000000 0.000000 0.000000
# 3 -0.003643 -0.002943 0.015434 0.000000 0.000000 0.000000
# 4 0.000000 0.000000 0.000000 -0.095957 0.000000 0.000000
# 5 0.000000 0.000000 0.000000 0.000000 0.073887 0.000000
# 6 0.000000 0.000000 0.000000 0.000000 0.000000 0.061431
#
#
# Mechanical properties :
#
#
# Convention : Reuss Voigt Hill
#
# Bulk Modulus (GPa) = 36.38639 36.41135 36.39887
# Shear Modulus (GPa) = 42.86420 14.25598 28.56009
#
# Velocity S-wave (km/s) = 4.90822 2.83058 4.00642
# Velocity P-wave (km/s) = 7.25057 5.58094 6.46984
#
# Compressibility (1/GPa) = 0.02748281
#
# Stress axis : x y z
#
# Youngs Moduli (GPa) = 59.25180 64.54596 64.79011
#
# Poissons Ratio (x) = 0.23076 0.23600
# Poissons Ratio (y) = 0.21183 0.19068
# Poissons Ratio (z) = 0.21583 0.18996
#
# Static dielectric constant tensor:
#      x y z
#    x 1.644650 0.000000 0.000000 
#    y 0.000000 1.634540 0.000000 
#    z 0.000000 0.000000 1.612900 
# 
# From -- ./inp_files/17920.got.cif
#   From: 2010.05.17/outbox.cif.g08.bks.cpg/sg44_9_cif.got.tgz:17920.got - 2010.06.03 19:37:08.
