data_PCOD9373933
_publ_section_title
;
Structure prediction by ZEFSAII (Michael W. Deem and Ramdas Pophale) SiO2 
 PCOD9373933
Probable space group: I M M 2
;
_chemical_formula_sum "Si O2"
_cell_formula_units_Z 48
_cell_length_a 7.683547
_cell_length_b 19.494684
_cell_length_c 15.175332
_cell_angle_alpha 90.000000
_cell_angle_beta 90.000000
_cell_angle_gamma 90.000000
_cell_volume 2273.087497
_symmetry_space_group_name_H-M "I M M 2"
_symmetry_group_IT_number 44
_symmetry_cell_setting 'orthorhombic'
loop_
_space_group_symop_operation_xyz
x,y,z
-x,-y,z
-x,y,z
x,-y,z
1/2+x,1/2+y,1/2+z
1/2-x,1/2-y,1/2+z
1/2-x,1/2+y,1/2+z
1/2+x,1/2-y,1/2+z
loop_
_atom_site_type_symbol
_atom_site_label
_atom_site_fract_x
_atom_site_fract_y
_atom_site_fract_z
Si Si1 0.713271 0.422911 0.577110
Si Si2 0.212216 0.806014 0.211291
Si Si3 0.796946 0.146406 0.901474
Si Si4 0.798411 0.347398 0.201006
Si Si5 0.210995 0.198281 0.414242
Si Si6 0.702858 0.424345 0.036104
O O1 0.500000 0.421139 0.576801
O O2 0.766286 0.500000 0.599700
O O3 0.771531 0.365664 0.646578
O O4 0.771138 0.401594 0.479246
O O5 0.273493 0.729612 0.185706
O O6 0.259640 0.818045 0.313103
O O7 0.000000 0.804090 0.208588
O O8 0.713533 0.139773 0.805390
O O9 0.777915 0.225265 0.933159
O O10 0.000000 0.131527 0.888905
O O11 0.711268 0.402525 0.138088
O O12 0.000000 0.347406 0.175859
O O13 0.275539 0.138902 0.479135
O O14 0.000000 0.202329 0.418747
O O15 0.500000 0.428343 0.010660
O O16 0.779964 0.500000 0.022309
#
# Coordination Sequence:
#
# PCOD9373933 Si02
#       6
#     8   8   8   8   8   8
#     4   9  17  28  45  72 102 129 159 199 247 296
#     4   8  15  29  49  72  97 126 163 205 246 294
#     4  10  19  32  52  77 103 134 172 213 256 303
#     4  10  20  35  54  75  99 131 174 220 263 309
#     4   9  18  33  53  77 104 135 170 209 254 305
#     4  10  21  35  51  75 107 140 174 215 264 316
#
# _framework density 21.116651999999998
#
# number of rings (size 3 to 8) (size 9 to 14) (size 15 to 20)
#    0.000    2.667    0.000    3.000    0.000    3.667 
#    0.000    5.000    0.000    2.500    0.000    0.000 
#    0.000    0.000    0.000    0.000    0.000    0.000 
#
# Total GULP energy -133970.654524 kJ/mol
# GULP energy per Si atom -5582.110605 kJ/mol
# Density = 2.106859 g / cm^3
# Si number density = 21.116652 Si / 1000 Ang^3
#
#
#
# Elastic Constant Matrix: (Units=GPa)
#
#
# Indices 1 2 3 4 5 6 
#
# 1 38.7002 -2.7924 -3.7218 0.0000 0.0000 0.0000
# 2 -2.7924 28.6260 8.4969 0.0000 0.0000 0.0000
# 3 -3.7218 8.4969 31.0387 0.0000 0.0000 0.0000
# 4 0.0000 0.0000 0.0000 3.4987 0.0000 0.0000
# 5 0.0000 0.0000 0.0000 0.0000 14.8602 0.0000
# 6 0.0000 0.0000 0.0000 0.0000 0.0000 15.2011
#
#
#
# Elastic Compliance Matrix: (Units=1/GPa)
#
#
# Indices 1 2 3 4 5 6 
#
# 1 0.026223 0.001768 0.002660 0.000000 0.000000 0.000000
# 2 0.001768 0.038142 -0.010229 0.000000 0.000000 0.000000
# 3 0.002660 -0.010229 0.035337 0.000000 0.000000 0.000000
# 4 0.000000 0.000000 0.000000 0.285822 0.000000 0.000000
# 5 0.000000 0.000000 0.000000 0.000000 0.067294 0.000000
# 6 0.000000 0.000000 0.000000 0.000000 0.000000 0.065785
#
#
# Mechanical properties :
#
#
# Convention : Reuss Voigt Hill
#
# Bulk Modulus (GPa) = 11.35062 11.37002 11.36032
# Shear Modulus (GPa) = 8.93542 13.13750 11.03646
#
# Velocity S-wave (km/s) = 2.05928 2.49698 2.28862
# Velocity P-wave (km/s) = 3.32281 3.70260 3.51784
#
# Compressibility (1/GPa) = 0.08810089
#
# Stress axis : x y z
#
# Youngs Moduli (GPa) = 38.13437 26.21770 28.29888
#
# Poissons Ratio (x) = -0.04636 -0.07528
# Poissons Ratio (y) = -0.06744 0.28948
# Poissons Ratio (z) = -0.10145 0.26819
#
# Static dielectric constant tensor:
#      x y z
#    x 1.788080 0.000000 0.000000 
#    y 0.000000 1.748330 0.000000 
#    z 0.000000 0.000000 1.737900 
# 
# From -- ./inp_files/16068.got.cif
#   From: 2010.05.17/outbox.cif.g08.bks.cpg/sg44_9_cif.got.tgz:16068.got - 2010.06.03 19:37:08.
