data_PCOD9373065
_publ_section_title
;
Structure prediction by ZEFSAII (Michael W. Deem and Ramdas Pophale) SiO2 
 PCOD9373065
Probable space group: I M M 2
;
_chemical_formula_sum "Si O2"
_cell_formula_units_Z 64
_cell_length_a 15.185474
_cell_length_b 7.625257
_cell_length_c 28.973809
_cell_angle_alpha 90.000000
_cell_angle_beta 90.000000
_cell_angle_gamma 90.000000
_cell_volume 3354.968377
_symmetry_space_group_name_H-M "I M M 2"
_symmetry_group_IT_number 44
_symmetry_cell_setting 'orthorhombic'
loop_
_space_group_symop_operation_xyz
x,y,z
-x,-y,z
-x,y,z
x,-y,z
1/2+x,1/2+y,1/2+z
1/2-x,1/2-y,1/2+z
1/2-x,1/2+y,1/2+z
1/2+x,1/2-y,1/2+z
loop_
_atom_site_type_symbol
_atom_site_label
_atom_site_fract_x
_atom_site_fract_y
_atom_site_fract_z
Si Si1 0.277845 0.790247 0.639500
Si Si2 0.100545 0.785863 0.949866
Si Si3 0.400537 0.210010 0.721555
Si Si4 0.598767 0.285718 0.177052
Si Si5 0.098662 0.210779 0.054793
Si Si6 0.900710 0.208207 0.326570
Si Si7 0.100849 0.213627 0.782768
Si Si8 0.719613 0.290813 0.366579
O O1 0.335584 0.720733 0.682468
O O2 0.177930 0.725569 0.644510
O O3 0.328788 0.757396 0.592259
O O4 0.273359 0.000000 0.645063
O O5 0.171266 0.723762 0.912493
O O6 0.000000 0.736567 0.937267
O O7 0.102347 0.000000 0.950229
O O8 0.117147 0.728139 0.002533
O O9 0.500000 0.279594 0.715902
O O10 0.373472 0.241915 0.774341
O O11 0.404317 0.000000 0.715974
O O12 0.500000 0.226281 0.165509
O O13 0.596372 0.500000 0.176663
O O14 0.619229 0.233356 0.230046
O O15 0.000000 0.273163 0.068204
O O16 0.094996 0.000000 0.053143
O O17 0.823346 0.261328 0.361042
O O18 0.000000 0.279636 0.334579
O O19 0.906465 0.000000 0.328164
O O20 0.168698 0.277813 0.821166
O O21 0.000000 0.262924 0.794077
O O22 0.103804 0.000000 0.782730
O O23 0.706539 0.500000 0.366621
#
# Coordination Sequence:
#
# PCOD9373065 Si02
#       8
#     8   8   8   8   8   8   8   8
#     4  10  18  28  46  70  92 117 154 197 233 264
#     4   8  15  29  49  73  97 118 144 181 225 275
#     4   9  17  29  45  66  91 117 150 193 233 269
#     4   8  14  24  38  60  91 120 144 176 219 263
#     4   9  18  32  48  67  94 124 149 178 224 281
#     4  10  21  34  45  61  91 128 159 187 223 268
#     4   8  13  22  40  68  95 114 137 174 220 268
#     4  10  17  27  49  74  91 113 149 189 225 263
#
# _framework density 19.076186
#
# number of rings (size 3 to 8) (size 9 to 14) (size 15 to 20)
#    0.000    3.000    0.000    3.375    0.000    5.500 
#    0.000    1.875    0.000    3.375    0.000    5.250 
#    0.000    0.000    0.000    0.000    0.000    0.000 
#
# Total GULP energy -178448.268054 kJ/mol
# GULP energy per Si atom -5576.508377 kJ/mol
# Density = 1.903277 g / cm^3
# Si number density = 19.076186 Si / 1000 Ang^3
#
#
#
# Elastic Constant Matrix: (Units=GPa)
#
#
# Indices 1 2 3 4 5 6 
#
# 1 154.2576 4.4366 111.4805 0.0000 0.0000 0.0000
# 2 4.4366 34.0583 1.6601 0.0000 0.0000 0.0000
# 3 111.4805 1.6601 109.5026 0.0000 0.0000 0.0000
# 4 0.0000 0.0000 0.0000 5.6810 0.0000 0.0000
# 5 0.0000 0.0000 0.0000 0.0000 39.1107 0.0000
# 6 0.0000 0.0000 0.0000 0.0000 0.0000 4.3611
#
#
#
# Elastic Compliance Matrix: (Units=1/GPa)
#
#
# Indices 1 2 3 4 5 6 
#
# 1 0.024666 -0.001991 -0.025081 0.000000 0.000000 0.000000
# 2 -0.001991 0.029544 0.001579 0.000000 0.000000 0.000000
# 3 -0.025081 0.001579 0.034642 0.000000 0.000000 0.000000
# 4 0.000000 0.000000 0.000000 0.176027 0.000000 0.000000
# 5 0.000000 0.000000 0.000000 0.000000 0.025568 0.000000
# 6 0.000000 0.000000 0.000000 0.000000 0.000000 0.229302
#
#
# Mechanical properties :
#
#
# Convention : Reuss Voigt Hill
#
# Bulk Modulus (GPa) = 26.40903 59.21921 42.81412
# Shear Modulus (GPa) = 8.57108 21.84665 15.20887
#
# Velocity S-wave (km/s) = 2.12199 3.38780 2.82666
# Velocity P-wave (km/s) = 4.45845 6.81277 5.75724
#
# Compressibility (1/GPa) = 0.03786584
#
# Stress axis : x y z
#
# Youngs Moduli (GPa) = 40.54193 33.84810 28.86632
#
# Poissons Ratio (x) = 0.06738 0.72400
# Poissons Ratio (y) = 0.08070 -0.04557
# Poissons Ratio (z) = 1.01684 -0.05343
#
# Static dielectric constant tensor:
#      x y z
#    x 1.679630 0.000000 0.000000 
#    y 0.000000 1.738840 0.000000 
#    z 0.000000 0.000000 1.645160 
# 
# From -- ./inp_files/27325.got.cif
#   From: 2010.05.17/outbox.cif.g08.bks.cpg/sg44_14_cif.got.tgz:27325.got - 2010.06.03 19:37:08.
