data_PCOD9373701
_publ_section_title
;
Structure prediction by ZEFSAII (Michael W. Deem and Ramdas Pophale) SiO2 
 PCOD9373701
Probable space group: I M M 2
;
_chemical_formula_sum "Si O2"
_cell_formula_units_Z 64
_cell_length_a 18.420658
_cell_length_b 16.443177
_cell_length_c 8.899349
_cell_angle_alpha 90.000000
_cell_angle_beta 90.000000
_cell_angle_gamma 90.000000
_cell_volume 2695.560661
_symmetry_space_group_name_H-M "I M M 2"
_symmetry_group_IT_number 44
_symmetry_cell_setting 'orthorhombic'
loop_
_space_group_symop_operation_xyz
x,y,z
-x,-y,z
-x,y,z
x,-y,z
1/2+x,1/2+y,1/2+z
1/2-x,1/2-y,1/2+z
1/2-x,1/2+y,1/2+z
1/2+x,1/2-y,1/2+z
loop_
_atom_site_type_symbol
_atom_site_label
_atom_site_fract_x
_atom_site_fract_y
_atom_site_fract_z
Si Si1 0.578044 0.597837 0.377210
Si Si2 0.761881 0.091298 0.895327
Si Si3 0.610202 0.593280 0.036912
Si Si4 0.079529 0.765733 0.302918
Si Si5 0.579947 0.096433 0.367192
Si Si6 0.735165 0.908812 0.417411
Si Si7 0.356663 0.833929 0.064232
Si Si8 0.232022 0.752998 0.209583
O O1 0.500000 0.628836 0.435298
O O2 0.573080 0.500000 0.376400
O O3 0.656467 0.611636 0.452819
O O4 0.586142 0.623121 0.201704
O O5 0.743374 0.167448 0.790657
O O6 0.764763 0.000000 0.830989
O O7 0.696639 0.093483 0.014883
O O8 0.584797 0.500000 0.017543
O O9 0.585116 0.651289 0.901963
O O10 0.697514 0.589558 0.029299
O O11 0.093128 0.696062 0.429048
O O12 0.145867 0.759628 0.186943
O O13 0.000000 0.758657 0.237285
O O14 0.500000 0.120493 0.424018
O O15 0.652086 0.104449 0.470481
O O16 0.599329 0.144621 0.213938
O O17 0.576259 0.000000 0.332465
O O18 0.750597 0.833229 0.309004
O O19 0.736735 0.000000 0.347002
O O20 0.295561 0.763296 0.087966
#
# Coordination Sequence:
#
# PCOD9373701 Si02
#       8
#     8   8   8   8   8   8   8   8
#     4   9  17  29  46  71 100 127 163 213 260 303
#     4  10  20  34  53  76 104 139 176 216 261 309
#     4   9  16  27  45  68  96 131 165 200 251 314
#     4  10  19  30  47  72 100 128 163 214 263 300
#     4   9  16  27  46  72  99 127 165 215 260 298
#     4   8  15  28  45  68 100 135 168 205 254 311
#     4  10  19  33  50  70  97 135 175 211 255 315
#     4   9  19  33  49  73 104 134 172 214 258 311
#
# _framework density 23.742742
#
# number of rings (size 3 to 8) (size 9 to 14) (size 15 to 20)
#    0.000    2.750    0.000    1.875    0.000    1.250 
#    0.000    3.125    0.000    3.375    0.000   22.750 
#    0.000   21.000    0.000    0.000    0.000    0.000 
#
# Total GULP energy -178376.323522 kJ/mol
# GULP energy per Si atom -5574.260110 kJ/mol
# Density = 2.368870 g / cm^3
# Si number density = 23.742742 Si / 1000 Ang^3
#
#
#
# Elastic Constant Matrix: (Units=GPa)
#
#
# Indices 1 2 3 4 5 6 
#
# 1 220.4020 25.3020 3.4338 0.0000 0.0000 0.0000
# 2 25.3020 126.7460 33.5029 0.0000 0.0000 0.0000
# 3 3.4338 33.5029 30.3124 0.0000 0.0000 0.0000
# 4 0.0000 0.0000 0.0000 31.3264 0.0000 0.0000
# 5 0.0000 0.0000 0.0000 0.0000 20.5085 0.0000
# 6 0.0000 0.0000 0.0000 0.0000 0.0000 14.9958
#
#
#
# Elastic Compliance Matrix: (Units=1/GPa)
#
#
# Indices 1 2 3 4 5 6 
#
# 1 0.004654 -0.001116 0.000706 0.000000 0.000000 0.000000
# 2 -0.001116 0.011414 -0.012489 0.000000 0.000000 0.000000
# 3 0.000706 -0.012489 0.046713 0.000000 0.000000 0.000000
# 4 0.000000 0.000000 0.000000 0.031922 0.000000 0.000000
# 5 0.000000 0.000000 0.000000 0.000000 0.048760 0.000000
# 6 0.000000 0.000000 0.000000 0.000000 0.000000 0.066685
#
#
# Mechanical properties :
#
#
# Convention : Reuss Voigt Hill
#
# Bulk Modulus (GPa) = 27.03869 55.77084 41.40477
# Shear Modulus (GPa) = 20.13912 34.38092 27.26002
#
# Velocity S-wave (km/s) = 2.91559 3.80947 3.39210
# Velocity P-wave (km/s) = 4.76939 6.54905 5.72875
#
# Compressibility (1/GPa) = 0.03698404
#
# Stress axis : x y z
#
# Youngs Moduli (GPa) = 214.85741 87.61449 21.40736
#
# Poissons Ratio (x) = 0.09775 -0.01511
# Poissons Ratio (y) = 0.23972 0.26735
# Poissons Ratio (z) = -0.15167 1.09418
#
# Static dielectric constant tensor:
#      x y z
#    x 1.945990 0.000000 0.000000 
#    y 0.000000 1.909020 0.000000 
#    z 0.000000 0.000000 1.975610 
# 
# From -- ./inp_files/14071.got.cif
#   From: 2010.05.17/outbox.cif.g08.bks.cpg/sg44_8_cif.got.tgz:14071.got - 2010.06.03 19:37:08.
