data_PCOD9373140
_publ_section_title
;
Structure prediction by ZEFSAII (Michael W. Deem and Ramdas Pophale) SiO2 
 PCOD9373140
Probable space group: I M M 2
;
_chemical_formula_sum "Si O2"
_cell_formula_units_Z 52
_cell_length_a 7.956530
_cell_length_b 17.770430
_cell_length_c 25.009765
_cell_angle_alpha 90.000000
_cell_angle_beta 90.000000
_cell_angle_gamma 90.000000
_cell_volume 3536.154668
_symmetry_space_group_name_H-M "I M M 2"
_symmetry_group_IT_number 44
_symmetry_cell_setting 'orthorhombic'
loop_
_space_group_symop_operation_xyz
x,y,z
-x,-y,z
-x,y,z
x,-y,z
1/2+x,1/2+y,1/2+z
1/2-x,1/2-y,1/2+z
1/2-x,1/2+y,1/2+z
1/2+x,1/2-y,1/2+z
loop_
_atom_site_type_symbol
_atom_site_label
_atom_site_fract_x
_atom_site_fract_y
_atom_site_fract_z
Si Si1 0.000000 0.409998 0.055120
Si Si2 0.814530 0.729092 0.409766
Si Si3 0.189897 0.910816 0.632254
Si Si4 0.000000 0.317864 0.946307
Si Si5 0.308192 0.681639 0.796527
Si Si6 0.798772 0.086180 0.850162
Si Si7 0.201151 0.333499 0.240037
Si Si8 0.500000 0.910581 0.334571
O O1 0.834489 0.391361 0.089903
O O2 0.000000 0.500000 0.046231
O O3 0.000000 0.367518 0.999168
O O4 0.664381 0.765222 0.443103
O O5 0.812638 0.773829 0.353159
O O6 0.780804 0.643211 0.392788
O O7 0.000000 0.737813 0.433564
O O8 0.215996 0.864517 0.686541
O O9 0.000000 0.899736 0.611866
O O10 0.209624 0.000000 0.644775
O O11 0.000000 0.370507 0.893068
O O12 0.500000 0.655325 0.786227
O O13 0.260085 0.746545 0.754104
O O14 0.165967 0.619130 0.803773
O O15 0.754987 0.117064 0.791175
O O16 0.000000 0.089944 0.855987
O O17 0.743803 0.000000 0.855772
O O18 0.000000 0.339470 0.234882
O O19 0.500000 0.000000 0.340035
#
# Coordination Sequence:
#
# PCOD9373140 Si02
#       8
#     4   8   8   4   8   8   8   4
#     4  10  21  36  50  67  93 124 161 204 239 270
#     4   9  17  30  46  65  90 122 157 194 234 273
#     4  10  20  32  46  67  96 127 159 196 229 262
#     4  10  19  34  51  64  88 122 160 204 239 274
#     4   8  17  29  42  65  93 119 151 188 224 271
#     4  10  18  26  40  67 101 132 160 187 220 272
#     4  10  18  28  44  66  95 133 163 184 222 273
#     4  10  19  30  48  69  89 120 155 188 235 282
#
# _framework density 14.705239000000001
#
# number of rings (size 3 to 8) (size 9 to 14) (size 15 to 20)
#    0.000    2.462    1.538    2.538    4.308    4.000 
#    0.000    0.000    0.000    2.769    0.000    0.000 
#    0.000    2.462    0.308    0.000    0.000    0.000 
#
# Total GULP energy -144894.394376 kJ/mol
# GULP energy per Si atom -5572.861322 kJ/mol
# Density = 1.467177 g / cm^3
# Si number density = 14.705239 Si / 1000 Ang^3
#
#
#
# Elastic Constant Matrix: (Units=GPa)
#
#
# Indices 1 2 3 4 5 6 
#
# 1 118.1773 58.2049 43.6145 0.0000 0.0000 0.0000
# 2 58.2049 88.3990 29.2815 0.0000 0.0000 0.0000
# 3 43.6145 29.2815 63.4630 0.0000 0.0000 0.0000
# 4 0.0000 0.0000 0.0000 25.6420 0.0000 0.0000
# 5 0.0000 0.0000 0.0000 0.0000 9.2977 0.0000
# 6 0.0000 0.0000 0.0000 0.0000 0.0000 14.9077
#
#
#
# Elastic Compliance Matrix: (Units=1/GPa)
#
#
# Indices 1 2 3 4 5 6 
#
# 1 0.014527 -0.007387 -0.006575 0.000000 0.000000 0.000000
# 2 -0.007387 0.017109 -0.002818 0.000000 0.000000 0.000000
# 3 -0.006575 -0.002818 0.021576 0.000000 0.000000 0.000000
# 4 0.000000 0.000000 0.000000 0.038999 0.000000 0.000000
# 5 0.000000 0.000000 0.000000 0.000000 0.107554 0.000000
# 6 0.000000 0.000000 0.000000 0.000000 0.000000 0.067079
#
#
# Mechanical properties :
#
#
# Convention : Reuss Voigt Hill
#
# Bulk Modulus (GPa) = 50.88318 59.13789 55.01054
# Shear Modulus (GPa) = 16.28910 19.23203 17.76056
#
# Velocity S-wave (km/s) = 3.33183 3.62032 3.47907
# Velocity P-wave (km/s) = 7.03411 7.60122 7.32315
#
# Compressibility (1/GPa) = 0.01965286
#
# Stress axis : x y z
#
# Youngs Moduli (GPa) = 68.83886 58.44716 46.34797
#
# Poissons Ratio (x) = 0.43174 0.30474
# Poissons Ratio (y) = 0.50851 0.13059
# Poissons Ratio (z) = 0.45262 0.16468
#
# Static dielectric constant tensor:
#      x y z
#    x 1.522530 0.000000 0.000000 
#    y 0.000000 1.476060 0.000000 
#    z 0.000000 0.000000 1.448310 
# 
# From -- ./inp_files/22980.got.cif
#   From: 2010.05.17/outbox.cif.g08.bks.cpg/sg44_12_cif.got.tgz:22980.got - 2010.06.03 19:37:08.
