data_PCOD9373531
_publ_section_title
;
Structure prediction by ZEFSAII (Michael W. Deem and Ramdas Pophale) SiO2 
 PCOD9373531
Probable space group: I M M 2
;
_chemical_formula_sum "Si O2"
_cell_formula_units_Z 64
_cell_length_a 21.214138
_cell_length_b 8.762156
_cell_length_c 20.191198
_cell_angle_alpha 90.000000
_cell_angle_beta 90.000000
_cell_angle_gamma 90.000000
_cell_volume 3753.171919
_symmetry_space_group_name_H-M "I M M 2"
_symmetry_group_IT_number 44
_symmetry_cell_setting 'orthorhombic'
loop_
_space_group_symop_operation_xyz
x,y,z
-x,-y,z
-x,y,z
x,-y,z
1/2+x,1/2+y,1/2+z
1/2-x,1/2-y,1/2+z
1/2-x,1/2+y,1/2+z
1/2+x,1/2-y,1/2+z
loop_
_atom_site_type_symbol
_atom_site_label
_atom_site_fract_x
_atom_site_fract_y
_atom_site_fract_z
Si Si1 0.883937 0.682382 0.553300
Si Si2 0.811286 0.181651 0.775427
Si Si3 0.069360 0.186138 0.272238
Si Si4 0.928783 0.315521 0.697208
Si Si5 0.235101 0.182840 0.049505
Si Si6 0.806528 0.815120 0.193925
Si Si7 0.234539 0.682007 0.910048
Si Si8 0.116999 0.183107 0.414266
O O1 0.890009 0.500000 0.548809
O O2 0.917476 0.732435 0.620715
O O3 0.809361 0.719022 0.559805
O O4 0.906318 0.752001 0.484027
O O5 0.875203 0.243650 0.742701
O O6 0.752386 0.247561 0.733712
O O7 0.802133 0.239347 0.850358
O O8 0.810160 0.000000 0.773134
O O9 0.128043 0.234568 0.227274
O O10 0.081286 0.233963 0.348226
O O11 0.000000 0.235483 0.249978
O O12 0.070229 0.000000 0.272007
O O13 0.921974 0.500000 0.699064
O O14 0.000000 0.276664 0.717180
O O15 0.199394 0.225668 0.116706
O O16 0.230460 0.000000 0.040481
O O17 0.213413 0.265013 0.982777
O O18 0.802086 0.000000 0.198617
O O19 0.230197 0.500000 0.903312
O O20 0.309013 0.724557 0.905552
O O21 0.113634 0.000000 0.417578
#
# Coordination Sequence:
#
# PCOD9373531 Si02
#       8
#     8   8   8   8   8   8   8   8
#     4   9  17  30  48  72 103 136 174 212 251 307
#     4  12  23  34  54  81 108 137 178 226 270 313
#     4   9  17  30  50  76 104 137 176 215 256 305
#     4  10  21  38  57  76 104 145 184 216 265 329
#     4   9  17  30  51  77 105 134 171 220 268 310
#     4  10  18  34  56  77 105 141 178 218 265 320
#     4  10  19  33  53  76 105 137 175 218 267 320
#     4   9  17  29  47  72 104 140 177 214 253 305
#
# _framework density 17.052243000000001
#
# number of rings (size 3 to 8) (size 9 to 14) (size 15 to 20)
#    0.000    2.250    2.500    1.500    0.000    2.250 
#    0.000    0.000    0.000    1.875    0.000    1.750 
#    0.000    0.000    0.000    0.000    0.000    0.000 
#
# Total GULP energy -178531.804236 kJ/mol
# GULP energy per Si atom -5579.118882 kJ/mol
# Density = 1.701343 g / cm^3
# Si number density = 17.052243 Si / 1000 Ang^3
#
#
#
# Elastic Constant Matrix: (Units=GPa)
#
#
# Indices 1 2 3 4 5 6 
#
# 1 114.2028 35.4789 73.1166 0.0000 0.0000 0.0000
# 2 35.4789 23.2967 38.1720 0.0000 0.0000 0.0000
# 3 73.1166 38.1720 128.0003 0.0000 0.0000 0.0000
# 4 0.0000 0.0000 0.0000 29.3477 0.0000 0.0000
# 5 0.0000 0.0000 0.0000 0.0000 21.8034 0.0000
# 6 0.0000 0.0000 0.0000 0.0000 0.0000 -17.7969
#
#
#
# Elastic Compliance Matrix: (Units=1/GPa)
#
#
# Indices 1 2 3 4 5 6 
#
# 1 0.017624 -0.020229 -0.004034 0.000000 0.000000 0.000000
# 2 -0.020229 0.107161 -0.020402 0.000000 0.000000 0.000000
# 3 -0.004034 -0.020402 0.016201 0.000000 0.000000 0.000000
# 4 0.000000 0.000000 0.000000 0.034074 0.000000 0.000000
# 5 0.000000 0.000000 0.000000 0.000000 0.045864 0.000000
# 6 0.000000 0.000000 0.000000 0.000000 0.000000 -0.056190
#
#
# Mechanical properties :
#
#
# Convention : Reuss Voigt Hill
#
# Bulk Modulus (GPa) = 19.35923 62.11497 40.73710
# Shear Modulus (GPa) = 18.43082 14.58631 16.50857
#
# Velocity S-wave (km/s) = 3.29119 2.92788 3.11483
# Velocity P-wave (km/s) = 5.08135 6.92353 6.07270
#
# Compressibility (1/GPa) = 0.05165494
#
# Stress axis : x y z
#
# Youngs Moduli (GPa) = 56.74137 9.33175 61.72349
#
# Poissons Ratio (x) = 0.18877 0.24902
# Poissons Ratio (y) = 1.14783 1.25928
# Poissons Ratio (z) = 0.22892 0.19039
#
# Static dielectric constant tensor:
#      x y z
#    x 1.573610 0.000000 0.000000 
#    y 0.000000 1.573520 0.000000 
#    z 0.000000 0.000000 1.573530 
# 
# From -- ./inp_files/20800.got.cif
#   From: 2010.05.17/outbox.cif.g08.bks.cpg/sg44_11_cif.got.tgz:20800.got - 2010.06.03 19:37:08.
