data_PCOD9373296
_publ_section_title
;
Structure prediction by ZEFSAII (Michael W. Deem and Ramdas Pophale) SiO2 
 PCOD9373296
Probable space group: I M M 2
;
_chemical_formula_sum "Si O2"
_cell_formula_units_Z 64
_cell_length_a 17.649272
_cell_length_b 7.520407
_cell_length_c 21.553248
_cell_angle_alpha 90.000000
_cell_angle_beta 90.000000
_cell_angle_gamma 90.000000
_cell_volume 2860.756328
_symmetry_space_group_name_H-M "I M M 2"
_symmetry_group_IT_number 44
_symmetry_cell_setting 'orthorhombic'
loop_
_space_group_symop_operation_xyz
x,y,z
-x,-y,z
-x,y,z
x,-y,z
1/2+x,1/2+y,1/2+z
1/2-x,1/2-y,1/2+z
1/2-x,1/2+y,1/2+z
1/2+x,1/2-y,1/2+z
loop_
_atom_site_type_symbol
_atom_site_label
_atom_site_fract_x
_atom_site_fract_y
_atom_site_fract_z
Si Si1 0.383554 0.204206 0.278620
Si Si2 0.916665 0.717772 0.914910
Si Si3 0.290910 0.207199 0.510125
Si Si4 0.083335 0.717771 0.375055
Si Si5 0.202630 0.212114 0.144982
Si Si6 0.116446 0.704206 0.511345
Si Si7 0.709089 0.207201 0.779839
Si Si8 0.119784 0.282130 0.644983
O O1 0.408608 0.282022 0.344086
O O2 0.291619 0.203984 0.279309
O O3 0.408931 0.280405 0.212028
O O4 0.409617 0.000000 0.278697
O O5 0.912695 0.500000 0.914053
O O6 0.848029 0.778143 0.958296
O O7 0.000000 0.766114 0.938646
O O8 0.327233 0.223572 0.578753
O O9 0.208381 0.296017 0.510656
O O10 0.276552 0.000000 0.497655
O O11 0.087305 0.500000 0.375912
O O12 0.091392 0.782022 0.445879
O O13 0.151971 0.778142 0.331669
O O14 0.000000 0.766113 0.351319
O O15 0.172766 0.276417 0.211211
O O16 0.291253 0.266435 0.144983
O O17 0.199228 0.000000 0.144979
O O18 0.090383 0.500000 0.511268
O O19 0.091070 0.780405 0.577937
O O20 0.723445 0.000000 0.792306
O O21 0.114826 0.500000 0.644983
#
# Coordination Sequence:
#
# PCOD9373296 Si02
#       8
#     8   8   8   8   8   8   8   8
#     4   9  16  29  49  70  96 129 162 197 238 284
#     4   9  18  31  46  67  97 132 168 203 236 276
#     4  10  18  29  49  74  96 121 159 204 245 284
#     4   9  18  31  46  67  97 132 168 203 236 276
#     4   9  17  31  50  71  96 122 152 194 244 298
#     4   9  16  29  49  70  96 129 162 197 238 284
#     4  10  18  29  49  74  96 121 159 204 245 284
#     4   7  12  23  42  68  90 112 146 187 228 268
#
# _framework density 22.371706
#
# number of rings (size 3 to 8) (size 9 to 14) (size 15 to 20)
#    0.000    3.000    0.000    3.375    0.000    0.000 
#    0.000    2.500    0.000   14.250    0.000    0.000 
#    0.000    6.000    0.000    0.000    0.000    0.000 
#
# Total GULP energy -178473.584606 kJ/mol
# GULP energy per Si atom -5577.299519 kJ/mol
# Density = 2.232079 g / cm^3
# Si number density = 22.371706 Si / 1000 Ang^3
#
#
#
# Elastic Constant Matrix: (Units=GPa)
#
#
# Indices 1 2 3 4 5 6 
#
# 1 92.3575 0.7829 57.4667 0.0000 0.0000 0.0000
# 2 0.7829 64.5393 0.3000 0.0000 0.0000 0.0000
# 3 57.4667 0.3000 144.6766 0.0000 0.0000 0.0000
# 4 0.0000 0.0000 0.0000 8.2804 0.0000 0.0000
# 5 0.0000 0.0000 0.0000 0.0000 -44.3598 0.0000
# 6 0.0000 0.0000 0.0000 0.0000 0.0000 -6.1279
#
#
#
# Elastic Compliance Matrix: (Units=1/GPa)
#
#
# Indices 1 2 3 4 5 6 
#
# 1 0.014383 -0.000148 -0.005713 0.000000 0.000000 0.000000
# 2 -0.000148 0.015496 0.000027 0.000000 0.000000 0.000000
# 3 -0.005713 0.000027 0.009181 0.000000 0.000000 0.000000
# 4 0.000000 0.000000 0.000000 0.120767 0.000000 0.000000
# 5 0.000000 0.000000 0.000000 0.000000 -0.022543 0.000000
# 6 0.000000 0.000000 0.000000 0.000000 0.000000 -0.163189
#
#
# Mechanical properties :
#
#
# Convention : Reuss Voigt Hill
#
# Bulk Modulus (GPa) = 36.50665 46.51916 41.51291
# Shear Modulus (GPa) = -979.47518 7.76014 -485.85752
#
# Velocity S-wave (km/s) = -20.94682 1.86447 -14.75285
# Velocity P-wave (km/s) = 23.84684 5.04717 16.48026
#
# Compressibility (1/GPa) = 0.02739227
#
# Stress axis : x y z
#
# Youngs Moduli (GPa) = 69.52441 64.53229 108.91906
#
# Poissons Ratio (x) = 0.00955 0.62225
# Poissons Ratio (y) = 0.01028 -0.00290
# Poissons Ratio (z) = 0.39719 -0.00172
#
# Static dielectric constant tensor:
#      x y z
#    x 1.781110 0.000000 0.000000 
#    y 0.000000 1.848210 0.000000 
#    z 0.000000 0.000000 1.873090 
# 
# From -- ./inp_files/24386.got.cif
#   From: 2010.05.17/outbox.cif.g08.bks.cpg/sg44_13_cif.got.tgz:24386.got - 2010.06.03 19:37:08.
