data_PCOD9373248
_publ_section_title
;
Structure prediction by ZEFSAII (Michael W. Deem and Ramdas Pophale) SiO2 
 PCOD9373248
Probable space group: I M M 2
;
_chemical_formula_sum "Si O2"
_cell_formula_units_Z 64
_cell_length_a 7.629638
_cell_length_b 24.207556
_cell_length_c 19.902944
_cell_angle_alpha 90.000000
_cell_angle_beta 90.000000
_cell_angle_gamma 90.000000
_cell_volume 3675.972036
_symmetry_space_group_name_H-M "I M M 2"
_symmetry_group_IT_number 44
_symmetry_cell_setting 'orthorhombic'
loop_
_space_group_symop_operation_xyz
x,y,z
-x,-y,z
-x,y,z
x,-y,z
1/2+x,1/2+y,1/2+z
1/2-x,1/2-y,1/2+z
1/2-x,1/2+y,1/2+z
1/2+x,1/2-y,1/2+z
loop_
_atom_site_type_symbol
_atom_site_label
_atom_site_fract_x
_atom_site_fract_y
_atom_site_fract_z
Si Si1 0.294922 0.612444 0.704340
Si Si2 0.214964 0.062905 0.344874
Si Si3 0.294047 0.239922 0.201523
Si Si4 0.789770 0.062429 0.064715
Si Si5 0.288729 0.772898 0.846538
Si Si6 0.786090 0.231428 0.556627
Si Si7 0.713720 0.665086 0.930923
Si Si8 0.289960 0.838171 0.972063
O O1 0.500000 0.597662 0.703801
O O2 0.223350 0.584621 0.771961
O O3 0.283368 0.678547 0.708786
O O4 0.220686 0.590143 0.633840
O O5 0.272058 0.106916 0.400976
O O6 0.000000 0.063839 0.344445
O O7 0.269204 0.000000 0.356305
O O8 0.500000 0.230835 0.192197
O O9 0.267996 0.273717 0.269711
O O10 0.226911 0.268830 0.133582
O O11 0.000000 0.059623 0.070344
O O12 0.723388 0.000000 0.057005
O O13 0.754541 0.102927 0.002658
O O14 0.500000 0.773056 0.846211
O O15 0.233963 0.714687 0.880485
O O16 0.227686 0.820606 0.897794
O O17 0.728824 0.183604 0.505238
O O18 0.730867 0.289733 0.523159
O O19 0.000000 0.230125 0.556075
O O20 0.500000 0.664757 0.931080
O O21 0.500000 0.834499 0.970474
#
# Coordination Sequence:
#
# PCOD9373248 Si02
#       8
#     8   8   8   8   8   8   8   8
#     4  10  18  29  42  60  91 124 152 177 210 258
#     4   9  15  23  40  64  85 110 147 181 207 244
#     4  11  19  27  43  66  90 116 148 183 221 266
#     4  10  20  31  44  65  94 125 154 187 227 267
#     4   9  17  30  47  64  85 116 149 183 227 270
#     4   8  15  26  40  59  85 113 141 177 223 265
#     4   8  13  24  41  60  82 110 142 176 215 253
#     4   9  17  31  48  64  85 116 154 191 223 265
#
# _framework density 17.410361000000002
#
# number of rings (size 3 to 8) (size 9 to 14) (size 15 to 20)
#    0.000    2.750    2.500    2.250    0.000    2.250 
#    0.000    0.000    0.000    1.125    0.000    0.875 
#    0.000    3.000    0.000    0.000    0.000    0.000 
#
# Total GULP energy -178375.604744 kJ/mol
# GULP energy per Si atom -5574.237648 kJ/mol
# Density = 1.737073 g / cm^3
# Si number density = 17.410361 Si / 1000 Ang^3
#
#
#
# Elastic Constant Matrix: (Units=GPa)
#
#
# Indices 1 2 3 4 5 6 
#
# 1 28.8157 0.4491 -0.4886 0.0000 0.0000 0.0000
# 2 0.4491 111.4114 83.2083 0.0000 0.0000 0.0000
# 3 -0.4886 83.2083 160.4964 0.0000 0.0000 0.0000
# 4 0.0000 0.0000 0.0000 20.7319 0.0000 0.0000
# 5 0.0000 0.0000 0.0000 0.0000 10.7303 0.0000
# 6 0.0000 0.0000 0.0000 0.0000 0.0000 10.5044
#
#
#
# Elastic Compliance Matrix: (Units=1/GPa)
#
#
# Indices 1 2 3 4 5 6 
#
# 1 0.034714 -0.000357 0.000291 0.000000 0.000000 0.000000
# 2 -0.000357 0.014651 -0.007597 0.000000 0.000000 0.000000
# 3 0.000291 -0.007597 0.010170 0.000000 0.000000 0.000000
# 4 0.000000 0.000000 0.000000 0.048235 0.000000 0.000000
# 5 0.000000 0.000000 0.000000 0.000000 0.093194 0.000000
# 6 0.000000 0.000000 0.000000 0.000000 0.000000 0.095198
#
#
# Mechanical properties :
#
#
# Convention : Reuss Voigt Hill
#
# Bulk Modulus (GPa) = 22.62001 51.89568 37.25784
# Shear Modulus (GPa) = 15.32689 22.89696 19.11193
#
# Velocity S-wave (km/s) = 2.97026 3.63041 3.31680
# Velocity P-wave (km/s) = 4.97832 6.88805 6.00953
#
# Compressibility (1/GPa) = 0.04420864
#
# Stress axis : x y z
#
# Youngs Moduli (GPa) = 28.80698 68.25541 98.32816
#
# Poissons Ratio (x) = 0.02438 -0.02860
# Poissons Ratio (y) = 0.01029 0.74697
# Poissons Ratio (z) = -0.00838 0.51852
#
# Static dielectric constant tensor:
#      x y z
#    x 1.671210 0.000000 0.000000 
#    y 0.000000 1.568970 0.000000 
#    z 0.000000 0.000000 1.616000 
# 
# From -- ./inp_files/20838.got.cif
#   From: 2010.05.17/outbox.cif.g08.bks.cpg/sg44_11_cif.got.tgz:20838.got - 2010.06.03 19:37:08.
