data_PCOD9373344
_publ_section_title
;
Structure prediction by ZEFSAII (Michael W. Deem and Ramdas Pophale) SiO2 
 PCOD9373344
Probable space group: I M M 2
;
_chemical_formula_sum "Si O2"
_cell_formula_units_Z 48
_cell_length_a 8.556191
_cell_length_b 24.434353
_cell_length_c 14.063661
_cell_angle_alpha 90.000000
_cell_angle_beta 90.000000
_cell_angle_gamma 90.000000
_cell_volume 2940.219164
_symmetry_space_group_name_H-M "I M M 2"
_symmetry_group_IT_number 44
_symmetry_cell_setting 'orthorhombic'
loop_
_space_group_symop_operation_xyz
x,y,z
-x,-y,z
-x,y,z
x,-y,z
1/2+x,1/2+y,1/2+z
1/2-x,1/2-y,1/2+z
1/2-x,1/2+y,1/2+z
1/2+x,1/2-y,1/2+z
loop_
_atom_site_type_symbol
_atom_site_label
_atom_site_fract_x
_atom_site_fract_y
_atom_site_fract_z
Si Si1 0.186166 0.771444 0.197960
Si Si2 0.188379 0.936753 0.478488
Si Si3 0.686248 0.229340 0.988378
Si Si4 0.185819 0.332791 0.874349
Si Si5 0.187849 0.832156 0.809903
Si Si6 0.809757 0.938416 0.698232
O O1 0.240352 0.781588 0.090912
O O2 0.242876 0.817534 0.271978
O O3 0.000000 0.766508 0.203286
O O4 0.261734 0.815117 0.910167
O O5 0.266656 0.892298 0.411367
O O6 0.234945 0.926911 0.588729
O O7 0.000000 0.930966 0.473055
O O8 0.226369 0.000000 0.455991
O O9 0.500000 0.231227 0.995332
O O10 0.746710 0.287355 0.947138
O O11 0.762540 0.215187 0.736125
O O12 0.000000 0.326682 0.870404
O O13 0.240826 0.890409 0.768351
O O14 0.000000 0.831838 0.818577
O O15 0.000000 0.938658 0.699151
O O16 0.758018 0.000000 0.722994
#
# Coordination Sequence:
#
# PCOD9373344 Si02
#       6
#     8   8   8   8   8   8
#     4  11  21  34  51  72  98 127 163 204 248 296
#     4   9  17  31  51  74 101 134 168 201 242 290
#     4  11  21  34  50  70  99 131 164 202 246 294
#     4  11  21  33  50  74 102 131 164 201 246 295
#     4  10  18  30  50  75 101 129 162 198 240 290
#     4   8  15  28  48  73  99 128 161 196 234 280
#
# _framework density 16.325313999999999
#
# number of rings (size 3 to 8) (size 9 to 14) (size 15 to 20)
#    0.000    2.000    0.000    9.000    0.000    1.667 
#    0.000    0.833    0.000    5.000    0.000    2.333 
#    0.000    0.000    0.000    0.000    0.000    0.000 
#
# Total GULP energy -133965.673274 kJ/mol
# GULP energy per Si atom -5581.903053 kJ/mol
# Density = 1.628816 g / cm^3
# Si number density = 16.325314 Si / 1000 Ang^3
#
#
#
# Elastic Constant Matrix: (Units=GPa)
#
#
# Indices 1 2 3 4 5 6 
#
# 1 62.0172 10.6844 12.0905 0.0000 0.0000 0.0000
# 2 10.6844 89.1094 58.2083 0.0000 0.0000 0.0000
# 3 12.0905 58.2083 106.5699 0.0000 0.0000 0.0000
# 4 0.0000 0.0000 0.0000 18.8426 0.0000 0.0000
# 5 0.0000 0.0000 0.0000 0.0000 25.1811 0.0000
# 6 0.0000 0.0000 0.0000 0.0000 0.0000 24.1990
#
#
#
# Elastic Compliance Matrix: (Units=1/GPa)
#
#
# Indices 1 2 3 4 5 6 
#
# 1 0.016569 -0.001180 -0.001235 0.000000 0.000000 0.000000
# 2 -0.001180 0.017531 -0.009442 0.000000 0.000000 0.000000
# 3 -0.001235 -0.009442 0.014681 0.000000 0.000000 0.000000
# 4 0.000000 0.000000 0.000000 0.053071 0.000000 0.000000
# 5 0.000000 0.000000 0.000000 0.000000 0.039712 0.000000
# 6 0.000000 0.000000 0.000000 0.000000 0.000000 0.041324
#
#
# Mechanical properties :
#
#
# Convention : Reuss Voigt Hill
#
# Bulk Modulus (GPa) = 39.89296 46.62920 43.26108
# Shear Modulus (GPa) = 23.26047 25.42543 24.34295
#
# Velocity S-wave (km/s) = 3.77876 3.95070 3.86569
# Velocity P-wave (km/s) = 6.59758 7.03102 6.81774
#
# Compressibility (1/GPa) = 0.02506708
#
# Stress axis : x y z
#
# Youngs Moduli (GPa) = 60.35500 57.04155 68.11679
#
# Poissons Ratio (x) = 0.06729 0.08415
# Poissons Ratio (y) = 0.07120 0.64313
# Poissons Ratio (z) = 0.07456 0.53856
#
# Static dielectric constant tensor:
#      x y z
#    x 1.551750 0.000000 0.000000 
#    y 0.000000 1.542440 0.000000 
#    z 0.000000 0.000000 1.529750 
# 
# From -- ./inp_files/11215.got.cif
#   From: 2010.05.17/outbox.cif.g08.bks.cpg/sg44_6_cif.got.tgz:11215.got - 2010.06.03 19:37:08.
