data_PCOD9373563
_publ_section_title
;
Structure prediction by ZEFSAII (Michael W. Deem and Ramdas Pophale) SiO2 
 PCOD9373563
Probable space group: I M M 2
;
_chemical_formula_sum "Si O2"
_cell_formula_units_Z 32
_cell_length_a 5.428025
_cell_length_b 21.890378
_cell_length_c 12.153491
_cell_angle_alpha 90.000000
_cell_angle_beta 90.000000
_cell_angle_gamma 90.000000
_cell_volume 1444.096262
_symmetry_space_group_name_H-M "I M M 2"
_symmetry_group_IT_number 44
_symmetry_cell_setting 'orthorhombic'
loop_
_space_group_symop_operation_xyz
x,y,z
-x,-y,z
-x,y,z
x,-y,z
1/2+x,1/2+y,1/2+z
1/2-x,1/2-y,1/2+z
1/2-x,1/2+y,1/2+z
1/2+x,1/2-y,1/2+z
loop_
_atom_site_type_symbol
_atom_site_label
_atom_site_fract_x
_atom_site_fract_y
_atom_site_fract_z
Si Si1 0.000000 0.398002 0.844770
Si Si2 0.500000 0.259741 0.825429
Si Si3 0.500000 0.695732 0.070330
Si Si4 0.000000 0.256996 0.776272
Si Si5 0.000000 0.108615 0.221984
Si Si6 0.500000 0.880813 0.594914
Si Si7 0.500000 0.574063 0.466168
Si Si8 0.500000 0.072909 0.842543
O O1 0.747977 0.415918 0.782167
O O2 0.000000 0.323319 0.832800
O O3 0.000000 0.414069 0.974373
O O4 0.249271 0.224424 0.810013
O O5 0.500000 0.317513 0.741689
O O6 0.500000 0.288314 0.944188
O O7 0.500000 0.756375 0.144858
O O8 0.251108 0.658498 0.092734
O O9 0.000000 0.095323 0.093063
O O10 0.500000 0.914894 0.711460
O O11 0.500000 0.500000 0.467830
O O12 0.250468 0.594020 0.403475
O O13 0.500000 0.000000 0.855053
#
# Coordination Sequence:
#
# PCOD9373563 Si02
#       8
#     4   4   4   4   4   4   4   4
#     4  10  19  37  60  84 119 157 190 252 296 350
#     4  10  19  38  54  79 115 157 192 247 294 339
#     4  12  21  37  60  83 122 158 197 245 296 358
#     4  10  20  35  55  83 109 162 196 233 301 337
#     4  10  18  35  62  83 114 154 194 236 308 351
#     4  12  21  40  64  86 121 163 198 249 303 354
#     4  10  21  40  63  87 122 155 192 249 301 362
#     4  10  23  42  63  89 122 158 198 245 301 361
#
# _framework density 22.159188
#
# number of rings (size 3 to 8) (size 9 to 14) (size 15 to 20)
#    0.000    1.500    5.000    2.250    0.000    0.000 
#    0.000   16.250    0.000    0.000    0.000    0.000 
#    0.000    0.000    0.000    0.000    0.000    0.000 
#
# Total GULP energy -89303.559164 kJ/mol
# GULP energy per Si atom -5581.472448 kJ/mol
# Density = 2.210875 g / cm^3
# Si number density = 22.159188 Si / 1000 Ang^3
#
#
#
# Elastic Constant Matrix: (Units=GPa)
#
#
# Indices 1 2 3 4 5 6 
#
# 1 259.7156 14.8458 104.8425 0.0000 0.0000 0.0000
# 2 14.8458 37.3408 30.0893 0.0000 0.0000 0.0000
# 3 104.8425 30.0893 183.1186 0.0000 0.0000 0.0000
# 4 0.0000 0.0000 0.0000 28.0339 0.0000 0.0000
# 5 0.0000 0.0000 0.0000 0.0000 56.7699 0.0000
# 6 0.0000 0.0000 0.0000 0.0000 0.0000 -1.0651
#
#
#
# Elastic Compliance Matrix: (Units=1/GPa)
#
#
# Indices 1 2 3 4 5 6 
#
# 1 0.005012 0.000368 -0.002930 0.000000 0.000000 0.000000
# 2 0.000368 0.030895 -0.005287 0.000000 0.000000 0.000000
# 3 -0.002930 -0.005287 0.008007 0.000000 0.000000 0.000000
# 4 0.000000 0.000000 0.000000 0.035671 0.000000 0.000000
# 5 0.000000 0.000000 0.000000 0.000000 0.017615 0.000000
# 6 0.000000 0.000000 0.000000 0.000000 0.000000 -0.938910
#
#
# Mechanical properties :
#
#
# Convention : Reuss Voigt Hill
#
# Bulk Modulus (GPa) = 35.44119 86.63668 61.03894
# Shear Modulus (GPa) = -6.12291 38.77423 16.32566
#
# Velocity S-wave (km/s) = -1.66407 4.18760 2.71725
# Velocity P-wave (km/s) = 3.51233 7.90972 6.11964
#
# Compressibility (1/GPa) = 0.02821576
#
# Stress axis : x y z
#
# Youngs Moduli (GPa) = 199.51413 32.36821 124.88435
#
# Poissons Ratio (x) = -0.01193 0.36594
# Poissons Ratio (y) = -0.07351 0.66032
# Poissons Ratio (z) = 0.58462 0.17114
#
# Static dielectric constant tensor:
#      x y z
#    x 1.924150 0.000000 0.000000 
#    y 0.000000 1.806010 0.000000 
#    z 0.000000 0.000000 1.792410 
# 
# From -- ./inp_files/3568.got.cif
#   From: 2010.05.17/outbox.cif.g08.bks.cpg/sg44_2_cif.got.tgz:3568.got - 2010.06.03 19:37:08.
