data_PCOD9373844
_publ_section_title
;
Structure prediction by ZEFSAII (Michael W. Deem and Ramdas Pophale) SiO2 
 PCOD9373844
Probable space group: I M M 2
;
_chemical_formula_sum "Si O2"
_cell_formula_units_Z 64
_cell_length_a 8.164954
_cell_length_b 16.329736
_cell_length_c 23.654860
_cell_angle_alpha 90.000000
_cell_angle_beta 90.000000
_cell_angle_gamma 90.000000
_cell_volume 3153.938990
_symmetry_space_group_name_H-M "I M M 2"
_symmetry_group_IT_number 44
_symmetry_cell_setting 'orthorhombic'
loop_
_space_group_symop_operation_xyz
x,y,z
-x,-y,z
-x,y,z
x,-y,z
1/2+x,1/2+y,1/2+z
1/2-x,1/2-y,1/2+z
1/2-x,1/2+y,1/2+z
1/2+x,1/2-y,1/2+z
loop_
_atom_site_type_symbol
_atom_site_label
_atom_site_fract_x
_atom_site_fract_y
_atom_site_fract_z
Si Si1 0.186561 0.904389 0.349600
Si Si2 0.812680 0.374168 0.415008
Si Si3 0.695600 0.407603 0.287238
Si Si4 0.811205 0.813779 0.453137
Si Si5 0.307008 0.413029 0.535570
Si Si6 0.803872 0.735825 0.071412
Si Si7 0.302417 0.775576 0.693607
Si Si8 0.200538 0.092265 0.222397
O O1 0.271029 0.865588 0.403551
O O2 0.257691 0.896493 0.287330
O O3 0.000000 0.869001 0.345658
O O4 0.172181 0.000000 0.360039
O O5 0.754356 0.391283 0.351566
O O6 0.809177 0.277684 0.428141
O O7 0.711608 0.409925 0.467577
O O8 0.000000 0.402384 0.420475
O O9 0.500000 0.408702 0.288358
O O10 0.753344 0.500000 0.270845
O O11 0.745847 0.335689 0.243685
O O12 0.735044 0.813462 0.514859
O O13 0.000000 0.840412 0.460005
O O14 0.500000 0.413469 0.549508
O O15 0.236377 0.500000 0.555620
O O16 0.237283 0.328490 0.560439
O O17 0.747748 0.698002 0.130667
O O18 0.000000 0.743100 0.075129
O O19 0.500000 0.776278 0.697095
O O20 0.252352 0.679146 0.695539
O O21 0.000000 0.089576 0.221518
O O22 0.251560 0.000000 0.203239
#
# Coordination Sequence:
#
# PCOD9373844 Si02
#       8
#     8   8   8   8   8   8   8   8
#     4   8  13  23  42  69  96 118 146 190 240 287
#     4  10  19  31  51  78 104 130 164 208 257 310
#     4  11  24  39  54  74 101 135 175 219 270 323
#     4   9  17  30  49  72  98 129 164 200 241 293
#     4   9  17  30  48  72 105 139 165 195 242 301
#     4   9  19  33  48  69  97 129 166 205 244 288
#     4  10  20  35  55  77 102 135 175 217 258 301
#     4   8  14  26  48  79 109 131 156 197 248 302
#
# _framework density 20.292085
#
# number of rings (size 3 to 8) (size 9 to 14) (size 15 to 20)
#    0.000    2.750    0.000    2.625    0.000    6.250 
#    0.000    3.125    0.000    3.000    0.000    3.500 
#    0.000    0.000    0.000    0.000    0.000    0.000 
#
# Total GULP energy -178167.881709 kJ/mol
# GULP energy per Si atom -5567.746303 kJ/mol
# Density = 2.024590 g / cm^3
# Si number density = 20.292085 Si / 1000 Ang^3
#
#
#
# Elastic Constant Matrix: (Units=GPa)
#
#
# Indices 1 2 3 4 5 6 
#
# 1 18.0904 4.2414 3.7585 0.0000 0.0000 0.0000
# 2 4.2414 33.3169 40.7657 0.0000 0.0000 0.0000
# 3 3.7585 40.7657 98.4269 0.0000 0.0000 0.0000
# 4 0.0000 0.0000 0.0000 2.1352 0.0000 0.0000
# 5 0.0000 0.0000 0.0000 0.0000 16.1992 0.0000
# 6 0.0000 0.0000 0.0000 0.0000 0.0000 13.9522
#
#
#
# Elastic Compliance Matrix: (Units=1/GPa)
#
#
# Indices 1 2 3 4 5 6 
#
# 1 0.057116 -0.009331 0.001684 0.000000 0.000000 0.000000
# 2 -0.009331 0.062378 -0.025479 0.000000 0.000000 0.000000
# 3 0.001684 -0.025479 0.020648 0.000000 0.000000 0.000000
# 4 0.000000 0.000000 0.000000 0.468332 0.000000 0.000000
# 5 0.000000 0.000000 0.000000 0.000000 0.061732 0.000000
# 6 0.000000 0.000000 0.000000 0.000000 0.000000 0.071673
#
#
# Mechanical properties :
#
#
# Convention : Reuss Voigt Hill
#
# Bulk Modulus (GPa) = 13.53378 27.48505 20.50942
# Shear Modulus (GPa) = 6.00412 13.19524 9.59968
#
# Velocity S-wave (km/s) = 1.72200 2.55280 2.17739
# Velocity P-wave (km/s) = 3.26154 4.71838 4.05591
#
# Compressibility (1/GPa) = 0.07388919
#
# Stress axis : x y z
#
# Youngs Moduli (GPa) = 17.50828 16.03126 48.43031
#
# Poissons Ratio (x) = 0.14959 -0.08154
# Poissons Ratio (y) = 0.16337 1.23396
# Poissons Ratio (z) = -0.02948 0.40846
#
# Static dielectric constant tensor:
#      x y z
#    x 1.753590 0.000000 0.000000 
#    y 0.000000 1.765730 0.000000 
#    z 0.000000 0.000000 1.749240 
# 
# From -- ./inp_files/23302.got.cif
#   From: 2010.05.17/outbox.cif.g08.bks.cpg/sg44_12_cif.got.tgz:23302.got - 2010.06.03 19:37:08.
