data_PCOD9373357
_publ_section_title
;
Structure prediction by ZEFSAII (Michael W. Deem and Ramdas Pophale) SiO2 
 PCOD9373357
Probable space group: I M M 2
;
_chemical_formula_sum "Si O2"
_cell_formula_units_Z 56
_cell_length_a 15.885046
_cell_length_b 15.275645
_cell_length_c 12.637900
_cell_angle_alpha 90.000000
_cell_angle_beta 90.000000
_cell_angle_gamma 90.000000
_cell_volume 3066.641075
_symmetry_space_group_name_H-M "I M M 2"
_symmetry_group_IT_number 44
_symmetry_cell_setting 'orthorhombic'
loop_
_space_group_symop_operation_xyz
x,y,z
-x,-y,z
-x,y,z
x,-y,z
1/2+x,1/2+y,1/2+z
1/2-x,1/2-y,1/2+z
1/2-x,1/2+y,1/2+z
1/2+x,1/2-y,1/2+z
loop_
_atom_site_type_symbol
_atom_site_label
_atom_site_fract_x
_atom_site_fract_y
_atom_site_fract_z
Si Si1 0.406819 0.632242 0.219890
Si Si2 0.096012 0.328794 0.807789
Si Si3 0.398024 0.903655 0.095668
Si Si4 0.096471 0.711739 0.397867
Si Si5 0.881059 0.901765 0.471387
Si Si6 0.711739 0.099343 0.747817
Si Si7 0.816633 0.401733 0.001376
O O1 0.500000 0.599088 0.256689
O O2 0.405142 0.732862 0.256407
O O3 0.314090 0.599543 0.255703
O O4 0.406447 0.617214 0.093361
O O5 0.135273 0.387380 0.713971
O O6 0.000000 0.357267 0.824647
O O7 0.139904 0.336094 0.920471
O O8 0.500000 0.902205 0.103923
O O9 0.372792 0.000000 0.056868
O O10 0.377940 0.827499 0.012838
O O11 0.094579 0.816803 0.404152
O O12 0.163875 0.670103 0.318681
O O13 0.000000 0.681805 0.375562
O O14 0.780610 0.904133 0.469929
O O15 0.909582 0.000000 0.442114
O O16 0.685267 0.117650 0.626127
O O17 0.684004 0.000000 0.773959
O O18 0.852639 0.500000 0.986554
#
# Coordination Sequence:
#
# PCOD9373357 Si02
#       7
#     8   8   8   8   8   8   8
#     4  10  19  34  56  83 112 141 180 233 284 327
#     4  10  18  30  51  79 111 146 183 230 278 324
#     4   9  17  29  47  74 108 145 182 222 271 326
#     4  11  21  35  54  79 114 150 185 228 278 333
#     4  10  20  35  56  82 111 142 181 232 286 334
#     4  10  22  37  54  80 114 151 189 226 272 333
#     4   9  19  34  51  76 110 147 186 228 272 326
#
# _framework density 18.261022000000001
#
# number of rings (size 3 to 8) (size 9 to 14) (size 15 to 20)
#    0.000    2.143    1.429    3.429    0.000    4.286 
#    0.000    1.429    0.000    0.000    0.000    1.000 
#    0.000    5.143    0.000    0.000    0.000    0.000 
#
# Total GULP energy -155878.399726 kJ/mol
# GULP energy per Si atom -5567.085704 kJ/mol
# Density = 1.821946 g / cm^3
# Si number density = 18.261022 Si / 1000 Ang^3
#
#
#
# Elastic Constant Matrix: (Units=GPa)
#
#
# Indices 1 2 3 4 5 6 
#
# 1 78.8189 35.0104 40.1043 0.0000 0.0000 0.0000
# 2 35.0104 114.8012 43.6790 0.0000 0.0000 0.0000
# 3 40.1043 43.6790 67.1284 0.0000 0.0000 0.0000
# 4 0.0000 0.0000 0.0000 21.4147 0.0000 0.0000
# 5 0.0000 0.0000 0.0000 0.0000 21.0361 0.0000
# 6 0.0000 0.0000 0.0000 0.0000 0.0000 66.5919
#
#
#
# Elastic Compliance Matrix: (Units=1/GPa)
#
#
# Indices 1 2 3 4 5 6 
#
# 1 0.018539 -0.001913 -0.009831 0.000000 0.000000 0.000000
# 2 -0.001913 0.011774 -0.006518 0.000000 0.000000 0.000000
# 3 -0.009831 -0.006518 0.025011 0.000000 0.000000 0.000000
# 4 0.000000 0.000000 0.000000 0.046697 0.000000 0.000000
# 5 0.000000 0.000000 0.000000 0.000000 0.047537 0.000000
# 6 0.000000 0.000000 0.000000 0.000000 0.000000 0.015017
#
#
# Mechanical properties :
#
#
# Convention : Reuss Voigt Hill
#
# Bulk Modulus (GPa) = 53.19151 55.37065 54.28108
# Shear Modulus (GPa) = 24.11181 31.27220 27.69200
#
# Velocity S-wave (km/s) = 3.63767 4.14274 3.89839
# Velocity P-wave (km/s) = 6.84362 7.29867 7.07481
#
# Compressibility (1/GPa) = 0.01879999
#
# Stress axis : x y z
#
# Youngs Moduli (GPa) = 53.93940 84.93136 39.98205
#
# Poissons Ratio (x) = 0.16251 0.39306
# Poissons Ratio (y) = 0.10321 0.26061
# Poissons Ratio (z) = 0.53027 0.55359
#
# Static dielectric constant tensor:
#      x y z
#    x 1.656500 0.000000 0.000000 
#    y 0.000000 1.670050 0.000000 
#    z 0.000000 0.000000 1.613120 
# 
# From -- ./inp_files/13222.got.cif
#   From: 2010.05.17/outbox.cif.g08.bks.cpg/sg44_7_cif.got.tgz:13222.got - 2010.06.03 19:37:08.
