data_PCOD9373115
_publ_section_title
;
Structure prediction by ZEFSAII (Michael W. Deem and Ramdas Pophale) SiO2 
 PCOD9373115
Probable space group: I M M 2
;
_chemical_formula_sum "Si O2"
_cell_formula_units_Z 44
_cell_length_a 28.401401
_cell_length_b 7.454257
_cell_length_c 8.117992
_cell_angle_alpha 90.000000
_cell_angle_beta 90.000000
_cell_angle_gamma 90.000000
_cell_volume 1718.670982
_symmetry_space_group_name_H-M "I M M 2"
_symmetry_group_IT_number 44
_symmetry_cell_setting 'orthorhombic'
loop_
_space_group_symop_operation_xyz
x,y,z
-x,-y,z
-x,y,z
x,-y,z
1/2+x,1/2+y,1/2+z
1/2-x,1/2-y,1/2+z
1/2-x,1/2+y,1/2+z
1/2+x,1/2-y,1/2+z
loop_
_atom_site_type_symbol
_atom_site_label
_atom_site_fract_x
_atom_site_fract_y
_atom_site_fract_z
Si Si1 0.000000 0.208946 0.759480
Si Si2 0.657966 0.778843 0.046614
Si Si3 0.237102 0.196982 0.073252
Si Si4 0.100334 0.719342 0.228853
Si Si5 0.748220 0.000000 0.759109
Si Si6 0.000000 0.716634 0.368651
Si Si7 0.603568 0.793404 0.367882
O O1 0.047706 0.289165 0.833731
O O2 0.000000 0.230467 0.561148
O O3 0.000000 0.000000 0.799064
O O4 0.710941 0.708666 0.063946
O O5 0.628419 0.719464 0.205050
O O6 0.662325 0.000000 0.040426
O O7 0.631939 0.722036 0.881990
O O8 0.212867 0.345226 0.178813
O O9 0.238497 0.000000 0.152220
O O10 0.227627 0.153897 0.883852
O O11 0.099781 0.500000 0.225524
O O12 0.047118 0.775146 0.275938
O O13 0.113585 0.786475 0.047035
O O14 0.000000 0.500000 0.370146
O O15 0.619211 0.000000 0.373589
#
# Coordination Sequence:
#
# PCOD9373115 Si02
#       7
#     4   8   8   8   4   4   8
#     4  12  23  34  50  77 117 162 204 254 311 367
#     4   9  17  36  58  92 124 152 199 260 323 377
#     4   9  22  41  67 101 134 174 213 279 328 422
#     4   9  17  30  56  89 110 145 199 256 301 359
#     4  10  22  42  70  96 140 172 226 262 348 402
#     4  10  17  32  54  77 107 146 198 242 291 351
#     4  10  19  35  61  83 110 152 207 254 309 368
#
# _framework density 25.601175999999999
#
# number of rings (size 3 to 8) (size 9 to 14) (size 15 to 20)
#    0.545    1.818    1.818    1.364    1.273    1.455 
#    4.909    1.818    2.000    0.000    0.000    0.000 
#    0.000    0.000    0.000    0.000    0.000    0.000 
#
# Total GULP energy -122469.993519 kJ/mol
# GULP energy per Si atom -5566.817887 kJ/mol
# Density = 2.554291 g / cm^3
# Si number density = 25.601176 Si / 1000 Ang^3
#
#
#
# Elastic Constant Matrix: (Units=GPa)
#
#
# Indices 1 2 3 4 5 6 
#
# 1 86.5946 -36.3591 28.0100 0.0000 0.0000 0.0000
# 2 -36.3591 116.0311 -4.4132 0.0000 0.0000 0.0000
# 3 28.0100 -4.4132 185.4156 0.0000 0.0000 0.0000
# 4 0.0000 0.0000 0.0000 12.0449 0.0000 0.0000
# 5 0.0000 0.0000 0.0000 0.0000 39.9622 0.0000
# 6 0.0000 0.0000 0.0000 0.0000 0.0000 33.3802
#
#
#
# Elastic Compliance Matrix: (Units=1/GPa)
#
#
# Indices 1 2 3 4 5 6 
#
# 1 0.014011 0.004314 -0.002014 0.000000 0.000000 0.000000
# 2 0.004314 0.009954 -0.000415 0.000000 0.000000 0.000000
# 3 -0.002014 -0.000415 0.005688 0.000000 0.000000 0.000000
# 4 0.000000 0.000000 0.000000 0.083023 0.000000 0.000000
# 5 0.000000 0.000000 0.000000 0.000000 0.025024 0.000000
# 6 0.000000 0.000000 0.000000 0.000000 0.000000 0.029958
#
#
# Mechanical properties :
#
#
# Convention : Reuss Voigt Hill
#
# Bulk Modulus (GPa) = 29.91949 40.27963 35.09956
# Shear Modulus (GPa) = 28.56690 43.79771 36.18231
#
# Velocity S-wave (km/s) = 3.34405 4.14063 3.76348
# Velocity P-wave (km/s) = 5.15968 6.21510 5.71182
#
# Compressibility (1/GPa) = 0.03342303
#
# Stress axis : x y z
#
# Youngs Moduli (GPa) = 71.37390 100.45863 175.81968
#
# Poissons Ratio (x) = -0.43335 0.35408
# Poissons Ratio (y) = -0.30789 0.07292
# Poissons Ratio (z) = 0.14374 0.04166
#
# Static dielectric constant tensor:
#      x y z
#    x 2.134690 0.000000 0.000000 
#    y 0.000000 1.972740 0.000000 
#    z 0.000000 0.000000 2.228340 
# 
# From -- ./inp_files/9939.got.cif
#   From: 2010.05.17/outbox.cif.g08.bks.cpg/sg44_5_cif.got.tgz:9939.got - 2010.06.03 19:37:08.
