data_PCOD9373240
_publ_section_title
;
Structure prediction by ZEFSAII (Michael W. Deem and Ramdas Pophale) SiO2 
 PCOD9373240
Probable space group: I M M 2
;
_chemical_formula_sum "Si O2"
_cell_formula_units_Z 36
_cell_length_a 23.798160
_cell_length_b 7.708709
_cell_length_c 7.431217
_cell_angle_alpha 90.000000
_cell_angle_beta 90.000000
_cell_angle_gamma 90.000000
_cell_volume 1363.279722
_symmetry_space_group_name_H-M "I M M 2"
_symmetry_group_IT_number 44
_symmetry_cell_setting 'orthorhombic'
loop_
_space_group_symop_operation_xyz
x,y,z
-x,-y,z
-x,y,z
x,-y,z
1/2+x,1/2+y,1/2+z
1/2-x,1/2-y,1/2+z
1/2-x,1/2+y,1/2+z
1/2+x,1/2-y,1/2+z
loop_
_atom_site_type_symbol
_atom_site_label
_atom_site_fract_x
_atom_site_fract_y
_atom_site_fract_z
Si Si1 0.218018 0.312272 0.087860
Si Si2 0.435730 0.297412 0.798056
Si Si3 0.330033 0.806601 0.991938
Si Si4 0.934308 0.301380 0.887810
Si Si5 0.154584 0.000000 0.882970
O O1 0.194559 0.299242 0.288451
O O2 0.298771 0.000000 0.511910
O O3 0.286152 0.311670 0.097177
O O4 0.194182 0.151626 0.979657
O O5 0.500000 0.277448 0.853663
O O6 0.424099 0.500000 0.756854
O O7 0.393975 0.238945 0.952448
O O8 0.428018 0.202581 0.607468
O O9 0.324419 0.000000 0.062059
O O10 0.925123 0.500000 0.828126
O O11 0.000000 0.256153 0.852977
O O12 0.891150 0.154820 0.824762
#
# Coordination Sequence:
#
# PCOD9373240 Si02
#       5
#     8   8   8   8   4
#     4  11  24  37  57  80 116 156 194 237 285 341
#     4  10  18  30  51  78 111 146 185 239 291 334
#     4  11  22  38  55  85 116 152 193 234 288 348
#     4  10  18  28  48  77 110 145 183 233 290 337
#     4  12  19  34  50  78 109 156 186 232 274 352
#
# _framework density 26.406905999999999
#
# number of rings (size 3 to 8) (size 9 to 14) (size 15 to 20)
#    0.000    1.333    4.444    2.333    1.556    1.333 
#    0.000    0.000    0.000    0.000    0.000    4.667 
#    0.000    3.556    0.000    0.000    0.000    0.000 
#
# Total GULP energy -100417.492729 kJ/mol
# GULP energy per Si atom -5578.749596 kJ/mol
# Density = 2.634680 g / cm^3
# Si number density = 26.406906 Si / 1000 Ang^3
#
#
#
# Elastic Constant Matrix: (Units=GPa)
#
#
# Indices 1 2 3 4 5 6 
#
# 1 96.2742 31.2920 6.1080 0.0000 0.0000 0.0000
# 2 31.2920 174.9108 16.6325 0.0000 0.0000 0.0000
# 3 6.1080 16.6325 79.5869 0.0000 0.0000 0.0000
# 4 0.0000 0.0000 0.0000 -11.2296 0.0000 0.0000
# 5 0.0000 0.0000 0.0000 0.0000 30.2483 0.0000
# 6 0.0000 0.0000 0.0000 0.0000 0.0000 42.4716
#
#
#
# Elastic Compliance Matrix: (Units=1/GPa)
#
#
# Indices 1 2 3 4 5 6 
#
# 1 0.011044 -0.001934 -0.000443 0.000000 0.000000 0.000000
# 2 -0.001934 0.006172 -0.001141 0.000000 0.000000 0.000000
# 3 -0.000443 -0.001141 0.012837 0.000000 0.000000 0.000000
# 4 0.000000 0.000000 0.000000 -0.089050 0.000000 0.000000
# 5 0.000000 0.000000 0.000000 0.000000 0.033060 0.000000
# 6 0.000000 0.000000 0.000000 0.000000 0.000000 0.023545
#
#
# Mechanical properties :
#
#
# Convention : Reuss Voigt Hill
#
# Bulk Modulus (GPa) = 43.44831 50.98188 47.21509
# Shear Modulus (GPa) = 405.97493 32.08069 219.02781
#
# Velocity S-wave (km/s) = 12.41257 3.48927 9.11721
# Velocity P-wave (km/s) = 14.89692 5.96502 11.34680
#
# Compressibility (1/GPa) = 0.02301586
#
# Stress axis : x y z
#
# Youngs Moduli (GPa) = 90.55023 162.03106 77.89712
#
# Poissons Ratio (x) = 0.31330 0.03455
# Poissons Ratio (y) = 0.17508 0.08891
# Poissons Ratio (z) = 0.04016 0.18494
#
# Static dielectric constant tensor:
#      x y z
#    x 2.119840 0.000000 0.000000 
#    y 0.000000 1.907060 0.000000 
#    z 0.000000 0.000000 2.218950 
# 
# From -- ./inp_files/14180.got.cif
#   From: 2010.05.17/outbox.cif.g08.bks.cpg/sg44_8_cif.got.tgz:14180.got - 2010.06.03 19:37:08.
