data_PCOD9373749
_publ_section_title
;
Structure prediction by ZEFSAII (Michael W. Deem and Ramdas Pophale) SiO2 
 PCOD9373749
Probable space group: I M M 2
;
_chemical_formula_sum "Si O2"
_cell_formula_units_Z 56
_cell_length_a 9.090634
_cell_length_b 18.957830
_cell_length_c 21.118498
_cell_angle_alpha 90.000000
_cell_angle_beta 90.000000
_cell_angle_gamma 90.000000
_cell_volume 3639.534364
_symmetry_space_group_name_H-M "I M M 2"
_symmetry_group_IT_number 44
_symmetry_cell_setting 'orthorhombic'
loop_
_space_group_symop_operation_xyz
x,y,z
-x,-y,z
-x,y,z
x,-y,z
1/2+x,1/2+y,1/2+z
1/2-x,1/2-y,1/2+z
1/2-x,1/2+y,1/2+z
1/2+x,1/2-y,1/2+z
loop_
_atom_site_type_symbol
_atom_site_label
_atom_site_fract_x
_atom_site_fract_y
_atom_site_fract_z
Si Si1 0.678452 0.650384 0.050010
Si Si2 0.668954 0.792786 0.110358
Si Si3 0.675429 0.083760 0.426566
Si Si4 0.324181 0.652021 0.804172
Si Si5 0.170209 0.217783 0.748627
Si Si6 0.679121 0.420146 0.183622
Si Si7 0.823522 0.919858 0.169855
O O1 0.500000 0.647899 0.045082
O O2 0.720956 0.732106 0.062320
O O3 0.720193 0.606396 0.113202
O O4 0.752615 0.617990 0.988646
O O5 0.500000 0.810207 0.095579
O O6 0.669769 0.753460 0.178706
O O7 0.759815 0.863657 0.120343
O O8 0.500000 0.094463 0.426594
O O9 0.746415 0.118185 0.364428
O O10 0.704556 0.000000 0.426518
O O11 0.500000 0.650737 0.811439
O O12 0.267060 0.731357 0.791774
O O13 0.285550 0.607558 0.740628
O O14 0.225209 0.138535 0.734921
O O15 0.000000 0.216623 0.770386
O O16 0.500000 0.419184 0.184823
O O17 0.728627 0.500000 0.194795
O O18 0.000000 0.919071 0.165841
O O19 0.771534 0.000000 0.160865
#
# Coordination Sequence:
#
# PCOD9373749 Si02
#       7
#     8   8   8   8   8   8   8
#     4   9  17  30  47  65  88 119 152 181 209 251
#     4   8  15  27  43  64  87 113 145 178 216 260
#     4  11  23  34  44  63  90 118 149 183 217 253
#     4  10  19  31  46  62  85 119 154 183 214 257
#     4   8  14  26  43  63  88 114 143 181 219 256
#     4   8  13  23  43  69  92 116 146 178 214 257
#     4   9  17  28  43  65  90 115 145 181 220 260
#
# _framework density 15.386583
#
# number of rings (size 3 to 8) (size 9 to 14) (size 15 to 20)
#    0.000    3.000    0.000    3.429    0.000    3.714 
#    0.000    2.143    0.000    1.286    0.000    1.000 
#    0.000    5.714    0.000    0.000    0.000    0.000 
#
# Total GULP energy -155925.019916 kJ/mol
# GULP energy per Si atom -5568.750711 kJ/mol
# Density = 1.535156 g / cm^3
# Si number density = 15.386583 Si / 1000 Ang^3
#
#
#
# Elastic Constant Matrix: (Units=GPa)
#
#
# Indices 1 2 3 4 5 6 
#
# 1 35.1305 50.2898 36.8515 0.0000 0.0000 0.0000
# 2 50.2898 162.0370 60.8072 0.0000 0.0000 0.0000
# 3 36.8515 60.8072 67.0610 0.0000 0.0000 0.0000
# 4 0.0000 0.0000 0.0000 24.8871 0.0000 0.0000
# 5 0.0000 0.0000 0.0000 0.0000 20.8655 0.0000
# 6 0.0000 0.0000 0.0000 0.0000 0.0000 21.6064
#
#
#
# Elastic Compliance Matrix: (Units=1/GPa)
#
#
# Indices 1 2 3 4 5 6 
#
# 1 0.081860 -0.012922 -0.033267 0.000000 0.000000 0.000000
# 2 -0.012922 0.011394 -0.003231 0.000000 0.000000 0.000000
# 3 -0.033267 -0.003231 0.036122 0.000000 0.000000 0.000000
# 4 0.000000 0.000000 0.000000 0.040181 0.000000 0.000000
# 5 0.000000 0.000000 0.000000 0.000000 0.047926 0.000000
# 6 0.000000 0.000000 0.000000 0.000000 0.000000 0.046283
#
#
# Mechanical properties :
#
#
# Convention : Reuss Voigt Hill
#
# Bulk Modulus (GPa) = 32.74702 62.23617 47.49160
# Shear Modulus (GPa) = 13.41257 21.22381 17.31819
#
# Velocity S-wave (km/s) = 2.95567 3.71802 3.35854
# Velocity P-wave (km/s) = 5.74256 7.67904 6.78029
#
# Compressibility (1/GPa) = 0.03053713
#
# Stress axis : x y z
#
# Youngs Moduli (GPa) = 12.21598 87.76268 27.68393
#
# Poissons Ratio (x) = 1.13408 0.92095
# Poissons Ratio (y) = 0.15786 0.08944
# Poissons Ratio (z) = 0.40639 0.28354
#
# Static dielectric constant tensor:
#      x y z
#    x 1.512840 0.000000 0.000000 
#    y 0.000000 1.533600 0.000000 
#    z 0.000000 0.000000 1.485660 
# 
# From -- ./inp_files/23220.got.cif
#   From: 2010.05.17/outbox.cif.g08.bks.cpg/sg44_12_cif.got.tgz:23220.got - 2010.06.03 19:37:08.
