data_PCOD9373438
_publ_section_title
;
Structure prediction by ZEFSAII (Michael W. Deem and Ramdas Pophale) SiO2 
 PCOD9373438
Probable space group: I M M 2
;
_chemical_formula_sum "Si O2"
_cell_formula_units_Z 42
_cell_length_a 21.831448
_cell_length_b 17.401012
_cell_length_c 4.930623
_cell_angle_alpha 90.000000
_cell_angle_beta 90.000000
_cell_angle_gamma 90.000000
_cell_volume 1873.090864
_symmetry_space_group_name_H-M "I M M 2"
_symmetry_group_IT_number 44
_symmetry_cell_setting 'orthorhombic'
loop_
_space_group_symop_operation_xyz
x,y,z
-x,-y,z
-x,y,z
x,-y,z
1/2+x,1/2+y,1/2+z
1/2-x,1/2-y,1/2+z
1/2-x,1/2+y,1/2+z
1/2+x,1/2-y,1/2+z
loop_
_atom_site_type_symbol
_atom_site_label
_atom_site_fract_x
_atom_site_fract_y
_atom_site_fract_z
Si Si1 0.068271 0.290399 0.312230
Si Si2 0.000000 0.500000 0.818683
Si Si3 0.069004 0.185271 0.812650
Si Si4 0.725189 0.847870 0.508658
Si Si5 0.879091 0.417913 0.658118
Si Si6 0.302568 0.664687 0.507222
O O1 0.074903 0.215745 0.506222
O O2 0.114100 0.352366 0.432461
O O3 0.000000 0.321974 0.352992
O O4 0.071650 0.260550 0.007520
O O5 0.944984 0.434480 0.799166
O O6 0.129795 0.141453 0.908300
O O7 0.000000 0.152533 0.848315
O O8 0.671112 0.896634 0.378764
O O9 0.704437 0.758086 0.492717
O O10 0.750626 0.866032 0.804349
O O11 0.783636 0.856302 0.309277
O O12 0.864419 0.500000 0.524145
#
# Coordination Sequence:
#
# PCOD9373438 Si02
#       6
#     8   2   8   8   8   8
#     4  10  18  32  48  76 104 142 180 229 270 327
#     4   8  20  36  60  78 120 162 210 246 266 326
#     4  10  20  31  55  77 107 135 179 228 288 345
#     4  10  21  33  54  73 108 143 190 234 281 338
#     4  10  19  35  56  78 114 156 205 240 279 323
#     4  10  20  35  52  79 102 141 184 238 290 342
#
# _framework density 22.422832
#
# number of rings (size 3 to 8) (size 9 to 14) (size 15 to 20)
#    0.571    1.524    2.857    1.143    5.333    0.000 
#    0.000    3.810    0.000    8.000    0.000    0.000 
#    0.000    4.571    0.000    0.000    0.000    0.000 
#
# Total GULP energy -117010.648623 kJ/mol
# GULP energy per Si atom -5571.935649 kJ/mol
# Density = 2.237180 g / cm^3
# Si number density = 22.422832 Si / 1000 Ang^3
#
#
#
# Elastic Constant Matrix: (Units=GPa)
#
#
# Indices 1 2 3 4 5 6 
#
# 1 144.9495 8.6015 -3.5209 0.0000 0.0000 0.0000
# 2 8.6015 5.9809 -4.3453 0.0000 0.0000 0.0000
# 3 -3.5209 -4.3453 54.2733 0.0000 0.0000 0.0000
# 4 0.0000 0.0000 0.0000 6.6400 0.0000 0.0000
# 5 0.0000 0.0000 0.0000 0.0000 26.3552 0.0000
# 6 0.0000 0.0000 0.0000 0.0000 0.0000 31.3201
#
#
#
# Elastic Compliance Matrix: (Units=1/GPa)
#
#
# Indices 1 2 3 4 5 6 
#
# 1 0.007551 -0.011152 -0.000403 0.000000 0.000000 0.000000
# 2 -0.011152 0.193998 0.014809 0.000000 0.000000 0.000000
# 3 -0.000403 0.014809 0.019585 0.000000 0.000000 0.000000
# 4 0.000000 0.000000 0.000000 0.150603 0.000000 0.000000
# 5 0.000000 0.000000 0.000000 0.000000 0.037943 0.000000
# 6 0.000000 0.000000 0.000000 0.000000 0.000000 0.031928
#
#
# Mechanical properties :
#
#
# Convention : Reuss Voigt Hill
#
# Bulk Modulus (GPa) = 4.39289 22.96380 13.67834
# Shear Modulus (GPa) = 9.78508 26.49428 18.13968
#
# Velocity S-wave (km/s) = 2.09126 3.44113 2.84735
# Velocity P-wave (km/s) = 2.79187 5.10412 4.11379
#
# Compressibility (1/GPa) = 0.22764074
#
# Stress axis : x y z
#
# Youngs Moduli (GPa) = 132.43345 5.15469 51.06004
#
# Poissons Ratio (x) = 0.05749 0.02058
# Poissons Ratio (y) = 1.47695 -0.75614
# Poissons Ratio (z) = 0.05338 -0.07633
#
# Static dielectric constant tensor:
#      x y z
#    x 1.903370 0.000000 0.000000 
#    y 0.000000 1.803850 0.000000 
#    z 0.000000 0.000000 1.833780 
# 
# From -- ./inp_files/2014.got.cif
#   From: 2010.05.17/outbox.cif.g08.bks.cpg/sg44_2_cif.got.tgz:2014.got - 2010.06.03 19:37:08.
