data_PCOD9373165
_publ_section_title
;
Structure prediction by ZEFSAII (Michael W. Deem and Ramdas Pophale) SiO2 
 PCOD9373165
Probable space group: I M M 2
;
_chemical_formula_sum "Si O2"
_cell_formula_units_Z 56
_cell_length_a 22.524325
_cell_length_b 8.945494
_cell_length_c 18.248585
_cell_angle_alpha 90.000000
_cell_angle_beta 90.000000
_cell_angle_gamma 90.000000
_cell_volume 3676.929548
_symmetry_space_group_name_H-M "I M M 2"
_symmetry_group_IT_number 44
_symmetry_cell_setting 'orthorhombic'
loop_
_space_group_symop_operation_xyz
x,y,z
-x,-y,z
-x,y,z
x,-y,z
1/2+x,1/2+y,1/2+z
1/2-x,1/2-y,1/2+z
1/2-x,1/2+y,1/2+z
1/2+x,1/2-y,1/2+z
loop_
_atom_site_type_symbol
_atom_site_label
_atom_site_fract_x
_atom_site_fract_y
_atom_site_fract_z
Si Si1 0.821194 0.172074 0.959710
Si Si2 0.179769 0.672269 0.423968
Si Si3 0.343270 0.677222 0.070471
Si Si4 0.282947 0.680060 0.615136
Si Si5 0.158665 0.322709 0.813415
Si Si6 0.283833 0.820307 0.767340
Si Si7 0.430849 0.821061 0.184341
O O1 0.750519 0.174106 0.941513
O O2 0.850953 0.270160 0.896842
O O3 0.840906 0.000000 0.953475
O O4 0.822997 0.220556 0.044430
O O5 0.160079 0.500000 0.431848
O O6 0.150282 0.773237 0.485829
O O7 0.177028 0.718676 0.339026
O O8 0.336751 0.500000 0.076328
O O9 0.282988 0.755252 0.100167
O O10 0.397027 0.736201 0.119604
O O11 0.279069 0.500000 0.618030
O O12 0.304327 0.747173 0.691717
O O13 0.169914 0.500000 0.811521
O O14 0.217304 0.239638 0.783241
O O15 0.104211 0.288470 0.759632
O O16 0.281901 0.000000 0.762129
O O17 0.500000 0.782448 0.188787
O O18 0.425792 0.000000 0.171778
#
# Coordination Sequence:
#
# PCOD9373165 Si02
#       7
#     8   8   8   8   8   8   8
#     4   8  16  28  41  58  83 113 143 175 212 257
#     4   8  16  29  42  58  84 115 143 171 213 264
#     4  11  20  29  44  63  84 112 147 186 222 255
#     4  10  18  28  42  61  87 119 147 173 212 262
#     4  10  18  28  44  61  81 112 146 181 218 259
#     4  10  18  27  42  64  88 115 144 178 215 255
#     4  10  21  35  48  62  84 117 153 187 225 265
#
# _framework density 15.230098999999999
#
# number of rings (size 3 to 8) (size 9 to 14) (size 15 to 20)
#    0.000    2.429    1.429    4.286    0.000    7.143 
#    0.000    0.000    0.000    0.000    0.000    0.000 
#    0.000    1.143    0.000    6.286    0.000    4.286 
#
# Total GULP energy -156008.170531 kJ/mol
# GULP energy per Si atom -5571.720376 kJ/mol
# Density = 1.519543 g / cm^3
# Si number density = 15.230099 Si / 1000 Ang^3
#
#
#
# Elastic Constant Matrix: (Units=GPa)
#
#
# Indices 1 2 3 4 5 6 
#
# 1 39.4039 30.7753 34.4472 0.0000 0.0000 0.0000
# 2 30.7753 64.1915 61.5370 0.0000 0.0000 0.0000
# 3 34.4472 61.5370 160.7390 0.0000 0.0000 0.0000
# 4 0.0000 0.0000 0.0000 30.6638 0.0000 0.0000
# 5 0.0000 0.0000 0.0000 0.0000 12.1179 0.0000
# 6 0.0000 0.0000 0.0000 0.0000 0.0000 10.9153
#
#
#
# Elastic Compliance Matrix: (Units=1/GPa)
#
#
# Indices 1 2 3 4 5 6 
#
# 1 0.040969 -0.017733 -0.001991 0.000000 0.000000 0.000000
# 2 -0.017733 0.032286 -0.008560 0.000000 0.000000 0.000000
# 3 -0.001991 -0.008560 0.009925 0.000000 0.000000 0.000000
# 4 0.000000 0.000000 0.000000 0.032612 0.000000 0.000000
# 5 0.000000 0.000000 0.000000 0.000000 0.082522 0.000000
# 6 0.000000 0.000000 0.000000 0.000000 0.000000 0.091614
#
#
# Mechanical properties :
#
#
# Convention : Reuss Voigt Hill
#
# Bulk Modulus (GPa) = 37.57726 57.53925 47.55826
# Shear Modulus (GPa) = 14.06997 19.91108 16.99053
#
# Velocity S-wave (km/s) = 3.04275 3.61965 3.34367
# Velocity P-wave (km/s) = 6.08860 7.43849 6.79714
#
# Compressibility (1/GPa) = 0.02661184
#
# Stress axis : x y z
#
# Youngs Moduli (GPa) = 24.40900 30.97299 100.75498
#
# Poissons Ratio (x) = 0.54924 0.20060
# Poissons Ratio (y) = 0.43284 0.86247
# Poissons Ratio (z) = 0.04860 0.26513
#
# Static dielectric constant tensor:
#      x y z
#    x 1.462470 0.000000 0.000000 
#    y 0.000000 1.510460 0.000000 
#    z 0.000000 0.000000 1.558920 
# 
# From -- ./inp_files/20699.got.cif
#   From: 2010.05.17/outbox.cif.g08.bks.cpg/sg44_11_cif.got.tgz:20699.got - 2010.06.03 19:37:08.
