data_PCOD9373662
_publ_section_title
;
Structure prediction by ZEFSAII (Michael W. Deem and Ramdas Pophale) SiO2 
 PCOD9373662
Probable space group: I M M 2
;
_chemical_formula_sum "Si O2"
_cell_formula_units_Z 56
_cell_length_a 7.886994
_cell_length_b 33.553005
_cell_length_c 13.846458
_cell_angle_alpha 90.000000
_cell_angle_beta 90.000000
_cell_angle_gamma 90.000000
_cell_volume 3664.220707
_symmetry_space_group_name_H-M "I M M 2"
_symmetry_group_IT_number 44
_symmetry_cell_setting 'orthorhombic'
loop_
_space_group_symop_operation_xyz
x,y,z
-x,-y,z
-x,y,z
x,-y,z
1/2+x,1/2+y,1/2+z
1/2-x,1/2-y,1/2+z
1/2-x,1/2+y,1/2+z
1/2+x,1/2-y,1/2+z
loop_
_atom_site_type_symbol
_atom_site_label
_atom_site_fract_x
_atom_site_fract_y
_atom_site_fract_z
Si Si1 0.793463 0.688020 0.206870
Si Si2 0.199245 0.396091 0.118723
Si Si3 0.500000 0.454299 0.884168
Si Si4 0.302344 0.732523 0.604036
Si Si5 0.302167 0.188922 0.294349
Si Si6 0.802168 0.267546 0.394089
Si Si7 0.300374 0.105002 0.386292
Si Si8 0.500000 0.545326 0.118612
O O1 0.743659 0.644865 0.169476
O O2 0.734232 0.724421 0.139082
O O3 0.740121 0.700519 0.314895
O O4 0.000000 0.688087 0.203467
O O5 0.329966 0.430800 0.146420
O O6 0.000000 0.404076 0.141316
O O7 0.209275 0.390483 0.002649
O O8 0.500000 0.500000 0.849486
O O9 0.330791 0.429625 0.857002
O O10 0.500000 0.455700 0.001350
O O11 0.500000 0.737356 0.582962
O O12 0.282963 0.703333 0.695150
O O13 0.219794 0.719731 0.504049
O O14 0.500000 0.185096 0.272780
O O15 0.280615 0.224813 0.371059
O O16 0.246363 0.146772 0.337803
O O17 0.000000 0.261377 0.373746
O O18 0.500000 0.097015 0.363790
O O19 0.500000 0.500000 0.153743
#
# Coordination Sequence:
#
# PCOD9373662 Si02
#       8
#     8   8   4   8   8   8   8   4
#     4   8  16  30  44  59  85 118 154 186 221 263
#     4   9  16  30  46  63  89 122 150 183 224 267
#     4   9  18  30  46  66  93 121 151 189 230 274
#     4  10  19  31  44  62  90 121 153 193 228 265
#     4  10  19  31  45  64  88 119 157 193 226 269
#     4  10  19  30  44  63  89 121 152 192 231 264
#     4   9  18  29  46  67  91 121 154 187 224 272
#     4   9  18  30  42  68  93 113 151 189 222 274
#
# _framework density 15.282921999999999
#
# number of rings (size 3 to 8) (size 9 to 14) (size 15 to 20)
#    0.000    2.714    0.000    3.000    2.000    2.857 
#   10.286    2.857    0.000    0.000    0.000    0.000 
#    0.000    2.286    0.000    7.429    0.000    0.286 
#
# Total GULP energy -155961.432263 kJ/mol
# GULP energy per Si atom -5570.051152 kJ/mol
# Density = 1.524814 g / cm^3
# Si number density = 15.282922 Si / 1000 Ang^3
#
#
#
# Elastic Constant Matrix: (Units=GPa)
#
#
# Indices 1 2 3 4 5 6 
#
# 1 57.3575 53.4427 16.9259 0.0000 0.0000 0.0000
# 2 53.4427 130.3407 31.3506 0.0000 0.0000 0.0000
# 3 16.9259 31.3506 52.9770 -0.0001 0.0000 0.0000
# 4 0.0000 0.0000 -0.0001 17.2310 0.0000 0.0000
# 5 0.0000 0.0000 0.0000 0.0000 14.9571 0.0000
# 6 0.0000 0.0000 0.0000 0.0000 0.0000 22.9144
#
#
#
# Elastic Compliance Matrix: (Units=1/GPa)
#
#
# Indices 1 2 3 4 5 6 
#
# 1 0.028506 -0.011074 -0.002554 0.000000 0.000000 0.000000
# 2 -0.011074 0.013247 -0.004301 0.000000 0.000000 0.000000
# 3 -0.002554 -0.004301 0.022238 0.000000 0.000000 0.000000
# 4 0.000000 0.000000 0.000000 0.058035 0.000000 0.000000
# 5 0.000000 0.000000 0.000000 0.000000 0.066858 0.000000
# 6 0.000000 0.000000 0.000000 0.000000 0.000000 0.043641
#
#
# Mechanical properties :
#
#
# Convention : Reuss Voigt Hill
#
# Bulk Modulus (GPa) = 35.54663 49.34596 42.44630
# Shear Modulus (GPa) = 18.00104 20.28423 19.14263
#
# Velocity S-wave (km/s) = 3.43571 3.64709 3.54298
# Velocity P-wave (km/s) = 6.24887 7.07767 6.67614
#
# Compressibility (1/GPa) = 0.02813206
#
# Stress axis : x y z
#
# Youngs Moduli (GPa) = 35.07991 75.48673 44.96863
#
# Poissons Ratio (x) = 0.83593 0.11487
# Poissons Ratio (y) = 0.38847 0.19343
# Poissons Ratio (z) = 0.08961 0.32470
#
# Static dielectric constant tensor:
#      x y z
#    x 1.557240 0.000000 0.000000 
#    y 0.000000 1.499490 0.000000 
#    z 0.000000 0.000000 1.501030 
# 
# From -- ./inp_files/17068.got.cif
#   From: 2010.05.17/outbox.cif.g08.bks.cpg/sg44_9_cif.got.tgz:17068.got - 2010.06.03 19:37:08.
