data_PCOD9373056
_publ_section_title
;
Structure prediction by ZEFSAII (Michael W. Deem and Ramdas Pophale) SiO2 
 PCOD9373056
Probable space group: I M M 2
;
_chemical_formula_sum "Si O2"
_cell_formula_units_Z 40
_cell_length_a 7.590667
_cell_length_b 10.196531
_cell_length_c 25.898146
_cell_angle_alpha 90.000000
_cell_angle_beta 90.000000
_cell_angle_gamma 90.000000
_cell_volume 2004.476912
_symmetry_space_group_name_H-M "I M M 2"
_symmetry_group_IT_number 44
_symmetry_cell_setting 'orthorhombic'
loop_
_space_group_symop_operation_xyz
x,y,z
-x,-y,z
-x,y,z
x,-y,z
1/2+x,1/2+y,1/2+z
1/2-x,1/2-y,1/2+z
1/2-x,1/2+y,1/2+z
1/2+x,1/2-y,1/2+z
loop_
_atom_site_type_symbol
_atom_site_label
_atom_site_fract_x
_atom_site_fract_y
_atom_site_fract_z
Si Si1 0.712571 0.000000 0.000000
Si Si2 0.796347 0.000000 0.713548
Si Si3 0.294289 0.500000 0.898227
Si Si4 0.786486 0.500000 0.332999
Si Si5 0.714964 0.000000 0.278432
Si Si6 0.704625 0.500000 0.619890
Si Si7 0.284662 0.788238 0.917403
Si Si8 0.793291 0.716607 0.699202
O O1 0.769875 0.126881 0.967042
O O2 0.500000 0.000000 0.999489
O O3 0.769393 0.000000 0.058927
O O4 0.715525 0.861803 0.695735
O O5 0.788935 0.000000 0.775814
O O6 0.000000 0.000000 0.695568
O O7 0.500000 0.500000 0.913265
O O8 0.280833 0.500000 0.836322
O O9 0.219441 0.639286 0.916743
O O10 0.733932 0.372596 0.366762
O O11 0.000000 0.500000 0.329191
O O12 0.776472 0.873073 0.246021
O O13 0.500000 0.000000 0.278926
O O14 0.500000 0.500000 0.632141
O O15 0.780290 0.628520 0.648057
O O16 0.500000 0.785775 0.916778
O O17 0.000000 0.733660 0.710854
#
# Coordination Sequence:
#
# PCOD9373056 Si02
#       8
#     4   4   4   4   4   4   8   8
#     4   9  17  35  56  67  86 123 160 197 247 297
#     4  10  19  31  50  76 103 132 167 203 239 284
#     4  10  17  27  45  71  99 124 159 201 233 271
#     4   9  16  28  45  68 101 137 165 190 231 282
#     4   9  17  29  45  68 101 137 165 190 231 284
#     4  11  22  36  55  76  94 119 162 209 255 302
#     4   8  16  29  47  70  94 125 163 197 231 281
#     4   9  19  35  52  72 100 133 168 202 239 290
#
# _framework density 19.955331999999999
#
# number of rings (size 3 to 8) (size 9 to 14) (size 15 to 20)
#    0.000    2.800    0.000    3.900    0.000    2.400 
#    0.000    4.000    0.000    3.600    0.000    0.000 
#    0.000    0.000    0.000    0.000    0.000    0.000 
#
# Total GULP energy -111569.249277 kJ/mol
# GULP energy per Si atom -5578.462464 kJ/mol
# Density = 1.990991 g / cm^3
# Si number density = 19.955332 Si / 1000 Ang^3
#
#
#
# Elastic Constant Matrix: (Units=GPa)
#
#
# Indices 1 2 3 4 5 6 
#
# 1 42.6984 3.6591 -19.3230 0.0000 0.0000 0.0000
# 2 3.6591 221.9716 63.1837 0.0000 0.0000 0.0000
# 3 -19.3230 63.1837 94.6633 0.0000 0.0000 0.0000
# 4 0.0000 0.0000 0.0000 -11.4442 0.0000 0.0000
# 5 0.0000 0.0000 0.0000 0.0000 22.3286 0.0000
# 6 0.0000 0.0000 0.0000 0.0000 0.0000 -8.0238
#
#
#
# Elastic Compliance Matrix: (Units=1/GPa)
#
#
# Indices 1 2 3 4 5 6 
#
# 1 0.026860 -0.002473 0.007134 0.000000 0.000000 0.000000
# 2 -0.002473 0.005790 -0.004369 0.000000 0.000000 0.000000
# 3 0.007134 -0.004369 0.014936 0.000000 0.000000 0.000000
# 4 0.000000 0.000000 0.000000 -0.087380 0.000000 0.000000
# 5 0.000000 0.000000 0.000000 0.000000 0.044786 0.000000
# 6 0.000000 0.000000 0.000000 0.000000 0.000000 -0.124629
#
#
# Mechanical properties :
#
#
# Convention : Reuss Voigt Hill
#
# Bulk Modulus (GPa) = 20.76050 50.48586 35.62318
# Shear Modulus (GPa) = -48.00136 21.35967 -13.32084
#
# Velocity S-wave (km/s) = -4.90985 3.27521 -2.58647
# Velocity P-wave (km/s) = 4.66005 6.29738 2.99507
#
# Compressibility (1/GPa) = 0.04816839
#
# Stress axis : x y z
#
# Youngs Moduli (GPa) = 37.22957 172.72609 66.95185
#
# Poissons Ratio (x) = 0.42721 -0.47761
# Poissons Ratio (y) = 0.09208 0.29252
# Poissons Ratio (z) = -0.26558 0.75466
#
# Static dielectric constant tensor:
#      x y z
#    x 1.733880 0.000000 0.000000 
#    y 0.000000 1.781160 0.000000 
#    z 0.000000 0.000000 1.643410 
# 
# From -- ./inp_files/26002.got.cif
#   From: 2010.05.17/outbox.cif.g08.bks.cpg/sg44_14_cif.got.tgz:26002.got - 2010.06.03 19:37:08.
