data_PCOD9373358
_publ_section_title
;
Structure prediction by ZEFSAII (Michael W. Deem and Ramdas Pophale) SiO2 
 PCOD9373358
Probable space group: I M M 2
;
_chemical_formula_sum "Si O2"
_cell_formula_units_Z 34
_cell_length_a 8.020718
_cell_length_b 7.879427
_cell_length_c 27.702227
_cell_angle_alpha 90.000000
_cell_angle_beta 90.000000
_cell_angle_gamma 90.000000
_cell_volume 1750.743680
_symmetry_space_group_name_H-M "I M M 2"
_symmetry_group_IT_number 44
_symmetry_cell_setting 'orthorhombic'
loop_
_space_group_symop_operation_xyz
x,y,z
-x,-y,z
-x,y,z
x,-y,z
1/2+x,1/2+y,1/2+z
1/2-x,1/2-y,1/2+z
1/2-x,1/2+y,1/2+z
1/2+x,1/2-y,1/2+z
loop_
_atom_site_type_symbol
_atom_site_label
_atom_site_fract_x
_atom_site_fract_y
_atom_site_fract_z
Si Si1 0.000000 0.500000 0.050140
Si Si2 0.679420 0.297397 0.195366
Si Si3 0.195960 0.203569 0.299251
Si Si4 0.500000 0.803739 0.643512
Si Si5 0.202464 0.312464 0.404832
Si Si6 0.702703 0.500000 0.974747
O O1 0.000000 0.661937 0.086529
O O2 0.169804 0.500000 0.019353
O O3 0.500000 0.224940 0.181888
O O4 0.672618 0.500000 0.186733
O O5 0.712241 0.268205 0.251888
O O6 0.833190 0.224719 0.164943
O O7 0.259622 0.274058 0.350271
O O8 0.000000 0.250491 0.294231
O O9 0.205816 0.000000 0.301267
O O10 0.500000 0.000000 0.663120
O O11 0.257378 0.500000 0.419871
O O12 0.000000 0.311312 0.402287
O O13 0.243528 0.164164 0.441991
O O14 0.500000 0.500000 0.985221
#
# Coordination Sequence:
#
# PCOD9373358 Si02
#       6
#     2   8   8   4   8   4
#     4  10  22  38  64  90 110 156 206 262 320 336
#     4  10  19  32  53  80 111 147 192 240 288 353
#     4  10  18  30  51  80 119 163 199 235 292 357
#     4   8  18  36  55  80 111 140 197 251 294 348
#     4   9  17  32  56  84 120 164 198 240 298 363
#     4  10  20  38  60  88 122 152 206 256 300 359
#
# _framework density 19.420318999999999
#
# number of rings (size 3 to 8) (size 9 to 14) (size 15 to 20)
#    0.353    2.118    2.353    0.706    0.000    2.353 
#    2.118    0.588    0.000    2.824    0.000    3.294 
#    0.000    0.000    0.000    0.000    0.000    0.000 
#
# Total GULP energy -94755.785825 kJ/mol
# GULP energy per Si atom -5573.869754 kJ/mol
# Density = 1.937612 g / cm^3
# Si number density = 19.420319 Si / 1000 Ang^3
#
#
#
# Elastic Constant Matrix: (Units=GPa)
#
#
# Indices 1 2 3 4 5 6 
#
# 1 122.8980 30.3405 73.0292 0.0000 0.0000 0.0000
# 2 30.3405 64.8430 26.6347 0.0000 0.0000 0.0000
# 3 73.0292 26.6347 124.2152 0.0000 0.0000 0.0000
# 4 0.0000 0.0000 0.0000 40.6266 0.0000 0.0000
# 5 0.0000 0.0000 0.0000 0.0000 -37.6691 0.0000
# 6 0.0000 0.0000 0.0000 0.0000 0.0000 3.3692
#
#
#
# Elastic Compliance Matrix: (Units=1/GPa)
#
#
# Indices 1 2 3 4 5 6 
#
# 1 0.013103 -0.003253 -0.007006 0.000000 0.000000 0.000000
# 2 -0.003253 0.017719 -0.001887 0.000000 0.000000 0.000000
# 3 -0.007006 -0.001887 0.012574 0.000000 0.000000 0.000000
# 4 0.000000 0.000000 0.000000 0.024614 0.000000 0.000000
# 5 0.000000 0.000000 0.000000 0.000000 -0.026547 0.000000
# 6 0.000000 0.000000 0.000000 0.000000 0.000000 0.296810
#
#
# Mechanical properties :
#
#
# Convention : Reuss Voigt Hill
#
# Bulk Modulus (GPa) = 52.34437 63.55166 57.94801
# Shear Modulus (GPa) = 13.55257 13.39547 13.47402
#
# Velocity S-wave (km/s) = 2.64456 2.62919 2.63689
# Velocity P-wave (km/s) = 6.02801 6.48168 6.25896
#
# Compressibility (1/GPa) = 0.01910425
#
# Stress axis : x y z
#
# Youngs Moduli (GPa) = 76.31723 56.43636 79.52812
#
# Poissons Ratio (x) = 0.18360 0.55718
# Poissons Ratio (y) = 0.24828 0.15005
# Poissons Ratio (z) = 0.53469 0.10648
#
# Static dielectric constant tensor:
#      x y z
#    x 1.757730 0.000000 0.000000 
#    y 0.000000 1.676150 0.000000 
#    z 0.000000 0.000000 1.642250 
# 
# From -- ./inp_files/25906.got.cif
#   From: 2010.05.17/outbox.cif.g08.bks.cpg/sg44_13_cif.got.tgz:25906.got - 2010.06.03 19:37:08.
