data_PCOD9373572
_publ_section_title
;
Structure prediction by ZEFSAII (Michael W. Deem and Ramdas Pophale) SiO2 
 PCOD9373572
Probable space group: I M M 2
;
_chemical_formula_sum "Si O2"
_cell_formula_units_Z 56
_cell_length_a 8.390362
_cell_length_b 17.326856
_cell_length_c 20.306693
_cell_angle_alpha 90.000000
_cell_angle_beta 90.000000
_cell_angle_gamma 90.000000
_cell_volume 2952.158480
_symmetry_space_group_name_H-M "I M M 2"
_symmetry_group_IT_number 44
_symmetry_cell_setting 'orthorhombic'
loop_
_space_group_symop_operation_xyz
x,y,z
-x,-y,z
-x,y,z
x,-y,z
1/2+x,1/2+y,1/2+z
1/2-x,1/2-y,1/2+z
1/2-x,1/2+y,1/2+z
1/2+x,1/2-y,1/2+z
loop_
_atom_site_type_symbol
_atom_site_label
_atom_site_fract_x
_atom_site_fract_y
_atom_site_fract_z
Si Si1 0.694074 0.333341 0.088260
Si Si2 0.693077 0.500000 0.125479
Si Si3 0.812883 0.916101 0.246925
Si Si4 0.187159 0.759995 0.456470
Si Si5 0.312526 0.913797 0.393092
Si Si6 0.190339 0.841359 0.840869
Si Si7 0.189036 0.500000 0.277617
Si Si8 0.808349 0.741498 0.717258
O O1 0.500000 0.334826 0.083328
O O2 0.749169 0.422100 0.089155
O O3 0.735972 0.298721 0.158866
O O4 0.750888 0.277669 0.029830
O O5 0.500000 0.500000 0.124398
O O6 0.739464 0.500000 0.203144
O O7 0.714346 0.912133 0.314632
O O8 0.764476 0.842146 0.205848
O O9 0.000000 0.912021 0.263623
O O10 0.782647 0.000000 0.216007
O O11 0.215010 0.843257 0.422487
O O12 0.264723 0.693642 0.411758
O O13 0.000000 0.742900 0.459630
O O14 0.500000 0.902927 0.407027
O O15 0.263678 0.000000 0.415569
O O16 0.244846 0.778173 0.786502
O O17 0.000000 0.846980 0.836447
O O18 0.258671 0.923562 0.817829
O O19 0.000000 0.500000 0.270784
O O20 0.000000 0.734899 0.718883
#
# Coordination Sequence:
#
# PCOD9373572 Si02
#       8
#     8   4   8   8   8   8   4   8
#     4   9  20  36  58  84 115 156 198 237 287 359
#     4  10  18  38  62  86 124 167 204 237 292 371
#     4  10  20  33  52  80 110 140 181 234 287 332
#     4  11  22  36  57  85 116 150 195 244 292 346
#     4  10  20  33  49  74 111 150 185 219 266 331
#     4  11  22  39  63  87 117 156 197 240 296 363
#     4  12  24  38  62  96 124 149 196 261 310 345
#     4  10  19  35  59  83 110 148 193 236 284 350
#
# _framework density 18.969172
#
# number of rings (size 3 to 8) (size 9 to 14) (size 15 to 20)
#    0.000    1.714    2.857    2.357    1.000    2.286 
#    0.000    2.857    1.571    0.000    0.000    0.000 
#    0.000    0.000    0.000    0.000    0.000    0.000 
#
# Total GULP energy -156241.360251 kJ/mol
# GULP energy per Si atom -5580.048580 kJ/mol
# Density = 1.892600 g / cm^3
# Si number density = 18.969172 Si / 1000 Ang^3
#
#
#
# Elastic Constant Matrix: (Units=GPa)
#
#
# Indices 1 2 3 4 5 6 
#
# 1 29.8152 14.1357 5.4221 0.0000 0.0000 0.0000
# 2 14.1357 101.3884 21.5498 0.0000 0.0000 0.0000
# 3 5.4221 21.5498 69.1171 0.0000 0.0000 0.0000
# 4 0.0000 0.0000 0.0000 24.8909 0.0000 0.0000
# 5 0.0000 0.0000 0.0000 0.0000 18.5318 0.0000
# 6 0.0000 0.0000 0.0000 0.0000 0.0000 28.1175
#
#
#
# Elastic Compliance Matrix: (Units=1/GPa)
#
#
# Indices 1 2 3 4 5 6 
#
# 1 0.036031 -0.004737 -0.001350 0.000000 0.000000 0.000000
# 2 -0.004737 0.011186 -0.003116 0.000000 0.000000 0.000000
# 3 -0.001350 -0.003116 0.015546 0.000000 0.000000 0.000000
# 4 0.000000 0.000000 0.000000 0.040175 0.000000 0.000000
# 5 0.000000 0.000000 0.000000 0.000000 0.053961 0.000000
# 6 0.000000 0.000000 0.000000 0.000000 0.000000 0.035565
#
#
# Mechanical properties :
#
#
# Convention : Reuss Voigt Hill
#
# Bulk Modulus (GPa) = 22.54400 31.39288 26.96844
# Shear Modulus (GPa) = 22.15775 24.92224 23.54000
#
# Velocity S-wave (km/s) = 3.42145 3.62861 3.52655
# Velocity P-wave (km/s) = 5.24583 5.84304 5.55247
#
# Compressibility (1/GPa) = 0.04435769
#
# Stress axis : x y z
#
# Youngs Moduli (GPa) = 27.75385 89.39958 64.32678
#
# Poissons Ratio (x) = 0.42345 0.08683
# Poissons Ratio (y) = 0.13146 0.20044
# Poissons Ratio (z) = 0.03746 0.27857
#
# Static dielectric constant tensor:
#      x y z
#    x 1.651620 0.000000 0.000000 
#    y 0.000000 1.664320 0.000000 
#    z 0.000000 0.000000 1.662240 
# 
# From -- ./inp_files/23111.got.cif
#   From: 2010.05.17/outbox.cif.g08.bks.cpg/sg44_12_cif.got.tgz:23111.got - 2010.06.03 19:37:08.
