data_PCOD9373883
_publ_section_title
;
Structure prediction by ZEFSAII (Michael W. Deem and Ramdas Pophale) SiO2 
 PCOD9373883
Probable space group: I M M 2
;
_chemical_formula_sum "Si O2"
_cell_formula_units_Z 40
_cell_length_a 19.244490
_cell_length_b 8.123909
_cell_length_c 13.882751
_cell_angle_alpha 90.000000
_cell_angle_beta 90.000000
_cell_angle_gamma 90.000000
_cell_volume 2170.436032
_symmetry_space_group_name_H-M "I M M 2"
_symmetry_group_IT_number 44
_symmetry_cell_setting 'orthorhombic'
loop_
_space_group_symop_operation_xyz
x,y,z
-x,-y,z
-x,y,z
x,-y,z
1/2+x,1/2+y,1/2+z
1/2-x,1/2-y,1/2+z
1/2-x,1/2+y,1/2+z
1/2+x,1/2-y,1/2+z
loop_
_atom_site_type_symbol
_atom_site_label
_atom_site_fract_x
_atom_site_fract_y
_atom_site_fract_z
Si Si1 0.000000 0.798514 0.836401
Si Si2 0.352923 0.693905 0.031217
Si Si3 0.142954 0.799197 0.931595
Si Si4 0.287363 0.806023 0.841004
Si Si5 0.288978 0.694260 0.626882
Si Si6 0.500000 0.298867 0.112902
O O1 0.930092 0.742483 0.889606
O O2 0.000000 0.749844 0.724734
O O3 0.000000 0.000000 0.837825
O O4 0.349508 0.500000 0.053284
O O5 0.289601 0.775466 0.089744
O O6 0.428674 0.755831 0.062482
O O7 0.337298 0.720706 0.918440
O O8 0.208499 0.750367 0.865485
O O9 0.141479 0.000000 0.932086
O O10 0.161768 0.745426 0.039847
O O11 0.301963 0.774916 0.729701
O O12 0.290799 0.000000 0.861509
O O13 0.299455 0.500000 0.637815
O O14 0.500000 0.500000 0.109465
#
# Coordination Sequence:
#
# PCOD9373883 Si02
#       6
#     4   8   8   8   8   4
#     4   9  14  26  47  71  96 124 155 197 248 297
#     4  10  19  33  52  76 102 131 168 213 258 308
#     4   8  16  28  46  71  97 121 157 202 244 291
#     4  10  19  33  51  73  99 132 170 210 253 301
#     4  10  19  32  49  74 103 133 168 208 252 304
#     4   9  18  30  50  77 102 128 165 209 258 311
#
# _framework density 18.429476999999999
#
# number of rings (size 3 to 8) (size 9 to 14) (size 15 to 20)
#    0.000    2.600    0.000    4.200    0.000    3.200 
#    0.000    3.000    0.000    3.600    0.000   23.800 
#    0.000    0.000    0.000    0.000    0.000    0.000 
#
# Total GULP energy -111566.824696 kJ/mol
# GULP energy per Si atom -5578.341235 kJ/mol
# Density = 1.838753 g / cm^3
# Si number density = 18.429477 Si / 1000 Ang^3
#
#
#
# Elastic Constant Matrix: (Units=GPa)
#
#
# Indices 1 2 3 4 5 6 
#
# 1 147.8634 -0.6170 77.3804 0.0000 0.0000 0.0000
# 2 -0.6170 13.5785 -8.3607 0.0000 0.0000 0.0000
# 3 77.3804 -8.3607 129.3133 0.0000 0.0000 0.0000
# 4 0.0000 0.0000 0.0000 25.8196 0.0000 0.0000
# 5 0.0000 0.0000 0.0000 0.0000 17.5763 0.0000
# 6 0.0000 0.0000 0.0000 0.0000 0.0000 17.5249
#
#
#
# Elastic Compliance Matrix: (Units=1/GPa)
#
#
# Indices 1 2 3 4 5 6 
#
# 1 0.009992 -0.003361 -0.006196 0.000000 0.000000 0.000000
# 2 -0.003361 0.077830 0.007043 0.000000 0.000000 0.000000
# 3 -0.006196 0.007043 0.011896 0.000000 0.000000 0.000000
# 4 0.000000 0.000000 0.000000 0.038730 0.000000 0.000000
# 5 0.000000 0.000000 0.000000 0.000000 0.056895 0.000000
# 6 0.000000 0.000000 0.000000 0.000000 0.000000 0.057062
#
#
# Mechanical properties :
#
#
# Convention : Reuss Voigt Hill
#
# Bulk Modulus (GPa) = 10.56083 47.50674 29.03379
# Shear Modulus (GPa) = 17.30130 27.00766 22.15448
#
# Velocity S-wave (km/s) = 3.06728 3.83229 3.47092
# Velocity P-wave (km/s) = 4.27635 6.73910 5.64369
#
# Compressibility (1/GPa) = 0.09468949
#
# Stress axis : x y z
#
# Youngs Moduli (GPa) = 100.08388 12.84857 84.05943
#
# Poissons Ratio (x) = 0.04319 0.52085
# Poissons Ratio (y) = 0.33640 -0.59206
# Poissons Ratio (z) = 0.62014 -0.09050
#
# Static dielectric constant tensor:
#      x y z
#    x 1.621160 0.000000 0.000000 
#    y 0.000000 1.656910 0.000000 
#    z 0.000000 0.000000 1.617040 
# 
# From -- ./inp_files/14207.got.cif
#   From: 2010.05.17/outbox.cif.g08.bks.cpg/sg44_8_cif.got.tgz:14207.got - 2010.06.03 19:37:08.
