data_PCOD9373663
_publ_section_title
;
Structure prediction by ZEFSAII (Michael W. Deem and Ramdas Pophale) SiO2 
 PCOD9373663
Probable space group: I M M 2
;
_chemical_formula_sum "Si O2"
_cell_formula_units_Z 64
_cell_length_a 17.056747
_cell_length_b 7.446712
_cell_length_c 23.179217
_cell_angle_alpha 90.000000
_cell_angle_beta 90.000000
_cell_angle_gamma 90.000000
_cell_volume 2944.147248
_symmetry_space_group_name_H-M "I M M 2"
_symmetry_group_IT_number 44
_symmetry_cell_setting 'orthorhombic'
loop_
_space_group_symop_operation_xyz
x,y,z
-x,-y,z
-x,y,z
x,-y,z
1/2+x,1/2+y,1/2+z
1/2-x,1/2-y,1/2+z
1/2-x,1/2+y,1/2+z
1/2+x,1/2-y,1/2+z
loop_
_atom_site_type_symbol
_atom_site_label
_atom_site_fract_x
_atom_site_fract_y
_atom_site_fract_z
Si Si1 0.387568 0.796480 0.576970
Si Si2 0.088099 0.218044 0.406042
Si Si3 0.084682 0.717755 0.206998
Si Si4 0.085753 0.216060 0.540499
Si Si5 0.254868 0.206335 0.244223
Si Si6 0.412507 0.780588 0.448378
Si Si7 0.763708 0.720300 0.870171
Si Si8 0.272772 0.794762 0.118723
O O1 0.411976 0.722047 0.639672
O O2 0.408595 0.716713 0.515147
O O3 0.293951 0.800081 0.581985
O O4 0.417012 0.000000 0.576348
O O5 0.092912 0.267349 0.473704
O O6 0.173079 0.277059 0.381853
O O7 0.000000 0.277397 0.385335
O O8 0.087034 0.000000 0.401615
O O9 0.090467 0.500000 0.206800
O O10 0.159951 0.788071 0.240561
O O11 0.000000 0.769052 0.231177
O O12 0.149598 0.292209 0.582469
O O13 0.000000 0.268244 0.560743
O O14 0.092266 0.000000 0.541698
O O15 0.281833 0.282201 0.305005
O O16 0.280320 0.285847 0.182736
O O17 0.281642 0.000000 0.244254
O O18 0.500000 0.732327 0.425667
O O19 0.334321 0.724118 0.413210
O O20 0.409424 0.000000 0.449376
O O21 0.762382 0.500000 0.871662
O O22 0.245541 0.000000 0.126086
#
# Coordination Sequence:
#
# PCOD9373663 Si02
#       8
#     8   8   8   8   8   8   8   8
#     4   9  16  28  48  71  93 116 145 184 230 280
#     4   8  14  25  44  71  96 115 142 185 233 276
#     4   9  17  29  46  69  95 120 146 181 227 276
#     4   9  17  30  49  72  94 115 146 190 236 281
#     4   9  19  32  44  63  91 123 158 190 220 263
#     4   9  16  26  45  73  96 114 146 196 246 283
#     4   9  16  27  43  64  92 122 152 189 230 271
#     4  10  19  30  44  65  95 126 154 185 224 271
#
# _framework density 21.738043999999999
#
# number of rings (size 3 to 8) (size 9 to 14) (size 15 to 20)
#    0.000    3.000    0.000    2.250    0.000    5.000 
#    0.000    1.875    0.000    6.375    0.000    0.000 
#    0.000    0.000    0.000    0.000    0.000    0.000 
#
# Total GULP energy -178347.253987 kJ/mol
# GULP energy per Si atom -5573.351687 kJ/mol
# Density = 2.168857 g / cm^3
# Si number density = 21.738044 Si / 1000 Ang^3
#
#
#
# Elastic Constant Matrix: (Units=GPa)
#
#
# Indices 1 2 3 4 5 6 
#
# 1 123.2298 5.8151 53.4186 0.0000 0.0000 0.0000
# 2 5.8151 65.6283 4.1376 0.0000 0.0000 0.0000
# 3 53.4186 4.1376 92.3091 0.0000 0.0000 0.0000
# 4 0.0000 0.0000 0.0000 0.2444 0.0000 0.0000
# 5 0.0000 0.0000 0.0000 0.0000 0.7297 0.0000
# 6 0.0000 0.0000 0.0000 0.0000 0.0000 -53.0672
#
#
#
# Elastic Compliance Matrix: (Units=1/GPa)
#
#
# Indices 1 2 3 4 5 6 
#
# 1 0.010853 -0.000567 -0.006255 0.000000 0.000000 0.000000
# 2 -0.000567 0.015310 -0.000358 0.000000 0.000000 0.000000
# 3 -0.006255 -0.000358 0.014469 0.000000 0.000000 0.000000
# 4 0.000000 0.000000 0.000000 4.092333 0.000000 0.000000
# 5 0.000000 0.000000 0.000000 0.000000 1.370383 0.000000
# 6 0.000000 0.000000 0.000000 0.000000 0.000000 -0.018844
#
#
# Mechanical properties :
#
#
# Convention : Reuss Voigt Hill
#
# Bulk Modulus (GPa) = 38.06414 45.32332 41.69373
# Shear Modulus (GPa) = 0.90783 4.10110 2.50446
#
# Velocity S-wave (km/s) = 0.64694 1.37503 1.07453
# Velocity P-wave (km/s) = 4.25517 4.83900 4.55645
#
# Compressibility (1/GPa) = 0.02627145
#
# Stress axis : x y z
#
# Youngs Moduli (GPa) = 92.13800 65.31606 69.11281
#
# Poissons Ratio (x) = 0.03705 0.43232
# Poissons Ratio (y) = 0.05227 0.02474
# Poissons Ratio (z) = 0.57635 0.02338
#
# Static dielectric constant tensor:
#      x y z
#    x 1.795920 0.000000 0.000000 
#    y 0.000000 1.883330 0.000000 
#    z 0.000000 0.000000 1.785330 
# 
# From -- ./inp_files/23324.got.cif
#   From: 2010.05.17/outbox.cif.g08.bks.cpg/sg44_12_cif.got.tgz:23324.got - 2010.06.03 19:37:08.
