data_PCOD9373889
_publ_section_title
;
Structure prediction by ZEFSAII (Michael W. Deem and Ramdas Pophale) SiO2 
 PCOD9373889
Probable space group: I M M 2
;
_chemical_formula_sum "Si O2"
_cell_formula_units_Z 64
_cell_length_a 7.836024
_cell_length_b 22.153619
_cell_length_c 16.289085
_cell_angle_alpha 90.000000
_cell_angle_beta 90.000000
_cell_angle_gamma 90.000000
_cell_volume 2827.724726
_symmetry_space_group_name_H-M "I M M 2"
_symmetry_group_IT_number 44
_symmetry_cell_setting 'orthorhombic'
loop_
_space_group_symop_operation_xyz
x,y,z
-x,-y,z
-x,y,z
x,-y,z
1/2+x,1/2+y,1/2+z
1/2-x,1/2-y,1/2+z
1/2-x,1/2+y,1/2+z
1/2+x,1/2-y,1/2+z
loop_
_atom_site_type_symbol
_atom_site_label
_atom_site_fract_x
_atom_site_fract_y
_atom_site_fract_z
Si Si1 0.808300 0.072771 0.897600
Si Si2 0.791768 0.699629 0.997571
Si Si3 0.705758 0.190792 0.321309
Si Si4 0.799229 0.727814 0.172674
Si Si5 0.209027 0.432188 0.755719
Si Si6 0.692685 0.926441 0.075997
Si Si7 0.300715 0.065222 0.543698
Si Si8 0.803350 0.098089 0.721176
O O1 0.721878 0.087332 0.810761
O O2 0.000000 0.095943 0.887427
O O3 0.808293 0.000000 0.902616
O O4 0.754681 0.094943 0.987417
O O5 0.734064 0.719132 0.907214
O O6 0.000000 0.699044 0.994794
O O7 0.744123 0.737932 0.078141
O O8 0.733118 0.630153 0.013417
O O9 0.500000 0.195093 0.318003
O O10 0.772776 0.220621 0.238736
O O11 0.753022 0.120118 0.318623
O O12 0.701443 0.669311 0.205156
O O13 0.000000 0.712144 0.170089
O O14 0.265563 0.500000 0.775226
O O15 0.274902 0.413973 0.664434
O O16 0.000000 0.434197 0.751510
O O17 0.500000 0.904746 0.082377
O O18 0.692715 0.000000 0.072831
O O19 0.500000 0.064809 0.519853
O O20 0.287020 0.069047 0.642705
O O21 0.227112 0.000000 0.517458
O O22 0.000000 0.075986 0.720626
#
# Coordination Sequence:
#
# PCOD9373889 Si02
#       8
#     8   8   8   8   8   8   8   8
#     4   9  17  28  43  67  99 133 172 217 262 310
#     4   8  17  34  55  78 107 141 176 220 269 319
#     4  10  19  35  60  84 106 138 181 222 266 322
#     4  10  21  39  56  74 105 141 178 225 276 325
#     4   8  15  29  51  80 109 133 164 211 260 309
#     4   8  14  26  43  64  96 134 166 201 247 298
#     4   9  17  30  50  78 112 146 178 214 265 325
#     4  10  19  32  50  72 101 138 182 230 273 317
#
# _framework density 22.633037999999999
#
# number of rings (size 3 to 8) (size 9 to 14) (size 15 to 20)
#    0.000    3.000    0.000    2.625    0.000    2.250 
#    2.250    7.500    0.000    1.125    0.000    0.000 
#    0.000    0.000    0.000    0.000    0.000    0.000 
#
# Total GULP energy -178273.469890 kJ/mol
# GULP energy per Si atom -5571.045934 kJ/mol
# Density = 2.258152 g / cm^3
# Si number density = 22.633038 Si / 1000 Ang^3
#
#
#
# Elastic Constant Matrix: (Units=GPa)
#
#
# Indices 1 2 3 4 5 6 
#
# 1 27.2689 -2.7090 7.2707 0.0000 0.0000 0.0000
# 2 -2.7090 43.2642 27.0863 0.0000 0.0000 0.0000
# 3 7.2707 27.0863 149.3638 -0.0001 0.0000 0.0000
# 4 0.0000 0.0000 -0.0001 22.9097 0.0000 0.0000
# 5 0.0000 0.0000 0.0000 0.0000 -39.1978 0.0000
# 6 0.0000 0.0000 0.0000 0.0000 0.0000 6.8434
#
#
#
# Elastic Compliance Matrix: (Units=1/GPa)
#
#
# Indices 1 2 3 4 5 6 
#
# 1 0.037747 0.003964 -0.002556 0.000000 0.000000 0.000000
# 2 0.003964 0.026490 -0.004997 0.000000 0.000000 0.000000
# 3 -0.002556 -0.004997 0.007726 0.000000 0.000000 0.000000
# 4 0.000000 0.000000 0.000000 0.043650 0.000000 0.000000
# 5 0.000000 0.000000 0.000000 0.000000 -0.025512 0.000000
# 6 0.000000 0.000000 0.000000 0.000000 0.000000 0.146127
#
#
# Mechanical properties :
#
#
# Convention : Reuss Voigt Hill
#
# Bulk Modulus (GPa) = 15.43575 31.46591 23.45083
# Shear Modulus (GPa) = 18.86783 10.66099 14.76441
#
# Velocity S-wave (km/s) = 2.89042 2.17269 2.55686
# Velocity P-wave (km/s) = 4.23959 4.49744 4.37042
#
# Compressibility (1/GPa) = 0.06478468
#
# Stress axis : x y z
#
# Youngs Moduli (GPa) = 26.49209 37.74962 129.43907
#
# Poissons Ratio (x) = -0.14964 0.33088
# Poissons Ratio (y) = -0.10501 0.64679
# Poissons Ratio (z) = 0.06772 0.18863
#
# Static dielectric constant tensor:
#      x y z
#    x 1.880600 0.000000 0.000000 
#    y 0.000000 1.841260 0.000000 
#    z 0.000000 0.000000 1.901510 
# 
# From -- ./inp_files/16850.got.cif
#   From: 2010.05.17/outbox.cif.g08.bks.cpg/sg44_9_cif.got.tgz:16850.got - 2010.06.03 19:37:08.
