data_PCOD9373806
_publ_section_title
;
Structure prediction by ZEFSAII (Michael W. Deem and Ramdas Pophale) SiO2 
 PCOD9373806
Probable space group: I M M 2
;
_chemical_formula_sum "Si O2"
_cell_formula_units_Z 48
_cell_length_a 13.644250
_cell_length_b 14.174673
_cell_length_c 11.787898
_cell_angle_alpha 90.000000
_cell_angle_beta 90.000000
_cell_angle_gamma 90.000000
_cell_volume 2279.812268
_symmetry_space_group_name_H-M "I M M 2"
_symmetry_group_IT_number 44
_symmetry_cell_setting 'orthorhombic'
loop_
_space_group_symop_operation_xyz
x,y,z
-x,-y,z
-x,y,z
x,-y,z
1/2+x,1/2+y,1/2+z
1/2-x,1/2-y,1/2+z
1/2-x,1/2+y,1/2+z
1/2+x,1/2-y,1/2+z
loop_
_atom_site_type_symbol
_atom_site_label
_atom_site_fract_x
_atom_site_fract_y
_atom_site_fract_z
Si Si1 0.309290 0.197272 0.774970
Si Si2 0.609653 0.110285 0.558574
Si Si3 0.382299 0.891776 0.004520
Si Si4 0.678731 0.392708 0.999634
Si Si5 0.614905 0.602256 0.740962
Si Si6 0.109974 0.755113 0.687376
O O1 0.358234 0.121811 0.690044
O O2 0.342595 0.171857 0.901169
O O3 0.342559 0.295286 0.714603
O O4 0.192293 0.205709 0.770649
O O5 0.500000 0.151184 0.540087
O O6 0.708284 0.144244 0.494055
O O7 0.602214 0.000000 0.529848
O O8 0.500000 0.891550 0.993191
O O9 0.347829 0.000000 0.996578
O O10 0.362702 0.843963 0.126709
O O11 0.682701 0.500000 0.044609
O O12 0.616601 0.328260 0.082729
O O13 0.631897 0.397377 0.876524
O O14 0.500000 0.604030 0.715130
O O15 0.654174 0.500000 0.699179
O O16 0.000000 0.749388 0.732834
#
# Coordination Sequence:
#
# PCOD9373806 Si02
#       6
#     8   8   8   8   8   8
#     4  11  20  32  55  80 108 139 184 229 274 324
#     4   9  17  29  47  75 106 131 162 212 269 317
#     4  10  20  36  60  86 111 144 187 235 284 335
#     4   9  17  30  50  75 100 131 170 214 261 314
#     4  10  19  31  50  74 100 131 171 217 260 309
#     4  10  21  36  54  79 111 145 182 225 278 336
#
# _framework density 21.054365000000001
#
# number of rings (size 3 to 8) (size 9 to 14) (size 15 to 20)
#    0.000    2.167    1.667    2.500    0.000    3.667 
#    0.000    0.833    0.000    1.000    0.000    0.000 
#    0.000    0.000    0.000    0.000    0.000    0.000 
#
# Total GULP energy -133679.589849 kJ/mol
# GULP energy per Si atom -5569.982910 kJ/mol
# Density = 2.100644 g / cm^3
# Si number density = 21.054365 Si / 1000 Ang^3
#
#
#
# Elastic Constant Matrix: (Units=GPa)
#
#
# Indices 1 2 3 4 5 6 
#
# 1 96.2779 17.6052 1.6525 0.0000 0.0000 0.0000
# 2 17.6052 74.1134 -7.0664 0.0000 0.0000 0.0000
# 3 1.6525 -7.0664 13.8667 0.0000 0.0000 0.0000
# 4 0.0000 0.0000 0.0000 13.2085 0.0000 0.0000
# 5 0.0000 0.0000 0.0000 0.0000 9.9249 0.0000
# 6 0.0000 0.0000 0.0000 0.0000 0.0000 24.6555
#
#
#
# Elastic Compliance Matrix: (Units=1/GPa)
#
#
# Indices 1 2 3 4 5 6 
#
# 1 0.010958 -0.002867 -0.002767 0.000000 0.000000 0.000000
# 2 -0.002867 0.014932 0.007951 0.000000 0.000000 0.000000
# 3 -0.002767 0.007951 0.076497 0.000000 0.000000 0.000000
# 4 0.000000 0.000000 0.000000 0.075709 0.000000 0.000000
# 5 0.000000 0.000000 0.000000 0.000000 0.100757 0.000000
# 6 0.000000 0.000000 0.000000 0.000000 0.000000 0.040559
#
#
# Mechanical properties :
#
#
# Convention : Reuss Voigt Hill
#
# Bulk Modulus (GPa) = 9.34395 23.18228 16.26311
# Shear Modulus (GPa) = 14.26734 21.02890 17.64812
#
# Velocity S-wave (km/s) = 2.60598 3.16379 2.89834
# Velocity P-wave (km/s) = 3.67457 4.93768 4.35219
#
# Compressibility (1/GPa) = 0.10702108
#
# Stress axis : x y z
#
# Youngs Moduli (GPa) = 91.25488 66.97063 13.07249
#
# Poissons Ratio (x) = 0.19200 0.03617
# Poissons Ratio (y) = 0.26162 -0.10394
# Poissons Ratio (z) = 0.25249 -0.53247
#
# Static dielectric constant tensor:
#      x y z
#    x 1.785440 0.000000 0.000000 
#    y 0.000000 1.913380 0.000000 
#    z 0.000000 0.000000 1.733380 
# 
# From -- ./inp_files/13151.got.cif
#   From: 2010.05.17/outbox.cif.g08.bks.cpg/sg44_7_cif.got.tgz:13151.got - 2010.06.03 19:37:08.
