data_PCOD9373931
_publ_section_title
;
Structure prediction by ZEFSAII (Michael W. Deem and Ramdas Pophale) SiO2 
 PCOD9373931
Probable space group: I M M 2
;
_chemical_formula_sum "Si O2"
_cell_formula_units_Z 64
_cell_length_a 7.772255
_cell_length_b 18.650356
_cell_length_c 22.079259
_cell_angle_alpha 90.000000
_cell_angle_beta 90.000000
_cell_angle_gamma 90.000000
_cell_volume 3200.506113
_symmetry_space_group_name_H-M "I M M 2"
_symmetry_group_IT_number 44
_symmetry_cell_setting 'orthorhombic'
loop_
_space_group_symop_operation_xyz
x,y,z
-x,-y,z
-x,y,z
x,-y,z
1/2+x,1/2+y,1/2+z
1/2-x,1/2-y,1/2+z
1/2-x,1/2+y,1/2+z
1/2+x,1/2-y,1/2+z
loop_
_atom_site_type_symbol
_atom_site_label
_atom_site_fract_x
_atom_site_fract_y
_atom_site_fract_z
Si Si1 0.794956 0.672030 0.958990
Si Si2 0.294956 0.172028 0.695503
Si Si3 0.293198 0.834592 0.327864
Si Si4 0.211100 0.416975 0.577247
Si Si5 0.705129 0.581108 0.077246
Si Si6 0.203746 0.661632 0.696670
Si Si7 0.706803 0.165406 0.826628
Si Si8 0.796254 0.338370 0.457823
O O1 0.732212 0.640139 0.894144
O O2 0.723955 0.752693 0.965489
O O3 0.000000 0.679679 0.954477
O O4 0.756110 0.623983 0.016915
O O5 0.500000 0.179679 0.700016
O O6 0.256113 0.123982 0.637577
O O7 0.223953 0.252690 0.689004
O O8 0.232213 0.140137 0.760348
O O9 0.500000 0.843513 0.326511
O O10 0.225365 0.861157 0.262822
O O11 0.250003 0.749999 0.327246
O O12 0.256951 0.500000 0.577248
O O13 0.274578 0.378083 0.637978
O O14 0.274578 0.378085 0.516515
O O15 0.000000 0.412350 0.577246
O O16 0.500000 0.577303 0.077247
O O17 0.775381 0.500000 0.077245
O O18 0.000000 0.646455 0.698250
O O19 0.500000 0.156488 0.827982
O O20 0.774635 0.138841 0.891670
O O21 0.000000 0.353547 0.456242
#
# Coordination Sequence:
#
# PCOD9373931 Si02
#       8
#     8   8   8   8   8   8   8   8
#     4  10  19  32  52  76  99 123 157 202 248 292
#     4  10  19  32  52  76  99 123 157 202 248 292
#     4   8  15  27  45  72 100 125 155 194 239 283
#     4   9  17  28  44  68  96 127 164 201 230 262
#     4  11  24  39  52  68  94 129 166 203 248 304
#     4   9  16  29  50  74 101 132 165 198 235 284
#     4   8  15  27  45  72 100 125 155 194 239 283
#     4   9  16  29  50  74 101 132 165 198 235 284
#
# _framework density 19.996836999999999
#
# number of rings (size 3 to 8) (size 9 to 14) (size 15 to 20)
#    0.000    2.750    0.000    1.875    0.000    3.000 
#    0.000    1.250    0.000    6.000    0.000    0.000 
#    0.000    0.000    0.000    0.000    0.000    0.000 
#
# Total GULP energy -178266.605834 kJ/mol
# GULP energy per Si atom -5570.831432 kJ/mol
# Density = 1.995132 g / cm^3
# Si number density = 19.996837 Si / 1000 Ang^3
#
#
#
# Elastic Constant Matrix: (Units=GPa)
#
#
# Indices 1 2 3 4 5 6 
#
# 1 25.6541 -12.5793 2.8915 0.0000 0.0000 0.0000
# 2 -12.5793 58.6884 87.0613 0.0000 0.0000 0.0000
# 3 2.8915 87.0613 276.2209 0.0000 0.0000 0.0000
# 4 0.0000 0.0000 0.0000 -6.9880 0.0000 0.0000
# 5 0.0000 0.0000 0.0000 0.0000 -58.1850 0.0000
# 6 0.0000 0.0000 0.0000 0.0000 0.0000 2.4328
#
#
#
# Elastic Compliance Matrix: (Units=1/GPa)
#
#
# Indices 1 2 3 4 5 6 
#
# 1 0.050506 0.021805 -0.007401 0.000000 0.000000 0.000000
# 2 0.021805 0.041416 -0.013282 0.000000 0.000000 0.000000
# 3 -0.007401 -0.013282 0.007884 0.000000 0.000000 0.000000
# 4 0.000000 0.000000 0.000000 -0.143102 0.000000 0.000000
# 5 0.000000 0.000000 0.000000 0.000000 -0.017187 0.000000
# 6 0.000000 0.000000 0.000000 0.000000 0.000000 0.411051
#
#
# Mechanical properties :
#
#
# Convention : Reuss Voigt Hill
#
# Bulk Modulus (GPa) = 9.79910 57.25671 33.52791
# Shear Modulus (GPa) = 13.07726 6.33129 9.70427
#
# Velocity S-wave (km/s) = 2.56005 1.78130 2.20532
# Velocity P-wave (km/s) = 3.69452 5.73810 4.82572
#
# Compressibility (1/GPa) = 0.10205021
#
# Stress axis : x y z
#
# Youngs Moduli (GPa) = 19.79947 24.14507 126.83695
#
# Poissons Ratio (x) = -0.52649 0.93878
# Poissons Ratio (y) = -0.43173 1.68467
# Poissons Ratio (z) = 0.14655 0.32070
#
# Static dielectric constant tensor:
#      x y z
#    x 1.722430 0.000000 0.000000 
#    y 0.000000 1.645280 0.000000 
#    z 0.000000 0.000000 1.788920 
# 
# From -- ./inp_files/23305.got.cif
#   From: 2010.05.17/outbox.cif.g08.bks.cpg/sg44_12_cif.got.tgz:23305.got - 2010.06.03 19:37:08.
