data_PCOD9373529
_publ_section_title
;
Structure prediction by ZEFSAII (Michael W. Deem and Ramdas Pophale) SiO2 
 PCOD9373529
Probable space group: I M M 2
;
_chemical_formula_sum "Si O2"
_cell_formula_units_Z 64
_cell_length_a 13.917335
_cell_length_b 18.370641
_cell_length_c 13.385867
_cell_angle_alpha 90.000000
_cell_angle_beta 90.000000
_cell_angle_gamma 90.000000
_cell_volume 3422.369501
_symmetry_space_group_name_H-M "I M M 2"
_symmetry_group_IT_number 44
_symmetry_cell_setting 'orthorhombic'
loop_
_space_group_symop_operation_xyz
x,y,z
-x,-y,z
-x,y,z
x,-y,z
1/2+x,1/2+y,1/2+z
1/2-x,1/2-y,1/2+z
1/2-x,1/2+y,1/2+z
1/2+x,1/2-y,1/2+z
loop_
_atom_site_type_symbol
_atom_site_label
_atom_site_fract_x
_atom_site_fract_y
_atom_site_fract_z
Si Si1 0.386522 0.296326 0.711190
Si Si2 0.791973 0.083237 0.500693
Si Si3 0.254833 0.415714 0.770872
Si Si4 0.387320 0.786858 0.298602
Si Si5 0.390545 0.085755 0.816632
Si Si6 0.391262 0.150849 0.595030
Si Si7 0.215478 0.284679 0.397360
Si Si8 0.889214 0.219529 0.581140
O O1 0.500000 0.309752 0.719839
O O2 0.325390 0.369722 0.699304
O O3 0.372465 0.234313 0.627259
O O4 0.346570 0.259672 0.813502
O O5 0.803873 0.085119 0.381181
O O6 0.687164 0.116522 0.523480
O O7 0.864392 0.135662 0.558797
O O8 0.797216 0.000000 0.533911
O O9 0.238582 0.500000 0.743903
O O10 0.159081 0.366623 0.781947
O O11 0.500000 0.789751 0.321001
O O12 0.323198 0.743083 0.378602
O O13 0.372322 0.743140 0.194668
O O14 0.500000 0.106592 0.848758
O O15 0.385086 0.106819 0.699726
O O16 0.310512 0.132358 0.873284
O O17 0.379531 0.000000 0.829281
O O18 0.500000 0.144558 0.556922
O O19 0.176768 0.263841 0.505100
O O20 0.000000 0.234215 0.557568
#
# Coordination Sequence:
#
# PCOD9373529 Si02
#       8
#     8   8   8   8   8   8   8   8
#     4   9  16  31  53  77 105 139 178 223 275 330
#     4  11  21  32  50  81 115 147 180 223 281 340
#     4  10  21  35  52  76 111 153 186 222 281 335
#     4  10  22  39  57  78 109 151 195 231 277 335
#     4   9  16  27  48  78 109 139 172 224 291 337
#     4   9  18  31  50  75 107 143 179 223 273 331
#     4  10  18  34  55  76 108 142 186 233 277 326
#     4  11  21  36  59  82 108 147 189 232 277 332
#
# _framework density 18.700493999999999
#
# number of rings (size 3 to 8) (size 9 to 14) (size 15 to 20)
#    0.000    2.125    2.500    4.500    0.000    2.000 
#    0.000    3.125    0.000    2.625    0.000    0.000 
#    0.000    0.000    0.000    0.000    0.000    0.000 
#
# Total GULP energy -178614.601305 kJ/mol
# GULP energy per Si atom -5581.706291 kJ/mol
# Density = 1.865793 g / cm^3
# Si number density = 18.700494 Si / 1000 Ang^3
#
#
#
# Elastic Constant Matrix: (Units=GPa)
#
#
# Indices 1 2 3 4 5 6 
#
# 1 92.5024 37.7855 17.3693 0.0000 0.0000 0.0000
# 2 37.7855 127.2714 14.3583 0.0000 0.0000 0.0000
# 3 17.3693 14.3583 43.4689 0.0000 0.0000 0.0000
# 4 0.0000 0.0000 0.0000 20.2437 0.0000 0.0000
# 5 0.0000 0.0000 0.0000 0.0000 17.5950 0.0000
# 6 0.0000 0.0000 0.0000 0.0000 0.0000 18.5418
#
#
#
# Elastic Compliance Matrix: (Units=1/GPa)
#
#
# Indices 1 2 3 4 5 6 
#
# 1 0.012957 -0.003389 -0.004058 0.000000 0.000000 0.000000
# 2 -0.003389 0.009048 -0.001634 0.000000 0.000000 0.000000
# 3 -0.004058 -0.001634 0.025166 0.000000 0.000000 0.000000
# 4 0.000000 0.000000 0.000000 0.049398 0.000000 0.000000
# 5 0.000000 0.000000 0.000000 0.000000 0.056834 0.000000
# 6 0.000000 0.000000 0.000000 0.000000 0.000000 0.053932
#
#
# Mechanical properties :
#
#
# Convention : Reuss Voigt Hill
#
# Bulk Modulus (GPa) = 34.47282 44.69653 39.58468
# Shear Modulus (GPa) = 21.26143 24.19139 22.72641
#
# Velocity S-wave (km/s) = 3.37552 3.60060 3.48987
# Velocity P-wave (km/s) = 5.80227 6.42175 6.11986
#
# Compressibility (1/GPa) = 0.02900836
#
# Stress axis : x y z
#
# Youngs Moduli (GPa) = 77.17952 110.52465 39.73573
#
# Poissons Ratio (x) = 0.37456 0.16124
# Poissons Ratio (y) = 0.26156 0.06495
# Poissons Ratio (z) = 0.31318 0.18064
#
# Static dielectric constant tensor:
#      x y z
#    x 1.667930 0.000000 0.000000 
#    y 0.000000 1.664430 0.000000 
#    z 0.000000 0.000000 1.668030 
# 
# From -- ./inp_files/18608.got.cif
#   From: 2010.05.17/outbox.cif.g08.bks.cpg/sg44_10_cif.got.tgz:18608.got - 2010.06.03 19:37:08.
