data_PCOD9373618
_publ_section_title
;
Structure prediction by ZEFSAII (Michael W. Deem and Ramdas Pophale) SiO2 
 PCOD9373618
Probable space group: I M M 2
;
_chemical_formula_sum "Si O2"
_cell_formula_units_Z 56
_cell_length_a 13.942429
_cell_length_b 9.051366
_cell_length_c 29.578606
_cell_angle_alpha 90.000000
_cell_angle_beta 90.000000
_cell_angle_gamma 90.000000
_cell_volume 3732.761743
_symmetry_space_group_name_H-M "I M M 2"
_symmetry_group_IT_number 44
_symmetry_cell_setting 'orthorhombic'
loop_
_space_group_symop_operation_xyz
x,y,z
-x,-y,z
-x,y,z
x,-y,z
1/2+x,1/2+y,1/2+z
1/2-x,1/2-y,1/2+z
1/2-x,1/2+y,1/2+z
1/2+x,1/2-y,1/2+z
loop_
_atom_site_type_symbol
_atom_site_label
_atom_site_fract_x
_atom_site_fract_y
_atom_site_fract_z
Si Si1 0.610934 0.323245 0.971910
Si Si2 0.890006 0.676091 0.930614
Si Si3 0.613690 0.175679 0.788975
Si Si4 0.885247 0.675589 0.102417
Si Si5 0.883550 0.170045 0.195891
Si Si6 0.704560 0.324509 0.875467
Si Si7 0.291071 0.676329 0.515739
O O1 0.500000 0.286931 0.979800
O O2 0.624253 0.500000 0.978240
O O3 0.639814 0.292102 0.919758
O O4 0.685591 0.236922 0.003155
O O5 0.880582 0.500000 0.940465
O O6 0.812948 0.709110 0.891549
O O7 0.000000 0.706146 0.918656
O O8 0.858454 0.764071 0.975138
O O9 0.500000 0.208378 0.795149
O O10 0.646376 0.253662 0.742637
O O11 0.669692 0.236104 0.832212
O O12 0.623852 0.000000 0.784657
O O13 0.869500 0.500000 0.100821
O O14 0.855622 0.740723 0.151059
O O15 0.829785 0.755737 0.062180
O O16 0.000000 0.701214 0.096974
O O17 0.000000 0.170953 0.196362
O O18 0.852067 0.000000 0.193599
O O19 0.696961 0.500000 0.866394
O O20 0.292265 0.500000 0.517156
#
# Coordination Sequence:
#
# PCOD9373618 Si02
#       7
#     8   8   8   8   8   8   8
#     4   9  18  33  50  66  88 120 156 191 226 266
#     4   9  18  33  49  64  87 120 156 192 228 267
#     4  10  19  29  42  63  92 123 151 179 216 265
#     4  10  19  31  47  66  91 122 153 185 222 267
#     4   9  17  29  45  65  89 116 147 184 224 265
#     4   9  17  29  46  67  88 114 150 187 224 265
#     4  11  21  30  44  68  95 121 151 186 225 270
#
# _framework density 15.002297
#
# number of rings (size 3 to 8) (size 9 to 14) (size 15 to 20)
#    0.000    2.429    0.000    4.286    0.000    8.571 
#    0.000    0.000    0.000    0.000    0.000    1.000 
#    0.000    5.714    0.000    0.000    0.000    0.000 
#
# Total GULP energy -156158.395511 kJ/mol
# GULP energy per Si atom -5577.085554 kJ/mol
# Density = 1.496815 g / cm^3
# Si number density = 15.002297 Si / 1000 Ang^3
#
#
#
# Elastic Constant Matrix: (Units=GPa)
#
#
# Indices 1 2 3 4 5 6 
#
# 1 88.4386 56.3670 59.1525 0.0000 0.0000 0.0000
# 2 56.3670 88.4309 79.9694 0.0000 0.0000 0.0000
# 3 59.1525 79.9694 135.9577 0.0000 0.0000 0.0000
# 4 0.0000 0.0000 0.0000 31.3207 0.0000 0.0000
# 5 0.0000 0.0000 0.0000 0.0000 22.2691 0.0000
# 6 0.0000 0.0000 0.0000 0.0000 0.0000 16.7488
#
#
#
# Elastic Compliance Matrix: (Units=1/GPa)
#
#
# Indices 1 2 3 4 5 6 
#
# 1 0.019433 -0.010128 -0.002498 0.000000 0.000000 0.000000
# 2 -0.010128 0.029437 -0.012908 0.000000 0.000000 0.000000
# 3 -0.002498 -0.012908 0.016034 0.000000 0.000000 0.000000
# 4 0.000000 0.000000 0.000000 0.031928 0.000000 0.000000
# 5 0.000000 0.000000 0.000000 0.000000 0.044905 0.000000
# 6 0.000000 0.000000 0.000000 0.000000 0.000000 0.059706
#
#
# Mechanical properties :
#
#
# Convention : Reuss Voigt Hill
#
# Bulk Modulus (GPa) = 72.27191 78.20057 75.23624
# Shear Modulus (GPa) = 19.44588 21.89028 20.66808
#
# Velocity S-wave (km/s) = 3.60417 3.82400 3.71571
# Velocity P-wave (km/s) = 8.09929 8.46972 8.28658
#
# Compressibility (1/GPa) = 0.01383663
#
# Stress axis : x y z
#
# Youngs Moduli (GPa) = 51.45834 33.97054 62.36619
#
# Poissons Ratio (x) = 0.34407 0.15576
# Poissons Ratio (y) = 0.52119 0.80503
# Poissons Ratio (z) = 0.12852 0.43850
#
# Static dielectric constant tensor:
#      x y z
#    x 1.488030 0.000000 0.000000 
#    y 0.000000 1.499580 0.000000 
#    z 0.000000 0.000000 1.473740 
# 
# From -- ./inp_files/27226.got.cif
#   From: 2010.05.17/outbox.cif.g08.bks.cpg/sg44_14_cif.got.tgz:27226.got - 2010.06.03 19:37:08.
