data_PCOD9373997
_publ_section_title
;
Structure prediction by ZEFSAII (Michael W. Deem and Ramdas Pophale) SiO2 
 PCOD9373997
Probable space group: I M M 2
;
_chemical_formula_sum "Si O2"
_cell_formula_units_Z 64
_cell_length_a 31.105980
_cell_length_b 8.760085
_cell_length_c 14.724292
_cell_angle_alpha 90.000000
_cell_angle_beta 90.000000
_cell_angle_gamma 90.000000
_cell_volume 4012.237476
_symmetry_space_group_name_H-M "I M M 2"
_symmetry_group_IT_number 44
_symmetry_cell_setting 'orthorhombic'
loop_
_space_group_symop_operation_xyz
x,y,z
-x,-y,z
-x,y,z
x,-y,z
1/2+x,1/2+y,1/2+z
1/2-x,1/2-y,1/2+z
1/2-x,1/2+y,1/2+z
1/2+x,1/2-y,1/2+z
loop_
_atom_site_type_symbol
_atom_site_label
_atom_site_fract_x
_atom_site_fract_y
_atom_site_fract_z
Si Si1 0.133082 0.179686 0.066390
Si Si2 0.712822 0.182952 0.673088
Si Si3 0.951603 0.817177 0.802740
Si Si4 0.136238 0.182757 0.715591
Si Si5 0.268328 0.181737 0.882501
Si Si6 0.549010 0.817630 0.503804
Si Si7 0.175858 0.678663 0.893389
Si Si8 0.201048 0.816464 0.559417
O O1 0.169633 0.245875 0.132354
O O2 0.085563 0.251170 0.069115
O O3 0.130390 0.000000 0.077493
O O4 0.149995 0.223156 0.966244
O O5 0.717602 0.218366 0.779806
O O6 0.755919 0.228835 0.617034
O O7 0.709968 0.000000 0.663994
O O8 0.913929 0.781207 0.731508
O O9 0.000000 0.775296 0.773437
O O10 0.950525 0.000000 0.817309
O O11 0.943512 0.739770 0.900334
O O12 0.160992 0.273557 0.793742
O O13 0.159344 0.216731 0.620867
O O14 0.142106 0.000000 0.731193
O O15 0.225360 0.276626 0.902549
O O16 0.259532 0.000000 0.886276
O O17 0.299653 0.230708 0.963623
O O18 0.500000 0.772383 0.527529
O O19 0.551823 0.000000 0.503923
O O20 0.168962 0.500000 0.910786
O O21 0.203301 0.000000 0.545630
#
# Coordination Sequence:
#
# PCOD9373997 Si02
#       8
#     8   8   8   8   8   8   8   8
#     4  12  23  34  51  74 101 136 175 209 249 301
#     4  10  21  36  52  72 100 132 168 211 256 301
#     4   9  17  29  48  73 100 133 170 206 247 298
#     4  10  19  33  50  71 102 137 170 208 251 296
#     4  11  22  37  53  71  99 133 171 214 255 297
#     4  10  20  33  50  74 104 135 166 204 252 301
#     4  12  22  31  48  72 102 136 171 209 248 297
#     4  10  20  34  51  72 100 134 170 209 253 299
#
# _framework density 15.9512
#
# number of rings (size 3 to 8) (size 9 to 14) (size 15 to 20)
#    0.000    1.500    3.750    3.000    0.000    2.250 
#    0.000    0.000    0.000    0.000    0.000    0.875 
#    0.000    3.000    0.000    0.000    0.000    0.000 
#
# Total GULP energy -178569.698260 kJ/mol
# GULP energy per Si atom -5580.303071 kJ/mol
# Density = 1.591489 g / cm^3
# Si number density = 15.951200 Si / 1000 Ang^3
#
#
#
# Elastic Constant Matrix: (Units=GPa)
#
#
# Indices 1 2 3 4 5 6 
#
# 1 93.7468 23.7050 15.1745 0.0000 0.0000 0.0000
# 2 23.7050 22.5548 16.2965 0.0000 0.0000 0.0000
# 3 15.1745 16.2965 54.9684 0.0000 0.0000 0.0000
# 4 0.0000 0.0000 0.0000 23.3044 0.0000 0.0000
# 5 0.0000 0.0000 0.0000 0.0000 21.9783 0.0000
# 6 0.0000 0.0000 0.0000 0.0000 0.0000 15.2848
#
#
#
# Elastic Compliance Matrix: (Units=1/GPa)
#
#
# Indices 1 2 3 4 5 6 
#
# 1 0.014547 -0.015764 0.000658 0.000000 0.000000 0.000000
# 2 -0.015764 0.073505 -0.017440 0.000000 0.000000 0.000000
# 3 0.000658 -0.017440 0.023181 0.000000 0.000000 0.000000
# 4 0.000000 0.000000 0.000000 0.042910 0.000000 0.000000
# 5 0.000000 0.000000 0.000000 0.000000 0.045499 0.000000
# 6 0.000000 0.000000 0.000000 0.000000 0.000000 0.065425
#
#
# Mechanical properties :
#
#
# Convention : Reuss Voigt Hill
#
# Bulk Modulus (GPa) = 21.67301 31.29135 26.48218
# Shear Modulus (GPa) = 14.47011 19.85309 17.16160
#
# Velocity S-wave (km/s) = 3.01516 3.53174 3.28362
# Velocity P-wave (km/s) = 5.07328 6.02415 5.56905
#
# Compressibility (1/GPa) = 0.04614034
#
# Stress axis : x y z
#
# Youngs Moduli (GPa) = 68.74470 13.60451 43.13830
#
# Poissons Ratio (x) = 0.21446 -0.02837
# Poissons Ratio (y) = 1.08366 0.75235
# Poissons Ratio (z) = -0.04522 0.23727
#
# Static dielectric constant tensor:
#      x y z
#    x 1.566400 0.000000 0.000000 
#    y 0.000000 1.534890 0.000000 
#    z 0.000000 0.000000 1.518420 
# 
# From -- ./inp_files/17144.got.cif
#   From: 2010.05.17/outbox.cif.g08.bks.cpg/sg44_9_cif.got.tgz:17144.got - 2010.06.03 19:37:08.
