data_PCOD9373381
_publ_section_title
;
Structure prediction by ZEFSAII (Michael W. Deem and Ramdas Pophale) SiO2 
 PCOD9373381
Probable space group: I M M 2
;
_chemical_formula_sum "Si O2"
_cell_formula_units_Z 64
_cell_length_a 8.476987
_cell_length_b 24.107334
_cell_length_c 19.647032
_cell_angle_alpha 90.000000
_cell_angle_beta 90.000000
_cell_angle_gamma 90.000000
_cell_volume 4015.019460
_symmetry_space_group_name_H-M "I M M 2"
_symmetry_group_IT_number 44
_symmetry_cell_setting 'orthorhombic'
loop_
_space_group_symop_operation_xyz
x,y,z
-x,-y,z
-x,y,z
x,-y,z
1/2+x,1/2+y,1/2+z
1/2-x,1/2-y,1/2+z
1/2-x,1/2+y,1/2+z
1/2+x,1/2-y,1/2+z
loop_
_atom_site_type_symbol
_atom_site_label
_atom_site_fract_x
_atom_site_fract_y
_atom_site_fract_z
Si Si1 0.687999 0.664667 0.723690
Si Si2 0.690048 0.253664 0.495087
Si Si3 0.687985 0.766739 0.343441
Si Si4 0.692611 0.436904 0.633251
Si Si5 0.185470 0.232128 0.639240
Si Si6 0.188245 0.336828 0.258222
Si Si7 0.809436 0.436880 0.350577
Si Si8 0.809522 0.116500 0.990073
O O1 0.500000 0.662889 0.732868
O O2 0.766389 0.682679 0.794414
O O3 0.742769 0.607120 0.690408
O O4 0.726678 0.713977 0.670371
O O5 0.500000 0.251364 0.502346
O O6 0.733497 0.227764 0.422230
O O7 0.766490 0.226305 0.561036
O O8 0.736105 0.318782 0.492896
O O9 0.500000 0.757835 0.340554
O O10 0.768789 0.712426 0.310929
O O11 0.500000 0.436544 0.633281
O O12 0.744677 0.500000 0.643938
O O13 0.741511 0.414279 0.559121
O O14 0.234356 0.181038 0.687233
O O15 0.000000 0.241730 0.645914
O O16 0.242958 0.394265 0.291834
O O17 0.000000 0.338001 0.249578
O O18 0.753936 0.500000 0.341748
O O19 0.755626 0.412846 0.423063
O O20 0.000000 0.436981 0.349750
O O21 0.000000 0.114611 0.987113
#
# Coordination Sequence:
#
# PCOD9373381 Si02
#       8
#     8   8   8   8   8   8   8   8
#     4  10  18  31  48  67  94 125 158 196 235 279
#     4  10  19  32  49  70  96 126 157 192 237 285
#     4  10  19  31  48  69  95 122 155 198 237 280
#     4   9  17  29  46  67  91 124 163 196 225 265
#     4  11  21  31  48  70  95 122 156 199 240 285
#     4  10  19  32  49  67  93 128 161 195 237 282
#     4  10  21  34  47  68  98 130 164 200 237 278
#     4  10  18  31  48  67  95 129 167 198 226 273
#
# _framework density 15.940146
#
# number of rings (size 3 to 8) (size 9 to 14) (size 15 to 20)
#    0.000    2.000    2.500    4.125    0.000    2.750 
#    0.000    0.000    0.000    2.250    0.000    0.875 
#    0.000    1.000    0.000    0.000    0.000    0.000 
#
# Total GULP energy -178546.640986 kJ/mol
# GULP energy per Si atom -5579.582531 kJ/mol
# Density = 1.590387 g / cm^3
# Si number density = 15.940146 Si / 1000 Ang^3
#
#
#
# Elastic Constant Matrix: (Units=GPa)
#
#
# Indices 1 2 3 4 5 6 
#
# 1 10.9414 2.7281 7.0471 0.0000 0.0000 0.0000
# 2 2.7281 95.7701 61.9658 0.0000 0.0000 0.0000
# 3 7.0471 61.9658 125.0010 0.0000 0.0000 0.0000
# 4 0.0000 0.0000 0.0000 20.7000 0.0000 0.0000
# 5 0.0000 0.0000 0.0000 0.0000 26.6669 0.0000
# 6 0.0000 0.0000 0.0000 0.0000 0.0000 19.5404
#
#
#
# Elastic Compliance Matrix: (Units=1/GPa)
#
#
# Indices 1 2 3 4 5 6 
#
# 1 0.094920 0.001117 -0.005905 0.000000 0.000000 0.000000
# 2 0.001117 0.015385 -0.007690 0.000000 0.000000 0.000000
# 3 -0.005905 -0.007690 0.012145 0.000000 0.000000 0.000000
# 4 0.000000 0.000000 0.000000 0.048309 0.000000 0.000000
# 5 0.000000 0.000000 0.000000 0.000000 0.037500 0.000000
# 6 0.000000 0.000000 0.000000 0.000000 0.000000 0.051176
#
#
# Mechanical properties :
#
#
# Convention : Reuss Voigt Hill
#
# Bulk Modulus (GPa) = 10.25696 41.68828 25.97262
# Shear Modulus (GPa) = 15.77835 24.04623 19.91229
#
# Velocity S-wave (km/s) = 3.14960 3.88820 3.53822
# Velocity P-wave (km/s) = 4.43568 6.80935 5.74641
#
# Compressibility (1/GPa) = 0.09749479
#
# Stress axis : x y z
#
# Youngs Moduli (GPa) = 10.53513 64.99670 82.33933
#
# Poissons Ratio (x) = -0.07259 0.48621
# Poissons Ratio (y) = -0.01177 0.63318
# Poissons Ratio (z) = 0.06221 0.49981
#
# Static dielectric constant tensor:
#      x y z
#    x 1.546440 0.000000 0.000000 
#    y 0.000000 1.525870 0.000000 
#    z 0.000000 0.000000 1.530360 
# 
# From -- ./inp_files/20839.got.cif
#   From: 2010.05.17/outbox.cif.g08.bks.cpg/sg44_11_cif.got.tgz:20839.got - 2010.06.03 19:37:08.
