data_PCOD9373420
_publ_section_title
;
Structure prediction by ZEFSAII (Michael W. Deem and Ramdas Pophale) SiO2 
 PCOD9373420
Probable space group: I M M 2
;
_chemical_formula_sum "Si O2"
_cell_formula_units_Z 64
_cell_length_a 7.484224
_cell_length_b 15.935621
_cell_length_c 24.838315
_cell_angle_alpha 90.000000
_cell_angle_beta 90.000000
_cell_angle_gamma 90.000000
_cell_volume 2962.360445
_symmetry_space_group_name_H-M "I M M 2"
_symmetry_group_IT_number 44
_symmetry_cell_setting 'orthorhombic'
loop_
_space_group_symop_operation_xyz
x,y,z
-x,-y,z
-x,y,z
x,-y,z
1/2+x,1/2+y,1/2+z
1/2-x,1/2-y,1/2+z
1/2-x,1/2+y,1/2+z
1/2+x,1/2-y,1/2+z
loop_
_atom_site_type_symbol
_atom_site_label
_atom_site_fract_x
_atom_site_fract_y
_atom_site_fract_z
Si Si1 0.781369 0.906726 0.866880
Si Si2 0.215473 0.906921 0.360029
Si Si3 0.287485 0.256723 0.290693
Si Si4 0.213598 0.151036 0.476747
Si Si5 0.786408 0.848981 0.983282
Si Si6 0.212514 0.243274 0.669336
Si Si7 0.281369 0.406725 0.093147
Si Si8 0.284526 0.593079 0.600002
O O1 0.718039 0.831810 0.828466
O O2 0.720753 0.890655 0.928189
O O3 0.000000 0.903925 0.867587
O O4 0.729742 0.000000 0.849039
O O5 0.262080 0.832242 0.319767
O O6 0.281934 0.884929 0.420250
O O7 0.000000 0.908664 0.362349
O O8 0.276767 0.000000 0.344057
O O9 0.500000 0.270052 0.287110
O O10 0.215230 0.257365 0.230015
O O11 0.250021 0.250007 0.480015
O O12 0.279242 0.109352 0.531839
O O13 0.000000 0.138637 0.476082
O O14 0.000000 0.861399 0.983947
O O15 0.718062 0.884936 0.039780
O O16 0.281961 0.168188 0.631563
O O17 0.237915 0.332240 0.640261
O O18 0.000000 0.229944 0.672920
O O19 0.500000 0.403926 0.092440
O O20 0.229739 0.500000 0.110985
O O21 0.500000 0.591338 0.597683
O O22 0.223236 0.500000 0.615977
#
# Coordination Sequence:
#
# PCOD9373420 Si02
#       8
#     8   8   8   8   8   8   8   8
#     4   9  17  31  53  79 106 135 167 208 259 311
#     4  10  21  36  55  79 106 138 176 216 260 313
#     4  10  21  36  54  78 106 137 177 221 261 304
#     4  10  18  31  54  80 106 135 168 209 259 313
#     4  10  18  31  54  80 106 135 168 209 259 313
#     4  10  21  36  54  78 106 137 177 221 261 304
#     4   9  17  31  53  79 106 135 167 208 259 311
#     4  10  21  36  55  79 106 138 176 216 260 313
#
# _framework density 21.604395
#
# number of rings (size 3 to 8) (size 9 to 14) (size 15 to 20)
#    0.000    2.250    2.500    0.750    0.000    5.000 
#    0.000    5.000    0.000    4.500    0.000    1.750 
#    0.000    0.000    0.000    0.000    0.000    0.000 
#
# Total GULP energy -178769.313216 kJ/mol
# GULP energy per Si atom -5586.541038 kJ/mol
# Density = 2.155522 g / cm^3
# Si number density = 21.604395 Si / 1000 Ang^3
#
#
#
# Elastic Constant Matrix: (Units=GPa)
#
#
# Indices 1 2 3 4 5 6 
#
# 1 60.0743 -9.7314 4.9466 0.0000 0.0000 0.0000
# 2 -9.7314 179.0370 84.0490 0.0000 0.0000 0.0000
# 3 4.9466 84.0490 167.8603 0.0000 0.0000 0.0000
# 4 0.0000 0.0000 0.0000 -0.8238 0.0000 0.0000
# 5 0.0000 0.0000 0.0000 0.0000 11.7689 0.0000
# 6 0.0000 0.0000 0.0000 0.0000 0.0000 16.0175
#
#
#
# Elastic Compliance Matrix: (Units=1/GPa)
#
#
# Indices 1 2 3 4 5 6 
#
# 1 0.016995 0.001515 -0.001259 0.000000 0.000000 0.000000
# 2 0.001515 0.007437 -0.003768 0.000000 0.000000 0.000000
# 3 -0.001259 -0.003768 0.007881 0.000000 0.000000 0.000000
# 4 0.000000 0.000000 0.000000 -1.213933 0.000000 0.000000
# 5 0.000000 0.000000 0.000000 0.000000 0.084970 0.000000
# 6 0.000000 0.000000 0.000000 0.000000 0.000000 0.062432
#
#
# Mechanical properties :
#
#
# Convention : Reuss Voigt Hill
#
# Bulk Modulus (GPa) = 39.54476 62.83333 51.18904
# Shear Modulus (GPa) = -4.90791 27.23969 11.16589
#
# Velocity S-wave (km/s) = -1.50886 3.55468 2.27586
# Velocity P-wave (km/s) = 3.91257 6.78192 5.53636
#
# Compressibility (1/GPa) = 0.02528780
#
# Stress axis : x y z
#
# Youngs Moduli (GPa) = 58.84025 134.46603 126.88304
#
# Poissons Ratio (x) = -0.20371 0.15979
# Poissons Ratio (y) = -0.08914 0.47814
# Poissons Ratio (z) = 0.07410 0.50671
#
# Static dielectric constant tensor:
#      x y z
#    x 1.881520 0.000000 0.000000 
#    y 0.000000 1.748450 0.000000 
#    z 0.000000 0.000000 1.762580 
# 
# From -- ./inp_files/7557.got.cif
#   From: 2010.05.17/outbox.cif.g08.bks.cpg/sg44_4_cif.got.tgz:7557.got - 2010.06.03 19:37:08.
