data_PCOD9373657
_publ_section_title
;
Structure prediction by ZEFSAII (Michael W. Deem and Ramdas Pophale) SiO2 
 PCOD9373657
Probable space group: I M M 2
;
_chemical_formula_sum "Si O2"
_cell_formula_units_Z 64
_cell_length_a 14.024469
_cell_length_b 8.972593
_cell_length_c 35.342342
_cell_angle_alpha 90.000000
_cell_angle_beta 90.000000
_cell_angle_gamma 90.000000
_cell_volume 4447.333731
_symmetry_space_group_name_H-M "I M M 2"
_symmetry_group_IT_number 44
_symmetry_cell_setting 'orthorhombic'
loop_
_space_group_symop_operation_xyz
x,y,z
-x,-y,z
-x,y,z
x,-y,z
1/2+x,1/2+y,1/2+z
1/2-x,1/2-y,1/2+z
1/2-x,1/2+y,1/2+z
1/2+x,1/2-y,1/2+z
loop_
_atom_site_type_symbol
_atom_site_label
_atom_site_fract_x
_atom_site_fract_y
_atom_site_fract_z
Si Si1 0.113589 0.822786 0.477850
Si Si2 0.390886 0.320389 0.121879
Si Si3 0.612805 0.179189 0.743421
Si Si4 0.384110 0.171089 0.899185
Si Si5 0.883931 0.172079 0.322034
Si Si6 0.709993 0.178035 0.050049
Si Si7 0.293258 0.180275 0.666116
Si Si8 0.389919 0.820238 0.587530
O O1 0.142127 0.764327 0.436337
O O2 0.171228 0.739959 0.510512
O O3 0.000000 0.792808 0.482649
O O4 0.127253 0.000000 0.480580
O O5 0.500000 0.284976 0.131117
O O6 0.383461 0.500000 0.116419
O O7 0.357897 0.242118 0.083288
O O8 0.313748 0.277713 0.153810
O O9 0.500000 0.210369 0.738046
O O10 0.645140 0.252219 0.782685
O O11 0.669253 0.234085 0.706458
O O12 0.622300 0.000000 0.746553
O O13 0.500000 0.171615 0.898040
O O14 0.351352 0.242655 0.859719
O O15 0.353221 0.000000 0.902588
O O16 0.000000 0.176932 0.322364
O O17 0.855293 0.000000 0.323398
O O18 0.814641 0.241003 0.060222
O O19 0.709509 0.000000 0.050522
O O20 0.360274 0.221722 0.630581
O O21 0.296494 0.000000 0.668094
O O22 0.500000 0.783802 0.580416
O O23 0.378275 0.000000 0.584458
#
# Coordination Sequence:
#
# PCOD9373657 Si02
#       8
#     8   8   8   8   8   8   8   8
#     4  10  19  30  44  61  83 112 144 176 208 245
#     4   9  17  30  46  61  80 109 144 180 216 254
#     4   9  15  23  37  56  78 105 136 169 203 241
#     4   9  16  26  40  58  80 106 136 168 203 244
#     4   9  16  25  36  52  77 108 138 165 196 238
#     4  11  21  30  42  62  87 112 140 175 212 251
#     4   8  14  25  42  63  82 103 137 176 211 248
#     4   9  17  31  49  64  81 109 143 177 213 253
#
# _framework density 14.390644999999999
#
# number of rings (size 3 to 8) (size 9 to 14) (size 15 to 20)
#    0.000    2.750    0.000    3.750    0.000    7.250 
#    0.000    2.500    0.000    3.000    0.000    0.000 
#    0.000    1.000    0.000    5.000    0.000    3.375 
#
# Total GULP energy -178275.940412 kJ/mol
# GULP energy per Si atom -5571.123138 kJ/mol
# Density = 1.435789 g / cm^3
# Si number density = 14.390645 Si / 1000 Ang^3
#
#
#
# Elastic Constant Matrix: (Units=GPa)
#
#
# Indices 1 2 3 4 5 6 
#
# 1 73.2104 37.9780 52.0040 0.0000 0.0000 0.0000
# 2 37.9780 56.9759 50.9294 0.0000 0.0000 0.0000
# 3 52.0040 50.9294 134.3496 0.0000 0.0000 0.0000
# 4 0.0000 0.0000 0.0000 22.0420 0.0000 0.0000
# 5 0.0000 0.0000 0.0000 0.0000 18.8344 0.0000
# 6 0.0000 0.0000 0.0000 0.0000 0.0000 10.0276
#
#
#
# Elastic Compliance Matrix: (Units=1/GPa)
#
#
# Indices 1 2 3 4 5 6 
#
# 1 0.022612 -0.010963 -0.004596 0.000000 0.000000 0.000000
# 2 -0.010963 0.031862 -0.007835 0.000000 0.000000 0.000000
# 3 -0.004596 -0.007835 0.012192 0.000000 0.000000 0.000000
# 4 0.000000 0.000000 0.000000 0.045368 0.000000 0.000000
# 5 0.000000 0.000000 0.000000 0.000000 0.053094 0.000000
# 6 0.000000 0.000000 0.000000 0.000000 0.000000 0.099725
#
#
# Mechanical properties :
#
#
# Convention : Reuss Voigt Hill
#
# Bulk Modulus (GPa) = 50.30871 60.70651 55.50761
# Shear Modulus (GPa) = 15.71003 18.42244 17.06623
#
# Velocity S-wave (km/s) = 3.30765 3.58182 3.44746
# Velocity P-wave (km/s) = 7.04433 7.70599 7.38258
#
# Compressibility (1/GPa) = 0.01987727
#
# Stress axis : x y z
#
# Youngs Moduli (GPa) = 44.22522 31.38506 82.01785
#
# Poissons Ratio (x) = 0.34408 0.37699
# Poissons Ratio (y) = 0.48485 0.64259
# Poissons Ratio (z) = 0.20328 0.24589
#
# Static dielectric constant tensor:
#      x y z
#    x 1.459320 0.000000 0.000000 
#    y 0.000000 1.482100 0.000000 
#    z 0.000000 0.000000 1.468780 
# 
# From -- ./inp_files/27511.got.cif
#   From: 2010.05.17/outbox.cif.g08.bks.cpg/sg44_14_cif.got.tgz:27511.got - 2010.06.03 19:37:08.
