data_PCOD9373957
_publ_section_title
;
Structure prediction by ZEFSAII (Michael W. Deem and Ramdas Pophale) SiO2 
 PCOD9373957
Probable space group: I M M 2
;
_chemical_formula_sum "Si O2"
_cell_formula_units_Z 56
_cell_length_a 24.380654
_cell_length_b 9.047807
_cell_length_c 14.031608
_cell_angle_alpha 90.000000
_cell_angle_beta 90.000000
_cell_angle_gamma 90.000000
_cell_volume 3095.252782
_symmetry_space_group_name_H-M "I M M 2"
_symmetry_group_IT_number 44
_symmetry_cell_setting 'orthorhombic'
loop_
_space_group_symop_operation_xyz
x,y,z
-x,-y,z
-x,y,z
x,-y,z
1/2+x,1/2+y,1/2+z
1/2-x,1/2-y,1/2+z
1/2-x,1/2+y,1/2+z
1/2+x,1/2-y,1/2+z
loop_
_atom_site_type_symbol
_atom_site_label
_atom_site_fract_x
_atom_site_fract_y
_atom_site_fract_z
Si Si1 0.335220 0.323575 0.763150
Si Si2 0.063180 0.323942 0.363507
Si Si3 0.937150 0.677909 0.941388
Si Si4 0.123554 0.324644 0.561038
Si Si5 0.435525 0.324258 0.237178
Si Si6 0.166659 0.677208 0.061897
Si Si7 0.276323 0.677215 0.955627
O O1 0.336408 0.500000 0.755991
O O2 0.394084 0.263005 0.798199
O O3 0.321489 0.253178 0.662112
O O4 0.292817 0.281941 0.847681
O O5 0.068713 0.500000 0.345139
O O6 0.081498 0.299040 0.473008
O O7 0.000000 0.282067 0.349195
O O8 0.933893 0.500000 0.929835
O O9 0.924692 0.753199 0.840288
O O10 0.000000 0.714728 0.967993
O O11 0.892155 0.721992 0.019130
O O12 0.128420 0.500000 0.575333
O O13 0.101065 0.248015 0.655423
O O14 0.180817 0.257239 0.525212
O O15 0.500000 0.295971 0.215709
O O16 0.427264 0.500000 0.240532
O O17 0.166043 0.500000 0.075438
O O18 0.214686 0.712267 0.986700
O O19 0.283985 0.500000 0.964308
#
# Coordination Sequence:
#
# PCOD9373957 Si02
#       7
#     8   8   8   8   8   8   8
#     4  10  21  36  54  79 110 140 175 221 268 316
#     4   9  18  33  53  77 106 142 183 223 264 315
#     4   9  19  36  56  78 105 139 181 225 266 313
#     4  10  19  32  53  80 109 142 182 225 268 316
#     4  10  20  33  51  78 112 147 181 220 268 319
#     4  10  21  38  59  80 105 141 180 218 265 319
#     4   9  20  38  55  75 107 142 178 221 267 317
#
# _framework density 18.092222
#
# number of rings (size 3 to 8) (size 9 to 14) (size 15 to 20)
#    0.000    2.429    0.000    1.714    0.000    5.714 
#    0.000    2.857    0.000    0.000    0.000    0.000 
#    0.000    0.000    0.000    0.000    0.000    0.000 
#
# Total GULP energy -156275.730806 kJ/mol
# GULP energy per Si atom -5581.276100 kJ/mol
# Density = 1.805104 g / cm^3
# Si number density = 18.092222 Si / 1000 Ang^3
#
#
#
# Elastic Constant Matrix: (Units=GPa)
#
#
# Indices 1 2 3 4 5 6 
#
# 1 103.0260 39.7187 70.7687 0.0000 0.0000 0.0000
# 2 39.7187 29.1324 42.9779 0.0000 0.0000 0.0000
# 3 70.7687 42.9779 112.0028 0.0000 0.0000 0.0000
# 4 0.0000 0.0000 0.0000 31.3120 0.0000 0.0000
# 5 0.0000 0.0000 0.0000 0.0000 18.2775 0.0000
# 6 0.0000 0.0000 0.0000 0.0000 0.0000 22.7011
#
#
#
# Elastic Compliance Matrix: (Units=1/GPa)
#
#
# Indices 1 2 3 4 5 6 
#
# 1 0.021822 -0.021688 -0.005466 0.000000 0.000000 0.000000
# 2 -0.021688 0.100663 -0.024923 0.000000 0.000000 0.000000
# 3 -0.005466 -0.024923 0.021946 0.000000 0.000000 0.000000
# 4 0.000000 0.000000 0.000000 0.031937 0.000000 0.000000
# 5 0.000000 0.000000 0.000000 0.000000 0.054712 0.000000
# 6 0.000000 0.000000 0.000000 0.000000 0.000000 0.044051
#
#
# Mechanical properties :
#
#
# Convention : Reuss Voigt Hill
#
# Bulk Modulus (GPa) = 24.82836 61.23241 43.03039
# Shear Modulus (GPa) = 12.73202 20.50449 16.61826
#
# Velocity S-wave (km/s) = 2.65567 3.37015 3.03401
# Velocity P-wave (km/s) = 4.81211 7.00443 6.00909
#
# Compressibility (1/GPa) = 0.04027652
#
# Stress axis : x y z
#
# Youngs Moduli (GPa) = 45.82488 9.93411 45.56722
#
# Poissons Ratio (x) = 0.21545 0.24908
# Poissons Ratio (y) = 0.99386 1.13567
# Poissons Ratio (z) = 0.25048 0.24759
#
# Static dielectric constant tensor:
#      x y z
#    x 1.613670 0.000000 0.000000 
#    y 0.000000 1.601820 0.000000 
#    z 0.000000 0.000000 1.593540 
# 
# From -- ./inp_files/16472.got.cif
#   From: 2010.05.17/outbox.cif.g08.bks.cpg/sg44_9_cif.got.tgz:16472.got - 2010.06.03 19:37:08.
