data_PCOD9373362
_publ_section_title
;
Structure prediction by ZEFSAII (Michael W. Deem and Ramdas Pophale) SiO2 
 PCOD9373362
Probable space group: I M M 2
;
_chemical_formula_sum "Si O2"
_cell_formula_units_Z 44
_cell_length_a 15.379613
_cell_length_b 8.258143
_cell_length_c 19.028146
_cell_angle_alpha 90.000000
_cell_angle_beta 90.000000
_cell_angle_gamma 90.000000
_cell_volume 2416.708566
_symmetry_space_group_name_H-M "I M M 2"
_symmetry_group_IT_number 44
_symmetry_cell_setting 'orthorhombic'
loop_
_space_group_symop_operation_xyz
x,y,z
-x,-y,z
-x,y,z
x,-y,z
1/2+x,1/2+y,1/2+z
1/2-x,1/2-y,1/2+z
1/2-x,1/2+y,1/2+z
1/2+x,1/2-y,1/2+z
loop_
_atom_site_type_symbol
_atom_site_label
_atom_site_fract_x
_atom_site_fract_y
_atom_site_fract_z
Si Si1 0.243736 0.825175 0.707930
Si Si2 0.718048 0.500000 0.734083
Si Si3 0.667260 0.678686 0.363854
Si Si4 0.662810 0.183713 0.950715
Si Si5 0.096350 0.500000 0.807554
Si Si6 0.901570 0.000000 0.370236
Si Si7 0.900103 0.189560 0.593731
O O1 0.299672 0.666231 0.694122
O O2 0.222989 0.826624 0.791016
O O3 0.153951 0.805859 0.665445
O O4 0.281276 0.000000 0.688439
O O5 0.821741 0.500000 0.753770
O O6 0.666398 0.500000 0.806752
O O7 0.625133 0.500000 0.369554
O O8 0.737115 0.698473 0.426047
O O9 0.608645 0.836829 0.353581
O O10 0.614144 0.334525 0.913896
O O11 0.634770 0.000000 0.930688
O O12 0.646532 0.208662 0.033206
O O13 0.000000 0.500000 0.775485
O O14 0.000000 0.000000 0.344287
O O15 0.000000 0.240308 0.602322
O O16 0.900099 0.000000 0.571711
#
# Coordination Sequence:
#
# PCOD9373362 Si02
#       7
#     8   4   8   8   4   4   8
#     4   9  18  33  51  71 104 146 182 220 263 320
#     4  10  20  36  54  78 110 143 191 223 274 333
#     4   9  18  34  54  73 105 147 189 227 266 324
#     4  11  21  36  55  77 114 155 191 226 274 338
#     4  10  18  30  52  80 102 132 174 226 275 318
#     4  12  22  36  58  82 114 147 185 241 285 325
#     4  10  21  34  50  80 120 151 180 222 281 343
#
# _framework density 18.206582000000001
#
# number of rings (size 3 to 8) (size 9 to 14) (size 15 to 20)
#    0.000    2.000    4.545    0.545    1.273    4.727 
#    0.000    3.636    0.000    0.000    0.000    1.273 
#    0.000    0.000    0.000    0.000    0.000    0.000 
#
# Total GULP energy -122492.074598 kJ/mol
# GULP energy per Si atom -5567.821573 kJ/mol
# Density = 1.816514 g / cm^3
# Si number density = 18.206582 Si / 1000 Ang^3
#
#
#
# Elastic Constant Matrix: (Units=GPa)
#
#
# Indices 1 2 3 4 5 6 
#
# 1 28.5471 18.7392 7.8649 0.0000 0.0000 0.0000
# 2 18.7392 161.4702 10.4399 0.0000 0.0000 0.0000
# 3 7.8649 10.4399 34.8718 0.0000 0.0000 0.0000
# 4 0.0000 0.0000 0.0000 25.5183 0.0000 0.0000
# 5 0.0000 0.0000 0.0000 0.0000 -1.1930 0.0000
# 6 0.0000 0.0000 0.0000 0.0000 0.0000 3.1471
#
#
#
# Elastic Compliance Matrix: (Units=1/GPa)
#
#
# Indices 1 2 3 4 5 6 
#
# 1 0.039876 -0.004126 -0.007758 0.000000 0.000000 0.000000
# 2 -0.004126 0.006742 -0.001088 0.000000 0.000000 0.000000
# 3 -0.007758 -0.001088 0.030752 0.000000 0.000000 0.000000
# 4 0.000000 0.000000 0.000000 0.039188 0.000000 0.000000
# 5 0.000000 0.000000 0.000000 0.000000 -0.838252 0.000000
# 6 0.000000 0.000000 0.000000 0.000000 0.000000 0.317753
#
#
# Mechanical properties :
#
#
# Convention : Reuss Voigt Hill
#
# Bulk Modulus (GPa) = 19.44562 33.21969 26.33265
# Shear Modulus (GPa) = -13.85598 18.01749 2.08076
#
# Velocity S-wave (km/s) = -2.76169 3.14923 1.07021
# Velocity P-wave (km/s) = 0.73107 5.61330 4.00272
#
# Compressibility (1/GPa) = 0.05142547
#
# Stress axis : x y z
#
# Youngs Moduli (GPa) = 25.07787 148.31776 32.51830
#
# Poissons Ratio (x) = 0.61198 0.25228
# Poissons Ratio (y) = 0.10347 0.03538
# Poissons Ratio (z) = 0.19456 0.16135
#
# Static dielectric constant tensor:
#      x y z
#    x 1.590530 0.000000 0.000000 
#    y 0.000000 1.744550 0.000000 
#    z 0.000000 0.000000 1.609150 
# 
# From -- ./inp_files/20277.got.cif
#   From: 2010.05.17/outbox.cif.g08.bks.cpg/sg44_11_cif.got.tgz:20277.got - 2010.06.03 19:37:08.
