data_PCOD9373757
_publ_section_title
;
Structure prediction by ZEFSAII (Michael W. Deem and Ramdas Pophale) SiO2 
 PCOD9373757
Probable space group: I M M 2
;
_chemical_formula_sum "Si O2"
_cell_formula_units_Z 64
_cell_length_a 19.194667
_cell_length_b 8.847716
_cell_length_c 22.107050
_cell_angle_alpha 90.000000
_cell_angle_beta 90.000000
_cell_angle_gamma 90.000000
_cell_volume 3754.417362
_symmetry_space_group_name_H-M "I M M 2"
_symmetry_group_IT_number 44
_symmetry_cell_setting 'orthorhombic'
loop_
_space_group_symop_operation_xyz
x,y,z
-x,-y,z
-x,y,z
x,-y,z
1/2+x,1/2+y,1/2+z
1/2-x,1/2-y,1/2+z
1/2-x,1/2+y,1/2+z
1/2+x,1/2-y,1/2+z
loop_
_atom_site_type_symbol
_atom_site_label
_atom_site_fract_x
_atom_site_fract_y
_atom_site_fract_z
Si Si1 0.370476 0.680281 0.204240
Si Si2 0.778112 0.319608 0.527296
Si Si3 0.579055 0.668303 0.520408
Si Si4 0.279341 0.179650 0.651395
Si Si5 0.179340 0.675426 0.937061
Si Si6 0.077402 0.176337 0.165869
Si Si7 0.079741 0.317013 0.829983
Si Si8 0.422942 0.182020 0.080206
O O1 0.379038 0.500000 0.207833
O O2 0.288453 0.713297 0.192434
O O3 0.399722 0.757033 0.264216
O O4 0.409625 0.743502 0.145289
O O5 0.773911 0.500000 0.528938
O O6 0.736462 0.257211 0.586265
O O7 0.745672 0.259639 0.465051
O O8 0.858277 0.272996 0.537969
O O9 0.500000 0.674898 0.498455
O O10 0.607579 0.500000 0.505397
O O11 0.622700 0.798790 0.489943
O O12 0.576820 0.680147 0.592587
O O13 0.351563 0.236427 0.680608
O O14 0.282735 0.000000 0.641706
O O15 0.195487 0.500000 0.928574
O O16 0.138410 0.734579 0.878065
O O17 0.000000 0.231274 0.185592
O O18 0.083295 0.000000 0.183502
O O19 0.080650 0.500000 0.830456
O O20 0.000000 0.270345 0.844942
O O21 0.500000 0.221896 0.057826
O O22 0.419809 0.000000 0.087460
#
# Coordination Sequence:
#
# PCOD9373757 Si02
#       8
#     8   8   8   8   8   8   8   8
#     4  10  21  34  50  74 101 128 164 208 250 290
#     4  10  19  31  48  70  97 128 161 198 242 295
#     4   9  17  28  42  62  90 124 160 195 230 273
#     4  10  19  31  47  70  98 127 161 202 247 295
#     4  11  21  32  47  68  96 128 164 204 241 282
#     4   9  17  28  43  66  95 125 159 196 234 282
#     4  10  22  38  52  69  96 132 173 209 242 286
#     4   9  18  33  53  75  99 129 162 198 244 297
#
# _framework density 17.046586999999999
#
# number of rings (size 3 to 8) (size 9 to 14) (size 15 to 20)
#    0.000    2.250    1.250    3.000    0.000    6.000 
#    0.000    1.250    0.000    0.000    0.000    0.875 
#    0.000    3.000    0.000    0.000    0.000    0.125 
#
# Total GULP energy -178318.953087 kJ/mol
# GULP energy per Si atom -5572.467284 kJ/mol
# Density = 1.700779 g / cm^3
# Si number density = 17.046587 Si / 1000 Ang^3
#
#
#
# Elastic Constant Matrix: (Units=GPa)
#
#
# Indices 1 2 3 4 5 6 
#
# 1 144.1057 29.2874 37.6833 0.0000 0.0000 0.0000
# 2 29.2874 25.9026 15.5392 0.0000 0.0000 0.0000
# 3 37.6833 15.5392 61.5324 0.0000 0.0000 0.0000
# 4 0.0000 0.0000 0.0000 18.7952 0.0000 0.0000
# 5 0.0000 0.0000 0.0000 0.0000 19.4450 0.0000
# 6 0.0000 0.0000 0.0000 0.0000 0.0000 24.3039
#
#
#
# Elastic Compliance Matrix: (Units=1/GPa)
#
#
# Indices 1 2 3 4 5 6 
#
# 1 0.009686 -0.008713 -0.003731 0.000000 0.000000 0.000000
# 2 -0.008713 0.053337 -0.008134 0.000000 0.000000 0.000000
# 3 -0.003731 -0.008134 0.020591 0.000000 0.000000 0.000000
# 4 0.000000 0.000000 0.000000 0.053205 0.000000 0.000000
# 5 0.000000 0.000000 0.000000 0.000000 0.051427 0.000000
# 6 0.000000 0.000000 0.000000 0.000000 0.000000 0.041146
#
#
# Mechanical properties :
#
#
# Convention : Reuss Voigt Hill
#
# Bulk Modulus (GPa) = 23.55279 44.06227 33.80753
# Shear Modulus (GPa) = 17.56230 22.44421 20.00325
#
# Velocity S-wave (km/s) = 3.21324 3.63249 3.42928
# Velocity P-wave (km/s) = 5.25483 6.59527 5.96284
#
# Compressibility (1/GPa) = 0.04245781
#
# Stress axis : x y z
#
# Youngs Moduli (GPa) = 103.24268 18.74857 48.56533
#
# Poissons Ratio (x) = 0.16336 0.18122
# Poissons Ratio (y) = 0.89957 0.39501
# Poissons Ratio (z) = 0.38524 0.15249
#
# Static dielectric constant tensor:
#      x y z
#    x 1.637220 0.000000 0.000000 
#    y 0.000000 1.595220 0.000000 
#    z 0.000000 0.000000 1.549180 
# 
# From -- ./inp_files/24474.got.cif
#   From: 2010.05.17/outbox.cif.g08.bks.cpg/sg44_13_cif.got.tgz:24474.got - 2010.06.03 19:37:08.
