data_PCOD9373602
_publ_section_title
;
Structure prediction by ZEFSAII (Michael W. Deem and Ramdas Pophale) SiO2 
 PCOD9373602
Probable space group: I M M 2
;
_chemical_formula_sum "Si O2"
_cell_formula_units_Z 64
_cell_length_a 9.165554
_cell_length_b 13.970326
_cell_length_c 35.186041
_cell_angle_alpha 90.000000
_cell_angle_beta 90.000000
_cell_angle_gamma 90.000000
_cell_volume 4505.423972
_symmetry_space_group_name_H-M "I M M 2"
_symmetry_group_IT_number 44
_symmetry_cell_setting 'orthorhombic'
loop_
_space_group_symop_operation_xyz
x,y,z
-x,-y,z
-x,y,z
x,-y,z
1/2+x,1/2+y,1/2+z
1/2-x,1/2-y,1/2+z
1/2-x,1/2+y,1/2+z
1/2+x,1/2-y,1/2+z
loop_
_atom_site_type_symbol
_atom_site_label
_atom_site_fract_x
_atom_site_fract_y
_atom_site_fract_z
Si Si1 0.174844 0.392122 0.433360
Si Si2 0.673209 0.114634 0.549582
Si Si3 0.167868 0.883596 0.627596
Si Si4 0.325247 0.700635 0.976236
Si Si5 0.174870 0.200586 0.861419
Si Si6 0.326164 0.108699 0.404180
Si Si7 0.674242 0.386331 0.281462
Si Si8 0.668220 0.116547 0.703852
O O1 0.215561 0.500000 0.444516
O O2 0.211137 0.309595 0.463773
O O3 0.250408 0.363359 0.393827
O O4 0.000000 0.388667 0.428037
O O5 0.500000 0.131247 0.549541
O O6 0.743056 0.143179 0.589940
O O7 0.750602 0.168706 0.515106
O O8 0.696529 0.000000 0.544747
O O9 0.244561 0.851275 0.666488
O O10 0.000000 0.852236 0.625505
O O11 0.167535 0.000000 0.628539
O O12 0.500000 0.690782 0.978699
O O13 0.262353 0.636004 0.941966
O O14 0.206760 0.310443 0.872809
O O15 0.220551 0.169659 0.819319
O O16 0.000000 0.186799 0.863633
O O17 0.500000 0.115443 0.412620
O O18 0.294963 0.000000 0.392428
O O19 0.500000 0.374644 0.276240
O O20 0.701018 0.500000 0.287317
O O21 0.755955 0.355041 0.243269
O O22 0.500000 0.146435 0.702268
O O23 0.670784 0.000000 0.703385
#
# Coordination Sequence:
#
# PCOD9373602 Si02
#       8
#     8   8   8   8   8   8   8   8
#     4   9  18  31  44  58  79 106 134 167 207 245
#     4  10  19  29  41  58  82 110 137 166 199 235
#     4   9  16  26  40  57  78 105 135 164 194 231
#     4  10  19  29  42  60  80 104 136 170 202 239
#     4   9  17  28  42  60  80 104 137 172 203 239
#     4   9  17  29  43  58  79 107 136 168 207 245
#     4   9  16  25  37  54  77 104 133 165 198 232
#     4   9  16  25  37  54  77 105 134 161 192 233
#
# _framework density 14.205099000000001
#
# number of rings (size 3 to 8) (size 9 to 14) (size 15 to 20)
#    0.000    2.750    0.000    2.250    0.000    7.250 
#    0.000    1.250    0.000    0.000    0.000    0.000 
#    0.000    1.000    0.000    8.500    0.000    2.375 
#
# Total GULP energy -178282.218447 kJ/mol
# GULP energy per Si atom -5571.319326 kJ/mol
# Density = 1.417277 g / cm^3
# Si number density = 14.205099 Si / 1000 Ang^3
#
#
#
# Elastic Constant Matrix: (Units=GPa)
#
#
# Indices 1 2 3 4 5 6 
#
# 1 64.4957 35.9504 68.7549 0.0000 0.0000 0.0000
# 2 35.9504 62.9176 47.9989 0.0000 0.0000 0.0000
# 3 68.7549 47.9989 149.9986 0.0000 0.0000 0.0000
# 4 0.0000 0.0000 0.0000 18.9839 0.0000 0.0000
# 5 0.0000 0.0000 0.0000 0.0000 27.0396 0.0000
# 6 0.0000 0.0000 0.0000 0.0000 0.0000 13.5948
#
#
#
# Elastic Compliance Matrix: (Units=1/GPa)
#
#
# Indices 1 2 3 4 5 6 
#
# 1 0.034615 -0.010153 -0.012618 0.000000 0.000000 0.000000
# 2 -0.010153 0.024005 -0.003028 0.000000 0.000000 0.000000
# 3 -0.012618 -0.003028 0.013419 0.000000 0.000000 0.000000
# 4 0.000000 0.000000 0.000000 0.052676 0.000000 0.000000
# 5 0.000000 0.000000 0.000000 0.000000 0.036983 0.000000
# 6 0.000000 0.000000 0.000000 0.000000 0.000000 0.073557
#
#
# Mechanical properties :
#
#
# Convention : Reuss Voigt Hill
#
# Bulk Modulus (GPa) = 48.91729 64.75782 56.83756
# Shear Modulus (GPa) = 17.02613 20.23751 18.63182
#
# Velocity S-wave (km/s) = 3.46583 3.77857 3.62557
# Velocity P-wave (km/s) = 7.10824 8.04509 7.59113
#
# Compressibility (1/GPa) = 0.02044267
#
# Stress axis : x y z
#
# Youngs Moduli (GPa) = 28.88908 41.65839 74.52036
#
# Poissons Ratio (x) = 0.42295 0.94028
# Poissons Ratio (y) = 0.29331 0.22562
# Poissons Ratio (z) = 0.36451 0.12613
#
# Static dielectric constant tensor:
#      x y z
#    x 1.474850 0.000000 0.000000 
#    y 0.000000 1.458300 0.000000 
#    z 0.000000 0.000000 1.450640 
# 
# From -- ./inp_files/27300.got.cif
#   From: 2010.05.17/outbox.cif.g08.bks.cpg/sg44_14_cif.got.tgz:27300.got - 2010.06.03 19:37:08.
