data_PCOD9373707
_publ_section_title
;
Structure prediction by ZEFSAII (Michael W. Deem and Ramdas Pophale) SiO2 
 PCOD9373707
Probable space group: I M M 2
;
_chemical_formula_sum "Si O2"
_cell_formula_units_Z 48
_cell_length_a 7.501363
_cell_length_b 14.342572
_cell_length_c 19.435811
_cell_angle_alpha 90.000000
_cell_angle_beta 90.000000
_cell_angle_gamma 90.000000
_cell_volume 2091.076339
_symmetry_space_group_name_H-M "I M M 2"
_symmetry_group_IT_number 44
_symmetry_cell_setting 'orthorhombic'
loop_
_space_group_symop_operation_xyz
x,y,z
-x,-y,z
-x,y,z
x,-y,z
1/2+x,1/2+y,1/2+z
1/2-x,1/2-y,1/2+z
1/2-x,1/2+y,1/2+z
1/2+x,1/2-y,1/2+z
loop_
_atom_site_type_symbol
_atom_site_label
_atom_site_fract_x
_atom_site_fract_y
_atom_site_fract_z
Si Si1 0.713240 0.896745 0.769340
Si Si2 0.293487 0.399164 0.429701
Si Si3 0.788027 0.399011 0.052554
Si Si4 0.696401 0.244342 0.162387
Si Si5 0.718619 0.891801 0.272289
Si Si6 0.781353 0.304592 0.917358
O O1 0.500000 0.880458 0.770434
O O2 0.804732 0.818788 0.724661
O O3 0.784132 0.898503 0.846632
O O4 0.741589 0.000000 0.739773
O O5 0.500000 0.399243 0.451893
O O6 0.215521 0.500000 0.451591
O O7 0.262513 0.191369 0.600390
O O8 0.217584 0.296926 0.443960
O O9 0.717337 0.500000 0.076640
O O10 0.725766 0.377626 0.975332
O O11 0.000000 0.407580 0.049223
O O12 0.500000 0.213563 0.141628
O O13 0.783719 0.156574 0.201452
O O14 0.500000 0.887753 0.271358
O O15 0.775415 0.835139 0.340879
O O16 0.768662 0.000000 0.277598
O O17 0.000000 0.300713 0.915445
#
# Coordination Sequence:
#
# PCOD9373707 Si02
#       6
#     8   8   8   8   8   8
#     4  10  19  30  47  73 105 138 171 210 259 313
#     4   9  16  28  49  78 107 133 170 218 264 310
#     4  10  21  36  55  79 108 144 182 219 264 321
#     4  11  21  34  53  78 106 137 175 222 271 316
#     4   9  17  31  54  81 103 130 176 226 266 311
#     4   9  16  31  54  80 106 136 176 219 262 311
#
# _framework density 22.954687
#
# number of rings (size 3 to 8) (size 9 to 14) (size 15 to 20)
#    0.000    2.333    1.667    2.000    0.000    5.333 
#    0.000    1.667    0.000    3.000    0.000    0.000 
#    0.000    0.000    0.000    0.000    0.000    0.000 
#
# Total GULP energy -133762.436765 kJ/mol
# GULP energy per Si atom -5573.434865 kJ/mol
# Density = 2.290244 g / cm^3
# Si number density = 22.954687 Si / 1000 Ang^3
#
#
#
# Elastic Constant Matrix: (Units=GPa)
#
#
# Indices 1 2 3 4 5 6 
#
# 1 59.6841 9.5812 0.2783 0.0000 0.0000 0.0000
# 2 9.5812 154.3163 39.2605 0.0000 0.0000 0.0000
# 3 0.2783 39.2605 84.7235 0.0000 0.0000 0.0000
# 4 0.0000 0.0000 0.0000 7.7930 0.0000 0.0000
# 5 0.0000 0.0000 0.0000 0.0000 7.7831 0.0000
# 6 0.0000 0.0000 0.0000 0.0000 0.0000 2.0981
#
#
#
# Elastic Compliance Matrix: (Units=1/GPa)
#
#
# Indices 1 2 3 4 5 6 
#
# 1 0.016941 -0.001176 0.000489 0.000000 0.000000 0.000000
# 2 -0.001176 0.007428 -0.003438 0.000000 0.000000 0.000000
# 3 0.000489 -0.003438 0.013395 0.000000 0.000000 0.000000
# 4 0.000000 0.000000 0.000000 0.128320 0.000000 0.000000
# 5 0.000000 0.000000 0.000000 0.000000 0.128484 0.000000
# 6 0.000000 0.000000 0.000000 0.000000 0.000000 0.476615
#
#
# Mechanical properties :
#
#
# Convention : Reuss Voigt Hill
#
# Bulk Modulus (GPa) = 33.88235 44.10711 38.99473
# Shear Modulus (GPa) = 6.33496 20.17510 13.25503
#
# Velocity S-wave (km/s) = 1.66306 2.96786 2.40561
# Velocity P-wave (km/s) = 4.29887 5.56784 4.97399
#
# Compressibility (1/GPa) = 0.02951389
#
# Stress axis : x y z
#
# Youngs Moduli (GPa) = 59.02688 134.62618 74.65606
#
# Poissons Ratio (x) = 0.15837 -0.03654
# Poissons Ratio (y) = 0.06944 0.25668
# Poissons Ratio (z) = -0.02889 0.46288
#
# Static dielectric constant tensor:
#      x y z
#    x 1.876090 0.000000 0.000000 
#    y 0.000000 1.935730 0.000000 
#    z 0.000000 0.000000 1.827250 
# 
# From -- ./inp_files/20325.got.cif
#   From: 2010.05.17/outbox.cif.g08.bks.cpg/sg44_11_cif.got.tgz:20325.got - 2010.06.03 19:37:08.
