data_PCOD9373601
_publ_section_title
;
Structure prediction by ZEFSAII (Michael W. Deem and Ramdas Pophale) SiO2 
 PCOD9373601
Probable space group: I M M 2
;
_chemical_formula_sum "Si O2"
_cell_formula_units_Z 56
_cell_length_a 14.256856
_cell_length_b 7.942796
_cell_length_c 30.474908
_cell_angle_alpha 90.000000
_cell_angle_beta 90.000000
_cell_angle_gamma 90.000000
_cell_volume 3450.957213
_symmetry_space_group_name_H-M "I M M 2"
_symmetry_group_IT_number 44
_symmetry_cell_setting 'orthorhombic'
loop_
_space_group_symop_operation_xyz
x,y,z
-x,-y,z
-x,y,z
x,-y,z
1/2+x,1/2+y,1/2+z
1/2-x,1/2-y,1/2+z
1/2-x,1/2+y,1/2+z
1/2+x,1/2-y,1/2+z
loop_
_atom_site_type_symbol
_atom_site_label
_atom_site_fract_x
_atom_site_fract_y
_atom_site_fract_z
Si Si1 0.291268 0.294531 0.653230
Si Si2 0.105448 0.205593 0.242503
Si Si3 0.208661 0.297722 0.788599
Si Si4 0.892924 0.299868 0.971593
Si Si5 0.106964 0.199756 0.877047
Si Si6 0.107780 0.798219 0.066034
Si Si7 0.605462 0.794170 0.200461
O O1 0.290350 0.500000 0.652312
O O2 0.358893 0.247286 0.693779
O O3 0.331502 0.234491 0.606913
O O4 0.186363 0.240765 0.666543
O O5 0.186524 0.261492 0.276155
O O6 0.000000 0.264726 0.251042
O O7 0.103886 0.000000 0.243424
O O8 0.210553 0.500000 0.786348
O O9 0.168838 0.250682 0.835666
O O10 0.140391 0.241317 0.748950
O O11 0.897161 0.500000 0.973308
O O12 0.852215 0.251299 0.924438
O O13 0.000000 0.229718 0.970851
O O14 0.851846 0.240273 0.017809
O O15 0.000000 0.270756 0.873058
O O16 0.099893 0.000000 0.876870
O O17 0.000000 0.733289 0.068205
O O18 0.102781 0.000000 0.070115
O O19 0.500000 0.736568 0.191490
O O20 0.604636 0.000000 0.200245
#
# Coordination Sequence:
#
# PCOD9373601 Si02
#       7
#     8   8   8   8   8   8   8
#     4   8  13  20  33  55  80 107 136 162 192 229
#     4   8  13  22  37  59  85 109 136 169 198 228
#     4   9  16  25  40  61  82 107 138 168 199 234
#     4   9  17  28  41  57  78 103 129 158 195 240
#     4  10  19  29  41  58  81 107 133 163 200 241
#     4   9  15  23  37  57  80 103 127 158 195 233
#     4   8  13  21  34  55  82 107 133 166 196 223
#
# _framework density 16.227383
#
# number of rings (size 3 to 8) (size 9 to 14) (size 15 to 20)
#    0.000    3.286    0.000    3.429    0.000    4.857 
#    0.000    0.000    0.000    3.857    0.000    1.000 
#    0.000    3.429    0.000    0.000    0.000    0.000 
#
# Total GULP energy -155875.827352 kJ/mol
# GULP energy per Si atom -5566.993834 kJ/mol
# Density = 1.619045 g / cm^3
# Si number density = 16.227383 Si / 1000 Ang^3
#
#
#
# Elastic Constant Matrix: (Units=GPa)
#
#
# Indices 1 2 3 4 5 6 
#
# 1 112.5262 8.9371 76.5504 0.0000 0.0000 0.0000
# 2 8.9371 13.7859 8.1736 0.0000 0.0000 0.0000
# 3 76.5504 8.1736 165.3775 0.0000 0.0000 0.0000
# 4 0.0000 0.0000 0.0000 16.6445 0.0000 0.0000
# 5 0.0000 0.0000 0.0000 0.0000 3.1971 0.0000
# 6 0.0000 0.0000 0.0000 0.0000 0.0000 4.2692
#
#
#
# Elastic Compliance Matrix: (Units=1/GPa)
#
#
# Indices 1 2 3 4 5 6 
#
# 1 0.013314 -0.005128 -0.005909 0.000000 0.000000 0.000000
# 2 -0.005128 0.076702 -0.001417 0.000000 0.000000 0.000000
# 3 -0.005909 -0.001417 0.008852 0.000000 0.000000 0.000000
# 4 0.000000 0.000000 0.000000 0.060080 0.000000 0.000000
# 5 0.000000 0.000000 0.000000 0.000000 0.312783 0.000000
# 6 0.000000 0.000000 0.000000 0.000000 0.000000 0.234233
#
#
# Mechanical properties :
#
#
# Convention : Reuss Voigt Hill
#
# Bulk Modulus (GPa) = 13.52087 53.22354 33.37221
# Shear Modulus (GPa) = 6.61790 18.02408 12.32099
#
# Velocity S-wave (km/s) = 2.02165 3.33636 2.75848
# Velocity P-wave (km/s) = 3.71479 6.90735 5.54577
#
# Compressibility (1/GPa) = 0.07395972
#
# Stress axis : x y z
#
# Youngs Moduli (GPa) = 75.10761 13.03740 112.96590
#
# Poissons Ratio (x) = 0.06685 0.66757
# Poissons Ratio (y) = 0.38512 0.16012
# Poissons Ratio (z) = 0.44385 0.01848
#
# Static dielectric constant tensor:
#      x y z
#    x 1.556630 0.000000 0.000000 
#    y 0.000000 1.583390 0.000000 
#    z 0.000000 0.000000 1.554570 
# 
# From -- ./inp_files/27218.got.cif
#   From: 2010.05.17/outbox.cif.g08.bks.cpg/sg44_14_cif.got.tgz:27218.got - 2010.06.03 19:37:08.
