data_PCOD9373547
_publ_section_title
;
Structure prediction by ZEFSAII (Michael W. Deem and Ramdas Pophale) SiO2 
 PCOD9373547
Probable space group: I M M 2
;
_chemical_formula_sum "Si O2"
_cell_formula_units_Z 48
_cell_length_a 7.611598
_cell_length_b 10.785050
_cell_length_c 28.898009
_cell_angle_alpha 90.000000
_cell_angle_beta 90.000000
_cell_angle_gamma 90.000000
_cell_volume 2372.279895
_symmetry_space_group_name_H-M "I M M 2"
_symmetry_group_IT_number 44
_symmetry_cell_setting 'orthorhombic'
loop_
_space_group_symop_operation_xyz
x,y,z
-x,-y,z
-x,y,z
x,-y,z
1/2+x,1/2+y,1/2+z
1/2-x,1/2-y,1/2+z
1/2-x,1/2+y,1/2+z
1/2+x,1/2-y,1/2+z
loop_
_atom_site_type_symbol
_atom_site_label
_atom_site_fract_x
_atom_site_fract_y
_atom_site_fract_z
Si Si1 0.702328 0.500000 0.652350
Si Si2 0.792942 0.246603 0.198701
Si Si3 0.785670 0.500000 0.048088
Si Si4 0.284326 0.000000 0.655129
Si Si5 0.287828 0.143078 0.295611
Si Si6 0.285885 0.855961 0.399149
Si Si7 0.700832 0.000000 0.048262
Si Si8 0.787580 0.748385 0.994680
O O1 0.500000 0.500000 0.669001
O O2 0.783144 0.374303 0.672882
O O3 0.699095 0.500000 0.596973
O O4 0.720745 0.375854 0.180244
O O5 0.773426 0.226224 0.253323
O O6 0.000000 0.250024 0.187384
O O7 0.733361 0.500000 0.101472
O O8 0.728439 0.626347 0.022908
O O9 0.000000 0.500000 0.046243
O O10 0.500000 0.000000 0.656315
O O11 0.500000 0.143767 0.295512
O O12 0.229084 0.179252 0.347340
O O13 0.231888 0.000000 0.287598
O O14 0.500000 0.854696 0.399052
O O15 0.227614 0.771341 0.441729
O O16 0.235745 0.000000 0.407384
O O17 0.735307 0.876500 0.018560
O O18 0.500000 0.000000 0.062652
O O19 0.000000 0.746486 0.994661
#
# Coordination Sequence:
#
# PCOD9373547 Si02
#       8
#     4   8   4   4   8   8   4   8
#     4  10  20  36  57  76  96 133 187 234 259 300
#     4  10  19  33  53  77 104 133 174 218 256 303
#     4   9  16  30  58  85  99 123 174 227 268 305
#     4   9  18  30  46  73 106 131 155 207 268 303
#     4   9  17  30  51  78 108 136 166 210 262 311
#     4   8  14  28  53  84 106 126 167 220 264 305
#     4  12  26  38  49  74 115 151 176 212 271 334
#     4  10  18  34  60  84 104 133 177 225 266 313
#
# _framework density 20.233699999999999
#
# number of rings (size 3 to 8) (size 9 to 14) (size 15 to 20)
#    0.000    2.500    1.667    2.750    0.000    3.333 
#    0.000    2.500    0.000    5.000    0.000    0.000 
#    0.000    0.000    0.000    0.000    0.000    0.000 
#
# Total GULP energy -133945.541773 kJ/mol
# GULP energy per Si atom -5581.064241 kJ/mol
# Density = 2.018765 g / cm^3
# Si number density = 20.233700 Si / 1000 Ang^3
#
#
#
# Elastic Constant Matrix: (Units=GPa)
#
#
# Indices 1 2 3 4 5 6 
#
# 1 41.1366 7.6802 -9.1869 0.0000 0.0000 0.0000
# 2 7.6802 168.9406 99.1600 0.0000 0.0000 0.0000
# 3 -9.1869 99.1600 153.1138 0.0000 0.0000 0.0000
# 4 0.0000 0.0000 0.0000 -7.2472 0.0000 0.0000
# 5 0.0000 0.0000 0.0000 0.0000 16.8132 0.0000
# 6 0.0000 0.0000 0.0000 0.0000 0.0000 -9.6155
#
#
#
# Elastic Compliance Matrix: (Units=1/GPa)
#
#
# Indices 1 2 3 4 5 6 
#
# 1 0.025766 -0.003353 0.003718 0.000000 0.000000 0.000000
# 2 -0.003353 0.009986 -0.006668 0.000000 0.000000 0.000000
# 3 0.003718 -0.006668 0.011073 0.000000 0.000000 0.000000
# 4 0.000000 0.000000 0.000000 -0.137985 0.000000 0.000000
# 5 0.000000 0.000000 0.000000 0.000000 0.059477 0.000000
# 6 0.000000 0.000000 0.000000 0.000000 0.000000 -0.103999
#
#
# Mechanical properties :
#
#
# Convention : Reuss Voigt Hill
#
# Bulk Modulus (GPa) = 29.22600 62.05530 45.64065
# Shear Modulus (GPa) = -44.77468 17.69262 -13.54103
#
# Velocity S-wave (km/s) = -4.70923 2.96026 -2.58976
# Velocity P-wave (km/s) = 3.88504 6.51306 3.69638
#
# Compressibility (1/GPa) = 0.03421611
#
# Stress axis : x y z
#
# Youngs Moduli (GPa) = 38.81139 100.14497 90.31348
#
# Poissons Ratio (x) = 0.33583 -0.33576
# Poissons Ratio (y) = 0.13015 0.60222
# Poissons Ratio (z) = -0.14429 0.66777
#
# Static dielectric constant tensor:
#      x y z
#    x 1.767570 0.000000 0.000000 
#    y 0.000000 1.698420 0.000000 
#    z 0.000000 0.000000 1.706160 
# 
# From -- ./inp_files/27065.got.cif
#   From: 2010.05.17/outbox.cif.g08.bks.cpg/sg44_14_cif.got.tgz:27065.got - 2010.06.03 19:37:08.
