data_PCOD9373941
_publ_section_title
;
Structure prediction by ZEFSAII (Michael W. Deem and Ramdas Pophale) SiO2 
 PCOD9373941
Probable space group: I M M 2
;
_chemical_formula_sum "Si O2"
_cell_formula_units_Z 48
_cell_length_a 31.852315
_cell_length_b 9.510384
_cell_length_c 8.877478
_cell_angle_alpha 90.000000
_cell_angle_beta 90.000000
_cell_angle_gamma 90.000000
_cell_volume 2689.234409
_symmetry_space_group_name_H-M "I M M 2"
_symmetry_group_IT_number 44
_symmetry_cell_setting 'orthorhombic'
loop_
_space_group_symop_operation_xyz
x,y,z
-x,-y,z
-x,y,z
x,-y,z
1/2+x,1/2+y,1/2+z
1/2-x,1/2-y,1/2+z
1/2-x,1/2+y,1/2+z
1/2+x,1/2-y,1/2+z
loop_
_atom_site_type_symbol
_atom_site_label
_atom_site_fract_x
_atom_site_fract_y
_atom_site_fract_z
Si Si1 0.211355 0.834680 0.566510
Si Si2 0.871397 0.166420 0.023826
Si Si3 0.872953 0.164809 0.384685
Si Si4 0.452741 0.837165 0.524444
Si Si5 0.453730 0.836747 0.890991
Si Si6 0.704379 0.165804 0.371099
O O1 0.170250 0.799646 0.467862
O O2 0.253489 0.818780 0.469588
O O3 0.212554 0.734699 0.709689
O O4 0.208209 0.000000 0.610798
O O5 0.867949 0.185962 0.204944
O O6 0.915812 0.234022 0.974958
O O7 0.869610 0.000000 0.991978
O O8 0.833766 0.250211 0.946805
O O9 0.913122 0.251332 0.441004
O O10 0.881259 0.000000 0.407837
O O11 0.500000 0.800581 0.473488
O O12 0.453463 0.832283 0.707702
O O13 0.444197 0.000000 0.483061
O O14 0.500000 0.784563 0.939082
O O15 0.450176 0.000000 0.934542
O O16 0.694745 0.000000 0.359935
#
# Coordination Sequence:
#
# PCOD9373941 Si02
#       6
#     8   8   8   8   8   8
#     4  10  22  39  56  76 104 134 167 212 260 307
#     4  10  19  32  52  78 109 141 174 214 258 305
#     4   9  18  32  51  76 105 137 172 210 254 303
#     4   8  14  26  45  71 104 139 175 215 256 300
#     4   8  14  25  43  70 103 136 170 209 251 295
#     4  11  23  38  57  79 103 134 172 211 257 313
#
# _framework density 17.848946000000002
#
# number of rings (size 3 to 8) (size 9 to 14) (size 15 to 20)
#    0.000    2.667    0.000    3.000    0.000    4.667 
#    0.000    3.333    0.000    1.000    0.000    4.667 
#    0.000    0.000    0.000    0.000    0.000    0.000 
#
# Total GULP energy -133829.616836 kJ/mol
# GULP energy per Si atom -5576.234035 kJ/mol
# Density = 1.780832 g / cm^3
# Si number density = 17.848946 Si / 1000 Ang^3
#
#
#
# Elastic Constant Matrix: (Units=GPa)
#
#
# Indices 1 2 3 4 5 6 
#
# 1 165.0020 107.6064 49.6727 0.0000 0.0000 0.0000
# 2 107.6064 117.7892 60.1319 0.0000 0.0000 0.0000
# 3 49.6727 60.1319 40.6932 0.0000 0.0000 0.0000
# 4 0.0000 0.0000 0.0000 21.9007 0.0000 0.0000
# 5 0.0000 0.0000 0.0000 0.0000 22.0484 0.0000
# 6 0.0000 0.0000 0.0000 0.0000 0.0000 31.5342
#
#
#
# Elastic Compliance Matrix: (Units=1/GPa)
#
#
# Indices 1 2 3 4 5 6 
#
# 1 0.015642 -0.018493 0.008233 0.000000 0.000000 0.000000
# 2 -0.018493 0.056425 -0.060805 0.000000 0.000000 0.000000
# 3 0.008233 -0.060805 0.104376 0.000000 0.000000 0.000000
# 4 0.000000 0.000000 0.000000 0.045661 0.000000 0.000000
# 5 0.000000 0.000000 0.000000 0.000000 0.045355 0.000000
# 6 0.000000 0.000000 0.000000 0.000000 0.000000 0.031712
#
#
# Mechanical properties :
#
#
# Convention : Reuss Voigt Hill
#
# Bulk Modulus (GPa) = 29.14379 84.25626 56.70003
# Shear Modulus (GPa) = 11.04389 22.16822 16.60606
#
# Velocity S-wave (km/s) = 2.49015 3.52801 3.05350
# Velocity P-wave (km/s) = 4.96299 7.99397 6.65337
#
# Compressibility (1/GPa) = 0.03431262
#
# Stress axis : x y z
#
# Youngs Moduli (GPa) = 63.92948 17.72260 9.58072
#
# Poissons Ratio (x) = 0.32774 -0.07887
# Poissons Ratio (y) = 1.18223 0.58256
# Poissons Ratio (z) = -0.52630 1.07763
#
# Static dielectric constant tensor:
#      x y z
#    x 1.605560 0.000000 0.000000 
#    y 0.000000 1.592590 0.000000 
#    z 0.000000 0.000000 1.607390 
# 
# From -- ./inp_files/4934.got.cif
#   From: 2010.05.17/outbox.cif.g08.bks.cpg/sg44_3_cif.got.tgz:4934.got - 2010.06.03 19:37:08.
