data_PCOD9373199
_publ_section_title
;
Structure prediction by ZEFSAII (Michael W. Deem and Ramdas Pophale) SiO2 
 PCOD9373199
Probable space group: I M M 2
;
_chemical_formula_sum "Si O2"
_cell_formula_units_Z 56
_cell_length_a 22.631793
_cell_length_b 8.729263
_cell_length_c 18.257749
_cell_angle_alpha 90.000000
_cell_angle_beta 90.000000
_cell_angle_gamma 90.000000
_cell_volume 3606.980321
_symmetry_space_group_name_H-M "I M M 2"
_symmetry_group_IT_number 44
_symmetry_cell_setting 'orthorhombic'
loop_
_space_group_symop_operation_xyz
x,y,z
-x,-y,z
-x,y,z
x,-y,z
1/2+x,1/2+y,1/2+z
1/2-x,1/2-y,1/2+z
1/2-x,1/2+y,1/2+z
1/2+x,1/2-y,1/2+z
loop_
_atom_site_type_symbol
_atom_site_label
_atom_site_fract_x
_atom_site_fract_y
_atom_site_fract_z
Si Si1 0.717898 0.317278 0.225580
Si Si2 0.069650 0.182821 0.151371
Si Si3 0.151931 0.682978 0.027407
Si Si4 0.684458 0.682713 0.926252
Si Si5 0.187133 0.816132 0.883693
Si Si6 0.219824 0.318158 0.570705
Si Si7 0.351996 0.183323 0.779497
O O1 0.715110 0.500000 0.212063
O O2 0.679021 0.282233 0.297765
O O3 0.701599 0.228513 0.152374
O O4 0.786231 0.281912 0.247288
O O5 0.101846 0.260565 0.082521
O O6 0.100816 0.246823 0.224166
O O7 0.000000 0.214592 0.151685
O O8 0.078636 0.000000 0.147506
O O9 0.155108 0.500000 0.025585
O O10 0.214763 0.746915 0.057389
O O11 0.144201 0.749509 0.945413
O O12 0.682771 0.500000 0.927638
O O13 0.749829 0.741588 0.903874
O O14 0.644198 0.747818 0.861074
O O15 0.677525 0.749813 0.007695
O O16 0.191628 0.000000 0.891242
O O17 0.223720 0.500000 0.562407
O O18 0.356895 0.000000 0.782742
#
# Coordination Sequence:
#
# PCOD9373199 Si02
#       7
#     8   8   8   8   8   8   8
#     4   9  17  28  43  65  91 120 151 185 226 273
#     4  11  23  36  50  68  89 118 159 199 234 273
#     4  11  20  31  46  63  88 119 153 190 232 276
#     4  10  18  28  43  62  88 118 152 186 224 272
#     4   9  17  29  44  62  87 117 152 188 225 271
#     4  11  19  27  43  65  92 122 155 188 224 270
#     4  10  19  32  48  64  88 118 152 190 232 275
#
# _framework density 15.525451
#
# number of rings (size 3 to 8) (size 9 to 14) (size 15 to 20)
#    0.000    1.857    1.429    7.714    0.000    4.000 
#    0.000    0.000    0.000    0.000    0.000    0.000 
#    0.000    1.143    0.000   10.000    0.000    5.571 
#
# Total GULP energy -156138.649869 kJ/mol
# GULP energy per Si atom -5576.380352 kJ/mol
# Density = 1.549011 g / cm^3
# Si number density = 15.525451 Si / 1000 Ang^3
#
#
#
# Elastic Constant Matrix: (Units=GPa)
#
#
# Indices 1 2 3 4 5 6 
#
# 1 37.9645 34.3927 40.7213 0.0000 0.0000 0.0000
# 2 34.3927 112.7314 78.5821 0.0000 0.0000 0.0000
# 3 40.7213 78.5821 162.7603 0.0000 0.0000 0.0000
# 4 0.0000 0.0000 0.0000 32.2360 0.0000 0.0000
# 5 0.0000 0.0000 0.0000 0.0000 13.1014 0.0000
# 6 0.0000 0.0000 0.0000 0.0000 0.0000 14.8630
#
#
#
# Elastic Compliance Matrix: (Units=1/GPa)
#
#
# Indices 1 2 3 4 5 6 
#
# 1 0.040202 -0.007919 -0.006235 0.000000 0.000000 0.000000
# 2 -0.007919 0.014930 -0.005227 0.000000 0.000000 0.000000
# 3 -0.006235 -0.005227 0.010228 0.000000 0.000000 0.000000
# 4 0.000000 0.000000 0.000000 0.031021 0.000000 0.000000
# 5 0.000000 0.000000 0.000000 0.000000 0.076328 0.000000
# 6 0.000000 0.000000 0.000000 0.000000 0.000000 0.067281
#
#
# Mechanical properties :
#
#
# Convention : Reuss Voigt Hill
#
# Bulk Modulus (GPa) = 37.59694 68.98315 53.29005
# Shear Modulus (GPa) = 17.38415 22.69074 20.03745
#
# Velocity S-wave (km/s) = 3.34985 3.82713 3.59642
# Velocity P-wave (km/s) = 6.26346 8.00362 7.18641
#
# Compressibility (1/GPa) = 0.02659791
#
# Stress axis : x y z
#
# Youngs Moduli (GPa) = 24.87448 66.97756 97.77363
#
# Poissons Ratio (x) = 0.53038 0.60961
# Poissons Ratio (y) = 0.19698 0.51109
# Poissons Ratio (z) = 0.15509 0.35011
#
# Static dielectric constant tensor:
#      x y z
#    x 1.484330 0.000000 0.000000 
#    y 0.000000 1.513990 0.000000 
#    z 0.000000 0.000000 1.571620 
# 
# From -- ./inp_files/22251.got.cif
#   From: 2010.05.17/outbox.cif.g08.bks.cpg/sg44_12_cif.got.tgz:22251.got - 2010.06.03 19:37:08.
