data_PCOD9373293
_publ_section_title
;
Structure prediction by ZEFSAII (Michael W. Deem and Ramdas Pophale) SiO2 
 PCOD9373293
Probable space group: I M M 2
;
_chemical_formula_sum "Si O2"
_cell_formula_units_Z 56
_cell_length_a 7.413268
_cell_length_b 24.082006
_cell_length_c 14.547330
_cell_angle_alpha 90.000000
_cell_angle_beta 90.000000
_cell_angle_gamma 90.000000
_cell_volume 2597.081937
_symmetry_space_group_name_H-M "I M M 2"
_symmetry_group_IT_number 44
_symmetry_cell_setting 'orthorhombic'
loop_
_space_group_symop_operation_xyz
x,y,z
-x,-y,z
-x,y,z
x,-y,z
1/2+x,1/2+y,1/2+z
1/2-x,1/2-y,1/2+z
1/2-x,1/2+y,1/2+z
1/2+x,1/2-y,1/2+z
loop_
_atom_site_type_symbol
_atom_site_label
_atom_site_fract_x
_atom_site_fract_y
_atom_site_fract_z
Si Si1 0.721015 0.000000 0.680411
Si Si2 0.781371 0.719760 0.394499
Si Si3 0.218629 0.719760 0.179870
Si Si4 0.712164 0.110639 0.580095
Si Si5 0.287835 0.889361 0.994273
Si Si6 0.217200 0.155803 0.391367
Si Si7 0.278985 0.000000 0.893957
Si Si8 0.782799 0.155802 0.183002
O O1 0.783755 0.944508 0.628407
O O2 0.500000 0.000000 0.678183
O O3 0.773305 0.000000 0.787184
O O4 0.739456 0.710241 0.287185
O O5 0.712170 0.668363 0.453772
O O6 0.717919 0.781939 0.418131
O O7 0.000000 0.721271 0.402076
O O8 0.287830 0.668363 0.120597
O O9 0.282081 0.781939 0.156238
O O10 0.000000 0.721271 0.172294
O O11 0.500000 0.111533 0.602105
O O12 0.730960 0.113249 0.470545
O O13 0.500000 0.888468 0.972263
O O14 0.269041 0.886751 0.103824
O O15 0.216243 0.944508 0.945961
O O16 0.278494 0.144015 0.287184
O O17 0.000000 0.157575 0.388772
O O18 0.500000 0.000000 0.896184
O O19 0.000000 0.157575 0.185595
#
# Coordination Sequence:
#
# PCOD9373293 Si02
#       8
#     4   8   8   8   8   8   4   8
#     4   9  18  32  50  73  98 122 151 187 228 277
#     4   8  14  26  46  71  96 122 152 186 229 281
#     4   8  14  26  46  71  96 122 152 186 229 281
#     4  10  18  29  49  73  94 120 155 194 231 267
#     4  10  18  29  49  73  94 120 155 194 231 267
#     4   9  18  32  48  67  94 126 156 188 230 279
#     4   9  18  32  50  73  98 122 151 187 228 277
#     4   9  18  32  48  67  94 126 156 188 230 279
#
# _framework density 21.562663000000001
#
# number of rings (size 3 to 8) (size 9 to 14) (size 15 to 20)
#    0.000    3.000    0.000    3.429    0.000    4.000 
#    0.000    1.429    0.000   10.286    0.000    0.000 
#    0.000    0.000    0.000    0.000    0.000    0.000 
#
# Total GULP energy -156299.997381 kJ/mol
# GULP energy per Si atom -5582.142764 kJ/mol
# Density = 2.151359 g / cm^3
# Si number density = 21.562663 Si / 1000 Ang^3
#
#
#
# Elastic Constant Matrix: (Units=GPa)
#
#
# Indices 1 2 3 4 5 6 
#
# 1 68.6600 2.3899 -8.4269 0.0000 0.0000 0.0000
# 2 2.3899 114.6968 114.9257 0.0000 0.0000 0.0000
# 3 -8.4269 114.9257 149.2898 -0.0002 0.0000 0.0000
# 4 0.0000 0.0000 -0.0002 39.9483 0.0000 0.0000
# 5 0.0000 0.0000 0.0000 0.0000 14.9512 0.0000
# 6 0.0000 0.0000 0.0000 0.0000 0.0000 -27.1794
#
#
#
# Elastic Compliance Matrix: (Units=1/GPa)
#
#
# Indices 1 2 3 4 5 6 
#
# 1 0.015342 -0.005193 0.004864 0.000000 0.000000 0.000000
# 2 -0.005193 0.039889 -0.031001 0.000000 0.000000 0.000000
# 3 0.004864 -0.031001 0.030838 0.000000 0.000000 0.000000
# 4 0.000000 0.000000 0.000000 0.025032 0.000000 0.000000
# 5 0.000000 0.000000 0.000000 0.000000 0.066884 0.000000
# 6 0.000000 0.000000 0.000000 0.000000 0.000000 -0.036793
#
#
# Mechanical properties :
#
#
# Convention : Reuss Voigt Hill
#
# Bulk Modulus (GPa) = 42.71807 61.15822 51.93814
# Shear Modulus (GPa) = 23.62323 20.46123 22.04223
#
# Velocity S-wave (km/s) = 3.31352 3.08380 3.20072
# Velocity P-wave (km/s) = 5.87310 6.41126 6.14808
#
# Compressibility (1/GPa) = 0.02340930
#
# Stress axis : x y z
#
# Youngs Moduli (GPa) = 65.17949 25.06939 32.42787
#
# Poissons Ratio (x) = 0.13019 -0.15773
# Poissons Ratio (y) = 0.33850 1.00528
# Poissons Ratio (z) = -0.31703 0.77717
#
# Static dielectric constant tensor:
#      x y z
#    x 1.854530 0.000000 0.000000 
#    y 0.000000 1.769580 0.000000 
#    z 0.000000 0.000000 1.763430 
# 
# From -- ./inp_files/12616.got.cif
#   From: 2010.05.17/outbox.cif.g08.bks.cpg/sg44_7_cif.got.tgz:12616.got - 2010.06.03 19:37:08.
