data_PCOD9373082
_publ_section_title
;
Structure prediction by ZEFSAII (Michael W. Deem and Ramdas Pophale) SiO2 
 PCOD9373082
Probable space group: I M M 2
;
_chemical_formula_sum "Si O2"
_cell_formula_units_Z 64
_cell_length_a 16.846769
_cell_length_b 20.877831
_cell_length_c 9.550448
_cell_angle_alpha 90.000000
_cell_angle_beta 90.000000
_cell_angle_gamma 90.000000
_cell_volume 3359.121735
_symmetry_space_group_name_H-M "I M M 2"
_symmetry_group_IT_number 44
_symmetry_cell_setting 'orthorhombic'
loop_
_space_group_symop_operation_xyz
x,y,z
-x,-y,z
-x,y,z
x,-y,z
1/2+x,1/2+y,1/2+z
1/2-x,1/2-y,1/2+z
1/2-x,1/2+y,1/2+z
1/2+x,1/2-y,1/2+z
loop_
_atom_site_type_symbol
_atom_site_label
_atom_site_fract_x
_atom_site_fract_y
_atom_site_fract_z
Si Si1 0.296127 0.635486 0.401770
Si Si2 0.911458 0.754210 0.243049
Si Si3 0.090284 0.752226 0.786716
Si Si4 0.409774 0.393059 0.620618
Si Si5 0.911252 0.357447 0.017611
Si Si6 0.812145 0.738946 0.516740
Si Si7 0.746499 0.373455 0.095107
Si Si8 0.410196 0.574375 0.943753
O O1 0.354153 0.691484 0.343882
O O2 0.347736 0.589677 0.500514
O O3 0.232501 0.672200 0.497372
O O4 0.258114 0.609300 0.259057
O O5 0.903197 0.816031 0.143860
O O6 0.909604 0.689625 0.153077
O O7 0.847231 0.756020 0.364932
O O8 0.000000 0.759426 0.305937
O O9 0.119509 0.735341 0.631902
O O10 0.000000 0.774896 0.788243
O O11 0.095434 0.690038 0.885052
O O12 0.500000 0.408488 0.579592
O O13 0.396868 0.419941 0.776460
O O14 0.829609 0.397186 0.029626
O O15 0.000000 0.387414 0.013528
O O16 0.755185 0.796186 0.569333
O O17 0.663945 0.394607 0.023196
O O18 0.500000 0.600738 0.971740
O O19 0.411587 0.500000 0.982021
#
# Coordination Sequence:
#
# PCOD9373082 Si02
#       8
#     8   8   8   8   8   8   8   8
#     4  11  21  30  47  78 110 141 179 215 252 319
#     4  10  17  29  46  69 103 145 177 207 251 308
#     4  10  20  30  42  65 107 147 179 213 249 297
#     4  10  19  33  52  70  99 140 179 218 261 313
#     4  10  19  32  48  74 111 145 174 211 257 313
#     4  11  20  28  45  74 111 140 178 214 252 313
#     4  11  21  33  54  76 107 145 177 220 274 313
#     4  10  23  41  60  81 103 132 179 235 282 322
#
# _framework density 19.052600000000002
#
# number of rings (size 3 to 8) (size 9 to 14) (size 15 to 20)
#    0.000    1.625    5.000    0.750    3.500    2.500 
#    0.000    0.625    0.000    1.875    0.000    0.000 
#    0.000    0.000    0.000    0.000    0.000    0.000 
#
# Total GULP energy -178511.164206 kJ/mol
# GULP energy per Si atom -5578.473881 kJ/mol
# Density = 1.900924 g / cm^3
# Si number density = 19.052600 Si / 1000 Ang^3
#
#
#
# Elastic Constant Matrix: (Units=GPa)
#
#
# Indices 1 2 3 4 5 6 
#
# 1 101.9819 7.1108 16.2229 0.0000 0.0000 0.0000
# 2 7.1108 14.3200 -2.8528 0.0000 0.0000 0.0000
# 3 16.2229 -2.8528 61.3634 0.0000 0.0000 0.0000
# 4 0.0000 0.0000 0.0000 1.7654 0.0000 0.0000
# 5 0.0000 0.0000 0.0000 0.0000 35.5597 0.0000
# 6 0.0000 0.0000 0.0000 0.0000 0.0000 8.6851
#
#
#
# Elastic Compliance Matrix: (Units=1/GPa)
#
#
# Indices 1 2 3 4 5 6 
#
# 1 0.010714 -0.005940 -0.003109 0.000000 0.000000 0.000000
# 2 -0.005940 0.073778 0.005000 0.000000 0.000000 0.000000
# 3 -0.003109 0.005000 0.017351 0.000000 0.000000 0.000000
# 4 0.000000 0.000000 0.000000 0.566428 0.000000 0.000000
# 5 0.000000 0.000000 0.000000 0.000000 0.028122 0.000000
# 6 0.000000 0.000000 0.000000 0.000000 0.000000 0.115140
#
#
# Mechanical properties :
#
#
# Convention : Reuss Voigt Hill
#
# Bulk Modulus (GPa) = 10.66702 24.29189 17.47946
# Shear Modulus (GPa) = 5.87628 19.68101 12.77864
#
# Velocity S-wave (km/s) = 1.75811 3.21749 2.59260
# Velocity P-wave (km/s) = 3.11964 5.15564 4.26103
#
# Compressibility (1/GPa) = 0.09374688
#
# Stress axis : x y z
#
# Youngs Moduli (GPa) = 93.33290 13.55417 57.63455
#
# Poissons Ratio (x) = 0.08051 0.17917
# Poissons Ratio (y) = 0.55437 -0.28819
# Poissons Ratio (z) = 0.29015 -0.06778
#
# Static dielectric constant tensor:
#      x y z
#    x 1.730620 0.000000 0.000000 
#    y 0.000000 1.655680 0.000000 
#    z 0.000000 0.000000 1.673180 
# 
# From -- ./inp_files/7561.got.cif
#   From: 2010.05.17/outbox.cif.g08.bks.cpg/sg44_4_cif.got.tgz:7561.got - 2010.06.03 19:37:08.
