data_PCOD9373587
_publ_section_title
;
Structure prediction by ZEFSAII (Michael W. Deem and Ramdas Pophale) SiO2 
 PCOD9373587
Probable space group: I M M 2
;
_chemical_formula_sum "Si O2"
_cell_formula_units_Z 64
_cell_length_a 19.385074
_cell_length_b 8.317111
_cell_length_c 22.120011
_cell_angle_alpha 90.000000
_cell_angle_beta 90.000000
_cell_angle_gamma 90.000000
_cell_volume 3566.360979
_symmetry_space_group_name_H-M "I M M 2"
_symmetry_group_IT_number 44
_symmetry_cell_setting 'orthorhombic'
loop_
_space_group_symop_operation_xyz
x,y,z
-x,-y,z
-x,y,z
x,-y,z
1/2+x,1/2+y,1/2+z
1/2-x,1/2-y,1/2+z
1/2-x,1/2+y,1/2+z
1/2+x,1/2-y,1/2+z
loop_
_atom_site_type_symbol
_atom_site_label
_atom_site_fract_x
_atom_site_fract_y
_atom_site_fract_z
Si Si1 0.822606 0.817165 0.435610
Si Si2 0.627948 0.688354 0.705108
Si Si3 0.726997 0.694111 0.165338
Si Si4 0.075143 0.805614 0.664075
Si Si5 0.078292 0.317104 0.527530
Si Si6 0.922571 0.691208 0.333788
Si Si7 0.279384 0.803414 0.532298
Si Si8 0.424510 0.191832 0.578776
O O1 0.876802 0.807706 0.490763
O O2 0.862528 0.732717 0.381294
O O3 0.755491 0.747391 0.469929
O O4 0.808730 0.000000 0.417210
O O5 0.619591 0.500000 0.694842
O O6 0.708920 0.733120 0.701402
O O7 0.596027 0.735847 0.768941
O O8 0.591625 0.777998 0.649276
O O9 0.732982 0.500000 0.167636
O O10 0.650769 0.740260 0.188924
O O11 0.738419 0.740929 0.094288
O O12 0.075661 0.729698 0.597404
O O13 0.000000 0.761745 0.691977
O O14 0.075932 0.000000 0.658919
O O15 0.104596 0.500000 0.519614
O O16 0.000000 0.314772 0.504464
O O17 0.924684 0.500000 0.327996
O O18 0.000000 0.746292 0.352388
O O19 0.357731 0.747359 0.542520
O O20 0.277937 0.000000 0.530556
O O21 0.500000 0.258111 0.563319
O O22 0.426058 0.000000 0.569554
#
# Coordination Sequence:
#
# PCOD9373587 Si02
#       8
#     8   8   8   8   8   8   8   8
#     4  11  20  32  49  69  96 130 167 207 244 287
#     4  11  22  34  51  75 100 129 168 212 254 298
#     4   9  16  31  50  70  99 133 167 204 250 302
#     4   9  16  27  45  68  94 127 166 203 240 287
#     4  10  19  28  39  60  93 130 165 199 235 280
#     4  11  24  40  54  70  96 132 172 211 253 301
#     4   8  15  28  46  71  98 126 160 197 241 293
#     4   9  17  32  54  76 100 132 165 200 247 301
#
# _framework density 17.945461999999999
#
# number of rings (size 3 to 8) (size 9 to 14) (size 15 to 20)
#    0.000    2.250    1.250    3.750    0.000    5.500 
#    0.000    0.625    0.000    0.000    0.000    0.875 
#    0.000    3.000    0.000    0.000    0.000    0.125 
#
# Total GULP energy -178266.337475 kJ/mol
# GULP energy per Si atom -5570.823046 kJ/mol
# Density = 1.790462 g / cm^3
# Si number density = 17.945462 Si / 1000 Ang^3
#
#
#
# Elastic Constant Matrix: (Units=GPa)
#
#
# Indices 1 2 3 4 5 6 
#
# 1 134.2169 8.1276 22.5712 0.0000 0.0000 0.0000
# 2 8.1276 8.7355 -5.2177 0.0000 0.0000 0.0000
# 3 22.5712 -5.2177 34.7712 0.0000 0.0000 0.0000
# 4 0.0000 0.0000 0.0000 18.1996 0.0000 0.0000
# 5 0.0000 0.0000 0.0000 0.0000 17.5983 0.0000
# 6 0.0000 0.0000 0.0000 0.0000 0.0000 13.5138
#
#
#
# Elastic Compliance Matrix: (Units=1/GPa)
#
#
# Indices 1 2 3 4 5 6 
#
# 1 0.009719 -0.014072 -0.008420 0.000000 0.000000 0.000000
# 2 -0.014072 0.146120 0.031061 0.000000 0.000000 0.000000
# 3 -0.008420 0.031061 0.038886 0.000000 0.000000 0.000000
# 4 0.000000 0.000000 0.000000 0.054946 0.000000 0.000000
# 5 0.000000 0.000000 0.000000 0.000000 0.056824 0.000000
# 6 0.000000 0.000000 0.000000 0.000000 0.000000 0.073998
#
#
# Mechanical properties :
#
#
# Convention : Reuss Voigt Hill
#
# Bulk Modulus (GPa) = 4.72003 25.40954 15.06479
# Shear Modulus (GPa) = 11.52133 20.01184 15.76659
#
# Velocity S-wave (km/s) = 2.53656 3.34301 2.96731
# Velocity P-wave (km/s) = 3.34884 5.39360 4.48919
#
# Compressibility (1/GPa) = 0.21186300
#
# Stress axis : x y z
#
# Youngs Moduli (GPa) = 102.89302 6.84367 25.71593
#
# Poissons Ratio (x) = 0.09630 0.21654
# Poissons Ratio (y) = 1.44791 -0.79876
# Poissons Ratio (z) = 0.86640 -0.21257
#
# Static dielectric constant tensor:
#      x y z
#    x 1.694840 0.000000 0.000000 
#    y 0.000000 1.624660 0.000000 
#    z 0.000000 0.000000 1.584910 
# 
# From -- ./inp_files/24470.got.cif
#   From: 2010.05.17/outbox.cif.g08.bks.cpg/sg44_13_cif.got.tgz:24470.got - 2010.06.03 19:37:08.
