data_PCOD9373178
_publ_section_title
;
Structure prediction by ZEFSAII (Michael W. Deem and Ramdas Pophale) SiO2 
 PCOD9373178
Probable space group: I M M 2
;
_chemical_formula_sum "Si O2"
_cell_formula_units_Z 64
_cell_length_a 9.233192
_cell_length_b 18.717383
_cell_length_c 26.998963
_cell_angle_alpha 90.000000
_cell_angle_beta 90.000000
_cell_angle_gamma 90.000000
_cell_volume 4665.992941
_symmetry_space_group_name_H-M "I M M 2"
_symmetry_group_IT_number 44
_symmetry_cell_setting 'orthorhombic'
loop_
_space_group_symop_operation_xyz
x,y,z
-x,-y,z
-x,y,z
x,-y,z
1/2+x,1/2+y,1/2+z
1/2-x,1/2-y,1/2+z
1/2-x,1/2+y,1/2+z
1/2+x,1/2-y,1/2+z
loop_
_atom_site_type_symbol
_atom_site_label
_atom_site_fract_x
_atom_site_fract_y
_atom_site_fract_z
Si Si1 0.327264 0.831076 0.009670
Si Si2 0.832962 0.294001 0.061195
Si Si3 0.826795 0.083391 0.615000
Si Si4 0.673479 0.584619 0.422661
Si Si5 0.826209 0.829126 0.715180
Si Si6 0.166321 0.204449 0.164325
Si Si7 0.827172 0.417175 0.610953
Si Si8 0.676127 0.418480 0.309374
O O1 0.500000 0.823647 0.005004
O O2 0.254256 0.755303 0.022857
O O3 0.298180 0.882940 0.056892
O O4 0.257848 0.867616 0.961802
O O5 0.756128 0.368221 0.075059
O O6 0.831128 0.249210 0.112740
O O7 0.000000 0.303402 0.046456
O O8 0.796410 0.116786 0.669381
O O9 0.000000 0.089927 0.607376
O O10 0.788017 0.000000 0.613392
O O11 0.500000 0.595275 0.427618
O O12 0.701121 0.500000 0.431044
O O13 0.715798 0.600502 0.365686
O O14 0.749721 0.754630 0.702869
O O15 0.776718 0.865235 0.766277
O O16 0.000000 0.819050 0.716599
O O17 0.245686 0.130876 0.151212
O O18 0.000000 0.193381 0.178434
O O19 0.784691 0.500000 0.611907
O O20 0.000000 0.412043 0.618866
O O21 0.500000 0.419518 0.308135
O O22 0.723696 0.500000 0.299292
#
# Coordination Sequence:
#
# PCOD9373178 Si02
#       8
#     8   8   8   8   8   8   8   8
#     4  10  18  28  42  58  78 105 136 168 202 238
#     4   9  17  28  40  55  77 105 135 165 198 237
#     4   9  16  25  39  60  83 106 134 167 200 234
#     4   9  17  28  41  58  81 107 135 168 202 234
#     4   9  15  25  42  59  77 106 140 168 195 229
#     4   9  17  27  38  55  79 104 130 162 199 237
#     4   9  17  28  41  57  77 102 133 166 197 233
#     4   8  14  25  41  60  80 104 137 172 199 226
#
# _framework density 13.716265999999999
#
# number of rings (size 3 to 8) (size 9 to 14) (size 15 to 20)
#    0.000    3.000    0.000    2.625    0.000    6.250 
#    0.000    0.625    0.000    1.875    0.000    0.000 
#    0.000    1.000    0.000    5.750    0.000    3.750 
#
# Total GULP energy -178206.011012 kJ/mol
# GULP energy per Si atom -5568.937844 kJ/mol
# Density = 1.368505 g / cm^3
# Si number density = 13.716266 Si / 1000 Ang^3
#
#
#
# Elastic Constant Matrix: (Units=GPa)
#
#
# Indices 1 2 3 4 5 6 
#
# 1 48.8159 54.2682 45.0423 0.0000 0.0000 0.0000
# 2 54.2682 111.8038 57.8744 0.0000 0.0000 0.0000
# 3 45.0423 57.8744 87.3327 0.0000 0.0000 0.0000
# 4 0.0000 0.0000 0.0000 27.0923 0.0000 0.0000
# 5 0.0000 0.0000 0.0000 0.0000 16.5951 0.0000
# 6 0.0000 0.0000 0.0000 0.0000 0.0000 18.8549
#
#
#
# Elastic Compliance Matrix: (Units=1/GPa)
#
#
# Indices 1 2 3 4 5 6 
#
# 1 0.057251 -0.019034 -0.016914 0.000000 0.000000 0.000000
# 2 -0.019034 0.019942 -0.003399 0.000000 0.000000 0.000000
# 3 -0.016914 -0.003399 0.022427 0.000000 0.000000 0.000000
# 4 0.000000 0.000000 0.000000 0.036911 0.000000 0.000000
# 5 0.000000 0.000000 0.000000 0.000000 0.060259 0.000000
# 6 0.000000 0.000000 0.000000 0.000000 0.000000 0.053037
#
#
# Mechanical properties :
#
#
# Convention : Reuss Voigt Hill
#
# Bulk Modulus (GPa) = 47.78601 62.48023 55.13312
# Shear Modulus (GPa) = 14.90331 18.55960 16.73146
#
# Velocity S-wave (km/s) = 3.29985 3.68245 3.49639
# Velocity P-wave (km/s) = 7.03088 7.98320 7.52212
#
# Compressibility (1/GPa) = 0.02092663
#
# Stress axis : x y z
#
# Youngs Moduli (GPa) = 17.46683 50.14464 44.58997
#
# Poissons Ratio (x) = 0.95443 0.75421
# Poissons Ratio (y) = 0.33246 0.15156
# Poissons Ratio (z) = 0.29544 0.17044
#
# Static dielectric constant tensor:
#      x y z
#    x 1.457190 0.000000 0.000000 
#    y 0.000000 1.436480 0.000000 
#    z 0.000000 0.000000 1.433110 
# 
# From -- ./inp_files/25214.got.cif
#   From: 2010.05.17/outbox.cif.g08.bks.cpg/sg44_13_cif.got.tgz:25214.got - 2010.06.03 19:37:08.
