data_PCOD9373829
_publ_section_title
;
Structure prediction by ZEFSAII (Michael W. Deem and Ramdas Pophale) SiO2 
 PCOD9373829
Probable space group: I M M 2
;
_chemical_formula_sum "Si O2"
_cell_formula_units_Z 40
_cell_length_a 8.613302
_cell_length_b 13.047784
_cell_length_c 21.311860
_cell_angle_alpha 90.000000
_cell_angle_beta 90.000000
_cell_angle_gamma 90.000000
_cell_volume 2395.122816
_symmetry_space_group_name_H-M "I M M 2"
_symmetry_group_IT_number 44
_symmetry_cell_setting 'orthorhombic'
loop_
_space_group_symop_operation_xyz
x,y,z
-x,-y,z
-x,y,z
x,-y,z
1/2+x,1/2+y,1/2+z
1/2-x,1/2-y,1/2+z
1/2-x,1/2+y,1/2+z
1/2+x,1/2-y,1/2+z
loop_
_atom_site_type_symbol
_atom_site_label
_atom_site_fract_x
_atom_site_fract_y
_atom_site_fract_z
Si Si1 0.813929 0.884956 0.948050
Si Si2 0.311571 0.387798 0.049795
Si Si3 0.687004 0.831997 0.085869
Si Si4 0.315127 0.000000 0.319234
Si Si5 0.686292 0.675634 0.907881
Si Si6 0.684782 0.500000 0.679111
O O1 0.748256 0.791789 0.906833
O O2 0.000000 0.875734 0.952464
O O3 0.776420 0.000000 0.925616
O O4 0.742832 0.871469 0.017747
O O5 0.500000 0.389264 0.051574
O O6 0.255163 0.500000 0.069657
O O7 0.263733 0.287458 0.088306
O O8 0.269443 0.367790 0.976995
O O9 0.500000 0.838242 0.087951
O O10 0.757801 0.901805 0.139708
O O11 0.253301 0.099929 0.355998
O O12 0.254898 0.000000 0.248347
O O13 0.500000 0.000000 0.320218
O O14 0.500000 0.675737 0.904413
O O15 0.500000 0.500000 0.682350
#
# Coordination Sequence:
#
# PCOD9373829 Si02
#       6
#     8   8   8   4   8   4
#     4  10  19  31  50  78 112 143 174 219 270 317
#     4   8  14  27  50  78 106 134 164 206 256 313
#     4  10  19  31  51  77 105 138 178 219 266 321
#     4  12  24  38  56  78 106 138 179 226 269 324
#     4  10  19  33  53  77 107 141 179 216 263 322
#     4  12  24  38  54  72 104 144 181 224 267 318
#
# _framework density 16.700604999999999
#
# number of rings (size 3 to 8) (size 9 to 14) (size 15 to 20)
#    0.000    2.000    2.000    4.800    0.000    1.200 
#    0.000    0.000    0.000    1.200    0.000    2.800 
#    0.000    0.000    0.000    0.000    0.000    0.000 
#
# Total GULP energy -111565.133652 kJ/mol
# GULP energy per Si atom -5578.256683 kJ/mol
# Density = 1.666259 g / cm^3
# Si number density = 16.700605 Si / 1000 Ang^3
#
#
#
# Elastic Constant Matrix: (Units=GPa)
#
#
# Indices 1 2 3 4 5 6 
#
# 1 82.7020 52.7126 31.7867 0.0000 0.0000 0.0000
# 2 52.7126 193.1348 68.7788 0.0000 0.0000 0.0000
# 3 31.7867 68.7788 84.6021 0.0000 0.0000 0.0000
# 4 0.0000 0.0000 0.0000 18.2293 0.0000 0.0000
# 5 0.0000 0.0000 0.0000 0.0000 24.2972 0.0000
# 6 0.0000 0.0000 0.0000 0.0000 0.0000 22.0326
#
#
#
# Elastic Compliance Matrix: (Units=1/GPa)
#
#
# Indices 1 2 3 4 5 6 
#
# 1 0.015268 -0.002990 -0.003306 0.000000 0.000000 0.000000
# 2 -0.002990 0.007873 -0.005277 0.000000 0.000000 0.000000
# 3 -0.003306 -0.005277 0.017352 0.000000 0.000000 0.000000
# 4 0.000000 0.000000 0.000000 0.054857 0.000000 0.000000
# 5 0.000000 0.000000 0.000000 0.000000 0.041157 0.000000
# 6 0.000000 0.000000 0.000000 0.000000 0.000000 0.045387
#
#
# Mechanical properties :
#
#
# Convention : Reuss Voigt Hill
#
# Bulk Modulus (GPa) = 57.64510 74.11056 65.87783
# Shear Modulus (GPa) = 23.71665 26.72255 25.21960
#
# Velocity S-wave (km/s) = 3.77252 4.00446 3.89022
# Velocity P-wave (km/s) = 7.31899 8.11500 7.72725
#
# Compressibility (1/GPa) = 0.01734753
#
# Stress axis : x y z
#
# Youngs Moduli (GPa) = 65.49712 127.01550 57.62924
#
# Poissons Ratio (x) = 0.37975 0.19051
# Poissons Ratio (y) = 0.19582 0.30412
# Poissons Ratio (z) = 0.21652 0.67029
#
# Static dielectric constant tensor:
#      x y z
#    x 1.558050 0.000000 0.000000 
#    y 0.000000 1.602230 0.000000 
#    z 0.000000 0.000000 1.515770 
# 
# From -- ./inp_files/22767.got.cif
#   From: 2010.05.17/outbox.cif.g08.bks.cpg/sg44_12_cif.got.tgz:22767.got - 2010.06.03 19:37:08.
