data_PCOD9373329
_publ_section_title
;
Structure prediction by ZEFSAII (Michael W. Deem and Ramdas Pophale) SiO2 
 PCOD9373329
Probable space group: I M M 2
;
_chemical_formula_sum "Si O2"
_cell_formula_units_Z 64
_cell_length_a 21.331165
_cell_length_b 8.191653
_cell_length_c 20.321962
_cell_angle_alpha 90.000000
_cell_angle_beta 90.000000
_cell_angle_gamma 90.000000
_cell_volume 3551.008871
_symmetry_space_group_name_H-M "I M M 2"
_symmetry_group_IT_number 44
_symmetry_cell_setting 'orthorhombic'
loop_
_space_group_symop_operation_xyz
x,y,z
-x,-y,z
-x,y,z
x,-y,z
1/2+x,1/2+y,1/2+z
1/2-x,1/2-y,1/2+z
1/2-x,1/2+y,1/2+z
1/2+x,1/2-y,1/2+z
loop_
_atom_site_type_symbol
_atom_site_label
_atom_site_fract_x
_atom_site_fract_y
_atom_site_fract_z
Si Si1 0.430472 0.807368 0.799290
Si Si2 0.382319 0.807367 0.520444
Si Si3 0.878506 0.192774 0.164560
Si Si4 0.309896 0.306347 0.878595
Si Si5 0.687737 0.199829 0.296247
Si Si6 0.767367 0.698264 0.658147
Si Si7 0.569209 0.199590 0.380748
Si Si8 0.240440 0.305923 0.513175
O O1 0.500000 0.742675 0.815041
O O2 0.416640 0.778265 0.722142
O O3 0.374171 0.731372 0.841243
O O4 0.429774 0.000000 0.811910
O O5 0.399076 0.725752 0.589796
O O6 0.418596 0.748093 0.455932
O O7 0.308515 0.777326 0.506039
O O8 0.393031 0.000000 0.527819
O O9 0.805468 0.246281 0.167897
O O10 0.880465 0.000000 0.177634
O O11 0.303594 0.500000 0.885301
O O12 0.250575 0.248632 0.834865
O O13 0.302519 0.231919 0.951003
O O14 0.693208 0.254998 0.220689
O O15 0.625953 0.255107 0.334545
O O16 0.687394 0.000000 0.296486
O O17 0.768437 0.500000 0.659575
O O18 0.786064 0.747639 0.584385
O O19 0.500000 0.249372 0.358822
O O20 0.571218 0.000000 0.381220
O O21 0.251949 0.500000 0.516431
#
# Coordination Sequence:
#
# PCOD9373329 Si02
#       8
#     8   8   8   8   8   8   8   8
#     4  11  24  39  54  77 109 142 176 220 273 328
#     4  10  18  30  48  74 108 144 182 219 264 318
#     4  10  19  33  52  75 104 140 181 219 261 314
#     4  11  20  34  57  80 103 137 180 224 270 319
#     4   9  15  28  50  75  99 129 174 220 262 307
#     4   8  15  28  48  73 101 133 167 215 265 307
#     4   9  17  28  45  72 105 138 173 217 264 310
#     4  10  19  31  50  77 107 138 176 220 273 324
#
# _framework density 18.023046999999998
#
# number of rings (size 3 to 8) (size 9 to 14) (size 15 to 20)
#    0.000    2.250    2.500    2.625    0.000    1.500 
#    0.000    1.250    0.000    1.875    0.000    3.500 
#    0.000    0.000    0.000    0.000    0.000    0.000 
#
# Total GULP energy -178510.897663 kJ/mol
# GULP energy per Si atom -5578.465552 kJ/mol
# Density = 1.798203 g / cm^3
# Si number density = 18.023047 Si / 1000 Ang^3
#
#
#
# Elastic Constant Matrix: (Units=GPa)
#
#
# Indices 1 2 3 4 5 6 
#
# 1 101.4073 -2.7525 61.5211 0.0000 0.0000 0.0000
# 2 -2.7525 10.9862 -1.6083 0.0000 0.0000 0.0000
# 3 61.5211 -1.6083 122.7925 0.0000 0.0000 0.0000
# 4 0.0000 0.0000 0.0000 23.1964 0.0000 0.0000
# 5 0.0000 0.0000 0.0000 0.0000 20.9542 0.0000
# 6 0.0000 0.0000 0.0000 0.0000 0.0000 15.2638
#
#
#
# Elastic Compliance Matrix: (Units=1/GPa)
#
#
# Indices 1 2 3 4 5 6 
#
# 1 0.014237 0.002528 -0.007100 0.000000 0.000000 0.000000
# 2 0.002528 0.091647 -0.000066 0.000000 0.000000 0.000000
# 3 -0.007100 -0.000066 0.011700 0.000000 0.000000 0.000000
# 4 0.000000 0.000000 0.000000 0.043110 0.000000 0.000000
# 5 0.000000 0.000000 0.000000 0.000000 0.047723 0.000000
# 6 0.000000 0.000000 0.000000 0.000000 0.000000 0.065514
#
#
# Mechanical properties :
#
#
# Convention : Reuss Voigt Hill
#
# Bulk Modulus (GPa) = 9.23295 38.83409 24.03352
# Shear Modulus (GPa) = 15.65869 23.75126 19.70498
#
# Velocity S-wave (km/s) = 2.95076 3.63413 3.31013
# Velocity P-wave (km/s) = 4.09186 6.26122 5.28896
#
# Compressibility (1/GPa) = 0.10830779
#
# Stress axis : x y z
#
# Youngs Moduli (GPa) = 70.23861 10.91141 85.46895
#
# Poissons Ratio (x) = -0.02758 0.60683
# Poissons Ratio (y) = -0.17753 0.00564
# Poissons Ratio (z) = 0.49869 0.00072
#
# Static dielectric constant tensor:
#      x y z
#    x 1.607490 0.000000 0.000000 
#    y 0.000000 1.629500 0.000000 
#    z 0.000000 0.000000 1.627460 
# 
# From -- ./inp_files/24384.got.cif
#   From: 2010.05.17/outbox.cif.g08.bks.cpg/sg44_13_cif.got.tgz:24384.got - 2010.06.03 19:37:08.
