data_PCOD9373825
_publ_section_title
;
Structure prediction by ZEFSAII (Michael W. Deem and Ramdas Pophale) SiO2 
 PCOD9373825
Probable space group: I M M 2
;
_chemical_formula_sum "Si O2"
_cell_formula_units_Z 56
_cell_length_a 24.665183
_cell_length_b 8.449222
_cell_length_c 14.168545
_cell_angle_alpha 90.000000
_cell_angle_beta 90.000000
_cell_angle_gamma 90.000000
_cell_volume 2952.747545
_symmetry_space_group_name_H-M "I M M 2"
_symmetry_group_IT_number 44
_symmetry_cell_setting 'orthorhombic'
loop_
_space_group_symop_operation_xyz
x,y,z
-x,-y,z
-x,y,z
x,-y,z
1/2+x,1/2+y,1/2+z
1/2-x,1/2-y,1/2+z
1/2-x,1/2+y,1/2+z
1/2+x,1/2-y,1/2+z
loop_
_atom_site_type_symbol
_atom_site_label
_atom_site_fract_x
_atom_site_fract_y
_atom_site_fract_z
Si Si1 0.625877 0.688938 0.603570
Si Si2 0.061991 0.309128 0.279159
Si Si3 0.439446 0.307545 0.419473
Si Si4 0.667237 0.308936 0.312383
Si Si5 0.666420 0.691086 0.099319
Si Si6 0.061407 0.690986 0.496845
Si Si7 0.228109 0.688916 0.992559
O O1 0.631435 0.500000 0.600299
O O2 0.604319 0.741446 0.704802
O O3 0.581416 0.735623 0.524038
O O4 0.682144 0.762766 0.568360
O O5 0.063870 0.500000 0.275338
O O6 0.072059 0.261639 0.387742
O O7 0.000000 0.260475 0.255117
O O8 0.500000 0.249062 0.400529
O O9 0.440820 0.500000 0.415881
O O10 0.392379 0.255663 0.347928
O O11 0.667244 0.500000 0.312853
O O12 0.677576 0.254014 0.206215
O O13 0.709550 0.254815 0.391551
O O14 0.667859 0.500000 0.100114
O O15 0.713780 0.747327 0.029243
O O16 0.607790 0.743502 0.063677
O O17 0.062429 0.500000 0.499636
O O18 0.000000 0.741750 0.521298
O O19 0.229409 0.500000 0.986303
#
# Coordination Sequence:
#
# PCOD9373825 Si02
#       7
#     8   8   8   8   8   8   8
#     4  10  19  31  50  77 108 142 180 222 269 317
#     4   9  18  33  52  76 109 147 182 218 265 317
#     4   8  14  26  46  72 100 129 163 206 256 308
#     4   9  19  36  55  77 105 136 174 220 269 319
#     4  10  22  38  57  81 107 138 177 222 270 318
#     4   9  20  38  57  79 109 143 178 216 261 318
#     4  10  21  37  54  76 108 142 180 224 268 317
#
# _framework density 18.965387
#
# number of rings (size 3 to 8) (size 9 to 14) (size 15 to 20)
#    0.000    2.714    0.000    3.000    0.000    5.143 
#    0.000    7.143    0.000    3.857    0.000    0.000 
#    0.000    0.000    0.000    0.000    0.000    0.000 
#
# Total GULP energy -156191.121435 kJ/mol
# GULP energy per Si atom -5578.254337 kJ/mol
# Density = 1.892222 g / cm^3
# Si number density = 18.965387 Si / 1000 Ang^3
#
#
#
# Elastic Constant Matrix: (Units=GPa)
#
#
# Indices 1 2 3 4 5 6 
#
# 1 127.6146 13.5490 82.3560 0.0000 0.0000 0.0000
# 2 13.5490 5.9887 14.0957 0.0000 0.0000 0.0000
# 3 82.3560 14.0957 117.3160 0.0000 0.0000 0.0000
# 4 0.0000 0.0000 0.0000 24.9993 0.0000 0.0000
# 5 0.0000 0.0000 0.0000 0.0000 18.0876 0.0000
# 6 0.0000 0.0000 0.0000 0.0000 0.0000 21.3626
#
#
#
# Elastic Compliance Matrix: (Units=1/GPa)
#
#
# Indices 1 2 3 4 5 6 
#
# 1 0.014994 -0.012755 -0.008993 0.000000 0.000000 0.000000
# 2 -0.012755 0.243674 -0.020324 0.000000 0.000000 0.000000
# 3 -0.008993 -0.020324 0.017279 0.000000 0.000000 0.000000
# 4 0.000000 0.000000 0.000000 0.040001 0.000000 0.000000
# 5 0.000000 0.000000 0.000000 0.000000 0.055286 0.000000
# 6 0.000000 0.000000 0.000000 0.000000 0.000000 0.046811
#
#
# Mechanical properties :
#
#
# Convention : Reuss Voigt Hill
#
# Bulk Modulus (GPa) = 5.21369 52.32452 28.76910
# Shear Modulus (GPa) = 8.83198 22.28448 15.55823
#
# Velocity S-wave (km/s) = 2.16032 3.43156 2.86728
# Velocity P-wave (km/s) = 2.99628 6.58408 5.11507
#
# Compressibility (1/GPa) = 0.19180282
#
# Stress axis : x y z
#
# Youngs Moduli (GPa) = 66.69248 4.10385 57.87285
#
# Poissons Ratio (x) = 0.05235 0.52047
# Poissons Ratio (y) = 0.85068 1.17619
# Poissons Ratio (z) = 0.59979 0.08340
#
# Static dielectric constant tensor:
#      x y z
#    x 1.652030 0.000000 0.000000 
#    y 0.000000 1.655100 0.000000 
#    z 0.000000 0.000000 1.650720 
# 
# From -- ./inp_files/19182.got.cif
#   From: 2010.05.17/outbox.cif.g08.bks.cpg/sg44_10_cif.got.tgz:19182.got - 2010.06.03 19:37:08.
