data_PCOD9373200
_publ_section_title
;
Structure prediction by ZEFSAII (Michael W. Deem and Ramdas Pophale) SiO2 
 PCOD9373200
Probable space group: I M M 2
;
_chemical_formula_sum "Si O2"
_cell_formula_units_Z 56
_cell_length_a 7.808396
_cell_length_b 19.204640
_cell_length_c 21.626977
_cell_angle_alpha 90.000000
_cell_angle_beta 90.000000
_cell_angle_gamma 90.000000
_cell_volume 3243.125980
_symmetry_space_group_name_H-M "I M M 2"
_symmetry_group_IT_number 44
_symmetry_cell_setting 'orthorhombic'
loop_
_space_group_symop_operation_xyz
x,y,z
-x,-y,z
-x,y,z
x,-y,z
1/2+x,1/2+y,1/2+z
1/2-x,1/2-y,1/2+z
1/2-x,1/2+y,1/2+z
1/2+x,1/2-y,1/2+z
loop_
_atom_site_type_symbol
_atom_site_label
_atom_site_fract_x
_atom_site_fract_y
_atom_site_fract_z
Si Si1 0.705573 0.920900 0.881220
Si Si2 0.305027 0.709154 0.060751
Si Si3 0.210323 0.348029 0.506725
Si Si4 0.295819 0.656411 0.255581
Si Si5 0.803631 0.781557 0.182966
Si Si6 0.293341 0.921441 0.134707
Si Si7 0.289853 0.579432 0.130154
O O1 0.500000 0.924895 0.886969
O O2 0.744046 0.877494 0.819880
O O3 0.771649 0.000000 0.876122
O O4 0.768261 0.883211 0.943436
O O5 0.500000 0.697090 0.040011
O O6 0.228634 0.768411 0.016555
O O7 0.307266 0.748142 0.127568
O O8 0.228732 0.634181 0.078056
O O9 0.260913 0.393042 0.566940
O O10 0.000000 0.346209 0.507067
O O11 0.500000 0.658491 0.252953
O O12 0.229663 0.734396 0.242650
O O13 0.236113 0.609191 0.197269
O O14 0.764328 0.863213 0.183681
O O15 0.000000 0.772324 0.164386
O O16 0.500000 0.922453 0.134718
O O17 0.232167 0.000000 0.145084
O O18 0.500000 0.580850 0.129395
O O19 0.235762 0.500000 0.121763
#
# Coordination Sequence:
#
# PCOD9373200 Si02
#       7
#     8   8   8   8   8   8   8
#     4  10  19  29  42  62  87 115 149 186 220 255
#     4   8  14  26  43  61  83 114 148 177 211 263
#     4   8  14  26  43  62  86 118 152 179 207 253
#     4  10  19  31  44  58  82 116 151 181 214 265
#     4  10  18  28  43  63  87 112 141 181 225 262
#     4   9  16  28  47  68  90 118 149 177 210 259
#     4   8  13  22  39  62  83 103 132 174 218 254
#
# _framework density 17.267289000000002
#
# number of rings (size 3 to 8) (size 9 to 14) (size 15 to 20)
#    0.000    3.000    0.000    4.286    0.000    2.857 
#    0.000    2.857    0.000    7.286    0.000    1.000 
#    0.000    3.429    0.000    0.000    0.000    0.000 
#
# Total GULP energy -155928.005899 kJ/mol
# GULP energy per Si atom -5568.857354 kJ/mol
# Density = 1.722799 g / cm^3
# Si number density = 17.267289 Si / 1000 Ang^3
#
#
#
# Elastic Constant Matrix: (Units=GPa)
#
#
# Indices 1 2 3 4 5 6 
#
# 1 33.5940 9.5557 5.4799 0.0000 0.0000 0.0000
# 2 9.5557 192.8966 77.7060 0.0000 0.0000 0.0000
# 3 5.4799 77.7060 81.1286 0.0000 0.0000 0.0000
# 4 0.0000 0.0000 0.0000 26.7302 0.0000 0.0000
# 5 0.0000 0.0000 0.0000 0.0000 13.3619 0.0000
# 6 0.0000 0.0000 0.0000 0.0000 0.0000 7.5342
#
#
#
# Elastic Compliance Matrix: (Units=1/GPa)
#
#
# Indices 1 2 3 4 5 6 
#
# 1 0.030241 -0.001099 -0.000990 0.000000 0.000000 0.000000
# 2 -0.001099 0.008481 -0.008049 0.000000 0.000000 0.000000
# 3 -0.000990 -0.008049 0.020102 0.000000 0.000000 0.000000
# 4 0.000000 0.000000 0.000000 0.037411 0.000000 0.000000
# 5 0.000000 0.000000 0.000000 0.000000 0.074840 0.000000
# 6 0.000000 0.000000 0.000000 0.000000 0.000000 0.132728
#
#
# Mechanical properties :
#
#
# Convention : Reuss Voigt Hill
#
# Bulk Modulus (GPa) = 25.94119 54.78915 40.36517
# Shear Modulus (GPa) = 14.83993 23.85044 19.34519
#
# Velocity S-wave (km/s) = 2.93477 3.72055 3.35077
# Velocity P-wave (km/s) = 5.15168 7.08912 6.19659
#
# Compressibility (1/GPa) = 0.03854873
#
# Stress axis : x y z
#
# Youngs Moduli (GPa) = 33.06726 117.91050 49.74547
#
# Poissons Ratio (x) = 0.12964 0.04923
# Poissons Ratio (y) = 0.03636 0.40040
# Poissons Ratio (z) = 0.03272 0.94906
#
# Static dielectric constant tensor:
#      x y z
#    x 1.639060 0.000000 0.000000 
#    y 0.000000 1.629930 0.000000 
#    z 0.000000 0.000000 1.559880 
# 
# From -- ./inp_files/23227.got.cif
#   From: 2010.05.17/outbox.cif.g08.bks.cpg/sg44_12_cif.got.tgz:23227.got - 2010.06.03 19:37:08.
