data_PCOD9373622
_publ_section_title
;
Structure prediction by ZEFSAII (Michael W. Deem and Ramdas Pophale) SiO2 
 PCOD9373622
Probable space group: I M M 2
;
_chemical_formula_sum "Si O2"
_cell_formula_units_Z 40
_cell_length_a 7.381242
_cell_length_b 28.627746
_cell_length_c 7.325894
_cell_angle_alpha 90.000000
_cell_angle_beta 90.000000
_cell_angle_gamma 90.000000
_cell_volume 1548.022362
_symmetry_space_group_name_H-M "I M M 2"
_symmetry_group_IT_number 44
_symmetry_cell_setting 'orthorhombic'
loop_
_space_group_symop_operation_xyz
x,y,z
-x,-y,z
-x,y,z
x,-y,z
1/2+x,1/2+y,1/2+z
1/2-x,1/2-y,1/2+z
1/2-x,1/2+y,1/2+z
1/2+x,1/2-y,1/2+z
loop_
_atom_site_type_symbol
_atom_site_label
_atom_site_fract_x
_atom_site_fract_y
_atom_site_fract_z
Si Si1 0.777381 0.599740 0.211760
Si Si2 0.284587 0.000000 0.718218
Si Si3 0.782992 0.601167 0.638709
Si Si4 0.284619 0.000000 0.162047
Si Si5 0.215755 0.200629 0.072795
Si Si6 0.702621 0.196765 0.659570
O O1 0.715927 0.549177 0.144581
O O2 0.724313 0.600689 0.425461
O O3 0.711996 0.646635 0.112879
O O4 0.000000 0.600838 0.204607
O O5 0.266183 0.000000 0.939507
O O6 0.500000 0.000000 0.684111
O O7 0.715443 0.551602 0.719343
O O8 0.744390 0.654674 0.696506
O O9 0.000000 0.597547 0.643769
O O10 0.500000 0.000000 0.204849
O O11 0.306878 0.192708 0.878351
O O12 0.000000 0.203618 0.048776
O O13 0.283122 0.251898 0.131709
O O14 0.500000 0.197596 0.579856
#
# Coordination Sequence:
#
# PCOD9373622 Si02
#       6
#     8   4   8   4   8   8
#     4   7  10  18  33  53  76 100 126 160 201 243
#     4   7   8  12  28  53  74  93 122 158 198 242
#     4   8  13  23  39  58  82 110 138 171 211 253
#     4   7  10  18  35  57  78 105 138 166 202 254
#     4  10  19  29  43  64  87 113 147 182 216 256
#     4   9  18  31  44  60  86 116 144 176 214 259
#
# _framework density 25.839421000000002
#
# number of rings (size 3 to 8) (size 9 to 14) (size 15 to 20)
#    0.000    3.800    0.000    4.200    0.000    1.600 
#    0.000    0.500    0.000    0.000    0.000    1.400 
#    0.000    4.800    0.000    0.000    0.000    1.600 
#
# Total GULP energy -111344.785772 kJ/mol
# GULP energy per Si atom -5567.239289 kJ/mol
# Density = 2.578061 g / cm^3
# Si number density = 25.839421 Si / 1000 Ang^3
#
#
#
# Elastic Constant Matrix: (Units=GPa)
#
#
# Indices 1 2 3 4 5 6 
#
# 1 100.2975 7.4028 -9.7305 0.0006 0.0003 -0.0001
# 2 7.4028 337.4711 -3.7460 0.0024 0.0015 -0.0004
# 3 -9.7305 -3.7460 63.2844 0.0019 0.0010 -0.0002
# 4 0.0006 0.0024 0.0019 7.0494 0.0003 -0.0001
# 5 0.0003 0.0015 0.0010 0.0003 0.7885 0.0001
# 6 -0.0001 -0.0004 -0.0002 -0.0001 0.0001 15.2382
#
#
#
# Elastic Compliance Matrix: (Units=1/GPa)
#
#
# Indices 1 2 3 4 5 6 
#
# 1 0.010135 -0.000205 0.001546 -0.000001 -0.000005 0.000000
# 2 -0.000205 0.002969 0.000144 -0.000001 -0.000006 0.000000
# 3 0.001546 0.000144 0.016048 -0.000004 -0.000021 0.000000
# 4 -0.000001 -0.000001 -0.000004 0.141857 -0.000055 0.000001
# 5 -0.000005 -0.000006 -0.000021 -0.000055 1.268180 -0.000011
# 6 0.000000 0.000000 0.000000 0.000001 -0.000011 0.065624
#
#
# Mechanical properties :
#
#
# Convention : Reuss Voigt Hill
#
# Bulk Modulus (GPa) = 31.12993 54.32286 42.72640
# Shear Modulus (GPa) = 3.30567 38.42367 20.86467
#
# Velocity S-wave (km/s) = 1.13229 3.86037 2.84469
# Velocity P-wave (km/s) = 3.71256 6.39835 5.23077
#
# Compressibility (1/GPa) = 0.03212342
#
# Stress axis : x y z
#
# Youngs Moduli (GPa) = 98.66320 336.77770 62.31313
#
# Poissons Ratio (x) = 0.06910 -0.09635
# Poissons Ratio (y) = 0.02024 -0.00899
# Poissons Ratio (z) = -0.15256 -0.04857
#
# Static dielectric constant tensor:
#      x y z
#    x 1.927120 0.000000 0.000000 
#    y 0.000000 2.212900 0.000000 
#    z 0.000000 0.000000 2.069420 
# 
# From -- ./inp_files/6097.got.cif
#   From: 2010.05.17/outbox.cif.g08.bks.cpg/sg44_4_cif.got.tgz:6097.got - 2010.06.03 19:37:08.
