data_PCOD9373775
_publ_section_title
;
Structure prediction by ZEFSAII (Michael W. Deem and Ramdas Pophale) SiO2 
 PCOD9373775
Probable space group: I M M 2
;
_chemical_formula_sum "Si O2"
_cell_formula_units_Z 64
_cell_length_a 28.669028
_cell_length_b 8.336708
_cell_length_c 15.072826
_cell_angle_alpha 90.000000
_cell_angle_beta 90.000000
_cell_angle_gamma 90.000000
_cell_volume 3602.485527
_symmetry_space_group_name_H-M "I M M 2"
_symmetry_group_IT_number 44
_symmetry_cell_setting 'orthorhombic'
loop_
_space_group_symop_operation_xyz
x,y,z
-x,-y,z
-x,y,z
x,-y,z
1/2+x,1/2+y,1/2+z
1/2-x,1/2-y,1/2+z
1/2-x,1/2+y,1/2+z
1/2+x,1/2-y,1/2+z
loop_
_atom_site_type_symbol
_atom_site_label
_atom_site_fract_x
_atom_site_fract_y
_atom_site_fract_z
Si Si1 0.221269 0.694052 0.304160
Si Si2 0.174766 0.190891 0.011098
Si Si3 0.325484 0.191235 0.313617
Si Si4 0.365631 0.190674 0.686038
Si Si5 0.865027 0.303575 0.631529
Si Si6 0.780447 0.694746 0.508087
Si Si7 0.553429 0.691258 0.810332
Si Si8 0.946889 0.693346 0.504727
O O1 0.225096 0.500000 0.299500
O O2 0.272253 0.765904 0.286962
O O3 0.180804 0.749448 0.238132
O O4 0.208703 0.736593 0.405975
O O5 0.140627 0.264399 0.083629
O O6 0.227930 0.250826 0.028514
O O7 0.174525 0.000000 0.021403
O O8 0.164487 0.232165 0.909009
O O9 0.358515 0.245857 0.233223
O O10 0.328927 0.000000 0.322717
O O11 0.411124 0.258640 0.733910
O O12 0.366854 0.000000 0.695649
O O13 0.864832 0.500000 0.630727
O O14 0.819961 0.249500 0.575203
O O15 0.911107 0.249977 0.579666
O O16 0.779675 0.500000 0.512073
O O17 0.500000 0.747678 0.794994
O O18 0.552757 0.500000 0.816622
O O19 0.568939 0.759205 0.905900
O O20 0.947726 0.500000 0.508276
O O21 0.000000 0.752343 0.516449
#
# Coordination Sequence:
#
# PCOD9373775 Si02
#       8
#     8   8   8   8   8   8   8   8
#     4   9  18  31  47  71 103 133 161 200 249 298
#     4  10  20  34  49  67  97 134 169 208 255 301
#     4  10  19  31  48  70  98 134 174 212 249 294
#     4  11  21  33  53  77  99 128 169 211 251 300
#     4   9  16  27  46  71  97 126 162 204 248 292
#     4   8  14  26  44  66  95 129 158 188 236 295
#     4  10  21  36  53  76 106 134 159 194 245 302
#     4   9  17  31  52  76 101 130 164 202 245 293
#
# _framework density 17.765512000000001
#
# number of rings (size 3 to 8) (size 9 to 14) (size 15 to 20)
#    0.000    2.500    0.000    3.750    0.000    4.750 
#    0.000    1.250    0.000    3.750    0.000    1.750 
#    0.000    0.000    0.000    0.000    0.000    0.000 
#
# Total GULP energy -178540.933961 kJ/mol
# GULP energy per Si atom -5579.404186 kJ/mol
# Density = 1.772508 g / cm^3
# Si number density = 17.765512 Si / 1000 Ang^3
#
#
#
# Elastic Constant Matrix: (Units=GPa)
#
#
# Indices 1 2 3 4 5 6 
#
# 1 75.4128 5.5237 68.0821 0.0000 0.0000 0.0000
# 2 5.5237 12.9430 -0.5427 0.0000 0.0000 0.0000
# 3 68.0821 -0.5427 94.3116 0.0000 0.0000 0.0000
# 4 0.0000 0.0000 0.0000 17.9604 0.0000 0.0000
# 5 0.0000 0.0000 0.0000 0.0000 30.2189 0.0000
# 6 0.0000 0.0000 0.0000 0.0000 0.0000 17.6185
#
#
#
# Elastic Compliance Matrix: (Units=1/GPa)
#
#
# Indices 1 2 3 4 5 6 
#
# 1 0.042443 -0.019403 -0.030751 0.000000 0.000000 0.000000
# 2 -0.019403 0.086150 0.014502 0.000000 0.000000 0.000000
# 3 -0.030751 0.014502 0.032885 0.000000 0.000000 0.000000
# 4 0.000000 0.000000 0.000000 0.055678 0.000000 0.000000
# 5 0.000000 0.000000 0.000000 0.000000 0.033092 0.000000
# 6 0.000000 0.000000 0.000000 0.000000 0.000000 0.056759
#
#
# Mechanical properties :
#
#
# Convention : Reuss Voigt Hill
#
# Bulk Modulus (GPa) = 11.08939 36.53264 23.81102
# Shear Modulus (GPa) = 12.24387 20.46652 16.35520
#
# Velocity S-wave (km/s) = 2.62810 3.39785 3.03746
# Velocity P-wave (km/s) = 3.93254 6.00019 5.07283
#
# Compressibility (1/GPa) = 0.09017625
#
# Stress axis : x y z
#
# Youngs Moduli (GPa) = 23.56106 11.60759 30.40908
#
# Poissons Ratio (x) = 0.22522 0.93510
# Poissons Ratio (y) = 0.45715 -0.44100
# Poissons Ratio (z) = 0.72451 -0.16834
#
# Static dielectric constant tensor:
#      x y z
#    x 1.606800 0.000000 0.000000 
#    y 0.000000 1.610250 0.000000 
#    z 0.000000 0.000000 1.603160 
# 
# From -- ./inp_files/19711.got.cif
#   From: 2010.05.17/outbox.cif.g08.bks.cpg/sg44_10_cif.got.tgz:19711.got - 2010.06.03 19:37:08.
