data_PCOD9373498
_publ_section_title
;
Structure prediction by ZEFSAII (Michael W. Deem and Ramdas Pophale) SiO2 
 PCOD9373498
Probable space group: I M M 2
;
_chemical_formula_sum "Si O2"
_cell_formula_units_Z 64
_cell_length_a 32.040577
_cell_length_b 8.205607
_cell_length_c 12.311374
_cell_angle_alpha 90.000000
_cell_angle_beta 90.000000
_cell_angle_gamma 90.000000
_cell_volume 3236.812675
_symmetry_space_group_name_H-M "I M M 2"
_symmetry_group_IT_number 44
_symmetry_cell_setting 'orthorhombic'
loop_
_space_group_symop_operation_xyz
x,y,z
-x,-y,z
-x,y,z
x,-y,z
1/2+x,1/2+y,1/2+z
1/2-x,1/2-y,1/2+z
1/2-x,1/2+y,1/2+z
1/2+x,1/2-y,1/2+z
loop_
_atom_site_type_symbol
_atom_site_label
_atom_site_fract_x
_atom_site_fract_y
_atom_site_fract_z
Si Si1 0.546010 0.698876 0.789360
Si Si2 0.203946 0.693320 0.822415
Si Si3 0.625631 0.699745 0.931043
Si Si4 0.332793 0.303376 0.548606
Si Si5 0.797523 0.199348 0.281078
Si Si6 0.454643 0.193554 0.311282
Si Si7 0.430178 0.696898 0.547332
Si Si8 0.626272 0.693670 0.178944
O O1 0.500000 0.749122 0.828274
O O2 0.547134 0.500000 0.789418
O O3 0.584886 0.752612 0.862848
O O4 0.551744 0.748952 0.663633
O O5 0.205566 0.500000 0.809910
O O6 0.250584 0.757988 0.801581
O O7 0.168140 0.754609 0.741363
O O8 0.190237 0.735328 0.944099
O O9 0.625209 0.500000 0.930842
O O10 0.667933 0.750313 0.869278
O O11 0.624574 0.757160 0.055388
O O12 0.330973 0.500000 0.544190
O O13 0.312831 0.250333 0.661934
O O14 0.381391 0.258186 0.545636
O O15 0.797295 0.000000 0.283053
O O16 0.500000 0.256923 0.273058
O O17 0.450386 0.233711 0.438851
O O18 0.414725 0.259739 0.247262
O O19 0.454164 0.000000 0.298294
O O20 0.433574 0.500000 0.542119
O O21 0.627026 0.500000 0.172496
#
# Coordination Sequence:
#
# PCOD9373498 Si02
#       8
#     8   8   8   8   8   8   8   8
#     4   9  16  28  51  84 115 141 177 229 283 331
#     4  11  23  37  57  83 115 153 191 232 283 339
#     4   9  18  34  54  79 112 147 184 230 283 333
#     4  10  19  35  60  85 113 148 187 233 283 332
#     4   9  19  36  56  81 115 152 186 231 288 339
#     4  11  24  40  58  81 114 153 188 228 280 337
#     4  10  18  32  58  88 116 144 180 228 280 335
#     4  11  23  38  59  83 112 148 189 239 281 328
#
# _framework density 19.772535999999999
#
# number of rings (size 3 to 8) (size 9 to 14) (size 15 to 20)
#    0.000    2.000    2.500    1.500    1.750    2.000 
#    0.000    1.875    0.000    3.000    0.000    1.750 
#    0.000    0.000    0.000    0.000    0.000    0.000 
#
# Total GULP energy -178687.688775 kJ/mol
# GULP energy per Si atom -5583.990274 kJ/mol
# Density = 1.972753 g / cm^3
# Si number density = 19.772536 Si / 1000 Ang^3
#
#
#
# Elastic Constant Matrix: (Units=GPa)
#
#
# Indices 1 2 3 4 5 6 
#
# 1 201.1512 20.0259 91.7423 0.0000 0.0000 0.0000
# 2 20.0259 6.4905 12.0629 0.0000 0.0000 0.0000
# 3 91.7423 12.0629 156.0762 0.0000 0.0000 0.0000
# 4 0.0000 0.0000 0.0000 -4.8203 0.0000 0.0000
# 5 0.0000 0.0000 0.0000 0.0000 35.6709 0.0000
# 6 0.0000 0.0000 0.0000 0.0000 0.0000 -5.3050
#
#
#
# Elastic Compliance Matrix: (Units=1/GPa)
#
#
# Indices 1 2 3 4 5 6 
#
# 1 0.008538 -0.019870 -0.003483 0.000000 0.000000 0.000000
# 2 -0.019870 0.226157 -0.005799 0.000000 0.000000 0.000000
# 3 -0.003483 -0.005799 0.008903 0.000000 0.000000 0.000000
# 4 0.000000 0.000000 0.000000 -0.207456 0.000000 0.000000
# 5 0.000000 0.000000 0.000000 0.000000 0.028034 0.000000
# 6 0.000000 0.000000 0.000000 0.000000 0.000000 -0.188501
#
#
# Mechanical properties :
#
#
# Convention : Reuss Voigt Hill
#
# Bulk Modulus (GPa) = 5.39687 67.93111 36.66399
# Shear Modulus (GPa) = -1175.09886 21.10158 -576.99864
#
# Velocity S-wave (km/s) = -24.40489 3.27037 -17.10122
# Velocity P-wave (km/s) = 28.13177 6.97792 19.27051
#
# Compressibility (1/GPa) = 0.18529256
#
# Stress axis : x y z
#
# Youngs Moduli (GPa) = 117.12122 4.42170 112.32549
#
# Poissons Ratio (x) = 0.08786 0.39123
# Poissons Ratio (y) = 2.32724 0.65143
# Poissons Ratio (z) = 0.40794 0.02564
#
# Static dielectric constant tensor:
#      x y z
#    x 1.717000 0.000000 0.000000 
#    y 0.000000 1.692070 0.000000 
#    z 0.000000 0.000000 1.672880 
# 
# From -- ./inp_files/11538.got.cif
#   From: 2010.05.17/outbox.cif.g08.bks.cpg/sg44_6_cif.got.tgz:11538.got - 2010.06.03 19:37:08.
