data_PCOD9373631
_publ_section_title
;
Structure prediction by ZEFSAII (Michael W. Deem and Ramdas Pophale) SiO2 
 PCOD9373631
Probable space group: I M M 2
;
_chemical_formula_sum "Si O2"
_cell_formula_units_Z 64
_cell_length_a 7.798490
_cell_length_b 31.564705
_cell_length_c 14.957313
_cell_angle_alpha 90.000000
_cell_angle_beta 90.000000
_cell_angle_gamma 90.000000
_cell_volume 3681.847839
_symmetry_space_group_name_H-M "I M M 2"
_symmetry_group_IT_number 44
_symmetry_cell_setting 'orthorhombic'
loop_
_space_group_symop_operation_xyz
x,y,z
-x,-y,z
-x,y,z
x,-y,z
1/2+x,1/2+y,1/2+z
1/2-x,1/2-y,1/2+z
1/2-x,1/2+y,1/2+z
1/2+x,1/2-y,1/2+z
loop_
_atom_site_type_symbol
_atom_site_label
_atom_site_fract_x
_atom_site_fract_y
_atom_site_fract_z
Si Si1 0.291958 0.791344 0.354620
Si Si2 0.790788 0.271974 0.053884
Si Si3 0.794068 0.295037 0.247646
Si Si4 0.292282 0.047828 0.155188
Si Si5 0.295773 0.547728 0.447571
Si Si6 0.195305 0.370607 0.744779
Si Si7 0.302297 0.674545 0.572686
Si Si8 0.797998 0.635991 0.387655
O O1 0.500000 0.792597 0.353600
O O2 0.232831 0.788197 0.457266
O O3 0.244898 0.749041 0.299095
O O4 0.227173 0.834480 0.308187
O O5 0.729911 0.293617 0.145508
O O6 0.743972 0.222665 0.061543
O O7 0.000000 0.273875 0.052586
O O8 0.733754 0.335231 0.305668
O O9 0.000000 0.297830 0.242423
O O10 0.500000 0.048810 0.158711
O O11 0.225565 0.083528 0.223260
O O12 0.234553 0.000000 0.175008
O O13 0.244304 0.057033 0.052077
O O14 0.500000 0.547325 0.438253
O O15 0.230108 0.500000 0.429261
O O16 0.226484 0.585515 0.386266
O O17 0.194228 0.349140 0.647062
O O18 0.000000 0.377660 0.776106
O O19 0.500000 0.674564 0.603586
O O20 0.291640 0.652248 0.477409
O O21 0.000000 0.644598 0.398051
#
# Coordination Sequence:
#
# PCOD9373631 Si02
#       8
#     8   8   8   8   8   8   8   8
#     4  10  19  31  47  67  91 120 157 195 232 273
#     4   9  18  32  46  63  90 124 158 191 231 270
#     4  10  20  33  47  65  90 122 159 191 227 276
#     4   9  17  29  44  64  93 124 152 186 230 276
#     4  10  20  32  47  68  93 121 154 189 229 280
#     4  10  19  29  44  68  93 122 158 191 228 273
#     4  11  19  28  46  66  92 127 158 189 226 272
#     4  11  21  31  46  68  94 124 158 194 231 274
#
# _framework density 17.382577000000001
#
# number of rings (size 3 to 8) (size 9 to 14) (size 15 to 20)
#    0.000    2.000    3.750    1.125    0.000    1.250 
#    0.000    0.625    0.000    0.000    0.000    0.875 
#    0.000    5.000    0.000    3.375    0.000    3.125 
#
# Total GULP energy -178441.083505 kJ/mol
# GULP energy per Si atom -5576.283860 kJ/mol
# Density = 1.734301 g / cm^3
# Si number density = 17.382577 Si / 1000 Ang^3
#
#
#
# Elastic Constant Matrix: (Units=GPa)
#
#
# Indices 1 2 3 4 5 6 
#
# 1 27.9231 -0.2887 -3.1710 0.0000 0.0000 0.0000
# 2 -0.2887 137.6931 57.3299 0.0000 0.0000 0.0000
# 3 -3.1710 57.3299 104.7387 -0.0001 0.0000 0.0000
# 4 0.0000 0.0000 -0.0001 26.7362 0.0000 0.0000
# 5 0.0000 0.0000 0.0000 0.0000 5.3560 0.0000
# 6 0.0000 0.0000 0.0000 0.0000 0.0000 4.6677
#
#
#
# Elastic Compliance Matrix: (Units=1/GPa)
#
#
# Indices 1 2 3 4 5 6 
#
# 1 0.035962 -0.000489 0.001357 0.000000 0.000000 0.000000
# 2 -0.000489 0.009413 -0.005167 0.000000 0.000000 0.000000
# 3 0.001357 -0.005167 0.012417 0.000000 0.000000 0.000000
# 4 0.000000 0.000000 0.000000 0.037402 0.000000 0.000000
# 5 0.000000 0.000000 0.000000 0.000000 0.186707 0.000000
# 6 0.000000 0.000000 0.000000 0.000000 0.000000 0.214240
#
#
# Mechanical properties :
#
#
# Convention : Reuss Voigt Hill
#
# Bulk Modulus (GPa) = 20.32863 42.01060 31.16961
# Shear Modulus (GPa) = 9.59439 21.78428 15.68934
#
# Velocity S-wave (km/s) = 2.35192 3.54393 3.00757
# Velocity P-wave (km/s) = 4.36985 6.40052 5.48006
#
# Compressibility (1/GPa) = 0.04919170
#
# Stress axis : x y z
#
# Youngs Moduli (GPa) = 27.80738 106.23764 80.53550
#
# Poissons Ratio (x) = 0.05200 -0.10926
# Poissons Ratio (y) = 0.01361 0.41613
# Poissons Ratio (z) = -0.03772 0.54894
#
# Static dielectric constant tensor:
#      x y z
#    x 1.636660 0.000000 0.000000 
#    y 0.000000 1.628620 0.000000 
#    z 0.000000 0.000000 1.580440 
# 
# From -- ./inp_files/17091.got.cif
#   From: 2010.05.17/outbox.cif.g08.bks.cpg/sg44_9_cif.got.tgz:17091.got - 2010.06.03 19:37:08.
