data_PCOD9373259
_publ_section_title
;
Structure prediction by ZEFSAII (Michael W. Deem and Ramdas Pophale) SiO2 
 PCOD9373259
Probable space group: I M M 2
;
_chemical_formula_sum "Si O2"
_cell_formula_units_Z 64
_cell_length_a 16.800869
_cell_length_b 14.685485
_cell_length_c 15.964457
_cell_angle_alpha 90.000000
_cell_angle_beta 90.000000
_cell_angle_gamma 90.000000
_cell_volume 3938.893069
_symmetry_space_group_name_H-M "I M M 2"
_symmetry_group_IT_number 44
_symmetry_cell_setting 'orthorhombic'
loop_
_space_group_symop_operation_xyz
x,y,z
-x,-y,z
-x,y,z
x,-y,z
1/2+x,1/2+y,1/2+z
1/2-x,1/2-y,1/2+z
1/2-x,1/2+y,1/2+z
1/2+x,1/2-y,1/2+z
loop_
_atom_site_type_symbol
_atom_site_label
_atom_site_fract_x
_atom_site_fract_y
_atom_site_fract_z
Si Si1 0.092436 0.599337 0.592490
Si Si2 0.096692 0.104183 0.698514
Si Si3 0.596093 0.275086 0.358908
Si Si4 0.097705 0.211112 0.531402
Si Si5 0.404811 0.604411 0.868556
Si Si6 0.169567 0.890534 0.197853
Si Si7 0.656364 0.893848 0.270108
Si Si8 0.904204 0.892105 0.023056
O O1 0.130684 0.500000 0.577994
O O2 0.126934 0.685960 0.544991
O O3 0.095684 0.616610 0.692269
O O4 0.000000 0.593681 0.568467
O O5 0.119782 0.163094 0.779022
O O6 0.121406 0.151835 0.612074
O O7 0.000000 0.102421 0.698074
O O8 0.124119 0.000000 0.703584
O O9 0.500000 0.264431 0.357391
O O10 0.635523 0.177035 0.342478
O O11 0.616138 0.329559 0.443438
O O12 0.124503 0.165218 0.445395
O O13 0.000000 0.212799 0.531378
O O14 0.500000 0.600690 0.874390
O O15 0.374907 0.500000 0.876819
O O16 0.382047 0.640790 0.777245
O O17 0.259760 0.872572 0.225139
O O18 0.140684 0.859482 0.107006
O O19 0.159475 0.000000 0.193977
O O20 0.656718 0.000000 0.296298
O O21 0.000000 0.886720 0.036665
O O22 0.886817 0.000000 0.007207
#
# Coordination Sequence:
#
# PCOD9373259 Si02
#       8
#     8   8   8   8   8   8   8   8
#     4   9  16  27  43  61  84 116 152 188 221 255
#     4   9  15  23  37  60  91 118 139 173 223 277
#     4  10  18  29  45  69  95 121 156 193 233 282
#     4   9  15  24  39  63  89 113 143 178 218 268
#     4   9  16  27  45  67  90 116 147 184 225 272
#     4   9  18  32  47  66  93 121 154 193 233 275
#     4  10  19  31  45  63  91 123 155 192 231 269
#     4   9  17  31  52  74  95 121 155 197 240 282
#
# _framework density 16.248221000000001
#
# number of rings (size 3 to 8) (size 9 to 14) (size 15 to 20)
#    0.000    2.750    1.250    1.500    0.000    5.250 
#    2.250    0.000    0.000    0.000    0.000    1.750 
#    0.000    4.000    0.000    0.000    0.000    0.000 
#
# Total GULP energy -178160.401252 kJ/mol
# GULP energy per Si atom -5567.512539 kJ/mol
# Density = 1.621124 g / cm^3
# Si number density = 16.248221 Si / 1000 Ang^3
#
#
#
# Elastic Constant Matrix: (Units=GPa)
#
#
# Indices 1 2 3 4 5 6 
#
# 1 14.9210 22.5330 27.7797 0.0000 0.0000 0.0000
# 2 22.5330 110.4946 69.4680 0.0000 0.0000 0.0000
# 3 27.7797 69.4680 139.2643 0.0000 0.0000 0.0000
# 4 0.0000 0.0000 0.0000 15.1343 0.0000 0.0000
# 5 0.0000 0.0000 0.0000 0.0000 7.2749 0.0000
# 6 0.0000 0.0000 0.0000 0.0000 0.0000 9.4790
#
#
#
# Elastic Compliance Matrix: (Units=1/GPa)
#
#
# Indices 1 2 3 4 5 6 
#
# 1 0.119229 -0.013639 -0.016980 0.000000 0.000000 0.000000
# 2 -0.013639 0.014745 -0.004635 0.000000 0.000000 0.000000
# 3 -0.016980 -0.004635 0.012879 0.000000 0.000000 0.000000
# 4 0.000000 0.000000 0.000000 0.066075 0.000000 0.000000
# 5 0.000000 0.000000 0.000000 0.000000 0.137459 0.000000
# 6 0.000000 0.000000 0.000000 0.000000 0.000000 0.105497
#
#
# Mechanical properties :
#
#
# Convention : Reuss Voigt Hill
#
# Bulk Modulus (GPa) = 13.09809 56.02679 34.56244
# Shear Modulus (GPa) = 9.06060 16.03760 12.54910
#
# Velocity S-wave (km/s) = 2.36399 3.14512 2.78211
# Velocity P-wave (km/s) = 3.94082 6.90983 5.62476
#
# Compressibility (1/GPa) = 0.07634701
#
# Stress axis : x y z
#
# Youngs Moduli (GPa) = 8.38723 67.81757 77.64283
#
# Poissons Ratio (x) = 0.92496 1.31835
# Poissons Ratio (y) = 0.11439 0.35985
# Poissons Ratio (z) = 0.14241 0.31431
#
# Static dielectric constant tensor:
#      x y z
#    x 1.636740 0.000000 0.000000 
#    y 0.000000 1.569190 0.000000 
#    z 0.000000 0.000000 1.540880 
# 
# From -- ./inp_files/18600.got.cif
#   From: 2010.05.17/outbox.cif.g08.bks.cpg/sg44_10_cif.got.tgz:18600.got - 2010.06.03 19:37:08.
