data_PCOD9373303
_publ_section_title
;
Structure prediction by ZEFSAII (Michael W. Deem and Ramdas Pophale) SiO2 
 PCOD9373303
Probable space group: I M M 2
;
_chemical_formula_sum "Si O2"
_cell_formula_units_Z 64
_cell_length_a 14.741202
_cell_length_b 8.937091
_cell_length_c 28.985317
_cell_angle_alpha 90.000000
_cell_angle_beta 90.000000
_cell_angle_gamma 90.000000
_cell_volume 3818.626059
_symmetry_space_group_name_H-M "I M M 2"
_symmetry_group_IT_number 44
_symmetry_cell_setting 'orthorhombic'
loop_
_space_group_symop_operation_xyz
x,y,z
-x,-y,z
-x,y,z
x,-y,z
1/2+x,1/2+y,1/2+z
1/2-x,1/2-y,1/2+z
1/2-x,1/2+y,1/2+z
1/2+x,1/2-y,1/2+z
loop_
_atom_site_type_symbol
_atom_site_label
_atom_site_fract_x
_atom_site_fract_y
_atom_site_fract_z
Si Si1 0.894546 0.321515 0.340470
Si Si2 0.396933 0.317919 0.112017
Si Si3 0.604820 0.321466 0.484927
Si Si4 0.774885 0.679196 0.797656
Si Si5 0.226573 0.819355 0.527735
Si Si6 0.106986 0.823128 0.438927
Si Si7 0.893404 0.322414 0.886708
Si Si8 0.105465 0.180315 0.718046
O O1 0.886123 0.500000 0.338290
O O2 0.824797 0.245334 0.305591
O O3 0.872117 0.265263 0.392225
O O4 0.000000 0.280984 0.332010
O O5 0.500000 0.270038 0.100749
O O6 0.397605 0.500000 0.111008
O O7 0.325538 0.268337 0.073711
O O8 0.376671 0.275515 0.164812
O O9 0.500000 0.277368 0.493249
O O10 0.610790 0.500000 0.486065
O O11 0.674919 0.249644 0.520350
O O12 0.629082 0.263268 0.433656
O O13 0.771787 0.500000 0.795427
O O14 0.833270 0.721965 0.843145
O O15 0.826732 0.743734 0.753559
O O16 0.166202 0.778774 0.482922
O O17 0.232695 0.000000 0.528619
O O18 0.000000 0.804005 0.449342
O O19 0.122621 0.000000 0.430061
O O20 0.880481 0.500000 0.894894
O O21 0.000000 0.297495 0.876468
O O22 0.000000 0.218533 0.728384
O O23 0.113261 0.000000 0.721178
#
# Coordination Sequence:
#
# PCOD9373303 Si02
#       8
#     8   8   8   8   8   8   8   8
#     4  10  21  35  49  67  95 131 168 205 242 282
#     4   8  15  30  52  77 102 126 155 192 233 280
#     4  10  21  34  46  64  94 130 164 200 241 281
#     4  11  21  32  50  74  99 128 162 201 244 290
#     4  10  18  29  50  75  96 124 162 199 234 277
#     4   9  17  29  46  71 102 131 158 191 235 286
#     4   9  18  32  48  68  96 128 161 196 234 280
#     4   9  18  33  53  76 102 130 158 192 237 288
#
# _framework density 16.759954
#
# number of rings (size 3 to 8) (size 9 to 14) (size 15 to 20)
#    0.000    2.500    0.000    3.375    0.000    8.250 
#    0.000    1.875    0.000    2.625    0.000    1.750 
#    0.000    0.000    0.000    0.000    0.000    0.000 
#
# Total GULP energy -178560.910126 kJ/mol
# GULP energy per Si atom -5580.028441 kJ/mol
# Density = 1.672181 g / cm^3
# Si number density = 16.759954 Si / 1000 Ang^3
#
#
#
# Elastic Constant Matrix: (Units=GPa)
#
#
# Indices 1 2 3 4 5 6 
#
# 1 114.3850 42.4975 95.0548 0.0000 0.0000 0.0000
# 2 42.4975 24.3747 38.9571 0.0000 0.0000 0.0000
# 3 95.0548 38.9571 114.1457 0.0000 0.0000 0.0000
# 4 0.0000 0.0000 0.0000 21.0390 0.0000 0.0000
# 5 0.0000 0.0000 0.0000 0.0000 33.2858 0.0000
# 6 0.0000 0.0000 0.0000 0.0000 0.0000 21.9473
#
#
#
# Elastic Compliance Matrix: (Units=1/GPa)
#
#
# Indices 1 2 3 4 5 6 
#
# 1 0.038313 -0.034776 -0.020037 0.000000 0.000000 0.000000
# 2 -0.034776 0.121827 -0.012619 0.000000 0.000000 0.000000
# 3 -0.020037 -0.012619 0.029753 0.000000 0.000000 0.000000
# 4 0.000000 0.000000 0.000000 0.047531 0.000000 0.000000
# 5 0.000000 0.000000 0.000000 0.000000 0.030043 0.000000
# 6 0.000000 0.000000 0.000000 0.000000 0.000000 0.045564
#
#
# Mechanical properties :
#
#
# Convention : Reuss Voigt Hill
#
# Bulk Modulus (GPa) = 18.17189 67.32490 42.74840
# Shear Modulus (GPa) = 10.72417 20.34747 15.53582
#
# Velocity S-wave (km/s) = 2.53231 3.48811 3.04791
# Velocity P-wave (km/s) = 4.40637 7.51531 6.16019
#
# Compressibility (1/GPa) = 0.05503004
#
# Stress axis : x y z
#
# Youngs Moduli (GPa) = 26.10072 8.20838 33.61004
#
# Poissons Ratio (x) = 0.28545 0.67343
# Poissons Ratio (y) = 0.90767 0.42413
# Poissons Ratio (z) = 0.52297 0.10358
#
# Static dielectric constant tensor:
#      x y z
#    x 1.574960 0.000000 0.000000 
#    y 0.000000 1.561260 0.000000 
#    z 0.000000 0.000000 1.543120 
# 
# From -- ./inp_files/27524.got.cif
#   From: 2010.05.17/outbox.cif.g08.bks.cpg/sg44_14_cif.got.tgz:27524.got - 2010.06.03 19:37:08.
