data_PCOD9373388
_publ_section_title
;
Structure prediction by ZEFSAII (Michael W. Deem and Ramdas Pophale) SiO2 
 PCOD9373388
Probable space group: I M M 2
;
_chemical_formula_sum "Si O2"
_cell_formula_units_Z 64
_cell_length_a 24.014610
_cell_length_b 8.578749
_cell_length_c 19.621390
_cell_angle_alpha 90.000000
_cell_angle_beta 90.000000
_cell_angle_gamma 90.000000
_cell_volume 4042.306773
_symmetry_space_group_name_H-M "I M M 2"
_symmetry_group_IT_number 44
_symmetry_cell_setting 'orthorhombic'
loop_
_space_group_symop_operation_xyz
x,y,z
-x,-y,z
-x,y,z
x,-y,z
1/2+x,1/2+y,1/2+z
1/2-x,1/2-y,1/2+z
1/2-x,1/2+y,1/2+z
1/2+x,1/2-y,1/2+z
loop_
_atom_site_type_symbol
_atom_site_label
_atom_site_fract_x
_atom_site_fract_y
_atom_site_fract_z
Si Si1 0.232058 0.813744 0.474710
Si Si2 0.746726 0.186130 0.322173
Si Si3 0.165261 0.313669 0.595180
Si Si4 0.064006 0.688393 0.688213
Si Si5 0.621064 0.312813 0.324269
Si Si6 0.936719 0.189912 0.966121
Si Si7 0.730522 0.184374 0.679189
Si Si8 0.336253 0.686674 0.558717
O O1 0.227579 0.770824 0.395480
O O2 0.181659 0.762301 0.523339
O O3 0.287043 0.734322 0.506548
O O4 0.239131 0.000000 0.479426
O O5 0.682244 0.238511 0.322784
O O6 0.775093 0.264173 0.257008
O O7 0.749162 0.000000 0.314537
O O8 0.166815 0.500000 0.588063
O O9 0.106533 0.266551 0.628014
O O10 0.214000 0.263964 0.647789
O O11 0.066596 0.500000 0.694285
O O12 0.086808 0.760489 0.758184
O O13 0.000000 0.733146 0.676245
O O14 0.626864 0.500000 0.324400
O O15 0.589070 0.264576 0.393166
O O16 0.000000 0.244635 0.973794
O O17 0.937502 0.000000 0.966559
O O18 0.894338 0.238383 0.025514
O O19 0.680446 0.237993 0.630400
O O20 0.737770 0.000000 0.674267
O O21 0.336075 0.500000 0.565629
#
# Coordination Sequence:
#
# PCOD9373388 Si02
#       8
#     8   8   8   8   8   8   8   8
#     4  10  20  32  49  70  97 125 158 202 244 290
#     4  11  21  33  49  71  99 131 163 199 247 297
#     4  10  19  32  50  70  96 128 162 200 241 288
#     4  10  21  35  49  68  98 136 171 202 238 284
#     4  11  20  31  48  71  99 132 170 206 237 278
#     4   9  18  31  47  70  99 131 168 204 237 279
#     4  11  21  32  49  71  97 125 160 204 246 292
#     4  10  18  31  50  70  96 129 163 199 242 288
#
# _framework density 15.832545
#
# number of rings (size 3 to 8) (size 9 to 14) (size 15 to 20)
#    0.000    1.750    2.500    4.875    0.000    2.750 
#    0.000    0.000    0.000    3.750    0.000    0.875 
#    0.000    1.000    0.000    0.000    0.000    0.000 
#
# Total GULP energy -178617.573122 kJ/mol
# GULP energy per Si atom -5581.799160 kJ/mol
# Density = 1.579651 g / cm^3
# Si number density = 15.832545 Si / 1000 Ang^3
#
#
#
# Elastic Constant Matrix: (Units=GPa)
#
#
# Indices 1 2 3 4 5 6 
#
# 1 80.0740 2.5195 53.2388 0.0000 0.0000 0.0000
# 2 2.5195 17.2291 11.1974 0.0000 0.0000 0.0000
# 3 53.2388 11.1974 121.3001 0.0000 0.0000 0.0000
# 4 0.0000 0.0000 0.0000 25.3265 0.0000 0.0000
# 5 0.0000 0.0000 0.0000 0.0000 19.4721 0.0000
# 6 0.0000 0.0000 0.0000 0.0000 0.0000 -24.6847
#
#
#
# Elastic Compliance Matrix: (Units=1/GPa)
#
#
# Indices 1 2 3 4 5 6 
#
# 1 0.017745 0.002624 -0.008031 0.000000 0.000000 0.000000
# 2 0.002624 0.062134 -0.006887 0.000000 0.000000 0.000000
# 3 -0.008031 -0.006887 0.012404 0.000000 0.000000 0.000000
# 4 0.000000 0.000000 0.000000 0.039484 0.000000 0.000000
# 5 0.000000 0.000000 0.000000 0.000000 0.051355 0.000000
# 6 0.000000 0.000000 0.000000 0.000000 0.000000 -0.040511
#
#
# Mechanical properties :
#
#
# Convention : Reuss Voigt Hill
#
# Bulk Modulus (GPa) = 14.77195 39.16829 26.97012
# Shear Modulus (GPa) = 26.34831 14.13261 20.24046
#
# Velocity S-wave (km/s) = 4.08387 2.99093 3.57936
# Velocity P-wave (km/s) = 5.62029 6.05973 5.84415
#
# Compressibility (1/GPa) = 0.06769585
#
# Stress axis : x y z
#
# Youngs Moduli (GPa) = 56.35320 16.09428 80.61606
#
# Poissons Ratio (x) = -0.04224 0.64740
# Poissons Ratio (y) = -0.14788 0.55524
# Poissons Ratio (z) = 0.45255 0.11085
#
# Static dielectric constant tensor:
#      x y z
#    x 1.514070 0.000000 0.000000 
#    y 0.000000 1.536590 0.000000 
#    z 0.000000 0.000000 1.532500 
# 
# From -- ./inp_files/24507.got.cif
#   From: 2010.05.17/outbox.cif.g08.bks.cpg/sg44_13_cif.got.tgz:24507.got - 2010.06.03 19:37:08.
