data_PCOD9373882
_publ_section_title
;
Structure prediction by ZEFSAII (Michael W. Deem and Ramdas Pophale) SiO2 
 PCOD9373882
Probable space group: I M M 2
;
_chemical_formula_sum "Si O2"
_cell_formula_units_Z 42
_cell_length_a 10.579812
_cell_length_b 7.382006
_cell_length_c 23.683498
_cell_angle_alpha 90.000000
_cell_angle_beta 90.000000
_cell_angle_gamma 90.000000
_cell_volume 1849.686775
_symmetry_space_group_name_H-M "I M M 2"
_symmetry_group_IT_number 44
_symmetry_cell_setting 'orthorhombic'
loop_
_space_group_symop_operation_xyz
x,y,z
-x,-y,z
-x,y,z
x,-y,z
1/2+x,1/2+y,1/2+z
1/2-x,1/2-y,1/2+z
1/2-x,1/2+y,1/2+z
1/2+x,1/2-y,1/2+z
loop_
_atom_site_type_symbol
_atom_site_label
_atom_site_fract_x
_atom_site_fract_y
_atom_site_fract_z
Si Si1 0.000000 0.221430 0.375000
Si Si2 0.500000 0.220951 0.536056
Si Si3 0.730685 0.277478 0.084700
Si Si4 0.000000 0.500000 0.207962
Si Si5 0.500000 0.777493 0.405241
Si Si6 0.500000 0.720152 0.005780
Si Si7 0.735247 0.301624 0.208018
Si Si8 0.234309 0.708513 0.833543
O O1 0.872853 0.288437 0.344900
O O2 0.000000 0.274909 0.440573
O O3 0.000000 0.000000 0.372111
O O4 0.629452 0.278969 0.565667
O O5 0.500000 0.273980 0.470560
O O6 0.500000 0.000000 0.538578
O O7 0.732158 0.500000 0.086676
O O8 0.624864 0.223386 0.039735
O O9 0.701346 0.215682 0.148219
O O10 0.113935 0.654479 0.206368
O O11 0.376269 0.713321 0.371939
O O12 0.500000 0.000000 0.403946
O O13 0.500000 0.500000 0.005491
O O14 0.672045 0.500000 0.210022
O O15 0.704600 0.212780 0.267408
O O16 0.243470 0.500000 0.851582
#
# Coordination Sequence:
#
# PCOD9373882 Si02
#       8
#     4   4   8   2   4   4   8   8
#     4   9  17  28  45  67  96 126 157 200 241 279
#     4   9  15  25  44  66  88 123 159 189 236 282
#     4   9  16  25  42  65  93 121 153 192 240 285
#     4   8  16  30  48  64 102 118 160 190 244 266
#     4   9  18  30  45  69 102 129 159 196 241 289
#     4   9  16  26  39  65  97 121 146 195 248 282
#     4   9  18  30  48  72  97 127 157 201 238 284
#     4  10  19  32  49  72  99 130 161 197 237 285
#
# _framework density 22.706548999999999
#
# number of rings (size 3 to 8) (size 9 to 14) (size 15 to 20)
#    0.571    2.286    0.000    2.286    1.333    5.333 
#    0.000    1.429    0.000    0.000    0.000    8.000 
#    0.000    0.000    0.000    0.000    0.000    0.000 
#
# Total GULP energy -116936.425072 kJ/mol
# GULP energy per Si atom -5568.401194 kJ/mol
# Density = 2.265487 g / cm^3
# Si number density = 22.706549 Si / 1000 Ang^3
#
#
#
# Elastic Constant Matrix: (Units=GPa)
#
#
# Indices 1 2 3 4 5 6 
#
# 1 105.7895 6.1031 61.3589 0.0000 0.0000 0.0000
# 2 6.1031 71.3272 -3.9784 0.0000 0.0000 0.0000
# 3 61.3589 -3.9784 166.2506 0.0000 0.0000 0.0000
# 4 0.0000 0.0000 0.0000 12.1374 0.0000 0.0000
# 5 0.0000 0.0000 0.0000 0.0000 -129.6097 0.0000
# 6 0.0000 0.0000 0.0000 0.0000 0.0000 -11.0850
#
#
#
# Elastic Compliance Matrix: (Units=1/GPa)
#
#
# Indices 1 2 3 4 5 6 
#
# 1 0.012145 -0.001291 -0.004513 0.000000 0.000000 0.000000
# 2 -0.001291 0.014176 0.000816 0.000000 0.000000 0.000000
# 3 -0.004513 0.000816 0.007700 0.000000 0.000000 0.000000
# 4 0.000000 0.000000 0.000000 0.082390 0.000000 0.000000
# 5 0.000000 0.000000 0.000000 0.000000 -0.007715 0.000000
# 6 0.000000 0.000000 0.000000 0.000000 0.000000 -0.090212
#
#
# Mechanical properties :
#
#
# Convention : Reuss Voigt Hill
#
# Bulk Modulus (GPa) = 41.59040 52.25940 46.92490
# Shear Modulus (GPa) = 137.07993 -7.05255 65.01369
#
# Velocity S-wave (km/s) = 7.77826 -1.76428 5.35671
# Velocity P-wave (km/s) = 9.95111 4.34912 7.67917
#
# Compressibility (1/GPa) = 0.02404401
#
# Stress axis : x y z
#
# Youngs Moduli (GPa) = 82.33866 70.54251 129.86545
#
# Poissons Ratio (x) = 0.09106 0.58612
# Poissons Ratio (y) = 0.10629 -0.10593
# Poissons Ratio (z) = 0.37162 -0.05754
#
# Static dielectric constant tensor:
#      x y z
#    x 1.904160 0.000000 0.000000 
#    y 0.000000 1.901760 0.000000 
#    z 0.000000 0.000000 1.807390 
# 
# From -- ./inp_files/23693.got.cif
#   From: 2010.05.17/outbox.cif.g08.bks.cpg/sg44_12_cif.got.tgz:23693.got - 2010.06.03 19:37:08.
