data_PCOD9373249
_publ_section_title
;
Structure prediction by ZEFSAII (Michael W. Deem and Ramdas Pophale) SiO2 
 PCOD9373249
Probable space group: I M M 2
;
_chemical_formula_sum "Si O2"
_cell_formula_units_Z 64
_cell_length_a 19.455181
_cell_length_b 7.459583
_cell_length_c 22.271963
_cell_angle_alpha 90.000000
_cell_angle_beta 90.000000
_cell_angle_gamma 90.000000
_cell_volume 3232.275144
_symmetry_space_group_name_H-M "I M M 2"
_symmetry_group_IT_number 44
_symmetry_cell_setting 'orthorhombic'
loop_
_space_group_symop_operation_xyz
x,y,z
-x,-y,z
-x,y,z
x,-y,z
1/2+x,1/2+y,1/2+z
1/2-x,1/2-y,1/2+z
1/2-x,1/2+y,1/2+z
1/2+x,1/2-y,1/2+z
loop_
_atom_site_type_symbol
_atom_site_label
_atom_site_fract_x
_atom_site_fract_y
_atom_site_fract_z
Si Si1 0.313219 0.299533 0.741570
Si Si2 0.423335 0.290517 0.831325
Si Si3 0.273210 0.712678 0.512239
Si Si4 0.923984 0.284157 0.147247
Si Si5 0.870254 0.716817 0.461956
Si Si6 0.074633 0.285283 0.008279
Si Si7 0.719894 0.219826 0.141412
Si Si8 0.575225 0.218114 0.091311
O O1 0.292787 0.500000 0.761747
O O2 0.358998 0.211873 0.793899
O O3 0.367682 0.307630 0.687147
O O4 0.249759 0.215845 0.705056
O O5 0.500000 0.214539 0.821032
O O6 0.426084 0.500000 0.813556
O O7 0.404811 0.281657 0.901283
O O8 0.264349 0.500000 0.516925
O O9 0.208748 0.777152 0.472594
O O10 0.348972 0.742438 0.485449
O O11 0.262107 0.779228 0.581307
O O12 0.914335 0.500000 0.149096
O O13 0.922444 0.227097 0.078005
O O14 0.000000 0.245166 0.171089
O O15 0.871170 0.500000 0.459138
O O16 0.910508 0.770030 0.522252
O O17 0.071076 0.500000 0.007860
O O18 0.000000 0.221022 0.983747
O O19 0.641441 0.273685 0.129311
O O20 0.723188 0.000000 0.143063
O O21 0.500000 0.278906 0.110895
O O22 0.575522 0.000000 0.092169
#
# Coordination Sequence:
#
# PCOD9373249 Si02
#       8
#     8   8   8   8   8   8   8   8
#     4  10  18  29  44  60  84 118 152 185 220 259
#     4  10  21  33  43  61  89 120 157 191 217 260
#     4   9  16  28  45  66  87 110 148 191 225 267
#     4   9  17  27  38  56  84 116 148 178 207 249
#     4   9  18  31  48  67  87 114 151 189 225 268
#     4   9  17  27  39  60  91 121 146 174 215 269
#     4   8  14  24  39  61  86 110 139 177 220 264
#     4   8  13  23  42  67  90 109 133 173 225 272
#
# _framework density 19.800295999999999
#
# number of rings (size 3 to 8) (size 9 to 14) (size 15 to 20)
#    0.000    3.000    1.250    3.000    0.000    2.750 
#    0.000    1.250    0.000    0.000    0.000    0.875 
#    0.000    3.000    0.000    0.000    0.000    0.000 
#
# Total GULP energy -178240.921297 kJ/mol
# GULP energy per Si atom -5570.028791 kJ/mol
# Density = 1.975523 g / cm^3
# Si number density = 19.800296 Si / 1000 Ang^3
#
#
#
# Elastic Constant Matrix: (Units=GPa)
#
#
# Indices 1 2 3 4 5 6 
#
# 1 160.0930 0.5252 41.5831 0.0000 0.0000 0.0000
# 2 0.5252 56.2996 -0.1282 0.0000 0.0000 0.0000
# 3 41.5831 -0.1282 65.8951 0.0000 0.0000 0.0000
# 4 0.0000 0.0000 0.0000 10.3271 0.0000 0.0000
# 5 0.0000 0.0000 0.0000 0.0000 23.3665 0.0000
# 6 0.0000 0.0000 0.0000 0.0000 0.0000 32.4121
#
#
#
# Elastic Compliance Matrix: (Units=1/GPa)
#
#
# Indices 1 2 3 4 5 6 
#
# 1 0.007471 -0.000080 -0.004715 0.000000 0.000000 0.000000
# 2 -0.000080 0.017763 0.000085 0.000000 0.000000 0.000000
# 3 -0.004715 0.000085 0.018151 0.000000 0.000000 0.000000
# 4 0.000000 0.000000 0.000000 0.096833 0.000000 0.000000
# 5 0.000000 0.000000 0.000000 0.000000 0.042796 0.000000
# 6 0.000000 0.000000 0.000000 0.000000 0.000000 0.030853
#
#
# Mechanical properties :
#
#
# Convention : Reuss Voigt Hill
#
# Bulk Modulus (GPa) = 29.44169 40.69420 35.06794
# Shear Modulus (GPa) = 21.31204 29.24165 25.27684
#
# Velocity S-wave (km/s) = 3.28434 3.84712 3.57681
# Velocity P-wave (km/s) = 5.41148 6.35065 5.89978
#
# Compressibility (1/GPa) = 0.03396545
#
# Stress axis : x y z
#
# Youngs Moduli (GPa) = 133.84545 56.29661 55.09293
#
# Poissons Ratio (x) = 0.00453 0.25976
# Poissons Ratio (y) = 0.01077 -0.00470
# Poissons Ratio (z) = 0.63107 -0.00480
#
# Static dielectric constant tensor:
#      x y z
#    x 1.794150 0.000000 0.000000 
#    y 0.000000 1.901450 0.000000 
#    z 0.000000 0.000000 1.675100 
# 
# From -- ./inp_files/23945.got.cif
#   From: 2010.05.17/outbox.cif.g08.bks.cpg/sg44_12_cif.got.tgz:23945.got - 2010.06.03 19:37:08.
