data_PCOD9373642
_publ_section_title
;
Structure prediction by ZEFSAII (Michael W. Deem and Ramdas Pophale) SiO2 
 PCOD9373642
Probable space group: I M M 2
;
_chemical_formula_sum "Si O2"
_cell_formula_units_Z 64
_cell_length_a 8.206947
_cell_length_b 21.545226
_cell_length_c 17.320932
_cell_angle_alpha 90.000000
_cell_angle_beta 90.000000
_cell_angle_gamma 90.000000
_cell_volume 3062.696340
_symmetry_space_group_name_H-M "I M M 2"
_symmetry_group_IT_number 44
_symmetry_cell_setting 'orthorhombic'
loop_
_space_group_symop_operation_xyz
x,y,z
-x,-y,z
-x,y,z
x,-y,z
1/2+x,1/2+y,1/2+z
1/2-x,1/2-y,1/2+z
1/2-x,1/2+y,1/2+z
1/2+x,1/2-y,1/2+z
loop_
_atom_site_type_symbol
_atom_site_label
_atom_site_fract_x
_atom_site_fract_y
_atom_site_fract_z
Si Si1 0.816072 0.332640 0.556740
Si Si2 0.194349 0.427820 0.684735
Si Si3 0.801587 0.740653 0.413820
Si Si4 0.183258 0.069154 0.954209
Si Si5 0.806565 0.378363 0.311288
Si Si6 0.194602 0.072314 0.653373
Si Si7 0.687486 0.630463 0.842060
Si Si8 0.817557 0.426113 0.988513
O O1 0.740360 0.372116 0.628229
O O2 0.744714 0.277611 0.501401
O O3 0.815406 0.387387 0.493074
O O4 0.000000 0.314107 0.579123
O O5 0.254768 0.500000 0.675395
O O6 0.224465 0.403723 0.771544
O O7 0.000000 0.430341 0.670027
O O8 0.761727 0.686007 0.353379
O O9 0.744922 0.803874 0.373623
O O10 0.000000 0.743909 0.419928
O O11 0.213700 0.071288 0.863233
O O12 0.000000 0.091950 0.970810
O O13 0.198135 0.000000 0.984156
O O14 0.755253 0.386200 0.223658
O O15 0.000000 0.386797 0.317246
O O16 0.260560 0.096739 0.571832
O O17 0.000000 0.072234 0.650747
O O18 0.248292 0.000000 0.664736
O O19 0.500000 0.639530 0.818226
O O20 0.699401 0.589709 0.918943
O O21 0.822441 0.500000 0.995413
O O22 0.000000 0.403844 0.970164
#
# Coordination Sequence:
#
# PCOD9373642 Si02
#       8
#     8   8   8   8   8   8   8   8
#     4   9  18  36  59  79 105 145 189 234 283 336
#     4  10  21  37  59  88 118 146 186 241 293 348
#     4   8  18  37  57  78 110 148 189 233 275 329
#     4  10  19  29  45  74 111 145 180 227 280 335
#     4  10  19  33  53  75 106 148 190 230 272 325
#     4  10  20  34  53  81 115 145 180 229 282 333
#     4  11  22  38  59  82 113 150 187 232 286 339
#     4  10  21  38  59  82 109 142 183 230 279 335
#
# _framework density 20.896619999999999
#
# number of rings (size 3 to 8) (size 9 to 14) (size 15 to 20)
#    0.000    2.250    0.000    3.750    0.000    6.750 
#    2.250    6.250    0.000    0.000    0.000    0.000 
#    0.000    0.000    0.000    0.000    0.000    0.000 
#
# Total GULP energy -178215.837127 kJ/mol
# GULP energy per Si atom -5569.244910 kJ/mol
# Density = 2.084906 g / cm^3
# Si number density = 20.896620 Si / 1000 Ang^3
#
#
#
# Elastic Constant Matrix: (Units=GPa)
#
#
# Indices 1 2 3 4 5 6 
#
# 1 30.3475 9.1638 -6.2022 0.0000 0.0000 0.0000
# 2 9.1638 60.2193 29.1642 0.0000 0.0000 0.0000
# 3 -6.2022 29.1642 129.8760 0.0001 0.0000 0.0000
# 4 0.0000 0.0000 0.0001 44.1354 0.0000 0.0000
# 5 0.0000 0.0000 0.0000 0.0000 16.5099 0.0000
# 6 0.0000 0.0000 0.0000 0.0000 0.0000 1.6426
#
#
#
# Elastic Compliance Matrix: (Units=1/GPa)
#
#
# Indices 1 2 3 4 5 6 
#
# 1 0.035746 -0.007031 0.003286 0.000000 0.000000 0.000000
# 2 -0.007031 0.020015 -0.004830 0.000000 0.000000 0.000000
# 3 0.003286 -0.004830 0.008941 0.000000 0.000000 0.000000
# 4 0.000000 0.000000 0.000000 0.022658 0.000000 0.000000
# 5 0.000000 0.000000 0.000000 0.000000 0.060570 0.000000
# 6 0.000000 0.000000 0.000000 0.000000 0.000000 0.608785
#
#
# Mechanical properties :
#
#
# Convention : Reuss Voigt Hill
#
# Bulk Modulus (GPa) = 21.02964 31.63271 26.33117
# Shear Modulus (GPa) = 6.33139 25.01206 15.67172
#
# Velocity S-wave (km/s) = 1.74254 3.46344 2.74152
# Velocity P-wave (km/s) = 3.75953 5.58251 4.75913
#
# Compressibility (1/GPa) = 0.04755194
#
# Stress axis : x y z
#
# Youngs Moduli (GPa) = 27.97496 49.96205 111.84153
#
# Poissons Ratio (x) = 0.35128 -0.36750
# Poissons Ratio (y) = 0.19669 0.54022
# Poissons Ratio (z) = -0.09192 0.24133
#
# Static dielectric constant tensor:
#      x y z
#    x 1.785880 0.000000 0.000000 
#    y 0.000000 1.780260 0.000000 
#    z 0.000000 0.000000 1.758420 
# 
# From -- ./inp_files/16858.got.cif
#   From: 2010.05.17/outbox.cif.g08.bks.cpg/sg44_9_cif.got.tgz:16858.got - 2010.06.03 19:37:08.
