data_PCOD9373102
_publ_section_title
;
Structure prediction by ZEFSAII (Michael W. Deem and Ramdas Pophale) SiO2 
 PCOD9373102
Probable space group: I M M 2
;
_chemical_formula_sum "Si O2"
_cell_formula_units_Z 48
_cell_length_a 13.712927
_cell_length_b 19.949479
_cell_length_c 8.157719
_cell_angle_alpha 90.000000
_cell_angle_beta 90.000000
_cell_angle_gamma 90.000000
_cell_volume 2231.672510
_symmetry_space_group_name_H-M "I M M 2"
_symmetry_group_IT_number 44
_symmetry_cell_setting 'orthorhombic'
loop_
_space_group_symop_operation_xyz
x,y,z
-x,-y,z
-x,y,z
x,-y,z
1/2+x,1/2+y,1/2+z
1/2-x,1/2-y,1/2+z
1/2-x,1/2+y,1/2+z
1/2+x,1/2-y,1/2+z
loop_
_atom_site_type_symbol
_atom_site_label
_atom_site_fract_x
_atom_site_fract_y
_atom_site_fract_z
Si Si1 0.111754 0.853701 0.655830
Si Si2 0.113809 0.000000 0.633533
Si Si3 0.886827 0.500000 0.741838
Si Si4 0.107894 0.781316 0.325380
Si Si5 0.612735 0.000000 0.839376
Si Si6 0.247202 0.612427 0.684506
Si Si7 0.885253 0.000000 0.030040
Si Si8 0.806779 0.356811 0.336363
O O1 0.143270 0.925841 0.575212
O O2 0.109443 0.796354 0.519938
O O3 0.195201 0.841488 0.787873
O O4 0.000000 0.861821 0.719694
O O5 0.126806 0.000000 0.832120
O O6 0.000000 0.000000 0.593590
O O7 0.882291 0.500000 0.539970
O O8 0.825519 0.434041 0.789998
O O9 0.000000 0.500000 0.789780
O O10 0.195228 0.827064 0.262972
O O11 0.127213 0.704547 0.279128
O O12 0.000000 0.802575 0.267137
O O13 0.662159 0.068766 0.780347
O O14 0.500000 0.000000 0.793404
O O15 0.328983 0.562978 0.606695
O O16 0.186113 0.640584 0.532173
O O17 0.000000 0.000000 0.066107
#
# Coordination Sequence:
#
# PCOD9373102 Si02
#       8
#     8   4   4   8   4   8   4   8
#     4  10  21  36  56  82 113 148 184 227 284 342
#     4   9  16  30  54  80 105 140 182 225 267 327
#     4   8  17  34  58  85 110 139 186 237 276 323
#     4  11  24  38  52  80 120 152 181 233 294 344
#     4   9  18  34  60  87 106 138 190 244 285 326
#     4  10  20  34  58  85 110 145 189 234 282 330
#     4  10  17  30  55  84 109 139 185 236 273 320
#     4  11  20  37  59  82 108 147 195 235 279 339
#
# _framework density 21.508531000000001
#
# number of rings (size 3 to 8) (size 9 to 14) (size 15 to 20)
#    0.000    2.000    1.667    3.000    0.000    2.667 
#    0.000    3.333    0.000    3.000    0.000    0.000 
#    0.000    0.000    0.000    0.000    0.000    0.000 
#
# Total GULP energy -133859.367604 kJ/mol
# GULP energy per Si atom -5577.473650 kJ/mol
# Density = 2.145958 g / cm^3
# Si number density = 21.508531 Si / 1000 Ang^3
#
#
#
# Elastic Constant Matrix: (Units=GPa)
#
#
# Indices 1 2 3 4 5 6 
#
# 1 134.7844 46.6596 6.9769 0.0000 0.0000 0.0000
# 2 46.6596 126.8765 9.6767 0.0000 0.0000 0.0000
# 3 6.9769 9.6767 5.1983 0.0000 0.0000 0.0000
# 4 0.0000 0.0000 0.0000 13.7957 0.0000 0.0000
# 5 0.0000 0.0000 0.0000 0.0000 20.7146 0.0000
# 6 0.0000 0.0000 0.0000 0.0000 0.0000 32.3075
#
#
#
# Elastic Compliance Matrix: (Units=1/GPa)
#
#
# Indices 1 2 3 4 5 6 
#
# 1 0.008695 -0.002689 -0.006664 0.000000 0.000000 0.000000
# 2 -0.002689 0.010018 -0.015039 0.000000 0.000000 0.000000
# 3 -0.006664 -0.015039 0.229311 0.000000 0.000000 0.000000
# 4 0.000000 0.000000 0.000000 0.072487 0.000000 0.000000
# 5 0.000000 0.000000 0.000000 0.000000 0.048275 0.000000
# 6 0.000000 0.000000 0.000000 0.000000 0.000000 0.030953
#
#
# Mechanical properties :
#
#
# Convention : Reuss Voigt Hill
#
# Bulk Modulus (GPa) = 5.01907 43.72062 24.36984
# Shear Modulus (GPa) = 9.70996 26.93330 18.32163
#
# Velocity S-wave (km/s) = 2.12703 3.54250 2.92178
# Velocity P-wave (km/s) = 2.89326 6.09128 4.76837
#
# Compressibility (1/GPa) = 0.19924014
#
# Stress axis : x y z
#
# Youngs Moduli (GPa) = 115.00543 99.82306 4.36089
#
# Poissons Ratio (x) = 0.26847 0.02906
# Poissons Ratio (y) = 0.30930 0.06558
# Poissons Ratio (z) = 0.76638 1.50120
#
# Static dielectric constant tensor:
#      x y z
#    x 1.780490 0.000000 0.000000 
#    y 0.000000 1.818600 0.000000 
#    z 0.000000 0.000000 1.810240 
# 
# From -- ./inp_files/7179.got.cif
#   From: 2010.05.17/outbox.cif.g08.bks.cpg/sg44_4_cif.got.tgz:7179.got - 2010.06.03 19:37:08.
