data_PCOD9373375
_publ_section_title
;
Structure prediction by ZEFSAII (Michael W. Deem and Ramdas Pophale) SiO2 
 PCOD9373375
Probable space group: I M M 2
;
_chemical_formula_sum "Si O2"
_cell_formula_units_Z 64
_cell_length_a 18.385952
_cell_length_b 15.056089
_cell_length_c 11.167431
_cell_angle_alpha 90.000000
_cell_angle_beta 90.000000
_cell_angle_gamma 90.000000
_cell_volume 3091.374164
_symmetry_space_group_name_H-M "I M M 2"
_symmetry_group_IT_number 44
_symmetry_cell_setting 'orthorhombic'
loop_
_space_group_symop_operation_xyz
x,y,z
-x,-y,z
-x,y,z
x,-y,z
1/2+x,1/2+y,1/2+z
1/2-x,1/2-y,1/2+z
1/2-x,1/2+y,1/2+z
1/2+x,1/2-y,1/2+z
loop_
_atom_site_type_symbol
_atom_site_label
_atom_site_fract_x
_atom_site_fract_y
_atom_site_fract_z
Si Si1 0.082898 0.600151 0.436690
Si Si2 0.584670 0.238225 0.379571
Si Si3 0.349776 0.400310 0.294198
Si Si4 0.804066 0.240588 0.441978
Si Si5 0.914947 0.395302 0.097289
Si Si6 0.221397 0.705119 0.189409
Si Si7 0.916211 0.406746 0.721394
Si Si8 0.081109 0.896210 0.541559
O O1 0.095970 0.500000 0.386113
O O2 0.148622 0.669408 0.427433
O O3 0.079632 0.590619 0.579964
O O4 0.000000 0.627459 0.400327
O O5 0.500000 0.263911 0.375016
O O6 0.630081 0.327516 0.393010
O O7 0.591792 0.158216 0.472925
O O8 0.611949 0.189085 0.259408
O O9 0.348937 0.500000 0.339675
O O10 0.275054 0.374038 0.230080
O O11 0.407070 0.391492 0.185026
O O12 0.775215 0.229285 0.305136
O O13 0.749880 0.240555 0.558683
O O14 0.860051 0.162822 0.475255
O O15 0.896870 0.500000 0.087746
O O16 0.858286 0.339115 0.175568
O O17 0.000000 0.389386 0.132429
O O18 0.881507 0.500000 0.763091
O O19 0.000000 0.407334 0.766365
O O20 0.000000 0.864780 0.513080
O O21 0.088372 0.000000 0.510087
#
# Coordination Sequence:
#
# PCOD9373375 Si02
#       8
#     8   8   8   8   8   8   8   8
#     4   9  18  32  54  88 124 156 195 246 305 362
#     4  10  18  30  53  84 118 158 201 242 294 360
#     4  10  20  34  54  83 121 162 205 254 298 345
#     4  11  23  40  61  87 122 161 201 250 301 357
#     4  10  22  40  61  87 120 156 197 250 310 373
#     4  11  24  41  61  87 118 160 207 250 302 366
#     4   8  13  23  42  72 111 150 187 231 285 346
#     4   9  18  34  59  90 119 152 199 252 305 357
#
# _framework density 20.702767000000001
#
# number of rings (size 3 to 8) (size 9 to 14) (size 15 to 20)
#    0.000    2.250    0.000    4.500    0.000    5.750 
#    0.000    1.875    0.000    0.750    0.000    0.000 
#    0.000    0.000    0.000    0.000    0.000    0.000 
#
# Total GULP energy -178238.121350 kJ/mol
# GULP energy per Si atom -5569.941292 kJ/mol
# Density = 2.065565 g / cm^3
# Si number density = 20.702767 Si / 1000 Ang^3
#
#
#
# Elastic Constant Matrix: (Units=GPa)
#
#
# Indices 1 2 3 4 5 6 
#
# 1 82.2546 28.7038 30.7511 0.0000 0.0000 0.0000
# 2 28.7038 93.6911 34.6976 0.0000 0.0000 0.0000
# 3 30.7511 34.6976 103.9171 0.0000 0.0000 0.0000
# 4 0.0000 0.0000 0.0000 16.9340 0.0000 0.0000
# 5 0.0000 0.0000 0.0000 0.0000 23.7952 0.0000
# 6 0.0000 0.0000 0.0000 0.0000 0.0000 14.5693
#
#
#
# Elastic Compliance Matrix: (Units=1/GPa)
#
#
# Indices 1 2 3 4 5 6 
#
# 1 0.014490 -0.003253 -0.003201 0.000000 0.000000 0.000000
# 2 -0.003253 0.012910 -0.003348 0.000000 0.000000 0.000000
# 3 -0.003201 -0.003348 0.011688 0.000000 0.000000 0.000000
# 4 0.000000 0.000000 0.000000 0.059053 0.000000 0.000000
# 5 0.000000 0.000000 0.000000 0.000000 0.042025 0.000000
# 6 0.000000 0.000000 0.000000 0.000000 0.000000 0.068638
#
#
# Mechanical properties :
#
#
# Convention : Reuss Voigt Hill
#
# Bulk Modulus (GPa) = 51.32862 52.01864 51.67363
# Shear Modulus (GPa) = 21.28539 23.44039 22.36289
#
# Velocity S-wave (km/s) = 3.20994 3.36852 3.29019
# Velocity P-wave (km/s) = 6.21170 6.34903 6.28074
#
# Compressibility (1/GPa) = 0.01948231
#
# Stress axis : x y z
#
# Youngs Moduli (GPa) = 69.01512 77.45951 85.55599
#
# Poissons Ratio (x) = 0.25201 0.27390
# Poissons Ratio (y) = 0.22454 0.28643
# Poissons Ratio (z) = 0.22095 0.25932
#
# Static dielectric constant tensor:
#      x y z
#    x 1.782780 0.000000 0.000000 
#    y 0.000000 1.767550 0.000000 
#    z 0.000000 0.000000 1.858600 
# 
# From -- ./inp_files/14000.got.cif
#   From: 2010.05.17/outbox.cif.g08.bks.cpg/sg44_7_cif.got.tgz:14000.got - 2010.06.03 19:37:08.
