data_PCOD9373187
_publ_section_title
;
Structure prediction by ZEFSAII (Michael W. Deem and Ramdas Pophale) SiO2 
 PCOD9373187
Probable space group: I M M 2
;
_chemical_formula_sum "Si O2"
_cell_formula_units_Z 56
_cell_length_a 8.123888
_cell_length_b 30.424706
_cell_length_c 14.134866
_cell_angle_alpha 90.000000
_cell_angle_beta 90.000000
_cell_angle_gamma 90.000000
_cell_volume 3493.671067
_symmetry_space_group_name_H-M "I M M 2"
_symmetry_group_IT_number 44
_symmetry_cell_setting 'orthorhombic'
loop_
_space_group_symop_operation_xyz
x,y,z
-x,-y,z
-x,y,z
x,-y,z
1/2+x,1/2+y,1/2+z
1/2-x,1/2-y,1/2+z
1/2-x,1/2+y,1/2+z
1/2+x,1/2-y,1/2+z
loop_
_atom_site_type_symbol
_atom_site_label
_atom_site_fract_x
_atom_site_fract_y
_atom_site_fract_z
Si Si1 0.700992 0.269065 0.310410
Si Si2 0.303534 0.726911 0.097488
Si Si3 0.190337 0.000000 0.088743
Si Si4 0.688306 0.000000 0.297876
Si Si5 0.699523 0.684048 0.498734
Si Si6 0.194479 0.091563 0.317364
Si Si7 0.694887 0.180052 0.411097
Si Si8 0.798326 0.904514 0.098585
O O1 0.500000 0.268237 0.309336
O O2 0.756697 0.279595 0.204677
O O3 0.750721 0.303216 0.392165
O O4 0.755816 0.220708 0.345701
O O5 0.500000 0.721754 0.095859
O O6 0.260285 0.776341 0.064912
O O7 0.230465 0.694705 0.018371
O O8 0.260978 0.952314 0.062446
O O9 0.199598 0.000000 0.203538
O O10 0.000000 0.000000 0.058689
O O11 0.724025 0.954199 0.349592
O O12 0.500000 0.000000 0.265684
O O13 0.500000 0.684677 0.501212
O O14 0.755804 0.637099 0.537568
O O15 0.230600 0.133922 0.380136
O O16 0.250995 0.100483 0.208759
O O17 0.000000 0.084283 0.314545
O O18 0.500000 0.177023 0.397820
O O19 0.000000 0.905319 0.097271
#
# Coordination Sequence:
#
# PCOD9373187 Si02
#       8
#     8   8   4   4   8   8   8   8
#     4   8  16  28  42  59  84 112 141 176 215 253
#     4  10  18  29  42  59  82 111 141 174 213 255
#     4   8  14  26  40  60  87 114 143 178 215 256
#     4  10  18  28  42  62  87 118 147 174 209 254
#     4   9  16  28  43  61  82 110 143 176 213 256
#     4  10  18  29  44  65  90 116 143 177 214 253
#     4  10  19  31  45  64  86 112 144 178 213 256
#     4   8  14  24  42  63  86 113 142 173 211 254
#
# _framework density 16.028984999999999
#
# number of rings (size 3 to 8) (size 9 to 14) (size 15 to 20)
#    0.000    2.857    0.000    4.500    0.000    0.000 
#    0.000    9.286    0.000    0.000    0.000    1.000 
#    0.000    4.571    0.000    0.000    0.000    0.429 
#
# Total GULP energy -155964.539613 kJ/mol
# GULP energy per Si atom -5570.162129 kJ/mol
# Density = 1.599250 g / cm^3
# Si number density = 16.028985 Si / 1000 Ang^3
#
#
#
# Elastic Constant Matrix: (Units=GPa)
#
#
# Indices 1 2 3 4 5 6 
#
# 1 21.9284 6.6720 0.3940 0.0000 0.0000 0.0000
# 2 6.6720 143.3739 47.7720 0.0000 0.0000 0.0000
# 3 0.3940 47.7720 76.0425 0.0000 0.0000 0.0000
# 4 0.0000 0.0000 0.0000 20.9778 0.0000 0.0000
# 5 0.0000 0.0000 0.0000 0.0000 12.2499 0.0000
# 6 0.0000 0.0000 0.0000 0.0000 0.0000 18.7634
#
#
#
# Elastic Compliance Matrix: (Units=1/GPa)
#
#
# Indices 1 2 3 4 5 6 
#
# 1 0.046377 -0.002628 0.001411 0.000000 0.000000 0.000000
# 2 -0.002628 0.008970 -0.005622 0.000000 0.000000 0.000000
# 3 0.001411 -0.005622 0.016675 0.000000 0.000000 0.000000
# 4 0.000000 0.000000 0.000000 0.047669 0.000000 0.000000
# 5 0.000000 0.000000 0.000000 0.000000 0.081633 0.000000
# 6 0.000000 0.000000 0.000000 0.000000 0.000000 0.053295
#
#
# Mechanical properties :
#
#
# Convention : Reuss Voigt Hill
#
# Bulk Modulus (GPa) = 17.13968 39.00233 28.07101
# Shear Modulus (GPa) = 17.37637 22.83199 20.10418
#
# Velocity S-wave (km/s) = 3.29608 3.77824 3.54537
# Velocity P-wave (km/s) = 5.02012 6.58929 5.85749
#
# Compressibility (1/GPa) = 0.05834415
#
# Stress axis : x y z
#
# Youngs Moduli (GPa) = 21.56227 111.47983 59.97016
#
# Poissons Ratio (x) = 0.29300 -0.08461
# Poissons Ratio (y) = 0.05667 0.33714
# Poissons Ratio (z) = -0.03042 0.62671
#
# Static dielectric constant tensor:
#      x y z
#    x 1.564170 0.000000 0.000000 
#    y 0.000000 1.555170 0.000000 
#    z 0.000000 0.000000 1.523510 
# 
# From -- ./inp_files/17066.got.cif
#   From: 2010.05.17/outbox.cif.g08.bks.cpg/sg44_9_cif.got.tgz:17066.got - 2010.06.03 19:37:08.
