data_PCOD9373953
_publ_section_title
;
Structure prediction by ZEFSAII (Michael W. Deem and Ramdas Pophale) SiO2 
 PCOD9373953
Probable space group: I M M 2
;
_chemical_formula_sum "Si O2"
_cell_formula_units_Z 48
_cell_length_a 18.682432
_cell_length_b 7.538805
_cell_length_c 15.400222
_cell_angle_alpha 90.000000
_cell_angle_beta 90.000000
_cell_angle_gamma 90.000000
_cell_volume 2169.016729
_symmetry_space_group_name_H-M "I M M 2"
_symmetry_group_IT_number 44
_symmetry_cell_setting 'orthorhombic'
loop_
_space_group_symop_operation_xyz
x,y,z
-x,-y,z
-x,y,z
x,-y,z
1/2+x,1/2+y,1/2+z
1/2-x,1/2-y,1/2+z
1/2-x,1/2+y,1/2+z
1/2+x,1/2-y,1/2+z
loop_
_atom_site_type_symbol
_atom_site_label
_atom_site_fract_x
_atom_site_fract_y
_atom_site_fract_z
Si Si1 0.633617 0.783235 0.400250
Si Si2 0.797418 0.214668 0.400274
Si Si3 0.208056 0.291896 0.597289
Si Si4 0.077765 0.205928 0.278733
Si Si5 0.421738 0.783205 0.216682
Si Si6 0.126953 0.297040 0.092463
O O1 0.715844 0.726981 0.384252
O O2 0.588186 0.730720 0.317046
O O3 0.611613 0.721767 0.496446
O O4 0.632839 0.000000 0.404001
O O5 0.816686 0.269280 0.497993
O O6 0.855013 0.282200 0.331203
O O7 0.795097 0.000000 0.396777
O O8 0.218944 0.500000 0.616615
O O9 0.146316 0.222970 0.660791
O O10 0.286662 0.207534 0.603260
O O11 0.092803 0.209869 0.176283
O O12 0.000000 0.286418 0.297161
O O13 0.074502 0.000000 0.304924
O O14 0.500000 0.726863 0.184498
O O15 0.420330 0.000000 0.213834
O O16 0.102531 0.500000 0.093337
#
# Coordination Sequence:
#
# PCOD9373953 Si02
#       6
#     8   8   8   8   8   8
#     4   8  15  29  49  71  96 129 169 210 250 297
#     4   9  18  34  53  73 100 136 176 215 258 310
#     4  10  19  32  53  79 104 134 173 216 260 307
#     4  10  21  36  54  77 107 143 178 215 266 324
#     4   9  17  29  47  73 103 133 165 203 251 307
#     4  10  20  34  54  79 104 134 175 220 263 310
#
# _framework density 22.129843000000001
#
# number of rings (size 3 to 8) (size 9 to 14) (size 15 to 20)
#    0.000    2.667    0.000    3.000    0.000    5.000 
#    0.000    1.667    0.000    4.500    0.000    0.000 
#    0.000    0.000    0.000    0.000    0.000    0.000 
#
# Total GULP energy -133985.985549 kJ/mol
# GULP energy per Si atom -5582.749398 kJ/mol
# Density = 2.207947 g / cm^3
# Si number density = 22.129843 Si / 1000 Ang^3
#
#
#
# Elastic Constant Matrix: (Units=GPa)
#
#
# Indices 1 2 3 4 5 6 
#
# 1 32.3001 -7.4488 18.0818 0.0000 0.0000 0.0000
# 2 -7.4488 55.0164 -12.6713 0.0000 0.0000 0.0000
# 3 18.0818 -12.6713 54.7209 0.0000 0.0000 0.0000
# 4 0.0000 0.0000 0.0000 18.9353 0.0000 0.0000
# 5 0.0000 0.0000 0.0000 0.0000 -40.8318 0.0000
# 6 0.0000 0.0000 0.0000 0.0000 0.0000 2.2992
#
#
#
# Elastic Compliance Matrix: (Units=1/GPa)
#
#
# Indices 1 2 3 4 5 6 
#
# 1 0.038283 0.002398 -0.012095 0.000000 0.000000 0.000000
# 2 0.002398 0.019351 0.003689 0.000000 0.000000 0.000000
# 3 -0.012095 0.003689 0.023125 0.000000 0.000000 0.000000
# 4 0.000000 0.000000 0.000000 0.052811 0.000000 0.000000
# 5 0.000000 0.000000 0.000000 0.000000 -0.024491 0.000000
# 6 0.000000 0.000000 0.000000 0.000000 0.000000 0.434941
#
#
# Mechanical properties :
#
#
# Convention : Reuss Voigt Hill
#
# Bulk Modulus (GPa) = 14.54722 15.32896 14.93809
# Shear Modulus (GPa) = 8.63629 5.68559 7.16094
#
# Velocity S-wave (km/s) = 1.97763 1.60461 1.80080
# Velocity P-wave (km/s) = 3.43548 3.22101 3.32997
#
# Compressibility (1/GPa) = 0.06874166
#
# Stress axis : x y z
#
# Youngs Moduli (GPa) = 26.12092 51.67809 43.24255
#
# Poissons Ratio (x) = -0.12390 0.52302
# Poissons Ratio (y) = -0.06263 -0.15951
# Poissons Ratio (z) = 0.31593 -0.19062
#
# Static dielectric constant tensor:
#      x y z
#    x 1.809270 0.000000 0.000000 
#    y 0.000000 1.830830 0.000000 
#    z 0.000000 0.000000 1.785720 
# 
# From -- ./inp_files/16091.got.cif
#   From: 2010.05.17/outbox.cif.g08.bks.cpg/sg44_9_cif.got.tgz:16091.got - 2010.06.03 19:37:08.
