data_PCOD9373276
_publ_section_title
;
Structure prediction by ZEFSAII (Michael W. Deem and Ramdas Pophale) SiO2 
 PCOD9373276
Probable space group: I M M 2
;
_chemical_formula_sum "Si O2"
_cell_formula_units_Z 64
_cell_length_a 9.056824
_cell_length_b 30.957384
_cell_length_c 14.806615
_cell_angle_alpha 90.000000
_cell_angle_beta 90.000000
_cell_angle_gamma 90.000000
_cell_volume 4151.413245
_symmetry_space_group_name_H-M "I M M 2"
_symmetry_group_IT_number 44
_symmetry_cell_setting 'orthorhombic'
loop_
_space_group_symop_operation_xyz
x,y,z
-x,-y,z
-x,y,z
x,-y,z
1/2+x,1/2+y,1/2+z
1/2-x,1/2-y,1/2+z
1/2-x,1/2+y,1/2+z
1/2+x,1/2-y,1/2+z
loop_
_atom_site_type_symbol
_atom_site_label
_atom_site_fract_x
_atom_site_fract_y
_atom_site_fract_z
Si Si1 0.322980 0.450395 0.446200
Si Si2 0.820299 0.209744 0.554924
Si Si3 0.172351 0.134358 0.042862
Si Si4 0.323134 0.796044 0.165864
Si Si5 0.166946 0.184491 0.853457
Si Si6 0.675014 0.727124 0.850437
Si Si7 0.172902 0.870916 0.672459
Si Si8 0.675838 0.950426 0.750478
O O1 0.500000 0.445436 0.432673
O O2 0.293904 0.500000 0.473361
O O3 0.278599 0.414351 0.519083
O O4 0.245570 0.442988 0.349842
O O5 0.773993 0.252624 0.610642
O O6 0.776171 0.212179 0.450347
O O7 0.772017 0.165457 0.602679
O O8 0.000000 0.210008 0.558033
O O9 0.265665 0.161998 0.113120
O O10 0.000000 0.133703 0.070811
O O11 0.180204 0.159334 0.947113
O O12 0.500000 0.795532 0.168757
O O13 0.257211 0.794079 0.266082
O O14 0.284751 0.222280 0.846934
O O15 0.181898 0.152166 0.770095
O O16 0.000000 0.203304 0.847755
O O17 0.500000 0.720526 0.842342
O O18 0.260020 0.915351 0.681745
O O19 0.000000 0.879611 0.654158
O O20 0.500000 0.946172 0.756937
O O21 0.711755 0.000000 0.725458
#
# Coordination Sequence:
#
# PCOD9373276 Si02
#       8
#     8   8   8   8   8   8   8   8
#     4   9  17  31  50  70  96 131 166 198 238 290
#     4   9  19  33  49  68  94 125 162 201 239 279
#     4  10  19  31  47  73 100 128 166 204 240 284
#     4  11  21  35  50  69  97 132 166 200 242 289
#     4  10  18  29  47  71 100 130 161 201 240 278
#     4  11  21  34  49  70  97 130 166 204 243 284
#     4  10  18  33  51  68  93 131 169 200 236 284
#     4  10  20  31  44  69 103 130 157 199 245 289
#
# _framework density 15.416437
#
# number of rings (size 3 to 8) (size 9 to 14) (size 15 to 20)
#    0.000    2.000    3.750    1.125    0.000    1.750 
#    0.000    1.250    0.000    0.000    0.000    0.875 
#    0.000    3.000    0.000    0.000    0.000    0.000 
#
# Total GULP energy -178444.327904 kJ/mol
# GULP energy per Si atom -5576.385247 kJ/mol
# Density = 1.538135 g / cm^3
# Si number density = 15.416437 Si / 1000 Ang^3
#
#
#
# Elastic Constant Matrix: (Units=GPa)
#
#
# Indices 1 2 3 4 5 6 
#
# 1 40.2732 41.4073 34.1264 0.0000 0.0000 0.0000
# 2 41.4073 117.8312 46.2496 0.0000 0.0000 0.0000
# 3 34.1264 46.2496 85.3088 0.0001 -0.0001 0.0000
# 4 0.0000 0.0000 0.0001 22.1724 0.0000 0.0000
# 5 0.0000 0.0000 -0.0001 0.0000 19.2952 0.0000
# 6 0.0000 0.0000 0.0000 0.0000 0.0000 24.3787
#
#
#
# Elastic Compliance Matrix: (Units=1/GPa)
#
#
# Indices 1 2 3 4 5 6 
#
# 1 0.047699 -0.011779 -0.012695 0.000000 0.000000 0.000000
# 2 -0.011779 0.013690 -0.002710 0.000000 0.000000 0.000000
# 3 -0.012695 -0.002710 0.018270 0.000000 0.000000 0.000000
# 4 0.000000 0.000000 0.000000 0.045101 0.000000 0.000000
# 5 0.000000 0.000000 0.000000 0.000000 0.051826 0.000000
# 6 0.000000 0.000000 0.000000 0.000000 0.000000 0.041019
#
#
# Mechanical properties :
#
#
# Convention : Reuss Voigt Hill
#
# Bulk Modulus (GPa) = 39.54106 54.10884 46.82495
# Shear Modulus (GPa) = 17.83152 21.27793 19.55472
#
# Velocity S-wave (km/s) = 3.40465 3.71915 3.56537
# Velocity P-wave (km/s) = 6.41560 7.32237 6.88393
#
# Compressibility (1/GPa) = 0.02529016
#
# Stress axis : x y z
#
# Youngs Moduli (GPa) = 20.96498 73.04839 54.73541
#
# Poissons Ratio (x) = 0.86043 0.69488
# Poissons Ratio (y) = 0.24694 0.14832
# Poissons Ratio (z) = 0.26615 0.19794
#
# Static dielectric constant tensor:
#      x y z
#    x 1.524270 0.000000 0.000000 
#    y 0.000000 1.523200 0.000000 
#    z 0.000000 0.000000 1.499670 
# 
# From -- ./inp_files/17108.got.cif
#   From: 2010.05.17/outbox.cif.g08.bks.cpg/sg44_9_cif.got.tgz:17108.got - 2010.06.03 19:37:08.
