data_PCOD9373813
_publ_section_title
;
Structure prediction by ZEFSAII (Michael W. Deem and Ramdas Pophale) SiO2 
 PCOD9373813
Probable space group: I M M 2
;
_chemical_formula_sum "Si O2"
_cell_formula_units_Z 64
_cell_length_a 28.527576
_cell_length_b 8.462555
_cell_length_c 15.134231
_cell_angle_alpha 90.000000
_cell_angle_beta 90.000000
_cell_angle_gamma 90.000000
_cell_volume 3653.648249
_symmetry_space_group_name_H-M "I M M 2"
_symmetry_group_IT_number 44
_symmetry_cell_setting 'orthorhombic'
loop_
_space_group_symop_operation_xyz
x,y,z
-x,-y,z
-x,y,z
x,-y,z
1/2+x,1/2+y,1/2+z
1/2-x,1/2-y,1/2+z
1/2-x,1/2+y,1/2+z
1/2+x,1/2-y,1/2+z
loop_
_atom_site_type_symbol
_atom_site_label
_atom_site_fract_x
_atom_site_fract_y
_atom_site_fract_z
Si Si1 0.719226 0.691684 0.722710
Si Si2 0.134201 0.808723 0.345609
Si Si3 0.445982 0.811018 0.720475
Si Si4 0.674226 0.188603 0.222895
Si Si5 0.278194 0.691011 0.520039
Si Si6 0.826139 0.188693 0.527795
Si Si7 0.635623 0.690583 0.398417
Si Si8 0.446245 0.309057 0.527121
O O1 0.719889 0.500000 0.727537
O O2 0.679565 0.747493 0.789659
O O3 0.772269 0.746820 0.741442
O O4 0.708135 0.732691 0.620982
O O5 0.088218 0.749518 0.296301
O O6 0.140968 0.758952 0.447022
O O7 0.134233 0.000000 0.343569
O O8 0.500000 0.759559 0.734107
O O9 0.430971 0.746477 0.624409
O O10 0.444876 0.000000 0.717865
O O11 0.662654 0.239274 0.123204
O O12 0.640454 0.253123 0.298383
O O13 0.674812 0.000000 0.226775
O O14 0.274227 0.500000 0.516200
O O15 0.227155 0.763097 0.503584
O O16 0.318085 0.743411 0.452296
O O17 0.828279 0.000000 0.534892
O O18 0.635486 0.500000 0.399491
O O19 0.589860 0.744942 0.452110
O O20 0.500000 0.255739 0.513017
O O21 0.446081 0.500000 0.527400
#
# Coordination Sequence:
#
# PCOD9373813 Si02
#       8
#     8   8   8   8   8   8   8   8
#     4   8  15  29  47  69  98 129 161 195 233 282
#     4  10  19  32  52  73  95 128 167 204 242 287
#     4  10  21  35  51  75 105 130 155 195 243 290
#     4  10  20  34  50  68  97 136 170 202 244 291
#     4   9  17  29  46  70 102 135 161 193 242 294
#     4  10  20  33  49  71  99 130 167 209 245 283
#     4  10  19  31  50  75 100 127 165 209 246 285
#     4   9  18  34  55  76 100 131 162 194 239 293
#
# _framework density 17.516739000000001
#
# number of rings (size 3 to 8) (size 9 to 14) (size 15 to 20)
#    0.000    2.500    0.000    3.375    0.000    5.750 
#    0.000    5.625    0.000    0.750    0.000    1.750 
#    0.000    0.000    0.000    0.000    0.000    0.000 
#
# Total GULP energy -178538.845209 kJ/mol
# GULP energy per Si atom -5579.338913 kJ/mol
# Density = 1.747687 g / cm^3
# Si number density = 17.516739 Si / 1000 Ang^3
#
#
#
# Elastic Constant Matrix: (Units=GPa)
#
#
# Indices 1 2 3 4 5 6 
#
# 1 81.6470 15.3056 85.3246 0.0000 0.0000 0.0000
# 2 15.3056 9.2675 16.8677 0.0000 0.0000 0.0000
# 3 85.3246 16.8677 130.3012 0.0000 0.0000 0.0000
# 4 0.0000 0.0000 0.0000 20.8090 0.0000 0.0000
# 5 0.0000 0.0000 0.0000 0.0000 31.2860 0.0000
# 6 0.0000 0.0000 0.0000 0.0000 0.0000 19.2399
#
#
#
# Elastic Compliance Matrix: (Units=1/GPa)
#
#
# Indices 1 2 3 4 5 6 
#
# 1 0.043081 -0.025908 -0.024857 0.000000 0.000000 0.000000
# 2 -0.025908 0.156745 -0.003326 0.000000 0.000000 0.000000
# 3 -0.024857 -0.003326 0.024382 0.000000 0.000000 0.000000
# 4 0.000000 0.000000 0.000000 0.048056 0.000000 0.000000
# 5 0.000000 0.000000 0.000000 0.000000 0.031963 0.000000
# 6 0.000000 0.000000 0.000000 0.000000 0.000000 0.051975
#
#
# Mechanical properties :
#
#
# Convention : Reuss Voigt Hill
#
# Bulk Modulus (GPa) = 8.61866 50.69017 29.65442
# Shear Modulus (GPa) = 9.93919 21.18149 15.56034
#
# Velocity S-wave (km/s) = 2.38462 3.48115 2.98369
# Velocity P-wave (km/s) = 3.53735 6.72003 5.36990
#
# Compressibility (1/GPa) = 0.11602729
#
# Stress axis : x y z
#
# Youngs Moduli (GPa) = 23.21221 6.37977 41.01421
#
# Poissons Ratio (x) = 0.16529 1.01947
# Poissons Ratio (y) = 0.60138 0.13640
# Poissons Ratio (z) = 0.57698 0.02122
#
# Static dielectric constant tensor:
#      x y z
#    x 1.593570 0.000000 0.000000 
#    y 0.000000 1.598410 0.000000 
#    z 0.000000 0.000000 1.592980 
# 
# From -- ./inp_files/19461.got.cif
#   From: 2010.05.17/outbox.cif.g08.bks.cpg/sg44_10_cif.got.tgz:19461.got - 2010.06.03 19:37:08.
