data_PCOD9373467
_publ_section_title
;
Structure prediction by ZEFSAII (Michael W. Deem and Ramdas Pophale) SiO2 
 PCOD9373467
Probable space group: I M M 2
;
_chemical_formula_sum "Si O2"
_cell_formula_units_Z 56
_cell_length_a 8.832807
_cell_length_b 25.370527
_cell_length_c 14.661703
_cell_angle_alpha 90.000000
_cell_angle_beta 90.000000
_cell_angle_gamma 90.000000
_cell_volume 3285.584548
_symmetry_space_group_name_H-M "I M M 2"
_symmetry_group_IT_number 44
_symmetry_cell_setting 'orthorhombic'
loop_
_space_group_symop_operation_xyz
x,y,z
-x,-y,z
-x,y,z
x,-y,z
1/2+x,1/2+y,1/2+z
1/2-x,1/2-y,1/2+z
1/2-x,1/2+y,1/2+z
1/2+x,1/2-y,1/2+z
loop_
_atom_site_type_symbol
_atom_site_label
_atom_site_fract_x
_atom_site_fract_y
_atom_site_fract_z
Si Si1 0.681839 0.500000 0.190670
Si Si2 0.322648 0.109716 0.739639
Si Si3 0.676570 0.785553 0.050941
Si Si4 0.184762 0.000000 0.475963
Si Si5 0.682340 0.187502 0.246920
Si Si6 0.318567 0.294730 0.352705
Si Si7 0.322739 0.392055 0.883256
Si Si8 0.329711 0.661820 0.075870
O O1 0.500000 0.500000 0.192400
O O2 0.744647 0.552598 0.238180
O O3 0.729865 0.500000 0.082765
O O4 0.500000 0.104726 0.757311
O O5 0.249988 0.153140 0.806438
O O6 0.290291 0.133585 0.639312
O O7 0.500000 0.799259 0.033589
O O8 0.734110 0.814638 0.141737
O O9 0.679754 0.724327 0.080668
O O10 0.767389 0.791987 0.957765
O O11 0.233295 0.948173 0.420922
O O12 0.000000 0.000000 0.477842
O O13 0.500000 0.189693 0.244926
O O14 0.732864 0.241465 0.298750
O O15 0.735742 0.136986 0.303088
O O16 0.500000 0.296701 0.346285
O O17 0.500000 0.397389 0.858683
O O18 0.313486 0.354554 0.971570
O O19 0.500000 0.645028 0.105883
#
# Coordination Sequence:
#
# PCOD9373467 Si02
#       8
#     4   8   8   4   8   8   8   8
#     4  11  21  39  61  80 111 150 187 229 284 336
#     4  12  24  36  54  84 117 149 188 230 277 334
#     4  10  20  36  54  78 113 148 185 229 277 334
#     4   9  18  33  55  80 107 146 185 223 272 328
#     4  10  21  35  53  79 113 147 182 227 284 336
#     4  11  22  37  56  81 111 148 188 227 281 341
#     4  10  19  33  54  79 109 145 188 224 270 331
#     4  10  18  32  54  80 112 151 184 223 277 333
#
# _framework density 17.044150999999999
#
# number of rings (size 3 to 8) (size 9 to 14) (size 15 to 20)
#    0.000    1.571    4.286    1.929    0.000    2.286 
#    0.000    0.357    0.000    0.857    0.000    2.000 
#    0.000    0.000    0.000    0.000    0.000    0.000 
#
# Total GULP energy -156245.495934 kJ/mol
# GULP energy per Si atom -5580.196283 kJ/mol
# Density = 1.700536 g / cm^3
# Si number density = 17.044151 Si / 1000 Ang^3
#
#
#
# Elastic Constant Matrix: (Units=GPa)
#
#
# Indices 1 2 3 4 5 6 
#
# 1 46.4764 9.4872 19.3239 0.0000 0.0000 0.0000
# 2 9.4872 50.6831 9.6770 0.0000 0.0000 0.0000
# 3 19.3239 9.6770 68.7345 0.0000 0.0000 0.0000
# 4 0.0000 0.0000 0.0000 29.1959 0.0000 0.0000
# 5 0.0000 0.0000 0.0000 0.0000 30.4042 0.0000
# 6 0.0000 0.0000 0.0000 0.0000 0.0000 25.8512
#
#
#
# Elastic Compliance Matrix: (Units=1/GPa)
#
#
# Indices 1 2 3 4 5 6 
#
# 1 0.024928 -0.003420 -0.006527 0.000000 0.000000 0.000000
# 2 -0.003420 0.020745 -0.001959 0.000000 0.000000 0.000000
# 3 -0.006527 -0.001959 0.016659 0.000000 0.000000 0.000000
# 4 0.000000 0.000000 0.000000 0.034251 0.000000 0.000000
# 5 0.000000 0.000000 0.000000 0.000000 0.032890 0.000000
# 6 0.000000 0.000000 0.000000 0.000000 0.000000 0.038683
#
#
# Mechanical properties :
#
#
# Convention : Reuss Voigt Hill
#
# Bulk Modulus (GPa) = 25.96025 26.98560 26.47292
# Shear Modulus (GPa) = 24.41303 25.58399 24.99851
#
# Velocity S-wave (km/s) = 3.78873 3.87853 3.83390
# Velocity P-wave (km/s) = 5.86546 5.99370 5.92993
#
# Compressibility (1/GPa) = 0.03852044
#
# Stress axis : x y z
#
# Youngs Moduli (GPa) = 40.11540 48.20514 60.02597
#
# Poissons Ratio (x) = 0.16486 0.39177
# Poissons Ratio (y) = 0.13720 0.11760
# Poissons Ratio (z) = 0.26182 0.09444
#
# Static dielectric constant tensor:
#      x y z
#    x 1.586880 0.000000 0.000000 
#    y 0.000000 1.593000 0.000000 
#    z 0.000000 0.000000 1.571840 
# 
# From -- ./inp_files/16590.got.cif
#   From: 2010.05.17/outbox.cif.g08.bks.cpg/sg44_9_cif.got.tgz:16590.got - 2010.06.03 19:37:08.
