data_PCOD9373391
_publ_section_title
;
Structure prediction by ZEFSAII (Michael W. Deem and Ramdas Pophale) SiO2 
 PCOD9373391
Probable space group: I M M 2
;
_chemical_formula_sum "Si O2"
_cell_formula_units_Z 64
_cell_length_a 13.569894
_cell_length_b 22.921773
_cell_length_c 12.718710
_cell_angle_alpha 90.000000
_cell_angle_beta 90.000000
_cell_angle_gamma 90.000000
_cell_volume 3956.104251
_symmetry_space_group_name_H-M "I M M 2"
_symmetry_group_IT_number 44
_symmetry_cell_setting 'orthorhombic'
loop_
_space_group_symop_operation_xyz
x,y,z
-x,-y,z
-x,y,z
x,-y,z
1/2+x,1/2+y,1/2+z
1/2-x,1/2-y,1/2+z
1/2-x,1/2+y,1/2+z
1/2+x,1/2-y,1/2+z
loop_
_atom_site_type_symbol
_atom_site_label
_atom_site_fract_x
_atom_site_fract_y
_atom_site_fract_z
Si Si1 0.383552 0.670052 0.561790
Si Si2 0.615670 0.567534 0.398235
Si Si3 0.382441 0.068004 0.598637
Si Si4 0.246508 0.855929 0.746468
Si Si5 0.772676 0.332122 0.745032
Si Si6 0.614458 0.736912 0.121173
Si Si7 0.114982 0.430785 0.852680
Si Si8 0.732538 0.238508 0.919099
O O1 0.500000 0.682578 0.573468
O O2 0.372648 0.608437 0.500738
O O3 0.323401 0.667674 0.670527
O O4 0.327454 0.716956 0.487061
O O5 0.500000 0.570386 0.369558
O O6 0.641644 0.500000 0.416406
O O7 0.680191 0.596687 0.307088
O O8 0.500000 0.073043 0.612689
O O9 0.325396 0.111331 0.674899
O O10 0.361704 0.080629 0.475715
O O11 0.355763 0.000000 0.618417
O O12 0.178841 0.814222 0.674268
O O13 0.290377 0.813457 0.836773
O O14 0.855400 0.295891 0.681913
O O15 0.814079 0.394463 0.777926
O O16 0.754006 0.295021 0.849926
O O17 0.500000 0.724164 0.131712
O O18 0.647706 0.747397 0.001870
O O19 0.123478 0.500000 0.836349
O O20 0.000000 0.414597 0.836076
#
# Coordination Sequence:
#
# PCOD9373391 Si02
#       8
#     8   8   8   8   8   8   8   8
#     4   9  19  34  50  71  99 127 160 200 238 284
#     4   9  17  30  49  72  96 124 159 199 242 286
#     4   9  18  32  50  73 100 129 162 200 241 286
#     4  10  18  31  50  72  96 126 162 200 241 288
#     4  10  19  33  51  72  95 127 163 196 239 289
#     4  10  20  33  48  69  97 126 157 196 241 286
#     4   9  18  32  50  72  96 124 161 203 244 289
#     4   9  20  33  47  70  97 126 161 197 242 289
#
# _framework density 16.177531999999999
#
# number of rings (size 3 to 8) (size 9 to 14) (size 15 to 20)
#    0.000    2.625    0.000    2.625    0.000    5.000 
#    0.000    7.500    0.000    0.000    0.000   15.750 
#    0.000    0.000    0.000    0.000    0.000    0.000 
#
# Total GULP energy -178374.399888 kJ/mol
# GULP energy per Si atom -5574.199996 kJ/mol
# Density = 1.614071 g / cm^3
# Si number density = 16.177532 Si / 1000 Ang^3
#
#
#
# Elastic Constant Matrix: (Units=GPa)
#
#
# Indices 1 2 3 4 5 6 
#
# 1 68.7231 35.2854 52.4931 0.0000 0.0000 0.0000
# 2 35.2854 63.2298 41.1660 0.0001 0.0000 0.0000
# 3 52.4931 41.1660 93.8696 0.0001 0.0000 0.0000
# 4 0.0000 0.0001 0.0001 20.6317 0.0000 0.0000
# 5 0.0000 0.0000 0.0000 0.0000 18.6677 0.0000
# 6 0.0000 0.0000 0.0000 0.0000 0.0000 22.3007
#
#
#
# Elastic Compliance Matrix: (Units=1/GPa)
#
#
# Indices 1 2 3 4 5 6 
#
# 1 0.027748 -0.007533 -0.012213 0.000000 0.000000 0.000000
# 2 -0.007533 0.024180 -0.006392 0.000000 0.000000 0.000000
# 3 -0.012213 -0.006392 0.020286 0.000000 0.000000 0.000000
# 4 0.000000 0.000000 0.000000 0.048469 0.000000 0.000000
# 5 0.000000 0.000000 0.000000 0.000000 0.053569 0.000000
# 6 0.000000 0.000000 0.000000 0.000000 0.000000 0.044842
#
#
# Mechanical properties :
#
#
# Convention : Reuss Voigt Hill
#
# Bulk Modulus (GPa) = 50.15517 53.74573 51.95045
# Shear Modulus (GPa) = 17.98456 18.77855 18.38156
#
# Velocity S-wave (km/s) = 3.33783 3.41072 3.37447
# Velocity P-wave (km/s) = 6.77681 6.98607 6.88224
#
# Compressibility (1/GPa) = 0.01993813
#
# Stress axis : x y z
#
# Youngs Moduli (GPa) = 36.03855 41.35570 49.29518
#
# Poissons Ratio (x) = 0.31154 0.60206
# Poissons Ratio (y) = 0.27149 0.31507
# Poissons Ratio (z) = 0.44015 0.26433
#
# Static dielectric constant tensor:
#      x y z
#    x 1.521380 0.000000 0.000000 
#    y 0.000000 1.537150 0.000000 
#    z 0.000000 0.000000 1.541850 
# 
# From -- ./inp_files/12632.got.cif
#   From: 2010.05.17/outbox.cif.g08.bks.cpg/sg44_7_cif.got.tgz:12632.got - 2010.06.03 19:37:08.
