data_PCOD9373513
_publ_section_title
;
Structure prediction by ZEFSAII (Michael W. Deem and Ramdas Pophale) SiO2 
 PCOD9373513
Probable space group: I M M 2
;
_chemical_formula_sum "Si O2"
_cell_formula_units_Z 48
_cell_length_a 8.588403
_cell_length_b 10.599572
_cell_length_c 29.018194
_cell_angle_alpha 90.000000
_cell_angle_beta 90.000000
_cell_angle_gamma 90.000000
_cell_volume 2641.624745
_symmetry_space_group_name_H-M "I M M 2"
_symmetry_group_IT_number 44
_symmetry_cell_setting 'orthorhombic'
loop_
_space_group_symop_operation_xyz
x,y,z
-x,-y,z
-x,y,z
x,-y,z
1/2+x,1/2+y,1/2+z
1/2-x,1/2-y,1/2+z
1/2-x,1/2+y,1/2+z
1/2+x,1/2-y,1/2+z
loop_
_atom_site_type_symbol
_atom_site_label
_atom_site_fract_x
_atom_site_fract_y
_atom_site_fract_z
Si Si1 0.688037 0.753785 0.212700
Si Si2 0.687705 0.646313 0.619743
Si Si3 0.312651 0.350974 0.515358
Si Si4 0.812616 0.000000 0.870415
Si Si5 0.687130 0.000000 0.376094
Si Si6 0.310050 0.500000 0.263527
Si Si7 0.310209 0.000000 0.269410
Si Si8 0.684830 0.753296 0.922283
O O1 0.500000 0.754159 0.212736
O O2 0.745033 0.770593 0.160643
O O3 0.741357 0.625687 0.237118
O O4 0.740993 0.875048 0.242294
O O5 0.500000 0.648900 0.621460
O O6 0.736475 0.500000 0.627014
O O7 0.733413 0.682824 0.567674
O O8 0.500000 0.338957 0.511582
O O9 0.276430 0.500000 0.508776
O O10 0.233513 0.271411 0.475445
O O11 0.763287 0.000000 0.816933
O O12 0.752028 0.874713 0.895428
O O13 0.000000 0.000000 0.872652
O O14 0.746869 0.125599 0.401000
O O15 0.500000 0.000000 0.376696
O O16 0.738871 0.000000 0.322572
O O17 0.500000 0.500000 0.263432
O O18 0.500000 0.000000 0.269242
O O19 0.500000 0.752451 0.918110
#
# Coordination Sequence:
#
# PCOD9373513 Si02
#       8
#     8   8   8   4   4   4   4   8
#     4  10  18  33  55  81 109 140 181 232 279 321
#     4   9  18  33  54  82 111 140 181 230 274 327
#     4   9  18  35  59  82 107 146 193 231 273 343
#     4  11  21  39  64  83 108 157 206 235 274 343
#     4  11  23  41  62  81 112 161 202 229 274 347
#     4   9  20  35  54  79 110 147 190 231 268 325
#     4   9  18  33  56  81 102 137 194 237 262 319
#     4  12  24  38  57  89 123 146 183 245 300 336
#
# _framework density 18.170635999999998
#
# number of rings (size 3 to 8) (size 9 to 14) (size 15 to 20)
#    0.000    2.000    1.667    4.000    0.000    3.333 
#    0.000    7.917    0.000    4.000    0.000    0.000 
#    0.000    0.000    0.000    0.000    0.000    0.000 
#
# Total GULP energy -134016.562590 kJ/mol
# GULP energy per Si atom -5584.023441 kJ/mol
# Density = 1.812928 g / cm^3
# Si number density = 18.170636 Si / 1000 Ang^3
#
#
#
# Elastic Constant Matrix: (Units=GPa)
#
#
# Indices 1 2 3 4 5 6 
#
# 1 44.8935 34.4699 40.2683 0.0000 0.0000 0.0000
# 2 34.4699 147.7806 94.0554 0.0000 0.0000 0.0000
# 3 40.2683 94.0554 179.3006 0.0000 0.0000 0.0000
# 4 0.0000 0.0000 0.0000 3.2601 0.0000 0.0000
# 5 0.0000 0.0000 0.0000 0.0000 28.1487 0.0000
# 6 0.0000 0.0000 0.0000 0.0000 0.0000 19.9894
#
#
#
# Elastic Compliance Matrix: (Units=1/GPa)
#
#
# Indices 1 2 3 4 5 6 
#
# 1 0.029377 -0.003983 -0.004508 0.000000 0.000000 0.000000
# 2 -0.003983 0.010698 -0.004717 0.000000 0.000000 0.000000
# 3 -0.004508 -0.004717 0.009064 0.000000 0.000000 0.000000
# 4 0.000000 0.000000 0.000000 0.306737 0.000000 0.000000
# 5 0.000000 0.000000 0.000000 0.000000 0.035526 0.000000
# 6 0.000000 0.000000 0.000000 0.000000 0.000000 0.050026
#
#
# Mechanical properties :
#
#
# Convention : Reuss Voigt Hill
#
# Bulk Modulus (GPa) = 44.00986 78.84022 61.42504
# Shear Modulus (GPa) = 10.51701 23.82507 17.17104
#
# Velocity S-wave (km/s) = 2.40842 3.62496 3.07740
# Velocity P-wave (km/s) = 5.65746 7.81047 6.81947
#
# Compressibility (1/GPa) = 0.02272218
#
# Stress axis : x y z
#
# Youngs Moduli (GPa) = 34.04043 93.47347 110.32208
#
# Poissons Ratio (x) = 0.37229 0.49737
# Poissons Ratio (y) = 0.13558 0.52044
# Poissons Ratio (z) = 0.15347 0.44096
#
# Static dielectric constant tensor:
#      x y z
#    x 1.617770 0.000000 0.000000 
#    y 0.000000 1.583930 0.000000 
#    z 0.000000 0.000000 1.616220 
# 
# From -- ./inp_files/27003.got.cif
#   From: 2010.05.17/outbox.cif.g08.bks.cpg/sg44_14_cif.got.tgz:27003.got - 2010.06.03 19:37:08.
