data_PCOD9373232
_publ_section_title
;
Structure prediction by ZEFSAII (Michael W. Deem and Ramdas Pophale) SiO2 
 PCOD9373232
Probable space group: I M M 2
;
_chemical_formula_sum "Si O2"
_cell_formula_units_Z 56
_cell_length_a 33.696473
_cell_length_b 7.731439
_cell_length_c 14.022555
_cell_angle_alpha 90.000000
_cell_angle_beta 90.000000
_cell_angle_gamma 90.000000
_cell_volume 3653.187236
_symmetry_space_group_name_H-M "I M M 2"
_symmetry_group_IT_number 44
_symmetry_cell_setting 'orthorhombic'
loop_
_space_group_symop_operation_xyz
x,y,z
-x,-y,z
-x,y,z
x,-y,z
1/2+x,1/2+y,1/2+z
1/2-x,1/2-y,1/2+z
1/2-x,1/2+y,1/2+z
1/2+x,1/2-y,1/2+z
loop_
_atom_site_type_symbol
_atom_site_label
_atom_site_fract_x
_atom_site_fract_y
_atom_site_fract_z
Si Si1 0.768811 0.706954 0.681210
Si Si2 0.689312 0.788886 0.370901
Si Si3 0.396015 0.804724 0.686711
Si Si4 0.687422 0.289861 0.775617
Si Si5 0.545344 0.500000 0.690244
Si Si6 0.605908 0.204206 0.459053
Si Si7 0.954855 0.000000 0.958603
Si Si8 0.729959 0.292954 0.965771
O O1 0.767699 0.500000 0.689505
O O2 0.798525 0.767740 0.764375
O O3 0.724249 0.766835 0.708366
O O4 0.780126 0.749840 0.573825
O O5 0.646384 0.736669 0.408029
O O6 0.725701 0.730750 0.438334
O O7 0.688970 0.000000 0.372865
O O8 0.354442 0.778905 0.740195
O O9 0.428926 0.667056 0.718056
O O10 0.388439 0.779021 0.573389
O O11 0.410366 0.000000 0.699891
O O12 0.685393 0.500000 0.772775
O O13 0.700122 0.234600 0.882424
O O14 0.500000 0.500000 0.724826
O O15 0.543663 0.500000 0.574457
O O16 0.569849 0.329181 0.431073
O O17 0.598804 0.000000 0.439351
O O18 0.000000 0.000000 0.923610
O O19 0.731078 0.500000 0.957847
#
# Coordination Sequence:
#
# PCOD9373232 Si02
#       8
#     8   8   8   8   4   8   4   8
#     4   9  17  28  42  59  84 118 151 187 226 260
#     4   8  15  29  43  57  84 119 149 180 222 262
#     4  10  18  28  47  68  87 119 156 183 215 267
#     4   9  17  29  43  59  87 123 151 183 228 266
#     4   9  18  32  46  64  95 121 143 187 232 266
#     4   9  17  29  45  64  88 119 149 180 219 263
#     4   9  18  30  44  66  91 115 147 185 222 266
#     4   9  17  29  42  58  86 119 149 187 228 260
#
# _framework density 15.329079999999999
#
# number of rings (size 3 to 8) (size 9 to 14) (size 15 to 20)
#    0.000    3.000    0.714    2.571    0.000    2.857 
#    2.571    4.286    0.000    0.000    0.000    0.000 
#    0.000    2.286    0.000    3.714    0.000    0.286 
#
# Total GULP energy -155986.996257 kJ/mol
# GULP energy per Si atom -5570.964152 kJ/mol
# Density = 1.529419 g / cm^3
# Si number density = 15.329080 Si / 1000 Ang^3
#
#
#
# Elastic Constant Matrix: (Units=GPa)
#
#
# Indices 1 2 3 4 5 6 
#
# 1 135.0639 54.1447 39.4293 0.0000 0.0000 0.0000
# 2 54.1447 59.9626 23.6316 0.0000 0.0000 0.0000
# 3 39.4293 23.6316 64.7619 0.0000 0.0000 0.0000
# 4 0.0000 0.0000 0.0000 15.9495 0.0000 0.0000
# 5 0.0000 0.0000 0.0000 0.0000 17.5617 0.0000
# 6 0.0000 0.0000 0.0000 0.0000 0.0000 16.1327
#
#
#
# Elastic Compliance Matrix: (Units=1/GPa)
#
#
# Indices 1 2 3 4 5 6 
#
# 1 0.012458 -0.009647 -0.004064 0.000000 0.000000 0.000000
# 2 -0.009647 0.026949 -0.003960 0.000000 0.000000 0.000000
# 3 -0.004064 -0.003960 0.019361 0.000000 0.000000 0.000000
# 4 0.000000 0.000000 0.000000 0.062698 0.000000 0.000000
# 5 0.000000 0.000000 0.000000 0.000000 0.056942 0.000000
# 6 0.000000 0.000000 0.000000 0.000000 0.000000 0.061986
#
#
# Mechanical properties :
#
#
# Convention : Reuss Voigt Hill
#
# Bulk Modulus (GPa) = 42.69133 54.91107 48.80120
# Shear Modulus (GPa) = 17.63386 19.43430 18.53408
#
# Velocity S-wave (km/s) = 3.39537 3.56449 3.48095
# Velocity P-wave (km/s) = 6.57888 7.26912 6.93260
#
# Compressibility (1/GPa) = 0.02342396
#
# Stress axis : x y z
#
# Youngs Moduli (GPa) = 80.27045 37.10714 51.65072
#
# Poissons Ratio (x) = 0.35798 0.20993
# Poissons Ratio (y) = 0.77439 0.20454
# Poissons Ratio (z) = 0.32626 0.14695
#
# Static dielectric constant tensor:
#      x y z
#    x 1.489380 0.000000 0.000000 
#    y 0.000000 1.555160 0.000000 
#    z 0.000000 0.000000 1.507910 
# 
# From -- ./inp_files/19674.got.cif
#   From: 2010.05.17/outbox.cif.g08.bks.cpg/sg44_10_cif.got.tgz:19674.got - 2010.06.03 19:37:08.
