data_PCOD9373670
_publ_section_title
;
Structure prediction by ZEFSAII (Michael W. Deem and Ramdas Pophale) SiO2 
 PCOD9373670
Probable space group: I M M 2
;
_chemical_formula_sum "Si O2"
_cell_formula_units_Z 64
_cell_length_a 8.010979
_cell_length_b 24.316489
_cell_length_c 19.649847
_cell_angle_alpha 90.000000
_cell_angle_beta 90.000000
_cell_angle_gamma 90.000000
_cell_volume 3827.768241
_symmetry_space_group_name_H-M "I M M 2"
_symmetry_group_IT_number 44
_symmetry_cell_setting 'orthorhombic'
loop_
_space_group_symop_operation_xyz
x,y,z
-x,-y,z
-x,y,z
x,-y,z
1/2+x,1/2+y,1/2+z
1/2-x,1/2-y,1/2+z
1/2-x,1/2+y,1/2+z
1/2+x,1/2-y,1/2+z
loop_
_atom_site_type_symbol
_atom_site_label
_atom_site_fract_x
_atom_site_fract_y
_atom_site_fract_z
Si Si1 0.307107 0.261963 0.138740
Si Si2 0.801598 0.756969 0.990483
Si Si3 0.799400 0.561851 0.339978
Si Si4 0.704669 0.437063 0.624807
Si Si5 0.201978 0.772238 0.343954
Si Si6 0.804668 0.841958 0.220614
Si Si7 0.798115 0.883557 0.981830
Si Si8 0.798272 0.665639 0.258182
O O1 0.500000 0.249219 0.149950
O O2 0.207700 0.209526 0.168561
O O3 0.260015 0.314365 0.184419
O O4 0.272809 0.267960 0.059166
O O5 0.760074 0.725453 0.921175
O O6 0.740081 0.820150 0.982501
O O7 0.000000 0.759051 0.999213
O O8 0.733519 0.500000 0.331602
O O9 0.761491 0.584893 0.415004
O O10 0.737380 0.607227 0.286046
O O11 0.000000 0.559728 0.333051
O O12 0.500000 0.435936 0.625342
O O13 0.756748 0.500000 0.633706
O O14 0.765948 0.395381 0.683156
O O15 0.755516 0.413545 0.551180
O O16 0.264495 0.819257 0.292066
O O17 0.255024 0.713890 0.310660
O O18 0.000000 0.772919 0.343062
O O19 0.000000 0.853155 0.232353
O O20 0.000000 0.883245 0.980611
O O21 0.000000 0.665336 0.257913
#
# Coordination Sequence:
#
# PCOD9373670 Si02
#       8
#     8   8   8   8   8   8   8   8
#     4  11  21  31  48  70  93 121 158 199 241 286
#     4  11  20  31  48  69  95 126 158 193 238 286
#     4  10  20  33  49  69  96 131 166 197 233 278
#     4   9  16  28  47  68  91 124 163 193 223 270
#     4   9  17  29  47  67  92 124 155 192 237 278
#     4   9  17  32  48  67  95 125 155 194 238 277
#     4  10  19  30  45  66  97 131 165 199 228 268
#     4   9  18  33  49  67  95 127 158 195 238 280
#
# _framework density 16.719926000000001
#
# number of rings (size 3 to 8) (size 9 to 14) (size 15 to 20)
#    0.000    2.250    2.500    2.625    0.000    3.750 
#    0.000    0.000    0.000    0.375    0.000    0.875 
#    0.000    3.000    0.000    0.000    0.000    0.000 
#
# Total GULP energy -178484.833331 kJ/mol
# GULP energy per Si atom -5577.651042 kJ/mol
# Density = 1.668187 g / cm^3
# Si number density = 16.719926 Si / 1000 Ang^3
#
#
#
# Elastic Constant Matrix: (Units=GPa)
#
#
# Indices 1 2 3 4 5 6 
#
# 1 9.9364 6.0103 -0.3921 0.0000 0.0000 0.0000
# 2 6.0103 113.9885 76.9923 0.0000 0.0000 0.0000
# 3 -0.3921 76.9923 131.7475 0.0000 0.0000 0.0000
# 4 0.0000 0.0000 0.0000 21.1523 0.0000 0.0000
# 5 0.0000 0.0000 0.0000 0.0000 20.5379 0.0000
# 6 0.0000 0.0000 0.0000 0.0000 0.0000 9.7217
#
#
#
# Elastic Compliance Matrix: (Units=1/GPa)
#
#
# Indices 1 2 3 4 5 6 
#
# 1 0.106713 -0.009650 0.005957 0.000000 0.000000 0.000000
# 2 -0.009650 0.015367 -0.009009 0.000000 0.000000 0.000000
# 3 0.005957 -0.009009 0.012873 0.000000 0.000000 0.000000
# 4 0.000000 0.000000 0.000000 0.047276 0.000000 0.000000
# 5 0.000000 0.000000 0.000000 0.000000 0.048690 0.000000
# 6 0.000000 0.000000 0.000000 0.000000 0.000000 0.102862
#
#
# Mechanical properties :
#
#
# Convention : Reuss Voigt Hill
#
# Bulk Modulus (GPa) = 9.12842 46.76592 27.94717
# Shear Modulus (GPa) = 12.63580 21.81985 17.22782
#
# Velocity S-wave (km/s) = 2.75204 3.61643 3.21343
# Velocity P-wave (km/s) = 3.94586 6.74307 5.52443
#
# Compressibility (1/GPa) = 0.10954796
#
# Stress axis : x y z
#
# Youngs Moduli (GPa) = 9.37096 65.07634 77.68377
#
# Poissons Ratio (x) = 0.62802 -0.46278
# Poissons Ratio (y) = 0.09043 0.69984
# Poissons Ratio (z) = -0.05583 0.58626
#
# Static dielectric constant tensor:
#      x y z
#    x 1.597550 0.000000 0.000000 
#    y 0.000000 1.564450 0.000000 
#    z 0.000000 0.000000 1.556890 
# 
# From -- ./inp_files/20863.got.cif
#   From: 2010.05.17/outbox.cif.g08.bks.cpg/sg44_11_cif.got.tgz:20863.got - 2010.06.03 19:37:08.
