data_PCOD9373310
_publ_section_title
;
Structure prediction by ZEFSAII (Michael W. Deem and Ramdas Pophale) SiO2 
 PCOD9373310
Probable space group: I M M 2
;
_chemical_formula_sum "Si O2"
_cell_formula_units_Z 64
_cell_length_a 23.814115
_cell_length_b 7.541776
_cell_length_c 19.963369
_cell_angle_alpha 90.000000
_cell_angle_beta 90.000000
_cell_angle_gamma 90.000000
_cell_volume 3585.435465
_symmetry_space_group_name_H-M "I M M 2"
_symmetry_group_IT_number 44
_symmetry_cell_setting 'orthorhombic'
loop_
_space_group_symop_operation_xyz
x,y,z
-x,-y,z
-x,y,z
x,-y,z
1/2+x,1/2+y,1/2+z
1/2-x,1/2-y,1/2+z
1/2-x,1/2+y,1/2+z
1/2+x,1/2-y,1/2+z
loop_
_atom_site_type_symbol
_atom_site_label
_atom_site_fract_x
_atom_site_fract_y
_atom_site_fract_z
Si Si1 0.667170 0.786070 0.324660
Si Si2 0.723254 0.281905 0.908054
Si Si3 0.739091 0.708844 0.200917
Si Si4 0.935506 0.217451 0.182188
Si Si5 0.063662 0.286515 0.909208
Si Si6 0.872608 0.210538 0.047198
Si Si7 0.743602 0.296265 0.052854
Si Si8 0.847150 0.204367 0.286676
O O1 0.717032 0.729055 0.375312
O O2 0.686742 0.731094 0.250796
O O3 0.607677 0.722697 0.352982
O O4 0.666833 0.000000 0.325527
O O5 0.723212 0.500000 0.908222
O O6 0.675366 0.219724 0.856617
O O7 0.719139 0.218685 0.984196
O O8 0.751978 0.500000 0.195323
O O9 0.731172 0.781662 0.126049
O O10 0.792979 0.792403 0.237554
O O11 0.905504 0.272426 0.113285
O O12 0.898673 0.281483 0.244986
O O13 0.000000 0.272732 0.184297
O O14 0.934535 0.000000 0.182445
O O15 0.061405 0.500000 0.903889
O O16 0.000000 0.219024 0.904086
O O17 0.090967 0.245329 0.981173
O O18 0.811017 0.294012 0.043639
O O19 0.863814 0.000000 0.053207
O O20 0.724032 0.500000 0.055322
O O21 0.861597 0.000000 0.300363
#
# Coordination Sequence:
#
# PCOD9373310 Si02
#       8
#     8   8   8   8   8   8   8   8
#     4   9  17  31  48  64  87 118 150 185 225 272
#     4   8  14  26  45  62  80 111 146 179 219 263
#     4  10  19  28  44  66  90 115 145 189 230 268
#     4   9  17  28  42  62  89 119 150 184 221 259
#     4  10  20  34  50  66  88 123 162 193 223 267
#     4  11  20  29  43  65  96 125 154 188 221 262
#     4  10  18  30  45  64  91 121 153 184 223 274
#     4   9  16  29  46  62  83 114 150 185 222 268
#
# _framework density 17.849993999999999
#
# number of rings (size 3 to 8) (size 9 to 14) (size 15 to 20)
#    0.000    2.500    2.500    1.875    0.000    1.750 
#    0.000    0.000    0.000    1.125    0.000    0.875 
#    0.000    3.000    0.000    0.000    0.000    0.000 
#
# Total GULP energy -178468.892796 kJ/mol
# GULP energy per Si atom -5577.152900 kJ/mol
# Density = 1.780937 g / cm^3
# Si number density = 17.849994 Si / 1000 Ang^3
#
#
#
# Elastic Constant Matrix: (Units=GPa)
#
#
# Indices 1 2 3 4 5 6 
#
# 1 70.1096 -6.1779 54.8237 0.0000 0.0000 0.0000
# 2 -6.1779 45.6529 -6.6583 0.0000 0.0000 0.0000
# 3 54.8237 -6.6583 157.3122 0.0000 0.0000 0.0000
# 4 0.0000 0.0000 0.0000 10.4880 0.0000 0.0000
# 5 0.0000 0.0000 0.0000 0.0000 22.2120 0.0000
# 6 0.0000 0.0000 0.0000 0.0000 0.0000 7.6911
#
#
#
# Elastic Compliance Matrix: (Units=1/GPa)
#
#
# Indices 1 2 3 4 5 6 
#
# 1 0.019733 0.001678 -0.006806 0.000000 0.000000 0.000000
# 2 0.001678 0.022183 0.000354 0.000000 0.000000 0.000000
# 3 -0.006806 0.000354 0.008744 0.000000 0.000000 0.000000
# 4 0.000000 0.000000 0.000000 0.095347 0.000000 0.000000
# 5 0.000000 0.000000 0.000000 0.000000 0.045021 0.000000
# 6 0.000000 0.000000 0.000000 0.000000 0.000000 0.130020
#
#
# Mechanical properties :
#
#
# Convention : Reuss Voigt Hill
#
# Bulk Modulus (GPa) = 24.32389 39.67222 31.99805
# Shear Modulus (GPa) = 14.52220 23.48405 19.00313
#
# Velocity S-wave (km/s) = 2.85541 3.63110 3.26636
# Velocity P-wave (km/s) = 4.95253 6.31296 5.67367
#
# Compressibility (1/GPa) = 0.04111185
#
# Stress axis : x y z
#
# Youngs Moduli (GPa) = 50.67539 45.07939 114.36755
#
# Poissons Ratio (x) = -0.07563 0.77840
# Poissons Ratio (y) = -0.08502 -0.04051
# Poissons Ratio (z) = 0.34490 -0.01597
#
# Static dielectric constant tensor:
#      x y z
#    x 1.585160 0.000000 0.000000 
#    y 0.000000 1.682170 0.000000 
#    z 0.000000 0.000000 1.634130 
# 
# From -- ./inp_files/20853.got.cif
#   From: 2010.05.17/outbox.cif.g08.bks.cpg/sg44_11_cif.got.tgz:20853.got - 2010.06.03 19:37:08.
