data_PCOD9373893
_publ_section_title
;
Structure prediction by ZEFSAII (Michael W. Deem and Ramdas Pophale) SiO2 
 PCOD9373893
Probable space group: I M M 2
;
_chemical_formula_sum "Si O2"
_cell_formula_units_Z 48
_cell_length_a 12.871861
_cell_length_b 7.368707
_cell_length_c 22.636347
_cell_angle_alpha 90.000000
_cell_angle_beta 90.000000
_cell_angle_gamma 90.000000
_cell_volume 2147.034249
_symmetry_space_group_name_H-M "I M M 2"
_symmetry_group_IT_number 44
_symmetry_cell_setting 'orthorhombic'
loop_
_space_group_symop_operation_xyz
x,y,z
-x,-y,z
-x,y,z
x,-y,z
1/2+x,1/2+y,1/2+z
1/2-x,1/2-y,1/2+z
1/2-x,1/2+y,1/2+z
1/2+x,1/2-y,1/2+z
loop_
_atom_site_type_symbol
_atom_site_label
_atom_site_fract_x
_atom_site_fract_y
_atom_site_fract_z
Si Si1 0.000000 0.719228 0.373981
Si Si2 0.614924 0.220562 0.298653
Si Si3 0.841281 0.289242 0.471865
Si Si4 0.114383 0.721584 0.602347
Si Si5 0.724766 0.722236 0.700484
Si Si6 0.500000 0.711715 0.734620
Si Si7 0.885776 0.718795 0.934720
O O1 0.900669 0.781046 0.413498
O O2 0.000000 0.500000 0.369719
O O3 0.000000 0.780307 0.306179
O O4 0.500000 0.275138 0.277705
O O5 0.707086 0.280359 0.256826
O O6 0.625696 0.277655 0.366503
O O7 0.616119 0.000000 0.298554
O O8 0.871210 0.500000 0.473500
O O9 0.875594 0.213370 0.534936
O O10 0.717445 0.277382 0.467633
O O11 0.117469 0.500000 0.601958
O O12 0.209936 0.779524 0.643178
O O13 0.000000 0.771959 0.625515
O O14 0.723232 0.500000 0.700571
O O15 0.607287 0.787037 0.708571
O O16 0.500000 0.500000 0.718621
O O17 0.886346 0.500000 0.935230
O O18 0.000000 0.778890 0.956105
#
# Coordination Sequence:
#
# PCOD9373893 Si02
#       7
#     4   8   8   8   8   4   8
#     4  10  20  34  52  74 106 142 175 212 256 306
#     4   8  13  23  41  65  90 118 153 192 236 286
#     4  10  19  32  50  74 101 131 171 215 254 299
#     4   9  16  29  48  69  96 129 165 208 258 305
#     4   9  16  26  43  69  98 124 155 200 251 299
#     4  10  20  32  48  76 106 130 165 212 260 312
#     4   9  18  32  49  71 102 134 164 202 251 307
#
# _framework density 22.35642
#
# number of rings (size 3 to 8) (size 9 to 14) (size 15 to 20)
#    0.000    2.833    0.833    2.500    0.000    4.333 
#    1.500    0.000    0.000    1.000    0.000    0.000 
#    0.000    2.667    0.000    0.000    0.000    0.000 
#
# Total GULP energy -133979.751951 kJ/mol
# GULP energy per Si atom -5582.489665 kJ/mol
# Density = 2.230554 g / cm^3
# Si number density = 22.356420 Si / 1000 Ang^3
#
#
#
# Elastic Constant Matrix: (Units=GPa)
#
#
# Indices 1 2 3 4 5 6 
#
# 1 214.0144 1.5850 74.0426 0.0000 0.0000 0.0000
# 2 1.5850 78.8490 -3.3340 0.0000 0.0000 0.0000
# 3 74.0426 -3.3340 85.3490 0.0000 0.0000 0.0000
# 4 0.0000 0.0000 0.0000 3.0773 0.0000 0.0000
# 5 0.0000 0.0000 0.0000 0.0000 32.7504 0.0000
# 6 0.0000 0.0000 0.0000 0.0000 0.0000 -0.6792
#
#
#
# Elastic Compliance Matrix: (Units=1/GPa)
#
#
# Indices 1 2 3 4 5 6 
#
# 1 0.006688 -0.000380 -0.005817 0.000000 0.000000 0.000000
# 2 -0.000380 0.012725 0.000827 0.000000 0.000000 0.000000
# 3 -0.005817 0.000827 0.016795 0.000000 0.000000 0.000000
# 4 0.000000 0.000000 0.000000 0.324961 0.000000 0.000000
# 5 0.000000 0.000000 0.000000 0.000000 0.030534 0.000000
# 6 0.000000 0.000000 0.000000 0.000000 0.000000 -1.472340
#
#
# Mechanical properties :
#
#
# Convention : Reuss Voigt Hill
#
# Bulk Modulus (GPa) = 39.26508 58.08884 48.67696
# Shear Modulus (GPa) = -4.71073 27.42430 11.35679
#
# Velocity S-wave (km/s) = -1.45316 3.50621 2.25630
# Velocity P-wave (km/s) = 3.84523 6.51389 5.34867
#
# Compressibility (1/GPa) = 0.02546792
#
# Stress axis : x y z
#
# Youngs Moduli (GPa) = 149.52577 78.58496 59.54129
#
# Poissons Ratio (x) = 0.02989 0.34633
# Poissons Ratio (y) = 0.05688 -0.04925
# Poissons Ratio (z) = 0.86975 -0.06500
#
# Static dielectric constant tensor:
#      x y z
#    x 1.848010 0.000000 0.000000 
#    y 0.000000 1.895560 0.000000 
#    z 0.000000 0.000000 1.786880 
# 
# From -- ./inp_files/23733.got.cif
#   From: 2010.05.17/outbox.cif.g08.bks.cpg/sg44_12_cif.got.tgz:23733.got - 2010.06.03 19:37:08.
