data_PCOD9373223
_publ_section_title
;
Structure prediction by ZEFSAII (Michael W. Deem and Ramdas Pophale) SiO2 
 PCOD9373223
Probable space group: I M M 2
;
_chemical_formula_sum "Si O2"
_cell_formula_units_Z 64
_cell_length_a 28.137162
_cell_length_b 7.879239
_cell_length_c 15.358365
_cell_angle_alpha 90.000000
_cell_angle_beta 90.000000
_cell_angle_gamma 90.000000
_cell_volume 3404.940677
_symmetry_space_group_name_H-M "I M M 2"
_symmetry_group_IT_number 44
_symmetry_cell_setting 'orthorhombic'
loop_
_space_group_symop_operation_xyz
x,y,z
-x,-y,z
-x,y,z
x,-y,z
1/2+x,1/2+y,1/2+z
1/2-x,1/2-y,1/2+z
1/2-x,1/2+y,1/2+z
1/2+x,1/2-y,1/2+z
loop_
_atom_site_type_symbol
_atom_site_label
_atom_site_fract_x
_atom_site_fract_y
_atom_site_fract_z
Si Si1 0.140860 0.299753 0.536620
Si Si2 0.362852 0.208111 0.476645
Si Si3 0.833078 0.697689 0.351802
Si Si4 0.828655 0.292748 0.159543
Si Si5 0.054208 0.797385 0.654055
Si Si6 0.725633 0.803504 0.362133
Si Si7 0.719980 0.300943 0.172812
Si Si8 0.554168 0.204773 0.350365
O O1 0.150539 0.500000 0.531295
O O2 0.143251 0.228374 0.438517
O O3 0.091030 0.272734 0.584442
O O4 0.182090 0.224711 0.597315
O O5 0.359163 0.262546 0.576822
O O6 0.314949 0.261481 0.426395
O O7 0.408556 0.265742 0.422291
O O8 0.363051 0.000000 0.474990
O O9 0.846733 0.500000 0.347045
O O10 0.842894 0.770728 0.255630
O O11 0.776114 0.710440 0.364992
O O12 0.830110 0.500000 0.161240
O O13 0.773184 0.246450 0.145958
O O14 0.069339 0.753087 0.752619
O O15 0.000000 0.734285 0.643069
O O16 0.053976 0.000000 0.646297
O O17 0.707236 0.791537 0.262791
O O18 0.735047 0.000000 0.383978
O O19 0.722312 0.500000 0.194200
O O20 0.500000 0.266562 0.363099
O O21 0.553248 0.000000 0.354336
#
# Coordination Sequence:
#
# PCOD9373223 Si02
#       8
#     8   8   8   8   8   8   8   8
#     4  11  21  32  49  72  97 127 163 201 243 291
#     4   9  16  26  44  68  92 121 157 192 230 279
#     4   9  19  33  47  66  95 130 163 198 241 285
#     4   8  15  29  46  64  91 127 162 196 233 273
#     4  10  21  36  53  73  96 123 155 192 239 295
#     4  10  18  28  45  70  98 128 162 199 240 288
#     4  10  19  31  47  68  96 130 165 201 244 290
#     4   9  17  30  49  73  99 124 151 190 240 288
#
# _framework density 18.796218
#
# number of rings (size 3 to 8) (size 9 to 14) (size 15 to 20)
#    0.000    2.500    0.000    3.750    0.000    3.750 
#    0.000    0.625    0.000    5.250    0.000    3.500 
#    0.000    2.000    0.000    0.000    0.000    0.000 
#
# Total GULP energy -178534.039972 kJ/mol
# GULP energy per Si atom -5579.188749 kJ/mol
# Density = 1.875344 g / cm^3
# Si number density = 18.796218 Si / 1000 Ang^3
#
#
#
# Elastic Constant Matrix: (Units=GPa)
#
#
# Indices 1 2 3 4 5 6 
#
# 1 62.2274 -4.0136 78.9258 0.0000 0.0000 0.0000
# 2 -4.0136 21.5086 -5.7809 0.0000 0.0000 0.0000
# 3 78.9258 -5.7809 170.8164 0.0000 0.0000 0.0000
# 4 0.0000 0.0000 0.0000 9.5633 0.0000 0.0000
# 5 0.0000 0.0000 0.0000 0.0000 30.3318 0.0000
# 6 0.0000 0.0000 0.0000 0.0000 0.0000 15.7019
#
#
#
# Elastic Compliance Matrix: (Units=1/GPa)
#
#
# Indices 1 2 3 4 5 6 
#
# 1 0.038948 0.002453 -0.017913 0.000000 0.000000 0.000000
# 2 0.002453 0.047074 0.000460 0.000000 0.000000 0.000000
# 3 -0.017913 0.000460 0.014147 0.000000 0.000000 0.000000
# 4 0.000000 0.000000 0.000000 0.104566 0.000000 0.000000
# 5 0.000000 0.000000 0.000000 0.000000 0.032969 0.000000
# 6 0.000000 0.000000 0.000000 0.000000 0.000000 0.063687
#
#
# Mechanical properties :
#
#
# Convention : Reuss Voigt Hill
#
# Bulk Modulus (GPa) = 14.25133 43.64611 28.94872
# Shear Modulus (GPa) = 14.09322 23.48081 18.78702
#
# Velocity S-wave (km/s) = 2.74120 3.53828 3.16493
# Velocity P-wave (km/s) = 4.19731 6.32168 5.36568
#
# Compressibility (1/GPa) = 0.07016891
#
# Stress axis : x y z
#
# Youngs Moduli (GPa) = 25.67512 21.24299 70.68877
#
# Poissons Ratio (x) = -0.05212 1.26625
# Poissons Ratio (y) = -0.06299 -0.03248
# Poissons Ratio (z) = 0.45992 -0.00976
#
# Static dielectric constant tensor:
#      x y z
#    x 1.629900 0.000000 0.000000 
#    y 0.000000 1.681150 0.000000 
#    z 0.000000 0.000000 1.676680 
# 
# From -- ./inp_files/17139.got.cif
#   From: 2010.05.17/outbox.cif.g08.bks.cpg/sg44_9_cif.got.tgz:17139.got - 2010.06.03 19:37:08.
