data_PCOD9373461
_publ_section_title
;
Structure prediction by ZEFSAII (Michael W. Deem and Ramdas Pophale) SiO2 
 PCOD9373461
Probable space group: I M M 2
;
_chemical_formula_sum "Si O2"
_cell_formula_units_Z 56
_cell_length_a 19.564913
_cell_length_b 7.384970
_cell_length_c 17.053482
_cell_angle_alpha 90.000000
_cell_angle_beta 90.000000
_cell_angle_gamma 90.000000
_cell_volume 2463.994441
_symmetry_space_group_name_H-M "I M M 2"
_symmetry_group_IT_number 44
_symmetry_cell_setting 'orthorhombic'
loop_
_space_group_symop_operation_xyz
x,y,z
-x,-y,z
-x,y,z
x,-y,z
1/2+x,1/2+y,1/2+z
1/2-x,1/2-y,1/2+z
1/2-x,1/2+y,1/2+z
1/2+x,1/2-y,1/2+z
loop_
_atom_site_type_symbol
_atom_site_label
_atom_site_fract_x
_atom_site_fract_y
_atom_site_fract_z
Si Si1 0.794553 0.778674 0.531520
Si Si2 0.423085 0.288162 0.939902
Si Si3 0.576915 0.288162 0.302741
Si Si4 0.794553 0.221326 0.711123
Si Si5 0.345328 0.218534 0.463406
Si Si6 0.578336 0.779274 0.621321
Si Si7 0.845328 0.718534 0.279236
O O1 0.867773 0.713155 0.501069
O O2 0.780777 0.725882 0.621321
O O3 0.733122 0.721304 0.474042
O O4 0.794683 0.000000 0.530392
O O5 0.500000 0.211904 0.938816
O O6 0.429578 0.500000 0.959023
O O7 0.386503 0.277081 0.855501
O O8 0.500000 0.211904 0.303828
O O9 0.570422 0.500000 0.283619
O O10 0.632227 0.213155 0.241574
O O11 0.613497 0.277082 0.387141
O O12 0.733122 0.278697 0.768601
O O13 0.794683 0.000000 0.712251
O O14 0.383960 0.277841 0.542326
O O15 0.345289 0.000000 0.461960
O O16 0.500000 0.721856 0.621322
O O17 0.616041 0.722157 0.700316
O O18 0.579691 0.000000 0.621322
O O19 0.845289 0.500000 0.280682
#
# Coordination Sequence:
#
# PCOD9373461 Si02
#       7
#     8   8   8   8   8   8   8
#     4   9  17  32  54  77  99 128 171 214 248 289
#     4  10  21  34  49  74 107 137 164 201 251 303
#     4  10  21  34  49  74 107 137 164 201 251 303
#     4   9  17  32  54  77  99 128 171 214 248 289
#     4  10  18  32  54  76  98 128 169 213 251 291
#     4   9  16  26  45  73  98 122 158 203 245 287
#     4  10  18  32  54  76  98 128 169 213 251 291
#
# _framework density 22.727322999999998
#
# number of rings (size 3 to 8) (size 9 to 14) (size 15 to 20)
#    0.000    2.429    1.429    1.714    0.000    2.286 
#    0.000    3.571    0.000    5.143    0.000    2.000 
#    0.000    0.000    0.000    0.000    0.000    0.000 
#
# Total GULP energy -156454.015950 kJ/mol
# GULP energy per Si atom -5587.643427 kJ/mol
# Density = 2.267559 g / cm^3
# Si number density = 22.727323 Si / 1000 Ang^3
#
#
#
# Elastic Constant Matrix: (Units=GPa)
#
#
# Indices 1 2 3 4 5 6 
#
# 1 205.4830 5.4566 30.2384 0.0000 0.0000 0.0000
# 2 5.4566 78.9842 -13.5657 0.0000 0.0000 0.0000
# 3 30.2384 -13.5657 34.1665 0.0000 0.0000 0.0000
# 4 0.0000 0.0000 0.0000 1.0599 0.0000 0.0000
# 5 0.0000 0.0000 0.0000 0.0000 25.4468 0.0000
# 6 0.0000 0.0000 0.0000 0.0000 0.0000 3.7285
#
#
#
# Elastic Compliance Matrix: (Units=1/GPa)
#
#
# Indices 1 2 3 4 5 6 
#
# 1 0.005728 -0.001359 -0.005609 0.000000 0.000000 0.000000
# 2 -0.001359 0.013910 0.006726 0.000000 0.000000 0.000000
# 3 -0.005609 0.006726 0.036903 0.000000 0.000000 0.000000
# 4 0.000000 0.000000 0.000000 0.943453 0.000000 0.000000
# 5 0.000000 0.000000 0.000000 0.000000 0.039298 0.000000
# 6 0.000000 0.000000 0.000000 0.000000 0.000000 0.268207
#
#
# Mechanical properties :
#
#
# Convention : Reuss Voigt Hill
#
# Bulk Modulus (GPa) = 17.83931 40.32136 29.08034
# Shear Modulus (GPa) = 3.76884 25.81400 14.79142
#
# Velocity S-wave (km/s) = 1.28914 3.37384 2.55389
# Velocity P-wave (km/s) = 3.17524 5.74081 4.63892
#
# Compressibility (1/GPa) = 0.05605597
#
# Stress axis : x y z
#
# Youngs Moduli (GPa) = 174.57766 71.89172 27.09791
#
# Poissons Ratio (x) = 0.09771 0.15200
# Poissons Ratio (y) = 0.23727 -0.18225
# Poissons Ratio (z) = 0.97924 -0.48352
#
# Static dielectric constant tensor:
#      x y z
#    x 1.844280 0.000000 0.000000 
#    y 0.000000 1.902880 0.000000 
#    z 0.000000 0.000000 1.779770 
# 
# From -- ./inp_files/19192.got.cif
#   From: 2010.05.17/outbox.cif.g08.bks.cpg/sg44_10_cif.got.tgz:19192.got - 2010.06.03 19:37:08.
