data_PCOD9373655
_publ_section_title
;
Structure prediction by ZEFSAII (Michael W. Deem and Ramdas Pophale) SiO2 
 PCOD9373655
Probable space group: I M M 2
;
_chemical_formula_sum "Si O2"
_cell_formula_units_Z 64
_cell_length_a 13.971013
_cell_length_b 9.113798
_cell_length_c 35.113447
_cell_angle_alpha 90.000000
_cell_angle_beta 90.000000
_cell_angle_gamma 90.000000
_cell_volume 4470.959754
_symmetry_space_group_name_H-M "I M M 2"
_symmetry_group_IT_number 44
_symmetry_cell_setting 'orthorhombic'
loop_
_space_group_symop_operation_xyz
x,y,z
-x,-y,z
-x,y,z
x,-y,z
1/2+x,1/2+y,1/2+z
1/2-x,1/2-y,1/2+z
1/2-x,1/2+y,1/2+z
1/2+x,1/2-y,1/2+z
loop_
_atom_site_type_symbol
_atom_site_label
_atom_site_fract_x
_atom_site_fract_y
_atom_site_fract_z
Si Si1 0.888907 0.824255 0.069180
Si Si2 0.883697 0.167735 0.756679
Si Si3 0.116506 0.669839 0.832651
Si Si4 0.206859 0.825702 0.988610
Si Si5 0.611316 0.177086 0.417378
Si Si6 0.710910 0.675369 0.106727
Si Si7 0.614450 0.825855 0.178574
Si Si8 0.610150 0.825269 0.035970
O O1 0.815510 0.738219 0.096003
O O2 0.000000 0.789801 0.075527
O O3 0.875006 0.000000 0.074147
O O4 0.859024 0.790882 0.025459
O O5 0.850848 0.235341 0.796785
O O6 0.857968 0.265259 0.720193
O O7 0.000000 0.167545 0.757967
O O8 0.852220 0.000000 0.751904
O O9 0.145312 0.500000 0.827683
O O10 0.144460 0.722227 0.874907
O O11 0.000000 0.670880 0.832880
O O12 0.172841 0.741299 0.951512
O O13 0.199478 0.000000 0.981849
O O14 0.314578 0.791888 0.002527
O O15 0.500000 0.222140 0.422307
O O16 0.613434 0.000000 0.417969
O O17 0.710981 0.500000 0.107513
O O18 0.671546 0.741603 0.145911
O O19 0.642633 0.735530 0.072949
O O20 0.500000 0.800228 0.173564
O O21 0.630496 0.000000 0.176037
O O22 0.500000 0.797220 0.026381
O O23 0.620713 0.000000 0.044541
#
# Coordination Sequence:
#
# PCOD9373655 Si02
#       8
#     8   8   8   8   8   8   8   8
#     4   9  18  33  49  62  81 112 146 176 208 251
#     4   9  16  25  38  58  82 106 135 172 210 244
#     4   8  14  25  38  52  75 109 143 167 193 239
#     4   9  17  28  43  63  82 103 137 177 212 245
#     4   9  17  27  39  57  83 114 143 170 202 243
#     4  11  21  30  43  65  89 109 136 177 217 251
#     4  10  19  30  44  60  82 115 148 174 204 247
#     4   9  18  33  48  59  78 111 146 177 212 256
#
# _framework density 14.3146
#
# number of rings (size 3 to 8) (size 9 to 14) (size 15 to 20)
#    0.000    2.750    0.000    4.125    0.000    7.500 
#    0.000    1.250    0.000    0.000    0.000    0.000 
#    0.000    1.000    0.000    6.500    0.000    4.500 
#
# Total GULP energy -178301.575875 kJ/mol
# GULP energy per Si atom -5571.924246 kJ/mol
# Density = 1.428202 g / cm^3
# Si number density = 14.314600 Si / 1000 Ang^3
#
#
#
# Elastic Constant Matrix: (Units=GPa)
#
#
# Indices 1 2 3 4 5 6 
#
# 1 75.6906 41.4026 52.6119 0.0000 0.0000 0.0000
# 2 41.4026 67.7768 63.4746 0.0000 0.0000 0.0000
# 3 52.6119 63.4746 131.5744 0.0000 0.0000 0.0000
# 4 0.0000 0.0000 0.0000 29.0674 0.0000 0.0000
# 5 0.0000 0.0000 0.0000 0.0000 17.9601 0.0000
# 6 0.0000 0.0000 0.0000 0.0000 0.0000 14.5279
#
#
#
# Elastic Compliance Matrix: (Units=1/GPa)
#
#
# Indices 1 2 3 4 5 6 
#
# 1 0.020945 -0.009031 -0.004018 0.000000 0.000000 0.000000
# 2 -0.009031 0.030809 -0.011251 0.000000 0.000000 0.000000
# 3 -0.004018 -0.011251 0.014635 0.000000 0.000000 0.000000
# 4 0.000000 0.000000 0.000000 0.034403 0.000000 0.000000
# 5 0.000000 0.000000 0.000000 0.000000 0.055679 0.000000
# 6 0.000000 0.000000 0.000000 0.000000 0.000000 0.068833
#
#
# Mechanical properties :
#
#
# Convention : Reuss Voigt Hill
#
# Bulk Modulus (GPa) = 56.22294 65.55777 60.89035
# Shear Modulus (GPa) = 17.86777 20.14794 19.00785
#
# Velocity S-wave (km/s) = 3.53685 3.75575 3.64794
# Velocity P-wave (km/s) = 7.48605 8.04393 7.77000
#
# Compressibility (1/GPa) = 0.01778633
#
# Stress axis : x y z
#
# Youngs Moduli (GPa) = 47.74453 32.45857 68.32985
#
# Poissons Ratio (x) = 0.29315 0.27456
# Poissons Ratio (y) = 0.43120 0.76881
# Poissons Ratio (z) = 0.19184 0.36520
#
# Static dielectric constant tensor:
#      x y z
#    x 1.455910 0.000000 0.000000 
#    y 0.000000 1.478180 0.000000 
#    z 0.000000 0.000000 1.465610 
# 
# From -- ./inp_files/27508.got.cif
#   From: 2010.05.17/outbox.cif.g08.bks.cpg/sg44_14_cif.got.tgz:27508.got - 2010.06.03 19:37:08.
