data_PCOD9373839
_publ_section_title
;
Structure prediction by ZEFSAII (Michael W. Deem and Ramdas Pophale) SiO2 
 PCOD9373839
Probable space group: I M M 2
;
_chemical_formula_sum "Si O2"
_cell_formula_units_Z 64
_cell_length_a 14.675038
_cell_length_b 8.909036
_cell_length_c 29.056748
_cell_angle_alpha 90.000000
_cell_angle_beta 90.000000
_cell_angle_gamma 90.000000
_cell_volume 3798.892072
_symmetry_space_group_name_H-M "I M M 2"
_symmetry_group_IT_number 44
_symmetry_cell_setting 'orthorhombic'
loop_
_space_group_symop_operation_xyz
x,y,z
-x,-y,z
-x,y,z
x,-y,z
1/2+x,1/2+y,1/2+z
1/2-x,1/2-y,1/2+z
1/2-x,1/2+y,1/2+z
1/2+x,1/2-y,1/2+z
loop_
_atom_site_type_symbol
_atom_site_label
_atom_site_fract_x
_atom_site_fract_y
_atom_site_fract_z
Si Si1 0.893568 0.178896 0.842030
Si Si2 0.393956 0.820583 0.073680
Si Si3 0.394612 0.680600 0.974301
Si Si4 0.606326 0.679475 0.800775
Si Si5 0.728564 0.318731 0.887954
Si Si6 0.213776 0.179945 0.657600
Si Si7 0.603521 0.180608 0.702592
Si Si8 0.890680 0.675705 0.743156
O O1 0.826424 0.244997 0.880221
O O2 0.869588 0.253904 0.792903
O O3 0.000000 0.212511 0.851127
O O4 0.883297 0.000000 0.838415
O O5 0.500000 0.782219 0.084102
O O6 0.329859 0.750320 0.112265
O O7 0.385995 0.000000 0.073936
O O8 0.374083 0.757076 0.022969
O O9 0.500000 0.716504 0.961806
O O10 0.389570 0.500000 0.979513
O O11 0.325620 0.725087 0.933925
O O12 0.500000 0.712597 0.810465
O O13 0.614944 0.500000 0.795207
O O14 0.667822 0.725364 0.843670
O O15 0.630251 0.756800 0.752691
O O16 0.736657 0.500000 0.887786
O O17 0.319151 0.223652 0.666232
O O18 0.158806 0.239129 0.701970
O O19 0.207476 0.000000 0.655444
O O20 0.500000 0.231654 0.692548
O O21 0.602675 0.000000 0.705187
O O22 0.865409 0.500000 0.742863
O O23 0.000000 0.686548 0.736737
#
# Coordination Sequence:
#
# PCOD9373839 Si02
#       8
#     8   8   8   8   8   8   8   8
#     4  10  21  35  49  68  98 135 172 209 247 287
#     4  10  21  36  53  75 103 131 159 196 244 296
#     4   9  18  34  55  78 104 131 159 195 242 296
#     4   9  17  29  46  71 102 132 161 194 235 285
#     4  10  19  31  51  76 100 129 165 203 243 289
#     4  11  21  32  51  75  98 129 167 205 247 295
#     4   9  19  34  48  66  96 131 165 201 239 280
#     4  10  20  33  49  71 101 134 166 203 247 294
#
# _framework density 16.847017000000001
#
# number of rings (size 3 to 8) (size 9 to 14) (size 15 to 20)
#    0.000    2.250    0.000    3.000    0.000    9.250 
#    0.000    0.000    0.000    4.500    0.000    1.750 
#    0.000    0.000    0.000    0.000    0.000    0.000 
#
# Total GULP energy -178626.870754 kJ/mol
# GULP energy per Si atom -5582.089711 kJ/mol
# Density = 1.680867 g / cm^3
# Si number density = 16.847017 Si / 1000 Ang^3
#
#
#
# Elastic Constant Matrix: (Units=GPa)
#
#
# Indices 1 2 3 4 5 6 
#
# 1 103.6754 46.4318 95.1755 0.0000 0.0000 0.0000
# 2 46.4318 37.6494 47.2959 0.0000 0.0000 0.0000
# 3 95.1755 47.2959 124.2975 0.0000 0.0000 0.0000
# 4 0.0000 0.0000 0.0000 28.0802 0.0000 0.0000
# 5 0.0000 0.0000 0.0000 0.0000 33.6620 0.0000
# 6 0.0000 0.0000 0.0000 0.0000 0.0000 23.0648
#
#
#
# Elastic Compliance Matrix: (Units=1/GPa)
#
#
# Indices 1 2 3 4 5 6 
#
# 1 0.039235 -0.020397 -0.022282 0.000000 0.000000 0.000000
# 2 -0.020397 0.061487 -0.007778 0.000000 0.000000 0.000000
# 3 -0.022282 -0.007778 0.028066 0.000000 0.000000 0.000000
# 4 0.000000 0.000000 0.000000 0.035612 0.000000 0.000000
# 5 0.000000 0.000000 0.000000 0.000000 0.029707 0.000000
# 6 0.000000 0.000000 0.000000 0.000000 0.000000 0.043356
#
#
# Mechanical properties :
#
#
# Convention : Reuss Voigt Hill
#
# Bulk Modulus (GPa) = 35.87461 71.49209 53.68335
# Shear Modulus (GPa) = 14.38154 22.07600 18.22877
#
# Velocity S-wave (km/s) = 2.92491 3.62384 3.29297
# Velocity P-wave (km/s) = 5.72253 7.74841 6.81121
#
# Compressibility (1/GPa) = 0.02787487
#
# Stress axis : x y z
#
# Youngs Moduli (GPa) = 25.48725 16.26368 35.63047
#
# Poissons Ratio (x) = 0.33173 0.79390
# Poissons Ratio (y) = 0.51987 0.27713
# Poissons Ratio (z) = 0.56790 0.12650
#
# Static dielectric constant tensor:
#      x y z
#    x 1.591220 0.000000 0.000000 
#    y 0.000000 1.562090 0.000000 
#    z 0.000000 0.000000 1.530910 
# 
# From -- ./inp_files/25129.got.cif
#   From: 2010.05.17/outbox.cif.g08.bks.cpg/sg44_13_cif.got.tgz:25129.got - 2010.06.03 19:37:08.
