data_PCOD9373994
_publ_section_title
;
Structure prediction by ZEFSAII (Michael W. Deem and Ramdas Pophale) SiO2 
 PCOD9373994
Probable space group: I M M 2
;
_chemical_formula_sum "Si O2"
_cell_formula_units_Z 64
_cell_length_a 25.551097
_cell_length_b 18.447830
_cell_length_c 5.625183
_cell_angle_alpha 90.000000
_cell_angle_beta 90.000000
_cell_angle_gamma 90.000000
_cell_volume 2651.499162
_symmetry_space_group_name_H-M "I M M 2"
_symmetry_group_IT_number 44
_symmetry_cell_setting 'orthorhombic'
loop_
_space_group_symop_operation_xyz
x,y,z
-x,-y,z
-x,y,z
x,-y,z
1/2+x,1/2+y,1/2+z
1/2-x,1/2-y,1/2+z
1/2-x,1/2+y,1/2+z
1/2+x,1/2-y,1/2+z
loop_
_atom_site_type_symbol
_atom_site_label
_atom_site_fract_x
_atom_site_fract_y
_atom_site_fract_z
Si Si1 0.585021 0.299906 0.591810
Si Si2 0.200025 0.870289 0.074396
Si Si3 0.057386 0.866921 0.588710
Si Si4 0.322256 0.609480 0.058890
Si Si5 0.800446 0.281927 0.523797
Si Si6 0.836815 0.420871 0.247507
Si Si7 0.444736 0.919769 0.031234
Si Si8 0.384985 0.159386 0.386422
O O1 0.641163 0.339414 0.581421
O O2 0.559541 0.322968 0.339080
O O3 0.596135 0.214813 0.586161
O O4 0.558955 0.321931 0.840737
O O5 0.203531 0.918155 0.313848
O O6 0.241055 0.803394 0.086850
O O7 0.202695 0.907686 0.814822
O O8 0.114956 0.905596 0.576093
O O9 0.000000 0.905146 0.589516
O O10 0.311422 0.696137 0.017268
O O11 0.810461 0.344949 0.325534
O O12 0.842406 0.301540 0.725123
O O13 0.812723 0.500000 0.295078
O O14 0.893177 0.419738 0.374762
O O15 0.853431 0.410379 0.975972
O O16 0.500000 0.907734 0.903663
O O17 0.434776 0.862094 0.234217
O O18 0.446703 0.000000 0.140245
#
# Coordination Sequence:
#
# PCOD9373994 Si02
#       8
#     8   8   8   8   8   8   8   8
#     4  10  21  35  47  77 101 127 170 206 247 303
#     4  10  20  32  53  74 103 128 159 211 251 295
#     4  10  19  33  48  66 100 137 163 198 242 290
#     4  10  20  33  49  78 102 126 166 206 242 296
#     4  11  21  33  52  70  94 127 163 204 261 304
#     4  10  22  37  52  69  95 123 166 219 267 317
#     4   9  20  37  52  67  89 122 168 222 272 309
#     4  11  21  34  48  71  92 124 164 213 263 316
#
# _framework density 24.137286
#
# number of rings (size 3 to 8) (size 9 to 14) (size 15 to 20)
#    0.000    1.875    2.500    3.000    3.500    2.000 
#    0.000    1.250    0.000    0.000    0.000    0.000 
#    0.000    0.000    0.000    0.000    0.000   60.000 
#
# Total GULP energy -178243.146884 kJ/mol
# GULP energy per Si atom -5570.098340 kJ/mol
# Density = 2.408235 g / cm^3
# Si number density = 24.137286 Si / 1000 Ang^3
#
#
#
# Elastic Constant Matrix: (Units=GPa)
#
#
# Indices 1 2 3 4 5 6 
#
# 1 122.2793 7.3393 6.1163 0.0000 0.0000 0.0000
# 2 7.3393 80.4843 18.9549 0.0000 0.0000 0.0000
# 3 6.1163 18.9549 131.8981 0.0000 0.0000 0.0000
# 4 0.0000 0.0000 0.0000 -26.2498 0.0000 0.0000
# 5 0.0000 0.0000 0.0000 0.0000 -6.4614 0.0000
# 6 0.0000 0.0000 0.0000 0.0000 0.0000 5.5714
#
#
#
# Elastic Compliance Matrix: (Units=1/GPa)
#
#
# Indices 1 2 3 4 5 6 
#
# 1 0.008233 -0.000684 -0.000283 0.000000 0.000000 0.000000
# 2 -0.000684 0.012917 -0.001825 0.000000 0.000000 0.000000
# 3 -0.000283 -0.001825 0.007857 0.000000 0.000000 0.000000
# 4 0.000000 0.000000 0.000000 -0.038096 0.000000 0.000000
# 5 0.000000 0.000000 0.000000 0.000000 -0.154765 0.000000
# 6 0.000000 0.000000 0.000000 0.000000 0.000000 0.179488
#
#
# Mechanical properties :
#
#
# Convention : Reuss Voigt Hill
#
# Bulk Modulus (GPa) = 42.69316 44.38696 43.54006
# Shear Modulus (GPa) = 172.25991 14.72212 93.49102
#
# Velocity S-wave (km/s) = 8.45705 2.47236 6.23034
# Velocity P-wave (km/s) = 10.63430 5.15552 8.35666
#
# Compressibility (1/GPa) = 0.02342295
#
# Stress axis : x y z
#
# Youngs Moduli (GPa) = 121.45897 77.41816 127.27567
#
# Poissons Ratio (x) = 0.05296 0.03608
# Poissons Ratio (y) = 0.08308 0.23222
# Poissons Ratio (z) = 0.03443 0.14125
#
# Static dielectric constant tensor:
#      x y z
#    x 1.959260 0.000000 0.000000 
#    y 0.000000 1.931110 0.000000 
#    z 0.000000 0.000000 2.089720 
# 
# From -- ./inp_files/2876.got.cif
#   From: 2010.05.17/outbox.cif.g08.bks.cpg/sg44_2_cif.got.tgz:2876.got - 2010.06.03 19:37:08.
