data_PCOD9373691
_publ_section_title
;
Structure prediction by ZEFSAII (Michael W. Deem and Ramdas Pophale) SiO2 
 PCOD9373691
Probable space group: I M M 2
;
_chemical_formula_sum "Si O2"
_cell_formula_units_Z 64
_cell_length_a 7.969137
_cell_length_b 19.430740
_cell_length_c 22.310671
_cell_angle_alpha 90.000000
_cell_angle_beta 90.000000
_cell_angle_gamma 90.000000
_cell_volume 3454.723272
_symmetry_space_group_name_H-M "I M M 2"
_symmetry_group_IT_number 44
_symmetry_cell_setting 'orthorhombic'
loop_
_space_group_symop_operation_xyz
x,y,z
-x,-y,z
-x,y,z
x,-y,z
1/2+x,1/2+y,1/2+z
1/2-x,1/2-y,1/2+z
1/2-x,1/2+y,1/2+z
1/2+x,1/2-y,1/2+z
loop_
_atom_site_type_symbol
_atom_site_label
_atom_site_fract_x
_atom_site_fract_y
_atom_site_fract_z
Si Si1 0.302785 0.423794 0.571840
Si Si2 0.203262 0.275975 0.688779
Si Si3 0.805964 0.424624 0.705774
Si Si4 0.700279 0.422711 0.366259
Si Si5 0.697820 0.279988 0.059889
Si Si6 0.298410 0.323149 0.468834
Si Si7 0.297238 0.924204 0.608575
Si Si8 0.700567 0.870150 0.737156
O O1 0.500000 0.410341 0.585735
O O2 0.295719 0.500000 0.544979
O O3 0.202857 0.423899 0.633378
O O4 0.238697 0.371134 0.523448
O O5 0.266421 0.348148 0.717248
O O6 0.266073 0.259708 0.620301
O O7 0.250042 0.209453 0.727577
O O8 0.000000 0.280762 0.686191
O O9 0.731746 0.500000 0.723553
O O10 0.000000 0.425160 0.725511
O O11 0.500000 0.426208 0.376123
O O12 0.767510 0.500000 0.378741
O O13 0.765049 0.360692 0.408875
O O14 0.730202 0.402795 0.297535
O O15 0.500000 0.271223 0.062618
O O16 0.740441 0.359716 0.069486
O O17 0.755161 0.251184 0.995629
O O18 0.500000 0.325780 0.466574
O O19 0.500000 0.923774 0.608921
O O20 0.240756 0.908846 0.676841
O O21 0.240104 0.000000 0.589649
O O22 0.500000 0.875145 0.739372
#
# Coordination Sequence:
#
# PCOD9373691 Si02
#       8
#     8   8   8   8   8   8   8   8
#     4   9  16  25  39  60  87 121 159 194 226 266
#     4   9  17  30  46  67  96 129 164 200 245 298
#     4   9  16  26  41  63  93 125 156 192 234 281
#     4  10  21  36  52  71  98 134 173 208 242 285
#     4  10  19  30  46  71  99 127 161 200 244 294
#     4  10  19  31  47  66  94 131 167 199 236 284
#     4   9  18  33  52  73  98 128 160 199 250 303
#     4  10  20  33  51  73  97 127 166 210 253 293
#
# _framework density 18.525361
#
# number of rings (size 3 to 8) (size 9 to 14) (size 15 to 20)
#    0.000    2.500    1.250    1.500    0.000    4.500 
#    0.000    0.000    0.000    2.250    0.000    0.875 
#    0.000    3.000    0.000    0.000    0.000    0.000 
#
# Total GULP energy -178177.529708 kJ/mol
# GULP energy per Si atom -5568.047803 kJ/mol
# Density = 1.848320 g / cm^3
# Si number density = 18.525361 Si / 1000 Ang^3
#
#
#
# Elastic Constant Matrix: (Units=GPa)
#
#
# Indices 1 2 3 4 5 6 
#
# 1 18.8906 11.5804 6.3431 0.0000 0.0000 0.0000
# 2 11.5804 136.9929 41.5911 0.0000 0.0000 0.0000
# 3 6.3431 41.5911 64.8837 0.0000 0.0000 0.0000
# 4 0.0000 0.0000 0.0000 16.1358 0.0000 0.0000
# 5 0.0000 0.0000 0.0000 0.0000 17.4744 0.0000
# 6 0.0000 0.0000 0.0000 0.0000 0.0000 14.4358
#
#
#
# Elastic Compliance Matrix: (Units=1/GPa)
#
#
# Indices 1 2 3 4 5 6 
#
# 1 0.056310 -0.003835 -0.003047 0.000000 0.000000 0.000000
# 2 -0.003835 0.009325 -0.005602 0.000000 0.000000 0.000000
# 3 -0.003047 -0.005602 0.019301 0.000000 0.000000 0.000000
# 4 0.000000 0.000000 0.000000 0.061974 0.000000 0.000000
# 5 0.000000 0.000000 0.000000 0.000000 0.057227 0.000000
# 6 0.000000 0.000000 0.000000 0.000000 0.000000 0.069272
#
#
# Mechanical properties :
#
#
# Convention : Reuss Voigt Hill
#
# Bulk Modulus (GPa) = 16.67549 37.75515 27.21532
# Shear Modulus (GPa) = 15.70517 20.35937 18.03227
#
# Velocity S-wave (km/s) = 2.91480 3.31871 3.12329
# Velocity P-wave (km/s) = 4.51099 5.92534 5.26587
#
# Compressibility (1/GPa) = 0.05996824
#
# Stress axis : x y z
#
# Youngs Moduli (GPa) = 17.75869 107.24193 51.81030
#
# Poissons Ratio (x) = 0.41129 0.15785
# Poissons Ratio (y) = 0.06811 0.29026
# Poissons Ratio (z) = 0.05410 0.60080
#
# Static dielectric constant tensor:
#      x y z
#    x 1.671730 0.000000 0.000000 
#    y 0.000000 1.732880 0.000000 
#    z 0.000000 0.000000 1.614770 
# 
# From -- ./inp_files/23261.got.cif
#   From: 2010.05.17/outbox.cif.g08.bks.cpg/sg44_12_cif.got.tgz:23261.got - 2010.06.03 19:37:08.
