data_PCOD9373509
_publ_section_title
;
Structure prediction by ZEFSAII (Michael W. Deem and Ramdas Pophale) SiO2 
 PCOD9373509
Probable space group: I M M 2
;
_chemical_formula_sum "Si O2"
_cell_formula_units_Z 56
_cell_length_a 7.636106
_cell_length_b 21.097557
_cell_length_c 16.002458
_cell_angle_alpha 90.000000
_cell_angle_beta 90.000000
_cell_angle_gamma 90.000000
_cell_volume 2578.046897
_symmetry_space_group_name_H-M "I M M 2"
_symmetry_group_IT_number 44
_symmetry_cell_setting 'orthorhombic'
loop_
_space_group_symop_operation_xyz
x,y,z
-x,-y,z
-x,y,z
x,-y,z
1/2+x,1/2+y,1/2+z
1/2-x,1/2-y,1/2+z
1/2-x,1/2+y,1/2+z
1/2+x,1/2-y,1/2+z
loop_
_atom_site_type_symbol
_atom_site_label
_atom_site_fract_x
_atom_site_fract_y
_atom_site_fract_z
Si Si1 0.711062 0.211168 0.008590
Si Si2 0.786367 0.755055 0.326681
Si Si3 0.302968 0.072688 0.391428
Si Si4 0.297731 0.928228 0.053753
Si Si5 0.695915 0.380056 0.729308
Si Si6 0.215066 0.572303 0.066639
Si Si7 0.710556 0.807109 0.661710
O O1 0.500000 0.207666 0.004373
O O2 0.775979 0.137769 0.015346
O O3 0.748408 0.252544 0.092293
O O4 0.774306 0.242731 0.921296
O O5 0.730917 0.818549 0.277183
O O6 0.732824 0.704335 0.256964
O O7 0.000000 0.758560 0.331251
O O8 0.500000 0.096034 0.375163
O O9 0.193398 0.074317 0.308369
O O10 0.227232 0.100719 0.476267
O O11 0.319795 0.000000 0.416827
O O12 0.500000 0.931785 0.026666
O O13 0.293661 0.911653 0.152674
O O14 0.222879 0.000000 0.041363
O O15 0.500000 0.365344 0.699269
O O16 0.272615 0.500000 0.082832
O O17 0.273902 0.624652 0.131609
O O18 0.000000 0.571927 0.064372
O O19 0.500000 0.808241 0.663706
#
# Coordination Sequence:
#
# PCOD9373509 Si02
#       7
#     8   8   8   8   8   8   8
#     4  10  20  36  55  75 104 141 177 216 265 319
#     4   9  19  33  50  75 105 132 164 215 270 307
#     4   9  17  29  44  66  98 130 162 201 245 298
#     4  10  21  36  53  73 101 139 181 222 262 310
#     4  11  20  31  48  73 103 131 165 211 264 317
#     4   8  15  28  48  74 101 132 169 209 253 303
#     4  10  18  33  55  77 104 134 169 216 263 310
#
# _framework density 21.721869999999999
#
# number of rings (size 3 to 8) (size 9 to 14) (size 15 to 20)
#    0.000    2.429    1.429    2.571    0.000    2.286 
#    0.000    2.143    0.000    5.571    0.000    0.000 
#    0.000    2.286    0.000    0.000    0.000    0.000 
#
# Total GULP energy -155870.177476 kJ/mol
# GULP energy per Si atom -5566.792053 kJ/mol
# Density = 2.167243 g / cm^3
# Si number density = 21.721870 Si / 1000 Ang^3
#
#
#
# Elastic Constant Matrix: (Units=GPa)
#
#
# Indices 1 2 3 4 5 6 
#
# 1 44.8013 0.1651 -1.3612 0.0000 0.0000 0.0000
# 2 0.1651 116.8586 28.2733 0.0000 0.0000 0.0000
# 3 -1.3612 28.2733 92.1219 0.0000 0.0000 0.0001
# 4 0.0000 0.0000 0.0000 38.6228 0.0000 0.0000
# 5 0.0000 0.0000 0.0000 0.0000 -11.3610 0.0000
# 6 0.0000 0.0000 0.0001 0.0000 0.0000 5.5751
#
#
#
# Elastic Compliance Matrix: (Units=1/GPa)
#
#
# Indices 1 2 3 4 5 6 
#
# 1 0.022332 -0.000120 0.000367 0.000000 0.000000 0.000000
# 2 -0.000120 0.009244 -0.002839 0.000000 0.000000 0.000000
# 3 0.000367 -0.002839 0.011732 0.000000 0.000000 0.000000
# 4 0.000000 0.000000 0.000000 0.025891 0.000000 0.000000
# 5 0.000000 0.000000 0.000000 0.000000 -0.088021 0.000000
# 6 0.000000 0.000000 0.000000 0.000000 0.000000 0.179369
#
#
# Mechanical properties :
#
#
# Convention : Reuss Voigt Hill
#
# Bulk Modulus (GPa) = 26.23026 34.21512 30.22269
# Shear Modulus (GPa) = 28.02050 21.68103 24.85076
#
# Velocity S-wave (km/s) = 3.59551 3.16273 3.38604
# Velocity P-wave (km/s) = 5.41651 5.39656 5.40654
#
# Compressibility (1/GPa) = 0.03812390
#
# Stress axis : x y z
#
# Youngs Moduli (GPa) = 44.77801 108.17359 85.23749
#
# Poissons Ratio (x) = 0.01302 -0.03127
# Poissons Ratio (y) = 0.00539 0.24199
# Poissons Ratio (z) = -0.01643 0.30710
#
# Static dielectric constant tensor:
#      x y z
#    x 1.930740 0.000000 0.000000 
#    y 0.000000 1.645150 0.000000 
#    z 0.000000 0.000000 1.816820 
# 
# From -- ./inp_files/16484.got.cif
#   From: 2010.05.17/outbox.cif.g08.bks.cpg/sg44_9_cif.got.tgz:16484.got - 2010.06.03 19:37:08.
