data_PCOD9373427
_publ_section_title
;
Structure prediction by ZEFSAII (Michael W. Deem and Ramdas Pophale) SiO2 
 PCOD9373427
Probable space group: I M M 2
;
_chemical_formula_sum "Si O2"
_cell_formula_units_Z 64
_cell_length_a 33.877115
_cell_length_b 8.673191
_cell_length_c 11.992886
_cell_angle_alpha 90.000000
_cell_angle_beta 90.000000
_cell_angle_gamma 90.000000
_cell_volume 3523.782012
_symmetry_space_group_name_H-M "I M M 2"
_symmetry_group_IT_number 44
_symmetry_cell_setting 'orthorhombic'
loop_
_space_group_symop_operation_xyz
x,y,z
-x,-y,z
-x,y,z
x,-y,z
1/2+x,1/2+y,1/2+z
1/2-x,1/2-y,1/2+z
1/2-x,1/2+y,1/2+z
1/2+x,1/2-y,1/2+z
loop_
_atom_site_type_symbol
_atom_site_label
_atom_site_fract_x
_atom_site_fract_y
_atom_site_fract_z
Si Si1 0.395241 0.320128 0.680380
Si Si2 0.350577 0.816177 0.477436
Si Si3 0.376522 0.316333 0.240442
Si Si4 0.313596 0.819659 0.072209
Si Si5 0.545831 0.311777 0.114174
Si Si6 0.545967 0.686611 0.863476
Si Si7 0.228235 0.318128 0.108459
Si Si8 0.326381 0.179029 0.811216
O O1 0.401806 0.500000 0.655936
O O2 0.383371 0.235933 0.567068
O O3 0.430511 0.255284 0.756390
O O4 0.357977 0.295704 0.761496
O O5 0.361530 0.752702 0.356746
O O6 0.307811 0.765203 0.527613
O O7 0.349202 0.000000 0.474005
O O8 0.378417 0.500000 0.252247
O O9 0.344823 0.273525 0.145660
O O10 0.420128 0.261966 0.199904
O O11 0.268741 0.770959 0.095266
O O12 0.318982 0.000000 0.097574
O O13 0.320413 0.795959 0.940896
O O14 0.500000 0.264711 0.135117
O O15 0.545478 0.500000 0.113832
O O16 0.557852 0.261692 0.988157
O O17 0.500000 0.720780 0.852563
O O18 0.550779 0.500000 0.863168
O O19 0.234959 0.500000 0.086558
O O20 0.212224 0.303399 0.234742
O O21 0.339642 0.000000 0.793256
#
# Coordination Sequence:
#
# PCOD9373427 Si02
#       8
#     8   8   8   8   8   8   8   8
#     4  10  18  31  55  82 104 135 180 223 268 322
#     4  10  22  40  57  75 107 148 185 227 280 331
#     4  11  22  36  57  84 111 144 188 235 279 331
#     4  11  23  36  54  81 111 143 178 222 275 328
#     4   8  15  30  53  82 114 145 180 228 281 325
#     4   8  14  26  48  80 114 140 169 219 276 325
#     4   9  20  38  56  75 100 137 182 228 272 319
#     4   9  20  37  53  73 105 141 173 214 269 320
#
# _framework density 18.162303999999999
#
# number of rings (size 3 to 8) (size 9 to 14) (size 15 to 20)
#    0.000    2.500    0.000    3.750    1.750    4.500 
#    0.000    0.625    0.000    6.750    0.000    8.750 
#    0.000    0.000    0.000    0.000    0.000    0.000 
#
# Total GULP energy -178391.369472 kJ/mol
# GULP energy per Si atom -5574.730296 kJ/mol
# Density = 1.812097 g / cm^3
# Si number density = 18.162304 Si / 1000 Ang^3
#
#
#
# Elastic Constant Matrix: (Units=GPa)
#
#
# Indices 1 2 3 4 5 6 
#
# 1 70.9682 11.6615 50.4649 0.0000 0.0000 0.0000
# 2 11.6615 20.0061 26.3851 0.0000 0.0000 0.0000
# 3 50.4649 26.3851 99.0035 0.0000 0.0000 0.0000
# 4 0.0000 0.0000 0.0000 27.0940 0.0000 0.0000
# 5 0.0000 0.0000 0.0000 0.0000 12.6419 0.0000
# 6 0.0000 0.0000 0.0000 0.0000 0.0000 13.8361
#
#
#
# Elastic Compliance Matrix: (Units=1/GPa)
#
#
# Indices 1 2 3 4 5 6 
#
# 1 0.022223 0.003062 -0.012144 0.000000 0.000000 0.000000
# 2 0.003062 0.077497 -0.022214 0.000000 0.000000 0.000000
# 3 -0.012144 -0.022214 0.022211 0.000000 0.000000 0.000000
# 4 0.000000 0.000000 0.000000 0.036909 0.000000 0.000000
# 5 0.000000 0.000000 0.000000 0.000000 0.079102 0.000000
# 6 0.000000 0.000000 0.000000 0.000000 0.000000 0.072274
#
#
# Mechanical properties :
#
#
# Convention : Reuss Voigt Hill
#
# Bulk Modulus (GPa) = 16.85225 40.77785 28.81505
# Shear Modulus (GPa) = 12.73599 17.47882 15.10741
#
# Velocity S-wave (km/s) = 2.65095 3.10557 2.88722
# Velocity P-wave (km/s) = 4.32075 5.94643 5.19755
#
# Compressibility (1/GPa) = 0.05933926
#
# Stress axis : x y z
#
# Youngs Moduli (GPa) = 44.99840 12.90367 45.02276
#
# Poissons Ratio (x) = -0.03951 0.54675
# Poissons Ratio (y) = -0.13779 1.00015
# Poissons Ratio (z) = 0.54645 0.28665
#
# Static dielectric constant tensor:
#      x y z
#    x 1.629610 0.000000 0.000000 
#    y 0.000000 1.624620 0.000000 
#    z 0.000000 0.000000 1.621640 
# 
# From -- ./inp_files/15051.got.cif
#   From: 2010.05.17/outbox.cif.g08.bks.cpg/sg44_8_cif.got.tgz:15051.got - 2010.06.03 19:37:08.
