data_PCOD9373413
_publ_section_title
;
Structure prediction by ZEFSAII (Michael W. Deem and Ramdas Pophale) SiO2 
 PCOD9373413
Probable space group: I M M 2
;
_chemical_formula_sum "Si O2"
_cell_formula_units_Z 64
_cell_length_a 19.682775
_cell_length_b 7.827673
_cell_length_c 19.394019
_cell_angle_alpha 90.000000
_cell_angle_beta 90.000000
_cell_angle_gamma 90.000000
_cell_volume 2988.042838
_symmetry_space_group_name_H-M "I M M 2"
_symmetry_group_IT_number 44
_symmetry_cell_setting 'orthorhombic'
loop_
_space_group_symop_operation_xyz
x,y,z
-x,-y,z
-x,y,z
x,-y,z
1/2+x,1/2+y,1/2+z
1/2-x,1/2-y,1/2+z
1/2-x,1/2+y,1/2+z
1/2+x,1/2-y,1/2+z
loop_
_atom_site_type_symbol
_atom_site_label
_atom_site_fract_x
_atom_site_fract_y
_atom_site_fract_z
Si Si1 0.174294 0.193840 0.702110
Si Si2 0.817538 0.792096 0.180102
Si Si3 0.576630 0.291215 0.798295
Si Si4 0.077728 0.701623 0.577957
Si Si5 0.928482 0.207612 0.075397
Si Si6 0.647728 0.702472 0.934201
Si Si7 0.213741 0.206839 0.853707
Si Si8 0.427541 0.708064 0.417122
O O1 0.245815 0.208364 0.663937
O O2 0.116200 0.258217 0.650302
O O3 0.201652 0.272196 0.775100
O O4 0.154552 0.000000 0.718553
O O5 0.860618 0.741066 0.248444
O O6 0.865897 0.735877 0.118662
O O7 0.810219 0.000000 0.181013
O O8 0.500000 0.236758 0.779182
O O9 0.576190 0.500000 0.795824
O O10 0.595097 0.233460 0.875597
O O11 0.070937 0.500000 0.576145
O O12 0.124419 0.745113 0.511027
O O13 0.000000 0.774910 0.574074
O O14 0.000000 0.261083 0.107291
O O15 0.927350 0.000000 0.076116
O O16 0.927335 0.259749 0.996618
O O17 0.642978 0.500000 0.934358
O O18 0.722020 0.742976 0.901138
O O19 0.142994 0.264763 0.886660
O O20 0.217526 0.000000 0.850743
O O21 0.500000 0.763499 0.385584
O O22 0.427169 0.500000 0.414305
#
# Coordination Sequence:
#
# PCOD9373413 Si02
#       8
#     8   8   8   8   8   8   8   8
#     4  11  24  40  59  87 124 161 203 255 308 366
#     4  10  18  31  53  82 116 156 200 243 292 355
#     4   9  17  30  52  83 118 157 201 247 297 360
#     4  11  26  47  69  92 120 160 214 272 328 387
#     4   8  14  25  46  78 110 139 181 235 282 335
#     4  11  22  38  62  93 128 163 203 257 317 381
#     4  10  21  37  59  88 123 164 208 255 306 369
#     4   8  15  29  50  79 111 144 190 244 294 347
#
# _framework density 21.418702
#
# number of rings (size 3 to 8) (size 9 to 14) (size 15 to 20)
#    0.000    2.250    1.250    2.625    1.750    4.000 
#    0.000    1.250    0.000    2.625    0.000    1.750 
#    0.000    0.000    0.000    0.000    0.000    0.000 
#
# Total GULP energy -178171.854378 kJ/mol
# GULP energy per Si atom -5567.870449 kJ/mol
# Density = 2.136995 g / cm^3
# Si number density = 21.418702 Si / 1000 Ang^3
#
#
#
# Elastic Constant Matrix: (Units=GPa)
#
#
# Indices 1 2 3 4 5 6 
#
# 1 157.4081 5.5355 70.4027 0.0000 0.0000 0.0000
# 2 5.5355 34.6636 12.0112 0.0000 0.0000 0.0000
# 3 70.4027 12.0112 84.9720 0.0000 0.0000 0.0000
# 4 0.0000 0.0000 0.0000 12.6763 0.0000 0.0000
# 5 0.0000 0.0000 0.0000 0.0000 32.2759 0.0000
# 6 0.0000 0.0000 0.0000 0.0000 0.0000 5.8724
#
#
#
# Elastic Compliance Matrix: (Units=1/GPa)
#
#
# Indices 1 2 3 4 5 6 
#
# 1 0.010154 0.001360 -0.008605 0.000000 0.000000 0.000000
# 2 0.001360 0.030517 -0.005441 0.000000 0.000000 0.000000
# 3 -0.008605 -0.005441 0.019667 0.000000 0.000000 0.000000
# 4 0.000000 0.000000 0.000000 0.078887 0.000000 0.000000
# 5 0.000000 0.000000 0.000000 0.000000 0.030983 0.000000
# 6 0.000000 0.000000 0.000000 0.000000 0.000000 0.170287
#
#
# Mechanical properties :
#
#
# Convention : Reuss Voigt Hill
#
# Bulk Modulus (GPa) = 28.59863 50.32695 39.46279
# Shear Modulus (GPa) = 13.24426 22.77121 18.00774
#
# Velocity S-wave (km/s) = 2.48936 3.26413 2.90271
# Velocity P-wave (km/s) = 4.65228 6.14441 5.44966
#
# Compressibility (1/GPa) = 0.03496672
#
# Stress axis : x y z
#
# Youngs Moduli (GPa) = 98.48497 32.76891 50.84565
#
# Poissons Ratio (x) = -0.04457 0.43753
# Poissons Ratio (y) = -0.13397 0.27664
# Poissons Ratio (z) = 0.84748 0.17829
#
# Static dielectric constant tensor:
#      x y z
#    x 1.765670 0.000000 0.000000 
#    y 0.000000 1.800720 0.000000 
#    z 0.000000 0.000000 1.840510 
# 
# From -- ./inp_files/22290.got.cif
#   From: 2010.05.17/outbox.cif.g08.bks.cpg/sg44_12_cif.got.tgz:22290.got - 2010.06.03 19:37:08.
