data_PCOD9373759
_publ_section_title
;
Structure prediction by ZEFSAII (Michael W. Deem and Ramdas Pophale) SiO2 
 PCOD9373759
Probable space group: I M M 2
;
_chemical_formula_sum "Si O2"
_cell_formula_units_Z 40
_cell_length_a 26.703946
_cell_length_b 8.002728
_cell_length_c 10.028473
_cell_angle_alpha 90.000000
_cell_angle_beta 90.000000
_cell_angle_gamma 90.000000
_cell_volume 2143.128969
_symmetry_space_group_name_H-M "I M M 2"
_symmetry_group_IT_number 44
_symmetry_cell_setting 'orthorhombic'
loop_
_space_group_symop_operation_xyz
x,y,z
-x,-y,z
-x,y,z
x,-y,z
1/2+x,1/2+y,1/2+z
1/2-x,1/2-y,1/2+z
1/2-x,1/2+y,1/2+z
1/2+x,1/2-y,1/2+z
loop_
_atom_site_type_symbol
_atom_site_label
_atom_site_fract_x
_atom_site_fract_y
_atom_site_fract_z
Si Si1 0.717774 0.201989 0.036270
Si Si2 0.167766 0.798733 0.039677
Si Si3 0.863208 0.699351 0.749892
Si Si4 0.636804 0.298880 0.825152
Si Si5 0.443264 0.298885 0.038400
O O1 0.774691 0.263051 0.037757
O O2 0.684591 0.260771 0.162550
O O3 0.718654 0.000000 0.039195
O O4 0.687431 0.256343 0.905329
O O5 0.140805 0.737007 0.173985
O O6 0.169794 0.000000 0.048078
O O7 0.141413 0.754369 0.901728
O O8 0.862299 0.500000 0.745564
O O9 0.912488 0.758175 0.671928
O O10 0.632678 0.500000 0.821510
O O11 0.590779 0.235021 0.915286
O O12 0.500000 0.235030 0.038322
O O13 0.445280 0.500000 0.027562
#
# Coordination Sequence:
#
# PCOD9373759 Si02
#       5
#     8   8   8   8   8
#     4   9  18  31  47  69  99 135 169 199 237 288
#     4  10  19  31  47  71 104 134 161 199 244 289
#     4  10  20  33  50  74 102 131 165 203 244 290
#     4   9  18  32  50  72  98 128 165 207 245 286
#     4   9  18  35  57  75  92 122 165 208 250 296
#
# _framework density 18.664300999999998
#
# number of rings (size 3 to 8) (size 9 to 14) (size 15 to 20)
#    0.000    2.600    0.000    1.800    0.000    4.400 
#    0.000    1.000    0.000    3.600    0.000    0.000 
#    0.000    0.000    0.000    0.000    0.000    0.000 
#
# Total GULP energy -111577.994421 kJ/mol
# GULP energy per Si atom -5578.899721 kJ/mol
# Density = 1.862182 g / cm^3
# Si number density = 18.664301 Si / 1000 Ang^3
#
#
#
# Elastic Constant Matrix: (Units=GPa)
#
#
# Indices 1 2 3 4 5 6 
#
# 1 153.2410 9.8866 92.3522 0.0000 0.0000 0.0000
# 2 9.8866 11.1162 6.8277 0.0000 0.0000 0.0000
# 3 92.3522 6.8277 191.4484 0.0000 0.0000 0.0000
# 4 0.0000 0.0000 0.0000 6.9083 0.0000 0.0000
# 5 0.0000 0.0000 0.0000 0.0000 4.3148 0.0000
# 6 0.0000 0.0000 0.0000 0.0000 0.0000 18.4254
#
#
#
# Elastic Compliance Matrix: (Units=1/GPa)
#
#
# Indices 1 2 3 4 5 6 
#
# 1 0.009552 -0.005792 -0.004401 0.000000 0.000000 0.000000
# 2 -0.005792 0.095485 -0.000611 0.000000 0.000000 0.000000
# 3 -0.004401 -0.000611 0.007368 0.000000 0.000000 0.000000
# 4 0.000000 0.000000 0.000000 0.144753 0.000000 0.000000
# 5 0.000000 0.000000 0.000000 0.000000 0.231759 0.000000
# 6 0.000000 0.000000 0.000000 0.000000 0.000000 0.054273
#
#
# Mechanical properties :
#
#
# Convention : Reuss Voigt Hill
#
# Bulk Modulus (GPa) = 11.01365 63.77095 37.39230
# Shear Modulus (GPa) = 8.40244 22.37898 15.39071
#
# Velocity S-wave (km/s) = 2.12407 3.46645 2.87471
# Velocity P-wave (km/s) = 3.45388 7.08966 5.57640
#
# Compressibility (1/GPa) = 0.09079640
#
# Stress axis : x y z
#
# Youngs Moduli (GPa) = 104.69359 10.47281 135.71937
#
# Poissons Ratio (x) = 0.06066 0.59731
# Poissons Ratio (y) = 0.60638 0.08297
# Poissons Ratio (z) = 0.46076 0.00640
#
# Static dielectric constant tensor:
#      x y z
#    x 1.635640 0.000000 0.000000 
#    y 0.000000 1.658300 0.000000 
#    z 0.000000 0.000000 1.648880 
# 
# From -- ./inp_files/4419.got.cif
#   From: 2010.05.17/outbox.cif.g08.bks.cpg/sg44_3_cif.got.tgz:4419.got - 2010.06.03 19:37:08.
