data_PCOD9373980
_publ_section_title
;
Structure prediction by ZEFSAII (Michael W. Deem and Ramdas Pophale) SiO2 
 PCOD9373980
Probable space group: I M M 2
;
_chemical_formula_sum "Si O2"
_cell_formula_units_Z 56
_cell_length_a 15.611689
_cell_length_b 8.574933
_cell_length_c 20.135879
_cell_angle_alpha 90.000000
_cell_angle_beta 90.000000
_cell_angle_gamma 90.000000
_cell_volume 2695.573755
_symmetry_space_group_name_H-M "I M M 2"
_symmetry_group_IT_number 44
_symmetry_cell_setting 'orthorhombic'
loop_
_space_group_symop_operation_xyz
x,y,z
-x,-y,z
-x,y,z
x,-y,z
1/2+x,1/2+y,1/2+z
1/2-x,1/2-y,1/2+z
1/2-x,1/2+y,1/2+z
1/2+x,1/2-y,1/2+z
loop_
_atom_site_type_symbol
_atom_site_label
_atom_site_fract_x
_atom_site_fract_y
_atom_site_fract_z
Si Si1 0.827839 0.680741 0.473220
Si Si2 0.901004 0.813243 0.336812
Si Si3 0.090648 0.314954 0.091031
Si Si4 0.595017 0.177163 0.320822
Si Si5 0.726724 0.814429 0.116458
Si Si6 0.256689 0.320723 0.250871
Si Si7 0.124311 0.823293 0.950489
O O1 0.857042 0.500000 0.474139
O O2 0.876463 0.765687 0.412967
O O3 0.824762 0.740717 0.550424
O O4 0.727374 0.683470 0.454870
O O5 0.830028 0.744869 0.285468
O O6 0.000000 0.764471 0.323565
O O7 0.896395 0.000000 0.331698
O O8 0.096456 0.500000 0.079219
O O9 0.178259 0.258302 0.122713
O O10 0.000000 0.284589 0.126769
O O11 0.091273 0.220926 0.022733
O O12 0.500000 0.208478 0.293493
O O13 0.668079 0.300679 0.304232
O O14 0.591405 0.195847 0.399796
O O15 0.620399 0.000000 0.303682
O O16 0.697031 0.768920 0.189495
O O17 0.733917 0.000000 0.108647
O O18 0.242005 0.500000 0.233181
O O19 0.099491 0.000000 0.933116
#
# Coordination Sequence:
#
# PCOD9373980 Si02
#       7
#     8   8   8   8   8   8   8
#     4   9  19  37  61  90 120 157 203 253 310 368
#     4  11  24  41  65  96 129 170 218 268 323 383
#     4  10  20  33  51  80 117 155 197 243 295 359
#     4  11  23  38  59  87 119 156 197 245 303 365
#     4  10  22  40  62  85 117 161 207 258 319 381
#     4  12  25  42  64  91 125 165 210 262 321 384
#     4  10  19  32  54  85 119 154 192 238 294 353
#
# _framework density 20.774798000000001
#
# number of rings (size 3 to 8) (size 9 to 14) (size 15 to 20)
#    0.000    1.571    1.429    4.714    0.000    8.571 
#    0.000    0.714    0.000    0.857    0.000    0.000 
#    0.000    0.000    0.000    0.000    0.000    0.000 
#
# Total GULP energy -156027.792936 kJ/mol
# GULP energy per Si atom -5572.421176 kJ/mol
# Density = 2.072751 g / cm^3
# Si number density = 20.774798 Si / 1000 Ang^3
#
#
#
# Elastic Constant Matrix: (Units=GPa)
#
#
# Indices 1 2 3 4 5 6 
#
# 1 52.3487 13.0294 -3.5828 0.0000 0.0000 0.0000
# 2 13.0294 76.7742 9.5331 0.0000 0.0000 0.0000
# 3 -3.5828 9.5331 73.0706 0.0000 0.0000 0.0000
# 4 0.0000 0.0000 0.0000 36.4641 0.0000 0.0000
# 5 0.0000 0.0000 0.0000 0.0000 11.2967 0.0000
# 6 0.0000 0.0000 0.0000 0.0000 0.0000 105.4112
#
#
#
# Elastic Compliance Matrix: (Units=1/GPa)
#
#
# Indices 1 2 3 4 5 6 
#
# 1 0.020096 -0.003591 0.001454 0.000000 0.000000 0.000000
# 2 -0.003591 0.013881 -0.001987 0.000000 0.000000 0.000000
# 3 0.001454 -0.001987 0.014016 0.000000 0.000000 0.000000
# 4 0.000000 0.000000 0.000000 0.027424 0.000000 0.000000
# 5 0.000000 0.000000 0.000000 0.000000 0.088522 0.000000
# 6 0.000000 0.000000 0.000000 0.000000 0.000000 0.009487
#
#
# Mechanical properties :
#
#
# Convention : Reuss Voigt Hill
#
# Bulk Modulus (GPa) = 25.16058 26.68367 25.92212
# Shear Modulus (GPa) = 25.65119 42.84864 34.24991
#
# Velocity S-wave (km/s) = 3.51768 4.54644 4.06474
# Velocity P-wave (km/s) = 5.35128 6.35863 5.87658
#
# Compressibility (1/GPa) = 0.03974471
#
# Stress axis : x y z
#
# Youngs Moduli (GPa) = 49.76119 72.03892 71.34744
#
# Poissons Ratio (x) = 0.25869 -0.10373
# Poissons Ratio (y) = 0.17869 0.14177
# Poissons Ratio (z) = -0.07234 0.14315
#
# Static dielectric constant tensor:
#      x y z
#    x 1.861970 0.000000 0.000000 
#    y 0.000000 1.694310 0.000000 
#    z 0.000000 0.000000 1.767760 
# 
# From -- ./inp_files/24140.got.cif
#   From: 2010.05.17/outbox.cif.g08.bks.cpg/sg44_13_cif.got.tgz:24140.got - 2010.06.03 19:37:08.
