data_PCOD9373196
_publ_section_title
;
Structure prediction by ZEFSAII (Michael W. Deem and Ramdas Pophale) SiO2 
 PCOD9373196
Probable space group: I M M 2
;
_chemical_formula_sum "Si O2"
_cell_formula_units_Z 64
_cell_length_a 8.997762
_cell_length_b 18.862090
_cell_length_c 26.603562
_cell_angle_alpha 90.000000
_cell_angle_beta 90.000000
_cell_angle_gamma 90.000000
_cell_volume 4515.066001
_symmetry_space_group_name_H-M "I M M 2"
_symmetry_group_IT_number 44
_symmetry_cell_setting 'orthorhombic'
loop_
_space_group_symop_operation_xyz
x,y,z
-x,-y,z
-x,y,z
x,-y,z
1/2+x,1/2+y,1/2+z
1/2-x,1/2-y,1/2+z
1/2-x,1/2+y,1/2+z
1/2+x,1/2-y,1/2+z
loop_
_atom_site_type_symbol
_atom_site_label
_atom_site_fract_x
_atom_site_fract_y
_atom_site_fract_z
Si Si1 0.822942 0.416029 0.579310
Si Si2 0.829417 0.287325 0.329262
Si Si3 0.677518 0.339134 0.485365
Si Si4 0.828954 0.208478 0.437812
Si Si5 0.321173 0.082559 0.890514
Si Si6 0.323373 0.583552 0.686699
Si Si7 0.678429 0.917836 0.385386
Si Si8 0.323363 0.840042 0.280455
O O1 0.795853 0.500000 0.569788
O O2 0.743797 0.370631 0.536455
O O3 0.757226 0.399689 0.634201
O O4 0.000000 0.404673 0.578287
O O5 0.827582 0.248622 0.383746
O O6 0.782244 0.367088 0.343290
O O7 0.728281 0.239574 0.293733
O O8 0.000000 0.286923 0.311180
O O9 0.500000 0.340039 0.485713
O O10 0.737812 0.260034 0.474284
O O11 0.738752 0.387715 0.439606
O O12 0.756247 0.132833 0.425913
O O13 0.000000 0.202389 0.453830
O O14 0.500000 0.090849 0.898408
O O15 0.289663 0.000000 0.882778
O O16 0.500000 0.593554 0.681609
O O17 0.295912 0.500000 0.697266
O O18 0.259266 0.629131 0.732265
O O19 0.500000 0.912177 0.390884
O O20 0.714442 0.887618 0.329715
O O21 0.721187 0.000000 0.389346
O O22 0.500000 0.843325 0.273311
#
# Coordination Sequence:
#
# PCOD9373196 Si02
#       8
#     8   8   8   8   8   8   8   8
#     4  10  20  33  47  62  83 111 142 176 212 249
#     4   8  15  27  41  58  81 109 140 174 209 245
#     4  11  20  29  43  62  85 113 144 176 212 252
#     4   9  17  29  43  59  81 110 144 178 211 249
#     4   9  17  29  44  62  85 113 144 176 211 252
#     4  10  20  32  45  62  84 109 140 178 214 247
#     4   9  17  28  42  62  88 115 143 176 213 253
#     4  10  18  28  43  61  83 113 145 174 208 250
#
# _framework density 14.174764
#
# number of rings (size 3 to 8) (size 9 to 14) (size 15 to 20)
#    0.000    2.500    0.000    4.125    0.000    7.500 
#    0.000    0.000    0.000    0.000    0.000    0.000 
#    0.000    1.000    0.000    6.000    0.000    4.625 
#
# Total GULP energy -178379.664890 kJ/mol
# GULP energy per Si atom -5574.364528 kJ/mol
# Density = 1.414250 g / cm^3
# Si number density = 14.174764 Si / 1000 Ang^3
#
#
#
# Elastic Constant Matrix: (Units=GPa)
#
#
# Indices 1 2 3 4 5 6 
#
# 1 75.4394 55.6267 53.4314 0.0000 0.0000 0.0000
# 2 55.6267 118.1663 56.5382 0.0000 0.0000 0.0000
# 3 53.4314 56.5382 78.4392 0.0000 0.0000 0.0000
# 4 0.0000 0.0000 0.0000 25.1568 0.0000 0.0000
# 5 0.0000 0.0000 0.0000 0.0000 23.0782 0.0000
# 6 0.0000 0.0000 0.0000 0.0000 0.0000 21.9259
#
#
#
# Elastic Compliance Matrix: (Units=1/GPa)
#
#
# Indices 1 2 3 4 5 6 
#
# 1 0.028361 -0.006270 -0.014800 0.000000 0.000000 0.000000
# 2 -0.006270 0.014304 -0.006039 0.000000 0.000000 0.000000
# 3 -0.014800 -0.006039 0.027183 0.000000 0.000000 0.000000
# 4 0.000000 0.000000 0.000000 0.039751 0.000000 0.000000
# 5 0.000000 0.000000 0.000000 0.000000 0.043331 0.000000
# 6 0.000000 0.000000 0.000000 0.000000 0.000000 0.045608
#
#
# Mechanical properties :
#
#
# Convention : Reuss Voigt Hill
#
# Bulk Modulus (GPa) = 63.97816 67.02639 65.50228
# Shear Modulus (GPa) = 19.38247 21.12877 20.25562
#
# Velocity S-wave (km/s) = 3.70184 3.86501 3.78430
# Velocity P-wave (km/s) = 7.96899 8.20403 8.08736
#
# Compressibility (1/GPa) = 0.01563033
#
# Stress axis : x y z
#
# Youngs Moduli (GPa) = 35.25948 69.91252 36.78763
#
# Poissons Ratio (x) = 0.43834 0.54445
# Poissons Ratio (y) = 0.22107 0.22216
# Poissons Ratio (z) = 0.52184 0.42220
#
# Static dielectric constant tensor:
#      x y z
#    x 1.473520 0.000000 0.000000 
#    y 0.000000 1.473120 0.000000 
#    z 0.000000 0.000000 1.436550 
# 
# From -- ./inp_files/25211.got.cif
#   From: 2010.05.17/outbox.cif.g08.bks.cpg/sg44_13_cif.got.tgz:25211.got - 2010.06.03 19:37:08.
