data_PCOD9373858
_publ_section_title
;
Structure prediction by ZEFSAII (Michael W. Deem and Ramdas Pophale) SiO2 
 PCOD9373858
Probable space group: I M M 2
;
_chemical_formula_sum "Si O2"
_cell_formula_units_Z 40
_cell_length_a 9.155772
_cell_length_b 10.956694
_cell_length_c 22.449737
_cell_angle_alpha 90.000000
_cell_angle_beta 90.000000
_cell_angle_gamma 90.000000
_cell_volume 2252.090090
_symmetry_space_group_name_H-M "I M M 2"
_symmetry_group_IT_number 44
_symmetry_cell_setting 'orthorhombic'
loop_
_space_group_symop_operation_xyz
x,y,z
-x,-y,z
-x,y,z
x,-y,z
1/2+x,1/2+y,1/2+z
1/2-x,1/2-y,1/2+z
1/2-x,1/2+y,1/2+z
1/2+x,1/2-y,1/2+z
loop_
_atom_site_type_symbol
_atom_site_label
_atom_site_fract_x
_atom_site_fract_y
_atom_site_fract_z
Si Si1 0.829876 0.355625 0.213010
Si Si2 0.157845 0.500000 0.728378
Si Si3 0.171012 0.000000 0.049664
Si Si4 0.166262 0.299841 0.625704
Si Si5 0.677390 0.770598 0.844806
Si Si6 0.826944 0.000000 0.344641
Si Si7 0.171982 0.000000 0.907380
O O1 0.817647 0.500000 0.223267
O O2 0.744188 0.317284 0.153643
O O3 0.783540 0.291547 0.275034
O O4 0.000000 0.323749 0.204021
O O5 0.162534 0.387035 0.683727
O O6 0.287648 0.500000 0.774729
O O7 0.000000 0.500000 0.760434
O O8 0.247244 0.879660 0.077332
O O9 0.184884 0.000000 0.978728
O O10 0.000000 0.000000 0.066185
O O11 0.000000 0.277399 0.606213
O O12 0.500000 0.779576 0.848850
O O13 0.724646 0.634296 0.865464
O O14 0.751027 0.879583 0.881086
O O15 0.000000 0.000000 0.353245
O O16 0.000000 0.000000 0.891677
#
# Coordination Sequence:
#
# PCOD9373858 Si02
#       7
#     8   4   4   8   8   4   4
#     4  10  19  32  52  81 116 155 191 226 283 350
#     4   9  17  27  43  73 109 136 164 210 269 325
#     4  10  22  40  61  81 105 144 197 243 286 346
#     4  10  20  33  52  82 110 138 181 232 289 336
#     4  10  20  35  56  85 118 155 195 235 285 346
#     4  10  19  31  52  81 112 148 187 224 275 339
#     4  11  24  40  60  85 112 152 202 245 292 340
#
# _framework density 17.761278999999998
#
# number of rings (size 3 to 8) (size 9 to 14) (size 15 to 20)
#    0.000    2.000    3.000    1.800    0.000    5.200 
#    0.000    0.000    2.200    0.000    0.000    0.000 
#    0.000    0.000    0.000    0.000    0.000    0.000 
#
# Total GULP energy -111417.270787 kJ/mol
# GULP energy per Si atom -5570.863539 kJ/mol
# Density = 1.772085 g / cm^3
# Si number density = 17.761279 Si / 1000 Ang^3
#
#
#
# Elastic Constant Matrix: (Units=GPa)
#
#
# Indices 1 2 3 4 5 6 
#
# 1 63.0587 41.1176 40.1201 0.0000 0.0000 0.0000
# 2 41.1176 109.1003 35.4405 0.0000 0.0000 0.0000
# 3 40.1201 35.4405 54.1249 0.0000 0.0000 0.0000
# 4 0.0000 0.0000 0.0000 21.6641 0.0000 0.0000
# 5 0.0000 0.0000 0.0000 0.0000 24.7196 0.0000
# 6 0.0000 0.0000 0.0000 0.0000 0.0000 23.5925
#
#
#
# Elastic Compliance Matrix: (Units=1/GPa)
#
#
# Indices 1 2 3 4 5 6 
#
# 1 0.032517 -0.005621 -0.020423 0.000000 0.000000 0.000000
# 2 -0.005621 0.012614 -0.004093 0.000000 0.000000 0.000000
# 3 -0.020423 -0.004093 0.036294 0.000000 0.000000 0.000000
# 4 0.000000 0.000000 0.000000 0.046159 0.000000 0.000000
# 5 0.000000 0.000000 0.000000 0.000000 0.040454 0.000000
# 6 0.000000 0.000000 0.000000 0.000000 0.000000 0.042386
#
#
# Mechanical properties :
#
#
# Convention : Reuss Voigt Hill
#
# Bulk Modulus (GPa) = 47.27710 51.07114 49.17412
# Shear Modulus (GPa) = 18.00192 21.30229 19.65210
#
# Velocity S-wave (km/s) = 3.18708 3.46694 3.32995
# Velocity P-wave (km/s) = 6.34186 6.69648 6.52158
#
# Compressibility (1/GPa) = 0.02115189
#
# Stress axis : x y z
#
# Youngs Moduli (GPa) = 30.75321 79.27827 27.55258
#
# Poissons Ratio (x) = 0.44560 0.56270
# Poissons Ratio (y) = 0.17286 0.11277
# Poissons Ratio (z) = 0.62807 0.32449
#
# Static dielectric constant tensor:
#      x y z
#    x 1.639570 0.000000 0.000000 
#    y 0.000000 1.665540 0.000000 
#    z 0.000000 0.000000 1.570880 
# 
# From -- ./inp_files/22816.got.cif
#   From: 2010.05.17/outbox.cif.g08.bks.cpg/sg44_12_cif.got.tgz:22816.got - 2010.06.03 19:37:08.
