data_PCOD9373499
_publ_section_title
;
Structure prediction by ZEFSAII (Michael W. Deem and Ramdas Pophale) SiO2 
 PCOD9373499
Probable space group: I M M 2
;
_chemical_formula_sum "Si O2"
_cell_formula_units_Z 64
_cell_length_a 22.489571
_cell_length_b 15.575347
_cell_length_c 9.421106
_cell_angle_alpha 90.000000
_cell_angle_beta 90.000000
_cell_angle_gamma 90.000000
_cell_volume 3300.052069
_symmetry_space_group_name_H-M "I M M 2"
_symmetry_group_IT_number 44
_symmetry_cell_setting 'orthorhombic'
loop_
_space_group_symop_operation_xyz
x,y,z
-x,-y,z
-x,y,z
x,-y,z
1/2+x,1/2+y,1/2+z
1/2-x,1/2-y,1/2+z
1/2-x,1/2+y,1/2+z
1/2+x,1/2-y,1/2+z
loop_
_atom_site_type_symbol
_atom_site_label
_atom_site_fract_x
_atom_site_fract_y
_atom_site_fract_z
Si Si1 0.645608 0.693859 0.145590
Si Si2 0.567280 0.194879 0.338758
Si Si3 0.846808 0.404477 0.012060
Si Si4 0.624018 0.723503 0.837264
Si Si5 0.726400 0.257873 0.607157
Si Si6 0.065338 0.847346 0.068087
Si Si7 0.928745 0.596964 0.292884
Si Si8 0.321441 0.406687 0.415797
O O1 0.591224 0.747304 0.211043
O O2 0.705182 0.751003 0.145203
O O3 0.661044 0.618471 0.255787
O O4 0.632589 0.673246 0.982920
O O5 0.500000 0.164938 0.318926
O O6 0.614424 0.121709 0.375802
O O7 0.568821 0.259679 0.474587
O O8 0.821669 0.500000 0.002156
O O9 0.797990 0.331836 0.042839
O O10 0.894322 0.403222 0.142022
O O11 0.684797 0.726829 0.744831
O O12 0.578218 0.679405 0.728988
O O13 0.600468 0.820387 0.868876
O O14 0.716036 0.331662 0.490429
O O15 0.000000 0.884025 0.050013
O O16 0.117685 0.904658 0.006196
O O17 0.920111 0.500000 0.353494
O O18 0.000000 0.609446 0.275929
O O19 0.292835 0.500000 0.421678
#
# Coordination Sequence:
#
# PCOD9373499 Si02
#       8
#     8   8   8   8   8   8   8   8
#     4  11  22  37  59  86 121 156 189 247 313 364
#     4  10  19  35  55  83 122 164 204 240 293 368
#     4  10  18  32  58  89 114 153 206 250 289 344
#     4  10  19  31  55  82 112 152 195 246 301 353
#     4  10  20  40  60  84 118 158 202 251 296 358
#     4   9  17  34  59  83 112 154 203 249 294 352
#     4   9  16  28  50  81 115 149 191 238 281 339
#     4  10  21  40  64  87 113 155 204 245 298 361
#
# _framework density 19.393632
#
# number of rings (size 3 to 8) (size 9 to 14) (size 15 to 20)
#    0.000    2.125    5.000    1.500    0.000    2.500 
#    0.000    6.875    0.000    0.000    0.000    0.000 
#    0.000    0.000    0.000    0.000    0.000    0.000 
#
# Total GULP energy -178448.238300 kJ/mol
# GULP energy per Si atom -5576.507447 kJ/mol
# Density = 1.934949 g / cm^3
# Si number density = 19.393632 Si / 1000 Ang^3
#
#
#
# Elastic Constant Matrix: (Units=GPa)
#
#
# Indices 1 2 3 4 5 6 
#
# 1 37.7498 -2.4611 9.9666 0.0000 0.0000 0.0000
# 2 -2.4611 95.3803 31.0389 0.0000 0.0000 0.0000
# 3 9.9666 31.0389 93.8332 0.0000 0.0000 0.0000
# 4 0.0000 0.0000 0.0000 2.2435 0.0000 0.0000
# 5 0.0000 0.0000 0.0000 0.0000 13.3062 0.0000
# 6 0.0000 0.0000 0.0000 0.0000 0.0000 -3.4993
#
#
#
# Elastic Compliance Matrix: (Units=1/GPa)
#
#
# Indices 1 2 3 4 5 6 
#
# 1 0.027547 0.001864 -0.003542 0.000000 0.000000 0.000000
# 2 0.001864 0.011875 -0.004126 0.000000 0.000000 0.000000
# 3 -0.003542 -0.004126 0.012398 0.000000 0.000000 0.000000
# 4 0.000000 0.000000 0.000000 0.445736 0.000000 0.000000
# 5 0.000000 0.000000 0.000000 0.000000 0.075153 0.000000
# 6 0.000000 0.000000 0.000000 0.000000 0.000000 -0.285772
#
#
# Mechanical properties :
#
#
# Convention : Reuss Voigt Hill
#
# Bulk Modulus (GPa) = 24.86904 33.78356 29.32630
# Shear Modulus (GPa) = 16.02820 14.97134 15.49977
#
# Velocity S-wave (km/s) = 2.87795 2.78145 2.83011
# Velocity P-wave (km/s) = 4.88821 5.27001 5.08270
#
# Compressibility (1/GPa) = 0.04021063
#
# Stress axis : x y z
#
# Youngs Moduli (GPa) = 36.30161 84.20939 80.65598
#
# Poissons Ratio (x) = -0.15693 0.28572
# Poissons Ratio (y) = -0.06765 0.33279
# Poissons Ratio (z) = 0.12859 0.34746
#
# Static dielectric constant tensor:
#      x y z
#    x 1.676790 0.000000 0.000000 
#    y 0.000000 1.717600 0.000000 
#    z 0.000000 0.000000 1.684990 
# 
# From -- ./inp_files/9452.got.cif
#   From: 2010.05.17/outbox.cif.g08.bks.cpg/sg44_5_cif.got.tgz:9452.got - 2010.06.03 19:37:08.
