data_PCOD9373034
_publ_section_title
;
Structure prediction by ZEFSAII (Michael W. Deem and Ramdas Pophale) SiO2 
 PCOD9373034
Probable space group: I M M 2
;
_chemical_formula_sum "Si O2"
_cell_formula_units_Z 64
_cell_length_a 7.411831
_cell_length_b 14.812314
_cell_length_c 29.673244
_cell_angle_alpha 90.000000
_cell_angle_beta 90.000000
_cell_angle_gamma 90.000000
_cell_volume 3257.717688
_symmetry_space_group_name_H-M "I M M 2"
_symmetry_group_IT_number 44
_symmetry_cell_setting 'orthorhombic'
loop_
_space_group_symop_operation_xyz
x,y,z
-x,-y,z
-x,y,z
x,-y,z
1/2+x,1/2+y,1/2+z
1/2-x,1/2-y,1/2+z
1/2-x,1/2+y,1/2+z
1/2+x,1/2-y,1/2+z
loop_
_atom_site_type_symbol
_atom_site_label
_atom_site_fract_x
_atom_site_fract_y
_atom_site_fract_z
Si Si1 0.780038 0.604049 0.201480
Si Si2 0.280740 0.104985 0.872455
Si Si3 0.712992 0.214346 0.514631
Si Si4 0.219260 0.604985 0.928832
Si Si5 0.783126 0.602127 0.473484
Si Si6 0.712992 0.214346 0.786656
Si Si7 0.719962 0.895951 0.599807
Si Si8 0.783126 0.602127 0.827803
O O1 0.729673 0.500000 0.211129
O O2 0.715733 0.669972 0.240909
O O3 0.720987 0.626762 0.150643
O O4 0.000000 0.606240 0.200835
O O5 0.500000 0.110060 0.873161
O O6 0.218970 0.128842 0.923020
O O7 0.213196 0.166837 0.831904
O O8 0.234846 0.000000 0.864376
O O9 0.500000 0.194631 0.514696
O O10 0.786805 0.166837 0.469383
O O11 0.734099 0.321033 0.508736
O O12 0.784268 0.169973 0.560378
O O13 0.265153 0.500000 0.936910
O O14 0.281030 0.628842 0.878267
O O15 0.000000 0.610061 0.928126
O O16 0.720433 0.500000 0.482912
O O17 0.000000 0.598967 0.471673
O O18 0.500000 0.194631 0.786591
O O19 0.734099 0.321033 0.792550
O O20 0.500000 0.893760 0.600452
O O21 0.770327 0.000000 0.590157
O O22 0.720434 0.500000 0.818375
O O23 0.000000 0.598967 0.829614
#
# Coordination Sequence:
#
# PCOD9373034 Si02
#       8
#     8   8   8   8   8   8   8   8
#     4   8  14  25  42  66  93 114 132 161 206 257
#     4   8  14  25  41  62  87 113 140 168 202 249
#     4  10  17  25  44  69  86 105 139 179 210 239
#     4   8  14  25  41  62  87 113 140 168 202 249
#     4   9  18  31  43  56  82 119 148 170 204 249
#     4  10  17  25  44  69  86 105 139 179 210 239
#     4   8  14  25  42  66  93 114 132 161 206 257
#     4   9  18  31  43  56  82 119 148 170 204 249
#
# _framework density 19.645654
#
# number of rings (size 3 to 8) (size 9 to 14) (size 15 to 20)
#    0.000    3.250    0.000    3.750    0.000    3.500 
#    0.000    0.000    0.000    6.000    0.000    7.000 
#    0.000    0.000    0.000    0.000    0.000    0.000 
#
# Total GULP energy -178505.835387 kJ/mol
# GULP energy per Si atom -5578.307356 kJ/mol
# Density = 1.960094 g / cm^3
# Si number density = 19.645654 Si / 1000 Ang^3
#
#
#
# Elastic Constant Matrix: (Units=GPa)
#
#
# Indices 1 2 3 4 5 6 
#
# 1 61.9710 -4.5604 5.1914 0.0000 0.0000 0.0000
# 2 -4.5604 122.6962 117.0340 0.0000 0.0000 0.0000
# 3 5.1914 117.0340 150.1216 0.0000 0.0000 0.0000
# 4 0.0000 0.0000 0.0000 36.9825 0.0000 0.0000
# 5 0.0000 0.0000 0.0000 0.0000 -0.7468 0.0000
# 6 0.0000 0.0000 0.0000 0.0000 0.0000 10.6825
#
#
#
# Elastic Compliance Matrix: (Units=1/GPa)
#
#
# Indices 1 2 3 4 5 6 
#
# 1 0.016825 0.004604 -0.004171 0.000000 0.000000 0.000000
# 2 0.004604 0.033049 -0.025924 0.000000 0.000000 0.000000
# 3 -0.004171 -0.025924 0.027016 0.000000 0.000000 0.000000
# 4 0.000000 0.000000 0.000000 0.027040 0.000000 0.000000
# 5 0.000000 0.000000 0.000000 0.000000 -1.339108 0.000000
# 6 0.000000 0.000000 0.000000 0.000000 0.000000 0.093611
#
#
# Mechanical properties :
#
#
# Convention : Reuss Voigt Hill
#
# Bulk Modulus (GPa) = 38.59932 63.34653 50.97292
# Shear Modulus (GPa) = -4.62129 23.85856 9.61864
#
# Velocity S-wave (km/s) = -1.53539 3.48867 2.21511
# Velocity P-wave (km/s) = 4.06782 6.96723 5.70480
#
# Compressibility (1/GPa) = 0.02590719
#
# Stress axis : x y z
#
# Youngs Moduli (GPa) = 59.43618 30.25800 37.01534
#
# Poissons Ratio (x) = -0.13930 0.15439
# Poissons Ratio (y) = -0.27363 0.95959
# Poissons Ratio (z) = 0.24790 0.78441
#
# Static dielectric constant tensor:
#      x y z
#    x 1.782610 0.000000 0.000000 
#    y 0.000000 1.676580 0.000000 
#    z 0.000000 0.000000 1.686120 
# 
# From -- ./inp_files/19689.got.cif
#   From: 2010.05.17/outbox.cif.g08.bks.cpg/sg44_10_cif.got.tgz:19689.got - 2010.06.03 19:37:08.
