data_PCOD9373999
_publ_section_title
;
Structure prediction by ZEFSAII (Michael W. Deem and Ramdas Pophale) SiO2 
 PCOD9373999
Probable space group: I M M 2
;
_chemical_formula_sum "Si O2"
_cell_formula_units_Z 64
_cell_length_a 29.573631
_cell_length_b 7.685101
_cell_length_c 13.456189
_cell_angle_alpha 90.000000
_cell_angle_beta 90.000000
_cell_angle_gamma 90.000000
_cell_volume 3058.273402
_symmetry_space_group_name_H-M "I M M 2"
_symmetry_group_IT_number 44
_symmetry_cell_setting 'orthorhombic'
loop_
_space_group_symop_operation_xyz
x,y,z
-x,-y,z
-x,y,z
x,-y,z
1/2+x,1/2+y,1/2+z
1/2-x,1/2-y,1/2+z
1/2-x,1/2+y,1/2+z
1/2+x,1/2-y,1/2+z
loop_
_atom_site_type_symbol
_atom_site_label
_atom_site_fract_x
_atom_site_fract_y
_atom_site_fract_z
Si Si1 0.616628 0.802666 0.286910
Si Si2 0.853467 0.708565 0.999386
Si Si3 0.695055 0.695852 0.150415
Si Si4 0.552947 0.712219 0.888441
Si Si5 0.720784 0.709791 0.764675
Si Si6 0.551012 0.292922 0.108515
Si Si7 0.619461 0.290483 0.715775
Si Si8 0.250884 0.211784 0.484748
O O1 0.624768 0.722147 0.396270
O O2 0.664233 0.794775 0.228260
O O3 0.581397 0.735826 0.205141
O O4 0.602896 0.000000 0.305346
O O5 0.849064 0.500000 0.987554
O O6 0.881832 0.741440 0.099315
O O7 0.801578 0.775353 0.010974
O O8 0.676250 0.500000 0.142968
O O9 0.746341 0.695239 0.189173
O O10 0.706241 0.775428 0.043747
O O11 0.500000 0.758838 0.879068
O O12 0.555306 0.500000 0.886613
O O13 0.582364 0.774404 0.794717
O O14 0.568385 0.769299 0.999752
O O15 0.723567 0.500000 0.749032
O O16 0.669165 0.763556 0.752874
O O17 0.741496 0.750696 0.870971
O O18 0.500000 0.224089 0.122614
O O19 0.547744 0.500000 0.097824
O O20 0.617823 0.500000 0.718524
O O21 0.249962 0.000000 0.494661
#
# Coordination Sequence:
#
# PCOD9373999 Si02
#       8
#     8   8   8   8   8   8   8   8
#     4  11  23  38  56  79 110 150 186 224 272 324
#     4  10  20  37  54  70 106 152 187 219 268 324
#     4  11  21  33  53  77 103 142 187 228 267 317
#     4   8  16  34  59  85 112 141 173 215 274 333
#     4  10  19  33  50  73 106 141 178 220 270 328
#     4   9  19  38  64  89 111 137 174 223 274 328
#     4  10  20  32  55  84 108 138 181 229 271 319
#     4   9  18  33  50  68 100 145 181 215 267 324
#
# _framework density 20.926839999999999
#
# number of rings (size 3 to 8) (size 9 to 14) (size 15 to 20)
#    0.000    2.250    2.500    1.500    1.750    1.250 
#    0.000    2.500    0.000    3.375    0.000    0.000 
#    0.000    0.000    0.000    0.000    0.000    0.000 
#
# Total GULP energy -178350.011078 kJ/mol
# GULP energy per Si atom -5573.437846 kJ/mol
# Density = 2.087921 g / cm^3
# Si number density = 20.926840 Si / 1000 Ang^3
#
#
#
# Elastic Constant Matrix: (Units=GPa)
#
#
# Indices 1 2 3 4 5 6 
#
# 1 84.1552 1.0487 64.2666 0.0000 0.0000 0.0000
# 2 1.0487 30.2585 1.5128 0.0000 0.0000 0.0000
# 3 64.2666 1.5128 144.9329 0.0000 0.0000 0.0000
# 4 0.0000 0.0000 0.0000 8.9090 0.0000 0.0000
# 5 0.0000 0.0000 0.0000 0.0000 36.2303 0.0000
# 6 0.0000 0.0000 0.0000 0.0000 0.0000 17.7496
#
#
#
# Elastic Compliance Matrix: (Units=1/GPa)
#
#
# Indices 1 2 3 4 5 6 
#
# 1 0.017968 -0.000224 -0.007965 0.000000 0.000000 0.000000
# 2 -0.000224 0.033069 -0.000246 0.000000 0.000000 0.000000
# 3 -0.007965 -0.000246 0.010434 0.000000 0.000000 0.000000
# 4 0.000000 0.000000 0.000000 0.112246 0.000000 0.000000
# 5 0.000000 0.000000 0.000000 0.000000 0.027601 0.000000
# 6 0.000000 0.000000 0.000000 0.000000 0.000000 0.056339
#
#
# Mechanical properties :
#
#
# Convention : Reuss Voigt Hill
#
# Bulk Modulus (GPa) = 22.42126 43.66697 33.04411
# Shear Modulus (GPa) = 17.27741 25.41234 21.34488
#
# Velocity S-wave (km/s) = 2.87646 3.48852 3.19717
# Velocity P-wave (km/s) = 4.66577 6.09411 5.42713
#
# Compressibility (1/GPa) = 0.04460053
#
# Stress axis : x y z
#
# Youngs Moduli (GPa) = 55.65320 30.24016 95.83785
#
# Poissons Ratio (x) = 0.00679 0.76337
# Poissons Ratio (y) = 0.01249 0.02354
# Poissons Ratio (z) = 0.44329 0.00743
#
# Static dielectric constant tensor:
#      x y z
#    x 1.738500 0.000000 0.000000 
#    y 0.000000 1.774190 0.000000 
#    z 0.000000 0.000000 1.801510 
# 
# From -- ./inp_files/11501.got.cif
#   From: 2010.05.17/outbox.cif.g08.bks.cpg/sg44_6_cif.got.tgz:11501.got - 2010.06.03 19:37:08.
