data_PCOD9373486
_publ_section_title
;
Structure prediction by ZEFSAII (Michael W. Deem and Ramdas Pophale) SiO2 
 PCOD9373486
Probable space group: I M M 2
;
_chemical_formula_sum "Si O2"
_cell_formula_units_Z 48
_cell_length_a 8.422194
_cell_length_b 17.017205
_cell_length_c 18.488627
_cell_angle_alpha 90.000000
_cell_angle_beta 90.000000
_cell_angle_gamma 90.000000
_cell_volume 2649.830731
_symmetry_space_group_name_H-M "I M M 2"
_symmetry_group_IT_number 44
_symmetry_cell_setting 'orthorhombic'
loop_
_space_group_symop_operation_xyz
x,y,z
-x,-y,z
-x,y,z
x,-y,z
1/2+x,1/2+y,1/2+z
1/2-x,1/2-y,1/2+z
1/2-x,1/2+y,1/2+z
1/2+x,1/2-y,1/2+z
loop_
_atom_site_type_symbol
_atom_site_label
_atom_site_fract_x
_atom_site_fract_y
_atom_site_fract_z
Si Si1 0.691942 0.089157 0.441740
Si Si2 0.817712 0.000000 0.829600
Si Si3 0.315177 0.145318 0.742726
Si Si4 0.810676 0.173680 0.584352
Si Si5 0.192678 0.672274 0.498566
Si Si6 0.810550 0.741242 0.855938
Si Si7 0.686761 0.000000 0.987962
O O1 0.500000 0.092153 0.447132
O O2 0.761391 0.117079 0.518438
O O3 0.738823 0.154372 0.382427
O O4 0.739150 0.000000 0.424981
O O5 0.782258 0.076273 0.781572
O O6 0.711078 0.000000 0.901373
O O7 0.000000 0.000000 0.853480
O O8 0.500000 0.127606 0.751996
O O9 0.272228 0.151672 0.658840
O O10 0.271948 0.225257 0.784855
O O11 0.767218 0.261644 0.557567
O O12 0.000000 0.170266 0.594224
O O13 0.264300 0.701791 0.422700
O O14 0.249591 0.584027 0.514977
O O15 0.000000 0.671816 0.490857
O O16 0.000000 0.742670 0.845944
O O17 0.500000 0.000000 0.004674
#
# Coordination Sequence:
#
# PCOD9373486 Si02
#       7
#     8   4   8   8   8   8   4
#     4   9  19  36  57  81 109 141 179 223 273 323
#     4  12  24  36  54  84 112 139 174 221 270 320
#     4  12  24  38  55  77 110 149 180 218 270 327
#     4  10  21  36  54  79 110 145 181 221 266 321
#     4   9  18  33  54  79 109 142 178 217 265 319
#     4  10  19  33  55  80 107 140 181 225 267 318
#     4  10  18  32  56  84 112 141 172 213 262 322
#
# _framework density 18.114364999999999
#
# number of rings (size 3 to 8) (size 9 to 14) (size 15 to 20)
#    0.000    1.833    1.667    3.250    1.167    1.667 
#    0.000    0.000    1.833    0.000    0.000    0.000 
#    0.000    0.000    0.000    0.000    0.000    0.000 
#
# Total GULP energy -133980.737781 kJ/mol
# GULP energy per Si atom -5582.530741 kJ/mol
# Density = 1.807314 g / cm^3
# Si number density = 18.114365 Si / 1000 Ang^3
#
#
#
# Elastic Constant Matrix: (Units=GPa)
#
#
# Indices 1 2 3 4 5 6 
#
# 1 20.5667 3.2195 -3.7632 0.0000 0.0000 0.0000
# 2 3.2195 122.7366 5.4486 0.0000 0.0000 0.0000
# 3 -3.7632 5.4486 36.8196 0.0000 0.0000 0.0000
# 4 0.0000 0.0000 0.0000 13.7154 0.0000 0.0000
# 5 0.0000 0.0000 0.0000 0.0000 27.5556 0.0000
# 6 0.0000 0.0000 0.0000 0.0000 0.0000 19.8405
#
#
#
# Elastic Compliance Matrix: (Units=1/GPa)
#
#
# Indices 1 2 3 4 5 6 
#
# 1 0.049838 -0.001544 0.005322 0.000000 0.000000 0.000000
# 2 -0.001544 0.008249 -0.001378 0.000000 0.000000 0.000000
# 3 0.005322 -0.001378 0.027907 0.000000 0.000000 0.000000
# 4 0.000000 0.000000 0.000000 0.072911 0.000000 0.000000
# 5 0.000000 0.000000 0.000000 0.000000 0.036290 0.000000
# 6 0.000000 0.000000 0.000000 0.000000 0.000000 0.050402
#
#
# Mechanical properties :
#
#
# Convention : Reuss Voigt Hill
#
# Bulk Modulus (GPa) = 11.01388 21.10363 16.05876
# Shear Modulus (GPa) = 18.44597 23.90349 21.17473
#
# Velocity S-wave (km/s) = 3.19455 3.63655 3.42270
# Velocity P-wave (km/s) = 4.43850 5.41371 4.95018
#
# Compressibility (1/GPa) = 0.09079450
#
# Stress axis : x y z
#
# Youngs Moduli (GPa) = 20.06514 121.22373 35.83277
#
# Poissons Ratio (x) = 0.18711 -0.19071
# Poissons Ratio (y) = 0.03097 0.04940
# Poissons Ratio (z) = -0.10679 0.16711
#
# Static dielectric constant tensor:
#      x y z
#    x 1.619560 0.000000 0.000000 
#    y 0.000000 1.656450 0.000000 
#    z 0.000000 0.000000 1.576110 
# 
# From -- ./inp_files/16202.got.cif
#   From: 2010.05.17/outbox.cif.g08.bks.cpg/sg44_9_cif.got.tgz:16202.got - 2010.06.03 19:37:08.
