data_PCOD9373161
_publ_section_title
;
Structure prediction by ZEFSAII (Michael W. Deem and Ramdas Pophale) SiO2 
 PCOD9373161
Probable space group: I M M 2
;
_chemical_formula_sum "Si O2"
_cell_formula_units_Z 64
_cell_length_a 27.173714
_cell_length_b 8.757628
_cell_length_c 19.009267
_cell_angle_alpha 90.000000
_cell_angle_beta 90.000000
_cell_angle_gamma 90.000000
_cell_volume 4523.773629
_symmetry_space_group_name_H-M "I M M 2"
_symmetry_group_IT_number 44
_symmetry_cell_setting 'orthorhombic'
loop_
_space_group_symop_operation_xyz
x,y,z
-x,-y,z
-x,y,z
x,-y,z
1/2+x,1/2+y,1/2+z
1/2-x,1/2-y,1/2+z
1/2-x,1/2+y,1/2+z
1/2+x,1/2-y,1/2+z
loop_
_atom_site_type_symbol
_atom_site_label
_atom_site_fract_x
_atom_site_fract_y
_atom_site_fract_z
Si Si1 0.943633 0.816109 0.528400
Si Si2 0.696329 0.323929 0.654002
Si Si3 0.150171 0.183008 0.616452
Si Si4 0.797821 0.324178 0.744718
Si Si5 0.855012 0.815820 0.288159
Si Si6 0.557252 0.817689 0.874754
Si Si7 0.739626 0.817283 0.866819
Si Si8 0.741454 0.814358 0.029858
O O1 0.903122 0.773012 0.586068
O O2 0.931205 0.741936 0.453260
O O3 0.000000 0.773904 0.546299
O O4 0.941822 0.000000 0.520229
O O5 0.682078 0.500000 0.641461
O O6 0.747094 0.322729 0.699069
O O7 0.656744 0.258339 0.708657
O O8 0.713258 0.258632 0.579095
O O9 0.162573 0.246888 0.693669
O O10 0.191601 0.247990 0.563382
O O11 0.153928 0.000000 0.617683
O O12 0.810292 0.500000 0.758210
O O13 0.783525 0.239514 0.816418
O O14 0.905847 0.758195 0.319888
O O15 0.810690 0.755732 0.337275
O O16 0.853160 0.000000 0.287768
O O17 0.500000 0.779817 0.861012
O O18 0.562927 0.000000 0.873028
O O19 0.735600 0.000000 0.861906
O O20 0.746521 0.774770 0.948280
O O21 0.739146 0.000000 0.035790
#
# Coordination Sequence:
#
# PCOD9373161 Si02
#       8
#     8   8   8   8   8   8   8   8
#     4   9  18  31  44  59  81 108 138 173 210 247
#     4   7  13  26  40  54  73 101 133 160 192 234
#     4  10  18  27  42  61  80 106 141 174 204 243
#     4   9  17  29  42  56  80 110 137 168 205 243
#     4  10  18  28  43  59  79 110 142 170 204 245
#     4  10  20  31  42  58  81 108 139 176 212 244
#     4  10  18  27  42  63  85 109 139 171 202 242
#     4   9  17  28  41  58  83 111 135 164 203 243
#
# _framework density 14.147481000000001
#
# number of rings (size 3 to 8) (size 9 to 14) (size 15 to 20)
#    0.000    2.750    0.000    4.125    0.000    4.750 
#    0.000    0.625    0.000    0.000    0.000    0.000 
#    0.000    1.000    0.000    7.250    0.000    2.125 
#
# Total GULP energy -178187.517722 kJ/mol
# GULP energy per Si atom -5568.359929 kJ/mol
# Density = 1.411528 g / cm^3
# Si number density = 14.147481 Si / 1000 Ang^3
#
#
#
# Elastic Constant Matrix: (Units=GPa)
#
#
# Indices 1 2 3 4 5 6 
#
# 1 71.0048 25.3433 49.6173 0.0000 0.0000 0.0000
# 2 25.3433 33.4548 30.2238 0.0000 0.0000 0.0000
# 3 49.6173 30.2238 103.2477 0.0000 0.0000 0.0000
# 4 0.0000 0.0000 0.0000 19.2429 0.0000 0.0000
# 5 0.0000 0.0000 0.0000 0.0000 28.2153 0.0000
# 6 0.0000 0.0000 0.0000 0.0000 0.0000 16.3019
#
#
#
# Elastic Compliance Matrix: (Units=1/GPa)
#
#
# Indices 1 2 3 4 5 6 
#
# 1 0.023583 -0.010368 -0.008298 0.000000 0.000000 0.000000
# 2 -0.010368 0.045197 -0.008248 0.000000 0.000000 0.000000
# 3 -0.008298 -0.008248 0.016088 0.000000 0.000000 0.000000
# 4 0.000000 0.000000 0.000000 0.051967 0.000000 0.000000
# 5 0.000000 0.000000 0.000000 0.000000 0.035442 0.000000
# 6 0.000000 0.000000 0.000000 0.000000 0.000000 0.061343
#
#
# Mechanical properties :
#
#
# Convention : Reuss Voigt Hill
#
# Bulk Modulus (GPa) = 32.21765 46.45290 39.33527
# Shear Modulus (GPa) = 16.79017 19.58686 18.18852
#
# Velocity S-wave (km/s) = 3.44873 3.72489 3.58947
# Velocity P-wave (km/s) = 6.21936 7.16978 6.71142
#
# Compressibility (1/GPa) = 0.03103889
#
# Stress axis : x y z
#
# Youngs Moduli (GPa) = 42.40388 22.12546 62.15990
#
# Poissons Ratio (x) = 0.22940 0.51580
# Poissons Ratio (y) = 0.43966 0.51268
# Poissons Ratio (z) = 0.35186 0.18249
#
# Static dielectric constant tensor:
#      x y z
#    x 1.457710 0.000000 0.000000 
#    y 0.000000 1.480800 0.000000 
#    z 0.000000 0.000000 1.476230 
# 
# From -- ./inp_files/20927.got.cif
#   From: 2010.05.17/outbox.cif.g08.bks.cpg/sg44_11_cif.got.tgz:20927.got - 2010.06.03 19:37:08.
