data_PCOD9373801
_publ_section_title
;
Structure prediction by ZEFSAII (Michael W. Deem and Ramdas Pophale) SiO2 
 PCOD9373801
Probable space group: I M M 2
;
_chemical_formula_sum "Si O2"
_cell_formula_units_Z 64
_cell_length_a 26.105558
_cell_length_b 7.517344
_cell_length_c 15.189469
_cell_angle_alpha 90.000000
_cell_angle_beta 90.000000
_cell_angle_gamma 90.000000
_cell_volume 2980.849139
_symmetry_space_group_name_H-M "I M M 2"
_symmetry_group_IT_number 44
_symmetry_cell_setting 'orthorhombic'
loop_
_space_group_symop_operation_xyz
x,y,z
-x,-y,z
-x,y,z
x,-y,z
1/2+x,1/2+y,1/2+z
1/2-x,1/2-y,1/2+z
1/2-x,1/2+y,1/2+z
1/2+x,1/2-y,1/2+z
loop_
_atom_site_type_symbol
_atom_site_label
_atom_site_fract_x
_atom_site_fract_y
_atom_site_fract_z
Si Si1 0.601582 0.295379 0.324950
Si Si2 0.133368 0.216721 0.164476
Si Si3 0.559063 0.282542 0.511528
Si Si4 0.669926 0.283680 0.845987
Si Si5 0.844338 0.707372 0.548086
Si Si6 0.284625 0.205118 0.349730
Si Si7 0.268963 0.716439 0.553309
Si Si8 0.943309 0.705236 0.642440
O O1 0.585102 0.500000 0.322366
O O2 0.586522 0.224161 0.421319
O O3 0.662986 0.287796 0.315086
O O4 0.572613 0.205381 0.244660
O O5 0.089290 0.277623 0.098260
O O6 0.133642 0.272125 0.265957
O O7 0.187581 0.268557 0.121540
O O8 0.132022 0.000000 0.164687
O O9 0.500000 0.229365 0.511368
O O10 0.561025 0.500000 0.512077
O O11 0.671396 0.500000 0.850317
O O12 0.654303 0.218981 0.942253
O O13 0.728363 0.223861 0.825502
O O14 0.843121 0.500000 0.574807
O O15 0.788432 0.780533 0.574261
O O16 0.895094 0.788051 0.590973
O O17 0.284449 0.219756 0.456006
O O18 0.286312 0.000000 0.321893
O O19 0.268088 0.500000 0.549151
O O20 0.946672 0.500000 0.612811
O O21 0.000000 0.784250 0.630958
#
# Coordination Sequence:
#
# PCOD9373801 Si02
#       8
#     8   8   8   8   8   8   8   8
#     4  11  21  34  53  79 109 141 177 218 267 320
#     4   9  16  29  50  75 103 137 173 211 256 308
#     4   9  17  30  50  75 102 132 169 210 253 305
#     4   9  19  33  53  78 109 142 174 219 268 314
#     4   9  19  35  56  76 102 139 178 220 267 320
#     4  10  19  31  49  76 110 142 174 211 261 316
#     4   9  16  30  52  75 101 136 177 214 258 315
#     4  10  22  39  57  78 104 139 183 226 273 329
#
# _framework density 21.470392
#
# number of rings (size 3 to 8) (size 9 to 14) (size 15 to 20)
#    0.000    2.500    1.250    1.125    1.750    1.750 
#    0.000    1.250    0.000    0.750    0.000    0.000 
#    0.000    0.000    0.000    0.000    0.000    0.000 
#
# Total GULP energy -178640.745574 kJ/mol
# GULP energy per Si atom -5582.523299 kJ/mol
# Density = 2.142152 g / cm^3
# Si number density = 21.470392 Si / 1000 Ang^3
#
#
#
# Elastic Constant Matrix: (Units=GPa)
#
#
# Indices 1 2 3 4 5 6 
#
# 1 140.6137 2.7500 44.1001 0.0000 0.0000 0.0000
# 2 2.7500 55.0096 -10.1284 0.0000 0.0000 0.0000
# 3 44.1001 -10.1284 55.6240 0.0000 0.0000 0.0000
# 4 0.0000 0.0000 0.0000 17.0241 0.0000 0.0000
# 5 0.0000 0.0000 0.0000 0.0000 27.7145 0.0000
# 6 0.0000 0.0000 0.0000 0.0000 0.0000 8.2695
#
#
#
# Elastic Compliance Matrix: (Units=1/GPa)
#
#
# Indices 1 2 3 4 5 6 
#
# 1 0.009665 -0.001960 -0.008020 0.000000 0.000000 0.000000
# 2 -0.001960 0.019207 0.005051 0.000000 0.000000 0.000000
# 3 -0.008020 0.005051 0.025256 0.000000 0.000000 0.000000
# 4 0.000000 0.000000 0.000000 0.058740 0.000000 0.000000
# 5 0.000000 0.000000 0.000000 0.000000 0.036082 0.000000
# 6 0.000000 0.000000 0.000000 0.000000 0.000000 0.120927
#
#
# Mechanical properties :
#
#
# Convention : Reuss Voigt Hill
#
# Bulk Modulus (GPa) = 22.58825 36.07673 29.33249
# Shear Modulus (GPa) = 16.97847 24.90332 20.94090
#
# Velocity S-wave (km/s) = 2.81514 3.40941 3.12643
# Velocity P-wave (km/s) = 4.59458 5.68668 5.16955
#
# Compressibility (1/GPa) = 0.04427080
#
# Stress axis : x y z
#
# Youngs Moduli (GPa) = 103.46427 52.06541 39.59496
#
# Poissons Ratio (x) = 0.10204 0.31754
# Poissons Ratio (y) = 0.20276 -0.20000
# Poissons Ratio (z) = 0.82975 -0.26298
#
# Static dielectric constant tensor:
#      x y z
#    x 1.777730 0.000000 0.000000 
#    y 0.000000 1.818880 0.000000 
#    z 0.000000 0.000000 1.756790 
# 
# From -- ./inp_files/19482.got.cif
#   From: 2010.05.17/outbox.cif.g08.bks.cpg/sg44_10_cif.got.tgz:19482.got - 2010.06.03 19:37:08.
