data_PCOD9373923
_publ_section_title
;
Structure prediction by ZEFSAII (Michael W. Deem and Ramdas Pophale) SiO2 
 PCOD9373923
Probable space group: I M M 2
;
_chemical_formula_sum "Si O2"
_cell_formula_units_Z 56
_cell_length_a 15.251328
_cell_length_b 7.498848
_cell_length_c 22.384132
_cell_angle_alpha 90.000000
_cell_angle_beta 90.000000
_cell_angle_gamma 90.000000
_cell_volume 2560.014765
_symmetry_space_group_name_H-M "I M M 2"
_symmetry_group_IT_number 44
_symmetry_cell_setting 'orthorhombic'
loop_
_space_group_symop_operation_xyz
x,y,z
-x,-y,z
-x,y,z
x,-y,z
1/2+x,1/2+y,1/2+z
1/2-x,1/2-y,1/2+z
1/2-x,1/2+y,1/2+z
1/2+x,1/2-y,1/2+z
loop_
_atom_site_type_symbol
_atom_site_label
_atom_site_fract_x
_atom_site_fract_y
_atom_site_fract_z
Si Si1 0.717996 0.714714 0.776730
Si Si2 0.099023 0.286669 0.391096
Si Si3 0.716891 0.210189 0.998090
Si Si4 0.901157 0.213507 0.610058
Si Si5 0.902635 0.217954 0.032598
Si Si6 0.902130 0.783133 0.170780
Si Si7 0.596571 0.791100 0.248982
O O1 0.723598 0.500000 0.771685
O O2 0.656450 0.754329 0.832471
O O3 0.670803 0.781176 0.716515
O O4 0.817322 0.784241 0.780792
O O5 0.091908 0.500000 0.398395
O O6 0.151849 0.214093 0.448226
O O7 0.000000 0.216107 0.386170
O O8 0.671107 0.227702 0.062627
O O9 0.816007 0.282010 0.998761
O O10 0.725276 0.000000 0.985724
O O11 0.886970 0.279029 0.677561
O O12 0.000000 0.271723 0.591668
O O13 0.900409 0.000000 0.611840
O O14 0.891696 0.271318 0.102103
O O15 0.000000 0.274382 0.012470
O O16 0.902571 0.000000 0.031644
O O17 0.000000 0.730676 0.190983
O O18 0.899799 0.000000 0.170809
O O19 0.500000 0.712083 0.260427
O O20 0.591318 0.000000 0.264303
#
# Coordination Sequence:
#
# PCOD9373923 Si02
#       7
#     8   8   8   8   8   8   8
#     4  10  19  32  52  74  96 129 172 210 245 293
#     4  10  22  37  50  69 100 135 170 211 259 305
#     4  10  19  33  53  73  98 136 176 211 250 298
#     4  10  20  32  49  77 109 136 164 204 254 303
#     4   8  14  26  47  75 101 122 153 201 248 292
#     4   8  13  22  40  69  98 118 144 190 242 284
#     4   9  18  33  53  77 104 133 166 204 248 302
#
# _framework density 21.874874999999999
#
# number of rings (size 3 to 8) (size 9 to 14) (size 15 to 20)
#    0.000    2.714    0.000    3.000    0.000    5.714 
#    0.000    0.714    0.000    1.286    0.000    0.000 
#    0.000    0.000    0.000    0.000    0.000    0.000 
#
# Total GULP energy -156302.645830 kJ/mol
# GULP energy per Si atom -5582.237351 kJ/mol
# Density = 2.182509 g / cm^3
# Si number density = 21.874875 Si / 1000 Ang^3
#
#
#
# Elastic Constant Matrix: (Units=GPa)
#
#
# Indices 1 2 3 4 5 6 
#
# 1 243.8463 10.6948 74.1776 0.0000 0.0000 0.0000
# 2 10.6948 61.6731 -1.2462 0.0000 0.0000 0.0000
# 3 74.1776 -1.2462 37.8090 0.0000 0.0000 0.0000
# 4 0.0000 0.0000 0.0000 10.1555 0.0000 0.0000
# 5 0.0000 0.0000 0.0000 0.0000 48.7049 0.0000
# 6 0.0000 0.0000 0.0000 0.0000 0.0000 3.7606
#
#
#
# Elastic Compliance Matrix: (Units=1/GPa)
#
#
# Indices 1 2 3 4 5 6 
#
# 1 0.010469 -0.002232 -0.020614 0.000000 0.000000 0.000000
# 2 -0.002232 0.016701 0.004930 0.000000 0.000000 0.000000
# 3 -0.020614 0.004930 0.067053 0.000000 0.000000 0.000000
# 4 0.000000 0.000000 0.000000 0.098469 0.000000 0.000000
# 5 0.000000 0.000000 0.000000 0.000000 0.020532 0.000000
# 6 0.000000 0.000000 0.000000 0.000000 0.000000 0.265912
#
#
# Mechanical properties :
#
#
# Convention : Reuss Voigt Hill
#
# Bulk Modulus (GPa) = 17.12576 56.73120 36.92848
# Shear Modulus (GPa) = 9.35571 29.83767 19.59669
#
# Velocity S-wave (km/s) = 2.07032 3.69726 2.99633
# Velocity P-wave (km/s) = 3.68251 6.64959 5.37485
#
# Compressibility (1/GPa) = 0.05839156
#
# Stress axis : x y z
#
# Youngs Moduli (GPa) = 95.51576 59.87589 14.91355
#
# Poissons Ratio (x) = 0.13365 0.30742
# Poissons Ratio (y) = 0.21320 -0.07352
# Poissons Ratio (z) = 1.96893 -0.29516
#
# Static dielectric constant tensor:
#      x y z
#    x 1.839640 0.000000 0.000000 
#    y 0.000000 1.849290 0.000000 
#    z 0.000000 0.000000 1.745070 
# 
# From -- ./inp_files/23036.got.cif
#   From: 2010.05.17/outbox.cif.g08.bks.cpg/sg44_12_cif.got.tgz:23036.got - 2010.06.03 19:37:08.
