data_PCOD9373361
_publ_section_title
;
Structure prediction by ZEFSAII (Michael W. Deem and Ramdas Pophale) SiO2 
 PCOD9373361
Probable space group: I M M 2
;
_chemical_formula_sum "Si O2"
_cell_formula_units_Z 44
_cell_length_a 8.227081
_cell_length_b 15.644316
_cell_length_c 19.169751
_cell_angle_alpha 90.000000
_cell_angle_beta 90.000000
_cell_angle_gamma 90.000000
_cell_volume 2467.282195
_symmetry_space_group_name_H-M "I M M 2"
_symmetry_group_IT_number 44
_symmetry_cell_setting 'orthorhombic'
loop_
_space_group_symop_operation_xyz
x,y,z
-x,-y,z
-x,y,z
x,-y,z
1/2+x,1/2+y,1/2+z
1/2-x,1/2-y,1/2+z
1/2-x,1/2+y,1/2+z
1/2+x,1/2-y,1/2+z
loop_
_atom_site_type_symbol
_atom_site_label
_atom_site_fract_x
_atom_site_fract_y
_atom_site_fract_z
Si Si1 0.693016 0.599235 0.877780
Si Si2 0.321742 0.165588 0.115611
Si Si3 0.000000 0.905530 0.165544
Si Si4 0.174169 0.268589 0.774691
Si Si5 0.811320 0.161354 0.533184
Si Si6 0.500000 0.096659 0.615955
Si Si7 0.000000 0.275322 0.245109
O O1 0.500000 0.603796 0.862100
O O2 0.736598 0.500000 0.885693
O O3 0.795394 0.644867 0.817756
O O4 0.715585 0.647304 0.951180
O O5 0.500000 0.124926 0.105718
O O6 0.327963 0.211351 0.191980
O O7 0.300311 0.240839 0.059293
O O8 0.164113 0.106259 0.120722
O O9 0.000000 0.823908 0.217715
O O10 0.000000 0.000000 0.198839
O O11 0.334324 0.212871 0.787182
O O12 0.000000 0.231240 0.793882
O O13 0.665378 0.112506 0.572184
O O14 0.000000 0.133361 0.548333
O O15 0.500000 0.164889 0.678061
O O16 0.500000 0.000000 0.642086
#
# Coordination Sequence:
#
# PCOD9373361 Si02
#       7
#     8   8   4   8   8   4   4
#     4  10  21  34  50  80 120 151 180 222 281 343
#     4   9  18  34  54  73 104 147 191 226 265 327
#     4  10  18  30  52  78 102 134 172 228 279 314
#     4  10  19  33  52  71 102 147 184 220 264 320
#     4  10  20  37  55  77 117 154 187 227 274 335
#     4  12  22  34  60  86 110 147 189 235 281 331
#     4  10  20  38  52  78 114 141 189 227 274 331
#
# _framework density 17.833389
#
# number of rings (size 3 to 8) (size 9 to 14) (size 15 to 20)
#    0.000    2.000    4.545    0.545    1.273    4.727 
#    0.000    3.636    0.000    0.000    0.000    1.273 
#    0.000    0.000    0.000    0.000    0.000    0.000 
#
# Total GULP energy -122526.806570 kJ/mol
# GULP energy per Si atom -5569.400299 kJ/mol
# Density = 1.779280 g / cm^3
# Si number density = 17.833389 Si / 1000 Ang^3
#
#
#
# Elastic Constant Matrix: (Units=GPa)
#
#
# Indices 1 2 3 4 5 6 
#
# 1 140.1063 15.6604 8.0804 0.0000 0.0000 0.0000
# 2 15.6604 53.0951 32.1631 0.0000 0.0000 0.0000
# 3 8.0804 32.1631 63.3291 0.0000 0.0000 0.0000
# 4 0.0000 0.0000 0.0000 1.9674 0.0000 0.0000
# 5 0.0000 0.0000 0.0000 0.0000 18.5278 0.0000
# 6 0.0000 0.0000 0.0000 0.0000 0.0000 -2.5673
#
#
#
# Elastic Compliance Matrix: (Units=1/GPa)
#
#
# Indices 1 2 3 4 5 6 
#
# 1 0.007383 -0.002321 0.000237 0.000000 0.000000 0.000000
# 2 -0.002321 0.027933 -0.013890 0.000000 0.000000 0.000000
# 3 0.000237 -0.013890 0.022815 0.000000 0.000000 0.000000
# 4 0.000000 0.000000 0.000000 0.508294 0.000000 0.000000
# 5 0.000000 0.000000 0.000000 0.000000 0.053973 0.000000
# 6 0.000000 0.000000 0.000000 0.000000 0.000000 -0.389509
#
#
# Mechanical properties :
#
#
# Convention : Reuss Voigt Hill
#
# Bulk Modulus (GPa) = 38.19441 40.92647 39.56044
# Shear Modulus (GPa) = 18.41174 16.96068 17.68621
#
# Velocity S-wave (km/s) = 3.21663 3.08728 3.15262
# Velocity P-wave (km/s) = 5.93797 5.97558 5.95680
#
# Compressibility (1/GPa) = 0.02618184
#
# Stress axis : x y z
#
# Youngs Moduli (GPa) = 135.44212 35.80000 43.83124
#
# Poissons Ratio (x) = 0.08310 -0.01038
# Poissons Ratio (y) = 0.31438 0.60883
# Poissons Ratio (z) = -0.03207 0.49727
#
# Static dielectric constant tensor:
#      x y z
#    x 1.724820 0.000000 0.000000 
#    y 0.000000 1.585600 0.000000 
#    z 0.000000 0.000000 1.592060 
# 
# From -- ./inp_files/20265.got.cif
#   From: 2010.05.17/outbox.cif.g08.bks.cpg/sg44_11_cif.got.tgz:20265.got - 2010.06.03 19:37:08.
