data_PCOD9373644
_publ_section_title
;
Structure prediction by ZEFSAII (Michael W. Deem and Ramdas Pophale) SiO2 
 PCOD9373644
Probable space group: I M M 2
;
_chemical_formula_sum "Si O2"
_cell_formula_units_Z 56
_cell_length_a 8.850049
_cell_length_b 19.538203
_cell_length_c 18.327809
_cell_angle_alpha 90.000000
_cell_angle_beta 90.000000
_cell_angle_gamma 90.000000
_cell_volume 3169.135754
_symmetry_space_group_name_H-M "I M M 2"
_symmetry_group_IT_number 44
_symmetry_cell_setting 'orthorhombic'
loop_
_space_group_symop_operation_xyz
x,y,z
-x,-y,z
-x,y,z
x,-y,z
1/2+x,1/2+y,1/2+z
1/2-x,1/2-y,1/2+z
1/2-x,1/2+y,1/2+z
1/2+x,1/2-y,1/2+z
loop_
_atom_site_type_symbol
_atom_site_label
_atom_site_fract_x
_atom_site_fract_y
_atom_site_fract_z
Si Si1 0.320050 0.926312 0.038050
Si Si2 0.320474 0.205617 0.942218
Si Si3 0.171478 0.161337 0.792508
Si Si4 0.183078 0.079758 0.652727
Si Si5 0.679826 0.204258 0.561408
Si Si6 0.820417 0.074980 0.198025
Si Si7 0.829439 0.290677 0.686758
O O1 0.500000 0.924718 0.053755
O O2 0.228563 0.924690 0.113159
O O3 0.288815 0.000000 0.001794
O O4 0.283254 0.861679 0.989620
O O5 0.500000 0.216753 0.943273
O O6 0.267133 0.184139 0.861897
O O7 0.242529 0.269669 0.983349
O O8 0.228484 0.103929 0.734957
O O9 0.164143 0.228576 0.742461
O O10 0.000000 0.142954 0.815489
O O11 0.251674 0.133632 0.594487
O O12 0.000000 0.086796 0.649884
O O13 0.221478 0.000000 0.640150
O O14 0.500000 0.199270 0.559243
O O15 0.730775 0.262779 0.619496
O O16 0.737307 0.142472 0.225609
O O17 0.000000 0.081591 0.204964
O O18 0.775391 0.000000 0.227660
O O19 0.000000 0.304311 0.660182
#
# Coordination Sequence:
#
# PCOD9373644 Si02
#       7
#     8   8   8   8   8   8   8
#     4   9  18  31  46  67  99 137 171 204 245 297
#     4  11  21  33  51  76 108 145 183 221 267 322
#     4   9  20  35  52  76 106 139 177 219 269 324
#     4   9  19  38  61  83 110 145 184 226 276 334
#     4  11  21  33  54  80 107 139 179 229 274 316
#     4  10  19  29  46  74 102 129 164 207 254 302
#     4  10  19  34  53  73 100 136 177 218 261 314
#
# _framework density 17.670434
#
# number of rings (size 3 to 8) (size 9 to 14) (size 15 to 20)
#    0.000    2.143    1.429    3.429    0.000    5.143 
#    0.000    0.000    0.000    0.857    0.000    4.000 
#    0.000    0.000    0.000    0.000    0.000    0.000 
#
# Total GULP energy -155982.787300 kJ/mol
# GULP energy per Si atom -5570.813832 kJ/mol
# Density = 1.763021 g / cm^3
# Si number density = 17.670434 Si / 1000 Ang^3
#
#
#
# Elastic Constant Matrix: (Units=GPa)
#
#
# Indices 1 2 3 4 5 6 
#
# 1 56.4244 33.9606 19.0789 0.0000 0.0000 0.0000
# 2 33.9606 129.9222 25.6417 0.0000 0.0000 0.0000
# 3 19.0789 25.6417 52.3814 0.0000 0.0000 0.0000
# 4 0.0000 0.0000 0.0000 -0.5922 0.0000 0.0000
# 5 0.0000 0.0000 0.0000 0.0000 25.8315 0.0000
# 6 0.0000 0.0000 0.0000 0.0000 0.0000 23.9274
#
#
#
# Elastic Compliance Matrix: (Units=1/GPa)
#
#
# Indices 1 2 3 4 5 6 
#
# 1 0.022568 -0.004734 -0.005902 0.000000 0.000000 0.000000
# 2 -0.004734 0.009513 -0.002933 0.000000 0.000000 0.000000
# 3 -0.005902 -0.002933 0.022676 0.000000 0.000000 0.000000
# 4 0.000000 0.000000 0.000000 -1.688656 0.000000 0.000000
# 5 0.000000 0.000000 0.000000 0.000000 0.038712 0.000000
# 6 0.000000 0.000000 0.000000 0.000000 0.000000 0.041793
#
#
# Mechanical properties :
#
#
# Convention : Reuss Voigt Hill
#
# Bulk Modulus (GPa) = 36.20707 44.01006 40.10856
# Shear Modulus (GPa) = -3.29587 20.50313 8.60363
#
# Velocity S-wave (km/s) = -1.36720 3.41002 2.20896
# Velocity P-wave (km/s) = 4.24763 6.36117 5.40864
#
# Compressibility (1/GPa) = 0.02761892
#
# Stress axis : x y z
#
# Youngs Moduli (GPa) = 44.31047 105.11752 44.09917
#
# Poissons Ratio (x) = 0.49764 0.26030
# Poissons Ratio (y) = 0.20977 0.12932
# Poissons Ratio (z) = 0.26154 0.30826
#
# Static dielectric constant tensor:
#      x y z
#    x 1.613880 0.000000 0.000000 
#    y 0.000000 1.650840 0.000000 
#    z 0.000000 0.000000 1.594680 
# 
# From -- ./inp_files/20685.got.cif
#   From: 2010.05.17/outbox.cif.g08.bks.cpg/sg44_11_cif.got.tgz:20685.got - 2010.06.03 19:37:08.
