data_PCOD9373881
_publ_section_title
;
Structure prediction by ZEFSAII (Michael W. Deem and Ramdas Pophale) SiO2 
 PCOD9373881
Probable space group: I M M 2
;
_chemical_formula_sum "Si O2"
_cell_formula_units_Z 64
_cell_length_a 30.747170
_cell_length_b 8.952205
_cell_length_c 14.698131
_cell_angle_alpha 90.000000
_cell_angle_beta 90.000000
_cell_angle_gamma 90.000000
_cell_volume 4045.733593
_symmetry_space_group_name_H-M "I M M 2"
_symmetry_group_IT_number 44
_symmetry_cell_setting 'orthorhombic'
loop_
_space_group_symop_operation_xyz
x,y,z
-x,-y,z
-x,y,z
x,-y,z
1/2+x,1/2+y,1/2+z
1/2-x,1/2-y,1/2+z
1/2-x,1/2+y,1/2+z
1/2+x,1/2-y,1/2+z
loop_
_atom_site_type_symbol
_atom_site_label
_atom_site_fract_x
_atom_site_fract_y
_atom_site_fract_z
Si Si1 0.223228 0.674842 0.516290
Si Si2 0.297634 0.819542 0.219630
Si Si3 0.949879 0.821438 0.132002
Si Si4 0.326704 0.668973 0.537668
Si Si5 0.208040 0.178696 0.323914
Si Si6 0.628670 0.325775 0.340966
Si Si7 0.449254 0.823516 0.433107
Si Si8 0.867023 0.675664 0.205407
O O1 0.212265 0.500000 0.500462
O O2 0.203809 0.722748 0.613334
O O3 0.275166 0.683053 0.529382
O O4 0.210968 0.769039 0.428102
O O5 0.252510 0.774808 0.270490
O O6 0.338974 0.749613 0.269487
O O7 0.299569 0.000000 0.224571
O O8 0.914533 0.750102 0.198819
O O9 0.000000 0.785248 0.155510
O O10 0.945145 0.000000 0.129679
O O11 0.942095 0.758120 0.030072
O O12 0.336442 0.500000 0.572170
O O13 0.347131 0.683797 0.438496
O O14 0.345696 0.787215 0.607439
O O15 0.166103 0.251080 0.276701
O O16 0.205344 0.000000 0.317489
O O17 0.622071 0.500000 0.319773
O O18 0.583150 0.243413 0.358498
O O19 0.500000 0.802368 0.409425
O O20 0.441189 0.000000 0.445024
O O21 0.870471 0.500000 0.220136
#
# Coordination Sequence:
#
# PCOD9373881 Si02
#       8
#     8   8   8   8   8   8   8   8
#     4  10  20  37  53  71 102 138 176 220 259 299
#     4  10  21  35  52  73 103 139 176 217 259 304
#     4  10  20  34  52  74 103 137 171 211 259 308
#     4  10  19  32  49  72 105 140 174 215 256 297
#     4  11  22  36  53  75 103 137 176 217 258 305
#     4  11  21  32  51  75 104 140 176 215 256 307
#     4  10  20  33  50  74 104 136 172 213 257 310
#     4  12  23  33  51  76 104 141 178 213 254 308
#
# _framework density 15.819133000000001
#
# number of rings (size 3 to 8) (size 9 to 14) (size 15 to 20)
#    0.000    1.500    3.750    2.625    0.000    3.500 
#    0.000    0.000    0.000    0.000    0.000    0.875 
#    0.000    1.000    0.000    0.000    0.000    0.000 
#
# Total GULP energy -178657.627274 kJ/mol
# GULP energy per Si atom -5583.050852 kJ/mol
# Density = 1.578313 g / cm^3
# Si number density = 15.819133 Si / 1000 Ang^3
#
#
#
# Elastic Constant Matrix: (Units=GPa)
#
#
# Indices 1 2 3 4 5 6 
#
# 1 98.8337 42.5017 44.0663 0.0000 0.0000 0.0000
# 2 42.5017 69.4043 39.9229 0.0000 0.0000 0.0000
# 3 44.0663 39.9229 80.3833 0.0000 0.0000 0.0000
# 4 0.0000 0.0000 0.0000 26.9837 0.0000 0.0000
# 5 0.0000 0.0000 0.0000 0.0000 24.9103 0.0000
# 6 0.0000 0.0000 0.0000 0.0000 0.0000 25.2920
#
#
#
# Elastic Compliance Matrix: (Units=1/GPa)
#
#
# Indices 1 2 3 4 5 6 
#
# 1 0.015128 -0.006291 -0.005169 0.000000 0.000000 0.000000
# 2 -0.006291 0.022787 -0.007869 0.000000 0.000000 0.000000
# 3 -0.005169 -0.007869 0.019182 0.000000 0.000000 0.000000
# 4 0.000000 0.000000 0.000000 0.037059 0.000000 0.000000
# 5 0.000000 0.000000 0.000000 0.000000 0.040144 0.000000
# 6 0.000000 0.000000 0.000000 0.000000 0.000000 0.039538
#
#
# Mechanical properties :
#
#
# Convention : Reuss Voigt Hill
#
# Bulk Modulus (GPa) = 54.22904 55.73368 54.98136
# Shear Modulus (GPa) = 22.86851 23.57923 23.22387
#
# Velocity S-wave (km/s) = 3.80626 3.86495 3.83572
# Velocity P-wave (km/s) = 7.32611 7.43138 7.37894
#
# Compressibility (1/GPa) = 0.01844030
#
# Stress axis : x y z
#
# Youngs Moduli (GPa) = 66.10353 43.88492 52.13243
#
# Poissons Ratio (x) = 0.27607 0.26946
# Poissons Ratio (y) = 0.41584 0.41021
# Poissons Ratio (z) = 0.34167 0.34531
#
# Static dielectric constant tensor:
#      x y z
#    x 1.535240 0.000000 0.000000 
#    y 0.000000 1.537910 0.000000 
#    z 0.000000 0.000000 1.506860 
# 
# From -- ./inp_files/17083.got.cif
#   From: 2010.05.17/outbox.cif.g08.bks.cpg/sg44_9_cif.got.tgz:17083.got - 2010.06.03 19:37:08.
