data_PCOD9373395
_publ_section_title
;
Structure prediction by ZEFSAII (Michael W. Deem and Ramdas Pophale) SiO2 
 PCOD9373395
Probable space group: I M M 2
;
_chemical_formula_sum "Si O2"
_cell_formula_units_Z 48
_cell_length_a 14.320217
_cell_length_b 17.501957
_cell_length_c 8.236014
_cell_angle_alpha 90.000000
_cell_angle_beta 90.000000
_cell_angle_gamma 90.000000
_cell_volume 2064.207196
_symmetry_space_group_name_H-M "I M M 2"
_symmetry_group_IT_number 44
_symmetry_cell_setting 'orthorhombic'
loop_
_space_group_symop_operation_xyz
x,y,z
-x,-y,z
-x,y,z
x,-y,z
1/2+x,1/2+y,1/2+z
1/2-x,1/2-y,1/2+z
1/2-x,1/2+y,1/2+z
1/2+x,1/2-y,1/2+z
loop_
_atom_site_type_symbol
_atom_site_label
_atom_site_fract_x
_atom_site_fract_y
_atom_site_fract_z
Si Si1 0.353556 0.248539 0.554120
Si Si2 0.140288 0.236623 0.671378
Si Si3 0.655444 0.418311 0.064244
Si Si4 0.686226 0.413916 0.678868
Si Si5 0.101160 0.393960 0.555910
Si Si6 0.367582 0.916447 0.679262
O O1 0.247604 0.238146 0.613995
O O2 0.364661 0.246779 0.361232
O O3 0.366996 0.338358 0.608044
O O4 0.398313 0.167807 0.615170
O O5 0.102762 0.153887 0.631799
O O6 0.096577 0.303027 0.567325
O O7 0.610525 0.500000 0.091007
O O8 0.756111 0.418682 0.152404
O O9 0.674615 0.408868 0.872732
O O10 0.654358 0.500000 0.627304
O O11 0.798539 0.411892 0.639779
O O12 0.110055 0.417118 0.369440
O O13 0.000000 0.420659 0.622129
O O14 0.399227 0.000000 0.610260
#
# Coordination Sequence:
#
# PCOD9373395 Si02
#       6
#     8   8   8   8   8   8
#     4  10  18  31  53  77 101 129 166 220 273 309
#     4  10  18  31  51  73 101 133 170 216 263 310
#     4   9  17  31  54  81 105 129 163 217 276 316
#     4  10  19  32  53  80 109 137 168 211 261 312
#     4  11  22  34  48  68 102 147 185 211 241 296
#     4  10  19  32  49  70  98 131 171 215 257 301
#
# _framework density 23.253478999999999
#
# number of rings (size 3 to 8) (size 9 to 14) (size 15 to 20)
#    0.000    2.000    0.000    9.500    0.000    3.333 
#    0.000    4.167    0.000    5.500    0.000    0.000 
#    0.000    1.333    0.000    1.833    0.000    0.000 
#
# Total GULP energy -133661.326238 kJ/mol
# GULP energy per Si atom -5569.221927 kJ/mol
# Density = 2.320055 g / cm^3
# Si number density = 23.253479 Si / 1000 Ang^3
#
#
#
# Elastic Constant Matrix: (Units=GPa)
#
#
# Indices 1 2 3 4 5 6 
#
# 1 67.4982 26.5701 13.7545 0.0000 0.0000 0.0000
# 2 26.5701 284.3701 58.4739 0.0000 0.0000 0.0000
# 3 13.7545 58.4739 78.7436 0.0000 0.0000 0.0000
# 4 0.0000 0.0000 0.0000 29.1788 0.0000 0.0000
# 5 0.0000 0.0000 0.0000 0.0000 -22.8033 0.0000
# 6 0.0000 0.0000 0.0000 0.0000 0.0000 -31.9800
#
#
#
# Elastic Compliance Matrix: (Units=1/GPa)
#
#
# Indices 1 2 3 4 5 6 
#
# 1 0.015629 -0.001061 -0.001942 0.000000 0.000000 0.000000
# 2 -0.001061 0.004222 -0.002950 0.000000 0.000000 0.000000
# 3 -0.001942 -0.002950 0.015229 0.000000 0.000000 0.000000
# 4 0.000000 0.000000 0.000000 0.034271 0.000000 0.000000
# 5 0.000000 0.000000 0.000000 0.000000 -0.043853 0.000000
# 6 0.000000 0.000000 0.000000 0.000000 0.000000 -0.031270
#
#
# Mechanical properties :
#
#
# Convention : Reuss Voigt Hill
#
# Bulk Modulus (GPa) = 43.15176 69.80100 56.47638
# Shear Modulus (GPa) = 360.75987 17.00001 188.87994
#
# Velocity S-wave (km/s) = 12.46913 2.70677 9.02235
# Velocity P-wave (km/s) = 15.03007 6.31280 11.52724
#
# Compressibility (1/GPa) = 0.02317403
#
# Stress axis : x y z
#
# Youngs Moduli (GPa) = 63.98536 236.83855 65.66259
#
# Poissons Ratio (x) = 0.25126 0.12752
# Poissons Ratio (y) = 0.06788 0.19371
# Poissons Ratio (z) = 0.12427 0.69870
#
# Static dielectric constant tensor:
#      x y z
#    x 1.864630 0.000000 0.000000 
#    y 0.000000 1.990940 0.000000 
#    z 0.000000 0.000000 1.786910 
# 
# From -- ./inp_files/8963.got.cif
#   From: 2010.05.17/outbox.cif.g08.bks.cpg/sg44_5_cif.got.tgz:8963.got - 2010.06.03 19:37:08.
