data_PCOD9373771
_publ_section_title
;
Structure prediction by ZEFSAII (Michael W. Deem and Ramdas Pophale) SiO2 
 PCOD9373771
Probable space group: I M M 2
;
_chemical_formula_sum "Si O2"
_cell_formula_units_Z 64
_cell_length_a 7.477987
_cell_length_b 15.121464
_cell_length_c 25.104267
_cell_angle_alpha 90.000000
_cell_angle_beta 90.000000
_cell_angle_gamma 90.000000
_cell_volume 2838.743096
_symmetry_space_group_name_H-M "I M M 2"
_symmetry_group_IT_number 44
_symmetry_cell_setting 'orthorhombic'
loop_
_space_group_symop_operation_xyz
x,y,z
-x,-y,z
-x,y,z
x,-y,z
1/2+x,1/2+y,1/2+z
1/2-x,1/2-y,1/2+z
1/2-x,1/2+y,1/2+z
1/2+x,1/2-y,1/2+z
loop_
_atom_site_type_symbol
_atom_site_label
_atom_site_fract_x
_atom_site_fract_y
_atom_site_fract_z
Si Si1 0.798938 0.660671 0.286340
Si Si2 0.284573 0.590905 0.678302
Si Si3 0.280312 0.199004 0.904072
Si Si4 0.704924 0.402463 0.907316
Si Si5 0.718635 0.899725 0.670259
Si Si6 0.793279 0.357434 0.791851
Si Si7 0.213344 0.599711 0.508936
Si Si8 0.214664 0.239303 0.101653
O O1 0.720420 0.660026 0.346525
O O2 0.719608 0.624591 0.230792
O O3 0.804205 0.766136 0.278751
O O4 0.000000 0.623031 0.290171
O O5 0.500000 0.594846 0.678742
O O6 0.230638 0.500000 0.650258
O O7 0.219310 0.589725 0.738007
O O8 0.217318 0.675676 0.648424
O O9 0.500000 0.203315 0.901118
O O10 0.222766 0.301569 0.916765
O O11 0.225076 0.134447 0.951325
O O12 0.500000 0.401477 0.926510
O O13 0.781440 0.500000 0.923993
O O14 0.709219 0.402268 0.843077
O O15 0.500000 0.893555 0.672756
O O16 0.777443 0.835104 0.622148
O O17 0.768148 0.000000 0.659019
O O18 0.000000 0.339755 0.804511
O O19 0.282735 0.500000 0.521742
O O20 0.245701 0.681545 0.549305
O O21 0.000000 0.592053 0.506139
O O22 0.000000 0.244177 0.102295
#
# Coordination Sequence:
#
# PCOD9373771 Si02
#       8
#     8   8   8   8   8   8   8   8
#     4   9  16  32  55  77 106 142 179 214 261 320
#     4  10  19  31  48  69  95 133 180 222 261 310
#     4   8  16  31  53  78 103 134 175 220 263 313
#     4   9  17  31  51  72  98 137 180 219 262 316
#     4   9  17  31  56  86 109 132 171 224 272 317
#     4  11  20  28  43  71 108 142 172 210 261 318
#     4  10  21  37  56  80 111 143 178 225 277 324
#     4  10  20  36  56  77 105 139 179 223 266 318
#
# _framework density 22.545189000000001
#
# number of rings (size 3 to 8) (size 9 to 14) (size 15 to 20)
#    0.000    2.500    1.250    2.625    0.000    3.750 
#    0.000    5.625    0.000    2.250    0.000    0.000 
#    0.000    0.000    0.000    0.000    0.000    0.000 
#
# Total GULP energy -178137.731980 kJ/mol
# GULP energy per Si atom -5566.804124 kJ/mol
# Density = 2.249387 g / cm^3
# Si number density = 22.545189 Si / 1000 Ang^3
#
#
#
# Elastic Constant Matrix: (Units=GPa)
#
#
# Indices 1 2 3 4 5 6 
#
# 1 69.1471 10.6514 -2.3669 0.0000 0.0000 0.0000
# 2 10.6514 163.9943 74.1840 0.0000 0.0000 0.0000
# 3 -2.3669 74.1840 121.1937 0.0000 0.0000 0.0000
# 4 0.0000 0.0000 0.0000 -19.0639 0.0000 0.0000
# 5 0.0000 0.0000 0.0000 0.0000 4.9115 0.0000
# 6 0.0000 0.0000 0.0000 0.0000 0.0000 12.1924
#
#
#
# Elastic Compliance Matrix: (Units=1/GPa)
#
#
# Indices 1 2 3 4 5 6 
#
# 1 0.014735 -0.001504 0.001208 0.000000 0.000000 0.000000
# 2 -0.001504 0.008586 -0.005285 0.000000 0.000000 0.000000
# 3 0.001208 -0.005285 0.011510 0.000000 0.000000 0.000000
# 4 0.000000 0.000000 0.000000 -0.052455 0.000000 0.000000
# 5 0.000000 0.000000 0.000000 0.000000 0.203604 0.000000
# 6 0.000000 0.000000 0.000000 0.000000 0.000000 0.082018
#
#
# Mechanical properties :
#
#
# Convention : Reuss Voigt Hill
#
# Bulk Modulus (GPa) = 42.24761 57.69690 49.97225
# Shear Modulus (GPa) = 17.41862 17.73243 17.57553
#
# Velocity S-wave (km/s) = 2.78260 2.80755 2.79511
# Velocity P-wave (km/s) = 5.39477 6.01307 5.71229
#
# Compressibility (1/GPa) = 0.02366998
#
# Stress axis : x y z
#
# Youngs Moduli (GPa) = 67.86615 116.46667 86.88195
#
# Poissons Ratio (x) = 0.17511 -0.10496
# Poissons Ratio (y) = 0.10204 0.45917
# Poissons Ratio (z) = -0.08199 0.61553
#
# Static dielectric constant tensor:
#      x y z
#    x 1.909890 0.000000 0.000000 
#    y 0.000000 1.859540 0.000000 
#    z 0.000000 0.000000 1.840080 
# 
# From -- ./inp_files/25146.got.cif
#   From: 2010.05.17/outbox.cif.g08.bks.cpg/sg44_13_cif.got.tgz:25146.got - 2010.06.03 19:37:08.
