data_PCOD9373837
_publ_section_title
;
Structure prediction by ZEFSAII (Michael W. Deem and Ramdas Pophale) SiO2 
 PCOD9373837
Probable space group: I M M 2
;
_chemical_formula_sum "Si O2"
_cell_formula_units_Z 64
_cell_length_a 23.343855
_cell_length_b 23.242259
_cell_length_c 7.610588
_cell_angle_alpha 90.000000
_cell_angle_beta 90.000000
_cell_angle_gamma 90.000000
_cell_volume 4129.230489
_symmetry_space_group_name_H-M "I M M 2"
_symmetry_group_IT_number 44
_symmetry_cell_setting 'orthorhombic'
loop_
_space_group_symop_operation_xyz
x,y,z
-x,-y,z
-x,y,z
x,-y,z
1/2+x,1/2+y,1/2+z
1/2-x,1/2-y,1/2+z
1/2-x,1/2+y,1/2+z
1/2+x,1/2-y,1/2+z
loop_
_atom_site_type_symbol
_atom_site_label
_atom_site_fract_x
_atom_site_fract_y
_atom_site_fract_z
Si Si1 0.730942 0.154830 0.859230
Si Si2 0.253930 0.933231 0.560072
Si Si3 0.067560 0.849345 0.851671
Si Si4 0.115569 0.933209 0.560073
Si Si5 0.269058 0.845170 0.260915
Si Si6 0.836317 0.762334 0.849300
Si Si7 0.067560 0.849345 0.268475
Si Si8 0.163683 0.762334 0.270845
O O1 0.724587 0.101677 0.729725
O O2 0.786304 0.192371 0.798785
O O3 0.679336 0.200783 0.849772
O O4 0.740441 0.136959 0.060072
O O5 0.184538 0.930426 0.560073
O O6 0.275413 0.898323 0.390420
O O7 0.270491 0.000000 0.560072
O O8 0.091266 0.900269 0.730276
O O9 0.103893 0.792335 0.804961
O O10 0.000000 0.842112 0.823562
O O11 0.077321 0.860588 0.060073
O O12 0.091266 0.900268 0.389870
O O13 0.098507 0.000000 0.560072
O O14 0.320664 0.799217 0.270373
O O15 0.213696 0.807629 0.321360
O O16 0.832788 0.755801 0.060072
O O17 0.103893 0.792335 0.315184
O O18 0.000000 0.842112 0.296584
#
# Coordination Sequence:
#
# PCOD9373837 Si02
#       8
#     8   8   8   8   8   8   8   8
#     4  10  19  31  51  73  95 128 161 202 252 302
#     4  11  22  35  50  73 103 132 173 209 239 292
#     4  10  21  35  50  71  99 130 168 212 250 286
#     4  11  23  36  51  68  96 139 182 210 240 287
#     4  10  19  31  51  73  95 128 161 202 252 302
#     4   9  17  30  50  73  98 123 162 202 251 302
#     4  10  21  35  50  71  99 130 168 212 250 286
#     4   9  17  30  50  73  98 123 162 202 251 302
#
# _framework density 15.499257
#
# number of rings (size 3 to 8) (size 9 to 14) (size 15 to 20)
#    0.000    2.000    3.750    0.375    3.500    2.000 
#    0.000    3.750    0.000    0.000    0.000    0.000 
#    0.000    2.000    0.000    2.250    0.000    0.000 
#
# Total GULP energy -178511.102685 kJ/mol
# GULP energy per Si atom -5578.471959 kJ/mol
# Density = 1.546398 g / cm^3
# Si number density = 15.499257 Si / 1000 Ang^3
#
#
#
# Elastic Constant Matrix: (Units=GPa)
#
#
# Indices 1 2 3 4 5 6 
#
# 1 55.5394 43.8120 24.8066 0.0000 0.0000 0.0000
# 2 43.8120 128.6980 64.6994 0.0000 0.0000 0.0000
# 3 24.8066 64.6994 76.2873 0.0000 0.0000 0.0000
# 4 0.0000 0.0000 0.0000 23.3439 0.0000 0.0000
# 5 0.0000 0.0000 0.0000 0.0000 10.6556 0.0000
# 6 0.0000 0.0000 0.0000 0.0000 0.0000 19.8993
#
#
#
# Elastic Compliance Matrix: (Units=1/GPa)
#
#
# Indices 1 2 3 4 5 6 
#
# 1 0.024723 -0.007626 -0.001571 0.000000 0.000000 0.000000
# 2 -0.007626 0.015898 -0.011003 0.000000 0.000000 0.000000
# 3 -0.001571 -0.011003 0.022951 0.000000 0.000000 0.000000
# 4 0.000000 0.000000 0.000000 0.042838 0.000000 0.000000
# 5 0.000000 0.000000 0.000000 0.000000 0.093847 0.000000
# 6 0.000000 0.000000 0.000000 0.000000 0.000000 0.050253
#
#
# Mechanical properties :
#
#
# Convention : Reuss Voigt Hill
#
# Bulk Modulus (GPa) = 43.15858 58.57339 50.86599
# Shear Modulus (GPa) = 16.74285 19.26023 18.00154
#
# Velocity S-wave (km/s) = 3.29026 3.52896 3.41170
# Velocity P-wave (km/s) = 6.50695 7.38091 6.95767
#
# Compressibility (1/GPa) = 0.02317037
#
# Stress axis : x y z
#
# Youngs Moduli (GPa) = 40.44795 62.90154 43.57105
#
# Poissons Ratio (x) = 0.47971 0.06846
# Poissons Ratio (y) = 0.30847 0.47942
# Poissons Ratio (z) = 0.06356 0.69211
#
# Static dielectric constant tensor:
#      x y z
#    x 1.514980 0.000000 0.000000 
#    y 0.000000 1.496470 0.000000 
#    z 0.000000 0.000000 1.553230 
# 
# From -- ./inp_files/9122.got.cif
#   From: 2010.05.17/outbox.cif.g08.bks.cpg/sg44_5_cif.got.tgz:9122.got - 2010.06.03 19:37:08.
