data_PCOD9373536
_publ_section_title
;
Structure prediction by ZEFSAII (Michael W. Deem and Ramdas Pophale) SiO2 
 PCOD9373536
Probable space group: I M M 2
;
_chemical_formula_sum "Si O2"
_cell_formula_units_Z 56
_cell_length_a 20.029130
_cell_length_b 9.032445
_cell_length_c 16.031628
_cell_angle_alpha 90.000000
_cell_angle_beta 90.000000
_cell_angle_gamma 90.000000
_cell_volume 2900.314127
_symmetry_space_group_name_H-M "I M M 2"
_symmetry_group_IT_number 44
_symmetry_cell_setting 'orthorhombic'
loop_
_space_group_symop_operation_xyz
x,y,z
-x,-y,z
-x,y,z
x,-y,z
1/2+x,1/2+y,1/2+z
1/2-x,1/2-y,1/2+z
1/2-x,1/2+y,1/2+z
1/2+x,1/2-y,1/2+z
loop_
_atom_site_type_symbol
_atom_site_label
_atom_site_fract_x
_atom_site_fract_y
_atom_site_fract_z
Si Si1 0.420007 0.834046 0.729550
Si Si2 0.806544 0.176449 0.311211
Si Si3 0.212063 0.821409 0.669740
Si Si4 0.757263 0.829348 0.483668
Si Si5 0.604775 0.166116 0.422116
Si Si6 0.576668 0.340418 0.576158
Si Si7 0.077471 0.675859 0.726101
O O1 0.500000 0.831382 0.738981
O O2 0.381354 0.714977 0.783892
O O3 0.398662 0.791295 0.635002
O O4 0.396947 0.000000 0.748476
O O5 0.756486 0.250082 0.243865
O O6 0.796701 0.236956 0.405167
O O7 0.794016 0.000000 0.310749
O O8 0.236383 0.769301 0.577424
O O9 0.135452 0.768424 0.681355
O O10 0.217242 0.000000 0.675737
O O11 0.682208 0.830894 0.448171
O O12 0.779799 0.000000 0.491814
O O13 0.575594 0.290759 0.481276
O O14 0.591048 0.192368 0.325386
O O15 0.579488 0.000000 0.441796
O O16 0.500000 0.355797 0.602463
O O17 0.610385 0.500000 0.588243
O O18 0.085263 0.500000 0.707744
O O19 0.000000 0.716349 0.708780
#
# Coordination Sequence:
#
# PCOD9373536 Si02
#       7
#     8   8   8   8   8   8   8
#     4  10  21  37  56  81 115 153 192 237 295 357
#     4  11  21  39  63  86 115 151 196 248 297 353
#     4  11  22  38  61  90 122 159 201 249 305 364
#     4   9  20  37  58  83 113 149 193 241 296 360
#     4  10  18  34  57  80 110 148 193 243 300 361
#     4  10  20  32  48  77 114 148 186 230 281 344
#     4  10  21  38  60  85 117 162 209 253 308 369
#
# _framework density 19.308254000000002
#
# number of rings (size 3 to 8) (size 9 to 14) (size 15 to 20)
#    0.000    1.857    1.429    3.000    0.000    4.286 
#    0.000    4.286    0.000    4.286    0.000    0.000 
#    0.000    0.000    0.000    0.000    0.000    0.000 
#
# Total GULP energy -156043.935302 kJ/mol
# GULP energy per Si atom -5572.997689 kJ/mol
# Density = 1.926431 g / cm^3
# Si number density = 19.308254 Si / 1000 Ang^3
#
#
#
# Elastic Constant Matrix: (Units=GPa)
#
#
# Indices 1 2 3 4 5 6 
#
# 1 74.5233 20.3657 21.9382 0.0000 0.0000 0.0000
# 2 20.3657 55.8590 24.4802 0.0000 0.0000 0.0000
# 3 21.9382 24.4802 86.9914 0.0000 0.0000 0.0000
# 4 0.0000 0.0000 0.0000 22.0770 0.0000 0.0000
# 5 0.0000 0.0000 0.0000 0.0000 1.1334 0.0000
# 6 0.0000 0.0000 0.0000 0.0000 0.0000 27.2696
#
#
#
# Elastic Compliance Matrix: (Units=1/GPa)
#
#
# Indices 1 2 3 4 5 6 
#
# 1 0.015414 -0.004467 -0.002630 0.000000 0.000000 0.000000
# 2 -0.004467 0.021715 -0.004984 0.000000 0.000000 0.000000
# 3 -0.002630 -0.004984 0.013561 0.000000 0.000000 0.000000
# 4 0.000000 0.000000 0.000000 0.045296 0.000000 0.000000
# 5 0.000000 0.000000 0.000000 0.000000 0.882273 0.000000
# 6 0.000000 0.000000 0.000000 0.000000 0.000000 0.036671
#
#
# Mechanical properties :
#
#
# Convention : Reuss Voigt Hill
#
# Bulk Modulus (GPa) = 37.69707 38.99355 38.34531
# Shear Modulus (GPa) = 4.77129 20.13532 12.45331
#
# Velocity S-wave (km/s) = 1.57368 3.23280 2.54239
# Velocity P-wave (km/s) = 4.78207 5.84583 5.34050
#
# Compressibility (1/GPa) = 0.02652726
#
# Stress axis : x y z
#
# Youngs Moduli (GPa) = 64.87777 46.05061 73.73920
#
# Poissons Ratio (x) = 0.20571 0.19394
# Poissons Ratio (y) = 0.28981 0.36754
# Poissons Ratio (z) = 0.17063 0.22953
#
# Static dielectric constant tensor:
#      x y z
#    x 3.059290 0.000000 0.000000 
#    y 0.000000 1.694260 0.000000 
#    z 0.000000 0.000000 1.686810 
# 
# From -- ./inp_files/16439.got.cif
#   From: 2010.05.17/outbox.cif.g08.bks.cpg/sg44_9_cif.got.tgz:16439.got - 2010.06.03 19:37:08.
