data_PCOD9373315
_publ_section_title
;
Structure prediction by ZEFSAII (Michael W. Deem and Ramdas Pophale) SiO2 
 PCOD9373315
Probable space group: I M M 2
;
_chemical_formula_sum "Si O2"
_cell_formula_units_Z 48
_cell_length_a 7.326362
_cell_length_b 10.785675
_cell_length_c 29.126001
_cell_angle_alpha 90.000000
_cell_angle_beta 90.000000
_cell_angle_gamma 90.000000
_cell_volume 2301.529593
_symmetry_space_group_name_H-M "I M M 2"
_symmetry_group_IT_number 44
_symmetry_cell_setting 'orthorhombic'
loop_
_space_group_symop_operation_xyz
x,y,z
-x,-y,z
-x,y,z
x,-y,z
1/2+x,1/2+y,1/2+z
1/2-x,1/2-y,1/2+z
1/2-x,1/2+y,1/2+z
1/2+x,1/2-y,1/2+z
loop_
_atom_site_type_symbol
_atom_site_label
_atom_site_fract_x
_atom_site_fract_y
_atom_site_fract_z
Si Si1 0.776534 0.000000 0.159050
Si Si2 0.776393 0.500000 0.152532
Si Si3 0.778131 0.356001 0.409299
Si Si4 0.786649 0.246456 0.108501
Si Si5 0.277499 0.500000 0.765495
Si Si6 0.219571 0.642194 0.511732
Si Si7 0.222785 0.253848 0.313715
Si Si8 0.277902 0.000000 0.758848
O O1 0.711928 0.876565 0.133076
O O2 0.723256 0.000000 0.212236
O O3 0.000000 0.000000 0.157468
O O4 0.712480 0.375497 0.127305
O O5 0.722899 0.500000 0.205820
O O6 0.000000 0.500000 0.151424
O O7 0.726181 0.500000 0.401751
O O8 0.719029 0.320110 0.460649
O O9 0.718843 0.274195 0.366342
O O10 0.000000 0.354193 0.409330
O O11 0.772606 0.227652 0.054033
O O12 0.000000 0.247952 0.120530
O O13 0.500000 0.500000 0.765954
O O14 0.218275 0.374562 0.790922
O O15 0.281824 0.500000 0.520190
O O16 0.000000 0.638999 0.510825
O O17 0.279606 0.374858 0.284788
O O18 0.000000 0.253300 0.313307
O O19 0.500000 0.000000 0.759885
#
# Coordination Sequence:
#
# PCOD9373315 Si02
#       8
#     4   4   8   8   4   8   8   4
#     4   9  16  26  40  59  85 117 147 177 214 253
#     4   9  18  28  40  61  91 121 145 177 220 261
#     4   8  13  23  38  56  78 107 140 173 210 251
#     4  10  18  30  46  65  90 118 148 181 218 258
#     4   9  16  22  31  53  85 113 133 165 214 257
#     4   9  17  29  46  66  88 114 147 186 222 256
#     4   9  14  21  34  53  78 108 140 169 204 255
#     4   9  14  22  37  55  77 111 147 169 198 255
#
# _framework density 20.855695000000001
#
# number of rings (size 3 to 8) (size 9 to 14) (size 15 to 20)
#    0.000    3.000    1.667    2.000    0.000    4.000 
#    0.000    1.250    0.000    2.000    0.000    0.000 
#    0.000    8.000    0.000    0.000    0.000    0.000 
#
# Total GULP energy -133984.669932 kJ/mol
# GULP energy per Si atom -5582.694581 kJ/mol
# Density = 2.080823 g / cm^3
# Si number density = 20.855695 Si / 1000 Ang^3
#
#
#
# Elastic Constant Matrix: (Units=GPa)
#
#
# Indices 1 2 3 4 5 6 
#
# 1 80.0868 8.7837 -3.8975 0.0000 0.0000 0.0000
# 2 8.7837 184.3434 125.9296 0.0000 0.0000 0.0000
# 3 -3.8975 125.9296 201.3186 0.0000 0.0000 0.0000
# 4 0.0000 0.0000 0.0000 -1.0670 0.0000 0.0000
# 5 0.0000 0.0000 0.0000 0.0000 7.8014 0.0000
# 6 0.0000 0.0000 0.0000 0.0000 0.0000 -10.6314
#
#
#
# Elastic Compliance Matrix: (Units=1/GPa)
#
#
# Indices 1 2 3 4 5 6 
#
# 1 0.012687 -0.001349 0.001089 0.000000 0.000000 0.000000
# 2 -0.001349 0.009616 -0.006041 0.000000 0.000000 0.000000
# 3 0.001089 -0.006041 0.008767 0.000000 0.000000 0.000000
# 4 0.000000 0.000000 0.000000 -0.937191 0.000000 0.000000
# 5 0.000000 0.000000 0.000000 0.000000 0.128183 0.000000
# 6 0.000000 0.000000 0.000000 0.000000 0.000000 -0.094061
#
#
# Mechanical properties :
#
#
# Convention : Reuss Voigt Hill
#
# Bulk Modulus (GPa) = 54.14346 80.82005 67.48176
# Shear Modulus (GPa) = -5.86000 21.54946 7.84473
#
# Velocity S-wave (km/s) = -1.67806 3.21793 1.94155
# Velocity P-wave (km/s) = 4.71835 7.25554 6.11988
#
# Compressibility (1/GPa) = 0.01846945
#
# Stress axis : x y z
#
# Youngs Moduli (GPa) = 78.81857 103.99754 114.06321
#
# Poissons Ratio (x) = 0.14025 -0.12424
# Poissons Ratio (y) = 0.10629 0.68904
# Poissons Ratio (z) = -0.08585 0.62824
#
# Static dielectric constant tensor:
#      x y z
#    x 1.858290 0.000000 0.000000 
#    y 0.000000 1.700290 0.000000 
#    z 0.000000 0.000000 1.720440 
# 
# From -- ./inp_files/25427.got.cif
#   From: 2010.05.17/outbox.cif.g08.bks.cpg/sg44_13_cif.got.tgz:25427.got - 2010.06.03 19:37:08.
