data_PCOD9373377
_publ_section_title
;
Structure prediction by ZEFSAII (Michael W. Deem and Ramdas Pophale) SiO2 
 PCOD9373377
Probable space group: I M M 2
;
_chemical_formula_sum "Si O2"
_cell_formula_units_Z 48
_cell_length_a 7.589112
_cell_length_b 19.018512
_cell_length_c 15.657397
_cell_angle_alpha 90.000000
_cell_angle_beta 90.000000
_cell_angle_gamma 90.000000
_cell_volume 2259.888752
_symmetry_space_group_name_H-M "I M M 2"
_symmetry_group_IT_number 44
_symmetry_cell_setting 'orthorhombic'
loop_
_space_group_symop_operation_xyz
x,y,z
-x,-y,z
-x,y,z
x,-y,z
1/2+x,1/2+y,1/2+z
1/2-x,1/2-y,1/2+z
1/2-x,1/2+y,1/2+z
1/2+x,1/2-y,1/2+z
loop_
_atom_site_type_symbol
_atom_site_label
_atom_site_fract_x
_atom_site_fract_y
_atom_site_fract_z
Si Si1 0.210296 0.152494 0.529640
Si Si2 0.786068 0.500000 0.276992
Si Si3 0.286102 0.110193 0.915468
Si Si4 0.713489 0.076218 0.104435
Si Si5 0.795919 0.000000 0.581624
Si Si6 0.715738 0.734814 0.867339
Si Si7 0.205038 0.230487 0.173455
O O1 0.276484 0.178144 0.437016
O O2 0.233121 0.212830 0.602650
O O3 0.000000 0.145775 0.522443
O O4 0.282121 0.075258 0.553249
O O5 0.730247 0.566594 0.333269
O O6 0.709974 0.500000 0.183692
O O7 0.000000 0.500000 0.269910
O O8 0.500000 0.106905 0.916060
O O9 0.234448 0.190429 0.907099
O O10 0.229106 0.079132 0.005529
O O11 0.500000 0.077573 0.106750
O O12 0.773474 0.149603 0.144509
O O13 0.769568 0.000000 0.141003
O O14 0.000000 0.000000 0.553355
O O15 0.500000 0.731031 0.864788
O O16 0.780582 0.733662 0.769740
O O17 0.000000 0.246970 0.181869
#
# Coordination Sequence:
#
# PCOD9373377 Si02
#       7
#     8   4   8   8   4   8   8
#     4  10  20  39  61  79 109 153 192 227 271 335
#     4  10  18  30  54  83 108 138 178 227 280 333
#     4   9  15  28  54  81 101 134 186 225 257 321
#     4  10  19  35  59  82 109 148 188 221 267 335
#     4  10  22  36  54  83 112 142 186 233 278 323
#     4   9  18  33  55  79 105 144 191 229 268 327
#     4  11  22  36  57  88 115 141 184 238 286 325
#
# _framework density 21.239984
#
# number of rings (size 3 to 8) (size 9 to 14) (size 15 to 20)
#    0.000    2.167    2.500    1.500    0.000    2.333 
#    1.500    2.500    0.000    0.000    0.000    0.000 
#    0.000    0.000    0.000    0.000    0.000    0.000 
#
# Total GULP energy -133869.994223 kJ/mol
# GULP energy per Si atom -5577.916426 kJ/mol
# Density = 2.119164 g / cm^3
# Si number density = 21.239984 Si / 1000 Ang^3
#
#
#
# Elastic Constant Matrix: (Units=GPa)
#
#
# Indices 1 2 3 4 5 6 
#
# 1 44.8836 -3.6474 1.7522 0.0000 0.0000 0.0000
# 2 -3.6474 145.1167 51.9358 0.0000 0.0000 0.0000
# 3 1.7522 51.9358 102.1446 0.0000 0.0000 0.0000
# 4 0.0000 0.0000 0.0000 -11.9121 0.0000 0.0000
# 5 0.0000 0.0000 0.0000 0.0000 17.8958 0.0000
# 6 0.0000 0.0000 0.0000 0.0000 0.0000 -56.3870
#
#
#
# Elastic Compliance Matrix: (Units=1/GPa)
#
#
# Indices 1 2 3 4 5 6 
#
# 1 0.022381 0.000856 -0.000819 0.000000 0.000000 0.000000
# 2 0.000856 0.008457 -0.004314 0.000000 0.000000 0.000000
# 3 -0.000819 -0.004314 0.011998 0.000000 0.000000 0.000000
# 4 0.000000 0.000000 0.000000 -0.083948 0.000000 0.000000
# 5 0.000000 0.000000 0.000000 0.000000 0.055879 0.000000
# 6 0.000000 0.000000 0.000000 0.000000 0.000000 -0.017735
#
#
# Mechanical properties :
#
#
# Convention : Reuss Voigt Hill
#
# Bulk Modulus (GPa) = 29.17141 43.58068 36.37604
# Shear Modulus (GPa) = 293.86688 6.05963 149.96325
#
# Velocity S-wave (km/s) = 11.77522 1.69090 8.41175
# Velocity P-wave (km/s) = 14.09392 4.93710 10.55967
#
# Compressibility (1/GPa) = 0.03428014
#
# Stress axis : x y z
#
# Youngs Moduli (GPa) = 44.68008 118.25056 83.34855
#
# Poissons Ratio (x) = -0.10118 0.06826
# Poissons Ratio (y) = -0.03823 0.35961
# Poissons Ratio (z) = 0.03659 0.51019
#
# Static dielectric constant tensor:
#      x y z
#    x 1.815470 0.000000 0.000000 
#    y 0.000000 1.800250 0.000000 
#    z 0.000000 0.000000 1.748120 
# 
# From -- ./inp_files/16119.got.cif
#   From: 2010.05.17/outbox.cif.g08.bks.cpg/sg44_9_cif.got.tgz:16119.got - 2010.06.03 19:37:08.
