data_PCOD9373872
_publ_section_title
;
Structure prediction by ZEFSAII (Michael W. Deem and Ramdas Pophale) SiO2 
 PCOD9373872
Probable space group: I M M 2
;
_chemical_formula_sum "Si O2"
_cell_formula_units_Z 56
_cell_length_a 24.691893
_cell_length_b 19.096768
_cell_length_c 7.372566
_cell_angle_alpha 90.000000
_cell_angle_beta 90.000000
_cell_angle_gamma 90.000000
_cell_volume 3476.425505
_symmetry_space_group_name_H-M "I M M 2"
_symmetry_group_IT_number 44
_symmetry_cell_setting 'orthorhombic'
loop_
_space_group_symop_operation_xyz
x,y,z
-x,-y,z
-x,y,z
x,-y,z
1/2+x,1/2+y,1/2+z
1/2-x,1/2-y,1/2+z
1/2-x,1/2+y,1/2+z
1/2+x,1/2-y,1/2+z
loop_
_atom_site_type_symbol
_atom_site_label
_atom_site_fract_x
_atom_site_fract_y
_atom_site_fract_z
Si Si1 0.184333 0.710051 0.649960
Si Si2 0.254846 0.079700 0.143032
Si Si3 0.761436 0.080524 0.581218
Si Si4 0.797035 0.287187 0.078122
Si Si5 0.062869 0.082854 0.371395
Si Si6 0.142650 0.845604 0.086608
Si Si7 0.624839 0.657206 0.169587
O O1 0.195031 0.630290 0.593602
O O2 0.186158 0.708236 0.868604
O O3 0.238800 0.749389 0.585648
O O4 0.136249 0.763070 0.603284
O O5 0.245632 0.081502 0.362006
O O6 0.262685 0.000000 0.088029
O O7 0.198920 0.111398 0.067054
O O8 0.716069 0.135507 0.652393
O O9 0.820268 0.112512 0.627614
O O10 0.756781 0.000000 0.640898
O O11 0.838955 0.231246 0.159877
O O12 0.077501 0.120227 0.560066
O O13 0.000000 0.092708 0.324503
O O14 0.073735 0.000000 0.385463
O O15 0.102798 0.116165 0.223391
O O16 0.117861 0.841157 0.885837
#
# Coordination Sequence:
#
# PCOD9373872 Si02
#       7
#     8   8   8   8   8   8   8
#     4   8  15  25  40  64  89 119 152 180 214 266
#     4   9  15  25  43  67  97 127 152 179 216 266
#     4   9  15  25  43  67  97 127 152 179 216 266
#     4   8  15  25  40  64  89 119 152 180 214 266
#     4  11  24  38  50  66  87 115 157 201 235 266
#     4  10  19  32  49  65  89 122 155 188 227 268
#     4  10  19  32  49  65  89 122 155 188 227 268
#
# _framework density 16.108498999999998
#
# number of rings (size 3 to 8) (size 9 to 14) (size 15 to 20)
#    0.000    2.714    1.429    0.857    2.000    2.857 
#    0.000    1.429    0.000    0.000    0.000    0.000 
#    0.000    2.286    0.000   11.143    0.000    0.000 
#
# Total GULP energy -155919.343955 kJ/mol
# GULP energy per Si atom -5568.547998 kJ/mol
# Density = 1.607184 g / cm^3
# Si number density = 16.108499 Si / 1000 Ang^3
#
#
#
# Elastic Constant Matrix: (Units=GPa)
#
#
# Indices 1 2 3 4 5 6 
#
# 1 36.1897 25.9035 -2.9118 0.0000 0.0000 0.0000
# 2 25.9035 115.3332 -2.1815 0.0000 0.0000 0.0000
# 3 -2.9118 -2.1815 32.8367 0.0000 0.0000 0.0000
# 4 0.0000 0.0000 0.0000 14.6135 0.0000 0.0000
# 5 0.0000 0.0000 0.0000 0.0000 -1.2412 0.0000
# 6 0.0000 0.0000 0.0000 0.0000 0.0000 19.9628
#
#
#
# Elastic Compliance Matrix: (Units=1/GPa)
#
#
# Indices 1 2 3 4 5 6 
#
# 1 0.033120 -0.007392 0.002446 0.000000 0.000000 0.000000
# 2 -0.007392 0.010331 0.000031 0.000000 0.000000 0.000000
# 3 0.002446 0.000031 0.030673 0.000000 0.000000 0.000000
# 4 0.000000 0.000000 0.000000 0.068430 0.000000 0.000000
# 5 0.000000 0.000000 0.000000 0.000000 -0.805653 0.000000
# 6 0.000000 0.000000 0.000000 0.000000 0.000000 0.050093
#
#
# Mechanical properties :
#
#
# Convention : Reuss Voigt Hill
#
# Bulk Modulus (GPa) = 15.55385 25.10889 20.33137
# Shear Modulus (GPa) = -8.59486 17.57031 4.48772
#
# Velocity S-wave (km/s) = -2.31240 3.30623 1.67092
# Velocity P-wave (km/s) = 1.59595 5.49510 4.04618
#
# Compressibility (1/GPa) = 0.06429278
#
# Stress axis : x y z
#
# Youngs Moduli (GPa) = 30.19301 96.79196 32.60236
#
# Poissons Ratio (x) = 0.71553 -0.07974
# Poissons Ratio (y) = 0.22320 -0.00101
# Poissons Ratio (z) = -0.07385 -0.00299
#
# Static dielectric constant tensor:
#      x y z
#    x 1.501380 0.000000 0.000000 
#    y 0.000000 1.594270 0.000000 
#    z 0.000000 0.000000 1.602450 
# 
# From -- ./inp_files/9497.got.cif
#   From: 2010.05.17/outbox.cif.g08.bks.cpg/sg44_5_cif.got.tgz:9497.got - 2010.06.03 19:37:08.
