data_PCOD9373925
_publ_section_title
;
Structure prediction by ZEFSAII (Michael W. Deem and Ramdas Pophale) SiO2 
 PCOD9373925
Probable space group: I M M 2
;
_chemical_formula_sum "Si O2"
_cell_formula_units_Z 48
_cell_length_a 33.690725
_cell_length_b 13.293707
_cell_length_c 5.311483
_cell_angle_alpha 90.000000
_cell_angle_beta 90.000000
_cell_angle_gamma 90.000000
_cell_volume 2378.878466
_symmetry_space_group_name_H-M "I M M 2"
_symmetry_group_IT_number 44
_symmetry_cell_setting 'orthorhombic'
loop_
_space_group_symop_operation_xyz
x,y,z
-x,-y,z
-x,y,z
x,-y,z
1/2+x,1/2+y,1/2+z
1/2-x,1/2-y,1/2+z
1/2-x,1/2+y,1/2+z
1/2+x,1/2-y,1/2+z
loop_
_atom_site_type_symbol
_atom_site_label
_atom_site_fract_x
_atom_site_fract_y
_atom_site_fract_z
Si Si1 0.724535 0.877942 0.434450
Si Si2 0.044911 0.689118 0.059438
Si Si3 0.373215 0.614100 0.897539
Si Si4 0.952953 0.614602 0.559770
Si Si5 0.074750 0.110352 0.896356
Si Si6 0.198410 0.266579 0.434542
O O1 0.766779 0.818661 0.433792
O O2 0.703504 0.836556 0.687970
O O3 0.727864 0.000000 0.432283
O O4 0.702994 0.834957 0.184070
O O5 0.065343 0.628671 0.834517
O O6 0.044837 0.801236 0.957277
O O7 0.000000 0.650052 0.096345
O O8 0.063814 0.680293 0.333391
O O9 0.355880 0.500000 0.923132
O O10 0.392914 0.617845 0.620977
O O11 0.341621 0.702113 0.927995
O O12 0.405011 0.621967 0.124435
O O13 0.950012 0.500000 0.478241
O O14 0.000000 0.639075 0.596460
O O15 0.056511 0.000000 0.909955
#
# Coordination Sequence:
#
# PCOD9373925 Si02
#       6
#     8   8   8   8   8   8
#     4  10  20  34  54  83 112 136 171 213 256 302
#     4  10  19  32  52  76 102 131 164 210 264 311
#     4  10  20  36  56  76 101 135 176 215 251 297
#     4   9  17  30  50  74  97 124 160 203 253 304
#     4  10  21  35  53  76 102 135 172 212 256 305
#     4  10  20  34  56  80 105 141 175 212 255 296
#
# _framework density 20.177575999999998
#
# number of rings (size 3 to 8) (size 9 to 14) (size 15 to 20)
#    0.000    2.167    0.000    3.500    0.000    2.333 
#    0.000    5.000    0.000   26.000    0.000    0.000 
#    0.000    0.000    0.000    0.000    0.000    0.000 
#
# Total GULP energy -133760.121620 kJ/mol
# GULP energy per Si atom -5573.338401 kJ/mol
# Density = 2.013165 g / cm^3
# Si number density = 20.177576 Si / 1000 Ang^3
#
#
#
# Elastic Constant Matrix: (Units=GPa)
#
#
# Indices 1 2 3 4 5 6 
#
# 1 17.1178 18.3200 12.4488 0.0000 0.0005 0.0002
# 2 18.3200 142.8471 48.7316 0.0002 -0.0003 0.0003
# 3 12.4488 48.7316 138.9257 0.0019 0.0015 0.0012
# 4 0.0000 0.0002 0.0019 35.3863 0.0014 0.0016
# 5 0.0005 -0.0003 0.0015 0.0014 11.8745 0.0002
# 6 0.0002 0.0003 0.0012 0.0016 0.0002 30.9005
#
#
#
# Elastic Compliance Matrix: (Units=1/GPa)
#
#
# Indices 1 2 3 4 5 6 
#
# 1 0.069185 -0.007677 -0.003507 0.000000 -0.000002 0.000000
# 2 -0.007677 0.008804 -0.002400 0.000000 0.000001 0.000000
# 3 -0.003507 -0.002400 0.008354 0.000000 -0.000001 0.000000
# 4 0.000000 0.000000 0.000000 0.028260 -0.000003 -0.000001
# 5 -0.000002 0.000001 -0.000001 -0.000003 0.084214 -0.000001
# 6 0.000000 0.000000 0.000000 -0.000001 -0.000001 0.032362
#
#
# Mechanical properties :
#
#
# Convention : Reuss Voigt Hill
#
# Bulk Modulus (GPa) = 16.89882 50.87682 33.88782
# Shear Modulus (GPa) = 17.98101 30.25827 24.11964
#
# Velocity S-wave (km/s) = 2.98843 3.87667 3.46116
# Velocity P-wave (km/s) = 4.50565 6.73107 5.72749
#
# Compressibility (1/GPa) = 0.05917575
#
# Stress axis : x y z
#
# Youngs Moduli (GPa) = 14.45404 113.58671 119.69907
#
# Poissons Ratio (x) = 0.87195 0.41975
# Poissons Ratio (y) = 0.11096 0.28731
# Poissons Ratio (z) = 0.05069 0.27264
#
# Static dielectric constant tensor:
#      x y z
#    x 1.700910 0.000000 0.000000 
#    y 0.000000 1.717900 0.000000 
#    z 0.000000 0.000000 1.772370 
# 
# From -- ./inp_files/3009.got.cif
#   From: 2010.05.17/outbox.cif.g08.bks.cpg/sg44_2_cif.got.tgz:3009.got - 2010.06.03 19:37:08.
