data_PCOD9373103
_publ_section_title
;
Structure prediction by ZEFSAII (Michael W. Deem and Ramdas Pophale) SiO2 
 PCOD9373103
Probable space group: I M M 2
;
_chemical_formula_sum "Si O2"
_cell_formula_units_Z 64
_cell_length_a 15.354795
_cell_length_b 7.844323
_cell_length_c 24.802699
_cell_angle_alpha 90.000000
_cell_angle_beta 90.000000
_cell_angle_gamma 90.000000
_cell_volume 2987.434784
_symmetry_space_group_name_H-M "I M M 2"
_symmetry_group_IT_number 44
_symmetry_cell_setting 'orthorhombic'
loop_
_space_group_symop_operation_xyz
x,y,z
-x,-y,z
-x,y,z
x,-y,z
1/2+x,1/2+y,1/2+z
1/2-x,1/2-y,1/2+z
1/2-x,1/2+y,1/2+z
1/2+x,1/2-y,1/2+z
loop_
_atom_site_type_symbol
_atom_site_label
_atom_site_fract_x
_atom_site_fract_y
_atom_site_fract_z
Si Si1 0.099270 0.207248 0.043690
Si Si2 0.402701 0.298778 0.332668
Si Si3 0.903495 0.202041 0.554239
Si Si4 0.900386 0.758305 0.436364
Si Si5 0.736724 0.198270 0.248597
Si Si6 0.405263 0.806586 0.810856
Si Si7 0.707715 0.710394 0.435854
Si Si8 0.259807 0.293870 0.627787
O O1 0.156132 0.267267 0.094478
O O2 0.000000 0.269421 0.042527
O O3 0.095643 0.000000 0.045971
O O4 0.152642 0.246161 0.989434
O O5 0.500000 0.226070 0.328524
O O6 0.411085 0.500000 0.342383
O O7 0.344428 0.277202 0.279838
O O8 0.348072 0.236404 0.383985
O O9 0.899057 0.307190 0.498354
O O10 0.826235 0.246437 0.594238
O O11 0.000000 0.227843 0.578058
O O12 0.896784 0.000000 0.539104
O O13 0.900917 0.682441 0.375885
O O14 0.798691 0.810692 0.435864
O O15 0.000000 0.831644 0.436606
O O16 0.822736 0.215999 0.285358
O O17 0.754084 0.269733 0.188997
O O18 0.716426 0.000000 0.242553
O O19 0.500000 0.729824 0.797326
O O20 0.402691 0.000000 0.790488
O O21 0.724670 0.500000 0.433825
O O22 0.265100 0.500000 0.629216
#
# Coordination Sequence:
#
# PCOD9373103 Si02
#       8
#     8   8   8   8   8   8   8   8
#     4   9  17  31  54  82 109 139 180 231 282 333
#     4  10  21  38  61  87 114 148 195 247 295 351
#     4  10  22  39  59  86 119 153 188 232 293 359
#     4  10  19  32  55  87 119 148 181 230 292 353
#     4  11  24  39  57  83 118 156 197 248 302 351
#     4  10  21  38  61  88 117 154 200 244 290 352
#     4  10  17  30  55  87 116 141 180 232 286 344
#     4  10  22  39  58  83 111 150 200 244 288 340
#
# _framework density 21.423062000000002
#
# number of rings (size 3 to 8) (size 9 to 14) (size 15 to 20)
#    0.000    2.000    2.500    1.125    0.000    6.000 
#    0.000    7.500    0.000    0.375    0.000    0.000 
#    0.000    0.000    0.000    0.000    0.000    0.000 
#
# Total GULP energy -178145.762355 kJ/mol
# GULP energy per Si atom -5567.055074 kJ/mol
# Density = 2.137430 g / cm^3
# Si number density = 21.423062 Si / 1000 Ang^3
#
#
#
# Elastic Constant Matrix: (Units=GPa)
#
#
# Indices 1 2 3 4 5 6 
#
# 1 230.8747 14.9053 88.2878 0.0000 0.0000 0.0000
# 2 14.9053 34.9466 9.6719 0.0000 0.0000 0.0000
# 3 88.2878 9.6719 148.7963 0.0000 0.0000 0.0000
# 4 0.0000 0.0000 0.0000 -36.7926 0.0000 0.0000
# 5 0.0000 0.0000 0.0000 0.0000 11.8033 0.0000
# 6 0.0000 0.0000 0.0000 0.0000 0.0000 10.9670
#
#
#
# Elastic Compliance Matrix: (Units=1/GPa)
#
#
# Indices 1 2 3 4 5 6 
#
# 1 0.005680 -0.001517 -0.003272 0.000000 0.000000 0.000000
# 2 -0.001517 0.029545 -0.001020 0.000000 0.000000 0.000000
# 3 -0.003272 -0.001020 0.008728 0.000000 0.000000 0.000000
# 4 0.000000 0.000000 0.000000 -0.027179 0.000000 0.000000
# 5 0.000000 0.000000 0.000000 0.000000 0.084722 0.000000
# 6 0.000000 0.000000 0.000000 0.000000 0.000000 0.091183
#
#
# Mechanical properties :
#
#
# Convention : Reuss Voigt Hill
#
# Bulk Modulus (GPa) = 30.92652 71.14974 51.03813
# Shear Modulus (GPa) = 23.24762 17.31238 20.28000
#
# Velocity S-wave (km/s) = 3.29776 2.84583 3.08009
# Velocity P-wave (km/s) = 5.38217 6.63944 6.04359
#
# Compressibility (1/GPa) = 0.03233471
#
# Stress axis : x y z
#
# Youngs Moduli (GPa) = 176.04101 33.84716 114.57033
#
# Poissons Ratio (x) = 0.05136 0.37486
# Poissons Ratio (y) = 0.26711 0.11688
# Poissons Ratio (z) = 0.57598 0.03453
#
# Static dielectric constant tensor:
#      x y z
#    x 1.761700 0.000000 0.000000 
#    y 0.000000 1.866910 0.000000 
#    z 0.000000 0.000000 1.747640 
# 
# From -- ./inp_files/25757.got.cif
#   From: 2010.05.17/outbox.cif.g08.bks.cpg/sg44_13_cif.got.tgz:25757.got - 2010.06.03 19:37:08.
