data_PCOD9373932
_publ_section_title
;
Structure prediction by ZEFSAII (Michael W. Deem and Ramdas Pophale) SiO2 
 PCOD9373932
Probable space group: I M M 2
;
_chemical_formula_sum "Si O2"
_cell_formula_units_Z 48
_cell_length_a 8.352349
_cell_length_b 17.126056
_cell_length_c 18.934466
_cell_angle_alpha 90.000000
_cell_angle_beta 90.000000
_cell_angle_gamma 90.000000
_cell_volume 2708.438971
_symmetry_space_group_name_H-M "I M M 2"
_symmetry_group_IT_number 44
_symmetry_cell_setting 'orthorhombic'
loop_
_space_group_symop_operation_xyz
x,y,z
-x,-y,z
-x,y,z
x,-y,z
1/2+x,1/2+y,1/2+z
1/2-x,1/2-y,1/2+z
1/2-x,1/2+y,1/2+z
1/2+x,1/2-y,1/2+z
loop_
_atom_site_type_symbol
_atom_site_label
_atom_site_fract_x
_atom_site_fract_y
_atom_site_fract_z
Si Si1 0.808002 0.177213 0.197660
Si Si2 0.808215 0.259311 0.479931
Si Si3 0.195231 0.500000 0.933453
Si Si4 0.195424 0.500000 0.097642
Si Si5 0.693300 0.087927 0.061401
Si Si6 0.308471 0.158059 0.356310
Si Si7 0.193263 0.329704 0.116858
O O1 0.745464 0.116602 0.139041
O O2 0.749702 0.161314 0.276211
O O3 0.752321 0.262899 0.170924
O O4 0.000000 0.175577 0.196198
O O5 0.752886 0.344994 0.506381
O O6 0.749725 0.230050 0.404236
O O7 0.745358 0.199125 0.539325
O O8 0.000000 0.258466 0.480944
O O9 0.249122 0.421835 0.893761
O O10 0.000000 0.500000 0.932897
O O11 0.243133 0.500000 0.015234
O O12 0.249629 0.417889 0.130247
O O13 0.000000 0.500000 0.099705
O O14 0.500000 0.087201 0.059765
O O15 0.750458 0.000000 0.046959
O O16 0.500000 0.157355 0.357092
O O17 0.000000 0.330263 0.117681
#
# Coordination Sequence:
#
# PCOD9373932 Si02
#       7
#     8   8   4   4   8   8   8
#     4  10  21  34  50  77 107 134 167 212 258 299
#     4  10  19  32  52  77 103 130 168 214 255 296
#     4   9  18  30  50  76  98 127 168 201 236 300
#     4   9  14  28  54  78  96 123 168 207 236 292
#     4   9  19  36  56  76 100 135 174 210 254 312
#     4  11  21  35  53  73 102 141 173 202 249 309
#     4   9  17  32  53  74 100 133 169 204 247 302
#
# _framework density 17.722384999999999
#
# number of rings (size 3 to 8) (size 9 to 14) (size 15 to 20)
#    0.000    2.333    1.667    1.500    1.167    1.667 
#    0.000    2.500    1.833    0.000    0.000    0.000 
#    0.000    0.000    0.000    0.000    0.000    0.000 
#
# Total GULP energy -133850.927967 kJ/mol
# GULP energy per Si atom -5577.121999 kJ/mol
# Density = 1.768205 g / cm^3
# Si number density = 17.722385 Si / 1000 Ang^3
#
#
#
# Elastic Constant Matrix: (Units=GPa)
#
#
# Indices 1 2 3 4 5 6 
#
# 1 4.7510 11.9274 1.2948 0.0000 0.0000 0.0000
# 2 11.9274 139.6843 31.2133 0.0000 0.0000 0.0000
# 3 1.2948 31.2133 64.4096 0.0000 0.0000 0.0000
# 4 0.0000 0.0000 0.0000 18.1213 0.0000 0.0000
# 5 0.0000 0.0000 0.0000 0.0000 27.1938 0.0000
# 6 0.0000 0.0000 0.0000 0.0000 0.0000 17.6077
#
#
#
# Elastic Compliance Matrix: (Units=1/GPa)
#
#
# Indices 1 2 3 4 5 6 
#
# 1 0.270282 -0.024520 0.006449 0.000000 0.000000 0.000000
# 2 -0.024520 0.010253 -0.004476 0.000000 0.000000 0.000000
# 3 0.006449 -0.004476 0.017565 0.000000 0.000000 0.000000
# 4 0.000000 0.000000 0.000000 0.055184 0.000000 0.000000
# 5 0.000000 0.000000 0.000000 0.000000 0.036773 0.000000
# 6 0.000000 0.000000 0.000000 0.000000 0.000000 0.056793
#
#
# Mechanical properties :
#
#
# Convention : Reuss Voigt Hill
#
# Bulk Modulus (GPa) = 3.95246 33.07953 18.51599
# Shear Modulus (GPa) = 8.67636 23.54517 16.11076
#
# Velocity S-wave (km/s) = 2.21503 3.64889 3.01834
# Velocity P-wave (km/s) = 2.96257 6.03808 4.75580
#
# Compressibility (1/GPa) = 0.25300690
#
# Stress axis : x y z
#
# Youngs Moduli (GPa) = 3.69984 97.53389 56.93156
#
# Poissons Ratio (x) = 2.39154 -0.36717
# Poissons Ratio (y) = 0.09072 0.25481
# Poissons Ratio (z) = -0.02386 0.43653
#
# Static dielectric constant tensor:
#      x y z
#    x 1.613430 0.000000 0.000000 
#    y 0.000000 1.643300 0.000000 
#    z 0.000000 0.000000 1.566060 
# 
# From -- ./inp_files/20327.got.cif
#   From: 2010.05.17/outbox.cif.g08.bks.cpg/sg44_11_cif.got.tgz:20327.got - 2010.06.03 19:37:08.
