data_PCOD9373491
_publ_section_title
;
Structure prediction by ZEFSAII (Michael W. Deem and Ramdas Pophale) SiO2 
 PCOD9373491
Probable space group: I M M 2
;
_chemical_formula_sum "Si O2"
_cell_formula_units_Z 48
_cell_length_a 16.828759
_cell_length_b 7.466658
_cell_length_c 20.319131
_cell_angle_alpha 90.000000
_cell_angle_beta 90.000000
_cell_angle_gamma 90.000000
_cell_volume 2553.192035
_symmetry_space_group_name_H-M "I M M 2"
_symmetry_group_IT_number 44
_symmetry_cell_setting 'orthorhombic'
loop_
_space_group_symop_operation_xyz
x,y,z
-x,-y,z
-x,y,z
x,-y,z
1/2+x,1/2+y,1/2+z
1/2-x,1/2-y,1/2+z
1/2-x,1/2+y,1/2+z
1/2+x,1/2-y,1/2+z
loop_
_atom_site_type_symbol
_atom_site_label
_atom_site_fract_x
_atom_site_fract_y
_atom_site_fract_z
Si Si1 0.500000 0.288230 0.106270
Si Si2 0.500000 0.216436 0.262320
Si Si3 0.590740 0.000000 0.862002
Si Si4 0.090763 0.500000 0.203619
Si Si5 0.673832 0.716701 0.068901
Si Si6 0.283033 0.295897 0.691474
Si Si7 0.291348 0.285006 0.920196
Si Si8 0.829731 0.717169 0.811251
O O1 0.500000 0.500000 0.092459
O O2 0.500000 0.262997 0.185044
O O3 0.417074 0.218437 0.077248
O O4 0.418618 0.281197 0.296089
O O5 0.500000 0.000000 0.265934
O O6 0.637679 0.826166 0.887372
O O7 0.500000 0.000000 0.885423
O O8 0.590591 0.000000 0.783024
O O9 0.141087 0.328173 0.181706
O O10 0.000000 0.500000 0.180600
O O11 0.673809 0.500000 0.075454
O O12 0.727023 0.789618 0.127811
O O13 0.708219 0.759755 0.997268
O O14 0.306211 0.500000 0.705947
O O15 0.229769 0.226924 0.752670
O O16 0.303154 0.500000 0.913625
O O17 0.211573 0.235733 0.880126
O O18 0.832698 0.500000 0.808347
#
# Coordination Sequence:
#
# PCOD9373491 Si02
#       8
#     4   4   4   4   8   8   8   8
#     4  10  20  32  50  86 122 157 190 229 294 361
#     4  10  18  32  56  86 116 147 190 241 286 353
#     4  11  24  38  58  90 114 153 203 246 295 360
#     4  11  24  42  64  86 116 151 203 260 305 356
#     4  10  21  36  57  85 124 163 197 240 299 365
#     4  11  21  37  62  88 117 154 197 248 304 363
#     4  10  22  40  58  81 121 164 196 241 295 357
#     4   9  18  34  57  83 113 154 195 235 292 349
#
# _framework density 18.799997000000001
#
# number of rings (size 3 to 8) (size 9 to 14) (size 15 to 20)
#    0.000    1.833    4.167    0.000    2.333    0.667 
#    1.500    1.667    1.833    0.000    0.000    0.000 
#    0.000    0.000    0.000    0.000    0.000    0.000 
#
# Total GULP energy -134026.046598 kJ/mol
# GULP energy per Si atom -5584.418608 kJ/mol
# Density = 1.875721 g / cm^3
# Si number density = 18.799997 Si / 1000 Ang^3
#
#
#
# Elastic Constant Matrix: (Units=GPa)
#
#
# Indices 1 2 3 4 5 6 
#
# 1 153.8344 32.4853 55.4768 0.0000 0.0000 0.0000
# 2 32.4853 71.8634 6.6125 0.0000 0.0000 0.0000
# 3 55.4768 6.6125 110.3476 0.0000 0.0000 0.0000
# 4 0.0000 0.0000 0.0000 19.8191 0.0000 0.0000
# 5 0.0000 0.0000 0.0000 0.0000 27.5477 0.0000
# 6 0.0000 0.0000 0.0000 0.0000 0.0000 0.1305
#
#
#
# Elastic Compliance Matrix: (Units=1/GPa)
#
#
# Indices 1 2 3 4 5 6 
#
# 1 0.008768 -0.003578 -0.004194 0.000000 0.000000 0.000000
# 2 -0.003578 0.015452 0.000873 0.000000 0.000000 0.000000
# 3 -0.004194 0.000873 0.011118 0.000000 0.000000 0.000000
# 4 0.000000 0.000000 0.000000 0.050456 0.000000 0.000000
# 5 0.000000 0.000000 0.000000 0.000000 0.036301 0.000000
# 6 0.000000 0.000000 0.000000 0.000000 0.000000 7.661197
#
#
# Mechanical properties :
#
#
# Convention : Reuss Voigt Hill
#
# Bulk Modulus (GPa) = 46.42248 58.35496 52.38872
# Shear Modulus (GPa) = 0.64067 25.59753 13.11910
#
# Velocity S-wave (km/s) = 0.58440 3.69395 2.64450
# Velocity P-wave (km/s) = 5.02014 7.02146 6.10339
#
# Compressibility (1/GPa) = 0.02154129
#
# Stress axis : x y z
#
# Youngs Moduli (GPa) = 114.04507 64.71525 89.94068
#
# Poissons Ratio (x) = 0.23154 0.37720
# Poissons Ratio (y) = 0.40803 -0.07850
# Poissons Ratio (z) = 0.47829 -0.05648
#
# Static dielectric constant tensor:
#      x y z
#    x 1.635680 0.000000 0.000000 
#    y 0.000000 1.683750 0.000000 
#    z 0.000000 0.000000 1.626530 
# 
# From -- ./inp_files/21758.got.cif
#   From: 2010.05.17/outbox.cif.g08.bks.cpg/sg44_11_cif.got.tgz:21758.got - 2010.06.03 19:37:08.
