data_PCOD9373332
_publ_section_title
;
Structure prediction by ZEFSAII (Michael W. Deem and Ramdas Pophale) SiO2 
 PCOD9373332
Probable space group: I M M 2
;
_chemical_formula_sum "Si O2"
_cell_formula_units_Z 64
_cell_length_a 8.766570
_cell_length_b 23.923846
_cell_length_c 19.643627
_cell_angle_alpha 90.000000
_cell_angle_beta 90.000000
_cell_angle_gamma 90.000000
_cell_volume 4119.859278
_symmetry_space_group_name_H-M "I M M 2"
_symmetry_group_IT_number 44
_symmetry_cell_setting 'orthorhombic'
loop_
_space_group_symop_operation_xyz
x,y,z
-x,-y,z
-x,y,z
x,-y,z
1/2+x,1/2+y,1/2+z
1/2-x,1/2-y,1/2+z
1/2-x,1/2+y,1/2+z
1/2+x,1/2-y,1/2+z
loop_
_atom_site_type_symbol
_atom_site_label
_atom_site_fract_x
_atom_site_fract_y
_atom_site_fract_z
Si Si1 0.816531 0.768759 0.347370
Si Si2 0.183388 0.121468 0.998200
Si Si3 0.317567 0.753598 0.999068
Si Si4 0.817286 0.840385 0.220988
Si Si5 0.317880 0.226443 0.640116
Si Si6 0.685672 0.563438 0.356218
Si Si7 0.317138 0.665199 0.265305
Si Si8 0.317922 0.064766 0.132512
O O1 0.778317 0.774415 0.426587
O O2 0.777160 0.819726 0.296980
O O3 0.737098 0.713722 0.316994
O O4 0.000000 0.760704 0.341464
O O5 0.229228 0.089167 0.929324
O O6 0.000000 0.125905 0.000092
O O7 0.252853 0.183403 0.997957
O O8 0.240157 0.088252 0.064152
O O9 0.500000 0.755866 0.005000
O O10 0.249247 0.723500 0.064869
O O11 0.778504 0.787551 0.172093
O O12 0.735360 0.895065 0.193437
O O13 0.000000 0.848303 0.217091
O O14 0.500000 0.222913 0.638644
O O15 0.252324 0.181251 0.692592
O O16 0.500000 0.562404 0.355645
O O17 0.739973 0.500000 0.348404
O O18 0.733200 0.606240 0.297186
O O19 0.500000 0.666137 0.261192
O O20 0.500000 0.068542 0.124839
O O21 0.276320 0.000000 0.143122
#
# Coordination Sequence:
#
# PCOD9373332 Si02
#       8
#     8   8   8   8   8   8   8   8
#     4   9  19  33  49  70  99 126 155 199 246 292
#     4  11  20  32  48  69  98 134 171 201 234 282
#     4  11  20  31  50  74 100 130 161 199 247 292
#     4   9  18  33  50  68  92 126 162 198 240 288
#     4  10  20  33  49  70  98 127 160 202 246 293
#     4   9  18  31  47  69  97 130 169 206 237 278
#     4  10  18  30  49  71  95 127 166 203 242 286
#     4  11  23  35  47  68  98 131 168 208 243 280
#
# _framework density 15.534511
#
# number of rings (size 3 to 8) (size 9 to 14) (size 15 to 20)
#    0.000    2.000    2.500    3.000    0.000    4.000 
#    0.000    0.000    0.000    3.750    0.000    0.875 
#    0.000    3.000    0.000    0.000    0.000    0.000 
#
# Total GULP energy -178549.955980 kJ/mol
# GULP energy per Si atom -5579.686124 kJ/mol
# Density = 1.549915 g / cm^3
# Si number density = 15.534511 Si / 1000 Ang^3
#
#
#
# Elastic Constant Matrix: (Units=GPa)
#
#
# Indices 1 2 3 4 5 6 
#
# 1 33.6419 27.1282 45.1692 0.0000 0.0000 0.0000
# 2 27.1282 90.4038 72.7082 0.0000 0.0000 0.0000
# 3 45.1692 72.7082 154.0143 0.0000 0.0000 0.0000
# 4 0.0000 0.0000 0.0000 19.1403 0.0000 0.0000
# 5 0.0000 0.0000 0.0000 0.0000 22.3167 0.0000
# 6 0.0000 0.0000 0.0000 0.0000 0.0000 18.9234
#
#
#
# Elastic Compliance Matrix: (Units=1/GPa)
#
#
# Indices 1 2 3 4 5 6 
#
# 1 0.050521 -0.005229 -0.012348 0.000000 0.000000 0.000000
# 2 -0.005229 0.018373 -0.007140 0.000000 0.000000 0.000000
# 3 -0.012348 -0.007140 0.013485 0.000000 0.000000 0.000000
# 4 0.000000 0.000000 0.000000 0.052246 0.000000 0.000000
# 5 0.000000 0.000000 0.000000 0.000000 0.044809 0.000000
# 6 0.000000 0.000000 0.000000 0.000000 0.000000 0.052845
#
#
# Mechanical properties :
#
#
# Convention : Reuss Voigt Hill
#
# Bulk Modulus (GPa) = 30.35425 63.11902 46.73664
# Shear Modulus (GPa) = 17.08264 20.94637 19.01450
#
# Velocity S-wave (km/s) = 3.31971 3.67601 3.50239
# Velocity P-wave (km/s) = 5.85459 7.66401 6.81958
#
# Compressibility (1/GPa) = 0.03294431
#
# Stress axis : x y z
#
# Youngs Moduli (GPa) = 19.79390 54.42720 74.15575
#
# Poissons Ratio (x) = 0.28460 0.91568
# Poissons Ratio (y) = 0.10350 0.52948
# Poissons Ratio (z) = 0.24442 0.38862
#
# Static dielectric constant tensor:
#      x y z
#    x 1.521890 0.000000 0.000000 
#    y 0.000000 1.496660 0.000000 
#    z 0.000000 0.000000 1.523540 
# 
# From -- ./inp_files/23422.got.cif
#   From: 2010.05.17/outbox.cif.g08.bks.cpg/sg44_12_cif.got.tgz:23422.got - 2010.06.03 19:37:08.
