data_PCOD9373867
_publ_section_title
;
Structure prediction by ZEFSAII (Michael W. Deem and Ramdas Pophale) SiO2 
 PCOD9373867
Probable space group: I M M 2
;
_chemical_formula_sum "Si O2"
_cell_formula_units_Z 40
_cell_length_a 22.678906
_cell_length_b 11.306812
_cell_length_c 7.607391
_cell_angle_alpha 90.000000
_cell_angle_beta 90.000000
_cell_angle_gamma 90.000000
_cell_volume 1950.733807
_symmetry_space_group_name_H-M "I M M 2"
_symmetry_group_IT_number 44
_symmetry_cell_setting 'orthorhombic'
loop_
_space_group_symop_operation_xyz
x,y,z
-x,-y,z
-x,y,z
x,-y,z
1/2+x,1/2+y,1/2+z
1/2-x,1/2-y,1/2+z
1/2-x,1/2+y,1/2+z
1/2+x,1/2-y,1/2+z
loop_
_atom_site_type_symbol
_atom_site_label
_atom_site_fract_x
_atom_site_fract_y
_atom_site_fract_z
Si Si1 0.741096 0.372545 0.570760
Si Si2 0.432352 0.640616 0.733704
Si Si3 0.150974 0.233341 0.532324
Si Si4 0.569525 0.361294 0.317493
Si Si5 0.267468 0.125718 0.485155
O O1 0.717364 0.500000 0.515679
O O2 0.807336 0.347193 0.499182
O O3 0.705202 0.253989 0.524946
O O4 0.751770 0.374267 0.779171
O O5 0.500000 0.674216 0.776149
O O6 0.426594 0.500000 0.765391
O O7 0.386310 0.702820 0.860964
O O8 0.423635 0.658366 0.525878
O O9 0.107641 0.225852 0.697114
O O10 0.203024 0.138394 0.573392
O O11 0.500000 0.347082 0.277217
O O12 0.583757 0.500000 0.279264
O O13 0.295770 0.000000 0.530581
#
# Coordination Sequence:
#
# PCOD9373867 Si02
#       5
#     8   8   8   8   8
#     4   9  21  37  51  75 109 139 179 233 275 316
#     4   9  17  29  48  80 116 140 173 228 274 317
#     4  10  19  31  54  74 105 144 178 216 272 329
#     4   9  17  29  49  81 114 140 174 224 276 320
#     4   9  19  35  54  76 101 137 186 227 266 321
#
# _framework density 20.505105
#
# number of rings (size 3 to 8) (size 9 to 14) (size 15 to 20)
#    1.200    1.600    0.000    3.600    0.000    4.000 
#    0.000    2.000    0.000    2.400    0.000    2.800 
#    0.000    0.000    0.000    0.000    0.000    0.000 
#
# Total GULP energy -111380.046614 kJ/mol
# GULP energy per Si atom -5569.002331 kJ/mol
# Density = 2.045843 g / cm^3
# Si number density = 20.505105 Si / 1000 Ang^3
#
#
#
# Elastic Constant Matrix: (Units=GPa)
#
#
# Indices 1 2 3 4 5 6 
#
# 1 79.7460 6.4708 6.9498 0.0000 0.0000 0.0000
# 2 6.4708 132.1228 10.2428 0.0000 0.0000 0.0000
# 3 6.9498 10.2428 39.9280 0.0000 0.0000 0.0000
# 4 0.0000 0.0000 0.0000 -0.2012 0.0000 0.0000
# 5 0.0000 0.0000 0.0000 0.0000 37.0270 0.0000
# 6 0.0000 0.0000 0.0000 0.0000 0.0000 -7.1798
#
#
#
# Elastic Compliance Matrix: (Units=1/GPa)
#
#
# Indices 1 2 3 4 5 6 
#
# 1 0.012761 -0.000462 -0.002103 0.000000 0.000000 0.000000
# 2 -0.000462 0.007739 -0.001905 0.000000 0.000000 0.000000
# 3 -0.002103 -0.001905 0.025900 0.000000 0.000000 0.000000
# 4 0.000000 0.000000 0.000000 -4.971216 0.000000 0.000000
# 5 0.000000 0.000000 0.000000 0.000000 0.027007 0.000000
# 6 0.000000 0.000000 0.000000 0.000000 0.000000 -0.139279
#
#
# Mechanical properties :
#
#
# Convention : Reuss Voigt Hill
#
# Bulk Modulus (GPa) = 26.69484 33.23596 29.96540
# Shear Modulus (GPa) = -0.99688 21.13809 10.07061
#
# Velocity S-wave (km/s) = -0.69801 3.21420 2.21854
# Velocity P-wave (km/s) = 3.52098 5.47892 4.60521
#
# Compressibility (1/GPa) = 0.03746042
#
# Stress axis : x y z
#
# Youngs Moduli (GPa) = 78.36661 129.21538 38.61046
#
# Poissons Ratio (x) = 0.05969 0.08118
# Poissons Ratio (y) = 0.03620 0.07355
# Poissons Ratio (z) = 0.16477 0.24614
#
# Static dielectric constant tensor:
#      x y z
#    x 1.725320 0.000000 0.000000 
#    y 0.000000 1.796300 0.000000 
#    z 0.000000 0.000000 1.790520 
# 
# From -- ./inp_files/9659.got.cif
#   From: 2010.05.17/outbox.cif.g08.bks.cpg/sg44_5_cif.got.tgz:9659.got - 2010.06.03 19:37:08.
