data_PCOD9373425
_publ_section_title
;
Structure prediction by ZEFSAII (Michael W. Deem and Ramdas Pophale) SiO2 
 PCOD9373425
Probable space group: I M M 2
;
_chemical_formula_sum "Si O2"
_cell_formula_units_Z 48
_cell_length_a 20.940332
_cell_length_b 7.696985
_cell_length_c 14.979322
_cell_angle_alpha 90.000000
_cell_angle_beta 90.000000
_cell_angle_gamma 90.000000
_cell_volume 2414.328493
_symmetry_space_group_name_H-M "I M M 2"
_symmetry_group_IT_number 44
_symmetry_cell_setting 'orthorhombic'
loop_
_space_group_symop_operation_xyz
x,y,z
-x,-y,z
-x,y,z
x,-y,z
1/2+x,1/2+y,1/2+z
1/2-x,1/2-y,1/2+z
1/2-x,1/2+y,1/2+z
1/2+x,1/2-y,1/2+z
loop_
_atom_site_type_symbol
_atom_site_label
_atom_site_fract_x
_atom_site_fract_y
_atom_site_fract_z
Si Si1 0.761382 0.202002 0.164890
Si Si2 0.192806 0.787671 0.973815
Si Si3 0.383407 0.701104 0.170464
Si Si4 0.571424 0.287076 0.361640
Si Si5 0.927353 0.210340 0.477238
Si Si6 0.310910 0.204854 0.851392
O O1 0.693090 0.291908 0.178598
O O2 0.803779 0.217373 0.253192
O O3 0.745808 0.000000 0.149978
O O4 0.795708 0.267955 0.075517
O O5 0.127270 0.729587 0.928107
O O6 0.253026 0.729996 0.914116
O O7 0.192131 0.000000 0.973151
O O8 0.404092 0.500000 0.168385
O O9 0.413018 0.775208 0.261129
O O10 0.404688 0.775409 0.075021
O O11 0.500000 0.235928 0.387612
O O12 0.573564 0.500000 0.360167
O O13 0.876862 0.264701 0.402508
O O14 0.000000 0.266101 0.460307
O O15 0.926235 0.000000 0.479002
O O16 0.301386 0.000000 0.840572
#
# Coordination Sequence:
#
# PCOD9373425 Si02
#       6
#     8   8   8   8   8   8
#     4  11  21  34  53  81 112 143 181 229 277 325
#     4   9  18  32  51  77 108 139 178 225 269 322
#     4  10  18  31  54  84 113 140 175 224 277 333
#     4   9  16  29  52  80 107 137 174 218 268 321
#     4  10  21  36  55  84 118 148 183 230 282 335
#     4  11  21  37  57  79 109 147 189 231 274 329
#
# _framework density 19.881305999999999
#
# number of rings (size 3 to 8) (size 9 to 14) (size 15 to 20)
#    0.000    2.000    3.333    1.500    0.000    2.333 
#    0.000    0.833    0.000    4.500    0.000    0.000 
#    0.000    0.000    0.000    0.000    0.000    0.000 
#
# Total GULP energy -134024.852776 kJ/mol
# GULP energy per Si atom -5584.368866 kJ/mol
# Density = 1.983606 g / cm^3
# Si number density = 19.881306 Si / 1000 Ang^3
#
#
#
# Elastic Constant Matrix: (Units=GPa)
#
#
# Indices 1 2 3 4 5 6 
#
# 1 144.4096 -6.6222 70.3138 0.0000 0.0000 0.0000
# 2 -6.6222 34.7489 -0.9039 0.0000 0.0000 0.0000
# 3 70.3138 -0.9039 143.7415 0.0000 0.0000 0.0000
# 4 0.0000 0.0000 0.0000 8.5420 0.0000 0.0000
# 5 0.0000 0.0000 0.0000 0.0000 23.6561 0.0000
# 6 0.0000 0.0000 0.0000 0.0000 0.0000 14.7530
#
#
#
# Elastic Compliance Matrix: (Units=1/GPa)
#
#
# Indices 1 2 3 4 5 6 
#
# 1 0.009181 0.001633 -0.004481 0.000000 0.000000 0.000000
# 2 0.001633 0.029073 -0.000616 0.000000 0.000000 0.000000
# 3 -0.004481 -0.000616 0.009145 0.000000 0.000000 0.000000
# 4 0.000000 0.000000 0.000000 0.117069 0.000000 0.000000
# 5 0.000000 0.000000 0.000000 0.000000 0.042272 0.000000
# 6 0.000000 0.000000 0.000000 0.000000 0.000000 0.067783
#
#
# Mechanical properties :
#
#
# Convention : Reuss Voigt Hill
#
# Bulk Modulus (GPa) = 24.70859 49.83060 37.26959
# Shear Modulus (GPa) = 16.95248 26.73105 21.84176
#
# Velocity S-wave (km/s) = 2.92324 3.67076 3.31812
# Velocity P-wave (km/s) = 4.88353 6.56388 5.78504
#
# Compressibility (1/GPa) = 0.04047176
#
# Stress axis : x y z
#
# Youngs Moduli (GPa) = 108.91500 34.39610 109.34903
#
# Poissons Ratio (x) = -0.05618 0.48999
# Poissons Ratio (y) = -0.17788 0.06737
# Poissons Ratio (z) = 0.48805 0.02119
#
# Static dielectric constant tensor:
#      x y z
#    x 1.663270 0.000000 0.000000 
#    y 0.000000 1.755830 0.000000 
#    z 0.000000 0.000000 1.687540 
# 
# From -- ./inp_files/16082.got.cif
#   From: 2010.05.17/outbox.cif.g08.bks.cpg/sg44_9_cif.got.tgz:16082.got - 2010.06.03 19:37:08.
