data_PCOD9373050
_publ_section_title
;
Structure prediction by ZEFSAII (Michael W. Deem and Ramdas Pophale) SiO2 
 PCOD9373050
Probable space group: I M M 2
;
_chemical_formula_sum "Si O2"
_cell_formula_units_Z 64
_cell_length_a 7.752984
_cell_length_b 15.105769
_cell_length_c 28.767441
_cell_angle_alpha 90.000000
_cell_angle_beta 90.000000
_cell_angle_gamma 90.000000
_cell_volume 3369.092678
_symmetry_space_group_name_H-M "I M M 2"
_symmetry_group_IT_number 44
_symmetry_cell_setting 'orthorhombic'
loop_
_space_group_symop_operation_xyz
x,y,z
-x,-y,z
-x,y,z
x,-y,z
1/2+x,1/2+y,1/2+z
1/2-x,1/2-y,1/2+z
1/2-x,1/2+y,1/2+z
1/2+x,1/2-y,1/2+z
loop_
_atom_site_type_symbol
_atom_site_label
_atom_site_fract_x
_atom_site_fract_y
_atom_site_fract_z
Si Si1 0.700490 0.101574 0.057410
Si Si2 0.199561 0.767434 0.714309
Si Si3 0.710914 0.400343 0.398912
Si Si4 0.211187 0.600163 0.026069
Si Si5 0.300224 0.270719 0.477168
Si Si6 0.210864 0.900027 0.791643
Si Si7 0.708563 0.898236 0.632682
Si Si8 0.297869 0.599528 0.660671
O O1 0.500000 0.102714 0.044208
O O2 0.714160 0.126922 0.111623
O O3 0.764700 0.000000 0.053559
O O4 0.794710 0.167520 0.022853
O O5 0.275221 0.824516 0.756844
O O6 0.216595 0.830352 0.669361
O O7 0.273128 0.672611 0.700051
O O8 0.000000 0.752430 0.724870
O O9 0.500000 0.400259 0.400394
O O10 0.765014 0.500000 0.412454
O O11 0.775754 0.327078 0.434793
O O12 0.759927 0.385236 0.345308
O O13 0.263844 0.500000 0.014607
O O14 0.261689 0.619450 0.079463
O O15 0.000000 0.601670 0.025880
O O16 0.275945 0.676488 0.992024
O O17 0.500000 0.254253 0.464965
O O18 0.000000 0.900049 0.789867
O O19 0.265246 0.000000 0.778094
O O20 0.500000 0.891734 0.634641
O O21 0.755750 0.000000 0.643731
O O22 0.500000 0.594867 0.650678
O O23 0.236301 0.500000 0.672598
#
# Coordination Sequence:
#
# PCOD9373050 Si02
#       8
#     8   8   8   8   8   8   8   8
#     4  10  20  32  46  68  99 127 149 182 231 281
#     4  11  20  29  47  71  93 119 153 196 245 290
#     4   8  14  25  42  66  94 121 153 192 229 271
#     4   8  15  27  41  60  88 119 148 182 225 265
#     4  10  17  26  47  72  91 120 162 199 229 269
#     4   8  15  28  44  65  96 128 153 183 229 282
#     4   9  17  29  44  63  92 128 160 190 228 279
#     4  10  21  36  51  66  89 123 160 194 228 275
#
# _framework density 18.996213999999998
#
# number of rings (size 3 to 8) (size 9 to 14) (size 15 to 20)
#    0.000    2.750    0.000    4.125    0.000    3.750 
#    0.000    0.000    0.000    3.375    0.000    8.750 
#    0.000    0.000    0.000    0.000    0.000    0.000 
#
# Total GULP energy -178512.759630 kJ/mol
# GULP energy per Si atom -5578.523738 kJ/mol
# Density = 1.895298 g / cm^3
# Si number density = 18.996214 Si / 1000 Ang^3
#
#
#
# Elastic Constant Matrix: (Units=GPa)
#
#
# Indices 1 2 3 4 5 6 
#
# 1 27.9312 -2.8296 -3.8907 0.0000 0.0000 0.0000
# 2 -2.8296 110.6016 78.7512 0.0000 0.0000 0.0000
# 3 -3.8907 78.7512 88.4994 0.0000 0.0000 0.0000
# 4 0.0000 0.0000 0.0000 34.0434 0.0000 0.0000
# 5 0.0000 0.0000 0.0000 0.0000 9.1585 0.0000
# 6 0.0000 0.0000 0.0000 0.0000 0.0000 6.9868
#
#
#
# Elastic Compliance Matrix: (Units=1/GPa)
#
#
# Indices 1 2 3 4 5 6 
#
# 1 0.036036 -0.000562 0.002085 0.000000 0.000000 0.000000
# 2 -0.000562 0.024685 -0.021991 0.000000 0.000000 0.000000
# 3 0.002085 -0.021991 0.030959 0.000000 0.000000 0.000000
# 4 0.000000 0.000000 0.000000 0.029374 0.000000 0.000000
# 5 0.000000 0.000000 0.000000 0.000000 0.109188 0.000000
# 6 0.000000 0.000000 0.000000 0.000000 0.000000 0.143126
#
#
# Mechanical properties :
#
#
# Convention : Reuss Voigt Hill
#
# Bulk Modulus (GPa) = 19.70699 41.23265 30.46982
# Shear Modulus (GPa) = 11.59502 20.37118 15.98310
#
# Velocity S-wave (km/s) = 2.47328 3.27828 2.90381
# Velocity P-wave (km/s) = 4.30730 6.00685 5.22662
#
# Compressibility (1/GPa) = 0.05074341
#
# Stress axis : x y z
#
# Youngs Moduli (GPa) = 27.75032 40.51051 32.30027
#
# Poissons Ratio (x) = 0.02279 -0.06734
# Poissons Ratio (y) = 0.01561 0.71030
# Poissons Ratio (z) = -0.05785 0.89085
#
# Static dielectric constant tensor:
#      x y z
#    x 1.716100 0.000000 0.000000 
#    y 0.000000 1.678360 0.000000 
#    z 0.000000 0.000000 1.644980 
# 
# From -- ./inp_files/27309.got.cif
#   From: 2010.05.17/outbox.cif.g08.bks.cpg/sg44_14_cif.got.tgz:27309.got - 2010.06.03 19:37:08.
