data_PCOD9373503
_publ_section_title
;
Structure prediction by ZEFSAII (Michael W. Deem and Ramdas Pophale) SiO2 
 PCOD9373503
Probable space group: I M M 2
;
_chemical_formula_sum "Si O2"
_cell_formula_units_Z 64
_cell_length_a 23.267209
_cell_length_b 18.920002
_cell_length_c 8.732275
_cell_angle_alpha 90.000000
_cell_angle_beta 90.000000
_cell_angle_gamma 90.000000
_cell_volume 3844.084035
_symmetry_space_group_name_H-M "I M M 2"
_symmetry_group_IT_number 44
_symmetry_cell_setting 'orthorhombic'
loop_
_space_group_symop_operation_xyz
x,y,z
-x,-y,z
-x,y,z
x,-y,z
1/2+x,1/2+y,1/2+z
1/2-x,1/2-y,1/2+z
1/2-x,1/2+y,1/2+z
1/2+x,1/2-y,1/2+z
loop_
_atom_site_type_symbol
_atom_site_label
_atom_site_fract_x
_atom_site_fract_y
_atom_site_fract_z
Si Si1 0.666424 0.860657 0.223210
Si Si2 0.672884 0.279139 0.672966
Si Si3 0.288046 0.581478 0.786024
Si Si4 0.135329 0.417978 0.048338
Si Si5 0.563694 0.180565 0.725229
Si Si6 0.564695 0.081726 0.018330
Si Si7 0.760818 0.080985 0.650021
Si Si8 0.787738 0.220113 0.817062
O O1 0.728202 0.897983 0.201143
O O2 0.651214 0.876038 0.397865
O O3 0.674977 0.776170 0.217134
O O4 0.616782 0.896624 0.126703
O O5 0.667812 0.360523 0.724854
O O6 0.614350 0.236344 0.697483
O O7 0.722683 0.246663 0.782810
O O8 0.694783 0.275215 0.495940
O O9 0.302332 0.500000 0.757949
O O10 0.276927 0.589563 0.969470
O O11 0.130127 0.500000 0.012345
O O12 0.078233 0.384437 0.113546
O O13 0.191234 0.410226 0.158133
O O14 0.500000 0.209705 0.701090
O O15 0.566188 0.141049 0.887489
O O16 0.500000 0.084279 0.087359
O O17 0.572556 0.000000 0.963804
O O18 0.790195 0.140959 0.751522
O O19 0.774315 0.000000 0.692892
#
# Coordination Sequence:
#
# PCOD9373503 Si02
#       8
#     8   8   8   8   8   8   8   8
#     4  10  19  32  53  78 111 139 175 221 267 311
#     4  11  22  35  55  81 107 140 183 222 274 320
#     4   9  19  33  54  82 111 138 168 220 278 329
#     4  10  18  33  53  74 105 144 182 213 254 307
#     4  11  23  38  52  74 108 145 186 222 258 312
#     4  10  22  37  52  75 107 146 190 226 256 301
#     4   9  18  33  53  82 113 137 169 215 272 326
#     4  11  20  34  53  81 108 143 176 221 272 323
#
# _framework density 16.648959999999999
#
# number of rings (size 3 to 8) (size 9 to 14) (size 15 to 20)
#    0.000    1.875    2.500    3.750    5.250    1.750 
#    0.000    0.000    0.000    0.375    0.000    0.000 
#    0.000    0.500    0.000    0.000    0.000    0.000 
#
# Total GULP energy -178312.675148 kJ/mol
# GULP energy per Si atom -5572.271098 kJ/mol
# Density = 1.661107 g / cm^3
# Si number density = 16.648960 Si / 1000 Ang^3
#
#
#
# Elastic Constant Matrix: (Units=GPa)
#
#
# Indices 1 2 3 4 5 6 
#
# 1 76.8864 54.1552 29.6001 0.0000 0.0000 0.0000
# 2 54.1552 138.7477 42.8718 0.0000 0.0000 0.0000
# 3 29.6001 42.8718 32.1037 0.0000 0.0000 0.0000
# 4 0.0000 0.0000 0.0000 26.8487 0.0000 0.0000
# 5 0.0000 0.0000 0.0000 0.0000 19.8269 0.0000
# 6 0.0000 0.0000 0.0000 0.0000 0.0000 27.4773
#
#
#
# Elastic Compliance Matrix: (Units=1/GPa)
#
#
# Indices 1 2 3 4 5 6 
#
# 1 0.021290 -0.003821 -0.014527 0.000000 0.000000 0.000000
# 2 -0.003821 0.012956 -0.013779 0.000000 0.000000 0.000000
# 3 -0.014527 -0.013779 0.062944 0.000000 0.000000 0.000000
# 4 0.000000 0.000000 0.000000 0.037246 0.000000 0.000000
# 5 0.000000 0.000000 0.000000 0.000000 0.050436 0.000000
# 6 0.000000 0.000000 0.000000 0.000000 0.000000 0.036394
#
#
# Mechanical properties :
#
#
# Convention : Reuss Voigt Hill
#
# Bulk Modulus (GPa) = 30.36185 55.66580 43.01383
# Shear Modulus (GPa) = 16.86339 22.90463 19.88401
#
# Velocity S-wave (km/s) = 3.18603 3.71312 3.45963
# Velocity P-wave (km/s) = 5.64008 7.20351 6.46920
#
# Compressibility (1/GPa) = 0.03293607
#
# Stress axis : x y z
#
# Youngs Moduli (GPa) = 46.96945 77.18220 15.88711
#
# Poissons Ratio (x) = 0.29493 0.23080
# Poissons Ratio (y) = 0.17948 0.21891
# Poissons Ratio (z) = 0.68234 1.06349
#
# Static dielectric constant tensor:
#      x y z
#    x 1.552050 0.000000 0.000000 
#    y 0.000000 1.585530 0.000000 
#    z 0.000000 0.000000 1.611980 
# 
# From -- ./inp_files/9046.got.cif
#   From: 2010.05.17/outbox.cif.g08.bks.cpg/sg44_5_cif.got.tgz:9046.got - 2010.06.03 19:37:08.
