data_PCOD9373507
_publ_section_title
;
Structure prediction by ZEFSAII (Michael W. Deem and Ramdas Pophale) SiO2 
 PCOD9373507
Probable space group: I M M 2
;
_chemical_formula_sum "Si O2"
_cell_formula_units_Z 64
_cell_length_a 14.937070
_cell_length_b 19.779849
_cell_length_c 11.468975
_cell_angle_alpha 90.000000
_cell_angle_beta 90.000000
_cell_angle_gamma 90.000000
_cell_volume 3388.542946
_symmetry_space_group_name_H-M "I M M 2"
_symmetry_group_IT_number 44
_symmetry_cell_setting 'orthorhombic'
loop_
_space_group_symop_operation_xyz
x,y,z
-x,-y,z
-x,y,z
x,-y,z
1/2+x,1/2+y,1/2+z
1/2-x,1/2-y,1/2+z
1/2-x,1/2+y,1/2+z
1/2+x,1/2-y,1/2+z
loop_
_atom_site_type_symbol
_atom_site_label
_atom_site_fract_x
_atom_site_fract_y
_atom_site_fract_z
Si Si1 0.106672 0.581148 0.159880
Si Si2 0.647205 0.424440 0.778816
Si Si3 0.103347 0.785478 0.656265
Si Si4 0.157188 0.577897 0.897294
Si Si5 0.233595 0.672231 0.320952
Si Si6 0.733279 0.425068 0.530709
Si Si7 0.902113 0.626353 0.658683
Si Si8 0.099260 0.790514 0.394712
O O1 0.120157 0.500000 0.173589
O O2 0.165821 0.622817 0.251409
O O3 0.000000 0.594291 0.170394
O O4 0.139498 0.600487 0.029017
O O5 0.609980 0.500000 0.800282
O O6 0.740344 0.420804 0.852722
O O7 0.667320 0.418791 0.640893
O O8 0.597549 0.357349 0.816881
O O9 0.180728 0.809366 0.742259
O O10 0.113537 0.705143 0.635546
O O11 0.115005 0.815172 0.527093
O O12 0.000000 0.797515 0.695286
O O13 0.126592 0.500000 0.891648
O O14 0.105363 0.617923 0.797614
O O15 0.269049 0.632883 0.434703
O O16 0.176265 0.738720 0.355291
O O17 0.722910 0.500000 0.479006
O O18 0.829176 0.417951 0.593878
O O19 0.000000 0.607037 0.617727
O O20 0.000000 0.757673 0.392341
#
# Coordination Sequence:
#
# PCOD9373507 Si02
#       8
#     8   8   8   8   8   8   8   8
#     4  10  21  35  52  82 122 160 199 243 295 361
#     4   9  19  38  61  84 112 148 200 253 299 346
#     4  10  23  41  60  85 117 154 202 252 297 354
#     4   9  17  31  53  80 111 151 198 246 294 345
#     4  12  22  37  62  83 121 164 195 239 301 362
#     4  10  21  36  57  87 117 154 198 236 291 363
#     4  10  18  33  54  81 114 149 192 247 301 348
#     4  11  23  39  61  90 120 152 199 251 301 356
#
# _framework density 18.887174000000002
#
# number of rings (size 3 to 8) (size 9 to 14) (size 15 to 20)
#    0.000    1.875    1.250    4.500    0.000    2.250 
#    0.000    1.250    0.000    3.750    0.000    0.000 
#    0.000    0.000    0.000    0.000    0.000    0.000 
#
# Total GULP energy -178506.827236 kJ/mol
# GULP energy per Si atom -5578.338351 kJ/mol
# Density = 1.884419 g / cm^3
# Si number density = 18.887174 Si / 1000 Ang^3
#
#
#
# Elastic Constant Matrix: (Units=GPa)
#
#
# Indices 1 2 3 4 5 6 
#
# 1 97.5885 35.8745 39.9680 0.0000 0.0000 0.0000
# 2 35.8745 76.6069 35.7766 0.0000 0.0000 0.0000
# 3 39.9680 35.7766 78.8190 0.0000 0.0000 0.0000
# 4 0.0000 0.0000 0.0000 30.2931 0.0000 0.0000
# 5 0.0000 0.0000 0.0000 0.0000 17.0673 0.0000
# 6 0.0000 0.0000 0.0000 0.0000 0.0000 19.6322
#
#
#
# Elastic Compliance Matrix: (Units=1/GPa)
#
#
# Indices 1 2 3 4 5 6 
#
# 1 0.013867 -0.004073 -0.005183 0.000000 0.000000 0.000000
# 2 -0.004073 0.017762 -0.005997 0.000000 0.000000 0.000000
# 3 -0.005183 -0.005997 0.018037 0.000000 0.000000 0.000000
# 4 0.000000 0.000000 0.000000 0.033011 0.000000 0.000000
# 5 0.000000 0.000000 0.000000 0.000000 0.058592 0.000000
# 6 0.000000 0.000000 0.000000 0.000000 0.000000 0.050937
#
#
# Mechanical properties :
#
#
# Convention : Reuss Voigt Hill
#
# Bulk Modulus (GPa) = 52.19090 52.91696 52.55393
# Shear Modulus (GPa) = 21.82471 22.82488 22.32480
#
# Velocity S-wave (km/s) = 3.40300 3.48010 3.44176
# Velocity P-wave (km/s) = 6.56761 6.65029 6.60908
#
# Compressibility (1/GPa) = 0.01916043
#
# Stress axis : x y z
#
# Youngs Moduli (GPa) = 72.11238 56.30080 55.44042
#
# Poissons Ratio (x) = 0.22934 0.28734
# Poissons Ratio (y) = 0.29375 0.33245
# Poissons Ratio (z) = 0.37375 0.33761
#
# Static dielectric constant tensor:
#      x y z
#    x 1.674430 0.000000 0.000000 
#    y 0.000000 1.652510 0.000000 
#    z 0.000000 0.000000 1.662940 
# 
# From -- ./inp_files/13458.got.cif
#   From: 2010.05.17/outbox.cif.g08.bks.cpg/sg44_7_cif.got.tgz:13458.got - 2010.06.03 19:37:08.
