data_PCOD9373583
_publ_section_title
;
Structure prediction by ZEFSAII (Michael W. Deem and Ramdas Pophale) SiO2 
 PCOD9373583
Probable space group: I M M 2
;
_chemical_formula_sum "Si O2"
_cell_formula_units_Z 64
_cell_length_a 7.442619
_cell_length_b 19.542291
_cell_length_c 22.432800
_cell_angle_alpha 90.000000
_cell_angle_beta 90.000000
_cell_angle_gamma 90.000000
_cell_volume 3262.757132
_symmetry_space_group_name_H-M "I M M 2"
_symmetry_group_IT_number 44
_symmetry_cell_setting 'orthorhombic'
loop_
_space_group_symop_operation_xyz
x,y,z
-x,-y,z
-x,y,z
x,-y,z
1/2+x,1/2+y,1/2+z
1/2-x,1/2-y,1/2+z
1/2-x,1/2+y,1/2+z
1/2+x,1/2-y,1/2+z
loop_
_atom_site_type_symbol
_atom_site_label
_atom_site_fract_x
_atom_site_fract_y
_atom_site_fract_z
Si Si1 0.718850 0.924677 0.641920
Si Si2 0.280599 0.277175 0.720745
Si Si3 0.779801 0.280752 0.092154
Si Si4 0.219212 0.368170 0.269460
Si Si5 0.791547 0.925362 0.232272
Si Si6 0.285402 0.924044 0.092803
Si Si7 0.197941 0.816474 0.996431
Si Si8 0.712799 0.076032 0.895179
O O1 0.500000 0.924386 0.641162
O O2 0.774920 0.858980 0.603590
O O3 0.772286 0.909582 0.710319
O O4 0.778803 0.000000 0.623100
O O5 0.500000 0.279860 0.719858
O O6 0.225765 0.261475 0.651986
O O7 0.227854 0.210727 0.758649
O O8 0.215897 0.350020 0.746337
O O9 0.713774 0.247957 0.030223
O O10 0.000000 0.278342 0.091125
O O11 0.284593 0.400302 0.330929
O O12 0.000000 0.368753 0.270349
O O13 0.782591 0.923880 0.160217
O O14 0.000000 0.926084 0.250873
O O15 0.713462 0.000000 0.250026
O O16 0.500000 0.912355 0.093134
O O17 0.193833 0.869025 0.051742
O O18 0.254549 0.000000 0.068024
O O19 0.000000 0.794574 0.977531
O O20 0.267714 0.863286 0.943033
O O21 0.500000 0.068773 0.888021
O O22 0.781857 0.000000 0.912355
#
# Coordination Sequence:
#
# PCOD9373583 Si02
#       8
#     8   8   8   8   8   8   8   8
#     4   8  12  20  38  64  89 108 128 165 219 264
#     4   8  12  22  39  60  83 107 137 173 211 251
#     4   8  14  23  36  58  84 107 135 171 208 251
#     4   8  14  24  41  62  85 111 138 173 217 254
#     4   9  15  23  38  60  85 112 139 167 205 254
#     4  10  19  28  38  55  81 112 144 177 208 241
#     4  11  20  30  43  58  82 117 149 175 209 253
#     4  10  20  32  44  62  87 113 147 187 217 246
#
# _framework density 19.615310999999998
#
# number of rings (size 3 to 8) (size 9 to 14) (size 15 to 20)
#    0.000    3.000    1.250    3.000    0.000    4.000 
#    0.000    0.000    0.000    0.750    0.000    0.875 
#    0.000    3.000    0.000    0.000    0.000    0.125 
#
# Total GULP energy -178213.743098 kJ/mol
# GULP energy per Si atom -5569.179472 kJ/mol
# Density = 1.957067 g / cm^3
# Si number density = 19.615311 Si / 1000 Ang^3
#
#
#
# Elastic Constant Matrix: (Units=GPa)
#
#
# Indices 1 2 3 4 5 6 
#
# 1 56.8033 9.9080 3.9477 0.0000 0.0000 0.0000
# 2 9.9080 173.9357 48.8589 0.0000 0.0000 0.0000
# 3 3.9477 48.8589 75.7035 0.0000 0.0000 0.0000
# 4 0.0000 0.0000 0.0000 16.4554 0.0000 0.0000
# 5 0.0000 0.0000 0.0000 0.0000 4.6421 0.0000
# 6 0.0000 0.0000 0.0000 0.0000 0.0000 -4.2105
#
#
#
# Elastic Compliance Matrix: (Units=1/GPa)
#
#
# Indices 1 2 3 4 5 6 
#
# 1 0.017788 -0.000919 -0.000334 0.000000 0.000000 0.000000
# 2 -0.000919 0.007070 -0.004515 0.000000 0.000000 0.000000
# 3 -0.000334 -0.004515 0.016141 0.000000 0.000000 0.000000
# 4 0.000000 0.000000 0.000000 0.060770 0.000000 0.000000
# 5 0.000000 0.000000 0.000000 0.000000 0.215418 0.000000
# 6 0.000000 0.000000 0.000000 0.000000 0.000000 -0.237499
#
#
# Mechanical properties :
#
#
# Convention : Reuss Voigt Hill
#
# Bulk Modulus (GPa) = 33.94231 47.98574 40.96402
# Shear Modulus (GPa) = 49.48252 19.62593 34.55422
#
# Velocity S-wave (km/s) = 5.02805 3.16657 4.20169
# Velocity P-wave (km/s) = 7.14492 6.15516 6.66843
#
# Compressibility (1/GPa) = 0.02946175
#
# Stress axis : x y z
#
# Youngs Moduli (GPa) = 56.21706 141.44507 61.95482
#
# Poissons Ratio (x) = 0.13004 0.02071
# Poissons Ratio (y) = 0.05169 0.27972
# Poissons Ratio (z) = 0.01879 0.63862
#
# Static dielectric constant tensor:
#      x y z
#    x 1.756810 0.000000 0.000000 
#    y 0.000000 1.767940 0.000000 
#    z 0.000000 0.000000 1.654000 
# 
# From -- ./inp_files/23406.got.cif
#   From: 2010.05.17/outbox.cif.g08.bks.cpg/sg44_12_cif.got.tgz:23406.got - 2010.06.03 19:37:08.
