data_PCOD9373888
_publ_section_title
;
Structure prediction by ZEFSAII (Michael W. Deem and Ramdas Pophale) SiO2 
 PCOD9373888
Probable space group: I M M 2
;
_chemical_formula_sum "Si O2"
_cell_formula_units_Z 64
_cell_length_a 8.683311
_cell_length_b 16.118305
_cell_length_c 23.670008
_cell_angle_alpha 90.000000
_cell_angle_beta 90.000000
_cell_angle_gamma 90.000000
_cell_volume 3312.860358
_symmetry_space_group_name_H-M "I M M 2"
_symmetry_group_IT_number 44
_symmetry_cell_setting 'orthorhombic'
loop_
_space_group_symop_operation_xyz
x,y,z
-x,-y,z
-x,y,z
x,-y,z
1/2+x,1/2+y,1/2+z
1/2-x,1/2-y,1/2+z
1/2-x,1/2+y,1/2+z
1/2+x,1/2-y,1/2+z
loop_
_atom_site_type_symbol
_atom_site_label
_atom_site_fract_x
_atom_site_fract_y
_atom_site_fract_z
Si Si1 0.816618 0.149640 0.891120
Si Si2 0.168500 0.597785 0.952130
Si Si3 0.814836 0.763908 0.230403
Si Si4 0.814273 0.232359 0.106233
Si Si5 0.818351 0.179993 0.350328
Si Si6 0.681117 0.403758 0.067804
Si Si7 0.683105 0.589763 0.266801
Si Si8 0.687297 0.593370 0.516937
O O1 0.717693 0.231138 0.878648
O O2 0.796207 0.094941 0.834794
O O3 0.000000 0.170462 0.893344
O O4 0.774181 0.110684 0.951254
O O5 0.153125 0.500000 0.956120
O O6 0.228467 0.618335 0.890504
O O7 0.000000 0.637050 0.962789
O O8 0.285341 0.618957 0.002184
O O9 0.764921 0.795201 0.169133
O O10 0.761543 0.813927 0.285767
O O11 0.762431 0.669203 0.239777
O O12 0.000000 0.765492 0.232036
O O13 0.760882 0.327623 0.099549
O O14 0.759361 0.167903 0.058053
O O15 0.000000 0.232426 0.103847
O O16 0.000000 0.162848 0.351063
O O17 0.500000 0.402583 0.079331
O O18 0.734444 0.500000 0.077915
O O19 0.500000 0.595496 0.256145
O O20 0.738226 0.500000 0.246159
O O21 0.500000 0.593233 0.519726
O O22 0.738636 0.500000 0.532775
#
# Coordination Sequence:
#
# PCOD9373888 Si02
#       8
#     8   8   8   8   8   8   8   8
#     4   9  16  28  49  75 100 125 156 199 253 310
#     4  10  20  34  53  77 103 130 164 208 259 317
#     4   9  20  35  48  68  99 135 174 212 252 299
#     4  10  20  35  54  75 103 140 180 219 257 302
#     4  10  19  32  50  72 101 134 168 209 256 305
#     4  10  21  36  55  81 111 140 171 211 262 319
#     4   9  17  29  47  72  99 126 159 202 252 306
#     4   9  17  30  51  77 100 125 163 210 255 300
#
# _framework density 19.318652
#
# number of rings (size 3 to 8) (size 9 to 14) (size 15 to 20)
#    0.000    2.500    0.000    2.250    0.000    5.750 
#    0.000    3.125    0.000    4.500    0.000    0.000 
#    0.000    0.000    0.000    0.000    0.000    0.000 
#
# Total GULP energy -178325.491399 kJ/mol
# GULP energy per Si atom -5572.671606 kJ/mol
# Density = 1.927468 g / cm^3
# Si number density = 19.318652 Si / 1000 Ang^3
#
#
#
# Elastic Constant Matrix: (Units=GPa)
#
#
# Indices 1 2 3 4 5 6 
#
# 1 7.4570 4.7828 3.6344 0.0000 0.0000 0.0000
# 2 4.7828 37.7271 23.6023 0.0000 0.0000 0.0000
# 3 3.6344 23.6023 86.0035 0.0000 0.0000 0.0000
# 4 0.0000 0.0000 0.0000 11.9658 0.0000 0.0000
# 5 0.0000 0.0000 0.0000 0.0000 17.2460 0.0000
# 6 0.0000 0.0000 0.0000 0.0000 0.0000 16.0197
#
#
#
# Elastic Compliance Matrix: (Units=1/GPa)
#
#
# Indices 1 2 3 4 5 6 
#
# 1 0.146094 -0.017697 -0.001317 0.000000 0.000000 0.000000
# 2 -0.017697 0.034144 -0.008622 0.000000 0.000000 0.000000
# 3 -0.001317 -0.008622 0.014049 0.000000 0.000000 0.000000
# 4 0.000000 0.000000 0.000000 0.083572 0.000000 0.000000
# 5 0.000000 0.000000 0.000000 0.000000 0.057985 0.000000
# 6 0.000000 0.000000 0.000000 0.000000 0.000000 0.062423
#
#
# Mechanical properties :
#
#
# Convention : Reuss Voigt Hill
#
# Bulk Modulus (GPa) = 7.19350 21.69185 14.44267
# Shear Modulus (GPa) = 10.00244 15.65751 12.82998
#
# Velocity S-wave (km/s) = 2.27790 2.84999 2.57986
# Velocity P-wave (km/s) = 3.26346 4.69923 4.04555
#
# Compressibility (1/GPa) = 0.13901445
#
# Stress axis : x y z
#
# Youngs Moduli (GPa) = 6.84490 29.28784 71.17764
#
# Poissons Ratio (x) = 0.51831 0.09375
# Poissons Ratio (y) = 0.12113 0.61372
# Poissons Ratio (z) = 0.00902 0.25253
#
# Static dielectric constant tensor:
#      x y z
#    x 1.668910 0.000000 0.000000 
#    y 0.000000 1.716580 0.000000 
#    z 0.000000 0.000000 1.702620 
# 
# From -- ./inp_files/23300.got.cif
#   From: 2010.05.17/outbox.cif.g08.bks.cpg/sg44_12_cif.got.tgz:23300.got - 2010.06.03 19:37:08.
