data_PCOD9373053
_publ_section_title
;
Structure prediction by ZEFSAII (Michael W. Deem and Ramdas Pophale) SiO2 
 PCOD9373053
Probable space group: I M M 2
;
_chemical_formula_sum "Si O2"
_cell_formula_units_Z 56
_cell_length_a 8.459368
_cell_length_b 22.918024
_cell_length_c 18.484300
_cell_angle_alpha 90.000000
_cell_angle_beta 90.000000
_cell_angle_gamma 90.000000
_cell_volume 3583.588188
_symmetry_space_group_name_H-M "I M M 2"
_symmetry_group_IT_number 44
_symmetry_cell_setting 'orthorhombic'
loop_
_space_group_symop_operation_xyz
x,y,z
-x,-y,z
-x,y,z
x,-y,z
1/2+x,1/2+y,1/2+z
1/2-x,1/2-y,1/2+z
1/2-x,1/2+y,1/2+z
1/2+x,1/2-y,1/2+z
loop_
_atom_site_type_symbol
_atom_site_label
_atom_site_fract_x
_atom_site_fract_y
_atom_site_fract_z
Si Si1 0.808392 0.067335 0.248280
Si Si2 0.311924 0.222578 0.823462
Si Si3 0.685744 0.307523 0.014466
Si Si4 0.313675 0.682615 0.467365
Si Si5 0.807771 0.150931 0.120053
Si Si6 0.312661 0.848955 0.372685
Si Si7 0.809501 0.283535 0.161813
O O1 0.755060 0.102070 0.176335
O O2 0.746046 0.102045 0.317626
O O3 0.000000 0.069473 0.249600
O O4 0.759429 0.000000 0.247558
O O5 0.500000 0.231934 0.822680
O O6 0.268495 0.180121 0.889651
O O7 0.235368 0.285675 0.839871
O O8 0.264200 0.201231 0.743812
O O9 0.500000 0.294661 0.009093
O O10 0.731719 0.320049 0.097106
O O11 0.783381 0.249104 0.994001
O O12 0.732854 0.352484 0.951838
O O13 0.500000 0.673433 0.457769
O O14 0.255443 0.645482 0.536433
O O15 0.763779 0.215359 0.149229
O O16 0.000000 0.150127 0.118527
O O17 0.500000 0.851087 0.380676
O O18 0.000000 0.287322 0.155027
#
# Coordination Sequence:
#
# PCOD9373053 Si02
#       7
#     8   8   8   8   8   8   8
#     4  10  19  32  49  65  82 112 155 192 223 258
#     4  10  17  27  43  62  86 114 146 177 211 258
#     4  10  18  27  41  60  82 108 145 177 209 258
#     4   9  16  26  39  57  83 112 142 172 213 259
#     4   8  14  27  42  57  80 111 141 175 218 255
#     4  11  20  30  43  59  85 115 146 180 222 261
#     4   9  16  27  42  59  86 114 139 172 214 260
#
# _framework density 15.626797
#
# number of rings (size 3 to 8) (size 9 to 14) (size 15 to 20)
#    0.000    2.429    1.429    6.000    0.000    1.429 
#    0.000    0.714    0.000    0.000    0.000    0.000 
#    0.000    1.143    0.000   10.571    0.000    2.857 
#
# Total GULP energy -155944.474554 kJ/mol
# GULP energy per Si atom -5569.445520 kJ/mol
# Density = 1.559123 g / cm^3
# Si number density = 15.626797 Si / 1000 Ang^3
#
#
#
# Elastic Constant Matrix: (Units=GPa)
#
#
# Indices 1 2 3 4 5 6 
#
# 1 24.5555 7.3467 18.7401 0.0000 0.0000 0.0000
# 2 7.3467 46.3142 43.2926 0.0000 0.0000 -0.0001
# 3 18.7401 43.2926 170.9713 0.0000 0.0000 -0.0001
# 4 0.0000 0.0000 0.0000 13.6563 0.0000 -0.0001
# 5 0.0000 0.0000 0.0000 0.0000 26.4597 0.0000
# 6 0.0000 -0.0001 -0.0001 -0.0001 0.0000 284.5023
#
#
#
# Elastic Compliance Matrix: (Units=1/GPa)
#
#
# Indices 1 2 3 4 5 6 
#
# 1 0.044823 -0.003298 -0.004078 0.000000 0.000000 0.000000
# 2 -0.003298 0.028530 -0.006863 0.000000 0.000000 0.000000
# 3 -0.004078 -0.006863 0.008034 0.000000 0.000000 0.000000
# 4 0.000000 0.000000 0.000000 0.073226 0.000000 0.000000
# 5 0.000000 0.000000 0.000000 0.000000 0.037793 0.000000
# 6 0.000000 0.000000 0.000000 0.000000 0.000000 0.003515
#
#
# Mechanical properties :
#
#
# Convention : Reuss Voigt Hill
#
# Bulk Modulus (GPa) = 18.90048 42.28887 30.59467
# Shear Modulus (GPa) = 20.65816 76.42109 48.53963
#
# Velocity S-wave (km/s) = 3.63984 7.00072 5.57936
# Velocity P-wave (km/s) = 5.45763 9.61599 7.81834
#
# Compressibility (1/GPa) = 0.05290872
#
# Stress axis : x y z
#
# Youngs Moduli (GPa) = 22.30997 35.05104 124.47659
#
# Poissons Ratio (x) = 0.11561 0.50759
# Poissons Ratio (y) = 0.07359 0.85424
# Poissons Ratio (z) = 0.09098 0.24054
#
# Static dielectric constant tensor:
#      x y z
#    x 1.530170 0.000000 0.000000 
#    y 0.000000 1.481080 0.000000 
#    z 0.000000 0.000000 1.587490 
# 
# From -- ./inp_files/20671.got.cif
#   From: 2010.05.17/outbox.cif.g08.bks.cpg/sg44_11_cif.got.tgz:20671.got - 2010.06.03 19:37:08.
