data_PCOD9373621
_publ_section_title
;
Structure prediction by ZEFSAII (Michael W. Deem and Ramdas Pophale) SiO2 
 PCOD9373621
Probable space group: I M M 2
;
_chemical_formula_sum "Si O2"
_cell_formula_units_Z 48
_cell_length_a 7.325162
_cell_length_b 34.185856
_cell_length_c 7.146542
_cell_angle_alpha 90.000000
_cell_angle_beta 90.000000
_cell_angle_gamma 90.000000
_cell_volume 1789.615131
_symmetry_space_group_name_H-M "I M M 2"
_symmetry_group_IT_number 44
_symmetry_cell_setting 'orthorhombic'
loop_
_space_group_symop_operation_xyz
x,y,z
-x,-y,z
-x,y,z
x,-y,z
1/2+x,1/2+y,1/2+z
1/2-x,1/2-y,1/2+z
1/2-x,1/2+y,1/2+z
1/2+x,1/2-y,1/2+z
loop_
_atom_site_type_symbol
_atom_site_label
_atom_site_fract_x
_atom_site_fract_y
_atom_site_fract_z
Si Si1 0.281789 0.459020 0.634500
Si Si2 0.717217 0.211301 0.425051
Si Si3 0.282010 0.456295 0.085270
Si Si4 0.203934 0.797662 0.002704
Si Si5 0.776118 0.876591 0.097027
Si Si6 0.281320 0.629371 0.034857
O O1 0.500000 0.459436 0.604358
O O2 0.206173 0.500000 0.568220
O O3 0.259549 0.457228 0.858763
O O4 0.213943 0.419626 0.542524
O O5 0.500000 0.213964 0.399473
O O6 0.807538 0.201241 0.228574
O O7 0.786406 0.255061 0.468617
O O8 0.743419 0.175711 0.571103
O O9 0.500000 0.456521 0.127102
O O10 0.215442 0.500000 0.146847
O O11 0.216448 0.411523 0.128811
O O12 0.289983 0.840341 0.973430
O O13 0.000000 0.797628 0.921171
O O14 0.722825 0.873394 0.315708
O O15 0.000000 0.875538 0.089054
O O16 0.500000 0.626555 0.043220
#
# Coordination Sequence:
#
# PCOD9373621 Si02
#       6
#     8   8   8   8   8   8
#     4   7   8  10  20  41  66  89 114 144 178 220
#     4  10  19  29  43  62  82 107 140 175 210 249
#     4   7   9  14  27  48  71  96 128 160 189 229
#     4   9  18  31  44  59  81 109 139 171 207 246
#     4   7  10  18  31  46  68  97 123 149 186 229
#     4   8  13  22  36  53  76 105 132 162 202 242
#
# _framework density 26.821411999999999
#
# number of rings (size 3 to 8) (size 9 to 14) (size 15 to 20)
#    0.000    4.000    0.000    4.500    0.000    1.333 
#    0.000    0.000    0.000    0.500    0.000    0.000 
#    0.000    1.333    0.000   10.333    0.000   14.333 
#
# Total GULP energy -133649.503571 kJ/mol
# GULP energy per Si atom -5568.729315 kJ/mol
# Density = 2.676037 g / cm^3
# Si number density = 26.821412 Si / 1000 Ang^3
#
#
#
# Elastic Constant Matrix: (Units=GPa)
#
#
# Indices 1 2 3 4 5 6 
#
# 1 115.2275 8.0297 -9.4379 0.0001 0.0002 0.0001
# 2 8.0297 287.3585 -39.0961 0.0014 0.0002 0.0005
# 3 -9.4379 -39.0961 54.7997 -0.0005 0.0018 0.0002
# 4 0.0001 0.0014 -0.0005 1.8783 -0.0004 0.0005
# 5 0.0002 0.0002 0.0018 -0.0004 -3.8209 0.0004
# 6 0.0001 0.0005 0.0002 0.0005 0.0004 0.5581
#
#
#
# Elastic Compliance Matrix: (Units=1/GPa)
#
#
# Indices 1 2 3 4 5 6 
#
# 1 0.008803 -0.000044 0.001485 0.000000 0.000001 -0.000002
# 2 -0.000044 0.003854 0.002742 -0.000002 0.000001 -0.000005
# 3 0.001485 0.002742 0.020460 0.000003 0.000010 -0.000010
# 4 0.000000 -0.000002 0.000003 0.532396 -0.000060 -0.000511
# 5 0.000001 0.000001 0.000010 -0.000060 -0.261717 0.000198
# 6 -0.000002 -0.000005 -0.000010 -0.000511 0.000198 1.791729
#
#
# Mechanical properties :
#
#
# Convention : Reuss Voigt Hill
#
# Bulk Modulus (GPa) = 24.10583 41.81971 32.96277
# Shear Modulus (GPa) = 2.37983 32.91576 17.64780
#
# Velocity S-wave (km/s) = 0.94298 3.50697 2.56788
# Velocity P-wave (km/s) = 3.19260 5.65899 4.59439
#
# Compressibility (1/GPa) = 0.04148373
#
# Stress axis : x y z
#
# Youngs Moduli (GPa) = 113.59561 259.45118 48.87499
#
# Poissons Ratio (x) = 0.01141 -0.07257
# Poissons Ratio (y) = 0.00500 -0.13403
# Poissons Ratio (z) = -0.16866 -0.71147
#
# Static dielectric constant tensor:
#      x y z
#    x 2.024590 0.000000 0.000000 
#    y 0.000000 2.308800 0.000000 
#    z 0.000000 0.000000 2.105310 
# 
# From -- ./inp_files/11342.got.cif
#   From: 2010.05.17/outbox.cif.g08.bks.cpg/sg44_6_cif.got.tgz:11342.got - 2010.06.03 19:37:08.
