data_PCOD9373676
_publ_section_title
;
Structure prediction by ZEFSAII (Michael W. Deem and Ramdas Pophale) SiO2 
 PCOD9373676
Probable space group: I M M 2
;
_chemical_formula_sum "Si O2"
_cell_formula_units_Z 48
_cell_length_a 14.145885
_cell_length_b 8.680814
_cell_length_c 24.597945
_cell_angle_alpha 90.000000
_cell_angle_beta 90.000000
_cell_angle_gamma 90.000000
_cell_volume 3020.573446
_symmetry_space_group_name_H-M "I M M 2"
_symmetry_group_IT_number 44
_symmetry_cell_setting 'orthorhombic'
loop_
_space_group_symop_operation_xyz
x,y,z
-x,-y,z
-x,y,z
x,-y,z
1/2+x,1/2+y,1/2+z
1/2-x,1/2-y,1/2+z
1/2-x,1/2+y,1/2+z
1/2+x,1/2-y,1/2+z
loop_
_atom_site_type_symbol
_atom_site_label
_atom_site_fract_x
_atom_site_fract_y
_atom_site_fract_z
Si Si1 0.893340 0.686065 0.214290
Si Si2 0.109901 0.684189 0.425548
Si Si3 0.393605 0.814078 0.259118
Si Si4 0.293617 0.315420 0.820001
Si Si5 0.610468 0.685511 0.042812
Si Si6 0.793648 0.186091 0.653639
O O1 0.891514 0.500000 0.218232
O O2 0.861746 0.753204 0.272317
O O3 0.812562 0.731902 0.171118
O O4 0.000000 0.733600 0.200548
O O5 0.113016 0.500000 0.423989
O O6 0.173141 0.751238 0.377505
O O7 0.138450 0.742490 0.485239
O O8 0.000000 0.732760 0.417184
O O9 0.500000 0.764084 0.272577
O O10 0.312251 0.767401 0.301778
O O11 0.361752 0.749986 0.200670
O O12 0.392392 0.000000 0.256442
O O13 0.297834 0.500000 0.820754
O O14 0.500000 0.724546 0.052825
O O15 0.616652 0.500000 0.038530
O O16 0.672337 0.736665 0.094266
O O17 0.798819 0.000000 0.654879
#
# Coordination Sequence:
#
# PCOD9373676 Si02
#       6
#     8   8   8   8   8   8
#     4   9  17  29  45  66  93 122 149 179 216 258
#     4  10  20  32  46  65  89 117 148 182 221 264
#     4   9  18  31  46  66  92 119 146 178 218 263
#     4  10  19  30  46  67  90 117 148 182 220 261
#     4   9  17  29  45  65  88 114 146 184 223 262
#     4   9  17  29  46  68  92 118 149 182 216 257
#
# _framework density 15.891022
#
# number of rings (size 3 to 8) (size 9 to 14) (size 15 to 20)
#    0.000    2.667    0.000    2.000    0.000    5.667 
#    0.000    1.667    0.000    1.000    0.000    4.667 
#    0.000    0.000    0.000    0.000    0.000    0.000 
#
# Total GULP energy -133790.262818 kJ/mol
# GULP energy per Si atom -5574.594284 kJ/mol
# Density = 1.585485 g / cm^3
# Si number density = 15.891022 Si / 1000 Ang^3
#
#
#
# Elastic Constant Matrix: (Units=GPa)
#
#
# Indices 1 2 3 4 5 6 
#
# 1 119.2024 24.5364 84.2188 0.0000 0.0000 0.0000
# 2 24.5364 10.0049 28.9348 0.0000 0.0000 0.0000
# 3 84.2188 28.9348 154.3085 0.0000 0.0000 0.0000
# 4 0.0000 0.0000 0.0000 26.8865 0.0000 0.0000
# 5 0.0000 0.0000 0.0000 0.0000 20.0835 0.0000
# 6 0.0000 0.0000 0.0000 0.0000 0.0000 17.9857
#
#
#
# Elastic Compliance Matrix: (Units=1/GPa)
#
#
# Indices 1 2 3 4 5 6 
#
# 1 0.017687 -0.033773 -0.003320 0.000000 0.000000 0.000000
# 2 -0.033773 0.282866 -0.034608 0.000000 0.000000 0.000000
# 3 -0.003320 -0.034608 0.014782 0.000000 0.000000 0.000000
# 4 0.000000 0.000000 0.000000 0.037193 0.000000 0.000000
# 5 0.000000 0.000000 0.000000 0.000000 0.049792 0.000000
# 6 0.000000 0.000000 0.000000 0.000000 0.000000 0.055600
#
#
# Mechanical properties :
#
#
# Convention : Reuss Voigt Hill
#
# Bulk Modulus (GPa) = 5.81628 62.09955 33.95791
# Shear Modulus (GPa) = 7.59148 22.71285 15.15216
#
# Velocity S-wave (km/s) = 2.18806 3.78469 3.09124
# Velocity P-wave (km/s) = 3.17041 7.63294 5.84437
#
# Compressibility (1/GPa) = 0.17193131
#
# Stress axis : x y z
#
# Youngs Moduli (GPa) = 56.53983 3.53525 67.64950
#
# Poissons Ratio (x) = 0.11940 0.22461
# Poissons Ratio (y) = 1.90953 2.34122
# Poissons Ratio (z) = 0.18772 0.12235
#
# Static dielectric constant tensor:
#      x y z
#    x 1.544930 0.000000 0.000000 
#    y 0.000000 1.537550 0.000000 
#    z 0.000000 0.000000 1.501370 
# 
# From -- ./inp_files/22893.got.cif
#   From: 2010.05.17/outbox.cif.g08.bks.cpg/sg44_12_cif.got.tgz:22893.got - 2010.06.03 19:37:08.
