data_PCOD9373224
_publ_section_title
;
Structure prediction by ZEFSAII (Michael W. Deem and Ramdas Pophale) SiO2 
 PCOD9373224
Probable space group: I M M 2
;
_chemical_formula_sum "Si O2"
_cell_formula_units_Z 64
_cell_length_a 14.933160
_cell_length_b 7.340133
_cell_length_c 25.044845
_cell_angle_alpha 90.000000
_cell_angle_beta 90.000000
_cell_angle_gamma 90.000000
_cell_volume 2745.200035
_symmetry_space_group_name_H-M "I M M 2"
_symmetry_group_IT_number 44
_symmetry_cell_setting 'orthorhombic'
loop_
_space_group_symop_operation_xyz
x,y,z
-x,-y,z
-x,y,z
x,-y,z
1/2+x,1/2+y,1/2+z
1/2-x,1/2-y,1/2+z
1/2-x,1/2+y,1/2+z
1/2+x,1/2-y,1/2+z
loop_
_atom_site_type_symbol
_atom_site_label
_atom_site_fract_x
_atom_site_fract_y
_atom_site_fract_z
Si Si1 0.843861 0.794349 0.181830
Si Si2 0.594116 0.719407 0.064059
Si Si3 0.397864 0.278381 0.564947
Si Si4 0.862146 0.219453 0.681419
Si Si5 0.247522 0.702900 0.488162
Si Si6 0.398781 0.784173 0.907291
Si Si7 0.598443 0.208286 0.300253
Si Si8 0.196905 0.780686 0.297538
O O1 0.878555 0.713583 0.125826
O O2 0.737144 0.795440 0.175370
O O3 0.847409 0.712868 0.241805
O O4 0.881330 0.000000 0.184711
O O5 0.500000 0.773505 0.038472
O O6 0.603200 0.500000 0.059595
O O7 0.591710 0.763581 0.126180
O O8 0.677924 0.807992 0.036859
O O9 0.500000 0.238569 0.552181
O O10 0.385484 0.500000 0.566675
O O11 0.333004 0.211690 0.517570
O O12 0.903155 0.290571 0.735816
O O13 0.858751 0.000000 0.686116
O O14 0.273629 0.500000 0.468870
O O15 0.183611 0.790621 0.443185
O O16 0.500000 0.712150 0.915060
O O17 0.367256 0.760218 0.846624
O O18 0.401987 0.000000 0.919422
O O19 0.500000 0.285442 0.317381
O O20 0.700072 0.285166 0.309427
O O21 0.600293 0.000000 0.320074
O O22 0.205344 0.000000 0.291131
#
# Coordination Sequence:
#
# PCOD9373224 Si02
#       8
#     8   8   8   8   8   8   8   8
#     4   9  17  32  53  78 108 141 180 218 263 320
#     4  10  20  31  45  71 106 140 173 213 264 317
#     4   9  17  31  55  84 110 136 170 219 273 322
#     4  10  18  28  45  72 109 145 176 212 259 316
#     4  10  20  36  57  77 102 138 180 223 268 320
#     4  10  22  39  56  77 107 141 180 228 277 324
#     4   9  18  33  52  75 106 143 181 220 262 313
#     4   9  19  34  55  82 108 139 182 225 266 317
#
# _framework density 23.313421000000002
#
# number of rings (size 3 to 8) (size 9 to 14) (size 15 to 20)
#    0.000    2.500    1.250    1.875    0.000    5.250 
#    0.000    1.875    0.000    2.250    0.000    0.000 
#    0.000    0.000    0.000    0.000    0.000    0.000 
#
# Total GULP energy -178338.629537 kJ/mol
# GULP energy per Si atom -5573.082173 kJ/mol
# Density = 2.326036 g / cm^3
# Si number density = 23.313421 Si / 1000 Ang^3
#
#
#
# Elastic Constant Matrix: (Units=GPa)
#
#
# Indices 1 2 3 4 5 6 
#
# 1 151.7898 2.1570 66.6402 0.0000 0.0000 0.0000
# 2 2.1570 87.0483 0.1603 0.0000 0.0000 0.0000
# 3 66.6402 0.1603 125.7331 0.0000 0.0000 0.0000
# 4 0.0000 0.0000 0.0000 12.4191 0.0000 0.0000
# 5 0.0000 0.0000 0.0000 0.0000 -30.4113 0.0000
# 6 0.0000 0.0000 0.0000 0.0000 0.0000 -5.7005
#
#
#
# Elastic Compliance Matrix: (Units=1/GPa)
#
#
# Indices 1 2 3 4 5 6 
#
# 1 0.008590 -0.000204 -0.004552 0.000000 0.000000 0.000000
# 2 -0.000204 0.011493 0.000094 0.000000 0.000000 0.000000
# 3 -0.004552 0.000094 0.010366 0.000000 0.000000 0.000000
# 4 0.000000 0.000000 0.000000 0.080521 0.000000 0.000000
# 5 0.000000 0.000000 0.000000 0.000000 -0.032883 0.000000
# 6 0.000000 0.000000 0.000000 0.000000 0.000000 -0.175423
#
#
# Mechanical properties :
#
#
# Convention : Reuss Voigt Hill
#
# Bulk Modulus (GPa) = 47.34350 55.83181 51.58765
# Shear Modulus (GPa) = -61.75173 14.96904 -23.39135
#
# Velocity S-wave (km/s) = -5.15220 2.53668 -3.17099
# Velocity P-wave (km/s) = 3.87841 5.70789 2.96125
#
# Compressibility (1/GPa) = 0.02112222
#
# Stress axis : x y z
#
# Youngs Moduli (GPa) = 116.42027 87.01122 96.46898
#
# Poissons Ratio (x) = 0.01779 0.43916
# Poissons Ratio (y) = 0.02380 -0.00904
# Poissons Ratio (z) = 0.52998 -0.00815
#
# Static dielectric constant tensor:
#      x y z
#    x 1.871400 0.000000 0.000000 
#    y 0.000000 1.938540 0.000000 
#    z 0.000000 0.000000 1.883410 
# 
# From -- ./inp_files/25777.got.cif
#   From: 2010.05.17/outbox.cif.g08.bks.cpg/sg44_13_cif.got.tgz:25777.got - 2010.06.03 19:37:08.
