data_PCOD9373351
_publ_section_title
;
Structure prediction by ZEFSAII (Michael W. Deem and Ramdas Pophale) SiO2 
 PCOD9373351
Probable space group: I M M 2
;
_chemical_formula_sum "Si O2"
_cell_formula_units_Z 64
_cell_length_a 18.352035
_cell_length_b 13.041919
_cell_length_c 16.247080
_cell_angle_alpha 90.000000
_cell_angle_beta 90.000000
_cell_angle_gamma 90.000000
_cell_volume 3888.669612
_symmetry_space_group_name_H-M "I M M 2"
_symmetry_group_IT_number 44
_symmetry_cell_setting 'orthorhombic'
loop_
_space_group_symop_operation_xyz
x,y,z
-x,-y,z
-x,y,z
x,-y,z
1/2+x,1/2+y,1/2+z
1/2-x,1/2-y,1/2+z
1/2-x,1/2+y,1/2+z
1/2+x,1/2-y,1/2+z
loop_
_atom_site_type_symbol
_atom_site_label
_atom_site_fract_x
_atom_site_fract_y
_atom_site_fract_z
Si Si1 0.799625 0.816426 0.984380
Si Si2 0.582651 0.294599 0.786994
Si Si3 0.413900 0.623524 0.344893
Si Si4 0.318851 0.882139 0.854295
Si Si5 0.792122 0.880737 0.171998
Si Si6 0.227102 0.880738 0.536166
Si Si7 0.202705 0.188662 0.719752
Si Si8 0.422463 0.618204 0.960007
O O1 0.867956 0.840579 0.925210
O O2 0.727787 0.854838 0.935483
O O3 0.802034 0.868440 0.073876
O O4 0.789032 0.695412 0.003031
O O5 0.500000 0.279029 0.758187
O O6 0.615404 0.193463 0.831032
O O7 0.636555 0.334927 0.717101
O O8 0.582030 0.375433 0.861747
O O9 0.500000 0.647018 0.349982
O O10 0.405937 0.500000 0.338840
O O11 0.374397 0.672919 0.264954
O O12 0.260344 0.861677 0.782142
O O13 0.341330 0.000000 0.856769
O O14 0.726828 0.806393 0.203033
O O15 0.781883 0.000000 0.192870
O O16 0.213886 0.867330 0.633071
O O17 0.151743 0.840793 0.496541
O O18 0.239437 0.000000 0.515490
O O19 0.500000 0.667103 0.984319
O O20 0.424359 0.500000 0.986350
#
# Coordination Sequence:
#
# PCOD9373351 Si02
#       8
#     8   8   8   8   8   8   8   8
#     4  10  19  34  52  78 103 131 168 213 249 298
#     4  10  20  33  47  71 104 133 166 206 248 297
#     4  10  20  35  55  76 101 132 166 210 259 301
#     4  10  18  32  52  71  98 133 169 208 248 293
#     4  10  20  33  53  77 102 135 169 205 253 300
#     4  10  18  30  51  76 102 133 168 207 253 297
#     4   9  19  33  51  76 101 127 167 212 249 295
#     4   9  17  29  45  68 100 131 159 198 248 296
#
# _framework density 16.458071
#
# number of rings (size 3 to 8) (size 9 to 14) (size 15 to 20)
#    0.000    2.250    1.250    3.375    0.000    2.000 
#    0.000    1.250    0.000    1.500    0.000    0.000 
#    0.000    0.000    0.000    0.000    0.000    0.000 
#
# Total GULP energy -178192.792281 kJ/mol
# GULP energy per Si atom -5568.524759 kJ/mol
# Density = 1.642061 g / cm^3
# Si number density = 16.458071 Si / 1000 Ang^3
#
#
#
# Elastic Constant Matrix: (Units=GPa)
#
#
# Indices 1 2 3 4 5 6 
#
# 1 101.0615 46.1408 33.3585 0.0000 0.0000 0.0000
# 2 46.1408 105.5965 21.4906 0.0000 0.0000 0.0000
# 3 33.3585 21.4906 75.2063 0.0000 0.0000 0.0000
# 4 0.0000 0.0000 0.0000 13.5810 0.0000 0.0000
# 5 0.0000 0.0000 0.0000 0.0000 10.4807 0.0000
# 6 0.0000 0.0000 0.0000 0.0000 0.0000 9.8972
#
#
#
# Elastic Compliance Matrix: (Units=1/GPa)
#
#
# Indices 1 2 3 4 5 6 
#
# 1 0.013738 -0.005057 -0.004649 0.000000 0.000000 0.000000
# 2 -0.005057 0.011916 -0.001162 0.000000 0.000000 0.000000
# 3 -0.004649 -0.001162 0.015691 0.000000 0.000000 0.000000
# 4 0.000000 0.000000 0.000000 0.073632 0.000000 0.000000
# 5 0.000000 0.000000 0.000000 0.000000 0.095413 0.000000
# 6 0.000000 0.000000 0.000000 0.000000 0.000000 0.101039
#
#
# Mechanical properties :
#
#
# Convention : Reuss Voigt Hill
#
# Bulk Modulus (GPa) = 50.99476 53.76046 52.37761
# Shear Modulus (GPa) = 14.71880 18.85007 16.78443
#
# Velocity S-wave (km/s) = 2.99376 3.38796 3.19694
# Velocity P-wave (km/s) = 6.55760 6.93111 6.74694
#
# Compressibility (1/GPa) = 0.01960986
#
# Stress axis : x y z
#
# Youngs Moduli (GPa) = 72.78982 83.91983 63.73166
#
# Poissons Ratio (x) = 0.42437 0.29627
# Poissons Ratio (y) = 0.36809 0.07406
# Poissons Ratio (z) = 0.33838 0.09752
#
# Static dielectric constant tensor:
#      x y z
#    x 1.573050 0.000000 0.000000 
#    y 0.000000 1.572160 0.000000 
#    z 0.000000 0.000000 1.557110 
# 
# From -- ./inp_files/17923.got.cif
#   From: 2010.05.17/outbox.cif.g08.bks.cpg/sg44_9_cif.got.tgz:17923.got - 2010.06.03 19:37:08.
