data_PCOD9373052
_publ_section_title
;
Structure prediction by ZEFSAII (Michael W. Deem and Ramdas Pophale) SiO2 
 PCOD9373052
Probable space group: I M M 2
;
_chemical_formula_sum "Si O2"
_cell_formula_units_Z 64
_cell_length_a 8.120519
_cell_length_b 15.063438
_cell_length_c 29.069059
_cell_angle_alpha 90.000000
_cell_angle_beta 90.000000
_cell_angle_gamma 90.000000
_cell_volume 3555.812600
_symmetry_space_group_name_H-M "I M M 2"
_symmetry_group_IT_number 44
_symmetry_cell_setting 'orthorhombic'
loop_
_space_group_symop_operation_xyz
x,y,z
-x,-y,z
-x,y,z
x,-y,z
1/2+x,1/2+y,1/2+z
1/2-x,1/2-y,1/2+z
1/2-x,1/2+y,1/2+z
1/2+x,1/2-y,1/2+z
loop_
_atom_site_type_symbol
_atom_site_label
_atom_site_fract_x
_atom_site_fract_y
_atom_site_fract_z
Si Si1 0.299326 0.397811 0.080910
Si Si2 0.303490 0.898394 0.018341
Si Si3 0.197801 0.900336 0.476839
Si Si4 0.805365 0.776616 0.934515
Si Si5 0.701245 0.601173 0.352562
Si Si6 0.696616 0.600797 0.621454
Si Si7 0.299060 0.398642 0.247509
Si Si8 0.698872 0.275954 0.164603
O O1 0.500000 0.394080 0.080870
O O2 0.254976 0.500000 0.091375
O O3 0.240983 0.331008 0.119977
O O4 0.244006 0.377667 0.028855
O O5 0.500000 0.897304 0.014042
O O6 0.260165 0.873116 0.070622
O O7 0.243899 0.000000 0.011342
O O8 0.233265 0.833470 0.980094
O O9 0.243606 0.822719 0.442353
O O10 0.000000 0.903701 0.479146
O O11 0.256574 0.000000 0.465545
O O12 0.737514 0.829571 0.890388
O O13 0.000000 0.772271 0.929073
O O14 0.500000 0.602209 0.352988
O O15 0.750463 0.500000 0.364251
O O16 0.752189 0.619862 0.300032
O O17 0.500000 0.599063 0.619673
O O18 0.756088 0.500000 0.630648
O O19 0.750977 0.674395 0.657798
O O20 0.500000 0.398129 0.247092
O O21 0.249949 0.500000 0.235603
O O22 0.242855 0.327091 0.210198
O O23 0.500000 0.279623 0.164606
#
# Coordination Sequence:
#
# PCOD9373052 Si02
#       8
#     8   8   8   8   8   8   8   8
#     4   8  14  25  42  66  93 117 142 175 219 272
#     4  10  20  33  49  70  97 127 160 199 239 282
#     4   9  18  32  47  63  90 128 163 195 234 282
#     4  11  20  29  47  72  97 127 162 200 243 290
#     4   8  15  28  45  68  99 129 155 188 234 287
#     4  10  21  35  48  64  92 129 163 195 235 282
#     4   8  14  26  46  73 101 125 152 189 233 282
#     4  10  17  26  48  76  95 116 151 193 233 275
#
# _framework density 17.998698000000001
#
# number of rings (size 3 to 8) (size 9 to 14) (size 15 to 20)
#    0.000    2.750    0.000    4.125    0.000    4.750 
#    0.000    0.000    0.000    4.500    0.000    8.750 
#    0.000    0.000    0.000    0.000    0.000    0.000 
#
# Total GULP energy -178471.562289 kJ/mol
# GULP energy per Si atom -5577.236322 kJ/mol
# Density = 1.795773 g / cm^3
# Si number density = 17.998698 Si / 1000 Ang^3
#
#
#
# Elastic Constant Matrix: (Units=GPa)
#
#
# Indices 1 2 3 4 5 6 
#
# 1 8.3611 6.2860 5.4127 0.0000 0.0000 0.0000
# 2 6.2860 129.7613 96.6198 0.0000 0.0000 0.0000
# 3 5.4127 96.6198 104.4835 0.0000 0.0000 0.0000
# 4 0.0000 0.0000 0.0000 26.1739 0.0000 0.0000
# 5 0.0000 0.0000 0.0000 0.0000 11.2690 0.0000
# 6 0.0000 0.0000 0.0000 0.0000 0.0000 19.9169
#
#
#
# Elastic Compliance Matrix: (Units=1/GPa)
#
#
# Indices 1 2 3 4 5 6 
#
# 1 0.124376 -0.003941 -0.002799 0.000000 0.000000 0.000000
# 2 -0.003941 0.024869 -0.022793 0.000000 0.000000 0.000000
# 3 -0.002799 -0.022793 0.030794 0.000000 0.000000 0.000000
# 4 0.000000 0.000000 0.000000 0.038206 0.000000 0.000000
# 5 0.000000 0.000000 0.000000 0.000000 0.088739 0.000000
# 6 0.000000 0.000000 0.000000 0.000000 0.000000 0.050209
#
#
# Mechanical properties :
#
#
# Convention : Reuss Voigt Hill
#
# Bulk Modulus (GPa) = 8.26633 51.02699 29.64666
# Shear Modulus (GPa) = 10.95090 20.42444 15.68767
#
# Velocity S-wave (km/s) = 2.46931 3.37229 2.95549
# Velocity P-wave (km/s) = 3.56829 6.60114 5.30602
#
# Compressibility (1/GPa) = 0.12097269
#
# Stress axis : x y z
#
# Youngs Moduli (GPa) = 8.04012 40.21045 32.47425
#
# Poissons Ratio (x) = 0.15848 0.09088
# Poissons Ratio (y) = 0.03169 0.74019
# Poissons Ratio (z) = 0.02250 0.91653
#
# Static dielectric constant tensor:
#      x y z
#    x 1.643390 0.000000 0.000000 
#    y 0.000000 1.640440 0.000000 
#    z 0.000000 0.000000 1.609610 
# 
# From -- ./inp_files/25165.got.cif
#   From: 2010.05.17/outbox.cif.g08.bks.cpg/sg44_13_cif.got.tgz:25165.got - 2010.06.03 19:37:08.
