data_PCOD9373076
_publ_section_title
;
Structure prediction by ZEFSAII (Michael W. Deem and Ramdas Pophale) SiO2 
 PCOD9373076
Probable space group: I M M 2
;
_chemical_formula_sum "Si O2"
_cell_formula_units_Z 64
_cell_length_a 20.640342
_cell_length_b 7.370227
_cell_length_c 21.316943
_cell_angle_alpha 90.000000
_cell_angle_beta 90.000000
_cell_angle_gamma 90.000000
_cell_volume 3242.818763
_symmetry_space_group_name_H-M "I M M 2"
_symmetry_group_IT_number 44
_symmetry_cell_setting 'orthorhombic'
loop_
_space_group_symop_operation_xyz
x,y,z
-x,-y,z
-x,y,z
x,-y,z
1/2+x,1/2+y,1/2+z
1/2-x,1/2-y,1/2+z
1/2-x,1/2+y,1/2+z
1/2+x,1/2-y,1/2+z
loop_
_atom_site_type_symbol
_atom_site_label
_atom_site_fract_x
_atom_site_fract_y
_atom_site_fract_z
Si Si1 0.791548 0.222070 0.832910
Si Si2 0.428721 0.214420 0.526845
Si Si3 0.708091 0.215950 0.952521
Si Si4 0.071379 0.720294 0.262302
Si Si5 0.709335 0.778463 0.713067
Si Si6 0.071319 0.781446 0.878335
Si Si7 0.071290 0.720732 0.409339
Si Si8 0.791990 0.717423 0.074979
O O1 0.751612 0.282610 0.894352
O O2 0.755269 0.280531 0.769888
O O3 0.865825 0.281532 0.840694
O O4 0.791413 0.000000 0.833123
O O5 0.500000 0.288947 0.543517
O O6 0.420775 0.234678 0.451810
O O7 0.363974 0.288537 0.558617
O O8 0.430864 0.000000 0.540982
O O9 0.634555 0.284446 0.946308
O O10 0.704434 0.000000 0.943790
O O11 0.743408 0.246062 0.018159
O O12 0.070904 0.500000 0.259709
O O13 0.135190 0.779461 0.225869
O O14 0.078583 0.768792 0.335776
O O15 0.000000 0.780806 0.240541
O O16 0.729536 0.719928 0.643632
O O17 0.709654 0.000000 0.714913
O O18 0.000000 0.716311 0.858347
O O19 0.070711 0.000000 0.874799
O O20 0.070361 0.500000 0.411424
O O21 0.000000 0.782041 0.430565
O O22 0.797539 0.500000 0.078350
#
# Coordination Sequence:
#
# PCOD9373076 Si02
#       8
#     8   8   8   8   8   8   8   8
#     4   9  15  25  43  65  84 108 144 182 217 250
#     4   9  17  28  40  58  88 121 147 171 207 259
#     4  10  17  28  48  68  87 114 147 183 219 255
#     4   8  12  19  34  59  88 111 135 171 213 255
#     4   9  16  26  39  59  88 118 143 173 216 258
#     4   9  16  26  43  66  86 106 140 184 222 254
#     4   8  13  22  40  68  93 108 133 179 225 257
#     4  10  20  30  42  63  92 122 148 176 215 263
#
# _framework density 19.735918000000002
#
# number of rings (size 3 to 8) (size 9 to 14) (size 15 to 20)
#    0.000    3.000    2.500    0.750    0.000    0.500 
#    0.000    2.500    0.000    2.625    0.000    1.750 
#    0.000    0.000    0.000    0.000    0.000    0.000 
#
# Total GULP energy -178484.071107 kJ/mol
# GULP energy per Si atom -5577.627222 kJ/mol
# Density = 1.969100 g / cm^3
# Si number density = 19.735918 Si / 1000 Ang^3
#
#
#
# Elastic Constant Matrix: (Units=GPa)
#
#
# Indices 1 2 3 4 5 6 
#
# 1 167.3444 5.4892 91.7352 0.0000 0.0000 0.0000
# 2 5.4892 70.1729 -2.3981 0.0000 0.0000 0.0000
# 3 91.7352 -2.3981 123.8508 0.0000 0.0000 0.0000
# 4 0.0000 0.0000 0.0000 11.5220 0.0000 0.0000
# 5 0.0000 0.0000 0.0000 0.0000 23.1014 0.0000
# 6 0.0000 0.0000 0.0000 0.0000 0.0000 -0.8191
#
#
#
# Elastic Compliance Matrix: (Units=1/GPa)
#
#
# Indices 1 2 3 4 5 6 
#
# 1 0.010137 -0.001050 -0.007529 0.000000 0.000000 0.000000
# 2 -0.001050 0.014369 0.001056 0.000000 0.000000 0.000000
# 3 -0.007529 0.001056 0.013671 0.000000 0.000000 0.000000
# 4 0.000000 0.000000 0.000000 0.086791 0.000000 0.000000
# 5 0.000000 0.000000 0.000000 0.000000 0.043287 0.000000
# 6 0.000000 0.000000 0.000000 0.000000 0.000000 -1.220826
#
#
# Mechanical properties :
#
#
# Convention : Reuss Voigt Hill
#
# Bulk Modulus (GPa) = 43.23158 61.22453 52.22806
# Shear Modulus (GPa) = -4.85525 24.53031 9.83753
#
# Velocity S-wave (km/s) = -1.57017 3.52934 2.23504
# Velocity P-wave (km/s) = 4.32034 6.90634 5.76033
#
# Compressibility (1/GPa) = 0.02313124
#
# Stress axis : x y z
#
# Youngs Moduli (GPa) = 98.64416 69.59538 73.14544
#
# Poissons Ratio (x) = 0.07310 0.55072
# Poissons Ratio (y) = 0.10361 -0.07725
# Poissons Ratio (z) = 0.74270 -0.07350
#
# Static dielectric constant tensor:
#      x y z
#    x 1.714430 0.000000 0.000000 
#    y 0.000000 1.663930 0.000000 
#    z 0.000000 0.000000 1.654340 
# 
# From -- ./inp_files/21516.got.cif
#   From: 2010.05.17/outbox.cif.g08.bks.cpg/sg44_11_cif.got.tgz:21516.got - 2010.06.03 19:37:08.
