data_PCOD9373566
_publ_section_title
;
Structure prediction by ZEFSAII (Michael W. Deem and Ramdas Pophale) SiO2 
 PCOD9373566
Probable space group: I M M 2
;
_chemical_formula_sum "Si O2"
_cell_formula_units_Z 26
_cell_length_a 15.448563
_cell_length_b 9.429439
_cell_length_c 7.519078
_cell_angle_alpha 90.000000
_cell_angle_beta 90.000000
_cell_angle_gamma 90.000000
_cell_volume 1095.313735
_symmetry_space_group_name_H-M "I M M 2"
_symmetry_group_IT_number 44
_symmetry_cell_setting 'orthorhombic'
loop_
_space_group_symop_operation_xyz
x,y,z
-x,-y,z
-x,y,z
x,-y,z
1/2+x,1/2+y,1/2+z
1/2-x,1/2-y,1/2+z
1/2-x,1/2+y,1/2+z
1/2+x,1/2-y,1/2+z
loop_
_atom_site_type_symbol
_atom_site_label
_atom_site_fract_x
_atom_site_fract_y
_atom_site_fract_z
Si Si1 0.000000 0.500000 0.556771
Si Si2 0.307406 0.000000 0.023105
Si Si3 0.221090 0.500000 0.954233
Si Si4 0.000000 0.172737 0.745397
Si Si5 0.600519 0.500000 0.818038
Si Si6 0.157285 0.204810 0.014688
O O1 0.093798 0.500000 0.466318
O O2 0.000000 0.667719 0.643300
O O3 0.248567 0.132084 0.966450
O O4 0.303287 0.000000 0.241945
O O5 0.325337 0.500000 0.966623
O O6 0.178402 0.365863 0.040443
O O7 0.913580 0.183461 0.863345
O O8 0.000000 0.000000 0.693111
O O9 0.500000 0.500000 0.856341
O O10 0.621288 0.632875 0.691771
#
# Coordination Sequence:
#
# PCOD9373566 Si02
#       6
#     2   4   4   4   4   8
#     4  12  24  40  58  90 126 150 198 260 290 338
#     4  10  22  37  59  82 123 149 188 253 297 327
#     4  10  20  36  58  85 116 151 193 246 298 345
#     4  12  18  36  66  86 112 160 206 242 294 350
#     4  10  20  38  59  79 112 154 191 239 285 346
#     4  10  18  36  58  86 111 154 191 244 287 353
#
# _framework density 23.737490000000001
#
# number of rings (size 3 to 8) (size 9 to 14) (size 15 to 20)
#    0.000    1.846    7.692    0.000    0.000    0.000 
#    5.538   12.308    0.000    0.000    0.000    0.000 
#    0.000    0.000    0.000    0.000    0.000    0.000 
#
# Total GULP energy -72507.608611 kJ/mol
# GULP energy per Si atom -5577.508355 kJ/mol
# Density = 2.368346 g / cm^3
# Si number density = 23.737490 Si / 1000 Ang^3
#
#
#
# Elastic Constant Matrix: (Units=GPa)
#
#
# Indices 1 2 3 4 5 6 
#
# 1 239.6032 85.2746 47.3502 0.0000 0.0000 0.0000
# 2 85.2746 254.2913 41.8202 0.0000 0.0000 0.0000
# 3 47.3502 41.8202 52.6363 0.0000 0.0000 0.0000
# 4 0.0000 0.0000 0.0000 77.0690 0.0000 0.0000
# 5 0.0000 0.0000 0.0000 0.0000 26.9367 0.0000
# 6 0.0000 0.0000 0.0000 0.0000 0.0000 8.0520
#
#
#
# Elastic Compliance Matrix: (Units=1/GPa)
#
#
# Indices 1 2 3 4 5 6 
#
# 1 0.005355 -0.001154 -0.003900 0.000000 0.000000 0.000000
# 2 -0.001154 0.004772 -0.002753 0.000000 0.000000 0.000000
# 3 -0.003900 -0.002753 0.024694 0.000000 0.000000 0.000000
# 4 0.000000 0.000000 0.000000 0.012975 0.000000 0.000000
# 5 0.000000 0.000000 0.000000 0.000000 0.037124 0.000000
# 6 0.000000 0.000000 0.000000 0.000000 0.000000 0.124193
#
#
# Mechanical properties :
#
#
# Convention : Reuss Voigt Hill
#
# Bulk Modulus (GPa) = 52.06656 99.49121 75.77889
# Shear Modulus (GPa) = 21.63269 47.21727 34.42498
#
# Velocity S-wave (km/s) = 3.02210 4.46482 3.81233
# Velocity P-wave (km/s) = 5.84460 8.28152 7.16739
#
# Compressibility (1/GPa) = 0.01920619
#
# Stress axis : x y z
#
# Youngs Moduli (GPa) = 186.73549 209.53756 40.49513
#
# Poissons Ratio (x) = 0.24189 0.15794
# Poissons Ratio (y) = 0.21557 0.11149
# Poissons Ratio (z) = 0.72830 0.57692
#
# Static dielectric constant tensor:
#      x y z
#    x 1.857250 0.000000 0.000000 
#    y 0.000000 1.912730 0.000000 
#    z 0.000000 0.000000 1.943030 
# 
# From -- ./inp_files/7830.got.cif
#   From: 2010.05.17/outbox.cif.g08.bks.cpg/sg44_4_cif.got.tgz:7830.got - 2010.06.03 19:37:08.
