data_PCOD9373163
_publ_section_title
;
Structure prediction by ZEFSAII (Michael W. Deem and Ramdas Pophale) SiO2 
 PCOD9373163
Probable space group: I M M 2
;
_chemical_formula_sum "Si O2"
_cell_formula_units_Z 56
_cell_length_a 7.750831
_cell_length_b 19.208148
_cell_length_c 21.637601
_cell_angle_alpha 90.000000
_cell_angle_beta 90.000000
_cell_angle_gamma 90.000000
_cell_volume 3221.386757
_symmetry_space_group_name_H-M "I M M 2"
_symmetry_group_IT_number 44
_symmetry_cell_setting 'orthorhombic'
loop_
_space_group_symop_operation_xyz
x,y,z
-x,-y,z
-x,y,z
x,-y,z
1/2+x,1/2+y,1/2+z
1/2-x,1/2-y,1/2+z
1/2-x,1/2+y,1/2+z
1/2+x,1/2-y,1/2+z
loop_
_atom_site_type_symbol
_atom_site_label
_atom_site_fract_x
_atom_site_fract_y
_atom_site_fract_z
Si Si1 0.792510 0.579344 0.179070
Si Si2 0.198813 0.718784 0.482591
Si Si3 0.708132 0.844839 0.555899
Si Si4 0.788377 0.579449 0.929295
Si Si5 0.208207 0.152587 0.807386
Si Si6 0.708270 0.578451 0.433677
Si Si7 0.696149 0.791141 0.359564
O O1 0.726839 0.500000 0.179338
O O2 0.728226 0.622009 0.119570
O O3 0.752778 0.617229 0.243151
O O4 0.000000 0.575913 0.173509
O O5 0.236643 0.765744 0.542019
O O6 0.237200 0.637007 0.482840
O O7 0.307269 0.751946 0.426262
O O8 0.000000 0.728518 0.465680
O O9 0.500000 0.846131 0.556522
O O10 0.763955 0.890697 0.496466
O O11 0.734064 0.500000 0.921027
O O12 0.726599 0.634071 0.877181
O O13 0.000000 0.580946 0.928434
O O14 0.267252 0.106813 0.866316
O O15 0.275150 0.231861 0.815748
O O16 0.000000 0.156185 0.811845
O O17 0.500000 0.577016 0.432671
O O18 0.770011 0.500000 0.444533
O O19 0.500000 0.803667 0.338489
#
# Coordination Sequence:
#
# PCOD9373163 Si02
#       7
#     8   8   8   8   8   8   8
#     4  10  20  31  44  64  87 113 148 186 218 249
#     4  10  18  27  42  64  87 110 140 179 218 253
#     4   9  17  30  44  58  83 116 145 172 208 261
#     4   8  12  21  42  66  81  99 134 178 215 247
#     4   9  17  29  43  60  86 119 149 175 208 254
#     4   9  17  30  47  65  87 117 148 175 211 262
#     4   8  15  28  43  59  83 115 146 174 211 264
#
# _framework density 17.383818999999999
#
# number of rings (size 3 to 8) (size 9 to 14) (size 15 to 20)
#    0.000    3.000    0.000    3.857    0.000    5.714 
#    0.000    0.000    0.000   10.286    0.000    1.000 
#    0.000    3.429    0.000    0.000    0.000    0.000 
#
# Total GULP energy -155932.550531 kJ/mol
# GULP energy per Si atom -5569.019662 kJ/mol
# Density = 1.734425 g / cm^3
# Si number density = 17.383819 Si / 1000 Ang^3
#
#
#
# Elastic Constant Matrix: (Units=GPa)
#
#
# Indices 1 2 3 4 5 6 
#
# 1 35.4786 8.1327 3.8278 0.0000 0.0000 0.0000
# 2 8.1327 196.3754 79.8015 0.0000 0.0000 0.0000
# 3 3.8278 79.8015 84.1312 0.0000 0.0000 0.0000
# 4 0.0000 0.0000 0.0000 28.2214 0.0000 0.0000
# 5 0.0000 0.0000 0.0000 0.0000 16.2653 0.0000
# 6 0.0000 0.0000 0.0000 0.0000 0.0000 5.4370
#
#
#
# Elastic Compliance Matrix: (Units=1/GPa)
#
#
# Indices 1 2 3 4 5 6 
#
# 1 0.028460 -0.001062 -0.000288 0.000000 0.000000 0.000000
# 2 -0.001062 0.008326 -0.007849 0.000000 0.000000 0.000000
# 3 -0.000288 -0.007849 0.019344 0.000000 0.000000 0.000000
# 4 0.000000 0.000000 0.000000 0.035434 0.000000 0.000000
# 5 0.000000 0.000000 0.000000 0.000000 0.061480 0.000000
# 6 0.000000 0.000000 0.000000 0.000000 0.000000 0.183924
#
#
# Mechanical properties :
#
#
# Convention : Reuss Voigt Hill
#
# Bulk Modulus (GPa) = 26.50166 55.50102 41.00134
# Shear Modulus (GPa) = 13.58902 24.93296 19.26099
#
# Velocity S-wave (km/s) = 2.79893 3.79127 3.33225
# Velocity P-wave (km/s) = 5.07183 7.15270 6.20019
#
# Compressibility (1/GPa) = 0.03773348
#
# Stress axis : x y z
#
# Youngs Moduli (GPa) = 35.13650 120.10678 51.69432
#
# Poissons Ratio (x) = 0.12752 0.01488
# Poissons Ratio (y) = 0.03730 0.40576
# Poissons Ratio (z) = 0.01011 0.94273
#
# Static dielectric constant tensor:
#      x y z
#    x 1.649420 0.000000 0.000000 
#    y 0.000000 1.636650 0.000000 
#    z 0.000000 0.000000 1.562940 
# 
# From -- ./inp_files/22256.got.cif
#   From: 2010.05.17/outbox.cif.g08.bks.cpg/sg44_12_cif.got.tgz:22256.got - 2010.06.03 19:37:08.
