data_PCOD9373442
_publ_section_title
;
Structure prediction by ZEFSAII (Michael W. Deem and Ramdas Pophale) SiO2 
 PCOD9373442
Probable space group: I M M 2
;
_chemical_formula_sum "Si O2"
_cell_formula_units_Z 48
_cell_length_a 15.450043
_cell_length_b 18.584057
_cell_length_c 7.098650
_cell_angle_alpha 90.000000
_cell_angle_beta 90.000000
_cell_angle_gamma 90.000000
_cell_volume 2038.196188
_symmetry_space_group_name_H-M "I M M 2"
_symmetry_group_IT_number 44
_symmetry_cell_setting 'orthorhombic'
loop_
_space_group_symop_operation_xyz
x,y,z
-x,-y,z
-x,y,z
x,-y,z
1/2+x,1/2+y,1/2+z
1/2-x,1/2-y,1/2+z
1/2-x,1/2+y,1/2+z
1/2+x,1/2-y,1/2+z
loop_
_atom_site_type_symbol
_atom_site_label
_atom_site_fract_x
_atom_site_fract_y
_atom_site_fract_z
Si Si1 0.407097 0.238315 0.908130
Si Si2 0.246954 0.671917 0.939000
Si Si3 0.596407 0.917141 0.492580
Si Si4 0.680622 0.418318 0.589958
Si Si5 0.122320 0.420741 0.537062
Si Si6 0.402255 0.278268 0.465315
O O1 0.500000 0.268835 0.968130
O O2 0.325975 0.278233 0.002658
O O3 0.399649 0.253828 0.685277
O O4 0.408138 0.153418 0.947849
O O5 0.184088 0.621079 0.061845
O O6 0.294021 0.619505 0.788936
O O7 0.172873 0.729363 0.874466
O O8 0.500000 0.888849 0.541436
O O9 0.604185 0.915115 0.262971
O O10 0.598910 0.000000 0.546823
O O11 0.647293 0.500000 0.611130
O O12 0.775443 0.422106 0.500833
O O13 0.622273 0.362376 0.474653
O O14 0.089810 0.500000 0.480217
O O15 0.500000 0.266743 0.395881
#
# Coordination Sequence:
#
# PCOD9373442 Si02
#       6
#     8   8   8   8   8   8
#     4  10  20  32  47  70 102 138 172 210 260 317
#     4  10  18  32  50  71 104 137 169 216 262 309
#     4   9  17  29  50  78 102 127 164 211 259 308
#     4   9  18  33  54  77 102 137 177 216 258 309
#     4   9  16  30  50  72  98 128 167 213 257 304
#     4  10  20  33  51  77 108 138 170 215 268 320
#
# _framework density 23.550234
#
# number of rings (size 3 to 8) (size 9 to 14) (size 15 to 20)
#    0.000    2.500    1.667    2.500    0.000    1.333 
#    0.000    1.667    0.000    3.500    0.000    0.000 
#    0.000    0.000    0.000    0.000    0.000    0.000 
#
# Total GULP energy -133846.051041 kJ/mol
# GULP energy per Si atom -5576.918793 kJ/mol
# Density = 2.349663 g / cm^3
# Si number density = 23.550234 Si / 1000 Ang^3
#
#
#
# Elastic Constant Matrix: (Units=GPa)
#
#
# Indices 1 2 3 4 5 6 
#
# 1 153.2347 59.5806 -7.5844 0.0000 0.0000 0.0000
# 2 59.5806 191.0635 8.8349 0.0000 0.0000 0.0000
# 3 -7.5844 8.8349 82.3007 0.0000 0.0000 0.0000
# 4 0.0000 0.0000 0.0000 25.6903 0.0000 0.0000
# 5 0.0000 0.0000 0.0000 0.0000 2.4313 0.0000
# 6 0.0000 0.0000 0.0000 0.0000 0.0000 62.6831
#
#
#
# Elastic Compliance Matrix: (Units=1/GPa)
#
#
# Indices 1 2 3 4 5 6 
#
# 1 0.007499 -0.002382 0.000947 0.000000 0.000000 0.000000
# 2 -0.002382 0.006017 -0.000865 0.000000 0.000000 0.000000
# 3 0.000947 -0.000865 0.012331 0.000000 0.000000 0.000000
# 4 0.000000 0.000000 0.000000 0.038925 0.000000 0.000000
# 5 0.000000 0.000000 0.000000 0.000000 0.411299 0.000000
# 6 0.000000 0.000000 0.000000 0.000000 0.000000 0.015953
#
#
# Mechanical properties :
#
#
# Convention : Reuss Voigt Hill
#
# Bulk Modulus (GPa) = 47.07039 60.91790 53.99414
# Shear Modulus (GPa) = 9.92640 42.54547 26.23594
#
# Velocity S-wave (km/s) = 2.05527 4.25500 3.34135
# Velocity P-wave (km/s) = 5.06585 7.07555 6.15330
#
# Compressibility (1/GPa) = 0.02124478
#
# Stress axis : x y z
#
# Youngs Moduli (GPa) = 133.34982 166.20246 81.09827
#
# Poissons Ratio (x) = 0.39594 -0.07678
# Poissons Ratio (y) = 0.31768 0.07018
# Poissons Ratio (z) = -0.12626 0.14384
#
# Static dielectric constant tensor:
#      x y z
#    x 1.882630 0.000000 0.000000 
#    y 0.000000 1.928580 0.000000 
#    z 0.000000 0.000000 1.953170 
# 
# From -- ./inp_files/7114.got.cif
#   From: 2010.05.17/outbox.cif.g08.bks.cpg/sg44_4_cif.got.tgz:7114.got - 2010.06.03 19:37:08.
