data_PCOD9373448
_publ_section_title
;
Structure prediction by ZEFSAII (Michael W. Deem and Ramdas Pophale) SiO2 
 PCOD9373448
Probable space group: I M M 2
;
_chemical_formula_sum "Si O2"
_cell_formula_units_Z 48
_cell_length_a 7.669945
_cell_length_b 17.070751
_cell_length_c 19.121487
_cell_angle_alpha 90.000000
_cell_angle_beta 90.000000
_cell_angle_gamma 90.000000
_cell_volume 2503.609206
_symmetry_space_group_name_H-M "I M M 2"
_symmetry_group_IT_number 44
_symmetry_cell_setting 'orthorhombic'
loop_
_space_group_symop_operation_xyz
x,y,z
-x,-y,z
-x,y,z
x,-y,z
1/2+x,1/2+y,1/2+z
1/2-x,1/2-y,1/2+z
1/2-x,1/2+y,1/2+z
1/2+x,1/2-y,1/2+z
loop_
_atom_site_type_symbol
_atom_site_label
_atom_site_fract_x
_atom_site_fract_y
_atom_site_fract_z
Si Si1 0.287240 0.500000 0.629601
Si Si2 0.798477 0.830467 0.936199
Si Si3 0.702366 0.325457 0.861086
Si Si4 0.789316 0.159387 0.204452
Si Si5 0.713474 0.411747 0.998600
Si Si6 0.793668 0.242980 0.573613
Si Si7 0.714083 0.500000 0.467742
O O1 0.500000 0.500000 0.629488
O O2 0.229703 0.578193 0.669396
O O3 0.231545 0.500000 0.548963
O O4 0.710708 0.762769 0.890750
O O5 0.000000 0.831699 0.914937
O O6 0.728224 0.918671 0.933101
O O7 0.789218 0.802149 0.017077
O O8 0.500000 0.348336 0.855011
O O9 0.777702 0.331799 0.783491
O O10 0.775260 0.380521 0.922683
O O11 0.740716 0.228829 0.151668
O O12 0.000000 0.157744 0.206492
O O13 0.500000 0.412544 0.997692
O O14 0.771601 0.500000 0.012671
O O15 0.765604 0.344655 0.053739
O O16 0.000000 0.246620 0.560274
O O17 0.500000 0.500000 0.467387
#
# Coordination Sequence:
#
# PCOD9373448 Si02
#       7
#     4   8   8   8   8   8   4
#     4   9  16  28  48  76 100 125 162 199 234 284
#     4  10  18  32  52  72  97 130 164 201 242 286
#     4   9  19  32  49  75 101 126 159 199 245 295
#     4  10  19  32  51  73 101 133 163 196 240 291
#     4   8  15  29  49  72  94 119 158 206 243 277
#     4  10  19  31  49  74 100 127 164 203 244 289
#     4   9  16  28  50  76  96 119 166 207 232 282
#
# _framework density 19.172321
#
# number of rings (size 3 to 8) (size 9 to 14) (size 15 to 20)
#    0.000    2.667    1.667    2.000    1.167    0.667 
#    0.000    2.917    1.833   12.500    0.000    0.000 
#    0.000    0.000    0.000    0.000    0.000    0.000 
#
# Total GULP energy -133842.195855 kJ/mol
# GULP energy per Si atom -5576.758161 kJ/mol
# Density = 1.912868 g / cm^3
# Si number density = 19.172321 Si / 1000 Ang^3
#
#
#
# Elastic Constant Matrix: (Units=GPa)
#
#
# Indices 1 2 3 4 5 6 
#
# 1 36.0802 -2.0342 -2.5452 0.0000 0.0000 0.0000
# 2 -2.0342 147.7497 41.6743 0.0000 0.0000 0.0000
# 3 -2.5452 41.6743 86.2723 0.0000 0.0000 0.0000
# 4 0.0000 0.0000 0.0000 15.6268 0.0000 0.0000
# 5 0.0000 0.0000 0.0000 0.0000 17.0371 0.0000
# 6 0.0000 0.0000 0.0000 0.0000 0.0000 13.9755
#
#
#
# Elastic Compliance Matrix: (Units=1/GPa)
#
#
# Indices 1 2 3 4 5 6 
#
# 1 0.027778 0.000175 0.000735 0.000000 0.000000 0.000000
# 2 0.000175 0.007837 -0.003781 0.000000 0.000000 0.000000
# 3 0.000735 -0.003781 0.013439 0.000000 0.000000 0.000000
# 4 0.000000 0.000000 0.000000 0.063993 0.000000 0.000000
# 5 0.000000 0.000000 0.000000 0.000000 0.058695 0.000000
# 6 0.000000 0.000000 0.000000 0.000000 0.000000 0.071554
#
#
# Mechanical properties :
#
#
# Convention : Reuss Voigt Hill
#
# Bulk Modulus (GPa) = 23.08784 38.25467 30.67126
# Shear Modulus (GPa) = 18.97717 24.86169 21.91943
#
# Velocity S-wave (km/s) = 3.14956 3.60495 3.38492
# Velocity P-wave (km/s) = 5.02938 6.10933 5.59547
#
# Compressibility (1/GPa) = 0.04331283
#
# Stress axis : x y z
#
# Youngs Moduli (GPa) = 36.00006 127.60069 74.40980
#
# Poissons Ratio (x) = -0.02235 -0.05468
# Poissons Ratio (y) = -0.00631 0.28131
# Poissons Ratio (z) = -0.02646 0.48240
#
# Static dielectric constant tensor:
#      x y z
#    x 1.731850 0.000000 0.000000 
#    y 0.000000 1.669300 0.000000 
#    z 0.000000 0.000000 1.647830 
# 
# From -- ./inp_files/23185.got.cif
#   From: 2010.05.17/outbox.cif.g08.bks.cpg/sg44_12_cif.got.tgz:23185.got - 2010.06.03 19:37:08.
