data_PCOD9373717
_publ_section_title
;
Structure prediction by ZEFSAII (Michael W. Deem and Ramdas Pophale) SiO2 
 PCOD9373717
Probable space group: I M M 2
;
_chemical_formula_sum "Si O2"
_cell_formula_units_Z 64
_cell_length_a 23.949556
_cell_length_b 8.755483
_cell_length_c 19.607047
_cell_angle_alpha 90.000000
_cell_angle_beta 90.000000
_cell_angle_gamma 90.000000
_cell_volume 4111.400321
_symmetry_space_group_name_H-M "I M M 2"
_symmetry_group_IT_number 44
_symmetry_cell_setting 'orthorhombic'
loop_
_space_group_symop_operation_xyz
x,y,z
-x,-y,z
-x,y,z
x,-y,z
1/2+x,1/2+y,1/2+z
1/2-x,1/2-y,1/2+z
1/2-x,1/2+y,1/2+z
1/2+x,1/2-y,1/2+z
loop_
_atom_site_type_symbol
_atom_site_label
_atom_site_fract_x
_atom_site_fract_y
_atom_site_fract_z
Si Si1 0.379898 0.815569 0.679240
Si Si2 0.668280 0.815876 0.453012
Si Si3 0.661119 0.817054 0.900513
Si Si4 0.063202 0.685952 0.036466
Si Si5 0.935182 0.817013 0.315518
Si Si6 0.733320 0.182753 0.320210
Si Si7 0.726914 0.817550 0.033647
Si Si8 0.751322 0.182627 0.676153
O O1 0.411658 0.770024 0.610001
O O2 0.408780 0.743479 0.745024
O O3 0.314596 0.773331 0.674690
O O4 0.382666 0.000000 0.685096
O O5 0.607424 0.767321 0.478677
O O6 0.685681 0.778409 0.375747
O O7 0.715179 0.743522 0.501638
O O8 0.672220 0.000000 0.460546
O O9 0.602640 0.750443 0.875872
O O10 0.709338 0.750691 0.851099
O O11 0.661066 0.000000 0.893651
O O12 0.679947 0.777288 0.977413
O O13 0.061747 0.500000 0.035992
O O14 0.000000 0.740921 0.027544
O O15 0.000000 0.771413 0.320071
O O16 0.931835 0.000000 0.316571
O O17 0.723999 0.250357 0.245705
O O18 0.738410 0.000000 0.316572
O O19 0.720436 0.745597 0.107870
O O20 0.729250 0.000000 0.038971
O O21 0.754043 0.000000 0.676966
#
# Coordination Sequence:
#
# PCOD9373717 Si02
#       8
#     8   8   8   8   8   8   8   8
#     4  10  19  31  47  67  96 132 168 201 230 275
#     4   9  17  31  47  68  95 124 159 199 240 281
#     4  10  20  34  50  70  94 125 163 202 242 290
#     4   9  16  28  47  68  91 123 162 196 227 269
#     4  11  23  35  48  69  98 132 168 204 242 285
#     4  10  19  30  48  69  95 126 157 199 246 287
#     4  10  20  32  49  71  96 124 158 199 245 291
#     4  11  20  31  49  72  98 127 161 196 237 293
#
# _framework density 15.566473
#
# number of rings (size 3 to 8) (size 9 to 14) (size 15 to 20)
#    0.000    2.000    2.500    2.250    0.000    4.000 
#    0.000    0.000    0.000    0.375    0.000    0.875 
#    0.000    5.000    0.000    0.000    0.000    0.000 
#
# Total GULP energy -178550.630198 kJ/mol
# GULP energy per Si atom -5579.707194 kJ/mol
# Density = 1.553104 g / cm^3
# Si number density = 15.566473 Si / 1000 Ang^3
#
#
#
# Elastic Constant Matrix: (Units=GPa)
#
#
# Indices 1 2 3 4 5 6 
#
# 1 89.5144 25.9547 62.1700 0.0000 0.0000 0.0000
# 2 25.9547 28.4748 41.2941 0.0000 0.0000 0.0000
# 3 62.1700 41.2941 145.4208 0.0000 0.0000 0.0000
# 4 0.0000 0.0000 0.0000 24.6737 0.0000 0.0000
# 5 0.0000 0.0000 0.0000 0.0000 19.8392 0.0000
# 6 0.0000 0.0000 0.0000 0.0000 0.0000 12.2343
#
#
#
# Elastic Compliance Matrix: (Units=1/GPa)
#
#
# Indices 1 2 3 4 5 6 
#
# 1 0.017001 -0.008426 -0.004875 0.000000 0.000000 0.000000
# 2 -0.008426 0.063882 -0.014538 0.000000 0.000000 0.000000
# 3 -0.004875 -0.014538 0.013089 0.000000 0.000000 0.000000
# 4 0.000000 0.000000 0.000000 0.040529 0.000000 0.000000
# 5 0.000000 0.000000 0.000000 0.000000 0.050405 0.000000
# 6 0.000000 0.000000 0.000000 0.000000 0.000000 0.081738
#
#
# Mechanical properties :
#
#
# Convention : Reuss Voigt Hill
#
# Bulk Modulus (GPa) = 26.11415 58.02750 42.07083
# Shear Modulus (GPa) = 14.92156 20.28219 17.60187
#
# Velocity S-wave (km/s) = 3.09944 3.61354 3.36632
# Velocity P-wave (km/s) = 5.44252 7.40057 6.49575
#
# Compressibility (1/GPa) = 0.03829341
#
# Stress axis : x y z
#
# Youngs Moduli (GPa) = 58.82172 15.65396 76.39897
#
# Poissons Ratio (x) = 0.13189 0.37248
# Poissons Ratio (y) = 0.49560 1.11068
# Poissons Ratio (z) = 0.28678 0.22758
#
# Static dielectric constant tensor:
#      x y z
#    x 1.506010 0.000000 0.000000 
#    y 0.000000 1.520870 0.000000 
#    z 0.000000 0.000000 1.519000 
# 
# From -- ./inp_files/20867.got.cif
#   From: 2010.05.17/outbox.cif.g08.bks.cpg/sg44_11_cif.got.tgz:20867.got - 2010.06.03 19:37:08.
