data_PCOD9373902
_publ_section_title
;
Structure prediction by ZEFSAII (Michael W. Deem and Ramdas Pophale) SiO2 
 PCOD9373902
Probable space group: I M M 2
;
_chemical_formula_sum "Si O2"
_cell_formula_units_Z 64
_cell_length_a 16.705032
_cell_length_b 8.028151
_cell_length_c 23.056350
_cell_angle_alpha 90.000000
_cell_angle_beta 90.000000
_cell_angle_gamma 90.000000
_cell_volume 3092.099073
_symmetry_space_group_name_H-M "I M M 2"
_symmetry_group_IT_number 44
_symmetry_cell_setting 'orthorhombic'
loop_
_space_group_symop_operation_xyz
x,y,z
-x,-y,z
-x,y,z
x,-y,z
1/2+x,1/2+y,1/2+z
1/2-x,1/2-y,1/2+z
1/2-x,1/2+y,1/2+z
1/2+x,1/2-y,1/2+z
loop_
_atom_site_type_symbol
_atom_site_label
_atom_site_fract_x
_atom_site_fract_y
_atom_site_fract_z
Si Si1 0.305503 0.187700 0.986700
Si Si2 0.409927 0.316180 0.085296
Si Si3 0.881072 0.193222 0.016975
Si Si4 0.084443 0.304717 0.891055
Si Si5 0.739581 0.701219 0.862827
Si Si6 0.589845 0.296496 0.648398
Si Si7 0.268664 0.296418 0.734713
Si Si8 0.909230 0.309471 0.708017
O O1 0.214097 0.194858 0.008081
O O2 0.306155 0.236610 0.919496
O O3 0.335440 0.000000 0.993443
O O4 0.353656 0.299255 0.030844
O O5 0.500000 0.296685 0.064018
O O6 0.401311 0.500000 0.111888
O O7 0.398149 0.191755 0.138318
O O8 0.913406 0.287345 0.960800
O O9 0.907321 0.000000 0.013128
O O10 0.901404 0.256434 0.081082
O O11 0.084293 0.500000 0.876328
O O12 0.168372 0.234962 0.868255
O O13 0.000000 0.231296 0.869914
O O14 0.742293 0.500000 0.866350
O O15 0.705562 0.746500 0.800191
O O16 0.500000 0.249516 0.668786
O O17 0.592918 0.500000 0.648049
O O18 0.665252 0.240345 0.687627
O O19 0.265337 0.500000 0.730097
O O20 0.176161 0.236832 0.728654
O O21 0.911795 0.500000 0.729721
O O22 0.000000 0.239503 0.718762
#
# Coordination Sequence:
#
# PCOD9373902 Si02
#       8
#     8   8   8   8   8   8   8   8
#     4  10  19  32  51  72  95 124 159 200 244 292
#     4  10  20  33  50  74 102 128 156 195 247 306
#     4   9  17  29  47  70  94 120 151 189 235 288
#     4   9  17  28  43  66  95 123 151 187 234 286
#     4   9  18  32  48  66  93 128 164 203 243 285
#     4   9  16  26  43  68  94 119 151 193 237 278
#     4   9  17  30  47  67  94 129 168 206 241 283
#     4   9  17  30  50  75 101 130 165 205 249 297
#
# _framework density 20.697914000000001
#
# number of rings (size 3 to 8) (size 9 to 14) (size 15 to 20)
#    0.000    2.750    0.000    1.875    0.000    4.500 
#    0.000    3.750    0.000    3.000    0.000    1.750 
#    0.000    0.000    0.000    0.000    0.000    0.000 
#
# Total GULP energy -178304.993919 kJ/mol
# GULP energy per Si atom -5572.031060 kJ/mol
# Density = 2.065080 g / cm^3
# Si number density = 20.697914 Si / 1000 Ang^3
#
#
#
# Elastic Constant Matrix: (Units=GPa)
#
#
# Indices 1 2 3 4 5 6 
#
# 1 65.1619 9.2883 45.1915 0.0000 0.0000 0.0000
# 2 9.2883 21.5125 2.0517 0.0000 0.0000 0.0000
# 3 45.1915 2.0517 102.3522 0.0000 0.0000 0.0000
# 4 0.0000 0.0000 0.0000 12.8018 0.0000 0.0000
# 5 0.0000 0.0000 0.0000 0.0000 -7.4449 0.0000
# 6 0.0000 0.0000 0.0000 0.0000 0.0000 -0.6029
#
#
#
# Elastic Compliance Matrix: (Units=1/GPa)
#
#
# Indices 1 2 3 4 5 6 
#
# 1 0.023846 -0.009309 -0.010342 0.000000 0.000000 0.000000
# 2 -0.009309 0.050208 0.003104 0.000000 0.000000 0.000000
# 3 -0.010342 0.003104 0.014274 0.000000 0.000000 0.000000
# 4 0.000000 0.000000 0.000000 0.078114 0.000000 0.000000
# 5 0.000000 0.000000 0.000000 0.000000 -0.134320 0.000000
# 6 0.000000 0.000000 0.000000 0.000000 0.000000 -1.658702
#
#
# Mechanical properties :
#
#
# Convention : Reuss Voigt Hill
#
# Bulk Modulus (GPa) = 18.10506 33.56551 25.83529
# Shear Modulus (GPa) = -3.17445 9.78380 3.30467
#
# Velocity S-wave (km/s) = -1.23977 2.17651 1.26495
# Velocity P-wave (km/s) = 2.59170 4.75062 3.82657
#
# Compressibility (1/GPa) = 0.05523319
#
# Stress axis : x y z
#
# Youngs Moduli (GPa) = 41.93603 19.91708 70.05611
#
# Poissons Ratio (x) = 0.18542 0.72452
# Poissons Ratio (y) = 0.39040 -0.21745
# Poissons Ratio (z) = 0.43370 -0.06182
#
# Static dielectric constant tensor:
#      x y z
#    x 1.772240 0.000000 0.000000 
#    y 0.000000 1.766250 0.000000 
#    z 0.000000 0.000000 1.719630 
# 
# From -- ./inp_files/23248.got.cif
#   From: 2010.05.17/outbox.cif.g08.bks.cpg/sg44_12_cif.got.tgz:23248.got - 2010.06.03 19:37:08.
