data_PCOD9373010
_publ_section_title
;
Structure prediction by ZEFSAII (Michael W. Deem and Ramdas Pophale) SiO2 
 PCOD9373010
Probable space group: I M M 2
;
_chemical_formula_sum "Si O2"
_cell_formula_units_Z 34
_cell_length_a 9.971377
_cell_length_b 19.028328
_cell_length_c 6.960913
_cell_angle_alpha 90.000000
_cell_angle_beta 90.000000
_cell_angle_gamma 90.000000
_cell_volume 1320.754111
_symmetry_space_group_name_H-M "I M M 2"
_symmetry_group_IT_number 44
_symmetry_cell_setting 'orthorhombic'
loop_
_space_group_symop_operation_xyz
x,y,z
-x,-y,z
-x,y,z
x,-y,z
1/2+x,1/2+y,1/2+z
1/2-x,1/2-y,1/2+z
1/2-x,1/2+y,1/2+z
1/2+x,1/2-y,1/2+z
loop_
_atom_site_type_symbol
_atom_site_label
_atom_site_fract_x
_atom_site_fract_y
_atom_site_fract_z
Si Si1 0.000000 0.000000 0.039361
Si Si2 0.295936 0.577592 0.941814
Si Si3 0.000000 0.354237 0.349350
Si Si4 0.000000 0.803932 0.382254
Si Si5 0.500000 0.105190 0.424767
Si Si6 0.000000 0.767743 0.831813
Si Si7 0.705589 0.616808 0.398949
O O1 0.882291 0.060939 0.012388
O O2 0.357476 0.500000 0.907594
O O3 0.373953 0.644342 0.856598
O O4 0.300354 0.591402 0.173568
O O5 0.143907 0.575605 0.870292
O O6 0.860624 0.372176 0.451318
O O7 0.000000 0.271987 0.284204
O O8 0.000000 0.399621 0.156163
O O9 0.000000 0.780980 0.604581
O O10 0.500000 0.186470 0.370210
O O11 0.869677 0.808462 0.909207
#
# Coordination Sequence:
#
# PCOD9373010 Si02
#       7
#     2   8   4   4   4   4   8
#     4  10  16  30  48  74  96 140 158 212 254 300
#     4  10  18  30  50  78 101 132 171 218 251 295
#     4  10  20  33  46  83 107 132 163 215 269 288
#     4  10  20  32  54  76 103 135 170 212 254 300
#     4  10  20  32  50  77 107 134 166 212 260 299
#     4   9  18  33  50  77  97 143 177 197 250 311
#     4   9  18  29  51  73 109 126 169 212 258 297
#
# _framework density 25.742868000000001
#
# number of rings (size 3 to 8) (size 9 to 14) (size 15 to 20)
#    0.000    2.353    1.176    2.824    0.000    0.471 
#    0.000    0.000    0.000    0.000   30.588    0.000 
#    0.000    0.000    0.000    0.000    0.000    0.000 
#
# Total GULP energy -94954.363468 kJ/mol
# GULP energy per Si atom -5585.550792 kJ/mol
# Density = 2.568428 g / cm^3
# Si number density = 25.742868 Si / 1000 Ang^3
#
#
#
# Elastic Constant Matrix: (Units=GPa)
#
#
# Indices 1 2 3 4 5 6 
#
# 1 243.9835 71.0651 1.1895 0.0000 0.0000 -0.0001
# 2 71.0651 166.9594 10.4560 0.0000 0.0001 -0.0001
# 3 1.1895 10.4560 90.4673 0.0010 0.0007 -0.0002
# 4 0.0000 0.0000 0.0010 29.9551 0.0000 -0.0004
# 5 0.0000 0.0001 0.0007 0.0000 -14.2663 0.0000
# 6 -0.0001 -0.0001 -0.0002 -0.0004 0.0000 34.7784
#
#
#
# Elastic Compliance Matrix: (Units=1/GPa)
#
#
# Indices 1 2 3 4 5 6 
#
# 1 0.004681 -0.002003 0.000170 0.000000 0.000000 0.000000
# 2 -0.002003 0.006890 -0.000770 0.000000 0.000000 0.000000
# 3 0.000170 -0.000770 0.011140 0.000000 0.000001 0.000000
# 4 0.000000 0.000000 0.000000 0.033383 0.000000 0.000000
# 5 0.000000 0.000000 0.000001 0.000000 -0.070095 0.000000
# 6 0.000000 0.000000 0.000000 0.000000 0.000000 0.028753
#
#
# Mechanical properties :
#
#
# Convention : Reuss Voigt Hill
#
# Bulk Modulus (GPa) = 57.12457 74.09238 65.60848
# Shear Modulus (GPa) = 193.83358 38.00675 115.92017
#
# Velocity S-wave (km/s) = 8.68674 3.84656 6.71772
# Velocity P-wave (km/s) = 11.08383 6.96938 9.25806
#
# Compressibility (1/GPa) = 0.01750560
#
# Stress axis : x y z
#
# Youngs Moduli (GPa) = 213.61677 145.13046 89.76272
#
# Poissons Ratio (x) = 0.29073 -0.01526
# Poissons Ratio (y) = 0.42792 0.06912
# Poissons Ratio (z) = -0.03631 0.11175
#
# Static dielectric constant tensor:
#      x y z
#    x 1.983430 0.000000 0.000000 
#    y 0.000000 1.930270 0.000000 
#    z 0.000000 0.000000 2.133160 
# 
# From -- ./inp_files/4331.got.cif
#   From: 2010.05.17/outbox.cif.g08.bks.cpg/sg44_3_cif.got.tgz:4331.got - 2010.06.03 19:37:08.
