data_PCOD9373685
_publ_section_title
;
Structure prediction by ZEFSAII (Michael W. Deem and Ramdas Pophale) SiO2 
 PCOD9373685
Probable space group: I M M 2
;
_chemical_formula_sum "Si O2"
_cell_formula_units_Z 56
_cell_length_a 18.761528
_cell_length_b 8.956934
_cell_length_c 21.197959
_cell_angle_alpha 90.000000
_cell_angle_beta 90.000000
_cell_angle_gamma 90.000000
_cell_volume 3562.227301
_symmetry_space_group_name_H-M "I M M 2"
_symmetry_group_IT_number 44
_symmetry_cell_setting 'orthorhombic'
loop_
_space_group_symop_operation_xyz
x,y,z
-x,-y,z
-x,y,z
x,-y,z
1/2+x,1/2+y,1/2+z
1/2-x,1/2-y,1/2+z
1/2-x,1/2+y,1/2+z
1/2+x,1/2-y,1/2+z
loop_
_atom_site_type_symbol
_atom_site_label
_atom_site_fract_x
_atom_site_fract_y
_atom_site_fract_z
Si Si1 0.919188 0.679126 0.824370
Si Si2 0.790931 0.171307 0.762199
Si Si3 0.290004 0.827388 0.897725
Si Si4 0.584756 0.322071 0.578353
Si Si5 0.146672 0.680525 0.205046
Si Si6 0.583258 0.677780 0.831578
Si Si7 0.157084 0.679205 0.956238
O O1 0.919592 0.500000 0.821812
O O2 0.862844 0.738222 0.773352
O O3 0.889515 0.719828 0.893993
O O4 0.000000 0.733707 0.816007
O O5 0.749731 0.174337 0.829547
O O6 0.730085 0.224111 0.713878
O O7 0.808770 0.000000 0.747847
O O8 0.364932 0.748120 0.884098
O O9 0.236542 0.740367 0.943589
O O10 0.298631 0.000000 0.916262
O O11 0.500000 0.295998 0.574201
O O12 0.596684 0.500000 0.581447
O O13 0.614668 0.244123 0.641035
O O14 0.622678 0.253249 0.517319
O O15 0.142932 0.500000 0.207339
O O16 0.104356 0.747511 0.264803
O O17 0.500000 0.703607 0.844281
O O18 0.595791 0.500000 0.827277
O O19 0.157579 0.500000 0.961712
#
# Coordination Sequence:
#
# PCOD9373685 Si02
#       7
#     8   8   8   8   8   8   8
#     4   9  17  28  44  68  94 119 149 185 225 269
#     4   8  16  29  44  64  88 116 150 187 228 272
#     4   9  17  30  47  67  92 121 155 193 233 278
#     4  11  23  35  47  67  95 126 160 195 230 273
#     4  10  20  33  48  66  91 124 161 197 233 278
#     4  10  19  30  46  70  98 125 155 193 236 280
#     4  10  19  32  49  67  92 126 160 193 230 274
#
# _framework density 15.720502
#
# number of rings (size 3 to 8) (size 9 to 14) (size 15 to 20)
#    0.000    2.429    0.000    3.857    0.000    9.429 
#    0.000    0.000    0.000    0.000    0.000    1.000 
#    0.000    3.429    0.000    0.000    0.000    0.000 
#
# Total GULP energy -156096.177898 kJ/mol
# GULP energy per Si atom -5574.863496 kJ/mol
# Density = 1.568472 g / cm^3
# Si number density = 15.720502 Si / 1000 Ang^3
#
#
#
# Elastic Constant Matrix: (Units=GPa)
#
#
# Indices 1 2 3 4 5 6 
#
# 1 144.6728 71.0392 56.2760 0.0000 0.0000 0.0000
# 2 71.0392 74.0045 39.3314 0.0000 0.0000 0.0000
# 3 56.2760 39.3314 62.2140 0.0000 0.0000 0.0000
# 4 0.0000 0.0000 0.0000 22.7191 0.0000 0.0000
# 5 0.0000 0.0000 0.0000 0.0000 26.1468 0.0000
# 6 0.0000 0.0000 0.0000 0.0000 0.0000 28.9785
#
#
#
# Elastic Compliance Matrix: (Units=1/GPa)
#
#
# Indices 1 2 3 4 5 6 
#
# 1 0.014668 -0.010585 -0.006576 0.000000 0.000000 0.000000
# 2 -0.010585 0.027989 -0.008120 0.000000 0.000000 0.000000
# 3 -0.006576 -0.008120 0.027155 0.000000 0.000000 0.000000
# 4 0.000000 0.000000 0.000000 0.044016 0.000000 0.000000
# 5 0.000000 0.000000 0.000000 0.000000 0.038246 0.000000
# 6 0.000000 0.000000 0.000000 0.000000 0.000000 0.034508
#
#
# Mechanical properties :
#
#
# Convention : Reuss Voigt Hill
#
# Bulk Modulus (GPa) = 51.94710 68.24274 60.09492
# Shear Modulus (GPa) = 20.52881 23.18519 21.85700
#
# Velocity S-wave (km/s) = 3.61759 3.84453 3.73278
# Velocity P-wave (km/s) = 7.11092 7.95056 7.54244
#
# Compressibility (1/GPa) = 0.01925035
#
# Stress axis : x y z
#
# Youngs Moduli (GPa) = 68.17684 35.72818 36.82543
#
# Poissons Ratio (x) = 0.37819 0.24216
# Poissons Ratio (y) = 0.72166 0.29902
# Poissons Ratio (z) = 0.44833 0.29011
#
# Static dielectric constant tensor:
#      x y z
#    x 1.532390 0.000000 0.000000 
#    y 0.000000 1.529390 0.000000 
#    z 0.000000 0.000000 1.498850 
# 
# From -- ./inp_files/23210.got.cif
#   From: 2010.05.17/outbox.cif.g08.bks.cpg/sg44_12_cif.got.tgz:23210.got - 2010.06.03 19:37:08.
