data_PCOD9373496
_publ_section_title
;
Structure prediction by ZEFSAII (Michael W. Deem and Ramdas Pophale) SiO2 
 PCOD9373496
Probable space group: I M M 2
;
_chemical_formula_sum "Si O2"
_cell_formula_units_Z 48
_cell_length_a 8.916049
_cell_length_b 16.962331
_cell_length_c 18.751296
_cell_angle_alpha 90.000000
_cell_angle_beta 90.000000
_cell_angle_gamma 90.000000
_cell_volume 2835.889272
_symmetry_space_group_name_H-M "I M M 2"
_symmetry_group_IT_number 44
_symmetry_cell_setting 'orthorhombic'
loop_
_space_group_symop_operation_xyz
x,y,z
-x,-y,z
-x,y,z
x,-y,z
1/2+x,1/2+y,1/2+z
1/2-x,1/2-y,1/2+z
1/2-x,1/2+y,1/2+z
1/2+x,1/2-y,1/2+z
loop_
_atom_site_type_symbol
_atom_site_label
_atom_site_fract_x
_atom_site_fract_y
_atom_site_fract_z
Si Si1 0.321853 0.761444 0.886360
Si Si2 0.321121 0.672891 0.034862
Si Si3 0.821568 0.181603 0.110937
Si Si4 0.680646 0.500000 0.003107
Si Si5 0.179966 0.500000 0.846626
Si Si6 0.679264 0.839031 0.265439
Si Si7 0.819275 0.409224 0.479235
O O1 0.500000 0.761413 0.871178
O O2 0.234076 0.729929 0.818278
O O3 0.278328 0.847487 0.916758
O O4 0.296639 0.702565 0.953486
O O5 0.500000 0.680794 0.048481
O O6 0.232252 0.732209 0.085040
O O7 0.275586 0.581819 0.040326
O O8 0.755339 0.165719 0.188661
O O9 0.000000 0.176504 0.111420
O O10 0.755041 0.121668 0.051989
O O11 0.500000 0.500000 0.998301
O O12 0.744638 0.500000 0.923545
O O13 0.220929 0.421541 0.803286
O O14 0.000000 0.500000 0.855917
O O15 0.500000 0.836298 0.257516
O O16 0.780927 0.500000 0.464677
O O17 0.000000 0.403283 0.487699
#
# Coordination Sequence:
#
# PCOD9373496 Si02
#       7
#     8   8   8   4   4   8   8
#     4   9  17  32  55  80 105 136 176 216 261 314
#     4   9  18  34  55  80 108 141 176 214 262 315
#     4  11  23  36  53  78 109 143 179 221 264 314
#     4  10  18  32  58  84 108 137 174 217 258 310
#     4  10  22  34  50  80 112 141 172 211 262 316
#     4  11  22  36  53  76 109 146 179 215 262 317
#     4   9  19  37  59  80 106 140 176 217 266 319
#
# _framework density 16.925908
#
# number of rings (size 3 to 8) (size 9 to 14) (size 15 to 20)
#    0.000    2.167    1.667    3.000    1.167    4.333 
#    0.000    0.000    1.833    0.000    0.000    0.000 
#    0.000    0.000    0.000    0.000    0.000    0.000 
#
# Total GULP energy -133927.764145 kJ/mol
# GULP energy per Si atom -5580.323506 kJ/mol
# Density = 1.688738 g / cm^3
# Si number density = 16.925908 Si / 1000 Ang^3
#
#
#
# Elastic Constant Matrix: (Units=GPa)
#
#
# Indices 1 2 3 4 5 6 
#
# 1 36.4915 35.8482 30.3830 0.0000 0.0000 0.0000
# 2 35.8482 144.7840 41.7457 0.0000 0.0000 0.0000
# 3 30.3830 41.7457 69.3712 0.0000 0.0000 0.0000
# 4 0.0000 0.0000 0.0000 15.7618 0.0000 0.0000
# 5 0.0000 0.0000 0.0000 0.0000 30.9855 0.0000
# 6 0.0000 0.0000 0.0000 0.0000 0.0000 21.5894
#
#
#
# Elastic Compliance Matrix: (Units=1/GPa)
#
#
# Indices 1 2 3 4 5 6 
#
# 1 0.048529 -0.007123 -0.016968 0.000000 0.000000 0.000000
# 2 -0.007123 0.009402 -0.002538 0.000000 0.000000 0.000000
# 3 -0.016968 -0.002538 0.023374 0.000000 0.000000 0.000000
# 4 0.000000 0.000000 0.000000 0.063445 0.000000 0.000000
# 5 0.000000 0.000000 0.000000 0.000000 0.032273 0.000000
# 6 0.000000 0.000000 0.000000 0.000000 0.000000 0.046319
#
#
# Mechanical properties :
#
#
# Convention : Reuss Voigt Hill
#
# Bulk Modulus (GPa) = 35.65503 51.84450 43.74977
# Shear Modulus (GPa) = 17.48556 23.17866 20.33211
#
# Velocity S-wave (km/s) = 3.21762 3.70458 3.46965
# Velocity P-wave (km/s) = 5.90891 6.99967 6.47729
#
# Compressibility (1/GPa) = 0.02804653
#
# Stress axis : x y z
#
# Youngs Moduli (GPa) = 20.60630 106.35573 42.78210
#
# Poissons Ratio (x) = 0.75760 0.72592
# Poissons Ratio (y) = 0.14678 0.10859
# Poissons Ratio (z) = 0.34965 0.26996
#
# Static dielectric constant tensor:
#      x y z
#    x 1.561870 0.000000 0.000000 
#    y 0.000000 1.590780 0.000000 
#    z 0.000000 0.000000 1.531890 
# 
# From -- ./inp_files/16129.got.cif
#   From: 2010.05.17/outbox.cif.g08.bks.cpg/sg44_9_cif.got.tgz:16129.got - 2010.06.03 19:37:08.
