data_PCOD9373688
_publ_section_title
;
Structure prediction by ZEFSAII (Michael W. Deem and Ramdas Pophale) SiO2 
 PCOD9373688
Probable space group: I M M 2
;
_chemical_formula_sum "Si O2"
_cell_formula_units_Z 64
_cell_length_a 29.142892
_cell_length_b 8.836792
_cell_length_c 14.784783
_cell_angle_alpha 90.000000
_cell_angle_beta 90.000000
_cell_angle_gamma 90.000000
_cell_volume 3807.520359
_symmetry_space_group_name_H-M "I M M 2"
_symmetry_group_IT_number 44
_symmetry_cell_setting 'orthorhombic'
loop_
_space_group_symop_operation_xyz
x,y,z
-x,-y,z
-x,y,z
x,-y,z
1/2+x,1/2+y,1/2+z
1/2-x,1/2-y,1/2+z
1/2-x,1/2+y,1/2+z
1/2+x,1/2-y,1/2+z
loop_
_atom_site_type_symbol
_atom_site_label
_atom_site_fract_x
_atom_site_fract_y
_atom_site_fract_z
Si Si1 0.277318 0.320518 0.875000
Si Si2 0.821258 0.819525 0.875117
Si Si3 0.862714 0.318655 0.703718
Si Si4 0.366656 0.682006 0.760867
Si Si5 0.818668 0.817650 0.082968
Si Si6 0.780263 0.821203 0.589287
Si Si7 0.447212 0.817733 0.876687
Si Si8 0.447771 0.815758 0.083447
O O1 0.269506 0.500000 0.859656
O O2 0.230556 0.233686 0.852459
O O3 0.321226 0.272645 0.817270
O O4 0.287264 0.298781 0.981525
O O5 0.855470 0.745237 0.803896
O O6 0.823892 0.000000 0.868663
O O7 0.829499 0.773981 0.979651
O O8 0.862475 0.500000 0.706149
O O9 0.819698 0.261476 0.644797
O O10 0.909225 0.266076 0.653933
O O11 0.370004 0.500000 0.766328
O O12 0.356602 0.724235 0.657012
O O13 0.411145 0.751961 0.806632
O O14 0.770015 0.744921 0.109457
O O15 0.813173 0.000000 0.085226
O O16 0.781518 0.000000 0.608350
O O17 0.500000 0.773649 0.858168
O O18 0.445042 0.000000 0.874530
O O19 0.436325 0.769721 0.980233
O O20 0.500000 0.767259 0.103726
O O21 0.447886 0.000000 0.083769
#
# Coordination Sequence:
#
# PCOD9373688 Si02
#       8
#     8   8   8   8   8   8   8   8
#     4   9  18  31  47  71 102 129 156 194 237 282
#     4  10  20  33  48  67  95 130 166 202 238 278
#     4  11  20  30  49  72  94 125 163 201 240 282
#     4  10  19  31  49  71  95 125 159 194 233 280
#     4   9  19  34  49  67  95 131 166 199 236 277
#     4  10  19  30  46  71 102 131 158 192 235 284
#     4   9  18  33  52  74  99 123 149 187 234 284
#     4   8  16  32  52  73  96 122 153 189 233 287
#
# _framework density 16.80884
#
# number of rings (size 3 to 8) (size 9 to 14) (size 15 to 20)
#    0.000    2.500    0.000    3.375    0.000    3.250 
#    0.000    0.625    0.000    3.750    0.000    3.500 
#    0.000    0.000    0.000    0.000    0.000    0.000 
#
# Total GULP energy -178539.734349 kJ/mol
# GULP energy per Si atom -5579.366698 kJ/mol
# Density = 1.677058 g / cm^3
# Si number density = 16.808840 Si / 1000 Ang^3
#
#
#
# Elastic Constant Matrix: (Units=GPa)
#
#
# Indices 1 2 3 4 5 6 
#
# 1 118.5485 32.2759 98.1770 0.0000 0.0000 0.0000
# 2 32.2759 24.2039 36.5910 0.0000 0.0000 0.0000
# 3 98.1770 36.5910 111.5106 0.0000 0.0000 0.0000
# 4 0.0000 0.0000 0.0000 25.1360 0.0000 0.0000
# 5 0.0000 0.0000 0.0000 0.0000 32.5983 0.0000
# 6 0.0000 0.0000 0.0000 0.0000 0.0000 23.4179
#
#
#
# Elastic Compliance Matrix: (Units=1/GPa)
#
#
# Indices 1 2 3 4 5 6 
#
# 1 0.031142 -0.000154 -0.027368 0.000000 0.000000 0.000000
# 2 -0.000154 0.081989 -0.026768 0.000000 0.000000 0.000000
# 3 -0.027368 -0.026768 0.041847 0.000000 0.000000 0.000000
# 4 0.000000 0.000000 0.000000 0.039784 0.000000 0.000000
# 5 0.000000 0.000000 0.000000 0.000000 0.030676 0.000000
# 6 0.000000 0.000000 0.000000 0.000000 0.000000 0.042702
#
#
# Mechanical properties :
#
#
# Convention : Reuss Voigt Hill
#
# Bulk Modulus (GPa) = 21.55277 65.37232 43.46255
# Shear Modulus (GPa) = 12.74901 22.04503 17.39702
#
# Velocity S-wave (km/s) = 2.75702 3.62541 3.22062
# Velocity P-wave (km/s) = 4.79427 7.51671 6.30420
#
# Compressibility (1/GPa) = 0.04639774
#
# Stress axis : x y z
#
# Youngs Moduli (GPa) = 32.11048 12.19681 23.89648
#
# Poissons Ratio (x) = 0.00188 0.65400
# Poissons Ratio (y) = 0.00494 0.63967
# Poissons Ratio (z) = 0.87881 0.32649
#
# Static dielectric constant tensor:
#      x y z
#    x 1.538980 0.000000 0.000000 
#    y 0.000000 1.567310 0.000000 
#    z 0.000000 0.000000 1.586710 
# 
# From -- ./inp_files/19470.got.cif
#   From: 2010.05.17/outbox.cif.g08.bks.cpg/sg44_10_cif.got.tgz:19470.got - 2010.06.03 19:37:08.
