data_PCOD9373266
_publ_section_title
;
Structure prediction by ZEFSAII (Michael W. Deem and Ramdas Pophale) SiO2 
 PCOD9373266
Probable space group: I M M 2
;
_chemical_formula_sum "Si O2"
_cell_formula_units_Z 48
_cell_length_a 8.490793
_cell_length_b 35.136505
_cell_length_c 7.455467
_cell_angle_alpha 90.000000
_cell_angle_beta 90.000000
_cell_angle_gamma 90.000000
_cell_volume 2224.240098
_symmetry_space_group_name_H-M "I M M 2"
_symmetry_group_IT_number 44
_symmetry_cell_setting 'orthorhombic'
loop_
_space_group_symop_operation_xyz
x,y,z
-x,-y,z
-x,y,z
x,-y,z
1/2+x,1/2+y,1/2+z
1/2-x,1/2-y,1/2+z
1/2-x,1/2+y,1/2+z
1/2+x,1/2-y,1/2+z
loop_
_atom_site_type_symbol
_atom_site_label
_atom_site_fract_x
_atom_site_fract_y
_atom_site_fract_z
Si Si1 0.000000 0.044596 0.426850
Si Si2 0.667141 0.955298 0.974966
Si Si3 0.812178 0.789010 0.022242
Si Si4 0.185018 0.702922 0.136236
Si Si5 0.683926 0.651272 0.837819
Si Si6 0.500000 0.545997 0.495306
Si Si7 0.827129 0.571192 0.879413
O O1 0.829658 0.059751 0.488234
O O2 0.000000 0.051808 0.210618
O O3 0.000000 0.000000 0.460153
O O4 0.500000 0.938228 0.915500
O O5 0.835756 0.938405 0.920233
O O6 0.669182 0.952385 0.192815
O O7 0.666938 0.000000 0.927098
O O8 0.770451 0.746008 0.079414
O O9 0.781984 0.818266 0.182588
O O10 0.000000 0.789539 0.985478
O O11 0.719109 0.800371 0.845711
O O12 0.000000 0.697627 0.097868
O O13 0.284094 0.672951 0.022951
O O14 0.500000 0.639785 0.824687
O O15 0.795144 0.614794 0.825801
O O16 0.500000 0.500000 0.470527
O O17 0.000000 0.566440 0.964199
#
# Coordination Sequence:
#
# PCOD9373266 Si02
#       7
#     4   8   8   8   8   4   8
#     4   9  16  28  46  72 108 150 194 242 300 362
#     4   8  13  21  35  57  88 125 166 214 264 317
#     4  10  22  38  58  83 113 152 198 248 303 363
#     4  11  22  37  59  85 111 148 200 251 302 364
#     4  11  22  38  56  81 120 158 196 250 307 364
#     4   7  10  16  28  46  72 108 150 194 242 300
#     4  10  18  29  46  73 109 152 195 241 301 355
#
# _framework density 21.580404999999999
#
# number of rings (size 3 to 8) (size 9 to 14) (size 15 to 20)
#    0.000    2.333    2.500    2.500    0.000    3.000 
#    0.000    0.000    0.000    0.000    0.000    0.000 
#    0.000    6.667    0.000   21.000    0.000    0.000 
#
# Total GULP energy -133915.493935 kJ/mol
# GULP energy per Si atom -5579.812247 kJ/mol
# Density = 2.153129 g / cm^3
# Si number density = 21.580405 Si / 1000 Ang^3
#
#
#
# Elastic Constant Matrix: (Units=GPa)
#
#
# Indices 1 2 3 4 5 6 
#
# 1 169.8777 17.0077 9.4012 0.0050 -0.0001 -0.0006
# 2 17.0077 77.9046 24.0122 0.0208 0.0002 0.0009
# 3 9.4012 24.0122 98.1317 0.0185 0.0008 0.0002
# 4 0.0050 0.0208 0.0185 -90.7365 -0.0006 -0.0026
# 5 -0.0001 0.0002 0.0008 -0.0006 8.8609 -0.0004
# 6 -0.0006 0.0009 0.0002 -0.0026 -0.0004 16.7102
#
#
#
# Elastic Compliance Matrix: (Units=1/GPa)
#
#
# Indices 1 2 3 4 5 6 
#
# 1 0.006025 -0.001230 -0.000276 0.000000 0.000000 0.000000
# 2 -0.001230 0.014135 -0.003341 0.000002 0.000000 -0.000001
# 3 -0.000276 -0.003341 0.011034 0.000001 -0.000001 0.000000
# 4 0.000000 0.000002 0.000001 -0.011021 -0.000001 -0.000002
# 5 0.000000 0.000000 -0.000001 -0.000001 0.112856 0.000003
# 6 0.000000 -0.000001 0.000000 -0.000002 0.000003 0.059844
#
#
# Mechanical properties :
#
#
# Convention : Reuss Voigt Hill
#
# Bulk Modulus (GPa) = 46.51269 49.63956 48.07612
# Shear Modulus (GPa) = 23.83981 6.66644 15.25312
#
# Velocity S-wave (km/s) = 3.32730 1.75950 2.66146
# Velocity P-wave (km/s) = 6.03003 5.21343 5.63654
#
# Compressibility (1/GPa) = 0.02149951
#
# Stress axis : x y z
#
# Youngs Moduli (GPa) = 165.97407 70.74888 90.62642
#
# Poissons Ratio (x) = 0.08704 0.02503
# Poissons Ratio (y) = 0.20419 0.30276
# Poissons Ratio (z) = 0.04584 0.23636
#
# Static dielectric constant tensor:
#      x y z
#    x 1.853930 0.000000 0.000000 
#    y 0.000000 1.753510 0.000000 
#    z 0.000000 0.000000 1.740830 
# 
# From -- ./inp_files/4970.got.cif
#   From: 2010.05.17/outbox.cif.g08.bks.cpg/sg44_3_cif.got.tgz:4970.got - 2010.06.03 19:37:08.
