data_PCOD9373935
_publ_section_title
;
Structure prediction by ZEFSAII (Michael W. Deem and Ramdas Pophale) SiO2 
 PCOD9373935
Probable space group: I M M 2
;
_chemical_formula_sum "Si O2"
_cell_formula_units_Z 48
_cell_length_a 17.011367
_cell_length_b 8.596425
_cell_length_c 19.068599
_cell_angle_alpha 90.000000
_cell_angle_beta 90.000000
_cell_angle_gamma 90.000000
_cell_volume 2788.533579
_symmetry_space_group_name_H-M "I M M 2"
_symmetry_group_IT_number 44
_symmetry_cell_setting 'orthorhombic'
loop_
_space_group_symop_operation_xyz
x,y,z
-x,-y,z
-x,y,z
x,-y,z
1/2+x,1/2+y,1/2+z
1/2-x,1/2-y,1/2+z
1/2-x,1/2+y,1/2+z
1/2+x,1/2-y,1/2+z
loop_
_atom_site_type_symbol
_atom_site_label
_atom_site_fract_x
_atom_site_fract_y
_atom_site_fract_z
Si Si1 0.500000 0.188298 0.066391
Si Si2 0.661265 0.187702 0.143369
Si Si3 0.411250 0.810771 0.437372
Si Si4 0.000000 0.184794 0.408352
Si Si5 0.166780 0.314816 0.386066
Si Si6 0.811621 0.688269 0.802777
Si Si7 0.258774 0.186673 0.519654
O O1 0.578205 0.233551 0.108736
O O2 0.500000 0.000000 0.058753
O O3 0.500000 0.261252 0.989525
O O4 0.667561 0.237067 0.224156
O O5 0.664863 0.000000 0.141681
O O6 0.730155 0.253423 0.094472
O O7 0.500000 0.754417 0.448206
O O8 0.376046 0.765663 0.361393
O O9 0.346034 0.763785 0.494735
O O10 0.413437 0.000000 0.438306
O O11 0.920424 0.250887 0.374988
O O12 0.000000 0.000000 0.404947
O O13 0.165555 0.500000 0.388663
O O14 0.228908 0.255664 0.328797
O O15 0.199505 0.251539 0.460480
O O16 0.806979 0.500000 0.804571
O O17 0.255282 0.000000 0.517619
#
# Coordination Sequence:
#
# PCOD9373935 Si02
#       7
#     4   8   8   4   8   8   8
#     4  10  20  32  50  82 114 145 176 211 258 318
#     4  10  20  33  52  78 111 143 176 214 261 318
#     4   8  15  29  51  76  99 126 170 221 263 308
#     4  12  22  34  56  82 108 137 174 225 270 318
#     4  11  21  35  54  77 106 141 179 220 265 319
#     4   9  19  34  53  78 106 139 175 216 267 322
#     4  10  19  32  52  77 104 138 180 220 266 317
#
# _framework density 17.213349000000001
#
# number of rings (size 3 to 8) (size 9 to 14) (size 15 to 20)
#    0.000    2.167    1.667    3.750    1.167    0.667 
#    0.000    0.000    1.833   12.500    0.000    0.000 
#    0.000    0.000    0.000    0.000    0.000    0.000 
#
# Total GULP energy -133914.936477 kJ/mol
# GULP energy per Si atom -5579.789020 kJ/mol
# Density = 1.717417 g / cm^3
# Si number density = 17.213349 Si / 1000 Ang^3
#
#
#
# Elastic Constant Matrix: (Units=GPa)
#
#
# Indices 1 2 3 4 5 6 
#
# 1 151.1575 22.6185 46.4276 0.0000 0.0000 0.0000
# 2 22.6185 30.1921 17.5201 0.0000 0.0000 0.0000
# 3 46.4276 17.5201 81.9312 0.0000 0.0000 0.0000
# 4 0.0000 0.0000 0.0000 25.2535 0.0000 0.0000
# 5 0.0000 0.0000 0.0000 0.0000 17.8818 0.0000
# 6 0.0000 0.0000 0.0000 0.0000 0.0000 18.6955
#
#
#
# Elastic Compliance Matrix: (Units=1/GPa)
#
#
# Indices 1 2 3 4 5 6 
#
# 1 0.008420 -0.004041 -0.003908 0.000000 0.000000 0.000000
# 2 -0.004041 0.039752 -0.006211 0.000000 0.000000 0.000000
# 3 -0.003908 -0.006211 0.015748 0.000000 0.000000 0.000000
# 4 0.000000 0.000000 0.000000 0.039598 0.000000 0.000000
# 5 0.000000 0.000000 0.000000 0.000000 0.055923 0.000000
# 6 0.000000 0.000000 0.000000 0.000000 0.000000 0.053489
#
#
# Mechanical properties :
#
#
# Convention : Reuss Voigt Hill
#
# Bulk Modulus (GPa) = 28.08803 48.49036 38.28919
# Shear Modulus (GPa) = 19.75376 24.14714 21.95045
#
# Velocity S-wave (km/s) = 3.39128 3.74948 3.57487
# Velocity P-wave (km/s) = 5.62915 6.85392 6.27150
#
# Compressibility (1/GPa) = 0.03560235
#
# Stress axis : x y z
#
# Youngs Moduli (GPa) = 118.75891 25.15571 63.50113
#
# Poissons Ratio (x) = 0.10165 0.24813
# Poissons Ratio (y) = 0.47987 0.39440
# Poissons Ratio (z) = 0.46405 0.15624
#
# Static dielectric constant tensor:
#      x y z
#    x 1.587070 0.000000 0.000000 
#    y 0.000000 1.583460 0.000000 
#    z 0.000000 0.000000 1.565190 
# 
# From -- ./inp_files/21735.got.cif
#   From: 2010.05.17/outbox.cif.g08.bks.cpg/sg44_11_cif.got.tgz:21735.got - 2010.06.03 19:37:08.
