data_PCOD9373324
_publ_section_title
;
Structure prediction by ZEFSAII (Michael W. Deem and Ramdas Pophale) SiO2 
 PCOD9373324
Probable space group: I M M 2
;
_chemical_formula_sum "Si O2"
_cell_formula_units_Z 64
_cell_length_a 31.274437
_cell_length_b 8.647525
_cell_length_c 14.828109
_cell_angle_alpha 90.000000
_cell_angle_beta 90.000000
_cell_angle_gamma 90.000000
_cell_volume 4010.209822
_symmetry_space_group_name_H-M "I M M 2"
_symmetry_group_IT_number 44
_symmetry_cell_setting 'orthorhombic'
loop_
_space_group_symop_operation_xyz
x,y,z
-x,-y,z
-x,y,z
x,-y,z
1/2+x,1/2+y,1/2+z
1/2-x,1/2-y,1/2+z
1/2-x,1/2+y,1/2+z
1/2+x,1/2-y,1/2+z
loop_
_atom_site_type_symbol
_atom_site_label
_atom_site_fract_x
_atom_site_fract_y
_atom_site_fract_z
Si Si1 0.224328 0.320392 0.585640
Si Si2 0.451635 0.312754 0.491020
Si Si3 0.865316 0.681262 0.276756
Si Si4 0.210850 0.183099 0.388327
Si Si5 0.792344 0.814114 0.778061
Si Si6 0.951256 0.313180 0.192041
Si Si7 0.673545 0.321529 0.602785
Si Si8 0.366596 0.313730 0.408278
O O1 0.211559 0.500000 0.582230
O O2 0.213538 0.241582 0.490860
O O3 0.206266 0.240951 0.675163
O O4 0.275556 0.314389 0.597477
O O5 0.500000 0.264291 0.468348
O O6 0.450454 0.500000 0.493573
O O7 0.442279 0.254455 0.592466
O O8 0.415198 0.258220 0.421633
O O9 0.864962 0.500000 0.299231
O O10 0.834537 0.769135 0.345464
O O11 0.914320 0.734463 0.261950
O O12 0.844147 0.709714 0.178902
O O13 0.249614 0.255216 0.329147
O O14 0.215780 0.000000 0.384584
O O15 0.834402 0.756338 0.831768
O O16 0.791068 0.000000 0.781587
O O17 0.949420 0.500000 0.185478
O O18 0.000000 0.269230 0.216233
O O19 0.661340 0.500000 0.625075
O O20 0.655353 0.284425 0.504730
O O21 0.368564 0.500000 0.396954
#
# Coordination Sequence:
#
# PCOD9373324 Si02
#       8
#     8   8   8   8   8   8   8   8
#     4  11  22  37  52  71  99 132 168 212 253 294
#     4   9  16  27  46  71  98 131 168 202 240 290
#     4  11  21  32  49  73 100 135 172 206 245 299
#     4  12  24  36  51  72  99 133 170 210 250 296
#     4  11  21  35  52  72  99 133 170 208 251 300
#     4   9  18  31  46  69 101 132 162 201 249 297
#     4  10  18  30  48  70 101 134 164 202 246 290
#     4   9  17  30  47  69  99 133 165 200 241 286
#
# _framework density 15.959265
#
# number of rings (size 3 to 8) (size 9 to 14) (size 15 to 20)
#    0.000    1.750    3.750    2.250    0.000    1.000 
#    0.000    1.250    0.000    0.000    0.000    0.875 
#    0.000    3.000    0.000    0.000    0.000    0.000 
#
# Total GULP energy -178477.173276 kJ/mol
# GULP energy per Si atom -5577.411665 kJ/mol
# Density = 1.592294 g / cm^3
# Si number density = 15.959265 Si / 1000 Ang^3
#
#
#
# Elastic Constant Matrix: (Units=GPa)
#
#
# Indices 1 2 3 4 5 6 
#
# 1 100.3988 23.4465 49.4828 0.0000 0.0000 0.0000
# 2 23.4465 48.2450 25.1787 0.0000 0.0000 0.0000
# 3 49.4828 25.1787 82.1567 0.0000 0.0000 0.0000
# 4 0.0000 0.0000 0.0000 23.3289 0.0000 0.0000
# 5 0.0000 0.0000 0.0000 0.0000 22.7568 0.0000
# 6 0.0000 0.0000 0.0000 0.0000 0.0000 30.7680
#
#
#
# Elastic Compliance Matrix: (Units=1/GPa)
#
#
# Indices 1 2 3 4 5 6 
#
# 1 0.014513 -0.002966 -0.007832 0.000000 0.000000 0.000000
# 2 -0.002966 0.025280 -0.005961 0.000000 0.000000 0.000000
# 3 -0.007832 -0.005961 0.018716 0.000000 0.000000 0.000000
# 4 0.000000 0.000000 0.000000 0.042865 0.000000 0.000000
# 5 0.000000 0.000000 0.000000 0.000000 0.043943 0.000000
# 6 0.000000 0.000000 0.000000 0.000000 0.000000 0.032501
#
#
# Mechanical properties :
#
#
# Convention : Reuss Voigt Hill
#
# Bulk Modulus (GPa) = 40.01493 47.44627 43.73060
# Shear Modulus (GPa) = 22.76163 24.21690 23.48926
#
# Velocity S-wave (km/s) = 3.78065 3.89963 3.84060
# Velocity P-wave (km/s) = 6.64720 7.07604 6.86497
#
# Compressibility (1/GPa) = 0.02499067
#
# Stress axis : x y z
#
# Youngs Moduli (GPa) = 68.90313 39.55696 53.42940
#
# Poissons Ratio (x) = 0.11731 0.41848
# Poissons Ratio (y) = 0.20434 0.31852
# Poissons Ratio (z) = 0.53967 0.23582
#
# Static dielectric constant tensor:
#      x y z
#    x 1.571060 0.000000 0.000000 
#    y 0.000000 1.543270 0.000000 
#    z 0.000000 0.000000 1.508910 
# 
# From -- ./inp_files/19707.got.cif
#   From: 2010.05.17/outbox.cif.g08.bks.cpg/sg44_10_cif.got.tgz:19707.got - 2010.06.03 19:37:08.
