data_PCOD9373412
_publ_section_title
;
Structure prediction by ZEFSAII (Michael W. Deem and Ramdas Pophale) SiO2 
 PCOD9373412
Probable space group: I M M 2
;
_chemical_formula_sum "Si O2"
_cell_formula_units_Z 56
_cell_length_a 8.337456
_cell_length_b 16.226089
_cell_length_c 20.612668
_cell_angle_alpha 90.000000
_cell_angle_beta 90.000000
_cell_angle_gamma 90.000000
_cell_volume 2788.570425
_symmetry_space_group_name_H-M "I M M 2"
_symmetry_group_IT_number 44
_symmetry_cell_setting 'orthorhombic'
loop_
_space_group_symop_operation_xyz
x,y,z
-x,-y,z
-x,y,z
x,-y,z
1/2+x,1/2+y,1/2+z
1/2-x,1/2-y,1/2+z
1/2-x,1/2+y,1/2+z
1/2+x,1/2-y,1/2+z
loop_
_atom_site_type_symbol
_atom_site_label
_atom_site_fract_x
_atom_site_fract_y
_atom_site_fract_z
Si Si1 0.816746 0.909775 0.300040
Si Si2 0.313304 0.262329 0.269091
Si Si3 0.689823 0.682486 0.408786
Si Si4 0.695906 0.594896 0.539960
Si Si5 0.815838 0.912770 0.561472
Si Si6 0.318972 0.875114 0.428825
Si Si7 0.187877 0.251765 0.126734
O O1 0.700299 0.834892 0.284594
O O2 0.805663 0.910587 0.377777
O O3 0.000000 0.892010 0.279440
O O4 0.772297 0.000000 0.274502
O O5 0.500000 0.284387 0.258298
O O6 0.251719 0.311583 0.333454
O O7 0.213533 0.264459 0.203289
O O8 0.500000 0.664244 0.402842
O O9 0.750927 0.625026 0.467631
O O10 0.704568 0.776545 0.433287
O O11 0.500000 0.594731 0.539004
O O12 0.746309 0.500000 0.552811
O O13 0.741298 0.664425 0.593952
O O14 0.705008 0.911153 0.498993
O O15 0.781372 0.828900 0.597917
O O16 0.000000 0.910968 0.539814
O O17 0.790846 0.000000 0.597788
O O18 0.500000 0.890983 0.405838
O O19 0.000000 0.259427 0.110734
#
# Coordination Sequence:
#
# PCOD9373412 Si02
#       7
#     8   8   8   8   8   8   8
#     4  10  20  33  50  77 112 148 190 236 285 345
#     4  10  21  36  56  79 111 154 196 241 298 358
#     4   8  15  31  53  80 110 143 187 235 281 336
#     4   9  17  32  58  89 116 147 193 246 295 348
#     4  11  23  37  55  81 112 147 189 238 293 351
#     4  10  18  31  53  81 113 146 181 227 286 349
#     4  11  22  38  59  85 118 154 194 242 301 363
#
# _framework density 20.081973999999999
#
# number of rings (size 3 to 8) (size 9 to 14) (size 15 to 20)
#    0.000    2.143    1.429    3.429    0.000    4.571 
#    0.000    2.143    0.000    3.857    0.000    0.000 
#    0.000    0.000    0.000    0.000    0.000    0.000 
#
# Total GULP energy -155886.560957 kJ/mol
# GULP energy per Si atom -5567.377177 kJ/mol
# Density = 2.003627 g / cm^3
# Si number density = 20.081974 Si / 1000 Ang^3
#
#
#
# Elastic Constant Matrix: (Units=GPa)
#
#
# Indices 1 2 3 4 5 6 
#
# 1 35.0129 16.3738 -1.3355 0.0000 0.0000 0.0000
# 2 16.3738 87.0057 25.9740 0.0000 0.0000 0.0000
# 3 -1.3355 25.9740 70.3964 0.0000 0.0000 0.0000
# 4 0.0000 0.0000 0.0000 -1.6475 0.0000 0.0000
# 5 0.0000 0.0000 0.0000 0.0000 29.1867 0.0000
# 6 0.0000 0.0000 0.0000 0.0000 0.0000 17.0035
#
#
#
# Elastic Compliance Matrix: (Units=1/GPa)
#
#
# Indices 1 2 3 4 5 6 
#
# 1 0.031935 -0.006957 0.003173 0.000000 0.000000 0.000000
# 2 -0.006957 0.014432 -0.005457 0.000000 0.000000 0.000000
# 3 0.003173 -0.005457 0.016279 0.000000 0.000000 0.000000
# 4 0.000000 0.000000 0.000000 -0.606993 0.000000 0.000000
# 5 0.000000 0.000000 0.000000 0.000000 0.034262 0.000000
# 6 0.000000 0.000000 0.000000 0.000000 0.000000 0.058811
#
#
# Mechanical properties :
#
#
# Convention : Reuss Voigt Hill
#
# Bulk Modulus (GPa) = 22.64302 30.49329 26.56816
# Shear Modulus (GPa) = -11.95972 19.00207 3.52117
#
# Velocity S-wave (km/s) = -2.44303 3.07941 1.32560
# Velocity P-wave (km/s) = 1.82810 5.27836 3.94988
#
# Compressibility (1/GPa) = 0.04416371
#
# Stress axis : x y z
#
# Youngs Moduli (GPa) = 31.31314 69.29121 61.42936
#
# Poissons Ratio (x) = 0.48207 -0.19491
# Poissons Ratio (y) = 0.21785 0.33521
# Poissons Ratio (z) = -0.09935 0.37811
#
# Static dielectric constant tensor:
#      x y z
#    x 1.677390 0.000000 0.000000 
#    y 0.000000 1.768050 0.000000 
#    z 0.000000 0.000000 1.781870 
# 
# From -- ./inp_files/23071.got.cif
#   From: 2010.05.17/outbox.cif.g08.bks.cpg/sg44_12_cif.got.tgz:23071.got - 2010.06.03 19:37:08.
