data_PCOD9373694
_publ_section_title
;
Structure prediction by ZEFSAII (Michael W. Deem and Ramdas Pophale) SiO2 
 PCOD9373694
Probable space group: I M M 2
;
_chemical_formula_sum "Si O2"
_cell_formula_units_Z 56
_cell_length_a 8.813953
_cell_length_b 13.951253
_cell_length_c 29.839127
_cell_angle_alpha 90.000000
_cell_angle_beta 90.000000
_cell_angle_gamma 90.000000
_cell_volume 3669.188788
_symmetry_space_group_name_H-M "I M M 2"
_symmetry_group_IT_number 44
_symmetry_cell_setting 'orthorhombic'
loop_
_space_group_symop_operation_xyz
x,y,z
-x,-y,z
-x,y,z
x,-y,z
1/2+x,1/2+y,1/2+z
1/2-x,1/2-y,1/2+z
1/2-x,1/2+y,1/2+z
1/2+x,1/2-y,1/2+z
loop_
_atom_site_type_symbol
_atom_site_label
_atom_site_fract_x
_atom_site_fract_y
_atom_site_fract_z
Si Si1 0.819836 0.886066 0.020930
Si Si2 0.681008 0.789785 0.107289
Si Si3 0.318207 0.111105 0.653923
Si Si4 0.317724 0.612188 0.333556
Si Si5 0.681835 0.389038 0.694113
Si Si6 0.817399 0.789480 0.740694
Si Si7 0.674723 0.883658 0.927168
O O1 0.734162 0.828517 0.059470
O O2 0.000000 0.874073 0.025837
O O3 0.785831 0.000000 0.025689
O O4 0.767330 0.855315 0.971327
O O5 0.500000 0.790308 0.111058
O O6 0.745020 0.684368 0.118595
O O7 0.751699 0.857446 0.145997
O O8 0.500000 0.123973 0.654400
O O9 0.251754 0.142588 0.702108
O O10 0.284226 0.000000 0.645093
O O11 0.500000 0.615906 0.338270
O O12 0.276378 0.500000 0.326746
O O13 0.274704 0.671870 0.289631
O O14 0.243874 0.647462 0.379736
O O15 0.500000 0.376761 0.693204
O O16 0.716275 0.500000 0.702986
O O17 0.754274 0.315789 0.729549
O O18 0.000000 0.790342 0.736822
O O19 0.500000 0.854434 0.931386
O O20 0.680031 0.000000 0.926148
#
# Coordination Sequence:
#
# PCOD9373694 Si02
#       7
#     8   8   8   8   8   8   8
#     4  10  19  31  47  66  92 124 153 184 224 270
#     4  11  21  31  47  69  92 119 152 189 226 267
#     4  10  20  33  48  66  91 122 154 188 225 267
#     4   9  17  29  44  64  92 123 151 180 220 269
#     4  10  20  33  47  64  90 122 154 189 228 270
#     4  10  19  30  47  69  92 120 154 190 226 267
#     4   9  17  28  43  65  91 118 150 186 222 263
#
# _framework density 15.262229
#
# number of rings (size 3 to 8) (size 9 to 14) (size 15 to 20)
#    0.000    2.143    0.000    6.000    0.000    8.286 
#    0.000    1.429    0.000    0.000    0.000    1.000 
#    0.000    3.429    0.000    0.000    0.000    0.000 
#
# Total GULP energy -156207.854768 kJ/mol
# GULP energy per Si atom -5578.851956 kJ/mol
# Density = 1.522749 g / cm^3
# Si number density = 15.262229 Si / 1000 Ang^3
#
#
#
# Elastic Constant Matrix: (Units=GPa)
#
#
# Indices 1 2 3 4 5 6 
#
# 1 75.6242 44.4170 49.1560 0.0000 0.0000 0.0000
# 2 44.4170 86.0353 53.1681 0.0000 0.0000 0.0000
# 3 49.1560 53.1681 119.7359 0.0000 0.0000 0.0000
# 4 0.0000 0.0000 0.0000 22.6819 0.0000 0.0000
# 5 0.0000 0.0000 0.0000 0.0000 29.8876 0.0000
# 6 0.0000 0.0000 0.0000 0.0000 0.0000 15.5459
#
#
#
# Elastic Compliance Matrix: (Units=1/GPa)
#
#
# Indices 1 2 3 4 5 6 
#
# 1 0.021155 -0.007655 -0.005286 0.000000 0.000000 0.000000
# 2 -0.007655 0.018789 -0.005200 0.000000 0.000000 0.000000
# 3 -0.005286 -0.005200 0.012831 0.000000 0.000000 0.000000
# 4 0.000000 0.000000 0.000000 0.044088 0.000000 0.000000
# 5 0.000000 0.000000 0.000000 0.000000 0.033459 0.000000
# 6 0.000000 0.000000 0.000000 0.000000 0.000000 0.064326
#
#
# Mechanical properties :
#
#
# Convention : Reuss Voigt Hill
#
# Bulk Modulus (GPa) = 60.63391 63.87527 62.25459
# Shear Modulus (GPa) = 21.14812 22.60005 21.87408
#
# Velocity S-wave (km/s) = 3.72647 3.85227 3.78989
# Velocity P-wave (km/s) = 7.63739 7.85680 7.74788
#
# Compressibility (1/GPa) = 0.01649242
#
# Stress axis : x y z
#
# Youngs Moduli (GPa) = 47.26966 53.22265 77.93673
#
# Poissons Ratio (x) = 0.40743 0.41195
# Poissons Ratio (y) = 0.36186 0.40530
# Poissons Ratio (z) = 0.24986 0.27678
#
# Static dielectric constant tensor:
#      x y z
#    x 1.510630 0.000000 0.000000 
#    y 0.000000 1.493860 0.000000 
#    z 0.000000 0.000000 1.492840 
# 
# From -- ./inp_files/27235.got.cif
#   From: 2010.05.17/outbox.cif.g08.bks.cpg/sg44_14_cif.got.tgz:27235.got - 2010.06.03 19:37:08.
