data_PCOD9373681
_publ_section_title
;
Structure prediction by ZEFSAII (Michael W. Deem and Ramdas Pophale) SiO2 
 PCOD9373681
Probable space group: I M M 2
;
_chemical_formula_sum "Si O2"
_cell_formula_units_Z 64
_cell_length_a 7.901795
_cell_length_b 24.262784
_cell_length_c 19.759067
_cell_angle_alpha 90.000000
_cell_angle_beta 90.000000
_cell_angle_gamma 90.000000
_cell_volume 3788.199341
_symmetry_space_group_name_H-M "I M M 2"
_symmetry_group_IT_number 44
_symmetry_cell_setting 'orthorhombic'
loop_
_space_group_symop_operation_xyz
x,y,z
-x,-y,z
-x,y,z
x,-y,z
1/2+x,1/2+y,1/2+z
1/2-x,1/2-y,1/2+z
1/2-x,1/2+y,1/2+z
1/2+x,1/2-y,1/2+z
loop_
_atom_site_type_symbol
_atom_site_label
_atom_site_fract_x
_atom_site_fract_y
_atom_site_fract_z
Si Si1 0.203531 0.061778 0.951140
Si Si2 0.297450 0.562071 0.167168
Si Si3 0.799714 0.833398 0.586787
Si Si4 0.699172 0.275790 0.665739
Si Si5 0.295808 0.756593 0.810172
Si Si6 0.207514 0.835928 0.036486
Si Si7 0.202821 0.383560 0.309438
Si Si8 0.701614 0.773616 0.457111
O O1 0.242100 0.084273 0.876400
O O2 0.000000 0.059824 0.957654
O O3 0.270118 0.000000 0.960050
O O4 0.266333 0.106764 0.005089
O O5 0.500000 0.558682 0.158651
O O6 0.228523 0.500000 0.160332
O O7 0.235028 0.607917 0.113789
O O8 0.263820 0.586214 0.241771
O O9 0.716905 0.783834 0.629720
O O10 0.770159 0.819867 0.508083
O O11 0.000000 0.830367 0.600170
O O12 0.500000 0.287711 0.672378
O O13 0.770354 0.271032 0.741150
O O14 0.768040 0.319568 0.611455
O O15 0.500000 0.758934 0.805968
O O16 0.234692 0.820190 0.812689
O O17 0.250548 0.725378 0.878913
O O18 0.000000 0.836124 0.037039
O O19 0.259859 0.785486 0.987557
O O20 0.000000 0.382313 0.307475
O O21 0.500000 0.774987 0.462519
#
# Coordination Sequence:
#
# PCOD9373681 Si02
#       8
#     8   8   8   8   8   8   8   8
#     4  10  19  31  46  64  90 125 164 196 225 271
#     4  10  21  35  49  66  92 129 166 195 228 277
#     4  10  19  31  48  69  93 120 155 198 238 276
#     4   9  17  31  48  66  92 121 153 193 236 282
#     4  10  19  30  46  69  95 123 154 192 236 279
#     4   8  15  28  45  64  84 115 152 186 227 268
#     4  11  21  31  44  66  97 126 160 199 229 267
#     4  10  19  31  49  67  91 122 154 191 235 287
#
# _framework density 16.894569000000001
#
# number of rings (size 3 to 8) (size 9 to 14) (size 15 to 20)
#    0.000    2.250    2.500    2.250    0.000    3.500 
#    0.000    0.000    0.000    0.000    0.000    0.875 
#    0.000    5.000    0.000    0.000    0.000    0.000 
#
# Total GULP energy -178464.524815 kJ/mol
# GULP energy per Si atom -5577.016400 kJ/mol
# Density = 1.685612 g / cm^3
# Si number density = 16.894569 Si / 1000 Ang^3
#
#
#
# Elastic Constant Matrix: (Units=GPa)
#
#
# Indices 1 2 3 4 5 6 
#
# 1 13.5704 2.8443 -4.0604 0.0000 0.0000 0.0000
# 2 2.8443 120.3000 83.8887 0.0000 0.0000 0.0000
# 3 -4.0604 83.8887 148.6458 0.0000 0.0000 0.0000
# 4 0.0000 0.0000 0.0000 27.8071 0.0000 0.0000
# 5 0.0000 0.0000 0.0000 0.0000 16.1424 0.0000
# 6 0.0000 0.0000 0.0000 0.0000 0.0000 12.8073
#
#
#
# Elastic Compliance Matrix: (Units=1/GPa)
#
#
# Indices 1 2 3 4 5 6 
#
# 1 0.076348 -0.005374 0.005119 0.000000 0.000000 0.000000
# 2 -0.005374 0.014085 -0.008096 0.000000 0.000000 0.000000
# 3 0.005119 -0.008096 0.011436 0.000000 0.000000 0.000000
# 4 0.000000 0.000000 0.000000 0.035962 0.000000 0.000000
# 5 0.000000 0.000000 0.000000 0.000000 0.061949 0.000000
# 6 0.000000 0.000000 0.000000 0.000000 0.000000 0.078081
#
#
# Mechanical properties :
#
#
# Convention : Reuss Voigt Hill
#
# Bulk Modulus (GPa) = 11.74177 49.76237 30.75207
# Shear Modulus (GPa) = 15.48217 24.67428 20.07823
#
# Velocity S-wave (km/s) = 3.03049 3.82578 3.45112
# Velocity P-wave (km/s) = 4.38296 7.00243 5.84142
#
# Compressibility (1/GPa) = 0.08516600
#
# Stress axis : x y z
#
# Youngs Moduli (GPa) = 13.09791 70.99747 87.44260
#
# Poissons Ratio (x) = 0.38157 -0.44759
# Poissons Ratio (y) = 0.07039 0.70791
# Poissons Ratio (z) = -0.06704 0.57478
#
# Static dielectric constant tensor:
#      x y z
#    x 1.614090 0.000000 0.000000 
#    y 0.000000 1.574590 0.000000 
#    z 0.000000 0.000000 1.576180 
# 
# From -- ./inp_files/20851.got.cif
#   From: 2010.05.17/outbox.cif.g08.bks.cpg/sg44_11_cif.got.tgz:20851.got - 2010.06.03 19:37:08.
