data_PCOD9373741
_publ_section_title
;
Structure prediction by ZEFSAII (Michael W. Deem and Ramdas Pophale) SiO2 
 PCOD9373741
Probable space group: I M M 2
;
_chemical_formula_sum "Si O2"
_cell_formula_units_Z 64
_cell_length_a 17.468251
_cell_length_b 12.600209
_cell_length_c 16.535333
_cell_angle_alpha 90.000000
_cell_angle_beta 90.000000
_cell_angle_gamma 90.000000
_cell_volume 3639.486543
_symmetry_space_group_name_H-M "I M M 2"
_symmetry_group_IT_number 44
_symmetry_cell_setting 'orthorhombic'
loop_
_space_group_symop_operation_xyz
x,y,z
-x,-y,z
-x,y,z
x,-y,z
1/2+x,1/2+y,1/2+z
1/2-x,1/2-y,1/2+z
1/2-x,1/2+y,1/2+z
1/2+x,1/2-y,1/2+z
loop_
_atom_site_type_symbol
_atom_site_label
_atom_site_fract_x
_atom_site_fract_y
_atom_site_fract_z
Si Si1 0.655901 0.120704 0.640650
Si Si2 0.591186 0.622731 0.061978
Si Si3 0.408947 0.239320 0.484893
Si Si4 0.672217 0.876120 0.336076
Si Si5 0.177928 0.790716 0.411005
Si Si6 0.771785 0.879881 0.015869
Si Si7 0.298846 0.771638 0.164296
Si Si8 0.588274 0.881626 0.810944
O O1 0.619361 0.164583 0.558618
O O2 0.728660 0.188555 0.669677
O O3 0.596519 0.124176 0.714313
O O4 0.680443 0.000000 0.626904
O O5 0.500000 0.637251 0.063891
O O6 0.608296 0.500000 0.083754
O O7 0.633704 0.706487 0.120028
O O8 0.623837 0.646187 0.972431
O O9 0.500000 0.253066 0.485535
O O10 0.380744 0.185820 0.401002
O O11 0.360080 0.345805 0.503328
O O12 0.759215 0.864378 0.368942
O O13 0.673471 0.819650 0.248751
O O14 0.651072 0.000000 0.331039
O O15 0.225880 0.705936 0.463634
O O16 0.131711 0.717215 0.349274
O O17 0.737877 0.861207 0.105667
O O18 0.759490 0.000000 0.990566
O O19 0.500000 0.877107 0.835245
O O20 0.618335 0.000000 0.834269
#
# Coordination Sequence:
#
# PCOD9373741 Si02
#       8
#     8   8   8   8   8   8   8   8
#     4  10  19  34  56  79 106 144 184 226 273 322
#     4  10  21  37  58  83 112 146 183 226 274 325
#     4  10  22  37  55  82 113 144 183 229 276 325
#     4  11  22  36  57  82 109 144 185 228 274 328
#     4  10  19  35  55  80 112 143 180 227 271 325
#     4   9  19  35  57  78 103 144 187 224 269 326
#     4  10  20  36  56  80 109 142 185 229 271 322
#     4  10  19  30  50  81 114 145 178 222 274 325
#
# _framework density 17.584899
#
# number of rings (size 3 to 8) (size 9 to 14) (size 15 to 20)
#    0.000    2.000    1.250    3.375    0.000    2.250 
#    0.000    0.625    0.000    7.125    0.000    0.000 
#    0.000    0.000    0.000    0.000    0.000    0.000 
#
# Total GULP energy -178422.756426 kJ/mol
# GULP energy per Si atom -5575.711138 kJ/mol
# Density = 1.754487 g / cm^3
# Si number density = 17.584899 Si / 1000 Ang^3
#
#
#
# Elastic Constant Matrix: (Units=GPa)
#
#
# Indices 1 2 3 4 5 6 
#
# 1 87.1008 24.2812 25.4446 0.0000 0.0000 0.0000
# 2 24.2812 69.1723 19.6161 0.0000 0.0000 0.0000
# 3 25.4446 19.6161 98.7647 0.0000 0.0000 0.0000
# 4 0.0000 0.0000 0.0000 3.7544 0.0000 0.0000
# 5 0.0000 0.0000 0.0000 0.0000 22.5288 0.0000
# 6 0.0000 0.0000 0.0000 0.0000 0.0000 7.0273
#
#
#
# Elastic Compliance Matrix: (Units=1/GPa)
#
#
# Indices 1 2 3 4 5 6 
#
# 1 0.013354 -0.003934 -0.002659 0.000000 0.000000 0.000000
# 2 -0.003934 0.016478 -0.002259 0.000000 0.000000 0.000000
# 3 -0.002659 -0.002259 0.011259 0.000000 0.000000 0.000000
# 4 0.000000 0.000000 0.000000 0.266357 0.000000 0.000000
# 5 0.000000 0.000000 0.000000 0.000000 0.044388 0.000000
# 6 0.000000 0.000000 0.000000 0.000000 0.000000 0.142302
#
#
# Mechanical properties :
#
#
# Convention : Reuss Voigt Hill
#
# Bulk Modulus (GPa) = 42.75871 43.74684 43.25277
# Shear Modulus (GPa) = 9.62207 19.04181 14.33194
#
# Velocity S-wave (km/s) = 2.34172 3.29424 2.85794
# Velocity P-wave (km/s) = 5.62849 6.27701 5.96158
#
# Compressibility (1/GPa) = 0.02338705
#
# Stress axis : x y z
#
# Youngs Moduli (GPa) = 74.88192 60.68635 88.81855
#
# Poissons Ratio (x) = 0.23872 0.23619
# Poissons Ratio (y) = 0.29456 0.20068
# Poissons Ratio (z) = 0.19913 0.13711
#
# Static dielectric constant tensor:
#      x y z
#    x 1.593820 0.000000 0.000000 
#    y 0.000000 1.591030 0.000000 
#    z 0.000000 0.000000 1.607540 
# 
# From -- ./inp_files/17935.got.cif
#   From: 2010.05.17/outbox.cif.g08.bks.cpg/sg44_9_cif.got.tgz:17935.got - 2010.06.03 19:37:08.
