data_PCOD9373182
_publ_section_title
;
Structure prediction by ZEFSAII (Michael W. Deem and Ramdas Pophale) SiO2 
 PCOD9373182
Probable space group: I M M 2
;
_chemical_formula_sum "Si O2"
_cell_formula_units_Z 56
_cell_length_a 13.939001
_cell_length_b 7.937817
_cell_length_c 32.921548
_cell_angle_alpha 90.000000
_cell_angle_beta 90.000000
_cell_angle_gamma 90.000000
_cell_volume 3642.612550
_symmetry_space_group_name_H-M "I M M 2"
_symmetry_group_IT_number 44
_symmetry_cell_setting 'orthorhombic'
loop_
_space_group_symop_operation_xyz
x,y,z
-x,-y,z
-x,y,z
x,-y,z
1/2+x,1/2+y,1/2+z
1/2-x,1/2-y,1/2+z
1/2-x,1/2+y,1/2+z
1/2+x,1/2-y,1/2+z
loop_
_atom_site_type_symbol
_atom_site_label
_atom_site_fract_x
_atom_site_fract_y
_atom_site_fract_z
Si Si1 0.116142 0.000000 0.815318
Si Si2 0.609666 0.696782 0.080162
Si Si3 0.116483 0.000000 0.720310
Si Si4 0.892321 0.203157 0.414369
Si Si5 0.798988 0.696915 0.867676
Si Si6 0.608619 0.704019 0.451215
Si Si7 0.205745 0.300557 0.498024
Si Si8 0.116802 0.314806 0.666999
O O1 0.159169 0.832529 0.836358
O O2 0.140778 0.000000 0.767641
O O3 0.000000 0.000000 0.820173
O O4 0.500000 0.754320 0.072199
O O5 0.606065 0.500000 0.091037
O O6 0.647425 0.789094 0.120280
O O7 0.668434 0.719063 0.039125
O O8 0.149818 0.165472 0.696167
O O9 0.000000 0.000000 0.718560
O O10 0.808131 0.248717 0.382785
O O11 0.861539 0.263853 0.459150
O O12 0.000000 0.261121 0.404384
O O13 0.892435 0.000000 0.415756
O O14 0.798958 0.500000 0.854580
O O15 0.862718 0.713791 0.908501
O O16 0.500000 0.744562 0.462486
O O17 0.616040 0.500000 0.445933
O O18 0.688443 0.755262 0.483891
O O19 0.207191 0.500000 0.504718
O O20 0.144420 0.500000 0.681601
O O21 0.000000 0.306735 0.665879
#
# Coordination Sequence:
#
# PCOD9373182 Si02
#       8
#     4   8   4   8   8   8   8   8
#     4  11  22  34  49  69  97 125 160 204 239 277
#     4  10  18  28  42  60  89 125 154 183 224 273
#     4   9  18  32  46  65  91 119 151 190 234 277
#     4   9  18  32  47  64  92 127 158 194 240 282
#     4  10  20  33  49  70  93 122 162 198 235 286
#     4   9  17  31  47  60  85 125 161 197 238 273
#     4  10  19  27  39  65  92 117 159 201 229 269
#     4   9  16  28  46  65  87 118 153 183 220 276
#
# _framework density 15.373582000000001
#
# number of rings (size 3 to 8) (size 9 to 14) (size 15 to 20)
#    0.000    2.429    1.429    1.714    1.000    5.143 
#    0.000    1.429    0.000    0.000    0.000    0.000 
#    0.000    2.286    0.000    7.857    0.000    0.143 
#
# Total GULP energy -156065.879032 kJ/mol
# GULP energy per Si atom -5573.781394 kJ/mol
# Density = 1.533859 g / cm^3
# Si number density = 15.373582 Si / 1000 Ang^3
#
#
#
# Elastic Constant Matrix: (Units=GPa)
#
#
# Indices 1 2 3 4 5 6 
#
# 1 81.6472 23.8451 35.9101 0.0000 0.0000 0.0000
# 2 23.8451 80.2731 52.5832 0.0000 0.0000 0.0000
# 3 35.9101 52.5832 98.3330 0.0000 0.0000 0.0000
# 4 0.0000 0.0000 0.0000 14.1338 0.0000 0.0000
# 5 0.0000 0.0000 0.0000 0.0000 15.5139 0.0000
# 6 0.0000 0.0000 0.0000 0.0000 0.0000 16.1052
#
#
#
# Elastic Compliance Matrix: (Units=1/GPa)
#
#
# Indices 1 2 3 4 5 6 
#
# 1 0.014680 -0.001307 -0.004662 0.000000 0.000000 0.000000
# 2 -0.001307 0.019290 -0.009838 0.000000 0.000000 0.000000
# 3 -0.004662 -0.009838 0.017133 0.000000 0.000000 0.000000
# 4 0.000000 0.000000 0.000000 0.070752 0.000000 0.000000
# 5 0.000000 0.000000 0.000000 0.000000 0.064458 0.000000
# 6 0.000000 0.000000 0.000000 0.000000 0.000000 0.062092
#
#
# Mechanical properties :
#
#
# Convention : Reuss Voigt Hill
#
# Bulk Modulus (GPa) = 51.31086 53.88113 52.59600
# Shear Modulus (GPa) = 17.45102 19.01156 18.23129
#
# Velocity S-wave (km/s) = 3.37282 3.52040 3.44740
# Velocity P-wave (km/s) = 6.97254 7.18667 7.08042
#
# Compressibility (1/GPa) = 0.01948905
#
# Stress axis : x y z
#
# Youngs Moduli (GPa) = 68.12001 51.83998 58.36678
#
# Poissons Ratio (x) = 0.06774 0.27212
# Poissons Ratio (y) = 0.08901 0.57422
# Poissons Ratio (z) = 0.31759 0.51001
#
# Static dielectric constant tensor:
#      x y z
#    x 1.515920 0.000000 0.000000 
#    y 0.000000 1.547610 0.000000 
#    z 0.000000 0.000000 1.486240 
# 
# From -- ./inp_files/27489.got.cif
#   From: 2010.05.17/outbox.cif.g08.bks.cpg/sg44_14_cif.got.tgz:27489.got - 2010.06.03 19:37:08.
