data_PCOD9373313
_publ_section_title
;
Structure prediction by ZEFSAII (Michael W. Deem and Ramdas Pophale) SiO2 
 PCOD9373313
Probable space group: I M M 2
;
_chemical_formula_sum "Si O2"
_cell_formula_units_Z 64
_cell_length_a 7.550087
_cell_length_b 23.978320
_cell_length_c 19.978727
_cell_angle_alpha 90.000000
_cell_angle_beta 90.000000
_cell_angle_gamma 90.000000
_cell_volume 3616.916812
_symmetry_space_group_name_H-M "I M M 2"
_symmetry_group_IT_number 44
_symmetry_cell_setting 'orthorhombic'
loop_
_space_group_symop_operation_xyz
x,y,z
-x,-y,z
-x,y,z
x,-y,z
1/2+x,1/2+y,1/2+z
1/2-x,1/2-y,1/2+z
1/2-x,1/2+y,1/2+z
1/2+x,1/2-y,1/2+z
loop_
_atom_site_type_symbol
_atom_site_label
_atom_site_fract_x
_atom_site_fract_y
_atom_site_fract_z
Si Si1 0.289110 0.437461 0.320160
Si Si2 0.704938 0.276659 0.105800
Si Si3 0.292359 0.719945 0.818773
Si Si4 0.718222 0.248570 0.961440
Si Si5 0.709893 0.332447 0.685144
Si Si6 0.784150 0.168090 0.739520
Si Si7 0.213467 0.563038 0.598930
Si Si8 0.213338 0.619498 0.461465
O O1 0.500000 0.440557 0.309474
O O2 0.216460 0.500000 0.313695
O O3 0.221839 0.390842 0.268380
O O4 0.261697 0.413752 0.394707
O O5 0.500000 0.293056 0.098962
O O6 0.710989 0.213503 0.134666
O O7 0.779891 0.314859 0.165378
O O8 0.780315 0.275121 0.031222
O O9 0.500000 0.706629 0.825046
O O10 0.220191 0.721065 0.893886
O O11 0.219691 0.680648 0.759687
O O12 0.273880 0.782456 0.789243
O O13 0.500000 0.248418 0.961807
O O14 0.773646 0.183667 0.958853
O O15 0.500000 0.321374 0.685594
O O16 0.740578 0.393818 0.657366
O O17 0.000000 0.169037 0.739112
O O18 0.277734 0.500000 0.608491
O O19 0.277743 0.588897 0.528551
O O20 0.000000 0.561137 0.595233
O O21 0.000000 0.620898 0.464619
#
# Coordination Sequence:
#
# PCOD9373313 Si02
#       8
#     8   8   8   8   8   8   8   8
#     4  10  20  31  41  59  90 121 146 176 215 253
#     4   9  16  29  47  63  82 110 147 182 213 251
#     4   9  17  29  44  63  86 111 138 173 217 257
#     4   9  15  26  46  66  84 110 141 175 212 251
#     4  10  19  29  43  64  89 114 140 175 219 261
#     4   9  17  28  43  62  82 111 146 178 211 250
#     4  10  20  33  47  62  84 116 153 185 208 239
#     4  10  18  30  46  63  84 114 152 182 203 240
#
# _framework density 17.694628999999999
#
# number of rings (size 3 to 8) (size 9 to 14) (size 15 to 20)
#    0.000    2.500    2.500    0.750    0.000    2.000 
#    0.000    0.625    0.000    0.000    0.000    0.875 
#    0.000    5.000    0.000    0.625    0.000    1.375 
#
# Total GULP energy -178457.517723 kJ/mol
# GULP energy per Si atom -5576.797429 kJ/mol
# Density = 1.765435 g / cm^3
# Si number density = 17.694629 Si / 1000 Ang^3
#
#
#
# Elastic Constant Matrix: (Units=GPa)
#
#
# Indices 1 2 3 4 5 6 
#
# 1 41.7272 -3.5670 -2.1146 0.0000 0.0000 0.0000
# 2 -3.5670 99.5905 74.4006 0.0000 0.0000 0.0000
# 3 -2.1146 74.4006 178.1889 0.0000 0.0000 0.0000
# 4 0.0000 0.0000 0.0000 19.5594 0.0000 0.0000
# 5 0.0000 0.0000 0.0000 0.0000 9.3618 0.0000
# 6 0.0000 0.0000 0.0000 0.0000 0.0000 15.5471
#
#
#
# Elastic Compliance Matrix: (Units=1/GPa)
#
#
# Indices 1 2 3 4 5 6 
#
# 1 0.024040 0.000942 -0.000108 0.000000 0.000000 0.000000
# 2 0.000942 0.014630 -0.006097 0.000000 0.000000 0.000000
# 3 -0.000108 -0.006097 0.008157 0.000000 0.000000 0.000000
# 4 0.000000 0.000000 0.000000 0.051126 0.000000 0.000000
# 5 0.000000 0.000000 0.000000 0.000000 0.106817 0.000000
# 6 0.000000 0.000000 0.000000 0.000000 0.000000 0.064321
#
#
# Mechanical properties :
#
#
# Convention : Reuss Voigt Hill
#
# Bulk Modulus (GPa) = 27.54853 50.77162 39.16008
# Shear Modulus (GPa) = 17.13984 25.61284 21.37634
#
# Velocity S-wave (km/s) = 3.11569 3.80872 3.47950
# Velocity P-wave (km/s) = 5.34285 6.93522 6.19045
#
# Compressibility (1/GPa) = 0.03629957
#
# Stress axis : x y z
#
# Youngs Moduli (GPa) = 41.59695 68.35270 122.59955
#
# Poissons Ratio (x) = -0.06436 0.01322
# Poissons Ratio (y) = -0.03917 0.74754
# Poissons Ratio (z) = 0.00449 0.41677
#
# Static dielectric constant tensor:
#      x y z
#    x 1.679070 0.000000 0.000000 
#    y 0.000000 1.582390 0.000000 
#    z 0.000000 0.000000 1.626530 
# 
# From -- ./inp_files/20900.got.cif
#   From: 2010.05.17/outbox.cif.g08.bks.cpg/sg44_11_cif.got.tgz:20900.got - 2010.06.03 19:37:08.
