data_PCOD9373937
_publ_section_title
;
Structure prediction by ZEFSAII (Michael W. Deem and Ramdas Pophale) SiO2 
 PCOD9373937
Probable space group: I M M 2
;
_chemical_formula_sum "Si O2"
_cell_formula_units_Z 48
_cell_length_a 7.999658
_cell_length_b 8.883647
_cell_length_c 35.458334
_cell_angle_alpha 90.000000
_cell_angle_beta 90.000000
_cell_angle_gamma 90.000000
_cell_volume 2519.886850
_symmetry_space_group_name_H-M "I M M 2"
_symmetry_group_IT_number 44
_symmetry_cell_setting 'orthorhombic'
loop_
_space_group_symop_operation_xyz
x,y,z
-x,-y,z
-x,y,z
x,-y,z
1/2+x,1/2+y,1/2+z
1/2-x,1/2-y,1/2+z
1/2-x,1/2+y,1/2+z
1/2+x,1/2-y,1/2+z
loop_
_atom_site_type_symbol
_atom_site_label
_atom_site_fract_x
_atom_site_fract_y
_atom_site_fract_z
Si Si1 0.803492 0.680115 0.860170
Si Si2 0.299500 0.326910 0.280560
Si Si3 0.500000 0.181364 0.907167
Si Si4 0.198139 0.326931 0.199374
Si Si5 0.315552 0.316073 0.543814
Si Si6 0.195727 0.327699 0.623451
Si Si7 0.000000 0.316614 0.494818
O O1 0.793086 0.500000 0.862929
O O2 0.758499 0.733257 0.817755
O O3 0.667571 0.755445 0.887446
O O4 0.000000 0.723309 0.867048
O O5 0.500000 0.332072 0.278154
O O6 0.237236 0.500000 0.284763
O O7 0.236671 0.262301 0.240770
O O8 0.500000 0.226113 0.951160
O O9 0.500000 0.000000 0.904390
O O10 0.256467 0.500000 0.200994
O O11 0.279091 0.251438 0.163202
O O12 0.000000 0.323849 0.193736
O O13 0.500000 0.273942 0.530300
O O14 0.307500 0.500000 0.545179
O O15 0.288825 0.263181 0.586898
O O16 0.165367 0.265666 0.517072
O O17 0.252115 0.500000 0.628321
O O18 0.000000 0.328057 0.613548
O O19 0.000000 0.500000 0.495900
#
# Coordination Sequence:
#
# PCOD9373937 Si02
#       7
#     8   8   4   8   8   8   4
#     4  10  22  40  61  86 118 155 194 240 295 354
#     4   9  18  34  55  78 106 143 188 236 287 340
#     4  11  23  37  61  91 121 153 193 245 297 359
#     4  10  21  34  49  75 111 147 185 230 278 332
#     4   9  16  29  51  77 109 145 179 226 284 334
#     4  10  19  32  52  77 107 143 187 234 278 330
#     4   9  18  33  51  81 115 143 183 233 285 343
#
# _framework density 19.048473999999999
#
# number of rings (size 3 to 8) (size 9 to 14) (size 15 to 20)
#    0.000    2.333    0.833    1.750    1.167    4.333 
#    0.000    3.333    0.000    2.000    0.000    2.333 
#    0.000    0.000    0.000    0.000    0.000    0.000 
#
# Total GULP energy -133868.813048 kJ/mol
# GULP energy per Si atom -5577.867210 kJ/mol
# Density = 1.900512 g / cm^3
# Si number density = 19.048474 Si / 1000 Ang^3
#
#
#
# Elastic Constant Matrix: (Units=GPa)
#
#
# Indices 1 2 3 4 5 6 
#
# 1 106.9968 26.4435 78.5130 0.0000 0.0000 0.0000
# 2 26.4435 31.6509 32.9272 0.0000 0.0000 0.0000
# 3 78.5130 32.9272 149.6807 0.0000 0.0000 0.0000
# 4 0.0000 0.0000 0.0000 17.8247 0.0000 0.0000
# 5 0.0000 0.0000 0.0000 0.0000 14.6674 0.0000
# 6 0.0000 0.0000 0.0000 0.0000 0.0000 19.2574
#
#
#
# Elastic Compliance Matrix: (Units=1/GPa)
#
#
# Indices 1 2 3 4 5 6 
#
# 1 0.016034 -0.006025 -0.007085 0.000000 0.000000 0.000000
# 2 -0.006025 0.043235 -0.006350 0.000000 0.000000 0.000000
# 3 -0.007085 -0.006350 0.011794 0.000000 0.000000 0.000000
# 4 0.000000 0.000000 0.000000 0.056102 0.000000 0.000000
# 5 0.000000 0.000000 0.000000 0.000000 0.068178 0.000000
# 6 0.000000 0.000000 0.000000 0.000000 0.000000 0.051928
#
#
# Mechanical properties :
#
#
# Convention : Reuss Voigt Hill
#
# Bulk Modulus (GPa) = 31.11205 62.67730 46.89467
# Shear Modulus (GPa) = 16.84027 20.37956 18.60992
#
# Velocity S-wave (km/s) = 2.97656 3.27445 3.12905
# Velocity P-wave (km/s) = 5.30865 6.87543 6.14220
#
# Compressibility (1/GPa) = 0.03214189
#
# Stress axis : x y z
#
# Youngs Moduli (GPa) = 62.36712 23.12928 84.78720
#
# Poissons Ratio (x) = 0.13936 0.60072
# Poissons Ratio (y) = 0.37578 0.53844
# Poissons Ratio (z) = 0.44187 0.14688
#
# Static dielectric constant tensor:
#      x y z
#    x 1.674780 0.000000 0.000000 
#    y 0.000000 1.665240 0.000000 
#    z 0.000000 0.000000 1.653460 
# 
# From -- ./inp_files/26926.got.cif
#   From: 2010.05.17/outbox.cif.g08.bks.cpg/sg44_14_cif.got.tgz:26926.got - 2010.06.03 19:37:08.
