data_PCOD9373769
_publ_section_title
;
Structure prediction by ZEFSAII (Michael W. Deem and Ramdas Pophale) SiO2 
 PCOD9373769
Probable space group: I M M 2
;
_chemical_formula_sum "Si O2"
_cell_formula_units_Z 40
_cell_length_a 13.306689
_cell_length_b 25.348652
_cell_length_c 5.012906
_cell_angle_alpha 90.000000
_cell_angle_beta 90.000000
_cell_angle_gamma 90.000000
_cell_volume 1690.886423
_symmetry_space_group_name_H-M "I M M 2"
_symmetry_group_IT_number 44
_symmetry_cell_setting 'orthorhombic'
loop_
_space_group_symop_operation_xyz
x,y,z
-x,-y,z
-x,y,z
x,-y,z
1/2+x,1/2+y,1/2+z
1/2-x,1/2-y,1/2+z
1/2-x,1/2+y,1/2+z
1/2+x,1/2-y,1/2+z
loop_
_atom_site_type_symbol
_atom_site_label
_atom_site_fract_x
_atom_site_fract_y
_atom_site_fract_z
Si Si1 0.332448 0.561196 0.224240
Si Si2 0.605581 0.056603 0.670674
Si Si3 0.679694 0.254997 0.570920
Si Si4 0.166737 0.867788 0.191892
Si Si5 0.394130 0.155199 0.283160
O O1 0.365553 0.500000 0.187694
O O2 0.213826 0.558109 0.305072
O O3 0.377538 0.594535 0.465376
O O4 0.341380 0.598241 0.963065
O O5 0.500000 0.057414 0.829755
O O6 0.601778 0.104286 0.469574
O O7 0.607068 0.000000 0.524194
O O8 0.748392 0.265062 0.308495
O O9 0.625233 0.308076 0.673212
O O10 0.613391 0.206595 0.469520
O O11 0.285705 0.852819 0.148427
O O12 0.500000 0.159337 0.127620
#
# Coordination Sequence:
#
# PCOD9373769 Si02
#       5
#     8   8   8   8   8
#     4  10  19  31  48  69  93 123 162 204 243 293
#     4   8  14  25  40  59  86 120 154 188 227 269
#     4  10  19  33  50  69  96 133 171 208 257 307
#     4  10  19  32  48  68  97 129 161 203 251 296
#     4   9  18  31  48  71  98 131 172 210 245 296
#
# _framework density 23.656229
#
# number of rings (size 3 to 8) (size 9 to 14) (size 15 to 20)
#    0.000    2.600    0.000    4.200    0.000    1.600 
#    0.000   10.000    0.000    4.800    0.000    0.000 
#    0.000    4.800    0.000    1.400    0.000    1.200 
#
# Total GULP energy -111359.012456 kJ/mol
# GULP energy per Si atom -5567.950623 kJ/mol
# Density = 2.360239 g / cm^3
# Si number density = 23.656229 Si / 1000 Ang^3
#
#
#
# Elastic Constant Matrix: (Units=GPa)
#
#
# Indices 1 2 3 4 5 6 
#
# 1 61.0500 15.1868 13.7410 -0.0013 -0.0009 0.0206
# 2 15.1868 239.0609 52.6723 -0.0082 -0.0065 -0.0286
# 3 13.7410 52.6723 95.0864 0.0450 -0.0824 -0.0180
# 4 -0.0013 -0.0082 0.0450 31.4983 -0.0416 -0.0325
# 5 -0.0009 -0.0065 -0.0824 -0.0416 -4.7371 0.0334
# 6 0.0206 -0.0286 -0.0180 -0.0325 0.0334 65.3153
#
#
#
# Elastic Compliance Matrix: (Units=1/GPa)
#
#
# Indices 1 2 3 4 5 6 
#
# 1 0.017009 -0.000614 -0.002118 0.000004 0.000034 -0.000006
# 2 -0.000614 0.004787 -0.002563 0.000005 0.000038 0.000002
# 3 -0.002118 -0.002563 0.012242 -0.000019 -0.000209 0.000003
# 4 0.000004 0.000005 -0.000019 0.031747 -0.000279 0.000016
# 5 0.000034 0.000038 -0.000209 -0.000279 -0.211094 0.000108
# 6 -0.000006 0.000002 0.000003 0.000016 0.000108 0.015310
#
#
# Mechanical properties :
#
#
# Convention : Reuss Voigt Hill
#
# Bulk Modulus (GPa) = 42.64556 62.04416 52.34486
# Shear Modulus (GPa) = -44.80602 39.32179 -2.74211
#
# Velocity S-wave (km/s) = -4.35679 4.08145 -1.07781
# Velocity P-wave (km/s) = 2.69118 6.96386 4.54164
#
# Compressibility (1/GPa) = 0.02344910
#
# Stress axis : x y z
#
# Youngs Moduli (GPa) = 58.79087 208.91224 81.68403
#
# Poissons Ratio (x) = 0.12825 0.17300
# Poissons Ratio (y) = 0.03609 0.20934
# Poissons Ratio (z) = 0.12452 0.53540
#
# Static dielectric constant tensor:
#      x y z
#    x 2.045080 0.000000 0.000020 
#    y 0.000000 1.942110 -0.000060 
#    z 0.000020 -0.000060 1.851910 
# 
# From -- ./inp_files/1482.got.cif
#   From: 2010.05.17/outbox.cif.g08.bks.cpg/sg44_1_cif.got.tgz:1482.got - 2010.06.03 19:37:08.
