data_PCOD9373172
_publ_section_title
;
Structure prediction by ZEFSAII (Michael W. Deem and Ramdas Pophale) SiO2 
 PCOD9373172
Probable space group: I M M 2
;
_chemical_formula_sum "Si O2"
_cell_formula_units_Z 56
_cell_length_a 21.339584
_cell_length_b 14.648906
_cell_length_c 7.420414
_cell_angle_alpha 90.000000
_cell_angle_beta 90.000000
_cell_angle_gamma 90.000000
_cell_volume 2319.632993
_symmetry_space_group_name_H-M "I M M 2"
_symmetry_group_IT_number 44
_symmetry_cell_setting 'orthorhombic'
loop_
_space_group_symop_operation_xyz
x,y,z
-x,-y,z
-x,y,z
x,-y,z
1/2+x,1/2+y,1/2+z
1/2-x,1/2-y,1/2+z
1/2-x,1/2+y,1/2+z
1/2+x,1/2-y,1/2+z
loop_
_atom_site_type_symbol
_atom_site_label
_atom_site_fract_x
_atom_site_fract_y
_atom_site_fract_z
Si Si1 0.663182 0.351697 0.233580
Si Si2 0.698520 0.860886 0.806236
Si Si3 0.069414 0.347580 0.211910
Si Si4 0.810479 0.361049 0.736381
Si Si5 0.675895 0.356135 0.828347
Si Si6 0.072188 0.856413 0.052226
Si Si7 0.566693 0.102677 0.111585
O O1 0.732426 0.394318 0.256144
O O2 0.679273 0.245755 0.273791
O O3 0.605672 0.375373 0.361656
O O4 0.647754 0.362176 0.025700
O O5 0.637723 0.895234 0.696242
O O6 0.690621 0.750727 0.781784
O O7 0.695817 0.877283 0.020709
O O8 0.070116 0.251828 0.104909
O O9 0.071443 0.333591 0.433707
O O10 0.000000 0.389002 0.179526
O O11 0.746489 0.395361 0.821734
O O12 0.880201 0.396986 0.761823
O O13 0.624656 0.392977 0.691129
O O14 0.000000 0.888046 0.062962
O O15 0.500000 0.122668 0.197855
O O16 0.566404 0.000000 0.034537
#
# Coordination Sequence:
#
# PCOD9373172 Si02
#       7
#     8   8   8   8   8   8   8
#     4  10  18  27  44  68  92 122 155 187 235 294
#     4   8  14  25  41  61  87 114 148 188 228 283
#     4   8  15  26  42  64  89 123 162 201 241 281
#     4   9  16  27  44  65  89 120 160 199 240 283
#     4   9  17  27  42  64  91 119 152 186 229 290
#     4  10  19  30  43  65  97 124 152 191 233 289
#     4   9  17  30  48  69  94 130 177 223 259 282
#
# _framework density 24.141750999999999
#
# number of rings (size 3 to 8) (size 9 to 14) (size 15 to 20)
#    0.000    3.000    1.429    0.857    6.000    1.143 
#    0.000    1.429    0.000    0.857    0.000    2.000 
#    0.000    0.571    0.000    0.143    0.000    0.429 
#
# Total GULP energy -155910.563308 kJ/mol
# GULP energy per Si atom -5568.234404 kJ/mol
# Density = 2.408680 g / cm^3
# Si number density = 24.141751 Si / 1000 Ang^3
#
#
#
# Elastic Constant Matrix: (Units=GPa)
#
#
# Indices 1 2 3 4 5 6 
#
# 1 229.6840 15.0700 56.6157 0.0000 0.0000 0.0000
# 2 15.0700 69.1916 6.5817 0.0000 0.0000 0.0000
# 3 56.6157 6.5817 75.8494 0.0000 0.0000 0.0000
# 4 0.0000 0.0000 0.0000 -6.5718 0.0000 0.0000
# 5 0.0000 0.0000 0.0000 0.0000 24.0574 0.0000
# 6 0.0000 0.0000 0.0000 0.0000 0.0000 231.3696
#
#
#
# Elastic Compliance Matrix: (Units=1/GPa)
#
#
# Indices 1 2 3 4 5 6 
#
# 1 0.005379 -0.000796 -0.003946 0.000000 0.000000 0.000000
# 2 -0.000796 0.014691 -0.000681 0.000000 0.000000 0.000000
# 3 -0.003946 -0.000681 0.016188 0.000000 0.000000 0.000000
# 4 0.000000 0.000000 0.000000 -0.152165 0.000000 0.000000
# 5 0.000000 0.000000 0.000000 0.000000 0.041567 0.000000
# 6 0.000000 0.000000 0.000000 0.000000 0.000000 0.004322
#
#
# Mechanical properties :
#
#
# Convention : Reuss Voigt Hill
#
# Bulk Modulus (GPa) = 39.34999 59.02886 49.18943
# Shear Modulus (GPa) = -98.61435 69.53487 -14.53974
#
# Velocity S-wave (km/s) = -6.39818 5.37264 -2.45677
# Velocity P-wave (km/s) = 6.18445 7.93669 3.51736
#
# Compressibility (1/GPa) = 0.02541297
#
# Stress axis : x y z
#
# Youngs Moduli (GPa) = 185.92130 68.07004 61.77345
#
# Poissons Ratio (x) = 0.05419 0.24374
# Poissons Ratio (y) = 0.14802 0.04204
# Poissons Ratio (z) = 0.73358 0.04632
#
# Static dielectric constant tensor:
#      x y z
#    x 2.067630 0.000000 0.000000 
#    y 0.000000 2.021960 0.000000 
#    z 0.000000 0.000000 1.911550 
# 
# From -- ./inp_files/8492.got.cif
#   From: 2010.05.17/outbox.cif.g08.bks.cpg/sg44_5_cif.got.tgz:8492.got - 2010.06.03 19:37:08.
