data_PCOD9373356
_publ_section_title
;
Structure prediction by ZEFSAII (Michael W. Deem and Ramdas Pophale) SiO2 
 PCOD9373356
Probable space group: I M M 2
;
_chemical_formula_sum "Si O2"
_cell_formula_units_Z 64
_cell_length_a 7.666575
_cell_length_b 25.992924
_cell_length_c 15.379549
_cell_angle_alpha 90.000000
_cell_angle_beta 90.000000
_cell_angle_gamma 90.000000
_cell_volume 3064.785792
_symmetry_space_group_name_H-M "I M M 2"
_symmetry_group_IT_number 44
_symmetry_cell_setting 'orthorhombic'
loop_
_space_group_symop_operation_xyz
x,y,z
-x,-y,z
-x,y,z
x,-y,z
1/2+x,1/2+y,1/2+z
1/2-x,1/2-y,1/2+z
1/2-x,1/2+y,1/2+z
1/2+x,1/2-y,1/2+z
loop_
_atom_site_type_symbol
_atom_site_label
_atom_site_fract_x
_atom_site_fract_y
_atom_site_fract_z
Si Si1 0.286388 0.149828 0.378060
Si Si2 0.296676 0.773445 0.059743
Si Si3 0.213644 0.386427 0.579175
Si Si4 0.300205 0.158577 0.574796
Si Si5 0.705231 0.942239 0.906323
Si Si6 0.298252 0.364679 0.261880
Si Si7 0.213015 0.442042 0.754216
Si Si8 0.287924 0.264174 0.358360
O O1 0.500000 0.149735 0.379264
O O2 0.226368 0.148107 0.478548
O O3 0.228888 0.101188 0.322393
O O4 0.234345 0.205406 0.339103
O O5 0.500000 0.768147 0.084036
O O6 0.228226 0.827735 0.094499
O O7 0.208504 0.720342 0.086540
O O8 0.278028 0.776696 0.955232
O O9 0.276156 0.408803 0.487020
O O10 0.263221 0.423391 0.657979
O O11 0.000000 0.383623 0.577215
O O12 0.500000 0.142021 0.573552
O O13 0.217008 0.132631 0.658526
O O14 0.500000 0.947114 0.924958
O O15 0.719587 0.910958 0.817041
O O16 0.778676 0.000000 0.901900
O O17 0.500000 0.365112 0.285858
O O18 0.227080 0.309432 0.294890
O O19 0.271840 0.500000 0.772322
O O20 0.000000 0.442320 0.756239
O O21 0.500000 0.263908 0.360199
#
# Coordination Sequence:
#
# PCOD9373356 Si02
#       8
#     8   8   8   8   8   8   8   8
#     4   8  16  31  49  70 101 138 175 219 269 317
#     4  10  18  30  51  79 110 142 178 215 263 323
#     4   9  17  28  47  78 113 143 173 214 265 326
#     4  10  21  36  52  74 110 148 184 227 280 332
#     4  10  20  36  56  79 112 151 186 225 278 336
#     4  11  22  35  55  81 108 143 189 234 281 332
#     4   9  16  27  47  75 104 135 174 218 262 313
#     4   9  18  32  50  73 105 142 176 216 270 328
#
# _framework density 20.882372
#
# number of rings (size 3 to 8) (size 9 to 14) (size 15 to 20)
#    0.000    2.500    1.250    2.250    1.750    2.250 
#    0.000    0.625    0.000    2.250    0.000    0.000 
#    0.000   16.750    0.000    0.000    0.000    0.000 
#
# Total GULP energy -178592.871529 kJ/mol
# GULP energy per Si atom -5581.027235 kJ/mol
# Density = 2.083484 g / cm^3
# Si number density = 20.882372 Si / 1000 Ang^3
#
#
#
# Elastic Constant Matrix: (Units=GPa)
#
#
# Indices 1 2 3 4 5 6 
#
# 1 32.9018 -1.4849 -4.7286 0.0000 0.0000 0.0000
# 2 -1.4849 120.6704 45.3206 0.0000 0.0000 0.0000
# 3 -4.7286 45.3206 71.0548 0.0001 0.0000 0.0000
# 4 0.0000 0.0000 0.0001 28.1709 0.0000 0.0000
# 5 0.0000 0.0000 0.0000 0.0000 6.8132 0.0000
# 6 0.0000 0.0000 0.0000 0.0000 0.0000 10.7446
#
#
#
# Elastic Compliance Matrix: (Units=1/GPa)
#
#
# Indices 1 2 3 4 5 6 
#
# 1 0.030711 -0.000512 0.002371 0.000000 0.000000 0.000000
# 2 -0.000512 0.010906 -0.006990 0.000000 0.000000 0.000000
# 3 0.002371 -0.006990 0.018690 0.000000 0.000000 0.000000
# 4 0.000000 0.000000 0.000000 0.035498 0.000000 0.000000
# 5 0.000000 0.000000 0.000000 0.000000 0.146774 0.000000
# 6 0.000000 0.000000 0.000000 0.000000 0.000000 0.093070
#
#
# Mechanical properties :
#
#
# Convention : Reuss Voigt Hill
#
# Bulk Modulus (GPa) = 19.98282 33.64902 26.81592
# Shear Modulus (GPa) = 13.78951 21.51372 17.65162
#
# Velocity S-wave (km/s) = 2.57250 3.21321 2.91054
# Velocity P-wave (km/s) = 4.29112 5.46945 4.91572
#
# Compressibility (1/GPa) = 0.05004298
#
# Stress axis : x y z
#
# Youngs Moduli (GPa) = 32.56152 91.69180 53.50452
#
# Poissons Ratio (x) = 0.04699 -0.12684
# Poissons Ratio (y) = 0.01669 0.37401
# Poissons Ratio (z) = -0.07719 0.64095
#
# Static dielectric constant tensor:
#      x y z
#    x 1.779450 0.000000 0.000000 
#    y 0.000000 1.739110 0.000000 
#    z 0.000000 0.000000 1.725980 
# 
# From -- ./inp_files/16878.got.cif
#   From: 2010.05.17/outbox.cif.g08.bks.cpg/sg44_9_cif.got.tgz:16878.got - 2010.06.03 19:37:08.
