data_PCOD9373640
_publ_section_title
;
Structure prediction by ZEFSAII (Michael W. Deem and Ramdas Pophale) SiO2 
 PCOD9373640
Probable space group: I M M 2
;
_chemical_formula_sum "Si O2"
_cell_formula_units_Z 56
_cell_length_a 8.773882
_cell_length_b 19.353626
_cell_length_c 18.167853
_cell_angle_alpha 90.000000
_cell_angle_beta 90.000000
_cell_angle_gamma 90.000000
_cell_volume 3085.018273
_symmetry_space_group_name_H-M "I M M 2"
_symmetry_group_IT_number 44
_symmetry_cell_setting 'orthorhombic'
loop_
_space_group_symop_operation_xyz
x,y,z
-x,-y,z
-x,y,z
x,-y,z
1/2+x,1/2+y,1/2+z
1/2-x,1/2-y,1/2+z
1/2-x,1/2+y,1/2+z
1/2+x,1/2-y,1/2+z
loop_
_atom_site_type_symbol
_atom_site_label
_atom_site_fract_x
_atom_site_fract_y
_atom_site_fract_z
Si Si1 0.316679 0.289542 0.545650
Si Si2 0.817371 0.420237 0.630170
Si Si3 0.674685 0.792545 0.689689
Si Si4 0.676488 0.647190 0.771966
Si Si5 0.820032 0.191071 0.431333
Si Si6 0.823873 0.578440 0.029961
Si Si7 0.179626 0.074387 0.690907
O O1 0.500000 0.292802 0.545507
O O2 0.253307 0.363137 0.574455
O O3 0.271180 0.233695 0.609275
O O4 0.256051 0.258497 0.468856
O O5 0.774170 0.500000 0.614141
O O6 0.763080 0.400280 0.712952
O O7 0.000000 0.414598 0.626595
O O8 0.500000 0.815943 0.683261
O O9 0.676049 0.723220 0.736533
O O10 0.770527 0.853708 0.726166
O O11 0.500000 0.623133 0.777251
O O12 0.739638 0.661425 0.853418
O O13 0.786273 0.128927 0.487047
O O14 0.000000 0.204307 0.422870
O O15 0.814188 0.500000 0.001545
O O16 0.000000 0.601697 0.023736
O O17 0.772664 0.575836 0.114662
O O18 0.000000 0.076478 0.675647
O O19 0.212322 0.000000 0.727628
#
# Coordination Sequence:
#
# PCOD9373640 Si02
#       7
#     8   8   8   8   8   8   8
#     4  10  20  34  55  80 106 139 178 223 273 323
#     4  10  21  37  58  84 111 142 184 231 277 327
#     4   9  17  32  51  71  98 130 169 213 255 309
#     4   9  21  37  53  76 106 141 178 218 269 328
#     4  11  21  34  53  77 107 142 180 223 270 320
#     4  10  20  32  46  68 101 138 171 204 246 300
#     4  10  19  29  45  71  99 127 162 205 251 297
#
# _framework density 18.152242000000001
#
# number of rings (size 3 to 8) (size 9 to 14) (size 15 to 20)
#    0.000    2.143    1.429    3.000    0.000    6.857 
#    0.000    2.857    0.000    0.857    0.000    2.000 
#    0.000    0.000    0.000    0.000    0.000    0.000 
#
# Total GULP energy -155970.052592 kJ/mol
# GULP energy per Si atom -5570.359021 kJ/mol
# Density = 1.811093 g / cm^3
# Si number density = 18.152242 Si / 1000 Ang^3
#
#
#
# Elastic Constant Matrix: (Units=GPa)
#
#
# Indices 1 2 3 4 5 6 
#
# 1 46.0513 33.1365 -0.6131 0.0000 0.0000 0.0000
# 2 33.1365 105.8448 0.3905 0.0000 0.0000 0.0000
# 3 -0.6131 0.3905 29.9251 0.0000 0.0000 0.0000
# 4 0.0000 0.0000 0.0000 11.5172 0.0000 0.0000
# 5 0.0000 0.0000 0.0000 0.0000 18.9523 0.0000
# 6 0.0000 0.0000 0.0000 0.0000 0.0000 28.9244
#
#
#
# Elastic Compliance Matrix: (Units=1/GPa)
#
#
# Indices 1 2 3 4 5 6 
#
# 1 0.028043 -0.008782 0.000689 0.000000 0.000000 0.000000
# 2 -0.008782 0.012198 -0.000339 0.000000 0.000000 0.000000
# 3 0.000689 -0.000339 0.033435 0.000000 0.000000 0.000000
# 4 0.000000 0.000000 0.000000 0.086827 0.000000 0.000000
# 5 0.000000 0.000000 0.000000 0.000000 0.052764 0.000000
# 6 0.000000 0.000000 0.000000 0.000000 0.000000 0.034573
#
#
# Mechanical properties :
#
#
# Convention : Reuss Voigt Hill
#
# Bulk Modulus (GPa) = 17.60159 27.51656 22.55908
# Shear Modulus (GPa) = 17.62784 21.80592 19.71688
#
# Velocity S-wave (km/s) = 3.11965 3.46971 3.29932
# Velocity P-wave (km/s) = 4.76382 5.58959 5.19314
#
# Compressibility (1/GPa) = 0.05681304
#
# Stress axis : x y z
#
# Youngs Moduli (GPa) = 35.65930 81.97807 29.90851
#
# Poissons Ratio (x) = 0.71993 -0.02061
# Poissons Ratio (y) = 0.31316 0.01014
# Poissons Ratio (z) = -0.02457 0.02780
#
# Static dielectric constant tensor:
#      x y z
#    x 1.624620 0.000000 0.000000 
#    y 0.000000 1.676400 0.000000 
#    z 0.000000 0.000000 1.648160 
# 
# From -- ./inp_files/23214.got.cif
#   From: 2010.05.17/outbox.cif.g08.bks.cpg/sg44_12_cif.got.tgz:23214.got - 2010.06.03 19:37:08.
