data_PCOD9373257
_publ_section_title
;
Structure prediction by ZEFSAII (Michael W. Deem and Ramdas Pophale) SiO2 
 PCOD9373257
Probable space group: I M M 2
;
_chemical_formula_sum "Si O2"
_cell_formula_units_Z 56
_cell_length_a 7.966904
_cell_length_b 13.872436
_cell_length_c 32.908600
_cell_angle_alpha 90.000000
_cell_angle_beta 90.000000
_cell_angle_gamma 90.000000
_cell_volume 3637.070512
_symmetry_space_group_name_H-M "I M M 2"
_symmetry_group_IT_number 44
_symmetry_cell_setting 'orthorhombic'
loop_
_space_group_symop_operation_xyz
x,y,z
-x,-y,z
-x,y,z
x,-y,z
1/2+x,1/2+y,1/2+z
1/2-x,1/2-y,1/2+z
1/2-x,1/2+y,1/2+z
1/2+x,1/2-y,1/2+z
loop_
_atom_site_type_symbol
_atom_site_label
_atom_site_fract_x
_atom_site_fract_y
_atom_site_fract_z
Si Si1 0.187949 0.115323 0.375000
Si Si2 0.302379 0.198879 0.291055
Si Si3 0.302379 0.801121 0.663338
Si Si4 0.796586 0.390539 0.705280
Si Si5 0.000000 0.617203 0.930682
Si Si6 0.812051 0.884677 0.579394
Si Si7 0.203414 0.609461 0.249113
Si Si8 0.000000 0.382797 0.023712
O O1 0.211232 0.166435 0.331730
O O2 0.333985 0.146226 0.405853
O O3 0.000000 0.132717 0.390805
O O4 0.206473 0.000000 0.368524
O O5 0.500000 0.179725 0.296713
O O6 0.245100 0.139907 0.251046
O O7 0.274056 0.310240 0.279376
O O8 0.500000 0.820275 0.657681
O O9 0.274056 0.689760 0.675018
O O10 0.211232 0.833565 0.622664
O O11 0.245100 0.860092 0.703348
O O12 0.746062 0.500000 0.696625
O O13 0.000000 0.384879 0.704022
O O14 0.000000 0.500000 0.931730
O O15 0.000000 0.650979 0.977197
O O16 0.666015 0.853774 0.548540
O O17 0.000000 0.867284 0.563589
O O18 0.793527 0.000000 0.585870
O O19 0.253938 0.500000 0.257769
O O20 0.000000 0.615121 0.250372
O O21 0.000000 0.500000 0.022664
#
# Coordination Sequence:
#
# PCOD9373257 Si02
#       8
#     8   8   8   8   4   8   8   4
#     4  10  19  30  47  69  93 124 158 190 228 278
#     4  10  18  29  45  64  90 123 159 196 232 273
#     4  10  18  29  45  64  90 123 159 196 232 273
#     4   9  18  30  43  61  89 124 159 198 237 271
#     4   9  18  32  48  68  95 123 153 193 236 278
#     4  10  19  30  47  69  93 124 158 190 228 278
#     4   9  18  30  43  61  89 124 159 198 237 271
#     4   9  18  32  48  68  95 123 153 193 236 278
#
# _framework density 15.397007
#
# number of rings (size 3 to 8) (size 9 to 14) (size 15 to 20)
#    0.000    2.429    1.429    1.714    0.000    3.429 
#    0.000    2.857    0.000    0.000    0.000    0.000 
#    0.000    2.286    0.000    6.000    0.000    0.286 
#
# Total GULP energy -156146.672966 kJ/mol
# GULP energy per Si atom -5576.666892 kJ/mol
# Density = 1.536196 g / cm^3
# Si number density = 15.397007 Si / 1000 Ang^3
#
#
#
# Elastic Constant Matrix: (Units=GPa)
#
#
# Indices 1 2 3 4 5 6 
#
# 1 83.8708 21.3901 52.4219 0.0000 0.0000 0.0000
# 2 21.3901 48.3385 19.0076 0.0000 0.0000 0.0000
# 3 52.4219 19.0076 97.3339 0.0000 0.0000 0.0000
# 4 0.0000 0.0000 0.0000 15.3600 0.0000 0.0000
# 5 0.0000 0.0000 0.0000 0.0000 14.4001 0.0000
# 6 0.0000 0.0000 0.0000 0.0000 0.0000 18.9729
#
#
#
# Elastic Compliance Matrix: (Units=1/GPa)
#
#
# Indices 1 2 3 4 5 6 
#
# 1 0.018921 -0.004729 -0.009267 0.000000 0.000000 0.000000
# 2 -0.004729 0.023590 -0.002060 0.000000 0.000000 0.000000
# 3 -0.009267 -0.002060 0.015667 0.000000 0.000000 0.000000
# 4 0.000000 0.000000 0.000000 0.065104 0.000000 0.000000
# 5 0.000000 0.000000 0.000000 0.000000 0.069444 0.000000
# 6 0.000000 0.000000 0.000000 0.000000 0.000000 0.052707
#
#
# Mechanical properties :
#
#
# Convention : Reuss Voigt Hill
#
# Bulk Modulus (GPa) = 38.36284 46.13138 42.24711
# Shear Modulus (GPa) = 17.46819 18.86149 18.16484
#
# Velocity S-wave (km/s) = 3.37192 3.50381 3.43850
# Velocity P-wave (km/s) = 6.33479 6.81140 6.57742
#
# Compressibility (1/GPa) = 0.02606689
#
# Stress axis : x y z
#
# Youngs Moduli (GPa) = 52.85015 42.39091 63.82723
#
# Poissons Ratio (x) = 0.20046 0.59150
# Poissons Ratio (y) = 0.24992 0.13148
# Poissons Ratio (z) = 0.48977 0.08732
#
# Static dielectric constant tensor:
#      x y z
#    x 1.550500 0.000000 0.000000 
#    y 0.000000 1.493140 0.000000 
#    z 0.000000 0.000000 1.483650 
# 
# From -- ./inp_files/19670.got.cif
#   From: 2010.05.17/outbox.cif.g08.bks.cpg/sg44_10_cif.got.tgz:19670.got - 2010.06.03 19:37:08.
