data_PCOD9373256
_publ_section_title
;
Structure prediction by ZEFSAII (Michael W. Deem and Ramdas Pophale) SiO2 
 PCOD9373256
Probable space group: I M M 2
;
_chemical_formula_sum "Si O2"
_cell_formula_units_Z 56
_cell_length_a 8.053307
_cell_length_b 13.890971
_cell_length_c 32.580513
_cell_angle_alpha 90.000000
_cell_angle_beta 90.000000
_cell_angle_gamma 90.000000
_cell_volume 3644.725103
_symmetry_space_group_name_H-M "I M M 2"
_symmetry_group_IT_number 44
_symmetry_cell_setting 'orthorhombic'
loop_
_space_group_symop_operation_xyz
x,y,z
-x,-y,z
-x,y,z
x,-y,z
1/2+x,1/2+y,1/2+z
1/2-x,1/2-y,1/2+z
1/2-x,1/2+y,1/2+z
1/2+x,1/2-y,1/2+z
loop_
_atom_site_type_symbol
_atom_site_label
_atom_site_fract_x
_atom_site_fract_y
_atom_site_fract_z
Si Si1 0.807294 0.389434 0.418720
Si Si2 0.698325 0.302857 0.130725
Si Si3 0.500000 0.883015 0.779646
Si Si4 0.808855 0.800908 0.000913
Si Si5 0.500000 0.116217 0.683834
Si Si6 0.699849 0.107444 0.086455
Si Si7 0.302208 0.391644 0.040689
Si Si8 0.682860 0.617222 0.331676
O O1 0.755748 0.500000 0.427491
O O2 0.788036 0.330013 0.460175
O O3 0.709041 0.353095 0.378998
O O4 0.000000 0.391474 0.406254
O O5 0.500000 0.307717 0.141999
O O6 0.832504 0.343061 0.162590
O O7 0.743527 0.193135 0.117758
O O8 0.718347 0.363193 0.088462
O O9 0.500000 0.857439 0.731890
O O10 0.665495 0.849936 0.803332
O O11 0.500000 0.000000 0.781453
O O12 0.000000 0.820589 0.992510
O O13 0.755304 0.861592 0.040918
O O14 0.782101 0.690328 0.013676
O O15 0.500000 0.000000 0.680016
O O16 0.500000 0.106053 0.085721
O O17 0.760377 0.000000 0.096437
O O18 0.500000 0.387166 0.032751
O O19 0.243146 0.500000 0.033504
O O20 0.500000 0.646008 0.317017
O O21 0.688803 0.500000 0.332197
#
# Coordination Sequence:
#
# PCOD9373256 Si02
#       8
#     8   8   4   8   4   8   8   8
#     4  10  18  29  45  63  90 126 159 191 228 274
#     4   9  19  34  49  70  95 122 162 202 239 288
#     4   9  18  32  44  65  93 119 155 194 234 283
#     4  11  21  28  39  67  97 120 157 199 233 276
#     4  11  22  32  49  71  95 127 166 204 241 283
#     4   9  18  33  49  64  90 127 160 195 243 286
#     4   9  18  33  49  61  82 122 165 202 241 278
#     4   9  16  28  46  65  88 120 154 186 228 283
#
# _framework density 15.36467
#
# number of rings (size 3 to 8) (size 9 to 14) (size 15 to 20)
#    0.000    2.429    0.714    3.429    4.000    4.571 
#    0.000    1.429    0.000    0.000    0.000    0.000 
#    0.000    2.286    0.000    4.000    0.000    0.143 
#
# Total GULP energy -156042.684006 kJ/mol
# GULP energy per Si atom -5572.953000 kJ/mol
# Density = 1.532970 g / cm^3
# Si number density = 15.364670 Si / 1000 Ang^3
#
#
#
# Elastic Constant Matrix: (Units=GPa)
#
#
# Indices 1 2 3 4 5 6 
#
# 1 79.3686 18.8742 49.5014 0.0000 0.0000 0.0000
# 2 18.8742 74.4275 26.1929 0.0000 0.0000 0.0000
# 3 49.5014 26.1929 81.2242 0.0000 0.0000 0.0000
# 4 0.0000 0.0000 0.0000 12.5490 0.0000 0.0000
# 5 0.0000 0.0000 0.0000 0.0000 8.9706 0.0000
# 6 0.0000 0.0000 0.0000 0.0000 0.0000 8.5539
#
#
#
# Elastic Compliance Matrix: (Units=1/GPa)
#
#
# Indices 1 2 3 4 5 6 
#
# 1 0.020378 -0.000899 -0.012129 0.000000 0.000000 0.000000
# 2 -0.000899 0.015196 -0.004352 0.000000 0.000000 0.000000
# 3 -0.012129 -0.004352 0.021107 0.000000 0.000000 0.000000
# 4 0.000000 0.000000 0.000000 0.079688 0.000000 0.000000
# 5 0.000000 0.000000 0.000000 0.000000 0.111475 0.000000
# 6 0.000000 0.000000 0.000000 0.000000 0.000000 0.116906
#
#
# Mechanical properties :
#
#
# Convention : Reuss Voigt Hill
#
# Bulk Modulus (GPa) = 45.62142 47.12859 46.37500
# Shear Modulus (GPa) = 12.29050 15.37815 13.83433
#
# Velocity S-wave (km/s) = 2.83135 3.16710 3.00392
# Velocity P-wave (km/s) = 6.35969 6.64183 6.50229
#
# Compressibility (1/GPa) = 0.02191953
#
# Stress axis : x y z
#
# Youngs Moduli (GPa) = 49.07201 65.80862 47.37710
#
# Poissons Ratio (x) = 0.05917 0.57465
# Poissons Ratio (y) = 0.04412 0.20620
# Poissons Ratio (z) = 0.59521 0.28642
#
# Static dielectric constant tensor:
#      x y z
#    x 1.545330 0.000000 0.000000 
#    y 0.000000 1.512970 0.000000 
#    z 0.000000 0.000000 1.491640 
# 
# From -- ./inp_files/27259.got.cif
#   From: 2010.05.17/outbox.cif.g08.bks.cpg/sg44_14_cif.got.tgz:27259.got - 2010.06.03 19:37:08.
