data_PCOD9373900
_publ_section_title
;
Structure prediction by ZEFSAII (Michael W. Deem and Ramdas Pophale) SiO2 
 PCOD9373900
Probable space group: I M M 2
;
_chemical_formula_sum "Si O2"
_cell_formula_units_Z 64
_cell_length_a 18.146645
_cell_length_b 7.585282
_cell_length_c 21.339194
_cell_angle_alpha 90.000000
_cell_angle_beta 90.000000
_cell_angle_gamma 90.000000
_cell_volume 2937.284992
_symmetry_space_group_name_H-M "I M M 2"
_symmetry_group_IT_number 44
_symmetry_cell_setting 'orthorhombic'
loop_
_space_group_symop_operation_xyz
x,y,z
-x,-y,z
-x,y,z
x,-y,z
1/2+x,1/2+y,1/2+z
1/2-x,1/2-y,1/2+z
1/2-x,1/2+y,1/2+z
1/2+x,1/2-y,1/2+z
loop_
_atom_site_type_symbol
_atom_site_label
_atom_site_fract_x
_atom_site_fract_y
_atom_site_fract_z
Si Si1 0.291769 0.213037 0.278620
Si Si2 0.920599 0.704875 0.865700
Si Si3 0.370611 0.294084 0.498673
Si Si4 0.080376 0.715634 0.408251
Si Si5 0.115732 0.297645 0.136909
Si Si6 0.201061 0.714965 0.505847
Si Si7 0.619443 0.207070 0.772662
Si Si8 0.212091 0.286906 0.641568
O O1 0.348053 0.278835 0.331429
O O2 0.208021 0.280113 0.281522
O O3 0.320818 0.260149 0.208855
O O4 0.285615 0.000000 0.282768
O O5 0.922541 0.500000 0.846487
O O6 0.911877 0.709886 0.940529
O O7 0.000000 0.784526 0.848805
O O8 0.368116 0.500000 0.484389
O O9 0.403445 0.276292 0.568585
O O10 0.285892 0.227047 0.498726
O O11 0.084664 0.500000 0.406365
O O12 0.147077 0.777551 0.451655
O O13 0.086830 0.779491 0.336829
O O14 0.000000 0.761880 0.433864
O O15 0.092202 0.500000 0.135991
O O16 0.095416 0.217668 0.204861
O O17 0.204869 0.286416 0.139464
O O18 0.201902 0.500000 0.503562
O O19 0.175524 0.765358 0.576030
O O20 0.600334 0.000000 0.769700
O O21 0.219295 0.500000 0.640610
#
# Coordination Sequence:
#
# PCOD9373900 Si02
#       8
#     8   8   8   8   8   8   8   8
#     4   9  17  30  49  70  93 124 158 192 234 281
#     4  10  21  35  48  66  95 127 159 198 243 290
#     4  10  19  32  51  71  92 119 153 195 240 287
#     4   9  16  26  41  64  94 123 151 185 224 265
#     4   9  16  27  45  70  96 119 150 193 237 279
#     4   8  14  25  43  67  92 118 149 187 227 265
#     4   9  17  29  47  71  96 123 158 197 233 272
#     4   8  14  26  44  68  96 122 152 190 230 272
#
# _framework density 21.788829
#
# number of rings (size 3 to 8) (size 9 to 14) (size 15 to 20)
#    0.000    3.000    0.000    2.250    0.000    2.250 
#    0.000    1.250    0.000    6.375    0.000    0.000 
#    0.000    9.000    0.000    0.000    0.000    0.000 
#
# Total GULP energy -178361.029545 kJ/mol
# GULP energy per Si atom -5573.782173 kJ/mol
# Density = 2.173924 g / cm^3
# Si number density = 21.788829 Si / 1000 Ang^3
#
#
#
# Elastic Constant Matrix: (Units=GPa)
#
#
# Indices 1 2 3 4 5 6 
#
# 1 68.1747 -2.5033 36.9853 0.0000 0.0000 0.0000
# 2 -2.5033 46.7212 0.9427 0.0000 0.0000 0.0000
# 3 36.9853 0.9427 111.0894 0.0000 0.0000 0.0000
# 4 0.0000 0.0000 0.0000 10.3351 0.0000 0.0000
# 5 0.0000 0.0000 0.0000 0.0000 -23.9534 0.0000
# 6 0.0000 0.0000 0.0000 0.0000 0.0000 0.0612
#
#
#
# Elastic Compliance Matrix: (Units=1/GPa)
#
#
# Indices 1 2 3 4 5 6 
#
# 1 0.017956 0.001083 -0.005987 0.000000 0.000000 0.000000
# 2 0.001083 0.021473 -0.000543 0.000000 0.000000 0.000000
# 3 -0.005987 -0.000543 0.011000 0.000000 0.000000 0.000000
# 4 0.000000 0.000000 0.000000 0.096757 0.000000 0.000000
# 5 0.000000 0.000000 0.000000 0.000000 -0.041748 0.000000
# 6 0.000000 0.000000 0.000000 0.000000 0.000000 16.348520
#
#
# Mechanical properties :
#
#
# Convention : Reuss Voigt Hill
#
# Bulk Modulus (GPa) = 25.29466 32.98161 29.13814
# Shear Modulus (GPa) = 0.30343 9.99263 5.14803
#
# Velocity S-wave (km/s) = 0.37358 2.14385 1.53877
# Velocity P-wave (km/s) = 3.43807 4.61497 4.06929
#
# Compressibility (1/GPa) = 0.03953403
#
# Stress axis : x y z
#
# Youngs Moduli (GPa) = 55.69118 46.57109 90.91107
#
# Poissons Ratio (x) = -0.05043 0.54432
# Poissons Ratio (y) = -0.06031 0.04934
# Poissons Ratio (z) = 0.33344 0.02528
#
# Static dielectric constant tensor:
#      x y z
#    x 1.773080 0.000000 0.000000 
#    y 0.000000 1.802670 0.000000 
#    z 0.000000 0.000000 1.832200 
# 
# From -- ./inp_files/23273.got.cif
#   From: 2010.05.17/outbox.cif.g08.bks.cpg/sg44_12_cif.got.tgz:23273.got - 2010.06.03 19:37:08.
