data_PCOD9373142
_publ_section_title
;
Structure prediction by ZEFSAII (Michael W. Deem and Ramdas Pophale) SiO2 
 PCOD9373142
Probable space group: I M M 2
;
_chemical_formula_sum "Si O2"
_cell_formula_units_Z 64
_cell_length_a 19.041251
_cell_length_b 8.245444
_cell_length_c 27.427956
_cell_angle_alpha 90.000000
_cell_angle_beta 90.000000
_cell_angle_gamma 90.000000
_cell_volume 4306.286977
_symmetry_space_group_name_H-M "I M M 2"
_symmetry_group_IT_number 44
_symmetry_cell_setting 'orthorhombic'
loop_
_space_group_symop_operation_xyz
x,y,z
-x,-y,z
-x,y,z
x,-y,z
1/2+x,1/2+y,1/2+z
1/2-x,1/2-y,1/2+z
1/2-x,1/2+y,1/2+z
1/2+x,1/2-y,1/2+z
loop_
_atom_site_type_symbol
_atom_site_label
_atom_site_fract_x
_atom_site_fract_y
_atom_site_fract_z
Si Si1 0.201813 0.688232 0.222240
Si Si2 0.080497 0.304315 0.467412
Si Si3 0.580718 0.696140 0.267494
Si Si4 0.786835 0.688540 0.813202
Si Si5 0.168950 0.307569 0.375461
Si Si6 0.419116 0.304100 0.075527
Si Si7 0.664600 0.698235 0.169854
Si Si8 0.419814 0.307938 0.783265
O O1 0.187183 0.500000 0.212994
O O2 0.248929 0.705398 0.271298
O O3 0.255679 0.752427 0.181318
O O4 0.129501 0.773443 0.236641
O O5 0.079354 0.500000 0.465382
O O6 0.131835 0.247001 0.424656
O O7 0.101749 0.252433 0.521667
O O8 0.000000 0.247199 0.459302
O O9 0.500000 0.747586 0.270939
O O10 0.582850 0.500000 0.269575
O O11 0.631789 0.766112 0.309063
O O12 0.614721 0.745289 0.215360
O O13 0.777161 0.500000 0.800783
O O14 0.742950 0.726192 0.861622
O O15 0.179753 0.500000 0.379081
O O16 0.116253 0.273868 0.330253
O O17 0.500000 0.251085 0.083942
O O18 0.418955 0.500000 0.076224
O O19 0.369140 0.247363 0.119200
O O20 0.666100 0.500000 0.169916
O O21 0.500000 0.253250 0.777018
O O22 0.419275 0.500000 0.792168
#
# Coordination Sequence:
#
# PCOD9373142 Si02
#       8
#     8   8   8   8   8   8   8   8
#     4   9  16  27  42  57  76 104 137 167 194 231
#     4   9  18  30  41  56  79 104 132 168 203 232
#     4   9  16  27  43  60  80 108 140 168 193 229
#     4  10  18  27  39  57  82 105 129 165 204 239
#     4  10  18  29  44  57  74 105 141 169 196 235
#     4   9  16  26  41  59  79 104 133 164 196 230
#     4   8  14  25  41  60  79 103 136 168 195 225
#     4  10  19  28  39  58  83 106 130 164 203 240
#
# _framework density 14.861991
#
# number of rings (size 3 to 8) (size 9 to 14) (size 15 to 20)
#    0.000    2.750    0.000    5.250    0.000    4.250 
#    0.000    4.375    0.000    3.000    0.000    0.000 
#    0.000    1.000    0.000    6.500    0.000    4.875 
#
# Total GULP energy -178201.638975 kJ/mol
# GULP energy per Si atom -5568.801218 kJ/mol
# Density = 1.482816 g / cm^3
# Si number density = 14.861991 Si / 1000 Ang^3
#
#
#
# Elastic Constant Matrix: (Units=GPa)
#
#
# Indices 1 2 3 4 5 6 
#
# 1 108.7568 7.6381 57.4565 0.0000 0.0000 0.0000
# 2 7.6381 13.8630 4.6359 0.0000 0.0000 0.0000
# 3 57.4565 4.6359 92.1338 0.0000 0.0000 0.0000
# 4 0.0000 0.0000 0.0000 16.1588 0.0000 0.0000
# 5 0.0000 0.0000 0.0000 0.0000 28.2404 0.0000
# 6 0.0000 0.0000 0.0000 0.0000 0.0000 -0.7595
#
#
#
# Elastic Compliance Matrix: (Units=1/GPa)
#
#
# Indices 1 2 3 4 5 6 
#
# 1 0.014031 -0.004887 -0.008504 0.000000 0.000000 0.000000
# 2 -0.004887 0.075071 -0.000730 0.000000 0.000000 0.000000
# 3 -0.008504 -0.000730 0.016194 0.000000 0.000000 0.000000
# 4 0.000000 0.000000 0.000000 0.061886 0.000000 0.000000
# 5 0.000000 0.000000 0.000000 0.000000 0.035410 0.000000
# 6 0.000000 0.000000 0.000000 0.000000 0.000000 -1.316699
#
#
# Mechanical properties :
#
#
# Convention : Reuss Voigt Hill
#
# Bulk Modulus (GPa) = 12.97782 39.35717 26.16750
# Shear Modulus (GPa) = -4.71617 18.39616 6.83999
#
# Velocity S-wave (km/s) = -1.78331 3.52205 2.14763
# Velocity P-wave (km/s) = 2.12389 6.56346 4.87801
#
# Compressibility (1/GPa) = 0.07705451
#
# Stress axis : x y z
#
# Youngs Moduli (GPa) = 71.27241 13.32069 61.75230
#
# Poissons Ratio (x) = 0.06509 0.52514
# Poissons Ratio (y) = 0.34829 0.04507
# Poissons Ratio (z) = 0.60610 0.00972
#
# Static dielectric constant tensor:
#      x y z
#    x 1.517160 0.000000 0.000000 
#    y 0.000000 1.516260 0.000000 
#    z 0.000000 0.000000 1.482800 
# 
# From -- ./inp_files/26610.got.cif
#   From: 2010.05.17/outbox.cif.g08.bks.cpg/sg44_14_cif.got.tgz:26610.got - 2010.06.03 19:37:08.
