data_PCOD9373819
_publ_section_title
;
Structure prediction by ZEFSAII (Michael W. Deem and Ramdas Pophale) SiO2 
 PCOD9373819
Probable space group: I M M 2
;
_chemical_formula_sum "Si O2"
_cell_formula_units_Z 56
_cell_length_a 7.480172
_cell_length_b 16.463222
_cell_length_c 20.818302
_cell_angle_alpha 90.000000
_cell_angle_beta 90.000000
_cell_angle_gamma 90.000000
_cell_volume 2563.726680
_symmetry_space_group_name_H-M "I M M 2"
_symmetry_group_IT_number 44
_symmetry_cell_setting 'orthorhombic'
loop_
_space_group_symop_operation_xyz
x,y,z
-x,-y,z
-x,y,z
x,-y,z
1/2+x,1/2+y,1/2+z
1/2-x,1/2-y,1/2+z
1/2-x,1/2+y,1/2+z
1/2+x,1/2-y,1/2+z
loop_
_atom_site_type_symbol
_atom_site_label
_atom_site_fract_x
_atom_site_fract_y
_atom_site_fract_z
Si Si1 0.285152 0.308450 0.313340
Si Si2 0.294735 0.413499 0.703475
Si Si3 0.205509 0.085692 0.483412
Si Si4 0.712514 0.092633 0.940467
Si Si5 0.799677 0.764383 0.674346
Si Si6 0.284153 0.125719 0.343886
Si Si7 0.220330 0.742299 0.530645
O O1 0.500000 0.308243 0.308321
O O2 0.238000 0.375034 0.367062
O O3 0.220170 0.307421 0.238439
O O4 0.230856 0.220785 0.341436
O O5 0.500000 0.404376 0.681887
O O6 0.225199 0.500000 0.678383
O O7 0.190886 0.331527 0.689604
O O8 0.289345 0.414570 0.780146
O O9 0.211107 0.085345 0.407002
O O10 0.281828 0.174140 0.498033
O O11 0.000000 0.087213 0.506117
O O12 0.285400 0.000000 0.507053
O O13 0.500000 0.088627 0.950781
O O14 0.782432 0.000000 0.948217
O O15 0.779616 0.161995 0.990936
O O16 0.717386 0.758257 0.603715
O O17 0.000000 0.798466 0.666683
O O18 0.500000 0.120283 0.343384
O O19 0.000000 0.737897 0.531039
#
# Coordination Sequence:
#
# PCOD9373819 Si02
#       7
#     8   8   8   8   8   8   8
#     4   9  18  33  52  77 106 137 176 221 269 318
#     4  10  20  32  47  72 105 137 172 214 264 322
#     4  10  19  31  51  78 105 136 172 212 267 324
#     4  10  20  34  56  83 108 142 186 226 270 326
#     4   9  19  35  55  76 102 141 184 225 274 327
#     4  10  19  31  50  76 105 136 171 210 259 316
#     4   9  18  35  55  78 109 140 177 227 272 321
#
# _framework density 21.843202999999999
#
# number of rings (size 3 to 8) (size 9 to 14) (size 15 to 20)
#    0.000    2.429    1.429    2.143    0.000    6.286 
#    0.000    3.571    0.000    2.571    0.000    0.000 
#    0.000    0.000    0.000    0.000    0.000    0.000 
#
# Total GULP energy -155901.828572 kJ/mol
# GULP energy per Si atom -5567.922449 kJ/mol
# Density = 2.179349 g / cm^3
# Si number density = 21.843203 Si / 1000 Ang^3
#
#
#
# Elastic Constant Matrix: (Units=GPa)
#
#
# Indices 1 2 3 4 5 6 
#
# 1 68.2373 5.0742 -6.6750 0.0000 0.0000 0.0000
# 2 5.0742 146.1807 54.7931 0.0000 0.0000 0.0000
# 3 -6.6750 54.7931 128.8128 0.0000 0.0000 0.0000
# 4 0.0000 0.0000 0.0000 42.1869 0.0000 0.0000
# 5 0.0000 0.0000 0.0000 0.0000 7.5024 0.0000
# 6 0.0000 0.0000 0.0000 0.0000 0.0000 -85.9389
#
#
#
# Elastic Compliance Matrix: (Units=1/GPa)
#
#
# Indices 1 2 3 4 5 6 
#
# 1 0.014841 -0.000956 0.001176 0.000000 0.000000 0.000000
# 2 -0.000956 0.008200 -0.003538 0.000000 0.000000 0.000000
# 3 0.001176 -0.003538 0.009329 0.000000 0.000000 0.000000
# 4 0.000000 0.000000 0.000000 0.023704 0.000000 0.000000
# 5 0.000000 0.000000 0.000000 0.000000 0.133290 0.000000
# 6 0.000000 0.000000 0.000000 0.000000 0.000000 -0.011636
#
#
# Mechanical properties :
#
#
# Convention : Reuss Voigt Hill
#
# Bulk Modulus (GPa) = 38.85880 49.95728 44.40804
# Shear Modulus (GPa) = 25.91464 12.08598 19.00031
#
# Velocity S-wave (km/s) = 3.44814 2.35480 2.95252
# Velocity P-wave (km/s) = 5.80357 5.50581 5.65665
#
# Compressibility (1/GPa) = 0.02573420
#
# Stress axis : x y z
#
# Youngs Moduli (GPa) = 67.38172 121.95087 107.19376
#
# Poissons Ratio (x) = 0.11656 -0.12602
# Poissons Ratio (y) = 0.06440 0.37921
# Poissons Ratio (z) = -0.07921 0.43141
#
# Static dielectric constant tensor:
#      x y z
#    x 1.860670 0.000000 0.000000 
#    y 0.000000 1.851130 0.000000 
#    z 0.000000 0.000000 1.838140 
# 
# From -- ./inp_files/23018.got.cif
#   From: 2010.05.17/outbox.cif.g08.bks.cpg/sg44_12_cif.got.tgz:23018.got - 2010.06.03 19:37:08.
