data_PCOD9373270
_publ_section_title
;
Structure prediction by ZEFSAII (Michael W. Deem and Ramdas Pophale) SiO2 
 PCOD9373270
Probable space group: I M M 2
;
_chemical_formula_sum "Si O2"
_cell_formula_units_Z 48
_cell_length_a 7.906804
_cell_length_b 24.832931
_cell_length_c 14.103596
_cell_angle_alpha 90.000000
_cell_angle_beta 90.000000
_cell_angle_gamma 90.000000
_cell_volume 2769.228638
_symmetry_space_group_name_H-M "I M M 2"
_symmetry_group_IT_number 44
_symmetry_cell_setting 'orthorhombic'
loop_
_space_group_symop_operation_xyz
x,y,z
-x,-y,z
-x,y,z
x,-y,z
1/2+x,1/2+y,1/2+z
1/2-x,1/2-y,1/2+z
1/2-x,1/2+y,1/2+z
1/2+x,1/2-y,1/2+z
loop_
_atom_site_type_symbol
_atom_site_label
_atom_site_fract_x
_atom_site_fract_y
_atom_site_fract_z
Si Si1 0.697710 0.335366 0.479330
Si Si2 0.793413 0.061021 0.089757
Si Si3 0.197613 0.232528 0.589842
Si Si4 0.793490 0.165031 0.415106
Si Si5 0.302048 0.769202 0.800033
Si Si6 0.293444 0.560499 0.808462
O O1 0.500000 0.342767 0.459357
O O2 0.766629 0.391103 0.521967
O O3 0.715854 0.288219 0.557973
O O4 0.778192 0.312954 0.382814
O O5 0.000000 0.062077 0.088431
O O6 0.741868 0.000000 0.064243
O O7 0.743666 0.071122 0.199203
O O8 0.258166 0.185245 0.519283
O O9 0.219049 0.219167 0.699483
O O10 0.000000 0.240998 0.568865
O O11 0.738947 0.212695 0.343971
O O12 0.733789 0.107593 0.377628
O O13 0.000000 0.163602 0.413495
O O14 0.500000 0.762896 0.781129
O O15 0.500000 0.560683 0.809563
O O16 0.239193 0.500000 0.833899
#
# Coordination Sequence:
#
# PCOD9373270 Si02
#       6
#     8   8   8   8   8   8
#     4  10  18  29  47  69  93 119 148 186 232 276
#     4   8  14  24  41  67  94 118 146 181 223 273
#     4  10  19  30  44  64  92 122 152 185 223 272
#     4   8  15  26  40  61  87 112 138 175 220 262
#     4  10  19  31  46  64  89 119 152 188 226 271
#     4   8  12  20  37  61  87 112 138 171 214 262
#
# _framework density 17.333347
#
# number of rings (size 3 to 8) (size 9 to 14) (size 15 to 20)
#    0.000    3.000    0.000    4.500    0.000    2.667 
#    0.000    0.000    0.000    3.000    0.000    4.667 
#    0.000   22.667    0.000    0.000    0.000    0.000 
#
# Total GULP energy -133736.007438 kJ/mol
# GULP energy per Si atom -5572.333643 kJ/mol
# Density = 1.729390 g / cm^3
# Si number density = 17.333347 Si / 1000 Ang^3
#
#
#
# Elastic Constant Matrix: (Units=GPa)
#
#
# Indices 1 2 3 4 5 6 
#
# 1 16.8379 -2.9303 -2.7252 0.0000 0.0000 0.0000
# 2 -2.9303 142.7420 79.5669 0.0000 0.0000 0.0000
# 3 -2.7252 79.5669 112.6577 0.0000 0.0000 0.0000
# 4 0.0000 0.0000 0.0000 23.4619 0.0000 0.0000
# 5 0.0000 0.0000 0.0000 0.0000 17.9702 0.0000
# 6 0.0000 0.0000 0.0000 0.0000 0.0000 12.9412
#
#
#
# Elastic Compliance Matrix: (Units=1/GPa)
#
#
# Indices 1 2 3 4 5 6 
#
# 1 0.059665 0.000693 0.000954 0.000000 0.000000 0.000000
# 2 0.000693 0.011563 -0.008150 0.000000 0.000000 0.000000
# 3 0.000954 -0.008150 0.014655 0.000000 0.000000 0.000000
# 4 0.000000 0.000000 0.000000 0.042622 0.000000 0.000000
# 5 0.000000 0.000000 0.000000 0.000000 0.055648 0.000000
# 6 0.000000 0.000000 0.000000 0.000000 0.000000 0.077273
#
#
# Mechanical properties :
#
#
# Convention : Reuss Voigt Hill
#
# Bulk Modulus (GPa) = 13.72167 46.67338 30.19753
# Shear Modulus (GPa) = 16.73790 24.09639 20.41715
#
# Velocity S-wave (km/s) = 3.11086 3.73255 3.43579
# Velocity P-wave (km/s) = 4.56473 6.74991 5.76186
#
# Compressibility (1/GPa) = 0.07287742
#
# Stress axis : x y z
#
# Youngs Moduli (GPa) = 16.76029 86.48596 68.23470
#
# Poissons Ratio (x) = -0.05995 -0.06507
# Poissons Ratio (y) = -0.01162 0.55608
# Poissons Ratio (z) = -0.01598 0.70482
#
# Static dielectric constant tensor:
#      x y z
#    x 1.635310 0.000000 0.000000 
#    y 0.000000 1.592870 0.000000 
#    z 0.000000 0.000000 1.570820 
# 
# From -- ./inp_files/11165.got.cif
#   From: 2010.05.17/outbox.cif.g08.bks.cpg/sg44_6_cif.got.tgz:11165.got - 2010.06.03 19:37:08.
