data_PCOD9373189
_publ_section_title
;
Structure prediction by ZEFSAII (Michael W. Deem and Ramdas Pophale) SiO2 
 PCOD9373189
Probable space group: I M M 2
;
_chemical_formula_sum "Si O2"
_cell_formula_units_Z 56
_cell_length_a 13.354892
_cell_length_b 11.729740
_cell_length_c 23.356645
_cell_angle_alpha 90.000000
_cell_angle_beta 90.000000
_cell_angle_gamma 90.000000
_cell_volume 3658.804680
_symmetry_space_group_name_H-M "I M M 2"
_symmetry_group_IT_number 44
_symmetry_cell_setting 'orthorhombic'
loop_
_space_group_symop_operation_xyz
x,y,z
-x,-y,z
-x,y,z
x,-y,z
1/2+x,1/2+y,1/2+z
1/2-x,1/2-y,1/2+z
1/2-x,1/2+y,1/2+z
1/2+x,1/2-y,1/2+z
loop_
_atom_site_type_symbol
_atom_site_label
_atom_site_fract_x
_atom_site_fract_y
_atom_site_fract_z
Si Si1 0.383614 0.000000 0.562940
Si Si2 0.280708 0.777972 0.372479
Si Si3 0.744679 0.214307 0.549536
Si Si4 0.886465 0.500000 0.924872
Si Si5 0.616108 0.635428 0.944832
Si Si6 0.616804 0.365352 0.463103
Si Si7 0.382691 0.865118 0.130666
Si Si8 0.383035 0.135497 0.266324
O O1 0.320653 0.113262 0.577648
O O2 0.500000 0.000000 0.581996
O O3 0.385424 0.000000 0.493384
O O4 0.334209 0.887069 0.402226
O O5 0.166846 0.795273 0.392685
O O6 0.328581 0.670211 0.404251
O O7 0.310169 0.791818 0.306598
O O8 0.820828 0.162776 0.502053
O O9 0.670382 0.295812 0.513645
O O10 0.809175 0.287185 0.594084
O O11 0.000000 0.500000 0.904574
O O12 0.500000 0.664363 0.952533
O O13 0.623722 0.500000 0.933478
O O14 0.500000 0.332634 0.459796
O O15 0.624179 0.500000 0.472785
O O16 0.500000 0.842034 0.117412
O O17 0.369070 0.846027 0.198700
O O18 0.365349 0.000000 0.119641
O O19 0.500000 0.159988 0.279993
O O20 0.366843 0.000000 0.276976
#
# Coordination Sequence:
#
# PCOD9373189 Si02
#       8
#     4   8   8   4   8   8   8   8
#     4  11  20  30  48  76 100 118 156 205 250 297
#     4  11  17  28  47  71  96 126 151 187 237 287
#     4  11  18  32  48  68  92 130 160 197 244 284
#     4  11  16  24  44  76  98 114 142 187 238 289
#     4  10  18  28  42  68  99 123 150 185 230 284
#     4  10  20  30  44  69 100 128 153 186 235 291
#     4   9  19  33  48  69  96 129 166 202 234 279
#     4   9  16  27  47  72  94 118 154 197 240 278
#
# _framework density 15.305543999999999
#
# number of rings (size 3 to 8) (size 9 to 14) (size 15 to 20)
#    0.000    1.857    5.000    3.429    0.000    0.000 
#    0.000    0.000    1.571    5.571    0.000    6.000 
#    0.000    0.000    0.000    0.000    0.000    0.000 
#
# Total GULP energy -156105.695632 kJ/mol
# GULP energy per Si atom -5575.203415 kJ/mol
# Density = 1.527071 g / cm^3
# Si number density = 15.305544 Si / 1000 Ang^3
#
#
#
# Elastic Constant Matrix: (Units=GPa)
#
#
# Indices 1 2 3 4 5 6 
#
# 1 119.2780 48.3640 37.7794 0.0000 0.0000 0.0000
# 2 48.3640 63.9861 29.0260 0.0000 0.0000 0.0000
# 3 37.7794 29.0260 59.9221 0.0000 0.0000 0.0000
# 4 0.0000 0.0000 0.0000 20.7218 0.0000 0.0000
# 5 0.0000 0.0000 0.0000 0.0000 24.5417 0.0000
# 6 0.0000 0.0000 0.0000 0.0000 0.0000 24.1552
#
#
#
# Elastic Compliance Matrix: (Units=1/GPa)
#
#
# Indices 1 2 3 4 5 6 
#
# 1 0.012927 -0.007784 -0.004380 0.000000 0.000000 0.000000
# 2 -0.007784 0.024717 -0.007065 0.000000 0.000000 0.000000
# 3 -0.004380 -0.007065 0.022872 0.000000 0.000000 0.000000
# 4 0.000000 0.000000 0.000000 0.048258 0.000000 0.000000
# 5 0.000000 0.000000 0.000000 0.000000 0.040747 0.000000
# 6 0.000000 0.000000 0.000000 0.000000 0.000000 0.041399
#
#
# Mechanical properties :
#
#
# Convention : Reuss Voigt Hill
#
# Bulk Modulus (GPa) = 45.33451 52.61389 48.97420
# Shear Modulus (GPa) = 21.12098 22.41818 21.76958
#
# Velocity S-wave (km/s) = 3.71881 3.83130 3.77547
# Velocity P-wave (km/s) = 6.93710 7.34998 7.14652
#
# Compressibility (1/GPa) = 0.02205825
#
# Stress axis : x y z
#
# Youngs Moduli (GPa) = 77.35552 40.45771 43.72194
#
# Poissons Ratio (x) = 0.31494 0.19149
# Poissons Ratio (y) = 0.60217 0.30889
# Poissons Ratio (z) = 0.33879 0.28583
#
# Static dielectric constant tensor:
#      x y z
#    x 1.527410 0.000000 0.000000 
#    y 0.000000 1.504960 0.000000 
#    z 0.000000 0.000000 1.507470 
# 
# From -- ./inp_files/25468.got.cif
#   From: 2010.05.17/outbox.cif.g08.bks.cpg/sg44_13_cif.got.tgz:25468.got - 2010.06.03 19:37:08.
