data_PCOD9373764
_publ_section_title
;
Structure prediction by ZEFSAII (Michael W. Deem and Ramdas Pophale) SiO2 
 PCOD9373764
Probable space group: I M M 2
;
_chemical_formula_sum "Si O2"
_cell_formula_units_Z 56
_cell_length_a 24.465244
_cell_length_b 7.305403
_cell_length_c 14.435879
_cell_angle_alpha 90.000000
_cell_angle_beta 90.000000
_cell_angle_gamma 90.000000
_cell_volume 2580.102522
_symmetry_space_group_name_H-M "I M M 2"
_symmetry_group_IT_number 44
_symmetry_cell_setting 'orthorhombic'
loop_
_space_group_symop_operation_xyz
x,y,z
-x,-y,z
-x,y,z
x,-y,z
1/2+x,1/2+y,1/2+z
1/2-x,1/2-y,1/2+z
1/2-x,1/2+y,1/2+z
1/2+x,1/2-y,1/2+z
loop_
_atom_site_type_symbol
_atom_site_label
_atom_site_fract_x
_atom_site_fract_y
_atom_site_fract_z
Si Si1 0.062317 0.723499 0.077540
Si Si2 0.937136 0.722536 0.867549
Si Si3 0.162558 0.286474 0.194308
Si Si4 0.730448 0.220433 0.081466
Si Si5 0.328907 0.222955 0.899272
Si Si6 0.561097 0.222327 0.001398
Si Si7 0.622350 0.222653 0.185846
O O1 0.062922 0.500000 0.077808
O O2 0.107321 0.789808 0.149650
O O3 0.000000 0.778328 0.097635
O O4 0.076316 0.779569 0.972191
O O5 0.936146 0.500000 0.867074
O O6 0.897351 0.785259 0.786128
O O7 0.000000 0.775334 0.847999
O O8 0.151115 0.500000 0.210889
O O9 0.211286 0.274787 0.120765
O O10 0.179962 0.212668 0.294658
O O11 0.681971 0.281194 0.150825
O O12 0.729335 0.000000 0.080555
O O13 0.713607 0.283353 0.978502
O O14 0.389654 0.276747 0.933638
O O15 0.326685 0.000000 0.901315
O O16 0.500000 0.285098 0.979193
O O17 0.560290 0.000000 0.999567
O O18 0.579745 0.274970 0.105041
O O19 0.622899 0.000000 0.187383
#
# Coordination Sequence:
#
# PCOD9373764 Si02
#       7
#     8   8   8   8   8   8   8
#     4   8  15  26  39  59  86 111 137 174 218 259
#     4   8  12  19  33  56  87 115 136 169 220 263
#     4  10  19  31  48  67  87 114 148 182 217 259
#     4   9  18  32  46  62  89 120 148 179 217 259
#     4   8  16  29  42  60  89 119 143 177 224 263
#     4   8  12  19  34  57  83 111 143 175 210 257
#     4   8  13  21  35  56  83 114 143 173 212 256
#
# _framework density 21.704563
#
# number of rings (size 3 to 8) (size 9 to 14) (size 15 to 20)
#    0.000    3.571    0.000    3.000    0.000    3.429 
#    0.000    5.000    0.000    0.429    0.000    0.000 
#    0.000   20.000    0.000    0.000    0.000    0.000 
#
# Total GULP energy -156208.012231 kJ/mol
# GULP energy per Si atom -5578.857580 kJ/mol
# Density = 2.165516 g / cm^3
# Si number density = 21.704563 Si / 1000 Ang^3
#
#
#
# Elastic Constant Matrix: (Units=GPa)
#
#
# Indices 1 2 3 4 5 6 
#
# 1 104.0588 -6.3413 88.0899 0.0000 0.0000 0.0000
# 2 -6.3413 86.1791 3.8970 0.0000 0.0000 0.0000
# 3 88.0899 3.8970 163.9796 0.0000 0.0000 0.0000
# 4 0.0000 0.0000 0.0000 -10.1054 0.0000 0.0000
# 5 0.0000 0.0000 0.0000 0.0000 22.1712 0.0000
# 6 0.0000 0.0000 0.0000 0.0000 0.0000 -7.4589
#
#
#
# Elastic Compliance Matrix: (Units=1/GPa)
#
#
# Indices 1 2 3 4 5 6 
#
# 1 0.017886 0.001752 -0.009650 0.000000 0.000000 0.000000
# 2 0.001752 0.011788 -0.001222 0.000000 0.000000 0.000000
# 3 -0.009650 -0.001222 0.011311 0.000000 0.000000 0.000000
# 4 0.000000 0.000000 0.000000 -0.098957 0.000000 0.000000
# 5 0.000000 0.000000 0.000000 0.000000 0.045104 0.000000
# 6 0.000000 0.000000 0.000000 0.000000 0.000000 -0.134067
#
#
# Mechanical properties :
#
#
# Convention : Reuss Voigt Hill
#
# Bulk Modulus (GPa) = 43.96193 58.38987 51.17590
# Shear Modulus (GPa) = -41.28295 18.82616 -11.22840
#
# Velocity S-wave (km/s) = -4.36597 2.94833 -2.27695
# Velocity P-wave (km/s) = 2.26206 6.20892 4.08863
#
# Compressibility (1/GPa) = 0.02274696
#
# Stress axis : x y z
#
# Youngs Moduli (GPa) = 55.91042 84.83259 88.40739
#
# Poissons Ratio (x) = -0.14866 0.85312
# Poissons Ratio (y) = -0.09798 0.10799
# Poissons Ratio (z) = 0.53953 0.10363
#
# Static dielectric constant tensor:
#      x y z
#    x 1.745160 0.000000 0.000000 
#    y 0.000000 1.899280 0.000000 
#    z 0.000000 0.000000 1.773730 
# 
# From -- ./inp_files/12680.got.cif
#   From: 2010.05.17/outbox.cif.g08.bks.cpg/sg44_7_cif.got.tgz:12680.got - 2010.06.03 19:37:08.
