data_PCOD9373976
_publ_section_title
;
Structure prediction by ZEFSAII (Michael W. Deem and Ramdas Pophale) SiO2 
 PCOD9373976
Probable space group: I M M 2
;
_chemical_formula_sum "Si O2"
_cell_formula_units_Z 64
_cell_length_a 28.931172
_cell_length_b 8.564743
_cell_length_c 12.900328
_cell_angle_alpha 90.000000
_cell_angle_beta 90.000000
_cell_angle_gamma 90.000000
_cell_volume 3196.547156
_symmetry_space_group_name_H-M "I M M 2"
_symmetry_group_IT_number 44
_symmetry_cell_setting 'orthorhombic'
loop_
_space_group_symop_operation_xyz
x,y,z
-x,-y,z
-x,y,z
x,-y,z
1/2+x,1/2+y,1/2+z
1/2-x,1/2-y,1/2+z
1/2-x,1/2+y,1/2+z
1/2+x,1/2-y,1/2+z
loop_
_atom_site_type_symbol
_atom_site_label
_atom_site_fract_x
_atom_site_fract_y
_atom_site_fract_z
Si Si1 0.787940 0.685076 0.859090
Si Si2 0.319487 0.678664 0.145745
Si Si3 0.553219 0.188792 0.653803
Si Si4 0.451097 0.813866 0.306685
Si Si5 0.622140 0.809270 0.470351
Si Si6 0.093348 0.812035 0.368289
Si Si7 0.693474 0.184372 0.926411
Si Si8 0.428255 0.678601 0.092690
O O1 0.780437 0.500000 0.871268
O O2 0.809934 0.720248 0.747050
O O3 0.825158 0.738563 0.946613
O O4 0.739293 0.771914 0.864173
O O5 0.304421 0.500000 0.163247
O O6 0.373747 0.676803 0.118806
O O7 0.297807 0.748019 0.041501
O O8 0.500000 0.238399 0.631165
O O9 0.592351 0.239889 0.570469
O O10 0.569003 0.246318 0.766623
O O11 0.553169 0.000000 0.651889
O O12 0.500000 0.755258 0.349917
O O13 0.408039 0.753395 0.371845
O O14 0.449149 0.775074 0.186057
O O15 0.450298 0.000000 0.318843
O O16 0.623172 0.000000 0.471505
O O17 0.146690 0.758006 0.379099
O O18 0.068025 0.761731 0.475292
O O19 0.092637 0.000000 0.367083
O O20 0.686557 0.000000 0.932005
O O21 0.444991 0.500000 0.097114
#
# Coordination Sequence:
#
# PCOD9373976 Si02
#       8
#     8   8   8   8   8   8   8   8
#     4  11  21  36  60  88 119 159 205 253 310 372
#     4  10  20  37  58  82 115 153 193 243 299 360
#     4  10  21  39  63  89 121 165 214 260 310 372
#     4  10  19  32  54  84 114 145 186 235 287 348
#     4   9  19  36  58  85 117 155 199 249 301 355
#     4  10  22  41  61  84 118 158 203 256 311 368
#     4  11  23  39  60  88 120 158 203 255 315 376
#     4   9  19  35  55  78 109 147 185 234 295 352
#
# _framework density 20.021604
#
# number of rings (size 3 to 8) (size 9 to 14) (size 15 to 20)
#    0.000    2.000    1.250    3.375    0.000    6.000 
#    0.000    8.125    0.000    1.500    0.000    0.000 
#    0.000    0.000    0.000    0.000    0.000    0.000 
#
# Total GULP energy -178532.548799 kJ/mol
# GULP energy per Si atom -5579.142150 kJ/mol
# Density = 1.997603 g / cm^3
# Si number density = 20.021604 Si / 1000 Ang^3
#
#
#
# Elastic Constant Matrix: (Units=GPa)
#
#
# Indices 1 2 3 4 5 6 
#
# 1 53.1822 0.7875 8.4289 0.0000 0.0000 0.0000
# 2 0.7875 18.5541 -8.1414 0.0000 0.0000 0.0000
# 3 8.4289 -8.1414 81.0224 0.0000 0.0000 0.0000
# 4 0.0000 0.0000 0.0000 217.2053 0.0000 0.0000
# 5 0.0000 0.0000 0.0000 0.0000 8.5119 0.0000
# 6 0.0000 0.0000 0.0000 0.0000 0.0000 10.1515
#
#
#
# Elastic Compliance Matrix: (Units=1/GPa)
#
#
# Indices 1 2 3 4 5 6 
#
# 1 0.019174 -0.001767 -0.002172 0.000000 0.000000 0.000000
# 2 -0.001767 0.056545 0.005866 0.000000 0.000000 0.000000
# 3 -0.002172 0.005866 0.013158 0.000000 0.000000 0.000000
# 4 0.000000 0.000000 0.000000 0.004604 0.000000 0.000000
# 5 0.000000 0.000000 0.000000 0.000000 0.117483 0.000000
# 6 0.000000 0.000000 0.000000 0.000000 0.000000 0.098507
#
#
# Mechanical properties :
#
#
# Convention : Reuss Voigt Hill
#
# Bulk Modulus (GPa) = 10.78402 17.21207 13.99805
# Shear Modulus (GPa) = 14.85762 57.28598 36.07180
#
# Velocity S-wave (km/s) = 2.72707 5.35483 4.24918
# Velocity P-wave (km/s) = 3.91328 6.84454 5.57501
#
# Compressibility (1/GPa) = 0.09272976
#
# Stress axis : x y z
#
# Youngs Moduli (GPa) = 52.15468 17.68491 76.00146
#
# Poissons Ratio (x) = 0.03125 0.16509
# Poissons Ratio (y) = 0.09215 -0.44580
# Poissons Ratio (z) = 0.11329 -0.10373
#
# Static dielectric constant tensor:
#      x y z
#    x 1.747530 0.000000 0.000000 
#    y 0.000000 1.510730 0.000000 
#    z 0.000000 0.000000 1.701940 
# 
# From -- ./inp_files/15050.got.cif
#   From: 2010.05.17/outbox.cif.g08.bks.cpg/sg44_8_cif.got.tgz:15050.got - 2010.06.03 19:37:08.
