data_PCOD9373079
_publ_section_title
;
Structure prediction by ZEFSAII (Michael W. Deem and Ramdas Pophale) SiO2 
 PCOD9373079
Probable space group: I M M 2
;
_chemical_formula_sum "Si O2"
_cell_formula_units_Z 56
_cell_length_a 22.701760
_cell_length_b 7.404303
_cell_length_c 14.466356
_cell_angle_alpha 90.000000
_cell_angle_beta 90.000000
_cell_angle_gamma 90.000000
_cell_volume 2431.660046
_symmetry_space_group_name_H-M "I M M 2"
_symmetry_group_IT_number 44
_symmetry_cell_setting 'orthorhombic'
loop_
_space_group_symop_operation_xyz
x,y,z
-x,-y,z
-x,y,z
x,-y,z
1/2+x,1/2+y,1/2+z
1/2-x,1/2-y,1/2+z
1/2-x,1/2+y,1/2+z
1/2+x,1/2-y,1/2+z
loop_
_atom_site_type_symbol
_atom_site_label
_atom_site_fract_x
_atom_site_fract_y
_atom_site_fract_z
Si Si1 0.636954 0.287652 0.435290
Si Si2 0.818373 0.281803 0.131554
Si Si3 0.000000 0.216828 0.924582
Si Si4 0.563823 0.779804 0.718409
Si Si5 0.000000 0.219379 0.706852
Si Si6 0.435405 0.783757 0.929108
Si Si7 0.883127 0.787684 0.611049
Si Si8 0.289240 0.720399 0.253967
O O1 0.628026 0.500000 0.417268
O O2 0.681122 0.266555 0.522873
O O3 0.568153 0.219376 0.452367
O O4 0.673950 0.218760 0.345005
O O5 0.815245 0.500000 0.132706
O O6 0.882700 0.215337 0.159479
O O7 0.774879 0.223032 0.214963
O O8 0.000000 0.257447 0.814938
O O9 0.000000 0.000000 0.941042
O O10 0.500000 0.721883 0.684294
O O11 0.571716 0.722698 0.824540
O O12 0.564338 0.000000 0.717916
O O13 0.942215 0.289131 0.655931
O O14 0.000000 0.000000 0.699666
O O15 0.500000 0.717524 0.961716
O O16 0.437535 0.000000 0.926610
O O17 0.386049 0.734404 0.001857
O O18 0.827861 0.719668 0.665992
O O19 0.883759 0.000000 0.629885
O O20 0.286300 0.500000 0.262239
#
# Coordination Sequence:
#
# PCOD9373079 Si02
#       8
#     8   8   4   8   4   8   8   8
#     4  10  20  36  58  83 109 140 180 223 270 321
#     4  10  21  37  56  78 105 139 179 221 265 317
#     4   9  16  30  55  82 107 138 178 225 269 318
#     4   8  16  32  51  69  95 135 176 210 254 315
#     4   9  14  24  47  74  97 130 170 211 259 314
#     4   9  17  29  46  71 102 133 167 208 254 305
#     4  10  17  28  49  75 101 132 172 214 259 309
#     4   9  19  35  54  76 105 141 179 214 256 321
#
# _framework density 23.029537000000001
#
# number of rings (size 3 to 8) (size 9 to 14) (size 15 to 20)
#    0.000    2.714    2.143    0.857    1.000    1.143 
#    0.000    4.286    0.000    1.714    0.000    0.000 
#    0.000    0.000    0.000    0.000    0.000    0.000 
#
# Total GULP energy -155909.160587 kJ/mol
# GULP energy per Si atom -5568.184307 kJ/mol
# Density = 2.297712 g / cm^3
# Si number density = 23.029537 Si / 1000 Ang^3
#
#
#
# Elastic Constant Matrix: (Units=GPa)
#
#
# Indices 1 2 3 4 5 6 
#
# 1 109.8129 5.9617 50.4626 0.0000 0.0000 0.0000
# 2 5.9617 72.5951 -4.2907 0.0000 0.0000 0.0000
# 3 50.4626 -4.2907 78.9974 0.0000 0.0000 0.0000
# 4 0.0000 0.0000 0.0000 14.1139 0.0000 0.0000
# 5 0.0000 0.0000 0.0000 0.0000 24.8321 0.0000
# 6 0.0000 0.0000 0.0000 0.0000 0.0000 -3.5268
#
#
#
# Elastic Compliance Matrix: (Units=1/GPa)
#
#
# Indices 1 2 3 4 5 6 
#
# 1 0.013067 -0.001571 -0.008432 0.000000 0.000000 0.000000
# 2 -0.001571 0.014008 0.001765 0.000000 0.000000 0.000000
# 3 -0.008432 0.001765 0.018141 0.000000 0.000000 0.000000
# 4 0.000000 0.000000 0.000000 0.070852 0.000000 0.000000
# 5 0.000000 0.000000 0.000000 0.000000 0.040270 0.000000
# 6 0.000000 0.000000 0.000000 0.000000 0.000000 -0.283542
#
#
# Mechanical properties :
#
#
# Convention : Reuss Voigt Hill
#
# Bulk Modulus (GPa) = 34.79714 40.63030 37.71372
# Shear Modulus (GPa) = -49.43308 21.03529 -14.19889
#
# Velocity S-wave (km/s) = -4.63807 3.02554 -2.48574
# Velocity P-wave (km/s) = 3.67963 5.46682 2.85889
#
# Compressibility (1/GPa) = 0.02873799
#
# Stress axis : x y z
#
# Youngs Moduli (GPa) = 76.53134 71.38586 55.12431
#
# Poissons Ratio (x) = 0.11218 0.46481
# Poissons Ratio (y) = 0.12026 -0.09728
# Poissons Ratio (z) = 0.64532 -0.12597
#
# Static dielectric constant tensor:
#      x y z
#    x 1.926180 0.000000 0.000000 
#    y 0.000000 1.889560 0.000000 
#    z 0.000000 0.000000 1.850760 
# 
# From -- ./inp_files/19251.got.cif
#   From: 2010.05.17/outbox.cif.g08.bks.cpg/sg44_10_cif.got.tgz:19251.got - 2010.06.03 19:37:08.
