data_PCOD9373939
_publ_section_title
;
Structure prediction by ZEFSAII (Michael W. Deem and Ramdas Pophale) SiO2 
 PCOD9373939
Probable space group: I M M 2
;
_chemical_formula_sum "Si O2"
_cell_formula_units_Z 40
_cell_length_a 8.565624
_cell_length_b 26.978550
_cell_length_c 9.369527
_cell_angle_alpha 90.000000
_cell_angle_beta 90.000000
_cell_angle_gamma 90.000000
_cell_volume 2165.186336
_symmetry_space_group_name_H-M "I M M 2"
_symmetry_group_IT_number 44
_symmetry_cell_setting 'orthorhombic'
loop_
_space_group_symop_operation_xyz
x,y,z
-x,-y,z
-x,y,z
x,-y,z
1/2+x,1/2+y,1/2+z
1/2-x,1/2-y,1/2+z
1/2-x,1/2+y,1/2+z
1/2+x,1/2-y,1/2+z
loop_
_atom_site_type_symbol
_atom_site_label
_atom_site_fract_x
_atom_site_fract_y
_atom_site_fract_z
Si Si1 0.811362 0.799362 0.706130
Si Si2 0.179518 0.500000 0.376819
Si Si3 0.810253 0.392548 0.707393
Si Si4 0.819567 0.500000 0.724279
Si Si5 0.311390 0.796656 0.386048
Si Si6 0.186764 0.894544 0.886100
O O1 0.749588 0.795817 0.546351
O O2 0.760094 0.751934 0.798813
O O3 0.761035 0.850097 0.783406
O O4 0.000000 0.799071 0.702538
O O5 0.181858 0.500000 0.550771
O O6 0.259559 0.551304 0.333453
O O7 0.000000 0.500000 0.331442
O O8 0.751833 0.446327 0.763559
O O9 0.760855 0.346438 0.803590
O O10 0.754373 0.386359 0.544822
O O11 0.000000 0.394429 0.704825
O O12 0.000000 0.500000 0.772282
O O13 0.500000 0.796589 0.388793
O O14 0.000000 0.893861 0.895672
#
# Coordination Sequence:
#
# PCOD9373939 Si02
#       6
#     8   4   8   4   8   8
#     4  10  22  37  52  75 106 137 173 219 266 312
#     4   9  17  31  52  77 104 136 174 212 252 303
#     4   9  17  31  52  77 104 135 175 219 258 301
#     4   7  12  25  46  71  98 126 158 204 252 289
#     4  10  21  36  54  76 102 138 181 219 260 311
#     4  10  19  32  52  78 107 138 172 212 261 312
#
# _framework density 18.474160999999999
#
# number of rings (size 3 to 8) (size 9 to 14) (size 15 to 20)
#    0.000    2.600    0.000    3.300    0.000    3.200 
#    0.000    1.000    0.000    1.200    0.000    0.000 
#    0.000    0.000    0.000    0.000    0.000    0.000 
#
# Total GULP energy -111530.574342 kJ/mol
# GULP energy per Si atom -5576.528717 kJ/mol
# Density = 1.843211 g / cm^3
# Si number density = 18.474161 Si / 1000 Ang^3
#
#
#
# Elastic Constant Matrix: (Units=GPa)
#
#
# Indices 1 2 3 4 5 6 
#
# 1 14.9056 31.8173 16.6678 0.0008 0.0003 -0.0019
# 2 31.8173 226.3290 106.3132 -0.0002 -0.0001 0.0005
# 3 16.6678 106.3132 115.5365 0.0029 0.0019 -0.0077
# 4 0.0008 -0.0002 0.0029 32.4442 0.0004 -0.0018
# 5 0.0003 -0.0001 0.0019 0.0004 27.5120 -0.0013
# 6 -0.0019 0.0005 -0.0077 -0.0018 -0.0013 -5.3201
#
#
#
# Elastic Compliance Matrix: (Units=1/GPa)
#
#
# Indices 1 2 3 4 5 6 
#
# 1 0.096269 -0.012346 -0.002528 -0.000002 -0.000001 -0.000032
# 2 -0.012346 0.009365 -0.006837 0.000001 0.000001 0.000015
# 3 -0.002528 -0.006837 0.015311 -0.000001 -0.000001 -0.000022
# 4 -0.000002 0.000001 -0.000001 0.030822 0.000000 -0.000010
# 5 -0.000001 0.000001 -0.000001 0.000000 0.036348 -0.000009
# 6 -0.000032 0.000015 -0.000022 -0.000010 -0.000009 -0.187968
#
#
# Mechanical properties :
#
#
# Convention : Reuss Voigt Hill
#
# Bulk Modulus (GPa) = 12.89915 74.04085 43.47000
# Shear Modulus (GPa) = 72.03661 24.39210 48.21436
#
# Velocity S-wave (km/s) = 6.25123 3.63759 5.11419
# Velocity P-wave (km/s) = 7.68773 7.60314 7.64555
#
# Compressibility (1/GPa) = 0.07752446
#
# Stress axis : x y z
#
# Youngs Moduli (GPa) = 10.38754 106.77722 65.31389
#
# Poissons Ratio (x) = 1.31830 0.16509
# Poissons Ratio (y) = 0.12825 0.44652
# Poissons Ratio (z) = 0.02626 0.72999
#
# Static dielectric constant tensor:
#      x y z
#    x 1.630350 0.000000 0.000000 
#    y 0.000000 1.675200 0.000000 
#    z 0.000000 0.000000 1.588760 
# 
# From -- ./inp_files/4619.got.cif
#   From: 2010.05.17/outbox.cif.g08.bks.cpg/sg44_3_cif.got.tgz:4619.got - 2010.06.03 19:37:08.
