data_PCOD9373077
_publ_section_title
;
Structure prediction by ZEFSAII (Michael W. Deem and Ramdas Pophale) SiO2 
 PCOD9373077
Probable space group: I M M 2
;
_chemical_formula_sum "Si O2"
_cell_formula_units_Z 64
_cell_length_a 19.388176
_cell_length_b 7.568521
_cell_length_c 22.255297
_cell_angle_alpha 90.000000
_cell_angle_beta 90.000000
_cell_angle_gamma 90.000000
_cell_volume 3265.738214
_symmetry_space_group_name_H-M "I M M 2"
_symmetry_group_IT_number 44
_symmetry_cell_setting 'orthorhombic'
loop_
_space_group_symop_operation_xyz
x,y,z
-x,-y,z
-x,y,z
x,-y,z
1/2+x,1/2+y,1/2+z
1/2-x,1/2-y,1/2+z
1/2-x,1/2+y,1/2+z
1/2+x,1/2-y,1/2+z
loop_
_atom_site_type_symbol
_atom_site_label
_atom_site_fract_x
_atom_site_fract_y
_atom_site_fract_z
Si Si1 0.123928 0.295687 0.170220
Si Si2 0.719533 0.785810 0.849354
Si Si3 0.227169 0.290503 0.716176
Si Si4 0.922719 0.205166 0.039895
Si Si5 0.575556 0.215967 0.799628
Si Si6 0.923774 0.289066 0.856479
Si Si7 0.813684 0.197578 0.949064
Si Si8 0.575478 0.214567 0.215176
O O1 0.104123 0.500000 0.164581
O O2 0.206062 0.285175 0.182449
O O3 0.098436 0.208430 0.109461
O O4 0.089179 0.225235 0.231099
O O5 0.760929 0.738000 0.788066
O O6 0.641245 0.727151 0.837998
O O7 0.750444 0.718443 0.912300
O O8 0.721199 0.000000 0.852118
O O9 0.228631 0.500000 0.706461
O O10 0.151653 0.224049 0.695112
O O11 0.000000 0.280754 0.032098
O O12 0.926182 0.000000 0.020577
O O13 0.859357 0.284911 0.001448
O O14 0.500000 0.271258 0.820089
O O15 0.577240 0.000000 0.798685
O O16 0.910882 0.500000 0.860985
O O17 0.868189 0.188826 0.894580
O O18 0.924109 0.245054 0.786318
O O19 0.000000 0.253359 0.880823
O O20 0.792797 0.000000 0.969372
O O21 0.500000 0.275337 0.191467
O O22 0.575350 0.000000 0.209706
#
# Coordination Sequence:
#
# PCOD9373077 Si02
#       8
#     8   8   8   8   8   8   8   8
#     4  10  20  33  49  68  92 121 159 202 243 289
#     4   9  17  28  43  66  94 122 153 190 233 284
#     4  10  17  28  48  69  92 123 156 193 239 283
#     4  10  21  35  48  65  92 127 167 203 235 280
#     4   8  14  26  45  67  89 113 142 182 233 280
#     4   9  16  26  40  59  85 119 157 189 217 261
#     4  10  19  30  44  63  93 126 156 193 237 279
#     4   8  14  24  39  62  91 120 150 184 223 271
#
# _framework density 19.597408000000001
#
# number of rings (size 3 to 8) (size 9 to 14) (size 15 to 20)
#    0.000    2.750    1.250    3.000    0.000    2.000 
#    0.000    0.000    0.000    4.875    0.000    0.875 
#    0.000    5.000    0.000    0.000    0.000    0.000 
#
# Total GULP energy -178254.995536 kJ/mol
# GULP energy per Si atom -5570.468610 kJ/mol
# Density = 1.955280 g / cm^3
# Si number density = 19.597408 Si / 1000 Ang^3
#
#
#
# Elastic Constant Matrix: (Units=GPa)
#
#
# Indices 1 2 3 4 5 6 
#
# 1 149.9072 -3.2760 38.9674 0.0000 0.0000 0.0000
# 2 -3.2760 45.2359 -0.0912 0.0000 0.0000 0.0000
# 3 38.9674 -0.0912 66.1554 0.0000 0.0000 0.0000
# 4 0.0000 0.0000 0.0000 27.4811 0.0000 0.0000
# 5 0.0000 0.0000 0.0000 0.0000 18.8464 0.0000
# 6 0.0000 0.0000 0.0000 0.0000 0.0000 9.6312
#
#
#
# Elastic Compliance Matrix: (Units=1/GPa)
#
#
# Indices 1 2 3 4 5 6 
#
# 1 0.007891 0.000562 -0.004647 0.000000 0.000000 0.000000
# 2 0.000562 0.022146 -0.000301 0.000000 0.000000 0.000000
# 3 -0.004647 -0.000301 0.017853 0.000000 0.000000 0.000000
# 4 0.000000 0.000000 0.000000 0.036389 0.000000 0.000000
# 5 0.000000 0.000000 0.000000 0.000000 0.053061 0.000000
# 6 0.000000 0.000000 0.000000 0.000000 0.000000 0.103829
#
#
# Mechanical properties :
#
#
# Convention : Reuss Voigt Hill
#
# Bulk Modulus (GPa) = 25.56307 36.94431 31.25369
# Shear Modulus (GPa) = 19.01284 26.23829 22.62557
#
# Velocity S-wave (km/s) = 3.11814 3.66302 3.40151
# Velocity P-wave (km/s) = 5.10256 6.06489 5.60442
#
# Compressibility (1/GPa) = 0.03911894
#
# Stress axis : x y z
#
# Youngs Moduli (GPa) = 126.72473 45.15399 56.01323
#
# Poissons Ratio (x) = -0.02538 0.26031
# Poissons Ratio (y) = -0.07123 0.01684
# Poissons Ratio (z) = 0.58893 0.01357
#
# Static dielectric constant tensor:
#      x y z
#    x 1.773500 0.000000 0.000000 
#    y 0.000000 0.946840 0.000000 
#    z 0.000000 0.000000 1.665320 
# 
# From -- ./inp_files/24462.got.cif
#   From: 2010.05.17/outbox.cif.g08.bks.cpg/sg44_13_cif.got.tgz:24462.got - 2010.06.03 19:37:08.
