data_PCOD9373075
_publ_section_title
;
Structure prediction by ZEFSAII (Michael W. Deem and Ramdas Pophale) SiO2 
 PCOD9373075
Probable space group: I M M 2
;
_chemical_formula_sum "Si O2"
_cell_formula_units_Z 40
_cell_length_a 21.693875
_cell_length_b 7.940594
_cell_length_c 13.044400
_cell_angle_alpha 90.000000
_cell_angle_beta 90.000000
_cell_angle_gamma 90.000000
_cell_volume 2247.057742
_symmetry_space_group_name_H-M "I M M 2"
_symmetry_group_IT_number 44
_symmetry_cell_setting 'orthorhombic'
loop_
_space_group_symop_operation_xyz
x,y,z
-x,-y,z
-x,y,z
x,-y,z
1/2+x,1/2+y,1/2+z
1/2-x,1/2-y,1/2+z
1/2-x,1/2+y,1/2+z
1/2+x,1/2-y,1/2+z
loop_
_atom_site_type_symbol
_atom_site_label
_atom_site_fract_x
_atom_site_fract_y
_atom_site_fract_z
Si Si1 0.807156 0.699055 0.964530
Si Si2 0.339234 0.302738 0.244068
Si Si3 0.168060 0.704760 0.410581
Si Si4 0.701367 0.794267 0.688935
Si Si5 0.569210 0.199903 0.074009
O O1 0.818481 0.500000 0.960174
O O2 0.840202 0.778097 0.866239
O O3 0.734041 0.731216 0.950393
O O4 0.822816 0.762663 0.078562
O O5 0.340251 0.500000 0.221351
O O6 0.272260 0.236678 0.206246
O O7 0.394503 0.223919 0.180275
O O8 0.170405 0.500000 0.414625
O O9 0.164281 0.754170 0.290963
O O10 0.113397 0.766538 0.483439
O O11 0.702908 0.000000 0.686648
O O12 0.500000 0.270162 0.075376
O O13 0.564562 0.000000 0.056479
#
# Coordination Sequence:
#
# PCOD9373075 Si02
#       5
#     8   8   8   8   8
#     4  10  17  28  47  71  98 125 155 200 249 294
#     4  10  19  32  47  69  98 129 165 200 244 296
#     4   9  17  30  46  68  98 129 161 198 242 293
#     4   8  15  27  45  68  96 124 153 194 242 291
#     4  10  20  33  50  72  99 131 168 206 241 286
#
# _framework density 17.801055999999999
#
# number of rings (size 3 to 8) (size 9 to 14) (size 15 to 20)
#    0.000    2.600    2.000    2.400    0.000    0.400 
#    0.000    1.000    0.000    1.200    0.000    5.600 
#    0.000    0.000    0.000    0.000    0.000    0.000 
#
# Total GULP energy -111455.103388 kJ/mol
# GULP energy per Si atom -5572.755169 kJ/mol
# Density = 1.776054 g / cm^3
# Si number density = 17.801056 Si / 1000 Ang^3
#
#
#
# Elastic Constant Matrix: (Units=GPa)
#
#
# Indices 1 2 3 4 5 6 
#
# 1 86.4504 -0.8928 48.2240 0.0000 0.0000 0.0000
# 2 -0.8928 15.6889 -11.3659 0.0000 0.0000 0.0000
# 3 48.2240 -11.3659 140.7446 0.0000 0.0000 0.0000
# 4 0.0000 0.0000 0.0000 15.9548 0.0000 0.0000
# 5 0.0000 0.0000 0.0000 0.0000 14.7967 0.0000
# 6 0.0000 0.0000 0.0000 0.0000 0.0000 13.5361
#
#
#
# Elastic Compliance Matrix: (Units=1/GPa)
#
#
# Indices 1 2 3 4 5 6 
#
# 1 0.014426 -0.002932 -0.005180 0.000000 0.000000 0.000000
# 2 -0.002932 0.068296 0.006520 0.000000 0.000000 0.000000
# 3 -0.005180 0.006520 0.009406 0.000000 0.000000 0.000000
# 4 0.000000 0.000000 0.000000 0.062677 0.000000 0.000000
# 5 0.000000 0.000000 0.000000 0.000000 0.067583 0.000000
# 6 0.000000 0.000000 0.000000 0.000000 0.000000 0.073877
#
#
# Mechanical properties :
#
#
# Convention : Reuss Voigt Hill
#
# Bulk Modulus (GPa) = 11.24284 34.97938 23.11111
# Shear Modulus (GPa) = 15.19312 22.65209 18.92261
#
# Velocity S-wave (km/s) = 2.92463 3.57110 3.26391
# Velocity P-wave (km/s) = 4.21120 6.05777 5.21683
#
# Compressibility (1/GPa) = 0.08894547
#
# Stress axis : x y z
#
# Youngs Moduli (GPa) = 69.31720 14.64218 106.31136
#
# Poissons Ratio (x) = 0.04292 0.55067
# Poissons Ratio (y) = 0.20321 -0.69312
# Poissons Ratio (z) = 0.35905 -0.09546
#
# Static dielectric constant tensor:
#      x y z
#    x 1.582100 0.000000 0.000000 
#    y 0.000000 1.630350 0.000000 
#    z 0.000000 0.000000 1.646930 
# 
# From -- ./inp_files/10844.got.cif
#   From: 2010.05.17/outbox.cif.g08.bks.cpg/sg44_6_cif.got.tgz:10844.got - 2010.06.03 19:37:08.
