data_PCOD9373452
_publ_section_title
;
Structure prediction by ZEFSAII (Michael W. Deem and Ramdas Pophale) SiO2 
 PCOD9373452
Probable space group: I M M 2
;
_chemical_formula_sum "Si O2"
_cell_formula_units_Z 64
_cell_length_a 21.194318
_cell_length_b 8.544808
_cell_length_c 20.088042
_cell_angle_alpha 90.000000
_cell_angle_beta 90.000000
_cell_angle_gamma 90.000000
_cell_volume 3637.972088
_symmetry_space_group_name_H-M "I M M 2"
_symmetry_group_IT_number 44
_symmetry_cell_setting 'orthorhombic'
loop_
_space_group_symop_operation_xyz
x,y,z
-x,-y,z
-x,y,z
x,-y,z
1/2+x,1/2+y,1/2+z
1/2-x,1/2-y,1/2+z
1/2-x,1/2+y,1/2+z
1/2+x,1/2-y,1/2+z
loop_
_atom_site_type_symbol
_atom_site_label
_atom_site_fract_x
_atom_site_fract_y
_atom_site_fract_z
Si Si1 0.880517 0.814174 0.511300
Si Si2 0.569505 0.190682 0.296278
Si Si3 0.260742 0.814188 0.657623
Si Si4 0.071123 0.686832 0.374186
Si Si5 0.762293 0.186289 0.017148
Si Si6 0.811419 0.186713 0.292123
Si Si7 0.381221 0.187294 0.153720
Si Si8 0.689868 0.810655 0.381699
O O1 0.916933 0.734894 0.450678
O O2 0.807441 0.759897 0.507161
O O3 0.902908 0.763429 0.584633
O O4 0.883591 0.000000 0.504176
O O5 0.500000 0.241614 0.318077
O O6 0.581897 0.237102 0.219806
O O7 0.627318 0.241153 0.342530
O O8 0.570766 0.000000 0.296703
O O9 0.286834 0.752013 0.587368
O O10 0.302154 0.767469 0.720924
O O11 0.191906 0.734105 0.664901
O O12 0.252084 0.000000 0.654082
O O13 0.077116 0.500000 0.368498
O O14 0.124866 0.765480 0.329467
O O15 0.000000 0.732738 0.354983
O O16 0.803358 0.236953 0.954225
O O17 0.755963 0.000000 0.020784
O O18 0.751686 0.231852 0.338463
O O19 0.809024 0.000000 0.283295
O O20 0.385190 0.000000 0.147059
O O21 0.689270 0.000000 0.387523
#
# Coordination Sequence:
#
# PCOD9373452 Si02
#       8
#     8   8   8   8   8   8   8   8
#     4  11  21  34  52  78 111 148 187 226 276 328
#     4   9  18  33  54  79 109 146 185 223 267 321
#     4  11  21  34  55  82 113 145 183 229 280 329
#     4  11  24  40  57  80 110 147 189 230 274 331
#     4  11  21  34  55  82 112 144 184 230 281 329
#     4  11  21  36  59  85 112 144 182 230 283 330
#     4  10  18  32  52  78 111 148 191 230 271 322
#     4  10  19  34  56  83 111 142 183 229 277 327
#
# _framework density 17.592217000000002
#
# number of rings (size 3 to 8) (size 9 to 14) (size 15 to 20)
#    0.000    1.500    2.500    6.000    0.000    2.000 
#    0.000    1.250    0.000    3.750    0.000    1.750 
#    0.000    0.000    0.000    0.000    0.000    0.000 
#
# Total GULP energy -178772.247310 kJ/mol
# GULP energy per Si atom -5586.632728 kJ/mol
# Density = 1.755218 g / cm^3
# Si number density = 17.592217 Si / 1000 Ang^3
#
#
#
# Elastic Constant Matrix: (Units=GPa)
#
#
# Indices 1 2 3 4 5 6 
#
# 1 91.3564 7.8172 46.6845 0.0000 0.0000 0.0000
# 2 7.8172 37.0291 10.3639 0.0000 0.0000 0.0000
# 3 46.6845 10.3639 107.7528 0.0000 0.0000 0.0000
# 4 0.0000 0.0000 0.0000 31.3857 0.0000 0.0000
# 5 0.0000 0.0000 0.0000 0.0000 21.1180 0.0000
# 6 0.0000 0.0000 0.0000 0.0000 0.0000 17.9449
#
#
#
# Elastic Compliance Matrix: (Units=1/GPa)
#
#
# Indices 1 2 3 4 5 6 
#
# 1 0.014120 -0.001304 -0.005992 0.000000 0.000000 0.000000
# 2 -0.001304 0.027873 -0.002116 0.000000 0.000000 0.000000
# 3 -0.005992 -0.002116 0.012080 0.000000 0.000000 0.000000
# 4 0.000000 0.000000 0.000000 0.031862 0.000000 0.000000
# 5 0.000000 0.000000 0.000000 0.000000 0.047353 0.000000
# 6 0.000000 0.000000 0.000000 0.000000 0.000000 0.055726
#
#
# Mechanical properties :
#
#
# Convention : Reuss Voigt Hill
#
# Bulk Modulus (GPa) = 28.36925 40.65219 34.51072
# Shear Modulus (GPa) = 22.76998 25.50790 24.13894
#
# Velocity S-wave (km/s) = 3.60157 3.81196 3.70826
# Velocity P-wave (km/s) = 5.78413 6.52173 6.16397
#
# Compressibility (1/GPa) = 0.03524943
#
# Stress axis : x y z
#
# Youngs Moduli (GPa) = 70.82287 35.87660 82.78059
#
# Poissons Ratio (x) = 0.04677 0.49603
# Poissons Ratio (y) = 0.09233 0.17517
# Poissons Ratio (z) = 0.42437 0.07592
#
# Static dielectric constant tensor:
#      x y z
#    x 1.592710 0.000000 0.000000 
#    y 0.000000 1.590430 0.000000 
#    z 0.000000 0.000000 1.599150 
# 
# From -- ./inp_files/24476.got.cif
#   From: 2010.05.17/outbox.cif.g08.bks.cpg/sg44_13_cif.got.tgz:24476.got - 2010.06.03 19:37:08.
