data_PCOD9373652
_publ_section_title
;
Structure prediction by ZEFSAII (Michael W. Deem and Ramdas Pophale) SiO2 
 PCOD9373652
Probable space group: I M M 2
;
_chemical_formula_sum "Si O2"
_cell_formula_units_Z 56
_cell_length_a 7.698521
_cell_length_b 19.306300
_cell_length_c 21.544789
_cell_angle_alpha 90.000000
_cell_angle_beta 90.000000
_cell_angle_gamma 90.000000
_cell_volume 3202.201041
_symmetry_space_group_name_H-M "I M M 2"
_symmetry_group_IT_number 44
_symmetry_cell_setting 'orthorhombic'
loop_
_space_group_symop_operation_xyz
x,y,z
-x,-y,z
-x,y,z
x,-y,z
1/2+x,1/2+y,1/2+z
1/2-x,1/2-y,1/2+z
1/2-x,1/2+y,1/2+z
1/2+x,1/2-y,1/2+z
loop_
_atom_site_type_symbol
_atom_site_label
_atom_site_fract_x
_atom_site_fract_y
_atom_site_fract_z
Si Si1 0.707574 0.921552 0.176160
Si Si2 0.294231 0.717734 0.373535
Si Si3 0.710652 0.846898 0.052131
Si Si4 0.707815 0.577252 0.423218
Si Si5 0.286705 0.579185 0.929515
Si Si6 0.698461 0.707907 0.998598
Si Si7 0.706870 0.654342 0.803249
O O1 0.500000 0.926374 0.168271
O O2 0.774455 0.882294 0.115046
O O3 0.739032 0.879339 0.238848
O O4 0.776448 0.000000 0.180978
O O5 0.500000 0.718832 0.387515
O O6 0.234907 0.638004 0.375914
O O7 0.199471 0.755770 0.430649
O O8 0.264904 0.766521 0.314573
O O9 0.500000 0.842790 0.053733
O O10 0.755594 0.893146 0.992096
O O11 0.777078 0.768249 0.041334
O O12 0.500000 0.572360 0.416994
O O13 0.780521 0.500000 0.415255
O O14 0.500000 0.580906 0.929912
O O15 0.233043 0.500000 0.937494
O O16 0.225261 0.632664 0.982754
O O17 0.229701 0.609066 0.862421
O O18 0.500000 0.696993 0.019240
O O19 0.500000 0.653380 0.805733
#
# Coordination Sequence:
#
# PCOD9373652 Si02
#       7
#     8   8   8   8   8   8   8
#     4  10  20  31  42  59  84 114 147 179 211 250
#     4   9  16  27  43  61  83 110 138 171 211 252
#     4   9  17  29  43  60  85 116 147 176 208 249
#     4   9  17  28  43  65  90 113 138 171 213 258
#     4   8  13  22  38  60  82 102 127 164 208 246
#     4   8  14  25  41  60  82 109 140 172 206 248
#     4  10  19  30  43  59  82 112 145 177 210 253
#
# _framework density 17.487971000000002
#
# number of rings (size 3 to 8) (size 9 to 14) (size 15 to 20)
#    0.000    3.000    0.000    2.571    0.000    2.857 
#    0.000    0.000    0.000    3.857    0.000    1.000 
#    0.000    5.714    0.000    0.000    0.000    0.000 
#
# Total GULP energy -155884.688629 kJ/mol
# GULP energy per Si atom -5567.310308 kJ/mol
# Density = 1.744817 g / cm^3
# Si number density = 17.487971 Si / 1000 Ang^3
#
#
#
# Elastic Constant Matrix: (Units=GPa)
#
#
# Indices 1 2 3 4 5 6 
#
# 1 33.7368 4.3329 0.0506 0.0000 0.0000 0.0000
# 2 4.3329 201.0685 79.3376 0.0000 0.0000 0.0000
# 3 0.0506 79.3376 79.9950 0.0000 0.0000 0.0000
# 4 0.0000 0.0000 0.0000 25.3694 0.0000 0.0000
# 5 0.0000 0.0000 0.0000 0.0000 7.4530 0.0000
# 6 0.0000 0.0000 0.0000 0.0000 0.0000 11.1958
#
#
#
# Elastic Compliance Matrix: (Units=1/GPa)
#
#
# Indices 1 2 3 4 5 6 
#
# 1 0.029774 -0.001042 0.001014 0.000000 0.000000 0.000000
# 2 -0.001042 0.008208 -0.008139 0.000000 0.000000 0.000000
# 3 0.001014 -0.008139 0.020573 0.000000 0.000000 0.000000
# 4 0.000000 0.000000 0.000000 0.039418 0.000000 0.000000
# 5 0.000000 0.000000 0.000000 0.000000 0.134174 0.000000
# 6 0.000000 0.000000 0.000000 0.000000 0.000000 0.089319
#
#
# Mechanical properties :
#
#
# Convention : Reuss Voigt Hill
#
# Bulk Modulus (GPa) = 23.68540 53.58251 38.63395
# Shear Modulus (GPa) = 14.20972 24.20891 19.20932
#
# Velocity S-wave (km/s) = 2.85361 3.72468 3.31785
# Velocity P-wave (km/s) = 4.94274 7.01454 6.06772
#
# Compressibility (1/GPa) = 0.04222010
#
# Stress axis : x y z
#
# Youngs Moduli (GPa) = 33.58685 121.83908 48.60808
#
# Poissons Ratio (x) = 0.12694 -0.04931
# Poissons Ratio (y) = 0.03499 0.39564
# Poissons Ratio (z) = -0.03407 0.99170
#
# Static dielectric constant tensor:
#      x y z
#    x 1.650450 0.000000 0.000000 
#    y 0.000000 1.657510 0.000000 
#    z 0.000000 0.000000 1.568460 
# 
# From -- ./inp_files/20674.got.cif
#   From: 2010.05.17/outbox.cif.g08.bks.cpg/sg44_11_cif.got.tgz:20674.got - 2010.06.03 19:37:08.
