data_PCOD9373171
_publ_section_title
;
Structure prediction by ZEFSAII (Michael W. Deem and Ramdas Pophale) SiO2 
 PCOD9373171
Probable space group: I M M 2
;
_chemical_formula_sum "Si O2"
_cell_formula_units_Z 56
_cell_length_a 8.460849
_cell_length_b 14.087696
_cell_length_c 30.431840
_cell_angle_alpha 90.000000
_cell_angle_beta 90.000000
_cell_angle_gamma 90.000000
_cell_volume 3627.288739
_symmetry_space_group_name_H-M "I M M 2"
_symmetry_group_IT_number 44
_symmetry_cell_setting 'orthorhombic'
loop_
_space_group_symop_operation_xyz
x,y,z
-x,-y,z
-x,y,z
x,-y,z
1/2+x,1/2+y,1/2+z
1/2-x,1/2-y,1/2+z
1/2-x,1/2+y,1/2+z
1/2+x,1/2-y,1/2+z
loop_
_atom_site_type_symbol
_atom_site_label
_atom_site_fract_x
_atom_site_fract_y
_atom_site_fract_z
Si Si1 0.689313 0.891605 0.035750
Si Si2 0.689314 0.291503 0.622742
Si Si3 0.312606 0.208150 0.490717
Si Si4 0.310838 0.391887 0.077535
Si Si5 0.808169 0.110875 0.403809
Si Si6 0.316505 0.384638 0.807594
Si Si7 0.806658 0.889717 0.211943
O O1 0.500000 0.886477 0.032558
O O2 0.739190 0.857094 0.084334
O O3 0.739926 0.000000 0.028423
O O4 0.762285 0.815343 0.002402
O O5 0.500000 0.299676 0.620407
O O6 0.737957 0.184534 0.610802
O O7 0.742510 0.327101 0.670536
O O8 0.500000 0.199614 0.494241
O O9 0.236007 0.142998 0.528778
O O10 0.255326 0.173248 0.443459
O O11 0.500000 0.387899 0.081064
O O12 0.258280 0.500000 0.084616
O O13 0.749477 0.142065 0.355236
O O14 0.000000 0.114241 0.403491
O O15 0.764204 0.000000 0.410453
O O16 0.500000 0.353905 0.807779
O O17 0.317245 0.500000 0.807265
O O18 0.248225 0.356894 0.760140
O O19 0.000000 0.888521 0.213613
O O20 0.761380 0.000000 0.205144
#
# Coordination Sequence:
#
# PCOD9373171 Si02
#       7
#     8   8   8   8   8   8   8
#     4  10  20  33  47  62  84 114 146 178 208 245
#     4  10  18  27  44  68  91 114 140 174 215 254
#     4  11  21  30  44  65  88 113 140 174 216 258
#     4  10  20  33  46  59  81 114 149 182 212 248
#     4   9  16  27  44  64  87 116 147 177 209 248
#     4   7  11  21  38  60  85 113 143 172 203 243
#     4   8  13  22  38  63  92 116 139 169 206 248
#
# _framework density 15.438529000000001
#
# number of rings (size 3 to 8) (size 9 to 14) (size 15 to 20)
#    0.000    2.714    0.000    6.857    0.000    4.857 
#    0.000    0.000    0.000    1.714    0.000    5.000 
#    0.000    3.429    0.000    0.000    0.000    0.000 
#
# Total GULP energy -155981.617959 kJ/mol
# GULP energy per Si atom -5570.772070 kJ/mol
# Density = 1.540339 g / cm^3
# Si number density = 15.438529 Si / 1000 Ang^3
#
#
#
# Elastic Constant Matrix: (Units=GPa)
#
#
# Indices 1 2 3 4 5 6 
#
# 1 11.8974 -2.0078 3.5910 0.0000 0.0000 0.0000
# 2 -2.0078 73.5968 51.8841 0.0000 0.0000 0.0000
# 3 3.5910 51.8841 145.0668 0.0000 0.0000 0.0000
# 4 0.0000 0.0000 0.0000 23.3038 0.0000 0.0000
# 5 0.0000 0.0000 0.0000 0.0000 16.7180 0.0000
# 6 0.0000 0.0000 0.0000 0.0000 0.0000 10.8795
#
#
#
# Elastic Compliance Matrix: (Units=1/GPa)
#
#
# Indices 1 2 3 4 5 6 
#
# 1 0.086121 0.005151 -0.003974 0.000000 0.000000 0.000000
# 2 0.005151 0.018477 -0.006736 0.000000 0.000000 0.000000
# 3 -0.003974 -0.006736 0.009401 0.000000 0.000000 0.000000
# 4 0.000000 0.000000 0.000000 0.042911 0.000000 0.000000
# 5 0.000000 0.000000 0.000000 0.000000 0.059816 0.000000
# 6 0.000000 0.000000 0.000000 0.000000 0.000000 0.091916
#
#
# Mechanical properties :
#
#
# Convention : Reuss Voigt Hill
#
# Bulk Modulus (GPa) = 9.72000 37.49952 23.60976
# Shear Modulus (GPa) = 14.12219 21.98650 18.05435
#
# Velocity S-wave (km/s) = 3.02774 3.77786 3.42341
# Velocity P-wave (km/s) = 4.30495 6.58574 5.56348
#
# Compressibility (1/GPa) = 0.10288070
#
# Stress axis : x y z
#
# Youngs Moduli (GPa) = 11.61159 54.12223 106.37316
#
# Poissons Ratio (x) = -0.27879 0.42275
# Poissons Ratio (y) = -0.05981 0.71651
# Poissons Ratio (z) = 0.04615 0.36456
#
# Static dielectric constant tensor:
#      x y z
#    x 1.534870 0.000000 0.000000 
#    y 0.000000 1.497120 0.000000 
#    z 0.000000 0.000000 1.534000 
# 
# From -- ./inp_files/27229.got.cif
#   From: 2010.05.17/outbox.cif.g08.bks.cpg/sg44_14_cif.got.tgz:27229.got - 2010.06.03 19:37:08.
