data_PCOD9373855
_publ_section_title
;
Structure prediction by ZEFSAII (Michael W. Deem and Ramdas Pophale) SiO2 
 PCOD9373855
Probable space group: I M M 2
;
_chemical_formula_sum "Si O2"
_cell_formula_units_Z 48
_cell_length_a 8.555368
_cell_length_b 14.014502
_cell_length_c 19.215438
_cell_angle_alpha 90.000000
_cell_angle_beta 90.000000
_cell_angle_gamma 90.000000
_cell_volume 2303.916066
_symmetry_space_group_name_H-M "I M M 2"
_symmetry_group_IT_number 44
_symmetry_cell_setting 'orthorhombic'
loop_
_space_group_symop_operation_xyz
x,y,z
-x,-y,z
-x,y,z
x,-y,z
1/2+x,1/2+y,1/2+z
1/2-x,1/2-y,1/2+z
1/2-x,1/2+y,1/2+z
1/2+x,1/2-y,1/2+z
loop_
_atom_site_type_symbol
_atom_site_label
_atom_site_fract_x
_atom_site_fract_y
_atom_site_fract_z
Si Si1 0.323110 0.608477 0.891240
Si Si2 0.820818 0.746277 0.789391
Si Si3 0.686004 0.896141 0.544523
Si Si4 0.689338 0.388943 0.402962
Si Si5 0.815436 0.301805 0.546345
Si Si6 0.185551 0.894024 0.176713
O O1 0.500000 0.646633 0.881199
O O2 0.322852 0.500000 0.865723
O O3 0.196128 0.669835 0.851651
O O4 0.279010 0.604903 0.971836
O O5 0.761304 0.841003 0.829344
O O6 0.732116 0.692419 0.727647
O O7 0.000000 0.760780 0.768153
O O8 0.500000 0.892195 0.532314
O O9 0.739673 0.796206 0.575863
O O10 0.718953 0.000000 0.578507
O O11 0.500000 0.382900 0.405063
O O12 0.734687 0.500000 0.407435
O O13 0.752676 0.331739 0.470133
O O14 0.768675 0.380304 0.602829
O O15 0.000000 0.289906 0.542108
O O16 0.000000 0.891237 0.166530
O O17 0.226584 0.000000 0.204497
#
# Coordination Sequence:
#
# PCOD9373855 Si02
#       6
#     8   8   8   8   8   8
#     4  10  19  31  51  82 119 155 192 240 298 356
#     4  11  22  37  60  89 121 159 204 256 312 370
#     4  10  20  35  57  86 120 159 203 249 300 359
#     4  10  22  41  64  90 123 165 210 256 311 374
#     4  12  24  39  63  94 128 164 207 260 315 374
#     4  11  25  44  65  89 123 167 210 258 317 378
#
# _framework density 20.834091999999998
#
# number of rings (size 3 to 8) (size 9 to 14) (size 15 to 20)
#    0.000    1.333    1.667    4.500    0.000    8.333 
#    0.000    0.833    0.000    3.000    0.000    0.000 
#    0.000    0.000    0.000    0.000    0.000    0.000 
#
# Total GULP energy -133917.922742 kJ/mol
# GULP energy per Si atom -5579.913448 kJ/mol
# Density = 2.078667 g / cm^3
# Si number density = 20.834092 Si / 1000 Ang^3
#
#
#
# Elastic Constant Matrix: (Units=GPa)
#
#
# Indices 1 2 3 4 5 6 
#
# 1 67.3853 35.5294 14.7749 0.0000 0.0000 0.0000
# 2 35.5294 129.6431 25.6166 0.0000 0.0000 0.0000
# 3 14.7749 25.6166 61.6111 0.0000 0.0000 0.0000
# 4 0.0000 0.0000 0.0000 24.8115 0.0000 0.0000
# 5 0.0000 0.0000 0.0000 0.0000 29.4852 0.0000
# 6 0.0000 0.0000 0.0000 0.0000 0.0000 22.9743
#
#
#
# Elastic Compliance Matrix: (Units=1/GPa)
#
#
# Indices 1 2 3 4 5 6 
#
# 1 0.017673 -0.004364 -0.002423 0.000000 0.000000 0.000000
# 2 -0.004364 0.009482 -0.002896 0.000000 0.000000 0.000000
# 3 -0.002423 -0.002896 0.018016 0.000000 0.000000 0.000000
# 4 0.000000 0.000000 0.000000 0.040304 0.000000 0.000000
# 5 0.000000 0.000000 0.000000 0.000000 0.033915 0.000000
# 6 0.000000 0.000000 0.000000 0.000000 0.000000 0.043527
#
#
# Mechanical properties :
#
#
# Convention : Reuss Voigt Hill
#
# Bulk Modulus (GPa) = 38.75482 45.60903 42.18192
# Shear Modulus (GPa) = 26.19385 27.63544 26.91464
#
# Velocity S-wave (km/s) = 3.54963 3.64600 3.59814
# Velocity P-wave (km/s) = 5.95331 6.29790 6.12802
#
# Compressibility (1/GPa) = 0.02580324
#
# Stress axis : x y z
#
# Youngs Moduli (GPa) = 56.58484 105.46585 55.50636
#
# Poissons Ratio (x) = 0.46030 0.13452
# Poissons Ratio (y) = 0.24696 0.16073
# Poissons Ratio (z) = 0.13713 0.30539
#
# Static dielectric constant tensor:
#      x y z
#    x 1.700650 0.000000 0.000000 
#    y 0.000000 1.828230 0.000000 
#    z 0.000000 0.000000 1.738630 
# 
# From -- ./inp_files/22908.got.cif
#   From: 2010.05.17/outbox.cif.g08.bks.cpg/sg44_12_cif.got.tgz:22908.got - 2010.06.03 19:37:08.
