data_PCOD9373330
_publ_section_title
;
Structure prediction by ZEFSAII (Michael W. Deem and Ramdas Pophale) SiO2 
 PCOD9373330
Probable space group: I M M 2
;
_chemical_formula_sum "Si O2"
_cell_formula_units_Z 40
_cell_length_a 22.489717
_cell_length_b 10.426614
_cell_length_c 8.931327
_cell_angle_alpha 90.000000
_cell_angle_beta 90.000000
_cell_angle_gamma 90.000000
_cell_volume 2094.321142
_symmetry_space_group_name_H-M "I M M 2"
_symmetry_group_IT_number 44
_symmetry_cell_setting 'orthorhombic'
loop_
_space_group_symop_operation_xyz
x,y,z
-x,-y,z
-x,y,z
x,-y,z
1/2+x,1/2+y,1/2+z
1/2-x,1/2-y,1/2+z
1/2-x,1/2+y,1/2+z
1/2+x,1/2-y,1/2+z
loop_
_atom_site_type_symbol
_atom_site_label
_atom_site_fract_x
_atom_site_fract_y
_atom_site_fract_z
Si Si1 0.766313 0.234712 0.256570
Si Si2 0.693603 0.500000 0.553890
Si Si3 0.065337 0.787170 0.355780
Si Si4 0.320857 0.650834 0.054302
Si Si5 0.434672 0.000000 0.897672
Si Si6 0.566642 0.500000 0.600782
Si Si7 0.193163 0.500000 0.342662
O O1 0.794839 0.124197 0.156372
O O2 0.772289 0.185900 0.426253
O O3 0.803003 0.368302 0.250196
O O4 0.700703 0.268466 0.196928
O O5 0.625443 0.500000 0.499451
O O6 0.745383 0.500000 0.433108
O O7 0.116904 0.813164 0.476129
O O8 0.064703 0.636634 0.314830
O O9 0.000000 0.817040 0.420756
O O10 0.071950 0.878386 0.212833
O O11 0.320186 0.500000 0.085361
O O12 0.500000 0.000000 0.981079
O O13 0.365072 0.000000 0.950624
O O14 0.500000 0.500000 0.534609
#
# Coordination Sequence:
#
# PCOD9373330 Si02
#       7
#     8   4   8   8   4   4   4
#     4  12  22  34  55  81 110 143 182 222 276 331
#     4  12  20  35  56  77 118 141 177 235 277 325
#     4  10  18  31  52  76 105 139 180 226 272 319
#     4  12  22  36  55  84 113 142 183 230 278 329
#     4  10  18  30  48  75 109 135 173 231 273 311
#     4  10  18  31  53  78 104 147 187 223 275 325
#     4  12  22  34  53  84 109 145 185 221 281 335
#
# _framework density 19.099267999999999
#
# number of rings (size 3 to 8) (size 9 to 14) (size 15 to 20)
#    0.000    0.800    9.000    0.000    0.000    0.000 
#    0.000    0.000    0.000    1.200    0.000    0.000 
#    0.000    0.000    0.000    0.000    0.000    0.000 
#
# Total GULP energy -111334.871394 kJ/mol
# GULP energy per Si atom -5566.743570 kJ/mol
# Density = 1.905580 g / cm^3
# Si number density = 19.099268 Si / 1000 Ang^3
#
#
#
# Elastic Constant Matrix: (Units=GPa)
#
#
# Indices 1 2 3 4 5 6 
#
# 1 171.6990 17.4699 35.4880 0.0000 0.0000 0.0000
# 2 17.4699 138.5250 7.9814 0.0000 0.0000 0.0000
# 3 35.4880 7.9814 29.1591 0.0000 0.0000 0.0000
# 4 0.0000 0.0000 0.0000 22.0692 0.0000 0.0000
# 5 0.0000 0.0000 0.0000 0.0000 26.4317 0.0000
# 6 0.0000 0.0000 0.0000 0.0000 0.0000 21.0295
#
#
#
# Elastic Compliance Matrix: (Units=1/GPa)
#
#
# Indices 1 2 3 4 5 6 
#
# 1 0.007808 -0.000444 -0.009382 0.000000 0.000000 0.000000
# 2 -0.000444 0.007360 -0.001474 0.000000 0.000000 0.000000
# 3 -0.009382 -0.001474 0.046116 0.000000 0.000000 0.000000
# 4 0.000000 0.000000 0.000000 0.045312 0.000000 0.000000
# 5 0.000000 0.000000 0.000000 0.000000 0.037833 0.000000
# 6 0.000000 0.000000 0.000000 0.000000 0.000000 0.047552
#
#
# Mechanical properties :
#
#
# Convention : Reuss Voigt Hill
#
# Bulk Modulus (GPa) = 25.84997 51.25128 38.55063
# Shear Modulus (GPa) = 21.98031 32.46899 27.22465
#
# Velocity S-wave (km/s) = 3.39609 4.12759 3.77958
# Velocity P-wave (km/s) = 5.37976 7.04333 6.26699
#
# Compressibility (1/GPa) = 0.03868476
#
# Stress axis : x y z
#
# Youngs Moduli (GPa) = 128.06708 135.87220 21.68447
#
# Poissons Ratio (x) = 0.06036 0.20344
# Poissons Ratio (y) = 0.05689 0.03196
# Poissons Ratio (z) = 1.20148 0.20026
#
# Static dielectric constant tensor:
#      x y z
#    x 1.761600 0.000000 0.000000 
#    y 0.000000 1.711220 0.000000 
#    z 0.000000 0.000000 1.663350 
# 
# From -- ./inp_files/8791.got.cif
#   From: 2010.05.17/outbox.cif.g08.bks.cpg/sg44_5_cif.got.tgz:8791.got - 2010.06.03 19:37:08.
