data_PCOD9373074
_publ_section_title
;
Structure prediction by ZEFSAII (Michael W. Deem and Ramdas Pophale) SiO2 
 PCOD9373074
Probable space group: I M M 2
;
_chemical_formula_sum "Si O2"
_cell_formula_units_Z 48
_cell_length_a 18.640070
_cell_length_b 15.911698
_cell_length_c 8.373626
_cell_angle_alpha 90.000000
_cell_angle_beta 90.000000
_cell_angle_gamma 90.000000
_cell_volume 2483.576981
_symmetry_space_group_name_H-M "I M M 2"
_symmetry_group_IT_number 44
_symmetry_cell_setting 'orthorhombic'
loop_
_space_group_symop_operation_xyz
x,y,z
-x,-y,z
-x,y,z
x,-y,z
1/2+x,1/2+y,1/2+z
1/2-x,1/2-y,1/2+z
1/2-x,1/2+y,1/2+z
1/2+x,1/2-y,1/2+z
loop_
_atom_site_type_symbol
_atom_site_label
_atom_site_fract_x
_atom_site_fract_y
_atom_site_fract_z
Si Si1 0.918321 0.347516 0.489860
Si Si2 0.223425 0.141960 0.473116
Si Si3 0.083433 0.233263 0.957244
Si Si4 0.822486 0.283712 0.234795
Si Si5 0.364315 0.090448 0.315120
Si Si6 0.919292 0.845233 0.619556
O O1 0.878417 0.345418 0.321324
O O2 0.874623 0.395411 0.626552
O O3 0.921346 0.249610 0.546493
O O4 0.000000 0.378243 0.482264
O O5 0.212565 0.226662 0.370302
O O6 0.263104 0.167029 0.636300
O O7 0.281583 0.091782 0.370645
O O8 0.144963 0.109835 0.524744
O O9 0.134389 0.224949 0.109857
O O10 0.000000 0.225186 0.000415
O O11 0.098492 0.328637 0.895820
O O12 0.097192 0.171641 0.807098
O O13 0.395821 0.000000 0.359956
O O14 0.000000 0.880221 0.604567
#
# Coordination Sequence:
#
# PCOD9373074 Si02
#       6
#     8   8   8   8   8   8
#     4   9  17  29  45  66  92 122 160 200 236 280
#     4  10  18  29  47  69  96 124 160 203 243 288
#     4   9  17  29  48  74 100 124 155 196 241 293
#     4  10  17  28  47  71  94 122 155 203 255 286
#     4  10  20  32  46  65  95 137 171 191 224 279
#     4   8  15  28  46  69  93 118 151 198 253 290
#
# _framework density 19.326961000000001
#
# number of rings (size 3 to 8) (size 9 to 14) (size 15 to 20)
#    0.000    2.667    0.000    6.000    0.000    2.000 
#    0.000    3.333    0.000    4.500    0.000    0.000 
#    0.000    1.333    0.000    0.000    0.000    0.000 
#
# Total GULP energy -133691.164582 kJ/mol
# GULP energy per Si atom -5570.465191 kJ/mol
# Density = 1.928297 g / cm^3
# Si number density = 19.326961 Si / 1000 Ang^3
#
#
#
# Elastic Constant Matrix: (Units=GPa)
#
#
# Indices 1 2 3 4 5 6 
#
# 1 120.5304 6.9236 56.9110 0.0000 0.0000 0.0000
# 2 6.9236 23.3812 3.3502 0.0000 0.0000 0.0000
# 3 56.9110 3.3502 91.2949 0.0000 0.0000 0.0000
# 4 0.0000 0.0000 0.0000 -3.5067 0.0000 0.0000
# 5 0.0000 0.0000 0.0000 0.0000 37.9169 0.0000
# 6 0.0000 0.0000 0.0000 0.0000 0.0000 -13.1268
#
#
#
# Elastic Compliance Matrix: (Units=1/GPa)
#
#
# Indices 1 2 3 4 5 6 
#
# 1 0.011898 -0.002473 -0.007326 0.000000 0.000000 0.000000
# 2 -0.002473 0.043510 -0.000055 0.000000 0.000000 0.000000
# 3 -0.007326 -0.000055 0.015522 0.000000 0.000000 0.000000
# 4 0.000000 0.000000 0.000000 -0.285165 0.000000 0.000000
# 5 0.000000 0.000000 0.000000 0.000000 0.026373 0.000000
# 6 0.000000 0.000000 0.000000 0.000000 0.000000 -0.076180
#
#
# Mechanical properties :
#
#
# Convention : Reuss Voigt Hill
#
# Bulk Modulus (GPa) = 19.52307 41.06401 30.29354
# Shear Modulus (GPa) = -22.00131 15.45812 -3.27160
#
# Velocity S-wave (km/s) = -3.37764 2.83118 -1.30247
# Velocity P-wave (km/s) = 2.25563 5.65514 3.66693
#
# Compressibility (1/GPa) = 0.05122145
#
# Stress axis : x y z
#
# Youngs Moduli (GPa) = 84.04828 22.98335 64.42283
#
# Poissons Ratio (x) = 0.05685 0.47197
# Poissons Ratio (y) = 0.20789 0.00353
# Poissons Ratio (z) = 0.61575 0.00126
#
# Static dielectric constant tensor:
#      x y z
#    x 1.718290 0.000000 0.000000 
#    y 0.000000 1.648390 0.000000 
#    z 0.000000 0.000000 1.690150 
# 
# From -- ./inp_files/8225.got.cif
#   From: 2010.05.17/outbox.cif.g08.bks.cpg/sg44_5_cif.got.tgz:8225.got - 2010.06.03 19:37:08.
