data_PCOD9373722
_publ_section_title
;
Structure prediction by ZEFSAII (Michael W. Deem and Ramdas Pophale) SiO2 
 PCOD9373722
Probable space group: I M M 2
;
_chemical_formula_sum "Si O2"
_cell_formula_units_Z 64
_cell_length_a 8.968272
_cell_length_b 14.752185
_cell_length_c 28.974777
_cell_angle_alpha 90.000000
_cell_angle_beta 90.000000
_cell_angle_gamma 90.000000
_cell_volume 3833.409579
_symmetry_space_group_name_H-M "I M M 2"
_symmetry_group_IT_number 44
_symmetry_cell_setting 'orthorhombic'
loop_
_space_group_symop_operation_xyz
x,y,z
-x,-y,z
-x,y,z
x,-y,z
1/2+x,1/2+y,1/2+z
1/2-x,1/2-y,1/2+z
1/2-x,1/2+y,1/2+z
1/2+x,1/2-y,1/2+z
loop_
_atom_site_type_symbol
_atom_site_label
_atom_site_fract_x
_atom_site_fract_y
_atom_site_fract_z
Si Si1 0.676332 0.393011 0.564780
Si Si2 0.679669 0.604998 0.388223
Si Si3 0.322133 0.104961 0.162909
Si Si4 0.820132 0.776370 0.975514
Si Si5 0.179524 0.395263 0.289630
Si Si6 0.821612 0.724124 0.202192
Si Si7 0.320430 0.395787 0.015284
Si Si8 0.177106 0.892455 0.621736
O O1 0.500000 0.377160 0.573499
O O2 0.694418 0.500000 0.554542
O O3 0.766369 0.372273 0.611159
O O4 0.722855 0.334790 0.520692
O O5 0.500000 0.609187 0.384903
O O6 0.719147 0.500000 0.398820
O O7 0.727703 0.670832 0.429480
O O8 0.749732 0.628278 0.338869
O O9 0.500000 0.112366 0.164794
O O10 0.247774 0.176480 0.197056
O O11 0.279961 0.000000 0.171678
O O12 0.752349 0.677299 0.982003
O O13 0.000000 0.771550 0.975033
O O14 0.220961 0.500000 0.278845
O O15 0.225672 0.328960 0.248415
O O16 0.000000 0.391917 0.293297
O O17 0.765999 0.666062 0.158439
O O18 0.000000 0.729591 0.201546
O O19 0.500000 0.390746 0.012931
O O20 0.277405 0.500000 0.005875
O O21 0.278482 0.374543 0.068607
O O22 0.000000 0.873663 0.626079
O O23 0.198637 0.000000 0.629879
#
# Coordination Sequence:
#
# PCOD9373722 Si02
#       8
#     8   8   8   8   8   8   8   8
#     4   9  17  30  48  71 101 133 161 192 235 286
#     4   9  18  33  52  74 100 127 154 188 234 287
#     4  10  21  35  49  68  97 131 167 206 242 280
#     4  10  19  30  48  74  99 125 160 199 237 280
#     4   9  19  35  52  73 101 127 153 190 236 286
#     4  11  21  32  50  74  99 128 162 201 244 290
#     4   9  19  34  48  65  94 131 167 202 238 276
#     4   9  18  32  49  71 101 134 166 200 238 283
#
# _framework density 16.695319000000001
#
# number of rings (size 3 to 8) (size 9 to 14) (size 15 to 20)
#    0.000    2.500    0.000    3.000    0.000    7.750 
#    0.000    2.500    0.000    4.500    0.000    0.000 
#    0.000    0.000    0.000    0.000    0.000    0.000 
#
# Total GULP energy -178559.960760 kJ/mol
# GULP energy per Si atom -5579.998774 kJ/mol
# Density = 1.665732 g / cm^3
# Si number density = 16.695319 Si / 1000 Ang^3
#
#
#
# Elastic Constant Matrix: (Units=GPa)
#
#
# Indices 1 2 3 4 5 6 
#
# 1 23.9778 40.5149 38.5461 0.0000 0.0000 0.0000
# 2 40.5149 113.7985 100.7011 0.0000 0.0000 0.0000
# 3 38.5461 100.7011 117.1219 0.0000 0.0000 0.0000
# 4 0.0000 0.0000 0.0000 32.2863 0.0000 0.0000
# 5 0.0000 0.0000 0.0000 0.0000 27.1589 0.0000
# 6 0.0000 0.0000 0.0000 0.0000 0.0000 28.4710
#
#
#
# Elastic Compliance Matrix: (Units=1/GPa)
#
#
# Indices 1 2 3 4 5 6 
#
# 1 0.107591 -0.029147 -0.010349 0.000000 0.000000 0.000000
# 2 -0.029147 0.044639 -0.028788 0.000000 0.000000 0.000000
# 3 -0.010349 -0.028788 0.036696 0.000000 0.000000 0.000000
# 4 0.000000 0.000000 0.000000 0.030973 0.000000 0.000000
# 5 0.000000 0.000000 0.000000 0.000000 0.036820 0.000000
# 6 0.000000 0.000000 0.000000 0.000000 0.000000 0.035123
#
#
# Mechanical properties :
#
#
# Convention : Reuss Voigt Hill
#
# Bulk Modulus (GPa) = 19.09918 68.26916 43.68417
# Shear Modulus (GPa) = 11.21418 22.59230 16.90324
#
# Velocity S-wave (km/s) = 2.59452 3.68259 3.18536
# Velocity P-wave (km/s) = 4.52107 7.68518 6.30484
#
# Compressibility (1/GPa) = 0.05235826
#
# Stress axis : x y z
#
# Youngs Moduli (GPa) = 9.29444 22.40174 27.25102
#
# Poissons Ratio (x) = 0.65295 0.28201
# Poissons Ratio (y) = 0.27091 0.78450
# Poissons Ratio (z) = 0.09618 0.64490
#
# Static dielectric constant tensor:
#      x y z
#    x 1.557940 0.000000 0.000000 
#    y 0.000000 1.570240 0.000000 
#    z 0.000000 0.000000 1.536600 
# 
# From -- ./inp_files/25114.got.cif
#   From: 2010.05.17/outbox.cif.g08.bks.cpg/sg44_13_cif.got.tgz:25114.got - 2010.06.03 19:37:08.
