data_PCOD9373101
_publ_section_title
;
Structure prediction by ZEFSAII (Michael W. Deem and Ramdas Pophale) SiO2 
 PCOD9373101
Probable space group: I M M 2
;
_chemical_formula_sum "Si O2"
_cell_formula_units_Z 64
_cell_length_a 7.449820
_cell_length_b 20.055703
_cell_length_c 21.530163
_cell_angle_alpha 90.000000
_cell_angle_beta 90.000000
_cell_angle_gamma 90.000000
_cell_volume 3216.851308
_symmetry_space_group_name_H-M "I M M 2"
_symmetry_group_IT_number 44
_symmetry_cell_setting 'orthorhombic'
loop_
_space_group_symop_operation_xyz
x,y,z
-x,-y,z
-x,y,z
x,-y,z
1/2+x,1/2+y,1/2+z
1/2-x,1/2-y,1/2+z
1/2-x,1/2+y,1/2+z
1/2+x,1/2-y,1/2+z
loop_
_atom_site_type_symbol
_atom_site_label
_atom_site_fract_x
_atom_site_fract_y
_atom_site_fract_z
Si Si1 0.208072 0.782646 0.854930
Si Si2 0.793103 0.204687 0.232597
Si Si3 0.718335 0.926411 0.668621
Si Si4 0.278968 0.212774 0.615573
Si Si5 0.216631 0.425764 0.313277
Si Si6 0.216932 0.925972 0.441390
Si Si7 0.207223 0.719248 0.980763
Si Si8 0.219012 0.926236 0.296584
O O1 0.292466 0.753232 0.792289
O O2 0.220872 0.862463 0.852269
O O3 0.286305 0.750760 0.917903
O O4 0.000000 0.762638 0.851248
O O5 0.716797 0.241913 0.172866
O O6 0.713648 0.134893 0.255707
O O7 0.000000 0.190837 0.216573
O O8 0.500000 0.926600 0.668064
O O9 0.778016 0.863191 0.629342
O O10 0.771204 0.917435 0.740952
O O11 0.777607 0.000000 0.647828
O O12 0.500000 0.212161 0.615431
O O13 0.216904 0.236641 0.548132
O O14 0.274441 0.500000 0.333325
O O15 0.000000 0.424765 0.314087
O O16 0.286587 0.861015 0.475856
O O17 0.270346 0.918708 0.368872
O O18 0.000000 0.924264 0.443958
O O19 0.274272 0.000000 0.462705
O O20 0.000000 0.741177 0.981201
O O21 0.000000 0.924229 0.296677
O O22 0.273152 0.000000 0.275659
#
# Coordination Sequence:
#
# PCOD9373101 Si02
#       8
#     8   8   8   8   8   8   8   8
#     4  11  21  31  46  71 104 132 155 192 241 293
#     4  10  17  30  54  73  89 122 168 210 239 275
#     4   8  13  23  43  70  93 113 147 196 236 266
#     4   9  17  29  46  69  94 124 163 202 237 274
#     4   9  17  31  53  77  95 117 161 209 239 274
#     4   9  17  30  48  70  97 127 161 201 239 278
#     4  10  21  33  45  68 102 135 163 192 233 290
#     4   8  14  25  45  73  96 114 147 201 252 281
#
# _framework density 19.895233000000001
#
# number of rings (size 3 to 8) (size 9 to 14) (size 15 to 20)
#    0.000    2.750    2.500    1.875    0.000    1.500 
#    0.000    1.875    0.000    1.125    0.000    3.500 
#    0.000    0.000    0.000    0.000    0.000    0.000 
#
# Total GULP energy -178521.512204 kJ/mol
# GULP energy per Si atom -5578.797256 kJ/mol
# Density = 1.984995 g / cm^3
# Si number density = 19.895233 Si / 1000 Ang^3
#
#
#
# Elastic Constant Matrix: (Units=GPa)
#
#
# Indices 1 2 3 4 5 6 
#
# 1 59.2977 -8.5336 -1.2771 0.0000 0.0000 0.0000
# 2 -8.5336 106.7326 52.7622 0.0000 0.0000 0.0000
# 3 -1.2771 52.7622 119.0172 0.0000 0.0000 0.0000
# 4 0.0000 0.0000 0.0000 22.2719 0.0000 0.0000
# 5 0.0000 0.0000 0.0000 0.0000 -0.6383 0.0000
# 6 0.0000 0.0000 0.0000 0.0000 0.0000 69.1687
#
#
#
# Elastic Compliance Matrix: (Units=1/GPa)
#
#
# Indices 1 2 3 4 5 6 
#
# 1 0.017088 0.001634 -0.000541 0.000000 0.000000 0.000000
# 2 0.001634 0.012155 -0.005371 0.000000 0.000000 0.000000
# 3 -0.000541 -0.005371 0.010777 0.000000 0.000000 0.000000
# 4 0.000000 0.000000 0.000000 0.044900 0.000000 0.000000
# 5 0.000000 0.000000 0.000000 0.000000 -1.566574 0.000000
# 6 0.000000 0.000000 0.000000 0.000000 0.000000 0.014457
#
#
# Mechanical properties :
#
#
# Convention : Reuss Voigt Hill
#
# Bulk Modulus (GPa) = 31.78300 41.21672 36.49986
# Shear Modulus (GPa) = -3.45267 34.30019 15.42376
#
# Velocity S-wave (km/s) = -1.31879 4.15666 2.78735
# Velocity P-wave (km/s) = 3.70013 6.61808 5.36143
#
# Compressibility (1/GPa) = 0.03146336
#
# Stress axis : x y z
#
# Youngs Moduli (GPa) = 58.52229 82.27151 92.78708
#
# Poissons Ratio (x) = -0.13439 0.05018
# Poissons Ratio (y) = -0.09560 0.49835
# Poissons Ratio (z) = 0.03165 0.44187
#
# Static dielectric constant tensor:
#      x y z
#    x 1.771280 0.000000 0.000000 
#    y 0.000000 1.710920 0.000000 
#    z 0.000000 0.000000 1.696440 
# 
# From -- ./inp_files/23432.got.cif
#   From: 2010.05.17/outbox.cif.g08.bks.cpg/sg44_12_cif.got.tgz:23432.got - 2010.06.03 19:37:08.
