data_PCOD9373291
_publ_section_title
;
Structure prediction by ZEFSAII (Michael W. Deem and Ramdas Pophale) SiO2 
 PCOD9373291
Probable space group: I M M 2
;
_chemical_formula_sum "Si O2"
_cell_formula_units_Z 64
_cell_length_a 31.273278
_cell_length_b 10.858720
_cell_length_c 10.910828
_cell_angle_alpha 90.000000
_cell_angle_beta 90.000000
_cell_angle_gamma 90.000000
_cell_volume 3705.183742
_symmetry_space_group_name_H-M "I M M 2"
_symmetry_group_IT_number 44
_symmetry_cell_setting 'orthorhombic'
loop_
_space_group_symop_operation_xyz
x,y,z
-x,-y,z
-x,y,z
x,-y,z
1/2+x,1/2+y,1/2+z
1/2-x,1/2-y,1/2+z
1/2-x,1/2+y,1/2+z
1/2+x,1/2-y,1/2+z
loop_
_atom_site_type_symbol
_atom_site_label
_atom_site_fract_x
_atom_site_fract_y
_atom_site_fract_z
Si Si1 0.831848 0.633094 0.659300
Si Si2 0.132183 0.136947 0.527875
Si Si3 0.584271 0.136570 0.330770
Si Si4 0.744783 0.286458 0.770317
Si Si5 0.852144 0.865668 0.243554
Si Si6 0.267604 0.859366 0.527922
Si Si7 0.951637 0.860036 0.687648
Si Si8 0.867245 0.637349 0.078975
O O1 0.834305 0.500000 0.594539
O O2 0.838464 0.752363 0.575365
O O3 0.871299 0.638664 0.754083
O O4 0.787048 0.640635 0.729608
O O5 0.131624 0.139028 0.382260
O O6 0.085042 0.153078 0.585098
O O7 0.147532 0.000000 0.566731
O O8 0.557002 0.251539 0.284267
O O9 0.598486 0.147481 0.471047
O O10 0.564992 0.000000 0.310455
O O11 0.699366 0.351696 0.748951
O O12 0.743728 0.177053 0.668418
O O13 0.749945 0.272483 0.917985
O O14 0.870511 0.750479 0.170642
O O15 0.862520 0.000000 0.189878
O O16 0.319242 0.854665 0.523472
O O17 0.253824 0.000000 0.501949
O O18 0.000000 0.849049 0.639995
O O19 0.947045 0.000000 0.738032
O O20 0.870540 0.500000 0.134946
#
# Coordination Sequence:
#
# PCOD9373291 Si02
#       8
#     8   8   8   8   8   8   8   8
#     4  10  18  29  49  71  94 129 172 215 260 306
#     4   9  19  35  52  73 104 137 169 209 261 315
#     4   9  17  31  51  74  99 130 165 202 252 309
#     4  11  20  32  51  71  99 140 184 231 277 317
#     4  10  20  32  47  69  98 137 178 216 258 303
#     4  10  20  35  50  67  98 137 179 231 278 318
#     4   9  18  33  55  82 107 129 157 202 259 315
#     4   9  18  33  51  69  94 132 173 211 256 306
#
# _framework density 17.273098000000001
#
# number of rings (size 3 to 8) (size 9 to 14) (size 15 to 20)
#    0.000    2.375    1.250    1.875    0.000    2.750 
#    0.000    6.250    0.000    0.750    0.000    1.750 
#    0.000    0.000    0.000    0.000    0.000    0.000 
#
# Total GULP energy -178159.860016 kJ/mol
# GULP energy per Si atom -5567.495625 kJ/mol
# Density = 1.723378 g / cm^3
# Si number density = 17.273098 Si / 1000 Ang^3
#
#
#
# Elastic Constant Matrix: (Units=GPa)
#
#
# Indices 1 2 3 4 5 6 
#
# 1 58.7926 36.9324 13.6756 0.0000 0.0000 0.0000
# 2 36.9324 140.7107 61.2627 0.0000 0.0000 0.0000
# 3 13.6756 61.2627 73.9536 0.0000 0.0000 0.0000
# 4 0.0000 0.0000 0.0000 20.2041 0.0000 0.0000
# 5 0.0000 0.0000 0.0000 0.0000 12.8540 0.0000
# 6 0.0000 0.0000 0.0000 0.0000 0.0000 4.0868
#
#
#
# Elastic Compliance Matrix: (Units=1/GPa)
#
#
# Indices 1 2 3 4 5 6 
#
# 1 0.020418 -0.005811 0.001038 0.000000 0.000000 0.000000
# 2 -0.005811 0.012770 -0.009504 0.000000 0.000000 0.000000
# 3 0.001038 -0.009504 0.021203 0.000000 0.000000 0.000000
# 4 0.000000 0.000000 0.000000 0.049495 0.000000 0.000000
# 5 0.000000 0.000000 0.000000 0.000000 0.077797 0.000000
# 6 0.000000 0.000000 0.000000 0.000000 0.000000 0.244689
#
#
# Mechanical properties :
#
#
# Convention : Reuss Voigt Hill
#
# Bulk Modulus (GPa) = 38.70402 55.24427 46.97415
# Shear Modulus (GPa) = 10.78662 18.20139 14.49400
#
# Velocity S-wave (km/s) = 2.50166 3.24966 2.89988
# Velocity P-wave (km/s) = 5.54979 6.79210 6.20213
#
# Compressibility (1/GPa) = 0.02583711
#
# Stress axis : x y z
#
# Youngs Moduli (GPa) = 48.97664 78.30971 47.16332
#
# Poissons Ratio (x) = 0.45507 -0.04896
# Poissons Ratio (y) = 0.28461 0.44823
# Poissons Ratio (z) = -0.05085 0.74424
#
# Static dielectric constant tensor:
#      x y z
#    x 1.575050 0.000000 0.000000 
#    y 0.000000 1.631340 0.000000 
#    z 0.000000 0.000000 1.579660 
# 
# From -- ./inp_files/10112.got.cif
#   From: 2010.05.17/outbox.cif.g08.bks.cpg/sg44_6_cif.got.tgz:10112.got - 2010.06.03 19:37:08.
