data_PCOD9373723
_publ_section_title
;
Structure prediction by ZEFSAII (Michael W. Deem and Ramdas Pophale) SiO2 
 PCOD9373723
Probable space group: I M M 2
;
_chemical_formula_sum "Si O2"
_cell_formula_units_Z 64
_cell_length_a 29.491758
_cell_length_b 7.539294
_cell_length_c 14.579997
_cell_angle_alpha 90.000000
_cell_angle_beta 90.000000
_cell_angle_gamma 90.000000
_cell_volume 3241.819091
_symmetry_space_group_name_H-M "I M M 2"
_symmetry_group_IT_number 44
_symmetry_cell_setting 'orthorhombic'
loop_
_space_group_symop_operation_xyz
x,y,z
-x,-y,z
-x,y,z
x,-y,z
1/2+x,1/2+y,1/2+z
1/2-x,1/2-y,1/2+z
1/2-x,1/2+y,1/2+z
1/2+x,1/2-y,1/2+z
loop_
_atom_site_type_symbol
_atom_site_label
_atom_site_fract_x
_atom_site_fract_y
_atom_site_fract_z
Si Si1 0.630692 0.709919 0.107080
Si Si2 0.799800 0.293979 0.450356
Si Si3 0.122401 0.711849 0.321768
Si Si4 0.198300 0.216800 0.968733
Si Si5 0.551339 0.213966 0.969710
Si Si6 0.622856 0.287149 0.607794
Si Si7 0.948288 0.216739 0.957181
Si Si8 0.372980 0.716112 0.314914
O O1 0.638863 0.500000 0.110354
O O2 0.630129 0.779018 0.210762
O O3 0.669869 0.786670 0.042059
O O4 0.582904 0.740424 0.056179
O O5 0.792378 0.500000 0.426314
O O6 0.832041 0.216333 0.370700
O O7 0.749788 0.217736 0.464793
O O8 0.123139 0.500000 0.335787
O O9 0.079175 0.777453 0.380073
O O10 0.120331 0.742918 0.214171
O O11 0.169535 0.266807 0.878598
O O12 0.198936 0.000000 0.972227
O O13 0.168481 0.275685 0.056168
O O14 0.500000 0.280965 0.974828
O O15 0.549146 0.000000 0.965548
O O16 0.622958 0.500000 0.601272
O O17 0.580026 0.226138 0.546965
O O18 0.918306 0.270783 0.869380
O O19 0.000000 0.277738 0.955786
O O20 0.949032 0.000000 0.957521
O O21 0.373655 0.500000 0.312790
#
# Coordination Sequence:
#
# PCOD9373723 Si02
#       8
#     8   8   8   8   8   8   8   8
#     4  10  19  30  48  75 100 118 146 195 244 275
#     4   9  18  33  50  65  88 127 165 190 223 279
#     4   9  18  31  47  67  90 119 154 189 227 273
#     4   8  15  30  49  67  90 123 161 194 226 275
#     4   9  19  36  53  67  90 128 165 189 219 274
#     4   9  17  29  47  70  93 118 151 192 234 272
#     4   8  14  26  44  66  92 120 149 181 222 277
#     4   8  15  27  44  68  95 121 151 190 233 275
#
# _framework density 19.742003
#
# number of rings (size 3 to 8) (size 9 to 14) (size 15 to 20)
#    0.000    3.250    0.000    2.625    0.000    4.250 
#    0.000    3.125    0.000    7.500    0.000    0.000 
#    0.000    0.000    0.000    0.000    0.000    0.000 
#
# Total GULP energy -178396.873818 kJ/mol
# GULP energy per Si atom -5574.902307 kJ/mol
# Density = 1.969707 g / cm^3
# Si number density = 19.742003 Si / 1000 Ang^3
#
#
#
# Elastic Constant Matrix: (Units=GPa)
#
#
# Indices 1 2 3 4 5 6 
#
# 1 179.7831 -4.7424 74.5145 0.0000 0.0000 0.0000
# 2 -4.7424 44.5138 -14.1597 0.0000 0.0000 0.0000
# 3 74.5145 -14.1597 163.8321 0.0000 0.0000 0.0000
# 4 0.0000 0.0000 0.0000 48.1566 0.0000 0.0000
# 5 0.0000 0.0000 0.0000 0.0000 6.3549 0.0000
# 6 0.0000 0.0000 0.0000 0.0000 0.0000 5.6992
#
#
#
# Elastic Compliance Matrix: (Units=1/GPa)
#
#
# Indices 1 2 3 4 5 6 
#
# 1 0.006858 -0.000269 -0.003142 0.000000 0.000000 0.000000
# 2 -0.000269 0.023111 0.002120 0.000000 0.000000 0.000000
# 3 -0.003142 0.002120 0.007716 0.000000 0.000000 0.000000
# 4 0.000000 0.000000 0.000000 0.020766 0.000000 0.000000
# 5 0.000000 0.000000 0.000000 0.000000 0.157359 0.000000
# 6 0.000000 0.000000 0.000000 0.000000 0.000000 0.175464
#
#
# Mechanical properties :
#
#
# Convention : Reuss Voigt Hill
#
# Bulk Modulus (GPa) = 28.48890 55.48375 41.98633
# Shear Modulus (GPa) = 12.32875 34.20991 23.26933
#
# Velocity S-wave (km/s) = 2.50170 4.16727 3.43690
# Velocity P-wave (km/s) = 4.77562 7.16382 6.08797
#
# Compressibility (1/GPa) = 0.03510139
#
# Stress axis : x y z
#
# Youngs Moduli (GPa) = 145.82567 43.27028 129.59830
#
# Poissons Ratio (x) = 0.01164 0.40722
# Poissons Ratio (y) = 0.03922 -0.27471
# Poissons Ratio (z) = 0.45821 -0.09172
#
# Static dielectric constant tensor:
#      x y z
#    x 1.689380 0.000000 0.000000 
#    y 0.000000 1.741010 0.000000 
#    z 0.000000 0.000000 1.669460 
# 
# From -- ./inp_files/19683.got.cif
#   From: 2010.05.17/outbox.cif.g08.bks.cpg/sg44_10_cif.got.tgz:19683.got - 2010.06.03 19:37:08.
