data_PCOD9373446
_publ_section_title
;
Structure prediction by ZEFSAII (Michael W. Deem and Ramdas Pophale) SiO2 
 PCOD9373446
Probable space group: I M M 2
;
_chemical_formula_sum "Si O2"
_cell_formula_units_Z 64
_cell_length_a 8.864177
_cell_length_b 19.140651
_cell_length_c 21.998809
_cell_angle_alpha 90.000000
_cell_angle_beta 90.000000
_cell_angle_gamma 90.000000
_cell_volume 3732.452532
_symmetry_space_group_name_H-M "I M M 2"
_symmetry_group_IT_number 44
_symmetry_cell_setting 'orthorhombic'
loop_
_space_group_symop_operation_xyz
x,y,z
-x,-y,z
-x,y,z
x,-y,z
1/2+x,1/2+y,1/2+z
1/2-x,1/2-y,1/2+z
1/2-x,1/2+y,1/2+z
1/2+x,1/2-y,1/2+z
loop_
_atom_site_type_symbol
_atom_site_label
_atom_site_fract_x
_atom_site_fract_y
_atom_site_fract_z
Si Si1 0.666149 0.422492 0.899360
Si Si2 0.680754 0.421737 0.365746
Si Si3 0.174335 0.181556 0.511765
Si Si4 0.677063 0.078789 0.275763
Si Si5 0.680052 0.634105 0.231968
Si Si6 0.319415 0.920570 0.608499
Si Si7 0.319414 0.275401 0.779530
Si Si8 0.181717 0.717642 0.413178
O O1 0.500000 0.412701 0.868926
O O2 0.669205 0.500000 0.925633
O O3 0.792218 0.419144 0.848277
O O4 0.675086 0.369693 0.953761
O O5 0.500000 0.416242 0.373465
O O6 0.728557 0.500000 0.382051
O O7 0.711842 0.407240 0.294507
O O8 0.760058 0.360109 0.402323
O O9 0.261315 0.140394 0.563866
O O10 0.235790 0.250610 0.477626
O O11 0.000000 0.192362 0.531194
O O12 0.500000 0.084496 0.262613
O O13 0.762290 0.149311 0.256102
O O14 0.728123 0.000000 0.256386
O O15 0.500000 0.637332 0.223824
O O16 0.754903 0.596637 0.174893
O O17 0.745527 0.711774 0.242520
O O18 0.500000 0.919231 0.609493
O O19 0.272127 0.000000 0.590453
O O20 0.500000 0.271210 0.775737
O O21 0.276730 0.260991 0.851213
O O22 0.000000 0.719652 0.415263
#
# Coordination Sequence:
#
# PCOD9373446 Si02
#       8
#     8   8   8   8   8   8   8   8
#     4   9  16  27  43  62  88 126 167 203 242 289
#     4   9  18  32  51  76 103 130 162 203 253 306
#     4  10  19  33  50  69  96 133 174 211 250 299
#     4  10  19  28  41  66  99 132 167 206 247 295
#     4  10  20  35  55  76  99 132 174 216 259 307
#     4  11  24  38  51  73 104 138 178 218 254 296
#     4  10  18  32  51  72 100 132 168 212 261 310
#     4   9  18  31  48  72  99 129 166 206 251 304
#
# _framework density 17.146902999999998
#
# number of rings (size 3 to 8) (size 9 to 14) (size 15 to 20)
#    0.000    2.250    1.250    2.250    0.000    5.000 
#    0.000    1.250    0.000    0.000    0.000    0.875 
#    0.000    3.000    0.000    0.000    0.000    0.000 
#
# Total GULP energy -178258.709889 kJ/mol
# GULP energy per Si atom -5570.584684 kJ/mol
# Density = 1.710788 g / cm^3
# Si number density = 17.146903 Si / 1000 Ang^3
#
#
#
# Elastic Constant Matrix: (Units=GPa)
#
#
# Indices 1 2 3 4 5 6 
#
# 1 39.4240 33.6365 22.9657 0.0000 0.0000 0.0000
# 2 33.6365 130.2470 31.8280 0.0000 0.0000 0.0000
# 3 22.9657 31.8280 53.4357 0.0000 0.0000 0.0000
# 4 0.0000 0.0000 0.0000 19.2005 0.0000 0.0000
# 5 0.0000 0.0000 0.0000 0.0000 20.5189 0.0000
# 6 0.0000 0.0000 0.0000 0.0000 0.0000 28.8690
#
#
#
# Elastic Compliance Matrix: (Units=1/GPa)
#
#
# Indices 1 2 3 4 5 6 
#
# 1 0.038499 -0.006904 -0.012434 0.000000 0.000000 0.000000
# 2 -0.006904 0.010224 -0.003122 0.000000 0.000000 0.000000
# 3 -0.012434 -0.003122 0.025918 0.000000 0.000000 0.000000
# 4 0.000000 0.000000 0.000000 0.052082 0.000000 0.000000
# 5 0.000000 0.000000 0.000000 0.000000 0.048735 0.000000
# 6 0.000000 0.000000 0.000000 0.000000 0.000000 0.034639
#
#
# Mechanical properties :
#
#
# Convention : Reuss Voigt Hill
#
# Bulk Modulus (GPa) = 33.64756 44.44080 39.04418
# Shear Modulus (GPa) = 18.87333 22.69610 20.78472
#
# Velocity S-wave (km/s) = 3.32126 3.64212 3.48538
# Velocity P-wave (km/s) = 5.86288 6.60762 6.24636
#
# Compressibility (1/GPa) = 0.02971984
#
# Stress axis : x y z
#
# Youngs Moduli (GPa) = 25.97480 97.81203 38.58365
#
# Poissons Ratio (x) = 0.67529 0.47974
# Poissons Ratio (y) = 0.17933 0.12047
# Poissons Ratio (z) = 0.32297 0.30540
#
# Static dielectric constant tensor:
#      x y z
#    x 1.594460 0.000000 0.000000 
#    y 0.000000 1.646210 0.000000 
#    z 0.000000 0.000000 1.560870 
# 
# From -- ./inp_files/25233.got.cif
#   From: 2010.05.17/outbox.cif.g08.bks.cpg/sg44_13_cif.got.tgz:25233.got - 2010.06.03 19:37:08.
