data_PCOD9373193
_publ_section_title
;
Structure prediction by ZEFSAII (Michael W. Deem and Ramdas Pophale) SiO2 
 PCOD9373193
Probable space group: I M M 2
;
_chemical_formula_sum "Si O2"
_cell_formula_units_Z 64
_cell_length_a 27.034356
_cell_length_b 8.766059
_cell_length_c 18.743044
_cell_angle_alpha 90.000000
_cell_angle_beta 90.000000
_cell_angle_gamma 90.000000
_cell_volume 4441.815779
_symmetry_space_group_name_H-M "I M M 2"
_symmetry_group_IT_number 44
_symmetry_cell_setting 'orthorhombic'
loop_
_space_group_symop_operation_xyz
x,y,z
-x,-y,z
-x,y,z
x,-y,z
1/2+x,1/2+y,1/2+z
1/2-x,1/2-y,1/2+z
1/2-x,1/2+y,1/2+z
1/2+x,1/2-y,1/2+z
loop_
_atom_site_type_symbol
_atom_site_label
_atom_site_fract_x
_atom_site_fract_y
_atom_site_fract_z
Si Si1 0.239320 0.181861 0.454440
Si Si2 0.239901 0.318853 0.610061
Si Si3 0.702162 0.181275 0.731070
Si Si4 0.442278 0.817877 0.945567
Si Si5 0.852270 0.816959 0.698093
Si Si6 0.056961 0.183200 0.600251
Si Si7 0.855454 0.182013 0.354791
Si Si8 0.794971 0.317822 0.817217
O O1 0.242136 0.271199 0.527878
O O2 0.189309 0.219760 0.410176
O O3 0.284959 0.212461 0.400421
O O4 0.237937 0.000000 0.469057
O O5 0.236759 0.500000 0.618369
O O6 0.286924 0.256025 0.654497
O O7 0.191200 0.243492 0.645932
O O8 0.657113 0.242618 0.778729
O O9 0.749970 0.234441 0.776723
O O10 0.700651 0.000000 0.725017
O O11 0.500000 0.778363 0.933499
O O12 0.405786 0.740295 0.889616
O O13 0.437092 0.000000 0.942042
O O14 0.429573 0.761160 0.025333
O O15 0.904236 0.776212 0.661624
O O16 0.842642 0.743021 0.775517
O O17 0.848374 0.000000 0.703232
O O18 0.000000 0.222752 0.617141
O O19 0.059671 0.000000 0.590078
O O20 0.855329 0.000000 0.346715
O O21 0.790075 0.500000 0.806871
#
# Coordination Sequence:
#
# PCOD9373193 Si02
#       8
#     8   8   8   8   8   8   8   8
#     4   9  18  30  42  59  83 110 139 171 206 246
#     4  11  20  28  41  61  85 111 140 172 205 247
#     4  10  18  29  44  60  82 109 138 172 208 246
#     4  10  20  31  43  62  86 111 143 181 215 247
#     4  10  18  28  43  60  81 110 143 176 209 248
#     4   9  18  31  44  59  82 113 146 179 215 251
#     4  10  19  31  46  62  83 112 145 176 210 252
#     4   9  17  29  43  59  82 109 138 172 208 249
#
# _framework density 14.408523000000001
#
# number of rings (size 3 to 8) (size 9 to 14) (size 15 to 20)
#    0.000    2.250    0.000    6.750    0.000    7.750 
#    0.000    0.000    0.000    0.000    0.000    0.000 
#    0.000    1.000    0.000    6.500    0.000    4.250 
#
# Total GULP energy -178374.292766 kJ/mol
# GULP energy per Si atom -5574.196649 kJ/mol
# Density = 1.437573 g / cm^3
# Si number density = 14.408523 Si / 1000 Ang^3
#
#
#
# Elastic Constant Matrix: (Units=GPa)
#
#
# Indices 1 2 3 4 5 6 
#
# 1 55.2115 23.8758 31.4618 0.0000 0.0000 0.0000
# 2 23.8758 59.6020 33.4702 0.0000 0.0000 0.0000
# 3 31.4618 33.4702 71.6390 0.0000 0.0000 0.0000
# 4 0.0000 0.0000 0.0000 26.8297 0.0000 0.0000
# 5 0.0000 0.0000 0.0000 0.0000 28.1517 0.0000
# 6 0.0000 0.0000 0.0000 0.0000 0.0000 17.9561
#
#
#
# Elastic Compliance Matrix: (Units=1/GPa)
#
#
# Indices 1 2 3 4 5 6 
#
# 1 0.025330 -0.005287 -0.008654 0.000000 0.000000 0.000000
# 2 -0.005287 0.023849 -0.008821 0.000000 0.000000 0.000000
# 3 -0.008654 -0.008821 0.021881 0.000000 0.000000 0.000000
# 4 0.000000 0.000000 0.000000 0.037272 0.000000 0.000000
# 5 0.000000 0.000000 0.000000 0.000000 0.035522 0.000000
# 6 0.000000 0.000000 0.000000 0.000000 0.000000 0.055691
#
#
# Mechanical properties :
#
#
# Convention : Reuss Voigt Hill
#
# Bulk Modulus (GPa) = 39.15995 40.45202 39.80598
# Shear Modulus (GPa) = 19.71760 21.09713 20.40737
#
# Velocity S-wave (km/s) = 3.70329 3.83065 3.76751
# Velocity P-wave (km/s) = 6.74709 6.90661 6.82731
#
# Compressibility (1/GPa) = 0.02553630
#
# Stress axis : x y z
#
# Youngs Moduli (GPa) = 39.47897 41.93013 45.70277
#
# Poissons Ratio (x) = 0.22169 0.39551
# Poissons Ratio (y) = 0.20873 0.40312
# Poissons Ratio (z) = 0.34165 0.36985
#
# Static dielectric constant tensor:
#      x y z
#    x 1.480850 0.000000 0.000000 
#    y 0.000000 1.480370 0.000000 
#    z 0.000000 0.000000 1.481260 
# 
# From -- ./inp_files/22350.got.cif
#   From: 2010.05.17/outbox.cif.g08.bks.cpg/sg44_12_cif.got.tgz:22350.got - 2010.06.03 19:37:08.
