data_PCOD9373948
_publ_section_title
;
Structure prediction by ZEFSAII (Michael W. Deem and Ramdas Pophale) SiO2 
 PCOD9373948
Probable space group: I M M 2
;
_chemical_formula_sum "Si O2"
_cell_formula_units_Z 64
_cell_length_a 29.746018
_cell_length_b 7.561988
_cell_length_c 12.806541
_cell_angle_alpha 90.000000
_cell_angle_beta 90.000000
_cell_angle_gamma 90.000000
_cell_volume 2880.690925
_symmetry_space_group_name_H-M "I M M 2"
_symmetry_group_IT_number 44
_symmetry_cell_setting 'orthorhombic'
loop_
_space_group_symop_operation_xyz
x,y,z
-x,-y,z
-x,y,z
x,-y,z
1/2+x,1/2+y,1/2+z
1/2-x,1/2-y,1/2+z
1/2-x,1/2+y,1/2+z
1/2+x,1/2-y,1/2+z
loop_
_atom_site_type_symbol
_atom_site_label
_atom_site_fract_x
_atom_site_fract_y
_atom_site_fract_z
Si Si1 0.323156 0.205538 0.587440
Si Si2 0.953154 0.795318 0.921089
Si Si3 0.193417 0.283892 0.316050
Si Si4 0.592613 0.783092 0.869628
Si Si5 0.289820 0.702633 0.364411
Si Si6 0.551082 0.212965 0.088970
Si Si7 0.621295 0.288247 0.272562
Si Si8 0.428388 0.205287 0.644320
O O1 0.301387 0.270760 0.694905
O O2 0.310640 0.297206 0.480178
O O3 0.375778 0.215094 0.614549
O O4 0.311269 0.000000 0.573062
O O5 0.909189 0.716707 0.868108
O O6 0.000000 0.711906 0.885083
O O7 0.953713 0.000000 0.888538
O O8 0.951444 0.791670 0.045578
O O9 0.190048 0.500000 0.317763
O O10 0.145115 0.226102 0.362054
O O11 0.239391 0.222665 0.369680
O O12 0.568343 0.725819 0.762145
O O13 0.592397 0.000000 0.867586
O O14 0.567692 0.726727 0.974582
O O15 0.282900 0.500000 0.329905
O O16 0.328009 0.782567 0.287878
O O17 0.500000 0.276540 0.113003
O O18 0.590229 0.257694 0.171782
O O19 0.548920 0.000000 0.086458
O O20 0.626470 0.500000 0.283065
O O21 0.442151 0.000000 0.644781
#
# Coordination Sequence:
#
# PCOD9373948 Si02
#       8
#     8   8   8   8   8   8   8   8
#     4   9  17  31  50  72 102 133 162 207 260 304
#     4  10  20  33  49  71 101 133 164 205 256 304
#     4   8  16  31  51  76 104 137 172 208 259 318
#     4   8  16  33  54  76 105 136 167 212 269 313
#     4  10  19  32  53  77 101 136 179 214 252 311
#     4  10  21  36  55  78 104 138 181 226 265 310
#     4  10  21  36  52  72 103 141 176 213 260 313
#     4   9  17  31  53  76  98 129 166 206 256 311
#
# _framework density 22.216894
#
# number of rings (size 3 to 8) (size 9 to 14) (size 15 to 20)
#    0.000    2.750    1.250    1.875    0.000    3.500 
#    0.000    2.500    0.000    1.500    0.000    0.000 
#    0.000    0.000    0.000    0.000    0.000    0.000 
#
# Total GULP energy -178361.092850 kJ/mol
# GULP energy per Si atom -5573.784152 kJ/mol
# Density = 2.216633 g / cm^3
# Si number density = 22.216894 Si / 1000 Ang^3
#
#
#
# Elastic Constant Matrix: (Units=GPa)
#
#
# Indices 1 2 3 4 5 6 
#
# 1 66.9520 6.0019 14.3620 0.0000 0.0000 0.0000
# 2 6.0019 46.7266 -10.0664 0.0000 0.0000 0.0000
# 3 14.3620 -10.0664 93.0792 0.0000 0.0000 0.0000
# 4 0.0000 0.0000 0.0000 24.4454 0.0000 0.0000
# 5 0.0000 0.0000 0.0000 0.0000 23.1161 0.0000
# 6 0.0000 0.0000 0.0000 0.0000 0.0000 9.2095
#
#
#
# Elastic Compliance Matrix: (Units=1/GPa)
#
#
# Indices 1 2 3 4 5 6 
#
# 1 0.015752 -0.002608 -0.002712 0.000000 0.000000 0.000000
# 2 -0.002608 0.022343 0.002819 0.000000 0.000000 0.000000
# 3 -0.002712 0.002819 0.011467 0.000000 0.000000 0.000000
# 4 0.000000 0.000000 0.000000 0.040907 0.000000 0.000000
# 5 0.000000 0.000000 0.000000 0.000000 0.043260 0.000000
# 6 0.000000 0.000000 0.000000 0.000000 0.000000 0.108583
#
#
# Mechanical properties :
#
#
# Convention : Reuss Voigt Hill
#
# Bulk Modulus (GPa) = 22.44206 25.26142 23.85174
# Shear Modulus (GPa) = 19.07173 24.45157 21.76165
#
# Velocity S-wave (km/s) = 2.93308 3.32110 3.13311
# Velocity P-wave (km/s) = 4.64692 5.10895 4.88340
#
# Compressibility (1/GPa) = 0.04455919
#
# Stress axis : x y z
#
# Youngs Moduli (GPa) = 63.48526 44.75624 87.20746
#
# Poissons Ratio (x) = 0.11671 0.23655
# Poissons Ratio (y) = 0.16554 -0.24582
# Poissons Ratio (z) = 0.17220 -0.12616
#
# Static dielectric constant tensor:
#      x y z
#    x 1.876060 0.000000 0.000000 
#    y 0.000000 1.829310 0.000000 
#    z 0.000000 0.000000 1.806420 
# 
# From -- ./inp_files/15070.got.cif
#   From: 2010.05.17/outbox.cif.g08.bks.cpg/sg44_8_cif.got.tgz:15070.got - 2010.06.03 19:37:08.
