data_PCOD9373118
_publ_section_title
;
Structure prediction by ZEFSAII (Michael W. Deem and Ramdas Pophale) SiO2 
 PCOD9373118
Probable space group: I M M 2
;
_chemical_formula_sum "Si O2"
_cell_formula_units_Z 58
_cell_length_a 15.659656
_cell_length_b 15.875178
_cell_length_c 12.868649
_cell_angle_alpha 90.000000
_cell_angle_beta 90.000000
_cell_angle_gamma 90.000000
_cell_volume 3199.143908
_symmetry_space_group_name_H-M "I M M 2"
_symmetry_group_IT_number 44
_symmetry_cell_setting 'orthorhombic'
loop_
_space_group_symop_operation_xyz
x,y,z
-x,-y,z
-x,y,z
x,-y,z
1/2+x,1/2+y,1/2+z
1/2-x,1/2-y,1/2+z
1/2-x,1/2+y,1/2+z
1/2+x,1/2-y,1/2+z
loop_
_atom_site_type_symbol
_atom_site_label
_atom_site_fract_x
_atom_site_fract_y
_atom_site_fract_z
Si Si1 0.594556 0.897573 0.541950
Si Si2 0.275448 0.101507 0.718866
Si Si3 0.500000 0.500000 0.827568
Si Si4 0.595265 0.397971 0.142524
Si Si5 0.099869 0.600545 0.622207
Si Si6 0.182809 0.602197 0.833943
Si Si7 0.126909 0.142463 0.399303
Si Si8 0.903273 0.336331 0.392242
O O1 0.500000 0.868943 0.573446
O O2 0.668741 0.868960 0.619752
O O3 0.616116 0.873513 0.423984
O O4 0.594632 0.000000 0.545737
O O5 0.177489 0.131752 0.708026
O O6 0.330432 0.126002 0.818897
O O7 0.271908 0.000000 0.714454
O O8 0.573710 0.573536 0.836978
O O9 0.500000 0.366637 0.171123
O O10 0.592773 0.500000 0.149058
O O11 0.611852 0.376871 0.021568
O O12 0.112742 0.500000 0.608751
O O13 0.155288 0.630518 0.719559
O O14 0.116811 0.644154 0.512511
O O15 0.000000 0.613162 0.647750
O O16 0.184967 0.500000 0.832205
O O17 0.274415 0.634011 0.869896
O O18 0.096996 0.236541 0.377516
O O19 0.000000 0.369659 0.371000
#
# Coordination Sequence:
#
# PCOD9373118 Si02
#       8
#     8   8   2   8   8   8   8   8
#     4   9  16  27  48  78 111 142 176 220 273 332
#     4  10  20  33  54  82 114 149 184 222 278 339
#     4  12  20  36  60  84 104 142 184 240 292 324
#     4  10  17  32  56  85 110 140 183 237 284 327
#     4   9  19  36  56  78 108 146 184 216 259 329
#     4  10  18  31  53  79 106 140 181 226 274 326
#     4  12  20  34  57  82 109 137 182 240 283 328
#     4  11  23  36  52  80 114 150 185 225 271 328
#
# _framework density 18.129850000000001
#
# number of rings (size 3 to 8) (size 9 to 14) (size 15 to 20)
#    0.000    1.793    4.138    1.241    0.000    4.138 
#    0.000    0.000    0.000    0.828    1.793    0.000 
#    0.000    0.000    0.000    0.000    0.000    0.000 
#
# Total GULP energy -161496.163184 kJ/mol
# GULP energy per Si atom -5568.833213 kJ/mol
# Density = 1.808859 g / cm^3
# Si number density = 18.129850 Si / 1000 Ang^3
#
#
#
# Elastic Constant Matrix: (Units=GPa)
#
#
# Indices 1 2 3 4 5 6 
#
# 1 155.8520 21.5756 60.9155 0.0000 0.0000 0.0000
# 2 21.5756 24.4993 9.8689 0.0000 0.0000 0.0000
# 3 60.9155 9.8689 77.7141 0.0000 0.0000 0.0000
# 4 0.0000 0.0000 0.0000 230.0411 0.0000 0.0000
# 5 0.0000 0.0000 0.0000 0.0000 7.4450 0.0000
# 6 0.0000 0.0000 0.0000 0.0000 0.0000 -367.2568
#
#
#
# Elastic Compliance Matrix: (Units=1/GPa)
#
#
# Indices 1 2 3 4 5 6 
#
# 1 0.010014 -0.005962 -0.007092 0.000000 0.000000 0.000000
# 2 -0.005962 0.046568 -0.001241 0.000000 0.000000 0.000000
# 3 -0.007092 -0.001241 0.018584 0.000000 0.000000 0.000000
# 4 0.000000 0.000000 0.000000 0.004347 0.000000 0.000000
# 5 0.000000 0.000000 0.000000 0.000000 0.134319 0.000000
# 6 0.000000 0.000000 0.000000 0.000000 0.000000 -0.002723
#
#
# Mechanical properties :
#
#
# Convention : Reuss Voigt Hill
#
# Bulk Modulus (GPa) = 21.46994 49.19839 35.33417
# Shear Modulus (GPa) = 19.59077 -14.90712 2.34182
#
# Velocity S-wave (km/s) = 3.29079 -2.87059 1.13776
# Velocity P-wave (km/s) = 5.12904 4.02599 4.61062
#
# Compressibility (1/GPa) = 0.04657674
#
# Stress axis : x y z
#
# Youngs Moduli (GPa) = 99.86404 21.47418 53.80914
#
# Poissons Ratio (x) = 0.12802 0.38161
# Poissons Ratio (y) = 0.59537 0.06675
# Poissons Ratio (z) = 0.70823 0.02664
#
# Static dielectric constant tensor:
#      x y z
#    x 1.720520 0.000000 0.000000 
#    y 0.000000 1.615010 0.000000 
#    z 0.000000 0.000000 1.609090 
# 
# From -- ./inp_files/13395.got.cif
#   From: 2010.05.17/outbox.cif.g08.bks.cpg/sg44_7_cif.got.tgz:13395.got - 2010.06.03 19:37:08.
