data_PCOD9373328
_publ_section_title
;
Structure prediction by ZEFSAII (Michael W. Deem and Ramdas Pophale) SiO2 
 PCOD9373328
Probable space group: I M M 2
;
_chemical_formula_sum "Si O2"
_cell_formula_units_Z 48
_cell_length_a 11.839040
_cell_length_b 20.667488
_cell_length_c 7.038450
_cell_angle_alpha 90.000000
_cell_angle_beta 90.000000
_cell_angle_gamma 90.000000
_cell_volume 1722.190590
_symmetry_space_group_name_H-M "I M M 2"
_symmetry_group_IT_number 44
_symmetry_cell_setting 'orthorhombic'
loop_
_space_group_symop_operation_xyz
x,y,z
-x,-y,z
-x,y,z
x,-y,z
1/2+x,1/2+y,1/2+z
1/2-x,1/2-y,1/2+z
1/2-x,1/2+y,1/2+z
1/2+x,1/2-y,1/2+z
loop_
_atom_site_type_symbol
_atom_site_label
_atom_site_fract_x
_atom_site_fract_y
_atom_site_fract_z
Si Si1 0.613185 0.237157 0.521640
Si Si2 0.124676 0.898127 0.390637
Si Si3 0.874570 0.412001 0.892901
Si Si4 0.129751 0.078118 0.942856
Si Si5 0.123136 0.620080 0.458262
Si Si6 0.148433 0.236557 0.606780
O O1 0.500000 0.250434 0.630824
O O2 0.620281 0.162681 0.458354
O O3 0.720551 0.250691 0.640372
O O4 0.609889 0.273318 0.321839
O O5 0.245341 0.930927 0.447305
O O6 0.127825 0.897035 0.161273
O O7 0.127630 0.827126 0.485566
O O8 0.000000 0.926370 0.437951
O O9 0.000000 0.436449 0.950717
O O10 0.874820 0.414920 0.663549
O O11 0.253374 0.104399 0.867455
O O12 0.000000 0.091526 0.869243
O O13 0.139489 0.000000 0.941860
O O14 0.114583 0.696118 0.509943
O O15 0.000000 0.602956 0.367141
#
# Coordination Sequence:
#
# PCOD9373328 Si02
#       6
#     8   8   8   8   8   8
#     4   9  17  29  43  64  98 135 172 213 258 319
#     4   9  15  24  42  65  90 125 164 203 254 308
#     4   7  12  23  37  54  82 118 149 186 235 284
#     4   9  18  31  46  69 102 137 176 222 266 312
#     4   9  16  27  44  66  93 125 164 209 257 312
#     4  10  18  30  48  72 103 139 175 218 273 326
#
# _framework density 27.871479000000001
#
# number of rings (size 3 to 8) (size 9 to 14) (size 15 to 20)
#    0.000    3.167    0.000    3.500    0.000    1.000 
#    0.000    8.333    0.000    0.000    0.000    1.167 
#    0.000    4.000    0.000    0.333    0.000    0.500 
#
# Total GULP energy -133914.409081 kJ/mol
# GULP energy per Si atom -5579.767045 kJ/mol
# Density = 2.780804 g / cm^3
# Si number density = 27.871479 Si / 1000 Ang^3
#
#
#
# Elastic Constant Matrix: (Units=GPa)
#
#
# Indices 1 2 3 4 5 6 
#
# 1 399.3357 36.1228 31.1986 -0.1455 -0.0021 0.0600
# 2 36.1228 132.2080 12.9399 -0.2879 -0.0033 0.1268
# 3 31.1986 12.9399 113.8113 -0.4879 -0.0090 0.2158
# 4 -0.1455 -0.2879 -0.4879 -687.6450 0.0618 -4.5912
# 5 -0.0021 -0.0033 -0.0090 0.0618 4.5968 0.0080
# 6 0.0600 0.1268 0.2158 -4.5912 0.0080 -783.6397
#
#
#
# Elastic Compliance Matrix: (Units=1/GPa)
#
#
# Indices 1 2 3 4 5 6 
#
# 1 0.002613 -0.000651 -0.000642 0.000000 -0.000001 0.000000
# 2 -0.000651 0.007811 -0.000710 -0.000003 0.000004 0.000001
# 3 -0.000642 -0.000710 0.009043 -0.000006 0.000017 0.000002
# 4 0.000000 -0.000003 -0.000006 -0.001454 0.000020 0.000009
# 5 -0.000001 0.000004 0.000017 0.000020 0.217541 0.000002
# 6 0.000000 0.000001 0.000002 0.000009 0.000002 -0.001276
#
#
# Mechanical properties :
#
#
# Convention : Reuss Voigt Hill
#
# Bulk Modulus (GPa) = 64.67693 89.54198 77.10946
# Shear Modulus (GPa) = 20.53911 -255.66467 -117.56278
#
# Velocity S-wave (km/s) = 2.71758 -9.58796 -6.50168
# Velocity P-wave (km/s) = 5.75350 9.50660 5.35130
#
# Compressibility (1/GPa) = 0.01546146
#
# Stress axis : x y z
#
# Youngs Moduli (GPa) = 382.66647 128.02140 110.58029
#
# Poissons Ratio (x) = 0.08336 0.07103
# Poissons Ratio (y) = 0.24917 0.07847
# Poissons Ratio (z) = 0.24580 0.09085
#
# Static dielectric constant tensor:
#      x y z
#    x 2.243280 -0.000040 0.000000 
#    y -0.000040 2.211950 -0.000110 
#    z 0.000000 -0.000110 2.068250 
# 
# From -- ./inp_files/6114.got.cif
#   From: 2010.05.17/outbox.cif.g08.bks.cpg/sg44_4_cif.got.tgz:6114.got - 2010.06.03 19:37:08.
