data_PCOD9373067
_publ_section_title
;
Structure prediction by ZEFSAII (Michael W. Deem and Ramdas Pophale) SiO2 
 PCOD9373067
Probable space group: I M M 2
;
_chemical_formula_sum "Si O2"
_cell_formula_units_Z 56
_cell_length_a 8.541898
_cell_length_b 23.083602
_cell_length_c 18.381782
_cell_angle_alpha 90.000000
_cell_angle_beta 90.000000
_cell_angle_gamma 90.000000
_cell_volume 3624.478852
_symmetry_space_group_name_H-M "I M M 2"
_symmetry_group_IT_number 44
_symmetry_cell_setting 'orthorhombic'
loop_
_space_group_symop_operation_xyz
x,y,z
-x,-y,z
-x,y,z
x,-y,z
1/2+x,1/2+y,1/2+z
1/2-x,1/2-y,1/2+z
1/2-x,1/2+y,1/2+z
1/2+x,1/2-y,1/2+z
loop_
_atom_site_type_symbol
_atom_site_label
_atom_site_fract_x
_atom_site_fract_y
_atom_site_fract_z
Si Si1 0.313135 0.155359 0.364020
Si Si2 0.811104 0.348771 0.115069
Si Si3 0.814713 0.282499 0.404603
Si Si4 0.811139 0.781136 0.061945
Si Si5 0.690929 0.066079 0.486830
Si Si6 0.815111 0.808971 0.758035
Si Si7 0.685487 0.316621 0.716263
O O1 0.500000 0.161747 0.369985
O O2 0.239568 0.215870 0.391335
O O3 0.261487 0.103495 0.416521
O O4 0.267953 0.147207 0.279641
O O5 0.768803 0.285888 0.080627
O O6 0.762798 0.398473 0.058864
O O7 0.735259 0.352788 0.194711
O O8 0.000000 0.349421 0.122367
O O9 0.762881 0.298507 0.485747
O O10 0.734255 0.320171 0.340953
O O11 0.000000 0.285802 0.396556
O O12 0.764573 0.819683 0.131969
O O13 0.000000 0.782698 0.056073
O O14 0.500000 0.065193 0.486592
O O15 0.745905 0.000000 0.485751
O O16 0.723201 0.749992 0.737360
O O17 0.000000 0.798126 0.754650
O O18 0.500000 0.325853 0.720337
#
# Coordination Sequence:
#
# PCOD9373067 Si02
#       7
#     8   8   8   8   8   8   8
#     4  10  17  28  43  59  82 111 144 180 214 248
#     4   9  16  29  44  58  82 111 143 180 215 249
#     4  11  19  26  40  61  85 112 142 172 209 256
#     4   9  16  27  41  59  83 112 141 172 209 250
#     4   9  17  29  46  65  84 113 151 185 216 250
#     4  10  18  27  40  58  81 109 142 173 209 255
#     4   9  17  28  41  58  81 110 141 172 210 255
#
# _framework density 15.450497
#
# number of rings (size 3 to 8) (size 9 to 14) (size 15 to 20)
#    0.000    2.429    1.429    6.000    0.000    2.857 
#    0.000    0.000    0.000    3.857    0.000    0.000 
#    0.000    1.143    0.000   11.143    0.000    3.143 
#
# Total GULP energy -155962.985672 kJ/mol
# GULP energy per Si atom -5570.106631 kJ/mol
# Density = 1.541533 g / cm^3
# Si number density = 15.450497 Si / 1000 Ang^3
#
#
#
# Elastic Constant Matrix: (Units=GPa)
#
#
# Indices 1 2 3 4 5 6 
#
# 1 13.2639 7.0984 15.6802 0.0000 0.0000 0.0000
# 2 7.0984 50.0470 43.1371 0.0000 0.0000 0.0000
# 3 15.6802 43.1371 152.5834 0.0000 0.0000 0.0000
# 4 0.0000 0.0000 0.0000 13.2068 0.0000 0.0000
# 5 0.0000 0.0000 0.0000 0.0000 28.7494 0.0000
# 6 0.0000 0.0000 0.0000 0.0000 0.0000 2.9047
#
#
#
# Elastic Compliance Matrix: (Units=1/GPa)
#
#
# Indices 1 2 3 4 5 6 
#
# 1 0.087223 -0.006142 -0.007227 0.000000 0.000000 0.000000
# 2 -0.006142 0.026851 -0.006960 0.000000 0.000000 0.000000
# 3 -0.007227 -0.006960 0.009264 0.000000 0.000000 0.000000
# 4 0.000000 0.000000 0.000000 0.075719 0.000000 0.000000
# 5 0.000000 0.000000 0.000000 0.000000 0.034783 0.000000
# 6 0.000000 0.000000 0.000000 0.000000 0.000000 0.344268
#
#
# Mechanical properties :
#
#
# Convention : Reuss Voigt Hill
#
# Bulk Modulus (GPa) = 12.09475 38.63617 25.36546
# Shear Modulus (GPa) = 7.73602 18.97075 13.35339
#
# Velocity S-wave (km/s) = 2.24005 3.50786 2.94303
# Velocity P-wave (km/s) = 3.81255 6.43952 5.29164
#
# Compressibility (1/GPa) = 0.08268051
#
# Stress axis : x y z
#
# Youngs Moduli (GPa) = 11.46483 37.24192 107.94298
#
# Poissons Ratio (x) = 0.22875 0.78010
# Poissons Ratio (y) = 0.07042 0.75128
# Poissons Ratio (z) = 0.08286 0.25920
#
# Static dielectric constant tensor:
#      x y z
#    x 1.524780 0.000000 0.000000 
#    y 0.000000 1.482230 0.000000 
#    z 0.000000 0.000000 1.573230 
# 
# From -- ./inp_files/20811.got.cif
#   From: 2010.05.17/outbox.cif.g08.bks.cpg/sg44_11_cif.got.tgz:20811.got - 2010.06.03 19:37:08.
