data_PCOD9373428
_publ_section_title
;
Structure prediction by ZEFSAII (Michael W. Deem and Ramdas Pophale) SiO2 
 PCOD9373428
Probable space group: I M M 2
;
_chemical_formula_sum "Si O2"
_cell_formula_units_Z 56
_cell_length_a 14.900964
_cell_length_b 8.547803
_cell_length_c 22.985154
_cell_angle_alpha 90.000000
_cell_angle_beta 90.000000
_cell_angle_gamma 90.000000
_cell_volume 2927.630667
_symmetry_space_group_name_H-M "I M M 2"
_symmetry_group_IT_number 44
_symmetry_cell_setting 'orthorhombic'
loop_
_space_group_symop_operation_xyz
x,y,z
-x,-y,z
-x,y,z
x,-y,z
1/2+x,1/2+y,1/2+z
1/2-x,1/2-y,1/2+z
1/2-x,1/2+y,1/2+z
1/2+x,1/2-y,1/2+z
loop_
_atom_site_type_symbol
_atom_site_label
_atom_site_fract_x
_atom_site_fract_y
_atom_site_fract_z
Si Si1 0.785242 0.315692 0.158690
Si Si2 0.102998 0.186955 0.050868
Si Si3 0.397427 0.189017 0.197088
Si Si4 0.599797 0.309375 0.900269
Si Si5 0.605118 0.686819 0.765332
Si Si6 0.601907 0.189985 0.330567
Si Si7 0.713585 0.810447 0.441599
O O1 0.786562 0.500000 0.150505
O O2 0.844516 0.237906 0.108503
O O3 0.682841 0.256174 0.159061
O O4 0.830669 0.270781 0.220132
O O5 0.000000 0.245032 0.051368
O O6 0.100787 0.000000 0.048647
O O7 0.156394 0.249225 0.995120
O O8 0.500000 0.234356 0.181980
O O9 0.380595 0.239661 0.264316
O O10 0.393481 0.000000 0.195650
O O11 0.500000 0.255074 0.916648
O O12 0.598133 0.500000 0.900713
O O13 0.617329 0.266550 0.832720
O O14 0.682636 0.259249 0.939882
O O15 0.500000 0.712966 0.750780
O O16 0.622010 0.500000 0.761573
O O17 0.500000 0.235479 0.345800
O O18 0.669008 0.241636 0.380632
O O19 0.604960 0.000000 0.329552
O O20 0.711427 0.000000 0.442977
#
# Coordination Sequence:
#
# PCOD9373428 Si02
#       7
#     8   8   8   8   8   8   8
#     4  12  24  36  54  80 110 143 179 224 275 323
#     4  11  25  43  59  75 100 137 181 227 273 325
#     4   9  18  35  59  84 111 145 183 219 257 311
#     4   8  15  29  52  83 114 143 177 215 257 311
#     4   9  17  32  56  83 111 145 183 221 263 317
#     4   8  14  26  49  81 110 137 173 215 260 314
#     4  10  18  31  55  82 108 140 177 220 267 313
#
# _framework density 19.128095999999999
#
# number of rings (size 3 to 8) (size 9 to 14) (size 15 to 20)
#    0.000    2.429    0.000    5.143    0.000    6.286 
#    0.000    3.571    0.000    4.714    0.000    0.000 
#    0.000    0.000    0.000    0.000    0.000    0.000 
#
# Total GULP energy -156265.811883 kJ/mol
# GULP energy per Si atom -5580.921853 kJ/mol
# Density = 1.908456 g / cm^3
# Si number density = 19.128096 Si / 1000 Ang^3
#
#
#
# Elastic Constant Matrix: (Units=GPa)
#
#
# Indices 1 2 3 4 5 6 
#
# 1 173.0365 32.0985 83.2803 0.0000 0.0000 0.0000
# 2 32.0985 22.4489 12.0351 0.0000 0.0000 0.0000
# 3 83.2803 12.0351 53.3746 0.0000 0.0000 0.0000
# 4 0.0000 0.0000 0.0000 21.6857 0.0000 0.0000
# 5 0.0000 0.0000 0.0000 0.0000 32.1757 0.0000
# 6 0.0000 0.0000 0.0000 0.0000 0.0000 18.9722
#
#
#
# Elastic Compliance Matrix: (Units=1/GPa)
#
#
# Indices 1 2 3 4 5 6 
#
# 1 0.029322 -0.019791 -0.041288 0.000000 0.000000 0.000000
# 2 -0.019791 0.064029 0.016442 0.000000 0.000000 0.000000
# 3 -0.041288 0.016442 0.079450 0.000000 0.000000 0.000000
# 4 0.000000 0.000000 0.000000 0.046113 0.000000 0.000000
# 5 0.000000 0.000000 0.000000 0.000000 0.031079 0.000000
# 6 0.000000 0.000000 0.000000 0.000000 0.000000 0.052709
#
#
# Mechanical properties :
#
#
# Convention : Reuss Voigt Hill
#
# Bulk Modulus (GPa) = 11.97225 55.96532 33.96879
# Shear Modulus (GPa) = 11.90989 22.66311 17.28650
#
# Velocity S-wave (km/s) = 2.49798 3.44584 3.00946
# Velocity P-wave (km/s) = 3.82001 6.71963 5.46561
#
# Compressibility (1/GPa) = 0.08352646
#
# Stress axis : x y z
#
# Youngs Moduli (GPa) = 34.10420 15.61800 12.58648
#
# Poissons Ratio (x) = 0.30909 0.51968
# Poissons Ratio (y) = 0.67494 -0.20694
# Poissons Ratio (z) = 1.40811 -0.25679
#
# Static dielectric constant tensor:
#      x y z
#    x 1.688250 0.000000 0.000000 
#    y 0.000000 1.656160 0.000000 
#    z 0.000000 0.000000 1.641370 
# 
# From -- ./inp_files/23044.got.cif
#   From: 2010.05.17/outbox.cif.g08.bks.cpg/sg44_12_cif.got.tgz:23044.got - 2010.06.03 19:37:08.
