data_PCOD9373730
_publ_section_title
;
Structure prediction by ZEFSAII (Michael W. Deem and Ramdas Pophale) SiO2 
 PCOD9373730
Probable space group: I M M 2
;
_chemical_formula_sum "Si O2"
_cell_formula_units_Z 64
_cell_length_a 8.998006
_cell_length_b 34.209127
_cell_length_c 12.052640
_cell_angle_alpha 90.000000
_cell_angle_beta 90.000000
_cell_angle_gamma 90.000000
_cell_volume 3709.970485
_symmetry_space_group_name_H-M "I M M 2"
_symmetry_group_IT_number 44
_symmetry_cell_setting 'orthorhombic'
loop_
_space_group_symop_operation_xyz
x,y,z
-x,-y,z
-x,y,z
x,-y,z
1/2+x,1/2+y,1/2+z
1/2-x,1/2-y,1/2+z
1/2-x,1/2+y,1/2+z
1/2+x,1/2-y,1/2+z
loop_
_atom_site_type_symbol
_atom_site_label
_atom_site_fract_x
_atom_site_fract_y
_atom_site_fract_z
Si Si1 0.822352 0.164776 0.355930
Si Si2 0.178566 0.184854 0.768999
Si Si3 0.678355 0.376978 0.085278
Si Si4 0.322109 0.044811 0.502137
Si Si5 0.324354 0.816784 0.009668
Si Si6 0.322081 0.264879 0.701877
Si Si7 0.326920 0.887677 0.167326
Si Si8 0.829532 0.954748 0.263378
O O1 0.783920 0.151109 0.479884
O O2 0.790801 0.208695 0.312414
O O3 0.736175 0.136936 0.271015
O O4 0.000000 0.159255 0.342158
O O5 0.218111 0.146826 0.695905
O O6 0.242568 0.223494 0.710681
O O7 0.000000 0.187146 0.775262
O O8 0.250133 0.184290 0.890236
O O9 0.500000 0.382371 0.083002
O O10 0.753842 0.419184 0.070609
O O11 0.500000 0.047117 0.504246
O O12 0.263787 0.050249 0.376240
O O13 0.279170 0.000000 0.535060
O O14 0.500000 0.807022 0.004268
O O15 0.242723 0.788424 0.097008
O O16 0.309692 0.860087 0.061381
O O17 0.500000 0.260776 0.692623
O O18 0.500000 0.895768 0.184142
O O19 0.235342 0.927335 0.168758
O O20 0.000000 0.944148 0.288105
O O21 0.823124 0.000000 0.232394
#
# Coordination Sequence:
#
# PCOD9373730 Si02
#       8
#     8   8   8   8   8   8   8   8
#     4   9  18  33  53  77 107 142 178 216 268 329
#     4  11  24  39  57  83 112 145 188 234 277 328
#     4  10  21  36  55  81 113 148 184 227 276 332
#     4  10  20  33  52  81 115 146 181 228 277 330
#     4  10  22  40  58  78 108 145 186 228 275 329
#     4  10  21  37  59  84 110 144 183 229 281 330
#     4  10  19  32  53  79 105 138 177 223 271 318
#     4  10  19  30  48  77 112 146 176 212 267 331
#
# _framework density 17.250812
#
# number of rings (size 3 to 8) (size 9 to 14) (size 15 to 20)
#    0.000    2.000    1.250    2.250    1.750    4.500 
#    0.000    0.000    0.000    0.750    0.000    0.000 
#    0.000    0.000    0.000    0.000    0.000    0.000 
#
# Total GULP energy -178554.564186 kJ/mol
# GULP energy per Si atom -5579.830131 kJ/mol
# Density = 1.721155 g / cm^3
# Si number density = 17.250812 Si / 1000 Ang^3
#
#
#
# Elastic Constant Matrix: (Units=GPa)
#
#
# Indices 1 2 3 4 5 6 
#
# 1 61.0994 51.8291 37.9848 0.0000 0.0000 0.0000
# 2 51.8291 114.7584 43.4170 0.0000 0.0000 0.0000
# 3 37.9848 43.4170 84.4710 0.0001 0.0000 0.0000
# 4 0.0000 0.0000 0.0001 18.3745 0.0000 0.0000
# 5 0.0000 0.0000 0.0000 0.0000 21.9347 0.0000
# 6 0.0000 0.0000 0.0000 0.0000 0.0000 32.7642
#
#
#
# Elastic Compliance Matrix: (Units=1/GPa)
#
#
# Indices 1 2 3 4 5 6 
#
# 1 0.030554 -0.010678 -0.008251 0.000000 0.000000 0.000000
# 2 -0.010678 0.014549 -0.002676 0.000000 0.000000 0.000000
# 3 -0.008251 -0.002676 0.016925 0.000000 0.000000 0.000000
# 4 0.000000 0.000000 0.000000 0.054423 0.000000 0.000000
# 5 0.000000 0.000000 0.000000 0.000000 0.045590 0.000000
# 6 0.000000 0.000000 0.000000 0.000000 0.000000 0.030521
#
#
# Mechanical properties :
#
#
# Convention : Reuss Voigt Hill
#
# Bulk Modulus (GPa) = 53.14440 58.53230 55.83835
# Shear Modulus (GPa) = 20.65733 23.08788 21.87261
#
# Velocity S-wave (km/s) = 3.46420 3.66234 3.56465
# Velocity P-wave (km/s) = 6.84651 7.20329 7.02717
#
# Compressibility (1/GPa) = 0.01881666
#
# Stress axis : x y z
#
# Youngs Moduli (GPa) = 32.72886 68.73353 59.08576
#
# Poissons Ratio (x) = 0.73391 0.48754
# Poissons Ratio (y) = 0.34946 0.15814
# Poissons Ratio (z) = 0.27006 0.18396
#
# Static dielectric constant tensor:
#      x y z
#    x 1.575220 0.000000 0.000000 
#    y 0.000000 1.608530 0.000000 
#    z 0.000000 0.000000 1.563660 
# 
# From -- ./inp_files/11504.got.cif
#   From: 2010.05.17/outbox.cif.g08.bks.cpg/sg44_6_cif.got.tgz:11504.got - 2010.06.03 19:37:08.
