data_PCOD9373705
_publ_section_title
;
Structure prediction by ZEFSAII (Michael W. Deem and Ramdas Pophale) SiO2 
 PCOD9373705
Probable space group: I M M 2
;
_chemical_formula_sum "Si O2"
_cell_formula_units_Z 40
_cell_length_a 8.230743
_cell_length_b 7.306582
_cell_length_c 29.391014
_cell_angle_alpha 90.000000
_cell_angle_beta 90.000000
_cell_angle_gamma 90.000000
_cell_volume 1767.534395
_symmetry_space_group_name_H-M "I M M 2"
_symmetry_group_IT_number 44
_symmetry_cell_setting 'orthorhombic'
loop_
_space_group_symop_operation_xyz
x,y,z
-x,-y,z
-x,y,z
x,-y,z
1/2+x,1/2+y,1/2+z
1/2-x,1/2-y,1/2+z
1/2-x,1/2+y,1/2+z
1/2+x,1/2-y,1/2+z
loop_
_atom_site_type_symbol
_atom_site_label
_atom_site_fract_x
_atom_site_fract_y
_atom_site_fract_z
Si Si1 0.500000 0.277136 0.920060
Si Si2 0.812735 0.222769 0.571155
Si Si3 0.500000 0.276128 0.814717
Si Si4 0.184761 0.720917 0.169107
Si Si5 0.820064 0.276945 0.974762
Si Si6 0.823530 0.713313 0.765487
O O1 0.500000 0.500000 0.921935
O O2 0.500000 0.224641 0.867431
O O3 0.665035 0.217545 0.945271
O O4 0.745264 0.283525 0.619797
O O5 0.711167 0.278434 0.527063
O O6 0.000000 0.277337 0.565523
O O7 0.809646 0.000000 0.571730
O O8 0.500000 0.500000 0.812211
O O9 0.336793 0.210822 0.789672
O O10 0.185147 0.500000 0.168230
O O11 0.294644 0.776700 0.211396
O O12 0.000000 0.781984 0.177319
O O13 0.818984 0.500000 0.973783
O O14 0.000000 0.219044 0.959561
O O15 0.829054 0.500000 0.778351
O O16 0.000000 0.792740 0.776888
#
# Coordination Sequence:
#
# PCOD9373705 Si02
#       6
#     4   8   4   8   8   8
#     4   9  16  26  40  59  83 117 157 193 234 281
#     4   9  15  24  38  59  91 125 154 188 234 283
#     4   9  18  32  47  63  89 123 163 207 242 281
#     4  10  19  30  47  72  99 128 163 201 240 285
#     4   9  15  23  36  56  85 118 151 187 228 281
#     4  10  20  34  51  69  94 130 165 199 244 291
#
# _framework density 22.630392000000001
#
# number of rings (size 3 to 8) (size 9 to 14) (size 15 to 20)
#    0.000    2.600    2.000    1.200    0.000    4.400 
#    0.000    4.000    0.000    0.000    0.000    0.000 
#    0.000    3.200    0.000    4.600    0.000    4.200 
#
# Total GULP energy -111763.256145 kJ/mol
# GULP energy per Si atom -5588.162807 kJ/mol
# Density = 2.257888 g / cm^3
# Si number density = 22.630392 Si / 1000 Ang^3
#
#
#
# Elastic Constant Matrix: (Units=GPa)
#
#
# Indices 1 2 3 4 5 6 
#
# 1 237.7240 9.3372 96.7367 0.0000 0.0000 0.0000
# 2 9.3372 93.1622 -3.4589 0.0000 0.0000 0.0000
# 3 96.7367 -3.4589 146.8210 0.0000 0.0000 0.0000
# 4 0.0000 0.0000 0.0000 41.2911 0.0000 0.0000
# 5 0.0000 0.0000 0.0000 0.0000 29.8319 0.0000
# 6 0.0000 0.0000 0.0000 0.0000 0.0000 -8.2562
#
#
#
# Elastic Compliance Matrix: (Units=1/GPa)
#
#
# Indices 1 2 3 4 5 6 
#
# 1 0.005796 -0.000723 -0.003836 0.000000 0.000000 0.000000
# 2 -0.000723 0.010834 0.000732 0.000000 0.000000 0.000000
# 3 -0.003836 0.000732 0.009356 0.000000 0.000000 0.000000
# 4 0.000000 0.000000 0.000000 0.024218 0.000000 0.000000
# 5 0.000000 0.000000 0.000000 0.000000 0.033521 0.000000
# 6 0.000000 0.000000 0.000000 0.000000 0.000000 -0.121121
#
#
# Mechanical properties :
#
#
# Convention : Reuss Voigt Hill
#
# Bulk Modulus (GPa) = 54.55403 75.88191 65.21797
# Shear Modulus (GPa) = -211.58280 37.57950 -87.00165
#
# Velocity S-wave (km/s) = -9.67977 4.07944 -6.20710
# Velocity P-wave (km/s) = 10.03851 7.46946 4.74230
#
# Compressibility (1/GPa) = 0.01833045
#
# Stress axis : x y z
#
# Youngs Moduli (GPa) = 172.53689 92.30519 106.88826
#
# Poissons Ratio (x) = 0.06677 0.41000
# Poissons Ratio (y) = 0.12480 -0.07822
# Poissons Ratio (z) = 0.66182 -0.06755
#
# Static dielectric constant tensor:
#      x y z
#    x 1.821700 0.000000 0.000000 
#    y 0.000000 1.333130 0.000000 
#    z 0.000000 0.000000 1.772300 
# 
# From -- ./inp_files/25928.got.cif
#   From: 2010.05.17/outbox.cif.g08.bks.cpg/sg44_13_cif.got.tgz:25928.got - 2010.06.03 19:37:08.
