data_PCOD9373485
_publ_section_title
;
Structure prediction by ZEFSAII (Michael W. Deem and Ramdas Pophale) SiO2 
 PCOD9373485
Probable space group: I M M 2
;
_chemical_formula_sum "Si O2"
_cell_formula_units_Z 64
_cell_length_a 32.444585
_cell_length_b 7.405923
_cell_length_c 12.059999
_cell_angle_alpha 90.000000
_cell_angle_beta 90.000000
_cell_angle_gamma 90.000000
_cell_volume 2897.801865
_symmetry_space_group_name_H-M "I M M 2"
_symmetry_group_IT_number 44
_symmetry_cell_setting 'orthorhombic'
loop_
_space_group_symop_operation_xyz
x,y,z
-x,-y,z
-x,y,z
x,-y,z
1/2+x,1/2+y,1/2+z
1/2-x,1/2-y,1/2+z
1/2-x,1/2+y,1/2+z
1/2+x,1/2-y,1/2+z
loop_
_atom_site_type_symbol
_atom_site_label
_atom_site_fract_x
_atom_site_fract_y
_atom_site_fract_z
Si Si1 0.375755 0.281556 0.774390
Si Si2 0.127426 0.711716 0.015135
Si Si3 0.292055 0.208123 0.396916
Si Si4 0.666908 0.718284 0.166989
Si Si5 0.428211 0.281708 0.164614
Si Si6 0.544365 0.210604 0.407095
Si Si7 0.699803 0.279341 0.926561
Si Si8 0.454093 0.279700 0.918769
O O1 0.376057 0.500000 0.777320
O O2 0.375314 0.226128 0.646828
O O3 0.334573 0.220285 0.838267
O O4 0.416650 0.220595 0.840232
O O5 0.128252 0.500000 0.982855
O O6 0.170348 0.789329 0.968324
O O7 0.086013 0.789864 0.959708
O O8 0.307139 0.213928 0.270533
O O9 0.246224 0.285603 0.406048
O O10 0.287757 0.000000 0.433973
O O11 0.667353 0.500000 0.171164
O O12 0.619388 0.775697 0.174821
O O13 0.685192 0.773064 0.049068
O O14 0.429338 0.500000 0.164712
O O15 0.451431 0.220382 0.274358
O O16 0.445844 0.223434 0.045959
O O17 0.500000 0.289476 0.440191
O O18 0.543565 0.000000 0.439610
O O19 0.699597 0.500000 0.921871
O O20 0.500000 0.223684 0.883861
O O21 0.453367 0.500000 0.918558
#
# Coordination Sequence:
#
# PCOD9373485 Si02
#       8
#     8   8   8   8   8   8   8   8
#     4  10  20  36  56  77 104 138 176 216 259 311
#     4  10  22  38  53  74 105 140 177 216 260 308
#     4  10  21  37  56  77 106 143 177 214 262 313
#     4  10  19  34  58  83 108 137 172 217 266 312
#     4  10  18  32  56  84 110 134 167 216 267 312
#     4  10  21  37  55  75 105 144 178 212 261 315
#     4   9  19  36  56  79 108 140 172 214 269 316
#     4   9  17  31  53  80 107 135 168 210 263 315
#
# _framework density 22.085705000000001
#
# number of rings (size 3 to 8) (size 9 to 14) (size 15 to 20)
#    0.000    2.250    2.500    0.375    1.750    2.250 
#    0.000    1.875    0.000    0.750    0.000    0.000 
#    0.000    0.000    0.000    0.000    0.000    0.000 
#
# Total GULP energy -178799.627142 kJ/mol
# GULP energy per Si atom -5587.488348 kJ/mol
# Density = 2.203544 g / cm^3
# Si number density = 22.085705 Si / 1000 Ang^3
#
#
#
# Elastic Constant Matrix: (Units=GPa)
#
#
# Indices 1 2 3 4 5 6 
#
# 1 233.5662 6.6676 78.5398 0.0000 0.0000 0.0000
# 2 6.6676 72.6060 -15.3780 0.0000 0.0000 0.0000
# 3 78.5398 -15.3780 123.6117 0.0000 0.0000 0.0000
# 4 0.0000 0.0000 0.0000 25.4320 0.0000 0.0000
# 5 0.0000 0.0000 0.0000 0.0000 2416.3682 0.0000
# 6 0.0000 0.0000 0.0000 0.0000 0.0000 -16.2007
#
#
#
# Elastic Compliance Matrix: (Units=1/GPa)
#
#
# Indices 1 2 3 4 5 6 
#
# 1 0.005560 -0.001293 -0.003694 0.000000 0.000000 0.000000
# 2 -0.001293 0.014446 0.002619 0.000000 0.000000 0.000000
# 3 -0.003694 0.002619 0.010763 0.000000 0.000000 0.000000
# 4 0.000000 0.000000 0.000000 0.039321 0.000000 0.000000
# 5 0.000000 0.000000 0.000000 0.000000 0.000414 0.000000
# 6 0.000000 0.000000 0.000000 0.000000 0.000000 -0.061726
#
#
# Mechanical properties :
#
#
# Convention : Reuss Voigt Hill
#
# Bulk Modulus (GPa) = 38.41240 63.27140 50.84190
# Shear Modulus (GPa) = 225.30737 509.11687 367.21212
#
# Velocity S-wave (km/s) = 10.11121 15.19931 12.90844
# Velocity P-wave (km/s) = 12.39942 18.35036 15.66016
#
# Compressibility (1/GPa) = 0.02603326
#
# Stress axis : x y z
#
# Youngs Moduli (GPa) = 179.84158 69.22164 92.91439
#
# Poissons Ratio (x) = 0.08950 0.34321
# Poissons Ratio (y) = 0.23253 -0.24332
# Poissons Ratio (z) = 0.66430 -0.18127
#
# Static dielectric constant tensor:
#      x y z
#    x 1.489830 0.000000 0.000000 
#    y 0.000000 1.839320 0.000000 
#    z 0.000000 0.000000 1.729610 
# 
# From -- ./inp_files/11425.got.cif
#   From: 2010.05.17/outbox.cif.g08.bks.cpg/sg44_6_cif.got.tgz:11425.got - 2010.06.03 19:37:08.
