data_PCOD9373756
_publ_section_title
;
Structure prediction by ZEFSAII (Michael W. Deem and Ramdas Pophale) SiO2 
 PCOD9373756
Probable space group: I M M 2
;
_chemical_formula_sum "Si O2"
_cell_formula_units_Z 64
_cell_length_a 24.624491
_cell_length_b 15.714015
_cell_length_c 7.350515
_cell_angle_alpha 90.000000
_cell_angle_beta 90.000000
_cell_angle_gamma 90.000000
_cell_volume 2844.278993
_symmetry_space_group_name_H-M "I M M 2"
_symmetry_group_IT_number 44
_symmetry_cell_setting 'orthorhombic'
loop_
_space_group_symop_operation_xyz
x,y,z
-x,-y,z
-x,y,z
x,-y,z
1/2+x,1/2+y,1/2+z
1/2-x,1/2-y,1/2+z
1/2-x,1/2+y,1/2+z
1/2+x,1/2-y,1/2+z
loop_
_atom_site_type_symbol
_atom_site_label
_atom_site_fract_x
_atom_site_fract_y
_atom_site_fract_z
Si Si1 0.713235 0.646332 0.157710
Si Si2 0.674569 0.822740 0.081548
Si Si3 0.062218 0.909485 0.982697
Si Si4 0.059708 0.276836 0.619526
Si Si5 0.059996 0.727805 0.058315
Si Si6 0.321947 0.777786 0.663172
Si Si7 0.218837 0.092324 0.063478
Si Si8 0.397111 0.593489 0.080548
O O1 0.772280 0.668051 0.077326
O O2 0.719935 0.595367 0.343697
O O3 0.666705 0.603099 0.036884
O O4 0.687113 0.739456 0.203259
O O5 0.686683 0.790271 0.877796
O O6 0.610474 0.838141 0.082570
O O7 0.718642 0.893533 0.124850
O O8 0.098861 0.906525 0.802986
O O9 0.000000 0.907996 0.911046
O O10 0.070552 0.000000 0.075545
O O11 0.065953 0.827695 0.107621
O O12 0.073173 0.182783 0.537798
O O13 0.000000 0.303640 0.558197
O O14 0.058439 0.270602 0.838742
O O15 0.117597 0.689869 0.116773
O O16 0.000000 0.696914 0.118575
O O17 0.312815 0.678126 0.619334
O O18 0.198210 0.000000 0.122014
O O19 0.417907 0.500000 0.023705
#
# Coordination Sequence:
#
# PCOD9373756 Si02
#       8
#     8   8   8   8   8   8   8   8
#     4   9  18  31  47  68  95 133 167 194 238 300
#     4   9  19  33  49  73 103 130 161 206 256 298
#     4   8  13  21  36  61  89 114 144 185 225 261
#     4   9  17  30  48  69  96 134 173 202 239 300
#     4   9  17  28  45  69  93 124 168 204 233 286
#     4  10  19  31  47  70 102 130 155 202 258 296
#     4  10  19  33  54  74  95 129 173 209 240 293
#     4   9  14  22  40  65  91 117 153 195 225 264
#
# _framework density 22.50131
#
# number of rings (size 3 to 8) (size 9 to 14) (size 15 to 20)
#    0.000    2.875    0.000    3.750    0.000    3.750 
#    0.000    3.125    0.000    0.375    0.000    3.500 
#    0.000    6.500    0.000    0.000    0.000    0.000 
#
# Total GULP energy -178330.640989 kJ/mol
# GULP energy per Si atom -5572.832531 kJ/mol
# Density = 2.245010 g / cm^3
# Si number density = 22.501310 Si / 1000 Ang^3
#
#
#
# Elastic Constant Matrix: (Units=GPa)
#
#
# Indices 1 2 3 4 5 6 
#
# 1 210.0650 12.5160 2.1868 0.0000 0.0000 0.0000
# 2 12.5160 31.0681 8.6080 0.0000 0.0000 0.0000
# 3 2.1868 8.6080 63.4789 0.0000 0.0000 0.0000
# 4 0.0000 0.0000 0.0000 5.2116 0.0000 0.0000
# 5 0.0000 0.0000 0.0000 0.0000 21.5816 0.0000
# 6 0.0000 0.0000 0.0000 0.0000 0.0000 13.6686
#
#
#
# Elastic Compliance Matrix: (Units=1/GPa)
#
#
# Indices 1 2 3 4 5 6 
#
# 1 0.004878 -0.001994 0.000102 0.000000 0.000000 0.000000
# 2 -0.001994 0.034259 -0.004577 0.000000 0.000000 0.000000
# 3 0.000102 -0.004577 0.016370 0.000000 0.000000 0.000000
# 4 0.000000 0.000000 0.000000 0.191880 0.000000 0.000000
# 5 0.000000 0.000000 0.000000 0.000000 0.046336 0.000000
# 6 0.000000 0.000000 0.000000 0.000000 0.000000 0.073160
#
#
# Mechanical properties :
#
#
# Convention : Reuss Voigt Hill
#
# Bulk Modulus (GPa) = 23.49031 39.02594 31.25813
# Shear Modulus (GPa) = 12.69004 26.84579 19.76792
#
# Velocity S-wave (km/s) = 2.37738 3.45784 2.96720
# Velocity P-wave (km/s) = 4.24242 5.77267 5.06566
#
# Compressibility (1/GPa) = 0.04257074
#
# Stress axis : x y z
#
# Youngs Moduli (GPa) = 204.99601 29.18981 61.08593
#
# Poissons Ratio (x) = 0.05819 -0.00625
# Poissons Ratio (y) = 0.40866 0.27959
# Poissons Ratio (z) = -0.02097 0.13360
#
# Static dielectric constant tensor:
#      x y z
#    x 1.922180 0.000000 0.000000 
#    y 0.000000 1.820710 0.000000 
#    z 0.000000 0.000000 1.891340 
# 
# From -- ./inp_files/9520.got.cif
#   From: 2010.05.17/outbox.cif.g08.bks.cpg/sg44_5_cif.got.tgz:9520.got - 2010.06.03 19:37:08.
