data_PCOD9373914
_publ_section_title
;
Structure prediction by ZEFSAII (Michael W. Deem and Ramdas Pophale) SiO2 
 PCOD9373914
Probable space group: I M M 2
;
_chemical_formula_sum "Si O2"
_cell_formula_units_Z 48
_cell_length_a 9.488134
_cell_length_b 7.997344
_cell_length_c 34.997839
_cell_angle_alpha 90.000000
_cell_angle_beta 90.000000
_cell_angle_gamma 90.000000
_cell_volume 2655.631527
_symmetry_space_group_name_H-M "I M M 2"
_symmetry_group_IT_number 44
_symmetry_cell_setting 'orthorhombic'
loop_
_space_group_symop_operation_xyz
x,y,z
-x,-y,z
-x,y,z
x,-y,z
1/2+x,1/2+y,1/2+z
1/2-x,1/2-y,1/2+z
1/2-x,1/2+y,1/2+z
1/2+x,1/2-y,1/2+z
loop_
_atom_site_type_symbol
_atom_site_label
_atom_site_fract_x
_atom_site_fract_y
_atom_site_fract_z
Si Si1 0.662024 0.302445 0.886180
Si Si2 0.830290 0.500000 0.672619
Si Si3 0.171383 0.684632 0.304337
Si Si4 0.667339 0.298841 0.544857
Si Si5 0.336800 0.702135 0.459564
Si Si6 0.667957 0.687402 0.118688
Si Si7 0.328886 0.500000 0.752679
O O1 0.500000 0.248030 0.892061
O O2 0.661415 0.500000 0.877979
O O3 0.718825 0.214255 0.847997
O O4 0.747743 0.268097 0.924378
O O5 0.793749 0.664857 0.647900
O O6 0.746516 0.500000 0.712040
O O7 0.000000 0.500000 0.678856
O O8 0.214287 0.500000 0.291146
O O9 0.000000 0.689767 0.305753
O O10 0.213097 0.835736 0.276867
O O11 0.500000 0.265937 0.548364
O O12 0.686210 0.500000 0.547598
O O13 0.711654 0.245730 0.502055
O O14 0.752123 0.215347 0.578907
O O15 0.500000 0.752746 0.455464
O O16 0.332388 0.500000 0.458933
O O17 0.500000 0.700597 0.112110
O O18 0.697979 0.500000 0.133285
O O19 0.500000 0.500000 0.748628
#
# Coordination Sequence:
#
# PCOD9373914 Si02
#       7
#     8   4   8   8   8   8   4
#     4  10  19  32  51  76 106 141 184 228 268 317
#     4  10  22  40  58  80 114 146 172 220 282 328
#     4   9  17  32  55  80 108 140 174 221 275 316
#     4   9  18  34  55  77 106 144 184 227 275 323
#     4   9  19  34  50  73 107 145 183 225 272 322
#     4  10  21  37  58  82 108 143 184 222 267 326
#     4  10  20  36  58  84 108 136 180 226 266 326
#
# _framework density 18.074798000000001
#
# number of rings (size 3 to 8) (size 9 to 14) (size 15 to 20)
#    0.000    2.500    1.667    1.500    0.000    4.333 
#    0.000    5.833    0.000    1.000    0.000    0.000 
#    0.000    0.000    0.000    0.000    0.000    0.000 
#
# Total GULP energy -133862.542307 kJ/mol
# GULP energy per Si atom -5577.605929 kJ/mol
# Density = 1.803366 g / cm^3
# Si number density = 18.074798 Si / 1000 Ang^3
#
#
#
# Elastic Constant Matrix: (Units=GPa)
#
#
# Indices 1 2 3 4 5 6 
#
# 1 24.0642 31.1321 46.0971 0.0000 0.0000 0.0000
# 2 31.1321 120.0959 77.8344 0.0000 0.0000 0.0000
# 3 46.0971 77.8344 150.7902 0.0000 0.0000 0.0000
# 4 0.0000 0.0000 0.0000 19.4885 0.0000 0.0000
# 5 0.0000 0.0000 0.0000 0.0000 34.7016 0.0000
# 6 0.0000 0.0000 0.0000 0.0000 0.0000 17.1582
#
#
#
# Elastic Compliance Matrix: (Units=1/GPa)
#
#
# Indices 1 2 3 4 5 6 
#
# 1 0.107545 -0.009874 -0.027780 0.000000 0.000000 0.000000
# 2 -0.009874 0.013419 -0.003908 0.000000 0.000000 0.000000
# 3 -0.027780 -0.003908 0.017141 0.000000 0.000000 0.000000
# 4 0.000000 0.000000 0.000000 0.051312 0.000000 0.000000
# 5 0.000000 0.000000 0.000000 0.000000 0.028817 0.000000
# 6 0.000000 0.000000 0.000000 0.000000 0.000000 0.058281
#
#
# Mechanical properties :
#
#
# Convention : Reuss Voigt Hill
#
# Bulk Modulus (GPa) = 18.18812 67.23082 42.70947
# Shear Modulus (GPa) = 13.22862 23.59543 18.41203
#
# Velocity S-wave (km/s) = 2.70827 3.61700 3.19510
# Velocity P-wave (km/s) = 4.45692 7.39731 6.10673
#
# Compressibility (1/GPa) = 0.05498095
#
# Stress axis : x y z
#
# Youngs Moduli (GPa) = 9.29841 74.52006 58.33824
#
# Poissons Ratio (x) = 0.73584 1.62064
# Poissons Ratio (y) = 0.09182 0.22799
# Poissons Ratio (z) = 0.25831 0.29123
#
# Static dielectric constant tensor:
#      x y z
#    x 1.598030 0.000000 0.000000 
#    y 0.000000 1.649790 0.000000 
#    z 0.000000 0.000000 1.592110 
# 
# From -- ./inp_files/26900.got.cif
#   From: 2010.05.17/outbox.cif.g08.bks.cpg/sg44_14_cif.got.tgz:26900.got - 2010.06.03 19:37:08.
