data_PCOD9373403
_publ_section_title
;
Structure prediction by ZEFSAII (Michael W. Deem and Ramdas Pophale) SiO2 
 PCOD9373403
Probable space group: I M M 2
;
_chemical_formula_sum "Si O2"
_cell_formula_units_Z 56
_cell_length_a 25.447888
_cell_length_b 9.060380
_cell_length_c 14.538473
_cell_angle_alpha 90.000000
_cell_angle_beta 90.000000
_cell_angle_gamma 90.000000
_cell_volume 3352.099889
_symmetry_space_group_name_H-M "I M M 2"
_symmetry_group_IT_number 44
_symmetry_cell_setting 'orthorhombic'
loop_
_space_group_symop_operation_xyz
x,y,z
-x,-y,z
-x,y,z
x,-y,z
1/2+x,1/2+y,1/2+z
1/2-x,1/2-y,1/2+z
1/2-x,1/2+y,1/2+z
1/2+x,1/2-y,1/2+z
loop_
_atom_site_type_symbol
_atom_site_label
_atom_site_fract_x
_atom_site_fract_y
_atom_site_fract_z
Si Si1 0.793443 0.177964 0.459380
Si Si2 0.387142 0.170865 0.850600
Si Si3 0.000000 0.821482 0.090485
Si Si4 0.390309 0.673928 0.496366
Si Si5 0.665060 0.165513 0.653818
Si Si6 0.787782 0.827040 0.671367
Si Si7 0.315495 0.823515 0.357160
Si Si8 0.000000 0.679437 0.293993
O O1 0.843944 0.238125 0.405855
O O2 0.796750 0.223332 0.566405
O O3 0.738439 0.224644 0.410873
O O4 0.793285 0.000000 0.457713
O O5 0.370485 0.173894 0.743618
O O6 0.447378 0.222580 0.848998
O O7 0.384939 0.000000 0.881132
O O8 0.052060 0.780937 0.032773
O O9 0.000000 0.747694 0.191362
O O10 0.000000 0.000000 0.102577
O O11 0.390834 0.500000 0.478050
O O12 0.351963 0.714148 0.580841
O O13 0.365552 0.758988 0.410582
O O14 0.724943 0.182102 0.684050
O O15 0.659882 0.000000 0.612110
O O16 0.813305 0.735841 0.753322
O O17 0.802689 0.000000 0.678720
O O18 0.316531 0.000000 0.358377
O O19 0.000000 0.500000 0.284719
#
# Coordination Sequence:
#
# PCOD9373403 Si02
#       8
#     8   8   4   8   8   8   8   4
#     4  10  21  35  53  77 109 143 177 218 266 317
#     4  10  20  33  52  78 109 143 180 216 262 318
#     4  10  22  36  52  79 110 141 180 221 262 318
#     4  11  22  35  53  78 110 146 180 218 266 318
#     4  10  18  31  52  79 111 143 175 217 261 316
#     4  10  20  36  53  76 110 144 177 217 264 317
#     4  11  22  36  54  80 109 140 179 221 266 321
#     4  10  20  34  54  79 108 145 180 219 270 316
#
# _framework density 16.705945
#
# number of rings (size 3 to 8) (size 9 to 14) (size 15 to 20)
#    0.000    1.714    4.286    0.857    0.000    3.429 
#    0.000    0.000    0.000    0.857    0.000    1.000 
#    0.000    0.000    0.000    0.000    0.000    0.000 
#
# Total GULP energy -156189.722585 kJ/mol
# GULP energy per Si atom -5578.204378 kJ/mol
# Density = 1.666792 g / cm^3
# Si number density = 16.705945 Si / 1000 Ang^3
#
#
#
# Elastic Constant Matrix: (Units=GPa)
#
#
# Indices 1 2 3 4 5 6 
#
# 1 67.5218 18.5012 14.8762 0.0000 0.0000 0.0000
# 2 18.5012 29.5048 25.4235 0.0000 0.0000 0.0000
# 3 14.8762 25.4235 68.0024 0.0000 0.0000 0.0000
# 4 0.0000 0.0000 0.0000 30.9081 0.0000 0.0000
# 5 0.0000 0.0000 0.0000 0.0000 26.5443 0.0000
# 6 0.0000 0.0000 0.0000 0.0000 0.0000 21.4085
#
#
#
# Elastic Compliance Matrix: (Units=1/GPa)
#
#
# Indices 1 2 3 4 5 6 
#
# 1 0.017890 -0.011575 0.000414 0.000000 0.000000 0.000000
# 2 -0.011575 0.057489 -0.018961 0.000000 0.000000 0.000000
# 3 0.000414 -0.018961 0.021704 0.000000 0.000000 0.000000
# 4 0.000000 0.000000 0.000000 0.032354 0.000000 0.000000
# 5 0.000000 0.000000 0.000000 0.000000 0.037673 0.000000
# 6 0.000000 0.000000 0.000000 0.000000 0.000000 0.046710
#
#
# Mechanical properties :
#
#
# Convention : Reuss Voigt Hill
#
# Bulk Modulus (GPa) = 27.14507 31.40341 29.27424
# Shear Modulus (GPa) = 17.46155 22.85406 20.15780
#
# Velocity S-wave (km/s) = 3.23651 3.70269 3.47742
# Velocity P-wave (km/s) = 5.50006 6.09249 5.80384
#
# Compressibility (1/GPa) = 0.03683910
#
# Stress axis : x y z
#
# Youngs Moduli (GPa) = 55.89587 17.39469 46.07533
#
# Poissons Ratio (x) = 0.20134 -0.01906
# Poissons Ratio (y) = 0.64698 0.87362
# Poissons Ratio (z) = -0.02312 0.32982
#
# Static dielectric constant tensor:
#      x y z
#    x 1.565770 0.000000 0.000000 
#    y 0.000000 1.573050 0.000000 
#    z 0.000000 0.000000 1.553080 
# 
# From -- ./inp_files/19248.got.cif
#   From: 2010.05.17/outbox.cif.g08.bks.cpg/sg44_10_cif.got.tgz:19248.got - 2010.06.03 19:37:08.
