data_PCOD9373561
_publ_section_title
;
Structure prediction by ZEFSAII (Michael W. Deem and Ramdas Pophale) SiO2 
 PCOD9373561
Probable space group: I M M 2
;
_chemical_formula_sum "Si O2"
_cell_formula_units_Z 48
_cell_length_a 14.914721
_cell_length_b 8.560478
_cell_length_c 21.000555
_cell_angle_alpha 90.000000
_cell_angle_beta 90.000000
_cell_angle_gamma 90.000000
_cell_volume 2681.290822
_symmetry_space_group_name_H-M "I M M 2"
_symmetry_group_IT_number 44
_symmetry_cell_setting 'orthorhombic'
loop_
_space_group_symop_operation_xyz
x,y,z
-x,-y,z
-x,y,z
x,-y,z
1/2+x,1/2+y,1/2+z
1/2-x,1/2-y,1/2+z
1/2-x,1/2+y,1/2+z
1/2+x,1/2-y,1/2+z
loop_
_atom_site_type_symbol
_atom_site_label
_atom_site_fract_x
_atom_site_fract_y
_atom_site_fract_z
Si Si1 0.306033 0.809801 0.156480
Si Si2 0.809470 0.810953 0.277042
Si Si3 0.500000 0.189392 0.112522
Si Si4 0.500000 0.686021 0.968472
Si Si5 0.813556 0.312936 0.415981
Si Si6 0.000000 0.811297 0.218058
Si Si7 0.810510 0.811121 0.033572
Si Si8 0.500000 0.814456 0.573785
O O1 0.258890 0.760111 0.221675
O O2 0.408413 0.759323 0.146568
O O3 0.246884 0.761241 0.095571
O O4 0.305554 0.000000 0.156451
O O5 0.788012 0.742630 0.345755
O O6 0.909691 0.764409 0.254786
O O7 0.807904 0.000000 0.280631
O O8 0.500000 0.000000 0.110529
O O9 0.500000 0.248193 0.040169
O O10 0.500000 0.500000 0.969648
O O11 0.410669 0.744955 0.933706
O O12 0.819165 0.500000 0.418075
O O13 0.742712 0.262979 0.470184
O O14 0.000000 0.747640 0.146432
O O15 0.000000 0.000000 0.213604
O O16 0.910164 0.746376 0.040026
O O17 0.814757 0.000000 0.034622
O O18 0.500000 0.000000 0.574763
#
# Coordination Sequence:
#
# PCOD9373561 Si02
#       8
#     8   8   4   4   8   4   8   4
#     4   9  17  33  60  85 111 151 194 232 272 334
#     4  10  20  35  56  84 116 153 190 232 288 342
#     4  10  18  35  60  89 116 147 198 237 270 336
#     4  12  23  35  56  88 123 153 182 234 297 344
#     4  11  23  39  60  85 115 154 195 237 282 339
#     4  10  19  35  58  80 113 157 194 226 275 352
#     4  10  20  39  62  81 109 155 199 232 278 346
#     4  12  24  35  56  91 120 143 184 249 296 328
#
# _framework density 17.901824999999999
#
# number of rings (size 3 to 8) (size 9 to 14) (size 15 to 20)
#    0.000    1.667    3.333    2.500    0.000    2.667 
#    0.000    1.667    0.000    1.000    0.000    0.000 
#    0.000    0.000    0.000    0.000    0.000    0.000 
#
# Total GULP energy -134062.190649 kJ/mol
# GULP energy per Si atom -5585.924610 kJ/mol
# Density = 1.786108 g / cm^3
# Si number density = 17.901825 Si / 1000 Ang^3
#
#
#
# Elastic Constant Matrix: (Units=GPa)
#
#
# Indices 1 2 3 4 5 6 
#
# 1 165.2326 27.6869 97.4881 0.0000 0.0000 0.0000
# 2 27.6869 21.9665 30.0994 0.0000 0.0000 0.0000
# 3 97.4881 30.0994 174.4499 0.0000 0.0000 0.0000
# 4 0.0000 0.0000 0.0000 28.9461 0.0000 0.0000
# 5 0.0000 0.0000 0.0000 0.0000 21.0876 0.0000
# 6 0.0000 0.0000 0.0000 0.0000 0.0000 4.8624
#
#
#
# Elastic Compliance Matrix: (Units=1/GPa)
#
#
# Indices 1 2 3 4 5 6 
#
# 1 0.009642 -0.006247 -0.004310 0.000000 0.000000 0.000000
# 2 -0.006247 0.063666 -0.007494 0.000000 0.000000 0.000000
# 3 -0.004310 -0.007494 0.009434 0.000000 0.000000 0.000000
# 4 0.000000 0.000000 0.000000 0.034547 0.000000 0.000000
# 5 0.000000 0.000000 0.000000 0.000000 0.047421 0.000000
# 6 0.000000 0.000000 0.000000 0.000000 0.000000 0.205658
#
#
# Mechanical properties :
#
#
# Convention : Reuss Voigt Hill
#
# Bulk Modulus (GPa) = 21.44091 74.68866 48.06478
# Shear Modulus (GPa) = 11.84788 24.73754 18.29271
#
# Velocity S-wave (km/s) = 2.57539 3.72135 3.20008
# Velocity P-wave (km/s) = 4.56579 7.76379 6.36879
#
# Compressibility (1/GPa) = 0.04663981
#
# Stress axis : x y z
#
# Youngs Moduli (GPa) = 103.71336 15.70701 105.99780
#
# Poissons Ratio (x) = 0.09811 0.45690
# Poissons Ratio (y) = 0.64785 0.79436
# Poissons Ratio (z) = 0.44705 0.11771
#
# Static dielectric constant tensor:
#      x y z
#    x 1.600050 0.000000 0.000000 
#    y 0.000000 1.608340 0.000000 
#    z 0.000000 0.000000 1.589770 
# 
# From -- ./inp_files/21741.got.cif
#   From: 2010.05.17/outbox.cif.g08.bks.cpg/sg44_11_cif.got.tgz:21741.got - 2010.06.03 19:37:08.
