data_PCOD9373776
_publ_section_title
;
Structure prediction by ZEFSAII (Michael W. Deem and Ramdas Pophale) SiO2 
 PCOD9373776
Probable space group: I M M 2
;
_chemical_formula_sum "Si O2"
_cell_formula_units_Z 64
_cell_length_a 28.681220
_cell_length_b 8.961830
_cell_length_c 14.568518
_cell_angle_alpha 90.000000
_cell_angle_beta 90.000000
_cell_angle_gamma 90.000000
_cell_volume 3744.636766
_symmetry_space_group_name_H-M "I M M 2"
_symmetry_group_IT_number 44
_symmetry_cell_setting 'orthorhombic'
loop_
_space_group_symop_operation_xyz
x,y,z
-x,-y,z
-x,y,z
x,-y,z
1/2+x,1/2+y,1/2+z
1/2-x,1/2-y,1/2+z
1/2-x,1/2+y,1/2+z
1/2+x,1/2-y,1/2+z
loop_
_atom_site_type_symbol
_atom_site_label
_atom_site_fract_x
_atom_site_fract_y
_atom_site_fract_z
Si Si1 0.234438 0.331382 0.055330
Si Si2 0.173814 0.323570 0.608929
Si Si3 0.143262 0.678908 0.403995
Si Si4 0.827823 0.823287 0.793934
Si Si5 0.554231 0.322253 0.592106
Si Si6 0.734255 0.331211 0.842203
Si Si7 0.553127 0.821464 0.790560
Si Si8 0.862994 0.320710 0.981613
O O1 0.237977 0.500000 0.094143
O O2 0.271748 0.221659 0.099369
O O3 0.250142 0.340405 0.948869
O O4 0.180722 0.282632 0.049041
O O5 0.169340 0.500000 0.622282
O O6 0.150471 0.282028 0.511288
O O7 0.153945 0.237845 0.696803
O O8 0.150427 0.500000 0.397078
O O9 0.183149 0.760239 0.344758
O O10 0.092514 0.715876 0.364729
O O11 0.773720 0.772045 0.798606
O O12 0.852337 0.748477 0.881946
O O13 0.831517 0.000000 0.799807
O O14 0.500000 0.290339 0.569664
O O15 0.561118 0.500000 0.588800
O O16 0.562175 0.262386 0.695174
O O17 0.589863 0.241460 0.524449
O O18 0.735046 0.500000 0.804915
O O19 0.500000 0.787662 0.819952
O O20 0.555846 0.000000 0.773703
O O21 0.863302 0.500000 0.974260
#
# Coordination Sequence:
#
# PCOD9373776 Si02
#       8
#     8   8   8   8   8   8   8   8
#     4   8  16  30  46  67  95 126 161 202 244 288
#     4  10  19  31  48  71 101 137 174 210 248 295
#     4   9  18  32  51  75 102 133 170 212 255 300
#     4  11  21  33  50  72 102 138 173 210 251 296
#     4  10  21  36  54  78 105 131 163 205 254 307
#     4   9  17  30  47  68  96 129 165 204 245 292
#     4   9  18  34  55  77 101 130 165 207 257 309
#     4  10  20  35  55  77 102 133 171 212 254 303
#
# _framework density 17.09111
#
# number of rings (size 3 to 8) (size 9 to 14) (size 15 to 20)
#    0.000    2.500    0.000    3.375    0.000    6.250 
#    0.000    1.250    0.000    0.750    0.000    1.750 
#    0.000    0.000    0.000    0.000    0.000    0.000 
#
# Total GULP energy -178448.317454 kJ/mol
# GULP energy per Si atom -5576.509920 kJ/mol
# Density = 1.705221 g / cm^3
# Si number density = 17.091110 Si / 1000 Ang^3
#
#
#
# Elastic Constant Matrix: (Units=GPa)
#
#
# Indices 1 2 3 4 5 6 
#
# 1 113.4085 52.6251 65.1497 0.0000 0.0000 0.0000
# 2 52.6251 73.1953 48.9312 0.0000 0.0000 0.0000
# 3 65.1497 48.9312 86.3857 0.0000 0.0000 0.0000
# 4 0.0000 0.0000 0.0000 23.7208 0.0000 0.0000
# 5 0.0000 0.0000 0.0000 0.0000 22.1833 0.0000
# 6 0.0000 0.0000 0.0000 0.0000 0.0000 23.7372
#
#
#
# Elastic Compliance Matrix: (Units=1/GPa)
#
#
# Indices 1 2 3 4 5 6 
#
# 1 0.016996 -0.005875 -0.009490 0.000000 0.000000 0.000000
# 2 -0.005875 0.024019 -0.009174 0.000000 0.000000 0.000000
# 3 -0.009490 -0.009174 0.023929 0.000000 0.000000 0.000000
# 4 0.000000 0.000000 0.000000 0.042157 0.000000 0.000000
# 5 0.000000 0.000000 0.000000 0.000000 0.045079 0.000000
# 6 0.000000 0.000000 0.000000 0.000000 0.000000 0.042128
#
#
# Mechanical properties :
#
#
# Convention : Reuss Voigt Hill
#
# Bulk Modulus (GPa) = 63.02850 67.37797 65.20323
# Shear Modulus (GPa) = 20.10660 21.01382 20.56021
#
# Velocity S-wave (km/s) = 3.43364 3.51025 3.47216
# Velocity P-wave (km/s) = 7.25795 7.47914 7.36938
#
# Compressibility (1/GPa) = 0.01586584
#
# Stress axis : x y z
#
# Youngs Moduli (GPa) = 58.83905 41.63342 41.79005
#
# Poissons Ratio (x) = 0.24461 0.39657
# Poissons Ratio (y) = 0.34571 0.38338
# Poissons Ratio (z) = 0.55836 0.38195
#
# Static dielectric constant tensor:
#      x y z
#    x 1.571030 0.000000 0.000000 
#    y 0.000000 1.579500 0.000000 
#    z 0.000000 0.000000 1.593350 
# 
# From -- ./inp_files/19473.got.cif
#   From: 2010.05.17/outbox.cif.g08.bks.cpg/sg44_10_cif.got.tgz:19473.got - 2010.06.03 19:37:08.
