data_PCOD9373964
_publ_section_title
;
Structure prediction by ZEFSAII (Michael W. Deem and Ramdas Pophale) SiO2 
 PCOD9373964
Probable space group: I M M 2
;
_chemical_formula_sum "Si O2"
_cell_formula_units_Z 56
_cell_length_a 20.639703
_cell_length_b 9.348321
_cell_length_c 14.662773
_cell_angle_alpha 90.000000
_cell_angle_beta 90.000000
_cell_angle_gamma 90.000000
_cell_volume 2829.131742
_symmetry_space_group_name_H-M "I M M 2"
_symmetry_group_IT_number 44
_symmetry_cell_setting 'orthorhombic'
loop_
_space_group_symop_operation_xyz
x,y,z
-x,-y,z
-x,y,z
x,-y,z
1/2+x,1/2+y,1/2+z
1/2-x,1/2-y,1/2+z
1/2-x,1/2+y,1/2+z
1/2+x,1/2-y,1/2+z
loop_
_atom_site_type_symbol
_atom_site_label
_atom_site_fract_x
_atom_site_fract_y
_atom_site_fract_z
Si Si1 0.282007 0.332800 0.038400
Si Si2 0.000000 0.830554 0.347705
Si Si3 0.218992 0.336222 0.359341
Si Si4 0.378057 0.166580 0.164910
Si Si5 0.000000 0.661089 0.530545
Si Si6 0.395263 0.169007 0.730526
Si Si7 0.126171 0.667888 0.027009
Si Si8 0.625729 0.333163 0.345677
O O1 0.298238 0.500000 0.046681
O O2 0.317553 0.244837 0.117159
O O3 0.204092 0.318475 0.039743
O O4 0.302147 0.269151 0.940068
O O5 0.000000 0.775261 0.450790
O O6 0.939033 0.763122 0.295566
O O7 0.000000 0.000000 0.343264
O O8 0.206730 0.500000 0.390467
O O9 0.177991 0.314802 0.267741
O O10 0.295521 0.322132 0.343393
O O11 0.437053 0.174496 0.093771
O O12 0.397206 0.245644 0.258063
O O13 0.363456 0.000000 0.182974
O O14 0.000000 0.500000 0.489975
O O15 0.402899 0.208423 0.624847
O O16 0.411332 0.000000 0.739024
O O17 0.112844 0.500000 0.009532
O O18 0.105343 0.762109 0.941191
O O19 0.608324 0.500000 0.341080
#
# Coordination Sequence:
#
# PCOD9373964 Si02
#       8
#     8   4   8   8   4   8   8   8
#     4  10  19  32  53  84 117 144 176 223 276 324
#     4  12  26  40  57  84 113 138 175 230 280 318
#     4   9  18  33  54  82 114 147 181 217 265 327
#     4  11  22  37  57  79 106 145 190 229 268 321
#     4  10  24  44  61  78 105 144 187 224 262 320
#     4  10  20  37  59  78 105 149 191 222 261 321
#     4   9  19  36  57  82 112 146 183 221 265 324
#     4  10  20  35  56  84 116 144 175 223 277 324
#
# _framework density 19.794059000000001
#
# number of rings (size 3 to 8) (size 9 to 14) (size 15 to 20)
#    0.000    2.000    0.000    3.643    0.000    9.143 
#    0.000    2.143    0.000    1.714    0.000    0.000 
#    0.000    0.000    0.000    0.000    0.000    0.000 
#
# Total GULP energy -156450.079554 kJ/mol
# GULP energy per Si atom -5587.502841 kJ/mol
# Density = 1.974901 g / cm^3
# Si number density = 19.794059 Si / 1000 Ang^3
#
#
#
# Elastic Constant Matrix: (Units=GPa)
#
#
# Indices 1 2 3 4 5 6 
#
# 1 8.6975 15.4588 2.8338 0.0000 0.0000 0.0000
# 2 15.4588 117.0289 77.0373 0.0000 0.0000 0.0000
# 3 2.8338 77.0373 130.2933 0.0000 0.0000 0.0000
# 4 0.0000 0.0000 0.0000 37.6975 0.0000 0.0000
# 5 0.0000 0.0000 0.0000 0.0000 15.2362 0.0000
# 6 0.0000 0.0000 0.0000 0.0000 0.0000 16.2125
#
#
#
# Elastic Compliance Matrix: (Units=1/GPa)
#
#
# Indices 1 2 3 4 5 6 
#
# 1 0.167278 -0.032256 0.015433 0.000000 0.000000 0.000000
# 2 -0.032256 0.020210 -0.011248 0.000000 0.000000 0.000000
# 3 0.015433 -0.011248 0.013990 0.000000 0.000000 0.000000
# 4 0.000000 0.000000 0.000000 0.026527 0.000000 0.000000
# 5 0.000000 0.000000 0.000000 0.000000 0.065633 0.000000
# 6 0.000000 0.000000 0.000000 0.000000 0.000000 0.061681
#
#
# Mechanical properties :
#
#
# Convention : Reuss Voigt Hill
#
# Bulk Modulus (GPa) = 6.88056 49.63106 28.25581
# Shear Modulus (GPa) = 10.87182 24.54188 17.70685
#
# Velocity S-wave (km/s) = 2.34614 3.52499 2.99415
# Velocity P-wave (km/s) = 3.28980 6.45721 5.12437
#
# Compressibility (1/GPa) = 0.14533704
#
# Stress axis : x y z
#
# Youngs Moduli (GPa) = 5.97808 49.48081 71.48125
#
# Poissons Ratio (x) = 1.59605 -1.10321
# Poissons Ratio (y) = 0.19283 0.80400
# Poissons Ratio (z) = -0.09226 0.55655
#
# Static dielectric constant tensor:
#      x y z
#    x 1.715390 0.000000 0.000000 
#    y 0.000000 1.665730 0.000000 
#    z 0.000000 0.000000 1.681840 
# 
# From -- ./inp_files/19241.got.cif
#   From: 2010.05.17/outbox.cif.g08.bks.cpg/sg44_10_cif.got.tgz:19241.got - 2010.06.03 19:37:08.
