data_PCOD9373949
_publ_section_title
;
Structure prediction by ZEFSAII (Michael W. Deem and Ramdas Pophale) SiO2 
 PCOD9373949
Probable space group: I M M 2
;
_chemical_formula_sum "Si O2"
_cell_formula_units_Z 56
_cell_length_a 7.664152
_cell_length_b 14.922310
_cell_length_c 23.255514
_cell_angle_alpha 90.000000
_cell_angle_beta 90.000000
_cell_angle_gamma 90.000000
_cell_volume 2659.659929
_symmetry_space_group_name_H-M "I M M 2"
_symmetry_group_IT_number 44
_symmetry_cell_setting 'orthorhombic'
loop_
_space_group_symop_operation_xyz
x,y,z
-x,-y,z
-x,y,z
x,-y,z
1/2+x,1/2+y,1/2+z
1/2-x,1/2-y,1/2+z
1/2-x,1/2+y,1/2+z
1/2+x,1/2-y,1/2+z
loop_
_atom_site_type_symbol
_atom_site_label
_atom_site_fract_x
_atom_site_fract_y
_atom_site_fract_z
Si Si1 0.710731 0.104027 0.331530
Si Si2 0.798247 0.216594 0.441605
Si Si3 0.787771 0.397605 0.263641
Si Si4 0.713672 0.898632 0.895154
Si Si5 0.290573 0.100159 0.201260
Si Si6 0.709214 0.784806 0.656226
Si Si7 0.705444 0.100743 0.549478
O O1 0.500000 0.111077 0.333319
O O2 0.784352 0.169183 0.379602
O O3 0.770806 0.122981 0.266295
O O4 0.754957 0.000000 0.344072
O O5 0.724693 0.316927 0.434555
O O6 0.718450 0.152718 0.489489
O O7 0.000000 0.225074 0.457488
O O8 0.740780 0.500000 0.248442
O O9 0.730848 0.380690 0.329079
O O10 0.723456 0.329996 0.215165
O O11 0.000000 0.393809 0.264516
O O12 0.500000 0.897236 0.895331
O O13 0.766377 0.000000 0.910567
O O14 0.500000 0.095800 0.204603
O O15 0.245492 0.179520 0.158380
O O16 0.227507 0.000000 0.186700
O O17 0.500000 0.794261 0.656980
O O18 0.778346 0.838445 0.601142
O O19 0.500000 0.091368 0.561483
O O20 0.779577 0.000000 0.546674
#
# Coordination Sequence:
#
# PCOD9373949 Si02
#       7
#     8   8   8   8   8   8   8
#     4   9  18  33  52  74 104 141 172 200 248 314
#     4  11  21  32  51  78 103 131 174 223 259 289
#     4   8  13  24  46  75 102 125 153 196 251 306
#     4   8  15  28  46  71 102 129 154 194 251 307
#     4   9  19  35  53  75 105 139 170 201 248 311
#     4  10  19  32  53  78 100 127 169 216 254 292
#     4  10  22  39  55  72 100 138 173 205 251 312
#
# _framework density 21.055325
#
# number of rings (size 3 to 8) (size 9 to 14) (size 15 to 20)
#    0.000    2.714    0.000    3.857    0.000    6.571 
#    0.000    2.143    0.000    5.571    0.000    8.000 
#    0.000    0.000    0.000    0.000    0.000    0.000 
#
# Total GULP energy -156267.665602 kJ/mol
# GULP energy per Si atom -5580.988057 kJ/mol
# Density = 2.100740 g / cm^3
# Si number density = 21.055325 Si / 1000 Ang^3
#
#
#
# Elastic Constant Matrix: (Units=GPa)
#
#
# Indices 1 2 3 4 5 6 
#
# 1 36.5147 3.3229 3.2943 0.0000 0.0000 0.0000
# 2 3.3229 179.0361 94.9472 0.0000 0.0000 0.0000
# 3 3.2943 94.9472 70.4165 0.0000 0.0000 0.0000
# 4 0.0000 0.0000 0.0000 28.8635 0.0000 0.0000
# 5 0.0000 0.0000 0.0000 0.0000 2.8070 0.0000
# 6 0.0000 0.0000 0.0000 0.0000 0.0000 7.5915
#
#
#
# Elastic Compliance Matrix: (Units=1/GPa)
#
#
# Indices 1 2 3 4 5 6 
#
# 1 0.027521 0.000604 -0.002101 0.000000 0.000000 0.000000
# 2 0.000604 0.019616 -0.026478 0.000000 0.000000 0.000000
# 3 -0.002101 -0.026478 0.050002 0.000000 0.000000 0.000000
# 4 0.000000 0.000000 0.000000 0.034646 0.000000 0.000000
# 5 0.000000 0.000000 0.000000 0.000000 0.356251 0.000000
# 6 0.000000 0.000000 0.000000 0.000000 0.000000 0.131727
#
#
# Mechanical properties :
#
#
# Convention : Reuss Voigt Hill
#
# Bulk Modulus (GPa) = 24.27948 54.34401 39.31175
# Shear Modulus (GPa) = 7.25223 20.14591 13.69907
#
# Velocity S-wave (km/s) = 1.85791 3.09659 2.55350
# Velocity P-wave (km/s) = 4.01980 6.21702 5.23498
#
# Compressibility (1/GPa) = 0.04118704
#
# Stress axis : x y z
#
# Youngs Moduli (GPa) = 36.33601 50.97813 19.99929
#
# Poissons Ratio (x) = -0.03077 0.04203
# Poissons Ratio (y) = -0.02194 0.52954
# Poissons Ratio (z) = 0.07636 1.34981
#
# Static dielectric constant tensor:
#      x y z
#    x 1.796060 0.000000 0.000000 
#    y 0.000000 1.774890 0.000000 
#    z 0.000000 0.000000 1.727150 
# 
# From -- ./inp_files/23070.got.cif
#   From: 2010.05.17/outbox.cif.g08.bks.cpg/sg44_12_cif.got.tgz:23070.got - 2010.06.03 19:37:08.
