data_PCOD9373805
_publ_section_title
;
Structure prediction by ZEFSAII (Michael W. Deem and Ramdas Pophale) SiO2 
 PCOD9373805
Probable space group: I M M 2
;
_chemical_formula_sum "Si O2"
_cell_formula_units_Z 64
_cell_length_a 8.557598
_cell_length_b 28.623481
_cell_length_c 15.069059
_cell_angle_alpha 90.000000
_cell_angle_beta 90.000000
_cell_angle_gamma 90.000000
_cell_volume 3691.139537
_symmetry_space_group_name_H-M "I M M 2"
_symmetry_group_IT_number 44
_symmetry_cell_setting 'orthorhombic'
loop_
_space_group_symop_operation_xyz
x,y,z
-x,-y,z
-x,y,z
x,-y,z
1/2+x,1/2+y,1/2+z
1/2-x,1/2-y,1/2+z
1/2-x,1/2+y,1/2+z
1/2+x,1/2-y,1/2+z
loop_
_atom_site_type_symbol
_atom_site_label
_atom_site_fract_x
_atom_site_fract_y
_atom_site_fract_z
Si Si1 0.311171 0.365136 0.348430
Si Si2 0.311184 0.721973 0.022601
Si Si3 0.310623 0.719795 0.226447
Si Si4 0.813093 0.174687 0.031063
Si Si5 0.186732 0.864667 0.401600
Si Si6 0.311433 0.054060 0.524556
Si Si7 0.811581 0.446173 0.226106
Si Si8 0.813061 0.673992 0.726362
O O1 0.500000 0.364692 0.346474
O O2 0.254196 0.319845 0.293032
O O3 0.262791 0.358705 0.450475
O O4 0.253612 0.410872 0.298266
O O5 0.500000 0.726535 0.018254
O O6 0.270153 0.708836 0.124273
O O7 0.237049 0.772500 0.005679
O O8 0.259577 0.681464 0.956055
O O9 0.500000 0.720412 0.231497
O O10 0.257057 0.772629 0.245816
O O11 0.739905 0.163281 0.126337
O O12 0.000000 0.173301 0.038873
O O13 0.245262 0.910023 0.453641
O O14 0.247449 0.859608 0.301743
O O15 0.000000 0.864537 0.401695
O O16 0.500000 0.055941 0.522309
O O17 0.261596 0.066652 0.625411
O O18 0.265932 0.000000 0.508668
O O19 0.764773 0.500000 0.241678
O O20 0.000000 0.444504 0.227625
O O21 0.000000 0.673820 0.729559
#
# Coordination Sequence:
#
# PCOD9373805 Si02
#       8
#     8   8   8   8   8   8   8   8
#     4  10  19  31  50  74 100 131 165 203 249 297
#     4   9  18  31  47  71 104 138 168 200 243 298
#     4   8  15  29  47  69  99 132 164 197 236 286
#     4  10  20  33  49  72 102 134 171 214 253 292
#     4  11  21  32  51  78 104 131 169 213 253 298
#     4   9  19  36  55  76 104 135 165 199 246 305
#     4   9  19  35  53  75 103 131 161 200 243 292
#     4  10  20  35  52  69  98 139 175 209 251 297
#
# _framework density 17.338819000000001
#
# number of rings (size 3 to 8) (size 9 to 14) (size 15 to 20)
#    0.000    2.500    0.000    4.125    0.000    5.000 
#    0.000    5.625    0.000    0.750    0.000    3.500 
#    0.000    0.000    0.000    0.000    0.000    0.000 
#
# Total GULP energy -178542.463393 kJ/mol
# GULP energy per Si atom -5579.451981 kJ/mol
# Density = 1.729936 g / cm^3
# Si number density = 17.338819 Si / 1000 Ang^3
#
#
#
# Elastic Constant Matrix: (Units=GPa)
#
#
# Indices 1 2 3 4 5 6 
#
# 1 23.1550 24.9719 30.3863 0.0000 0.0000 0.0000
# 2 24.9719 92.8220 96.6984 0.0000 0.0000 0.0000
# 3 30.3863 96.6984 137.2286 -0.0001 0.0000 0.0000
# 4 0.0000 0.0000 -0.0001 31.5024 0.0000 0.0000
# 5 0.0000 0.0000 0.0000 0.0000 23.9961 0.0000
# 6 0.0000 0.0000 0.0000 0.0000 0.0000 26.2444
#
#
#
# Elastic Compliance Matrix: (Units=1/GPa)
#
#
# Indices 1 2 3 4 5 6 
#
# 1 0.062841 -0.009064 -0.007528 0.000000 0.000000 0.000000
# 2 -0.009064 0.041820 -0.027462 0.000000 0.000000 0.000000
# 3 -0.007528 -0.027462 0.028305 0.000000 0.000000 0.000000
# 4 0.000000 0.000000 0.000000 0.031744 0.000000 0.000000
# 5 0.000000 0.000000 0.000000 0.000000 0.041674 0.000000
# 6 0.000000 0.000000 0.000000 0.000000 0.000000 0.038103
#
#
# Mechanical properties :
#
#
# Convention : Reuss Voigt Hill
#
# Bulk Modulus (GPa) = 22.29189 61.92431 42.10810
# Shear Modulus (GPa) = 14.38652 23.09185 18.73919
#
# Velocity S-wave (km/s) = 2.88363 3.65334 3.29107
# Velocity P-wave (km/s) = 4.89608 7.32036 6.22733
#
# Compressibility (1/GPa) = 0.04485937
#
# Stress axis : x y z
#
# Youngs Moduli (GPa) = 15.91317 23.91174 35.32927
#
# Poissons Ratio (x) = 0.21673 0.26596
# Poissons Ratio (y) = 0.14423 0.97021
# Poissons Ratio (z) = 0.11980 0.65666
#
# Static dielectric constant tensor:
#      x y z
#    x 1.586530 0.000000 0.000000 
#    y 0.000000 1.571930 0.000000 
#    z 0.000000 0.000000 1.590670 
# 
# From -- ./inp_files/16845.got.cif
#   From: 2010.05.17/outbox.cif.g08.bks.cpg/sg44_9_cif.got.tgz:16845.got - 2010.06.03 19:37:08.
