data_PCOD9373109
_publ_section_title
;
Structure prediction by ZEFSAII (Michael W. Deem and Ramdas Pophale) SiO2 
 PCOD9373109
Probable space group: I M M 2
;
_chemical_formula_sum "Si O2"
_cell_formula_units_Z 48
_cell_length_a 19.069390
_cell_length_b 7.797314
_cell_length_c 15.530903
_cell_angle_alpha 90.000000
_cell_angle_beta 90.000000
_cell_angle_gamma 90.000000
_cell_volume 2309.290303
_symmetry_space_group_name_H-M "I M M 2"
_symmetry_group_IT_number 44
_symmetry_cell_setting 'orthorhombic'
loop_
_space_group_symop_operation_xyz
x,y,z
-x,-y,z
-x,y,z
x,-y,z
1/2+x,1/2+y,1/2+z
1/2-x,1/2-y,1/2+z
1/2-x,1/2+y,1/2+z
1/2+x,1/2-y,1/2+z
loop_
_atom_site_type_symbol
_atom_site_label
_atom_site_fract_x
_atom_site_fract_y
_atom_site_fract_z
Si Si1 0.153847 0.296605 0.769540
Si Si2 0.500000 0.296005 0.206805
Si Si3 0.737867 0.209003 0.429552
Si Si4 0.271644 0.792842 0.626718
Si Si5 0.500000 0.291029 0.013614
Si Si6 0.891048 0.207208 0.372321
Si Si7 0.075685 0.700282 0.183306
O O1 0.158581 0.500000 0.774500
O O2 0.073575 0.251958 0.749912
O O3 0.178657 0.228898 0.863135
O O4 0.209017 0.247553 0.693705
O O5 0.500000 0.500000 0.200696
O O6 0.500000 0.223502 0.109683
O O7 0.739419 0.267611 0.528439
O O8 0.810662 0.254324 0.383961
O O9 0.734576 0.000000 0.434015
O O10 0.348997 0.726815 0.654285
O O11 0.274540 0.000000 0.625842
O O12 0.500000 0.500000 0.017601
O O13 0.566915 0.240978 0.957314
O O14 0.921827 0.286405 0.286404
O O15 0.896719 0.000000 0.364279
O O16 0.075485 0.500000 0.157879
O O17 0.000000 0.774336 0.154432
#
# Coordination Sequence:
#
# PCOD9373109 Si02
#       7
#     8   4   8   8   4   8   8
#     4  11  22  39  61  88 118 149 194 251 295 335
#     4  11  23  41  61  82 115 156 196 235 289 357
#     4   9  19  35  57  83 111 149 195 236 283 346
#     4  10  20  38  61  83 112 156 199 235 286 353
#     4   9  18  31  55  84 107 142 190 229 269 341
#     4  10  17  31  55  79 105 141 185 225 274 340
#     4  10  20  33  51  81 116 144 179 230 284 333
#
# _framework density 20.785609000000001
#
# number of rings (size 3 to 8) (size 9 to 14) (size 15 to 20)
#    0.000    2.000    2.500    1.750    0.000    2.667 
#    1.500    5.833    0.000    0.000    0.000    0.000 
#    0.000    0.000    0.000    0.000    0.000    0.000 
#
# Total GULP energy -133879.199775 kJ/mol
# GULP energy per Si atom -5578.299991 kJ/mol
# Density = 2.073830 g / cm^3
# Si number density = 20.785609 Si / 1000 Ang^3
#
#
#
# Elastic Constant Matrix: (Units=GPa)
#
#
# Indices 1 2 3 4 5 6 
#
# 1 160.4878 6.8235 46.7935 0.0000 0.0000 0.0000
# 2 6.8235 32.8333 2.5437 0.0000 0.0000 0.0000
# 3 46.7935 2.5437 86.7109 0.0000 0.0000 0.0000
# 4 0.0000 0.0000 0.0000 19.3181 0.0000 0.0000
# 5 0.0000 0.0000 0.0000 0.0000 25.9886 0.0000
# 6 0.0000 0.0000 0.0000 0.0000 0.0000 6.1271
#
#
#
# Elastic Compliance Matrix: (Units=1/GPa)
#
#
# Indices 1 2 3 4 5 6 
#
# 1 0.007444 -0.001239 -0.003981 0.000000 0.000000 0.000000
# 2 -0.001239 0.030732 -0.000233 0.000000 0.000000 0.000000
# 3 -0.003981 -0.000233 0.013688 0.000000 0.000000 0.000000
# 4 0.000000 0.000000 0.000000 0.051765 0.000000 0.000000
# 5 0.000000 0.000000 0.000000 0.000000 0.038478 0.000000
# 6 0.000000 0.000000 0.000000 0.000000 0.000000 0.163210
#
#
# Mechanical properties :
#
#
# Convention : Reuss Voigt Hill
#
# Bulk Modulus (GPa) = 24.41469 43.59482 34.00476
# Shear Modulus (GPa) = 15.15721 25.21152 20.18436
#
# Velocity S-wave (km/s) = 2.70333 3.48649 3.11959
# Velocity P-wave (km/s) = 4.63847 6.10136 5.41951
#
# Compressibility (1/GPa) = 0.04095895
#
# Stress axis : x y z
#
# Youngs Moduli (GPa) = 134.32876 32.53894 73.05789
#
# Poissons Ratio (x) = 0.04031 0.29085
# Poissons Ratio (y) = 0.16639 0.01703
# Poissons Ratio (z) = 0.53477 0.00758
#
# Static dielectric constant tensor:
#      x y z
#    x 1.707060 0.000000 0.000000 
#    y 0.000000 1.774280 0.000000 
#    z 0.000000 0.000000 1.743860 
# 
# From -- ./inp_files/16163.got.cif
#   From: 2010.05.17/outbox.cif.g08.bks.cpg/sg44_9_cif.got.tgz:16163.got - 2010.06.03 19:37:08.
