data_PCOD9373859
_publ_section_title
;
Structure prediction by ZEFSAII (Michael W. Deem and Ramdas Pophale) SiO2 
 PCOD9373859
Probable space group: I M M 2
;
_chemical_formula_sum "Si O2"
_cell_formula_units_Z 64
_cell_length_a 8.875302
_cell_length_b 29.222378
_cell_length_c 13.019849
_cell_angle_alpha 90.000000
_cell_angle_beta 90.000000
_cell_angle_gamma 90.000000
_cell_volume 3376.794574
_symmetry_space_group_name_H-M "I M M 2"
_symmetry_group_IT_number 44
_symmetry_cell_setting 'orthorhombic'
loop_
_space_group_symop_operation_xyz
x,y,z
-x,-y,z
-x,y,z
x,-y,z
1/2+x,1/2+y,1/2+z
1/2-x,1/2-y,1/2+z
1/2-x,1/2+y,1/2+z
1/2+x,1/2-y,1/2+z
loop_
_atom_site_type_symbol
_atom_site_label
_atom_site_fract_x
_atom_site_fract_y
_atom_site_fract_z
Si Si1 0.815804 0.383368 0.868910
Si Si2 0.171695 0.178657 0.049592
Si Si3 0.171303 0.072618 0.981458
Si Si4 0.819375 0.294756 0.759093
Si Si5 0.176593 0.449831 0.689601
Si Si6 0.680555 0.902501 0.774770
Si Si7 0.816337 0.552870 0.057827
Si Si8 0.317247 0.696014 0.324456
O O1 0.767821 0.331147 0.846244
O O2 0.766054 0.412254 0.768992
O O3 0.000000 0.383861 0.870642
O O4 0.766451 0.411309 0.969611
O O5 0.170626 0.125861 0.015376
O O6 0.272365 0.186631 0.148200
O O7 0.000000 0.192250 0.074390
O O8 0.221599 0.202950 0.944774
O O9 0.244144 0.049612 0.080179
O O10 0.000000 0.057771 0.965465
O O11 0.261142 0.070553 0.875207
O O12 0.766964 0.242526 0.769834
O O13 0.000000 0.293463 0.766132
O O14 0.189566 0.500000 0.738850
O O15 0.000000 0.440642 0.671418
O O16 0.500000 0.900049 0.777712
O O17 0.726722 0.927664 0.669661
O O18 0.746106 0.850899 0.782731
O O19 0.767167 0.500000 0.042508
O O20 0.000000 0.552174 0.054542
O O21 0.500000 0.691099 0.319370
#
# Coordination Sequence:
#
# PCOD9373859 Si02
#       8
#     8   8   8   8   8   8   8   8
#     4   9  17  31  52  79 110 142 177 223 277 330
#     4   9  18  33  51  71 102 139 173 216 271 325
#     4  10  20  35  54  75 105 143 177 219 278 335
#     4  10  19  32  54  80 106 140 184 226 270 326
#     4  10  19  31  52  82 110 136 174 224 270 322
#     4  10  20  34  56  82 108 141 186 233 272 324
#     4   9  18  33  54  81 112 144 179 226 283 333
#     4   9  20  36  52  76 110 148 183 224 279 334
#
# _framework density 18.952884999999998
#
# number of rings (size 3 to 8) (size 9 to 14) (size 15 to 20)
#    0.000    2.500    1.250    1.875    0.000    5.750 
#    0.000    3.750    0.000    4.125    0.000    0.000 
#    0.000    0.000    0.000    0.000    0.000    0.000 
#
# Total GULP energy -178337.501594 kJ/mol
# GULP energy per Si atom -5573.046925 kJ/mol
# Density = 1.890975 g / cm^3
# Si number density = 18.952885 Si / 1000 Ang^3
#
#
#
# Elastic Constant Matrix: (Units=GPa)
#
#
# Indices 1 2 3 4 5 6 
#
# 1 19.3720 13.4859 10.8726 -0.0001 0.0000 0.0000
# 2 13.4859 56.2826 23.9836 -0.0002 -0.0001 0.0000
# 3 10.8726 23.9836 84.2963 -0.0005 0.0000 0.0000
# 4 -0.0001 -0.0002 -0.0005 23.7371 0.0000 0.0000
# 5 0.0000 -0.0001 0.0000 0.0000 16.7593 0.0000
# 6 0.0000 0.0000 0.0000 0.0000 0.0000 15.1906
#
#
#
# Elastic Compliance Matrix: (Units=1/GPa)
#
#
# Indices 1 2 3 4 5 6 
#
# 1 0.063348 -0.013311 -0.004383 0.000000 0.000000 0.000000
# 2 -0.013311 0.023016 -0.004831 0.000000 0.000000 0.000000
# 3 -0.004383 -0.004831 0.013803 0.000000 0.000000 0.000000
# 4 0.000000 0.000000 0.000000 0.042128 0.000000 0.000000
# 5 0.000000 0.000000 0.000000 0.000000 0.059669 0.000000
# 6 0.000000 0.000000 0.000000 0.000000 0.000000 0.065830
#
#
# Mechanical properties :
#
#
# Convention : Reuss Voigt Hill
#
# Bulk Modulus (GPa) = 18.14403 28.51503 23.32953
# Shear Modulus (GPa) = 15.09588 18.57798 16.83693
#
# Velocity S-wave (km/s) = 2.82529 3.13424 2.98377
# Velocity P-wave (km/s) = 4.49856 5.30809 4.92000
#
# Compressibility (1/GPa) = 0.05511454
#
# Stress axis : x y z
#
# Youngs Moduli (GPa) = 15.78594 43.44854 72.44840
#
# Poissons Ratio (x) = 0.57834 0.31758
# Poissons Ratio (y) = 0.21012 0.35003
# Poissons Ratio (z) = 0.06920 0.20992
#
# Static dielectric constant tensor:
#      x y z
#    x 1.647620 0.000000 0.000000 
#    y 0.000000 1.696810 0.000000 
#    z 0.000000 0.000000 1.645290 
# 
# From -- ./inp_files/11496.got.cif
#   From: 2010.05.17/outbox.cif.g08.bks.cpg/sg44_6_cif.got.tgz:11496.got - 2010.06.03 19:37:08.
