data_PCOD9373828
_publ_section_title
;
Structure prediction by ZEFSAII (Michael W. Deem and Ramdas Pophale) SiO2 
 PCOD9373828
Probable space group: I M M 2
;
_chemical_formula_sum "Si O2"
_cell_formula_units_Z 64
_cell_length_a 21.285596
_cell_length_b 8.486622
_cell_length_c 20.202557
_cell_angle_alpha 90.000000
_cell_angle_beta 90.000000
_cell_angle_gamma 90.000000
_cell_volume 3649.446611
_symmetry_space_group_name_H-M "I M M 2"
_symmetry_group_IT_number 44
_symmetry_cell_setting 'orthorhombic'
loop_
_space_group_symop_operation_xyz
x,y,z
-x,-y,z
-x,y,z
x,-y,z
1/2+x,1/2+y,1/2+z
1/2-x,1/2-y,1/2+z
1/2-x,1/2+y,1/2+z
1/2+x,1/2-y,1/2+z
loop_
_atom_site_type_symbol
_atom_site_label
_atom_site_fract_x
_atom_site_fract_y
_atom_site_fract_z
Si Si1 0.255899 0.812329 0.871940
Si Si2 0.569121 0.807354 0.088346
Si Si3 0.765412 0.811726 0.231732
Si Si4 0.188121 0.686618 0.095535
Si Si5 0.070324 0.187776 0.013813
Si Si6 0.118627 0.691370 0.728886
Si Si7 0.614702 0.187524 0.375263
Si Si8 0.693093 0.190070 0.012424
O O1 0.284419 0.764273 0.801462
O O2 0.189198 0.724033 0.879022
O O3 0.243917 0.000000 0.873142
O O4 0.297869 0.771273 0.935355
O O5 0.500000 0.756818 0.066234
O O6 0.581390 0.756969 0.164196
O O7 0.627565 0.755040 0.043785
O O8 0.569916 0.000000 0.088040
O O9 0.804867 0.759867 0.168433
O O10 0.692056 0.764372 0.220870
O O11 0.766713 0.000000 0.237919
O O12 0.190407 0.500000 0.100896
O O13 0.125062 0.736909 0.057667
O O14 0.247780 0.744544 0.052868
O O15 0.000000 0.239639 0.032568
O O16 0.074528 0.000000 0.020930
O O17 0.082113 0.230834 0.937089
O O18 0.116852 0.500000 0.729943
O O19 0.095396 0.742401 0.801410
O O20 0.604711 0.000000 0.380211
O O21 0.695362 0.000000 0.018889
#
# Coordination Sequence:
#
# PCOD9373828 Si02
#       8
#     8   8   8   8   8   8   8   8
#     4  10  19  31  51  79 111 143 182 227 274 322
#     4   9  16  28  49  77 106 140 181 219 260 312
#     4  10  19  34  55  78 109 141 178 226 278 326
#     4  12  23  35  57  84 108 139 182 228 277 332
#     4  11  24  40  56  76 107 148 186 225 279 336
#     4   8  15  27  46  75 108 141 177 218 261 309
#     4  10  19  31  50  78 109 144 185 225 267 318
#     4  10  19  33  54  79 109 144 180 226 273 318
#
# _framework density 17.536905999999998
#
# number of rings (size 3 to 8) (size 9 to 14) (size 15 to 20)
#    0.000    2.000    2.500    3.375    0.000    2.000 
#    0.000    1.250    0.000    1.125    0.000    1.750 
#    0.000    0.000    0.000    0.000    0.000    0.000 
#
# Total GULP energy -178581.463833 kJ/mol
# GULP energy per Si atom -5580.670745 kJ/mol
# Density = 1.749699 g / cm^3
# Si number density = 17.536906 Si / 1000 Ang^3
#
#
#
# Elastic Constant Matrix: (Units=GPa)
#
#
# Indices 1 2 3 4 5 6 
#
# 1 96.0317 7.6152 47.8536 0.0000 0.0000 0.0000
# 2 7.6152 19.1427 13.0944 0.0000 0.0000 0.0000
# 3 47.8536 13.0944 103.1160 0.0000 0.0000 0.0000
# 4 0.0000 0.0000 0.0000 26.1456 0.0000 0.0000
# 5 0.0000 0.0000 0.0000 0.0000 19.6379 0.0000
# 6 0.0000 0.0000 0.0000 0.0000 0.0000 -7.3983
#
#
#
# Elastic Compliance Matrix: (Units=1/GPa)
#
#
# Indices 1 2 3 4 5 6 
#
# 1 0.013571 -0.001194 -0.006146 0.000000 0.000000 0.000000
# 2 -0.001194 0.057314 -0.006724 0.000000 0.000000 0.000000
# 3 -0.006146 -0.006724 0.013404 0.000000 0.000000 0.000000
# 4 0.000000 0.000000 0.000000 0.038247 0.000000 0.000000
# 5 0.000000 0.000000 0.000000 0.000000 0.050922 0.000000
# 6 0.000000 0.000000 0.000000 0.000000 0.000000 -0.135166
#
#
# Mechanical properties :
#
#
# Convention : Reuss Voigt Hill
#
# Bulk Modulus (GPa) = 17.80635 39.49074 28.64854
# Shear Modulus (GPa) = 58.72685 17.65885 38.19285
#
# Velocity S-wave (km/s) = 5.79312 3.17670 4.67181
# Velocity P-wave (km/s) = 7.41099 6.00189 6.74335
#
# Compressibility (1/GPa) = 0.05615975
#
# Stress axis : x y z
#
# Youngs Moduli (GPa) = 73.68866 17.44778 74.60499
#
# Poissons Ratio (x) = 0.02084 0.45853
# Poissons Ratio (y) = 0.08801 0.50164
# Poissons Ratio (z) = 0.45290 0.11732
#
# Static dielectric constant tensor:
#      x y z
#    x 1.588920 0.000000 0.000000 
#    y 0.000000 1.592800 0.000000 
#    z 0.000000 0.000000 1.606180 
# 
# From -- ./inp_files/24482.got.cif
#   From: 2010.05.17/outbox.cif.g08.bks.cpg/sg44_13_cif.got.tgz:24482.got - 2010.06.03 19:37:08.
