data_PCOD9373789
_publ_section_title
;
Structure prediction by ZEFSAII (Michael W. Deem and Ramdas Pophale) SiO2 
 PCOD9373789
Probable space group: I M M 2
;
_chemical_formula_sum "Si O2"
_cell_formula_units_Z 48
_cell_length_a 8.845697
_cell_length_b 24.297575
_cell_length_c 14.086177
_cell_angle_alpha 90.000000
_cell_angle_beta 90.000000
_cell_angle_gamma 90.000000
_cell_volume 3027.527743
_symmetry_space_group_name_H-M "I M M 2"
_symmetry_group_IT_number 44
_symmetry_cell_setting 'orthorhombic'
loop_
_space_group_symop_operation_xyz
x,y,z
-x,-y,z
-x,y,z
x,-y,z
1/2+x,1/2+y,1/2+z
1/2-x,1/2-y,1/2+z
1/2-x,1/2+y,1/2+z
1/2+x,1/2-y,1/2+z
loop_
_atom_site_type_symbol
_atom_site_label
_atom_site_fract_x
_atom_site_fract_y
_atom_site_fract_z
Si Si1 0.819533 0.563071 0.223960
Si Si2 0.681806 0.668288 0.547111
Si Si3 0.681384 0.774263 0.225837
Si Si4 0.681576 0.269163 0.932017
Si Si5 0.181873 0.062767 0.929860
Si Si6 0.180316 0.162246 0.615039
O O1 0.773783 0.500000 0.201619
O O2 0.752375 0.576506 0.327678
O O3 0.761014 0.607381 0.149166
O O4 0.000000 0.565115 0.229087
O O5 0.500000 0.672359 0.552537
O O6 0.753850 0.683556 0.648104
O O7 0.743889 0.713627 0.473162
O O8 0.723785 0.608288 0.507296
O O9 0.500000 0.778603 0.230490
O O10 0.754584 0.781415 0.328452
O O11 0.718364 0.713295 0.184893
O O12 0.500000 0.262659 0.930142
O O13 0.717601 0.316402 0.009473
O O14 0.000000 0.064346 0.920010
O O15 0.225960 0.000000 0.954171
O O16 0.000000 0.154162 0.620362
#
# Coordination Sequence:
#
# PCOD9373789 Si02
#       6
#     8   8   8   8   8   8
#     4  10  20  31  46  71  98 123 154 193 235 277
#     4  10  19  31  49  72  97 126 160 195 234 279
#     4  10  20  33  49  71  98 126 158 194 235 282
#     4  10  20  33  49  71  98 125 157 196 237 281
#     4   9  18  32  49  69  95 127 159 191 229 276
#     4   9  19  33  48  68  94 125 158 190 228 279
#
# _framework density 15.854520000000001
#
# number of rings (size 3 to 8) (size 9 to 14) (size 15 to 20)
#    0.000    2.333    0.000    4.000    0.000   10.333 
#    0.000    0.000    0.000    1.000    0.000    2.333 
#    0.000    0.000    0.000    0.000    0.000    0.000 
#
# Total GULP energy -133893.419958 kJ/mol
# GULP energy per Si atom -5578.892498 kJ/mol
# Density = 1.581843 g / cm^3
# Si number density = 15.854520 Si / 1000 Ang^3
#
#
#
# Elastic Constant Matrix: (Units=GPa)
#
#
# Indices 1 2 3 4 5 6 
#
# 1 41.1557 38.9068 45.2158 0.0000 0.0000 0.0000
# 2 38.9068 93.5431 73.9441 0.0000 0.0000 0.0000
# 3 45.2158 73.9441 136.2008 0.0000 0.0000 0.0000
# 4 0.0000 0.0000 0.0000 20.9401 0.0000 0.0000
# 5 0.0000 0.0000 0.0000 0.0000 28.9102 0.0000
# 6 0.0000 0.0000 0.0000 0.0000 0.0000 25.0891
#
#
#
# Elastic Compliance Matrix: (Units=1/GPa)
#
#
# Indices 1 2 3 4 5 6 
#
# 1 0.044875 -0.012067 -0.008346 0.000000 0.000000 0.000000
# 2 -0.012067 0.021972 -0.007923 0.000000 0.000000 0.000000
# 3 -0.008346 -0.007923 0.014414 0.000000 0.000000 0.000000
# 4 0.000000 0.000000 0.000000 0.047755 0.000000 0.000000
# 5 0.000000 0.000000 0.000000 0.000000 0.034590 0.000000
# 6 0.000000 0.000000 0.000000 0.000000 0.000000 0.039858
#
#
# Mechanical properties :
#
#
# Convention : Reuss Voigt Hill
#
# Bulk Modulus (GPa) = 40.66816 65.22591 52.94703
# Shear Modulus (GPa) = 18.63353 22.51008 20.57180
#
# Velocity S-wave (km/s) = 3.43196 3.77210 3.60604
# Velocity P-wave (km/s) = 6.43513 7.75894 7.12784
#
# Compressibility (1/GPa) = 0.02458926
#
# Stress axis : x y z
#
# Youngs Moduli (GPa) = 22.28388 45.51250 69.37598
#
# Poissons Ratio (x) = 0.54920 0.57904
# Poissons Ratio (y) = 0.26890 0.54964
# Poissons Ratio (z) = 0.18599 0.36058
#
# Static dielectric constant tensor:
#      x y z
#    x 1.529520 0.000000 0.000000 
#    y 0.000000 1.527290 0.000000 
#    z 0.000000 0.000000 1.506940 
# 
# From -- ./inp_files/11130.got.cif
#   From: 2010.05.17/outbox.cif.g08.bks.cpg/sg44_6_cif.got.tgz:11130.got - 2010.06.03 19:37:08.
