data_PCOD9373687
_publ_section_title
;
Structure prediction by ZEFSAII (Michael W. Deem and Ramdas Pophale) SiO2 
 PCOD9373687
Probable space group: I M M 2
;
_chemical_formula_sum "Si O2"
_cell_formula_units_Z 56
_cell_length_a 18.982990
_cell_length_b 8.702485
_cell_length_c 21.312970
_cell_angle_alpha 90.000000
_cell_angle_beta 90.000000
_cell_angle_gamma 90.000000
_cell_volume 3520.885289
_symmetry_space_group_name_H-M "I M M 2"
_symmetry_group_IT_number 44
_symmetry_cell_setting 'orthorhombic'
loop_
_space_group_symop_operation_xyz
x,y,z
-x,-y,z
-x,y,z
x,-y,z
1/2+x,1/2+y,1/2+z
1/2-x,1/2-y,1/2+z
1/2-x,1/2+y,1/2+z
1/2+x,1/2-y,1/2+z
loop_
_atom_site_type_symbol
_atom_site_label
_atom_site_fract_x
_atom_site_fract_y
_atom_site_fract_z
Si Si1 0.711444 0.823243 0.574150
Si Si2 0.581016 0.683933 0.510346
Si Si3 0.853593 0.314114 0.882937
Si Si4 0.418946 0.313077 0.006784
Si Si5 0.082667 0.184219 0.755186
Si Si6 0.712546 0.676724 0.937457
Si Si7 0.153851 0.682959 0.631264
O O1 0.636137 0.747094 0.561391
O O2 0.749201 0.823511 0.505569
O O3 0.765744 0.735062 0.618645
O O4 0.704298 0.000000 0.593770
O O5 0.500000 0.723251 0.524114
O O6 0.587584 0.500000 0.506468
O O7 0.603040 0.754127 0.443032
O O8 0.853398 0.500000 0.884672
O O9 0.886974 0.254307 0.819142
O O10 0.772452 0.257358 0.891988
O O11 0.500000 0.272431 0.995651
O O12 0.413660 0.500000 0.009644
O O13 0.392025 0.248840 0.073233
O O14 0.364204 0.256761 0.953239
O O15 0.124005 0.248992 0.695469
O O16 0.000000 0.223411 0.749439
O O17 0.088801 0.000000 0.756997
O O18 0.701539 0.500000 0.917763
O O19 0.149258 0.500000 0.631507
#
# Coordination Sequence:
#
# PCOD9373687 Si02
#       7
#     8   8   8   8   8   8   8
#     4   9  17  31  49  67  90 121 157 193 231 277
#     4  10  19  30  46  71 101 128 155 191 235 279
#     4  10  19  31  47  66  92 126 162 198 234 277
#     4   9  16  28  47  69  94 124 155 187 226 274
#     4  11  23  36  48  64  90 124 160 197 236 279
#     4   7  13  26  43  64  88 115 148 186 227 270
#     4  11  21  32  47  67  93 123 155 192 234 281
#
# _framework density 15.90509
#
# number of rings (size 3 to 8) (size 9 to 14) (size 15 to 20)
#    0.000    2.429    0.000    5.571    0.000    6.000 
#    0.000    0.714    0.000    0.000    0.000    1.000 
#    0.000    5.714    0.000    0.000    0.000    0.000 
#
# Total GULP energy -156031.185404 kJ/mol
# GULP energy per Si atom -5572.542336 kJ/mol
# Density = 1.586889 g / cm^3
# Si number density = 15.905090 Si / 1000 Ang^3
#
#
#
# Elastic Constant Matrix: (Units=GPa)
#
#
# Indices 1 2 3 4 5 6 
#
# 1 164.5661 49.5279 58.7286 0.0000 0.0000 0.0000
# 2 49.5279 56.7165 26.4295 0.0000 0.0000 0.0000
# 3 58.7286 26.4295 62.7592 0.0000 0.0000 0.0000
# 4 0.0000 0.0000 0.0000 15.1492 0.0000 0.0000
# 5 0.0000 0.0000 0.0000 0.0000 25.8238 0.0000
# 6 0.0000 0.0000 0.0000 0.0000 0.0000 23.9909
#
#
#
# Elastic Compliance Matrix: (Units=1/GPa)
#
#
# Indices 1 2 3 4 5 6 
#
# 1 0.010403 -0.005659 -0.007352 0.000000 0.000000 0.000000
# 2 -0.005659 0.025014 -0.005239 0.000000 0.000000 0.000000
# 3 -0.007352 -0.005239 0.025020 0.000000 0.000000 0.000000
# 4 0.000000 0.000000 0.000000 0.066010 0.000000 0.000000
# 5 0.000000 0.000000 0.000000 0.000000 0.038724 0.000000
# 6 0.000000 0.000000 0.000000 0.000000 0.000000 0.041682
#
#
# Mechanical properties :
#
#
# Convention : Reuss Voigt Hill
#
# Bulk Modulus (GPa) = 41.77410 61.49042 51.63226
# Shear Modulus (GPa) = 19.89388 22.94983 21.42185
#
# Velocity S-wave (km/s) = 3.54048 3.80270 3.67393
# Velocity P-wave (km/s) = 6.56011 7.61745 7.10846
#
# Compressibility (1/GPa) = 0.02393828
#
# Stress axis : x y z
#
# Youngs Moduli (GPa) = 96.12211 39.97701 39.96771
#
# Poissons Ratio (x) = 0.22622 0.29385
# Poissons Ratio (y) = 0.54393 0.20939
# Poissons Ratio (z) = 0.70671 0.20943
#
# Static dielectric constant tensor:
#      x y z
#    x 1.565580 0.000000 0.000000 
#    y 0.000000 1.537690 0.000000 
#    z 0.000000 0.000000 1.499000 
# 
# From -- ./inp_files/23230.got.cif
#   From: 2010.05.17/outbox.cif.g08.bks.cpg/sg44_12_cif.got.tgz:23230.got - 2010.06.03 19:37:08.
