data_PCOD9373917
_publ_section_title
;
Structure prediction by ZEFSAII (Michael W. Deem and Ramdas Pophale) SiO2 
 PCOD9373917
Probable space group: I M M 2
;
_chemical_formula_sum "Si O2"
_cell_formula_units_Z 58
_cell_length_a 15.982109
_cell_length_b 7.311599
_cell_length_c 19.976155
_cell_angle_alpha 90.000000
_cell_angle_beta 90.000000
_cell_angle_gamma 90.000000
_cell_volume 2334.309042
_symmetry_space_group_name_H-M "I M M 2"
_symmetry_group_IT_number 44
_symmetry_cell_setting 'orthorhombic'
loop_
_space_group_symop_operation_xyz
x,y,z
-x,-y,z
-x,y,z
x,-y,z
1/2+x,1/2+y,1/2+z
1/2-x,1/2-y,1/2+z
1/2-x,1/2+y,1/2+z
1/2+x,1/2-y,1/2+z
loop_
_atom_site_type_symbol
_atom_site_label
_atom_site_fract_x
_atom_site_fract_y
_atom_site_fract_z
Si Si1 0.000000 0.000000 0.489640
Si Si2 0.722813 0.223105 0.321993
Si Si3 0.591953 0.707306 0.837400
Si Si4 0.618800 0.209216 0.052245
Si Si5 0.091458 0.719078 0.183577
Si Si6 0.407437 0.222495 0.434988
Si Si7 0.308206 0.778959 0.561989
Si Si8 0.405163 0.778164 0.207713
O O1 0.071867 0.839919 0.501707
O O2 0.815248 0.288375 0.345041
O O3 0.658774 0.276035 0.379630
O O4 0.674067 0.280855 0.253569
O O5 0.730434 0.000000 0.318601
O O6 0.500000 0.788312 0.855614
O O7 0.589209 0.500000 0.865225
O O8 0.591347 0.697654 0.756580
O O9 0.717463 0.216153 0.041496
O O10 0.591317 0.000000 0.047396
O O11 0.603682 0.273230 0.129493
O O12 0.099153 0.500000 0.192914
O O13 0.000000 0.751809 0.152245
O O14 0.163974 0.784234 0.135199
O O15 0.500000 0.286225 0.419737
O O16 0.376062 0.278252 0.507714
O O17 0.408657 0.000000 0.434255
O O18 0.307465 0.000000 0.563696
O O19 0.500000 0.723310 0.230154
O O20 0.404107 0.000000 0.210370
#
# Coordination Sequence:
#
# PCOD9373917 Si02
#       8
#     2   8   8   8   8   8   8   8
#     4  12  22  40  60  86 122 152 198 240 292 356
#     4   9  16  27  47  74 105 141 192 240 287 345
#     4   9  17  29  46  69 101 134 175 231 288 345
#     4  11  22  37  59  86 119 159 191 239 298 353
#     4   9  17  29  47  74 107 143 181 227 286 348
#     4   9  17  30  51  78 110 147 192 244 295 344
#     4  10  19  32  51  78 113 146 191 237 289 352
#     4   9  16  27  46  76 110 142 181 229 284 345
#
# _framework density 24.846751999999999
#
# number of rings (size 3 to 8) (size 9 to 14) (size 15 to 20)
#    0.000    2.483    1.379    1.862    0.000    4.966 
#    0.000    0.000    1.517    2.069    0.000    0.000 
#    0.000    0.000    0.000    0.000    0.000    0.000 
#
# Total GULP energy -161832.370870 kJ/mol
# GULP energy per Si atom -5580.426582 kJ/mol
# Density = 2.479020 g / cm^3
# Si number density = 24.846752 Si / 1000 Ang^3
#
#
#
# Elastic Constant Matrix: (Units=GPa)
#
#
# Indices 1 2 3 4 5 6 
#
# 1 220.1615 11.3781 35.7555 0.0000 0.0000 0.0000
# 2 11.3781 113.9103 5.4041 0.0000 0.0000 0.0000
# 3 35.7555 5.4041 71.7730 0.0000 0.0000 0.0000
# 4 0.0000 0.0000 0.0000 5.9062 0.0000 0.0000
# 5 0.0000 0.0000 0.0000 0.0000 -20.1867 0.0000
# 6 0.0000 0.0000 0.0000 0.0000 0.0000 -12.4253
#
#
#
# Elastic Compliance Matrix: (Units=1/GPa)
#
#
# Indices 1 2 3 4 5 6 
#
# 1 0.004958 -0.000379 -0.002442 0.000000 0.000000 0.000000
# 2 -0.000379 0.008839 -0.000477 0.000000 0.000000 0.000000
# 3 -0.002442 -0.000477 0.015185 0.000000 0.000000 0.000000
# 4 0.000000 0.000000 0.000000 0.169314 0.000000 0.000000
# 5 0.000000 0.000000 0.000000 0.000000 -0.049538 0.000000
# 6 0.000000 0.000000 0.000000 0.000000 0.000000 -0.080481
#
#
# Mechanical properties :
#
#
# Convention : Reuss Voigt Hill
#
# Bulk Modulus (GPa) = 44.66750 56.76892 50.71821
# Shear Modulus (GPa) = 60.72719 18.21264 39.46992
#
# Velocity S-wave (km/s) = 4.94912 2.71033 3.98997
# Velocity P-wave (km/s) = 7.11861 5.71767 6.45625
#
# Compressibility (1/GPa) = 0.02238764
#
# Stress axis : x y z
#
# Youngs Moduli (GPa) = 201.68432 113.13054 65.85453
#
# Poissons Ratio (x) = 0.04293 0.16078
# Poissons Ratio (y) = 0.07653 0.03138
# Poissons Ratio (z) = 0.49241 0.05391
#
# Static dielectric constant tensor:
#      x y z
#    x 1.965940 0.000000 0.000000 
#    y 0.000000 1.956210 0.000000 
#    z 0.000000 0.000000 1.968090 
# 
# From -- ./inp_files/25698.got.cif
#   From: 2010.05.17/outbox.cif.g08.bks.cpg/sg44_13_cif.got.tgz:25698.got - 2010.06.03 19:37:08.
