data_PCOD9373950
_publ_section_title
;
Structure prediction by ZEFSAII (Michael W. Deem and Ramdas Pophale) SiO2 
 PCOD9373950
Probable space group: I M M 2
;
_chemical_formula_sum "Si O2"
_cell_formula_units_Z 56
_cell_length_a 23.715519
_cell_length_b 7.729548
_cell_length_c 14.538820
_cell_angle_alpha 90.000000
_cell_angle_beta 90.000000
_cell_angle_gamma 90.000000
_cell_volume 2665.114619
_symmetry_space_group_name_H-M "I M M 2"
_symmetry_group_IT_number 44
_symmetry_cell_setting 'orthorhombic'
loop_
_space_group_symop_operation_xyz
x,y,z
-x,-y,z
-x,y,z
x,-y,z
1/2+x,1/2+y,1/2+z
1/2-x,1/2-y,1/2+z
1/2-x,1/2+y,1/2+z
1/2+x,1/2-y,1/2+z
loop_
_atom_site_type_symbol
_atom_site_label
_atom_site_fract_x
_atom_site_fract_y
_atom_site_fract_z
Si Si1 0.500000 0.800172 0.806690
Si Si2 0.651195 0.709102 0.314454
Si Si3 0.221904 0.709910 0.312198
Si Si4 0.152992 0.209004 0.023535
Si Si5 0.219939 0.709672 0.526317
Si Si6 0.888319 0.294327 0.212447
Si Si7 0.891694 0.296055 0.625509
Si Si8 0.500000 0.306645 0.010189
O O1 0.442635 0.722703 0.765261
O O2 0.500000 0.802426 0.916907
O O3 0.500000 0.000000 0.774941
O O4 0.651694 0.500000 0.314635
O O5 0.714864 0.771574 0.290462
O O6 0.639458 0.765129 0.419306
O O7 0.609457 0.767452 0.234686
O O8 0.224130 0.500000 0.304750
O O9 0.209927 0.749105 0.419005
O O10 0.170798 0.778001 0.251188
O O11 0.216712 0.271516 0.047792
O O12 0.111357 0.266557 0.103455
O O13 0.154350 0.000000 0.022552
O O14 0.221253 0.500000 0.534965
O O15 0.167704 0.775236 0.585966
O O16 0.886042 0.500000 0.230891
O O17 0.892839 0.500000 0.606756
O O18 0.945025 0.221030 0.572532
O O19 0.500000 0.500000 0.974081
#
# Coordination Sequence:
#
# PCOD9373950 Si02
#       8
#     4   8   8   8   8   8   8   4
#     4  10  22  40  59  80 107 140 179 220 264 312
#     4   9  18  33  52  76 107 141 177 219 268 321
#     4   8  14  27  49  76 106 139 173 214 269 325
#     4   9  18  33  53  78 110 145 179 219 266 317
#     4   8  15  29  51  79 109 141 176 215 264 319
#     4  10  19  32  53  78 105 140 180 224 270 316
#     4  11  21  35  57  81 107 141 180 222 267 315
#     4  12  26  42  59  80 107 138 175 218 262 314
#
# _framework density 21.012231
#
# number of rings (size 3 to 8) (size 9 to 14) (size 15 to 20)
#    0.000    2.571    0.000    4.500    0.000    3.429 
#    0.000    1.429    0.000    7.714    0.000    0.000 
#    0.000    0.000    0.000    0.000    0.000    0.000 
#
# Total GULP energy -156277.490223 kJ/mol
# GULP energy per Si atom -5581.338937 kJ/mol
# Density = 2.096441 g / cm^3
# Si number density = 21.012231 Si / 1000 Ang^3
#
#
#
# Elastic Constant Matrix: (Units=GPa)
#
#
# Indices 1 2 3 4 5 6 
#
# 1 67.7613 -2.6658 75.1462 0.0000 0.0000 0.0000
# 2 -2.6658 33.0585 -15.9722 0.0000 0.0000 0.0000
# 3 75.1462 -15.9722 113.2642 0.0000 0.0000 0.0000
# 4 0.0000 0.0000 0.0000 22.0540 0.0000 0.0000
# 5 0.0000 0.0000 0.0000 0.0000 33.4951 0.0000
# 6 0.0000 0.0000 0.0000 0.0000 0.0000 -6.9250
#
#
#
# Elastic Compliance Matrix: (Units=1/GPa)
#
#
# Indices 1 2 3 4 5 6 
#
# 1 0.063040 -0.016230 -0.044113 0.000000 0.000000 0.000000
# 2 -0.016230 0.036639 0.015935 0.000000 0.000000 0.000000
# 3 -0.044113 0.015935 0.040343 0.000000 0.000000 0.000000
# 4 0.000000 0.000000 0.000000 0.045343 0.000000 0.000000
# 5 0.000000 0.000000 0.000000 0.000000 0.029855 0.000000
# 6 0.000000 0.000000 0.000000 0.000000 0.000000 -0.144404
#
#
# Mechanical properties :
#
#
# Convention : Reuss Voigt Hill
#
# Bulk Modulus (GPa) = 19.52896 36.34450 27.93673
# Shear Modulus (GPa) = 28.29622 20.22986 24.26304
#
# Velocity S-wave (km/s) = 3.67366 3.10621 3.40179
# Velocity P-wave (km/s) = 5.22577 5.49537 5.36226
#
# Compressibility (1/GPa) = 0.05120601
#
# Stress axis : x y z
#
# Youngs Moduli (GPa) = 15.86297 27.29298 24.78733
#
# Poissons Ratio (x) = 0.44296 1.09345
# Poissons Ratio (y) = 0.25745 -0.39498
# Poissons Ratio (z) = 0.69976 -0.43490
#
# Static dielectric constant tensor:
#      x y z
#    x 1.761690 0.000000 0.000000 
#    y 0.000000 1.782920 0.000000 
#    z 0.000000 0.000000 1.736450 
# 
# From -- ./inp_files/16563.got.cif
#   From: 2010.05.17/outbox.cif.g08.bks.cpg/sg44_9_cif.got.tgz:16563.got - 2010.06.03 19:37:08.
