data_PCOD9373100
_publ_section_title
;
Structure prediction by ZEFSAII (Michael W. Deem and Ramdas Pophale) SiO2 
 PCOD9373100
Probable space group: I M M 2
;
_chemical_formula_sum "Si O2"
_cell_formula_units_Z 52
_cell_length_a 14.075311
_cell_length_b 16.580362
_cell_length_c 9.192348
_cell_angle_alpha 90.000000
_cell_angle_beta 90.000000
_cell_angle_gamma 90.000000
_cell_volume 2145.252739
_symmetry_space_group_name_H-M "I M M 2"
_symmetry_group_IT_number 44
_symmetry_cell_setting 'orthorhombic'
loop_
_space_group_symop_operation_xyz
x,y,z
-x,-y,z
-x,y,z
x,-y,z
1/2+x,1/2+y,1/2+z
1/2-x,1/2-y,1/2+z
1/2-x,1/2+y,1/2+z
1/2+x,1/2-y,1/2+z
loop_
_atom_site_type_symbol
_atom_site_label
_atom_site_fract_x
_atom_site_fract_y
_atom_site_fract_z
Si Si1 0.611470 0.411797 0.587480
Si Si2 0.302480 0.000000 0.631773
Si Si3 0.610685 0.000000 0.330714
Si Si4 0.395065 0.149948 0.690131
Si Si5 0.389142 0.669512 0.306903
Si Si6 0.897566 0.000000 0.630093
Si Si7 0.685627 0.828613 0.378419
Si Si8 0.894770 0.188823 0.376377
O O1 0.500000 0.418322 0.544974
O O2 0.654771 0.500000 0.581486
O O3 0.651686 0.353421 0.465952
O O4 0.609438 0.376409 0.747320
O O5 0.318401 0.919077 0.720795
O O6 0.202081 0.000000 0.548459
O O7 0.381443 0.000000 0.506864
O O8 0.661668 0.913817 0.298580
O O9 0.500000 0.000000 0.285627
O O10 0.500000 0.115037 0.707638
O O11 0.380713 0.176038 0.521888
O O12 0.390384 0.225566 0.795873
O O13 0.500000 0.694656 0.311949
O O14 0.391529 0.583455 0.222052
O O15 0.333580 0.752508 0.272441
O O16 0.000000 0.000000 0.553586
O O17 0.792077 0.824179 0.446307
O O18 0.000000 0.182620 0.449382
#
# Coordination Sequence:
#
# PCOD9373100 Si02
#       8
#     8   4   4   8   8   4   8   8
#     4   9  16  29  50  73  99 128 159 203 258 306
#     4  10  18  32  50  74 104 136 177 214 255 301
#     4  10  22  38  55  75 101 134 178 222 248 289
#     4  10  19  35  56  77 103 135 176 221 255 296
#     4  10  17  30  52  77 104 131 165 214 263 304
#     4  10  20  30  47  79 111 134 165 212 267 322
#     4  11  20  33  54  79 104 136 176 216 259 304
#     4  10  21  34  52  79 107 135 170 215 261 311
#
# _framework density 24.239567999999998
#
# number of rings (size 3 to 8) (size 9 to 14) (size 15 to 20)
#    0.000    2.000    2.308    3.923    1.077    0.000 
#    0.000    3.077    0.000    2.769    0.000    0.000 
#    0.000    0.000    0.000    0.000    0.000    0.000 
#
# Total GULP energy -144984.708234 kJ/mol
# GULP energy per Si atom -5576.334932 kJ/mol
# Density = 2.418440 g / cm^3
# Si number density = 24.239568 Si / 1000 Ang^3
#
#
#
# Elastic Constant Matrix: (Units=GPa)
#
#
# Indices 1 2 3 4 5 6 
#
# 1 153.0957 36.9950 -2.6027 0.0000 0.0000 0.0000
# 2 36.9950 199.9466 17.8377 0.0000 0.0000 0.0000
# 3 -2.6027 17.8377 24.1061 0.0000 0.0000 0.0000
# 4 0.0000 0.0000 0.0000 26.6946 0.0000 0.0000
# 5 0.0000 0.0000 0.0000 0.0000 14.1203 0.0000
# 6 0.0000 0.0000 0.0000 0.0000 0.0000 -47.6029
#
#
#
# Elastic Compliance Matrix: (Units=1/GPa)
#
#
# Indices 1 2 3 4 5 6 
#
# 1 0.006911 -0.001440 0.001812 0.000000 0.000000 0.000000
# 2 -0.001440 0.005655 -0.004340 0.000000 0.000000 0.000000
# 3 0.001812 -0.004340 0.044890 0.000000 0.000000 0.000000
# 4 0.000000 0.000000 0.000000 0.037461 0.000000 0.000000
# 5 0.000000 0.000000 0.000000 0.000000 0.070820 0.000000
# 6 0.000000 0.000000 0.000000 0.000000 0.000000 -0.021007
#
#
# Mechanical properties :
#
#
# Convention : Reuss Voigt Hill
#
# Bulk Modulus (GPa) = 20.19419 53.51207 36.85313
# Shear Modulus (GPa) = 29.55559 20.30363 24.92961
#
# Velocity S-wave (km/s) = 3.49565 2.89731 3.21045
# Velocity P-wave (km/s) = 4.96407 5.77207 5.38325
#
# Compressibility (1/GPa) = 0.04951919
#
# Stress axis : x y z
#
# Youngs Moduli (GPa) = 144.70300 176.83436 22.27652
#
# Poissons Ratio (x) = 0.25469 -0.04036
# Poissons Ratio (y) = 0.20841 0.09668
# Poissons Ratio (z) = -0.26219 0.76746
#
# Static dielectric constant tensor:
#      x y z
#    x 1.961430 0.000000 0.000000 
#    y 0.000000 2.026660 0.000000 
#    z 0.000000 0.000000 1.924600 
# 
# From -- ./inp_files/13376.got.cif
#   From: 2010.05.17/outbox.cif.g08.bks.cpg/sg44_7_cif.got.tgz:13376.got - 2010.06.03 19:37:08.
