data_PCOD9373117
_publ_section_title
;
Structure prediction by ZEFSAII (Michael W. Deem and Ramdas Pophale) SiO2 
 PCOD9373117
Probable space group: I M M 2
;
_chemical_formula_sum "Si O2"
_cell_formula_units_Z 48
_cell_length_a 15.006375
_cell_length_b 18.613548
_cell_length_c 9.182712
_cell_angle_alpha 90.000000
_cell_angle_beta 90.000000
_cell_angle_gamma 90.000000
_cell_volume 2564.932392
_symmetry_space_group_name_H-M "I M M 2"
_symmetry_group_IT_number 44
_symmetry_cell_setting 'orthorhombic'
loop_
_space_group_symop_operation_xyz
x,y,z
-x,-y,z
-x,y,z
x,-y,z
1/2+x,1/2+y,1/2+z
1/2-x,1/2-y,1/2+z
1/2-x,1/2+y,1/2+z
1/2+x,1/2-y,1/2+z
loop_
_atom_site_type_symbol
_atom_site_label
_atom_site_fract_x
_atom_site_fract_y
_atom_site_fract_z
Si Si1 0.897987 0.364248 0.586360
Si Si2 0.405008 0.698878 0.616280
Si Si3 0.397054 0.364937 0.224879
Si Si4 0.645170 0.211717 0.372624
Si Si5 0.354403 0.288630 0.940211
Si Si6 0.283307 0.579335 0.479257
O O1 0.880658 0.351063 0.760266
O O2 0.883705 0.285680 0.514674
O O3 0.821941 0.411375 0.508394
O O4 0.000000 0.387620 0.566020
O O5 0.500000 0.668236 0.568139
O O6 0.392695 0.775522 0.535216
O O7 0.403224 0.704983 0.787897
O O8 0.328374 0.644010 0.568967
O O9 0.500000 0.389542 0.238148
O O10 0.388036 0.285187 0.295430
O O11 0.324218 0.409657 0.316913
O O12 0.373468 0.351582 0.056062
O O13 0.750668 0.213325 0.396896
O O14 0.310142 0.500000 0.529427
#
# Coordination Sequence:
#
# PCOD9373117 Si02
#       6
#     8   8   8   8   8   8
#     4  11  21  36  57  84 114 147 184 232 286 337
#     4  11  20  33  57  88 115 140 175 228 285 344
#     4  10  20  35  55  81 116 149 180 227 284 343
#     4  10  17  32  55  84 115 143 169 220 288 341
#     4  11  18  34  57  88 119 139 172 228 291 346
#     4  11  23  39  56  76 105 154 202 231 267 324
#
# _framework density 18.713943
#
# number of rings (size 3 to 8) (size 9 to 14) (size 15 to 20)
#    0.000    1.333    5.000    6.500    0.000    1.667 
#    0.000    0.833    0.000    2.000    0.000    0.000 
#    0.000    0.000    0.000    0.000    0.000    0.000 
#
# Total GULP energy -133656.227068 kJ/mol
# GULP energy per Si atom -5569.009461 kJ/mol
# Density = 1.867135 g / cm^3
# Si number density = 18.713943 Si / 1000 Ang^3
#
#
#
# Elastic Constant Matrix: (Units=GPa)
#
#
# Indices 1 2 3 4 5 6 
#
# 1 161.4730 8.8078 37.4282 0.0000 0.0000 0.0000
# 2 8.8078 34.5219 17.2941 0.0000 0.0000 0.0000
# 3 37.4282 17.2941 133.6074 0.0000 0.0000 0.0000
# 4 0.0000 0.0000 0.0000 6.3011 0.0000 0.0000
# 5 0.0000 0.0000 0.0000 0.0000 -16.3914 0.0000
# 6 0.0000 0.0000 0.0000 0.0000 0.0000 -3.2765
#
#
#
# Elastic Compliance Matrix: (Units=1/GPa)
#
#
# Indices 1 2 3 4 5 6 
#
# 1 0.006644 -0.000816 -0.001756 0.000000 0.000000 0.000000
# 2 -0.000816 0.031076 -0.003794 0.000000 0.000000 0.000000
# 3 -0.001756 -0.003794 0.008468 0.000000 0.000000 0.000000
# 4 0.000000 0.000000 0.000000 0.158702 0.000000 0.000000
# 5 0.000000 0.000000 0.000000 0.000000 -0.061008 0.000000
# 6 0.000000 0.000000 0.000000 0.000000 0.000000 -0.305205
#
#
# Mechanical properties :
#
#
# Convention : Reuss Voigt Hill
#
# Bulk Modulus (GPa) = 29.88904 50.74028 40.31466
# Shear Modulus (GPa) = -36.37974 15.06479 -10.65747
#
# Velocity S-wave (km/s) = -4.41385 2.84034 -2.38900
# Velocity P-wave (km/s) = 3.15752 6.15867 3.73893
#
# Compressibility (1/GPa) = 0.03345709
#
# Stress axis : x y z
#
# Youngs Moduli (GPa) = 150.50149 32.17930 118.09779
#
# Poissons Ratio (x) = 0.02625 0.20735
# Poissons Ratio (y) = 0.12276 0.44806
# Poissons Ratio (z) = 0.26425 0.12209
#
# Static dielectric constant tensor:
#      x y z
#    x 2.018370 0.000000 0.000000 
#    y 0.000000 1.621670 0.000000 
#    z 0.000000 0.000000 1.711920 
# 
# From -- ./inp_files/7101.got.cif
#   From: 2010.05.17/outbox.cif.g08.bks.cpg/sg44_4_cif.got.tgz:7101.got - 2010.06.03 19:37:08.
