data_PCOD9373711
_publ_section_title
;
Structure prediction by ZEFSAII (Michael W. Deem and Ramdas Pophale) SiO2 
 PCOD9373711
Probable space group: I M M 2
;
_chemical_formula_sum "Si O2"
_cell_formula_units_Z 56
_cell_length_a 14.328096
_cell_length_b 9.100340
_cell_length_c 26.648409
_cell_angle_alpha 90.000000
_cell_angle_beta 90.000000
_cell_angle_gamma 90.000000
_cell_volume 3474.700577
_symmetry_space_group_name_H-M "I M M 2"
_symmetry_group_IT_number 44
_symmetry_cell_setting 'orthorhombic'
loop_
_space_group_symop_operation_xyz
x,y,z
-x,-y,z
-x,y,z
x,-y,z
1/2+x,1/2+y,1/2+z
1/2-x,1/2-y,1/2+z
1/2-x,1/2+y,1/2+z
1/2+x,1/2-y,1/2+z
loop_
_atom_site_type_symbol
_atom_site_label
_atom_site_fract_x
_atom_site_fract_y
_atom_site_fract_z
Si Si1 0.888333 0.171067 0.352330
Si Si2 0.891497 0.675292 0.245963
Si Si3 0.220845 0.666786 0.440484
Si Si4 0.391497 0.824708 0.409260
Si Si5 0.389314 0.000000 0.018248
Si Si6 0.388333 0.671066 0.302893
Si Si7 0.110686 0.500000 0.636975
Si Si8 0.720845 0.833214 0.214740
O O1 0.868624 0.256985 0.300708
O O2 0.837781 0.246874 0.398874
O O3 0.000000 0.178310 0.359806
O O4 0.861425 0.000000 0.348166
O O5 0.881043 0.500000 0.247305
O O6 0.818048 0.749028 0.208477
O O7 0.000000 0.709698 0.235163
O O8 0.240096 0.500000 0.422109
O O9 0.318048 0.750972 0.446746
O O10 0.160023 0.637795 0.490398
O O11 0.500000 0.790300 0.420060
O O12 0.368623 0.756986 0.354515
O O13 0.381043 0.000000 0.407919
O O14 0.500000 0.000000 0.007997
O O15 0.374678 0.000000 0.077612
O O16 0.500000 0.678308 0.295418
O O17 0.361423 0.500000 0.307057
O O18 0.337782 0.746875 0.256350
O O19 0.160023 0.362204 0.664825
O O20 0.000000 0.500000 0.647226
O O21 0.740096 0.000000 0.233114
#
# Coordination Sequence:
#
# PCOD9373711 Si02
#       8
#     8   8   8   8   4   8   4   8
#     4  10  19  30  47  74 111 147 179 212 252 308
#     4  10  20  33  49  73 110 149 180 209 247 303
#     4  10  20  31  53  75 101 134 176 218 262 311
#     4  10  20  33  49  73 110 149 180 209 247 303
#     4   9  20  38  59  81 101 127 170 224 276 319
#     4  10  19  30  47  74 111 147 179 212 252 308
#     4   9  20  38  59  81 101 127 170 224 276 319
#     4  10  20  31  53  75 101 134 176 218 262 311
#
# _framework density 16.116496999999999
#
# number of rings (size 3 to 8) (size 9 to 14) (size 15 to 20)
#    0.857    1.286    0.000    4.286    0.000    2.857 
#    0.000    0.000    0.000    5.143    0.000   12.000 
#    0.000    0.000    0.000    0.000    0.000    0.000 
#
# Total GULP energy -156043.868253 kJ/mol
# GULP energy per Si atom -5572.995295 kJ/mol
# Density = 1.607981 g / cm^3
# Si number density = 16.116497 Si / 1000 Ang^3
#
#
#
# Elastic Constant Matrix: (Units=GPa)
#
#
# Indices 1 2 3 4 5 6 
#
# 1 106.1473 52.6677 72.8689 0.0000 0.0000 0.0000
# 2 52.6677 93.6797 35.9469 0.0000 0.0000 0.0000
# 3 72.8689 35.9469 73.6725 0.0000 0.0000 0.0000
# 4 0.0000 0.0000 0.0000 11.6810 0.0000 0.0000
# 5 0.0000 0.0000 0.0000 0.0000 23.0222 0.0000
# 6 0.0000 0.0000 0.0000 0.0000 0.0000 35.7826
#
#
#
# Elastic Compliance Matrix: (Units=1/GPa)
#
#
# Indices 1 2 3 4 5 6 
#
# 1 0.033083 -0.007436 -0.029094 0.000000 0.000000 0.000000
# 2 -0.007436 0.014805 0.000131 0.000000 0.000000 0.000000
# 3 -0.029094 0.000131 0.042286 0.000000 0.000000 0.000000
# 4 0.000000 0.000000 0.000000 0.085609 0.000000 0.000000
# 5 0.000000 0.000000 0.000000 0.000000 0.043436 0.000000
# 6 0.000000 0.000000 0.000000 0.000000 0.000000 0.027947
#
#
# Mechanical properties :
#
#
# Convention : Reuss Voigt Hill
#
# Bulk Modulus (GPa) = 57.54889 66.27406 61.91147
# Shear Modulus (GPa) = 15.34890 21.56489 18.45689
#
# Velocity S-wave (km/s) = 3.08940 3.66192 3.38778
# Velocity P-wave (km/s) = 6.96502 7.68705 7.33492
#
# Compressibility (1/GPa) = 0.01737653
#
# Stress axis : x y z
#
# Youngs Moduli (GPa) = 30.22707 67.54544 23.64825
#
# Poissons Ratio (x) = 0.50224 0.68802
# Poissons Ratio (y) = 0.22476 -0.00309
# Poissons Ratio (z) = 0.87943 -0.00883
#
# Static dielectric constant tensor:
#      x y z
#    x 1.584690 0.000000 0.000000 
#    y 0.000000 1.537400 0.000000 
#    z 0.000000 0.000000 1.502430 
# 
# From -- ./inp_files/27485.got.cif
#   From: 2010.05.17/outbox.cif.g08.bks.cpg/sg44_14_cif.got.tgz:27485.got - 2010.06.03 19:37:08.
