data_PCOD9373017
_publ_section_title
;
Structure prediction by ZEFSAII (Michael W. Deem and Ramdas Pophale) SiO2 
 PCOD9373017
Probable space group: I M M 2
;
_chemical_formula_sum "Si O2"
_cell_formula_units_Z 28
_cell_length_a 7.765536
_cell_length_b 19.077348
_cell_length_c 8.924707
_cell_angle_alpha 90.000000
_cell_angle_beta 90.000000
_cell_angle_gamma 90.000000
_cell_volume 1322.158150
_symmetry_space_group_name_H-M "I M M 2"
_symmetry_group_IT_number 44
_symmetry_cell_setting 'orthorhombic'
loop_
_space_group_symop_operation_xyz
x,y,z
-x,-y,z
-x,y,z
x,-y,z
1/2+x,1/2+y,1/2+z
1/2-x,1/2-y,1/2+z
1/2-x,1/2+y,1/2+z
1/2+x,1/2-y,1/2+z
loop_
_atom_site_type_symbol
_atom_site_label
_atom_site_fract_x
_atom_site_fract_y
_atom_site_fract_z
Si Si1 0.500000 0.500000 0.997020
Si Si2 0.793953 0.848317 0.265517
Si Si3 0.736100 0.000000 0.234766
Si Si4 0.000000 0.000000 0.971500
Si Si5 0.500000 0.377820 0.234353
Si Si6 0.797024 0.290877 0.096038
O O1 0.337315 0.500000 0.891260
O O2 0.500000 0.432311 0.098076
O O3 0.769250 0.790703 0.135982
O O4 0.752356 0.813119 0.426733
O O5 0.000000 0.866980 0.264345
O O6 0.681642 0.918188 0.240660
O O7 0.838435 0.000000 0.080111
O O8 0.000000 0.071353 0.876350
O O9 0.670627 0.331858 0.209694
O O10 0.000000 0.306032 0.119527
#
# Coordination Sequence:
#
# PCOD9373017 Si02
#       6
#     2   8   4   2   4   8
#     4  10  16  38  70  86 120 168 214 256 316 388
#     4  11  22  40  66  95 129 166 221 268 317 391
#     4  11  18  40  65  96 124 172 218 264 319 389
#     4  10  24  34  74  98 126 174 218 260 334 384
#     4  11  22  44  64  99 126 170 214 266 323 391
#     4  11  25  39  66  98 128 170 215 268 322 385
#
# _framework density 21.177498
#
# number of rings (size 3 to 8) (size 9 to 14) (size 15 to 20)
#    0.000    1.143    7.143    0.000    6.000    0.000 
#    0.000    6.429    0.000    1.714    0.000    0.000 
#    0.000    0.000    0.000    0.000    0.000    0.000 
#
# Total GULP energy -78024.876268 kJ/mol
# GULP energy per Si atom -5573.205448 kJ/mol
# Density = 2.112930 g / cm^3
# Si number density = 21.177498 Si / 1000 Ang^3
#
#
#
# Elastic Constant Matrix: (Units=GPa)
#
#
# Indices 1 2 3 4 5 6 
#
# 1 125.3032 62.9326 27.2297 -0.0002 0.0000 0.0001
# 2 62.9326 189.1698 59.5841 -0.0003 0.0000 0.0001
# 3 27.2297 59.5841 108.7994 -0.0015 -0.0002 0.0005
# 4 -0.0002 -0.0003 -0.0015 31.1960 -0.0001 0.0001
# 5 0.0000 0.0000 -0.0002 -0.0001 6.8488 0.0000
# 6 0.0001 0.0001 0.0005 0.0001 0.0000 28.6953
#
#
#
# Elastic Compliance Matrix: (Units=1/GPa)
#
#
# Indices 1 2 3 4 5 6 
#
# 1 0.009638 -0.002957 -0.000793 0.000000 0.000000 0.000000
# 2 -0.002957 0.007295 -0.003255 0.000000 0.000000 0.000000
# 3 -0.000793 -0.003255 0.011172 0.000000 0.000000 0.000000
# 4 0.000000 0.000000 0.000000 0.032055 0.000000 0.000000
# 5 0.000000 0.000000 0.000000 0.000000 0.146011 0.000000
# 6 0.000000 0.000000 0.000000 0.000000 0.000000 0.034849
#
#
# Mechanical properties :
#
#
# Convention : Reuss Voigt Hill
#
# Bulk Modulus (GPa) = 70.94240 80.30725 75.62483
# Shear Modulus (GPa) = 19.25083 31.58308 25.41696
#
# Velocity S-wave (km/s) = 3.01827 3.86599 3.46813
# Velocity P-wave (km/s) = 6.76153 7.61125 7.19894
#
# Compressibility (1/GPa) = 0.01409594
#
# Stress axis : x y z
#
# Youngs Moduli (GPa) = 103.75743 137.07717 89.50601
#
# Poissons Ratio (x) = 0.40527 0.07097
# Poissons Ratio (y) = 0.30676 0.29137
# Poissons Ratio (z) = 0.08228 0.44622
#
# Static dielectric constant tensor:
#      x y z
#    x 1.807760 0.000000 0.000000 
#    y 0.000000 1.822270 0.000000 
#    z 0.000000 0.000000 1.736070 
# 
# From -- ./inp_files/4204.got.cif
#   From: 2010.05.17/outbox.cif.g08.bks.cpg/sg44_3_cif.got.tgz:4204.got - 2010.06.03 19:37:08.
