data_PCOD9373279
_publ_section_title
;
Structure prediction by ZEFSAII (Michael W. Deem and Ramdas Pophale) SiO2 
 PCOD9373279
Probable space group: I M M 2
;
_chemical_formula_sum "Si O2"
_cell_formula_units_Z 48
_cell_length_a 8.260381
_cell_length_b 15.045701
_cell_length_c 18.679917
_cell_angle_alpha 90.000000
_cell_angle_beta 90.000000
_cell_angle_gamma 90.000000
_cell_volume 2321.600284
_symmetry_space_group_name_H-M "I M M 2"
_symmetry_group_IT_number 44
_symmetry_cell_setting 'orthorhombic'
loop_
_space_group_symop_operation_xyz
x,y,z
-x,-y,z
-x,y,z
x,-y,z
1/2+x,1/2+y,1/2+z
1/2-x,1/2-y,1/2+z
1/2-x,1/2+y,1/2+z
1/2+x,1/2-y,1/2+z
loop_
_atom_site_type_symbol
_atom_site_label
_atom_site_fract_x
_atom_site_fract_y
_atom_site_fract_z
Si Si1 0.306377 0.404662 0.782300
Si Si2 0.807846 0.213319 0.835888
Si Si3 0.688933 0.831494 0.141304
Si Si4 0.314468 0.853681 0.691513
Si Si5 0.196124 0.207438 0.993306
Si Si6 0.302344 0.905154 0.539168
O O1 0.500000 0.402009 0.776758
O O2 0.258988 0.500000 0.815778
O O3 0.253046 0.313912 0.820912
O O4 0.230883 0.401143 0.702602
O O5 0.763473 0.150132 0.769466
O O6 0.000000 0.219892 0.838559
O O7 0.751155 0.181302 0.913668
O O8 0.500000 0.806984 0.147733
O O9 0.799727 0.747860 0.163906
O O10 0.730375 0.848316 0.058784
O O11 0.500000 0.880246 0.700171
O O12 0.246230 0.903564 0.622259
O O13 0.246159 0.311548 0.004315
O O14 0.000000 0.202919 0.998389
O O15 0.500000 0.903395 0.539859
O O16 0.251851 0.000000 0.506699
#
# Coordination Sequence:
#
# PCOD9373279 Si02
#       6
#     8   8   8   8   8   8
#     4  10  20  33  49  69  96 128 157 190 236 286
#     4  10  19  30  47  70  95 123 156 193 229 272
#     4  10  18  29  48  69  90 119 157 197 230 270
#     4   9  16  28  46  65  89 120 154 190 227 272
#     4   9  18  31  47  68  94 123 153 188 232 278
#     4   8  14  26  45  67  88 113 147 184 222 266
#
# _framework density 20.675395000000002
#
# number of rings (size 3 to 8) (size 9 to 14) (size 15 to 20)
#    0.000    2.667    0.000    6.000    0.000    3.333 
#    0.000    1.667    0.000   13.500    0.000    4.667 
#    0.000    0.000    0.000    0.000    0.000    0.000 
#
# Total GULP energy -133661.734560 kJ/mol
# GULP energy per Si atom -5569.238940 kJ/mol
# Density = 2.062834 g / cm^3
# Si number density = 20.675395 Si / 1000 Ang^3
#
#
#
# Elastic Constant Matrix: (Units=GPa)
#
#
# Indices 1 2 3 4 5 6 
#
# 1 36.0870 -7.5946 12.0039 0.0000 0.0000 0.0000
# 2 -7.5946 15.9632 -21.5513 0.0000 0.0000 0.0000
# 3 12.0039 -21.5513 115.8553 0.0000 0.0000 0.0000
# 4 0.0000 0.0000 0.0000 9.4261 0.0000 0.0000
# 5 0.0000 0.0000 0.0000 0.0000 25.0627 0.0000
# 6 0.0000 0.0000 0.0000 0.0000 0.0000 -79.8836
#
#
#
# Elastic Compliance Matrix: (Units=1/GPa)
#
#
# Indices 1 2 3 4 5 6 
#
# 1 0.030828 0.013827 -0.000622 0.000000 0.000000 0.000000
# 2 0.013827 0.089854 0.015282 0.000000 0.000000 0.000000
# 3 -0.000622 0.015282 0.011539 0.000000 0.000000 0.000000
# 4 0.000000 0.000000 0.000000 0.106088 0.000000 0.000000
# 5 0.000000 0.000000 0.000000 0.000000 0.039900 0.000000
# 6 0.000000 0.000000 0.000000 0.000000 0.000000 -0.012518
#
#
# Mechanical properties :
#
#
# Convention : Reuss Voigt Hill
#
# Bulk Modulus (GPa) = 5.28562 14.84684 10.06623
# Shear Modulus (GPa) = 18.39718 3.25756 10.82737
#
# Velocity S-wave (km/s) = 2.98621 1.25658 2.29090
# Velocity P-wave (km/s) = 3.80157 3.04989 3.44628
#
# Compressibility (1/GPa) = 0.18919261
#
# Stress axis : x y z
#
# Youngs Moduli (GPa) = 32.43845 11.12922 86.66542
#
# Poissons Ratio (x) = -0.15388 0.05391
# Poissons Ratio (y) = -0.44851 -1.32441
# Poissons Ratio (z) = 0.02018 -0.17008
#
# Static dielectric constant tensor:
#      x y z
#    x 1.714190 0.000000 0.000000 
#    y 0.000000 1.769580 0.000000 
#    z 0.000000 0.000000 1.799370 
# 
# From -- ./inp_files/20322.got.cif
#   From: 2010.05.17/outbox.cif.g08.bks.cpg/sg44_11_cif.got.tgz:20322.got - 2010.06.03 19:37:08.
