data_PCOD9373394
_publ_section_title
;
Structure prediction by ZEFSAII (Michael W. Deem and Ramdas Pophale) SiO2 
 PCOD9373394
Probable space group: I M M 2
;
_chemical_formula_sum "Si O2"
_cell_formula_units_Z 56
_cell_length_a 7.688382
_cell_length_b 19.614062
_cell_length_c 18.602613
_cell_angle_alpha 90.000000
_cell_angle_beta 90.000000
_cell_angle_gamma 90.000000
_cell_volume 2805.281504
_symmetry_space_group_name_H-M "I M M 2"
_symmetry_group_IT_number 44
_symmetry_cell_setting 'orthorhombic'
loop_
_space_group_symop_operation_xyz
x,y,z
-x,-y,z
-x,y,z
x,-y,z
1/2+x,1/2+y,1/2+z
1/2-x,1/2-y,1/2+z
1/2-x,1/2+y,1/2+z
1/2+x,1/2-y,1/2+z
loop_
_atom_site_type_symbol
_atom_site_label
_atom_site_fract_x
_atom_site_fract_y
_atom_site_fract_z
Si Si1 0.695020 0.350173 0.109790
Si Si2 0.797642 0.221962 0.027623
Si Si3 0.212257 0.710552 0.881628
Si Si4 0.209409 0.426492 0.525134
Si Si5 0.199697 0.197307 0.758669
Si Si6 0.794113 0.423446 0.965211
Si Si7 0.709393 0.075150 0.856501
O O1 0.500000 0.376343 0.122987
O O2 0.692868 0.275736 0.073734
O O3 0.782638 0.334143 0.186509
O O4 0.772726 0.398222 0.047736
O O5 0.000000 0.241904 0.032071
O O6 0.743070 0.235172 0.944785
O O7 0.777200 0.144970 0.053782
O O8 0.274842 0.739348 0.804806
O O9 0.000000 0.708969 0.877379
O O10 0.272513 0.637204 0.912625
O O11 0.268884 0.500000 0.554594
O O12 0.255733 0.425071 0.440605
O O13 0.000000 0.425126 0.529976
O O14 0.200618 0.135227 0.814488
O O15 0.000000 0.215608 0.739547
O O16 0.722289 0.500000 0.955556
O O17 0.000000 0.426699 0.951529
O O18 0.500000 0.083740 0.852006
O O19 0.752478 0.000000 0.827311
#
# Coordination Sequence:
#
# PCOD9373394 Si02
#       7
#     8   8   8   8   8   8   8
#     4  10  21  33  48  70 100 134 165 202 251 304
#     4  10  18  31  51  71  94 125 165 209 246 289
#     4   8  15  29  49  71  92 119 161 207 246 285
#     4   9  17  29  46  70  99 127 156 194 241 289
#     4  10  19  32  48  69  98 132 167 206 245 290
#     4   9  18  34  55  76  98 126 164 212 259 304
#     4   9  18  30  44  67  99 130 158 191 232 281
#
# _framework density 19.962347000000001
#
# number of rings (size 3 to 8) (size 9 to 14) (size 15 to 20)
#    0.000    2.714    1.429    2.571    0.000    2.571 
#    0.000    4.286    0.000    0.857    0.000    4.000 
#    0.000    0.000    0.000    0.000    0.000    0.000 
#
# Total GULP energy -155896.711585 kJ/mol
# GULP energy per Si atom -5567.739699 kJ/mol
# Density = 1.991691 g / cm^3
# Si number density = 19.962347 Si / 1000 Ang^3
#
#
#
# Elastic Constant Matrix: (Units=GPa)
#
#
# Indices 1 2 3 4 5 6 
#
# 1 32.9130 -0.1556 -1.1619 0.0000 0.0000 0.0000
# 2 -0.1556 126.9820 9.9770 0.0000 0.0000 0.0000
# 3 -1.1619 9.9770 38.5719 0.0000 0.0000 0.0000
# 4 0.0000 0.0000 0.0000 10.4115 0.0000 0.0000
# 5 0.0000 0.0000 0.0000 0.0000 6.8962 0.0000
# 6 0.0000 0.0000 0.0000 0.0000 0.0000 7.5440
#
#
#
# Elastic Compliance Matrix: (Units=1/GPa)
#
#
# Indices 1 2 3 4 5 6 
#
# 1 0.030416 -0.000035 0.000925 0.000000 0.000000 0.000000
# 2 -0.000035 0.008039 -0.002080 0.000000 0.000000 0.000000
# 3 0.000925 -0.002080 0.026492 0.000000 0.000000 0.000000
# 4 0.000000 0.000000 0.000000 0.096048 0.000000 0.000000
# 5 0.000000 0.000000 0.000000 0.000000 0.145008 0.000000
# 6 0.000000 0.000000 0.000000 0.000000 0.000000 0.132556
#
#
# Mechanical properties :
#
#
# Convention : Reuss Voigt Hill
#
# Bulk Modulus (GPa) = 15.98341 23.97624 19.97982
# Shear Modulus (GPa) = 10.82734 17.62415 14.22575
#
# Velocity S-wave (km/s) = 2.33145 2.97454 2.67241
# Velocity P-wave (km/s) = 3.90790 4.88200 4.42186
#
# Compressibility (1/GPa) = 0.06256488
#
# Stress axis : x y z
#
# Youngs Moduli (GPa) = 32.87786 124.40075 37.74787
#
# Poissons Ratio (x) = 0.00441 -0.03493
# Poissons Ratio (y) = 0.00117 0.07853
# Poissons Ratio (z) = -0.03042 0.25879
#
# Static dielectric constant tensor:
#      x y z
#    x 1.776860 0.000000 0.000000 
#    y 0.000000 1.737280 0.000000 
#    z 0.000000 0.000000 1.722760 
# 
# From -- ./inp_files/20642.got.cif
#   From: 2010.05.17/outbox.cif.g08.bks.cpg/sg44_11_cif.got.tgz:20642.got - 2010.06.03 19:37:08.
