data_PCOD9373815
_publ_section_title
;
Structure prediction by ZEFSAII (Michael W. Deem and Ramdas Pophale) SiO2 
 PCOD9373815
Probable space group: I M M 2
;
_chemical_formula_sum "Si O2"
_cell_formula_units_Z 64
_cell_length_a 14.871252
_cell_length_b 8.887548
_cell_length_c 28.372092
_cell_angle_alpha 90.000000
_cell_angle_beta 90.000000
_cell_angle_gamma 90.000000
_cell_volume 3749.910062
_symmetry_space_group_name_H-M "I M M 2"
_symmetry_group_IT_number 44
_symmetry_cell_setting 'orthorhombic'
loop_
_space_group_symop_operation_xyz
x,y,z
-x,-y,z
-x,y,z
x,-y,z
1/2+x,1/2+y,1/2+z
1/2-x,1/2-y,1/2+z
1/2-x,1/2+y,1/2+z
1/2+x,1/2-y,1/2+z
loop_
_atom_site_type_symbol
_atom_site_label
_atom_site_fract_x
_atom_site_fract_y
_atom_site_fract_z
Si Si1 0.713036 0.679663 0.851610
Si Si2 0.901208 0.817913 0.881330
Si Si3 0.596886 0.680787 0.040349
Si Si4 0.648414 0.170305 0.945196
Si Si5 0.147434 0.169920 0.983657
Si Si6 0.207669 0.679880 0.076258
Si Si7 0.894205 0.320294 0.265582
Si Si8 0.105451 0.179288 0.163732
O O1 0.713895 0.500000 0.852404
O O2 0.814856 0.741878 0.857736
O O3 0.656029 0.742206 0.896175
O O4 0.667342 0.742295 0.804566
O O5 0.901909 0.774303 0.936796
O O6 0.000000 0.782979 0.861109
O O7 0.889006 0.000000 0.880308
O O8 0.500000 0.723373 0.061984
O O9 0.601011 0.500000 0.037614
O O10 0.688394 0.728530 0.066727
O O11 0.599253 0.745485 0.987475
O O12 0.750317 0.161188 0.964764
O O13 0.615449 0.000000 0.938028
O O14 0.117115 0.000000 0.995384
O O15 0.150986 0.269912 0.030167
O O16 0.205342 0.500000 0.080784
O O17 0.166225 0.756451 0.122046
O O18 0.881897 0.500000 0.266890
O O19 0.873859 0.257455 0.213571
O O20 0.000000 0.288150 0.274955
O O21 0.000000 0.209829 0.153177
O O22 0.116525 0.000000 0.167912
#
# Coordination Sequence:
#
# PCOD9373815 Si02
#       8
#     8   8   8   8   8   8   8   8
#     4  11  21  33  52  77 106 138 171 209 254 306
#     4   9  18  33  52  74 104 142 180 216 254 297
#     4   9  18  32  49  72 104 139 173 210 252 296
#     4   9  17  30  47  68  96 131 172 212 248 290
#     4   8  15  28  45  67  96 130 168 208 247 287
#     4  10  19  31  50  75 102 134 170 207 248 298
#     4  10  21  38  59  80 101 126 161 207 257 310
#     4  10  21  37  56  77 101 128 159 201 256 311
#
# _framework density 17.067076
#
# number of rings (size 3 to 8) (size 9 to 14) (size 15 to 20)
#    0.000    2.500    0.000    3.375    0.000    6.500 
#    0.000    1.250    0.000    0.750    0.000    1.750 
#    0.000    0.000    0.000    0.000    0.000    0.000 
#
# Total GULP energy -178384.074123 kJ/mol
# GULP energy per Si atom -5574.502316 kJ/mol
# Density = 1.702823 g / cm^3
# Si number density = 17.067076 Si / 1000 Ang^3
#
#
#
# Elastic Constant Matrix: (Units=GPa)
#
#
# Indices 1 2 3 4 5 6 
#
# 1 97.6292 44.8454 70.5476 0.0000 0.0000 0.0000
# 2 44.8454 70.5800 59.0699 0.0000 0.0000 0.0000
# 3 70.5476 59.0699 122.0182 0.0000 0.0000 0.0000
# 4 0.0000 0.0000 0.0000 31.7359 0.0000 0.0000
# 5 0.0000 0.0000 0.0000 0.0000 23.1081 0.0000
# 6 0.0000 0.0000 0.0000 0.0000 0.0000 17.8096
#
#
#
# Elastic Compliance Matrix: (Units=1/GPa)
#
#
# Indices 1 2 3 4 5 6 
#
# 1 0.018478 -0.004706 -0.008405 0.000000 0.000000 0.000000
# 2 -0.004706 0.025017 -0.009390 0.000000 0.000000 0.000000
# 3 -0.008405 -0.009390 0.017601 0.000000 0.000000 0.000000
# 4 0.000000 0.000000 0.000000 0.031510 0.000000 0.000000
# 5 0.000000 0.000000 0.000000 0.000000 0.043275 0.000000
# 6 0.000000 0.000000 0.000000 0.000000 0.000000 0.056150
#
#
# Mechanical properties :
#
#
# Convention : Reuss Voigt Hill
#
# Bulk Modulus (GPa) = 62.13710 71.01704 66.57707
# Shear Modulus (GPa) = 20.62714 22.24835 21.43774
#
# Velocity S-wave (km/s) = 3.48025 3.61443 3.54798
# Velocity P-wave (km/s) = 7.25508 7.68893 7.47516
#
# Compressibility (1/GPa) = 0.01609344
#
# Stress axis : x y z
#
# Youngs Moduli (GPa) = 54.11721 39.97228 56.81469
#
# Poissons Ratio (x) = 0.18812 0.47755
# Poissons Ratio (y) = 0.25469 0.53349
# Poissons Ratio (z) = 0.45488 0.37534
#
# Static dielectric constant tensor:
#      x y z
#    x 1.617190 0.000000 0.000000 
#    y 0.000000 1.575560 0.000000 
#    z 0.000000 0.000000 1.544720 
# 
# From -- ./inp_files/25788.got.cif
#   From: 2010.05.17/outbox.cif.g08.bks.cpg/sg44_13_cif.got.tgz:25788.got - 2010.06.03 19:37:08.
