data_PCOD9373812
_publ_section_title
;
Structure prediction by ZEFSAII (Michael W. Deem and Ramdas Pophale) SiO2 
 PCOD9373812
Probable space group: I M M 2
;
_chemical_formula_sum "Si O2"
_cell_formula_units_Z 64
_cell_length_a 9.443714
_cell_length_b 15.762908
_cell_length_c 23.576650
_cell_angle_alpha 90.000000
_cell_angle_beta 90.000000
_cell_angle_gamma 90.000000
_cell_volume 3509.629431
_symmetry_space_group_name_H-M "I M M 2"
_symmetry_group_IT_number 44
_symmetry_cell_setting 'orthorhombic'
loop_
_space_group_symop_operation_xyz
x,y,z
-x,-y,z
-x,y,z
x,-y,z
1/2+x,1/2+y,1/2+z
1/2-x,1/2-y,1/2+z
1/2-x,1/2+y,1/2+z
1/2+x,1/2-y,1/2+z
loop_
_atom_site_type_symbol
_atom_site_label
_atom_site_fract_x
_atom_site_fract_y
_atom_site_fract_z
Si Si1 0.170912 0.400176 0.588990
Si Si2 0.668709 0.224761 0.422469
Si Si3 0.838575 0.173247 0.315258
Si Si4 0.327860 0.903209 0.642273
Si Si5 0.843744 0.600406 0.717466
Si Si6 0.330571 0.590104 0.381882
Si Si7 0.163143 0.366570 0.271689
Si Si8 0.170353 0.737276 0.049998
O O1 0.209722 0.500000 0.579532
O O2 0.203851 0.374751 0.654495
O O3 0.252386 0.328149 0.554323
O O4 0.000000 0.394921 0.582138
O O5 0.500000 0.216941 0.412130
O O6 0.753665 0.175804 0.374059
O O7 0.709158 0.324278 0.414542
O O8 0.697111 0.200291 0.487197
O O9 0.761243 0.119015 0.267890
O O10 0.837073 0.267477 0.287905
O O11 0.000000 0.147702 0.324567
O O12 0.500000 0.902397 0.640959
O O13 0.287656 0.882223 0.707382
O O14 0.282924 0.830183 0.598096
O O15 0.283009 0.000000 0.628458
O O16 0.858825 0.500000 0.713127
O O17 0.000000 0.638089 0.729065
O O18 0.500000 0.592175 0.376008
O O19 0.290770 0.500000 0.409620
O O20 0.259869 0.593265 0.320072
O O21 0.000000 0.396724 0.276028
O O22 0.000000 0.750296 0.055237
#
# Coordination Sequence:
#
# PCOD9373812 Si02
#       8
#     8   8   8   8   8   8   8   8
#     4   9  19  35  54  78 108 139 168 204 260 325
#     4   9  19  34  49  67  96 133 170 206 247 299
#     4  10  19  31  50  75 100 126 162 209 255 299
#     4   9  17  30  49  73 100 128 161 205 253 297
#     4   9  18  33  52  74 101 132 164 199 249 317
#     4   9  17  29  45  66  93 123 154 191 236 287
#     4   9  17  29  47  71  97 124 152 188 242 301
#     4  10  20  34  53  75  99 134 180 222 256 295
#
# _framework density 18.235543
#
# number of rings (size 3 to 8) (size 9 to 14) (size 15 to 20)
#    0.000    2.750    0.000    2.250    0.000    4.250 
#    0.000    3.750    0.000    3.375    0.000    0.000 
#    0.000    0.000    0.000    0.000    0.000    0.000 
#
# Total GULP energy -178240.546067 kJ/mol
# GULP energy per Si atom -5570.017065 kJ/mol
# Density = 1.819404 g / cm^3
# Si number density = 18.235543 Si / 1000 Ang^3
#
#
#
# Elastic Constant Matrix: (Units=GPa)
#
#
# Indices 1 2 3 4 5 6 
#
# 1 22.6212 3.4720 29.7209 0.0000 0.0000 0.0000
# 2 3.4720 24.3787 23.7891 0.0000 0.0000 0.0000
# 3 29.7209 23.7891 83.5419 0.0000 0.0000 0.0000
# 4 0.0000 0.0000 0.0000 14.0220 0.0000 0.0000
# 5 0.0000 0.0000 0.0000 0.0000 19.0396 0.0000
# 6 0.0000 0.0000 0.0000 0.0000 0.0000 17.5614
#
#
#
# Elastic Compliance Matrix: (Units=1/GPa)
#
#
# Indices 1 2 3 4 5 6 
#
# 1 0.094051 0.026665 -0.041053 0.000000 0.000000 0.000000
# 2 0.026665 0.064363 -0.027814 0.000000 0.000000 0.000000
# 3 -0.041053 -0.027814 0.034495 0.000000 0.000000 0.000000
# 4 0.000000 0.000000 0.000000 0.071316 0.000000 0.000000
# 5 0.000000 0.000000 0.000000 0.000000 0.052522 0.000000
# 6 0.000000 0.000000 0.000000 0.000000 0.000000 0.056943
#
#
# Mechanical properties :
#
#
# Convention : Reuss Voigt Hill
#
# Bulk Modulus (GPa) = 9.21608 27.16730 18.19169
# Shear Modulus (GPa) = 10.11607 15.02861 12.57234
#
# Velocity S-wave (km/s) = 2.35786 2.87390 2.62857
# Velocity P-wave (km/s) = 3.53236 5.09340 4.38294
#
# Compressibility (1/GPa) = 0.10850595
#
# Stress axis : x y z
#
# Youngs Moduli (GPa) = 10.63255 15.53679 28.98951
#
# Poissons Ratio (x) = -0.41429 1.19010
# Poissons Ratio (y) = -0.28352 0.80632
# Poissons Ratio (z) = 0.43649 0.43215
#
# Static dielectric constant tensor:
#      x y z
#    x 1.625700 0.000000 0.000000 
#    y 0.000000 1.667030 0.000000 
#    z 0.000000 0.000000 1.620450 
# 
# From -- ./inp_files/23276.got.cif
#   From: 2010.05.17/outbox.cif.g08.bks.cpg/sg44_12_cif.got.tgz:23276.got - 2010.06.03 19:37:08.
