data_PCOD9373247
_publ_section_title
;
Structure prediction by ZEFSAII (Michael W. Deem and Ramdas Pophale) SiO2 
 PCOD9373247
Probable space group: I M M 2
;
_chemical_formula_sum "Si O2"
_cell_formula_units_Z 56
_cell_length_a 30.364046
_cell_length_b 7.655487
_cell_length_c 14.272654
_cell_angle_alpha 90.000000
_cell_angle_beta 90.000000
_cell_angle_gamma 90.000000
_cell_volume 3317.700679
_symmetry_space_group_name_H-M "I M M 2"
_symmetry_group_IT_number 44
_symmetry_cell_setting 'orthorhombic'
loop_
_space_group_symop_operation_xyz
x,y,z
-x,-y,z
-x,y,z
x,-y,z
1/2+x,1/2+y,1/2+z
1/2-x,1/2-y,1/2+z
1/2-x,1/2+y,1/2+z
1/2+x,1/2-y,1/2+z
loop_
_atom_site_type_symbol
_atom_site_label
_atom_site_fract_x
_atom_site_fract_y
_atom_site_fract_z
Si Si1 0.000000 0.201663 0.442580
Si Si2 0.822387 0.202530 0.324654
Si Si3 0.500000 0.701842 0.170224
Si Si4 0.237659 0.796576 0.941311
Si Si5 0.095450 0.210171 0.661744
Si Si6 0.316292 0.792714 0.268191
Si Si7 0.731516 0.285995 0.652008
Si Si8 0.596724 0.284675 0.946364
O O1 0.952248 0.275344 0.416394
O O2 0.000000 0.199944 0.556367
O O3 0.000000 0.000000 0.410969
O O4 0.779911 0.209296 0.392768
O O5 0.805279 0.277132 0.225832
O O6 0.864388 0.277442 0.378754
O O7 0.833118 0.000000 0.307121
O O8 0.500000 0.500000 0.202937
O O9 0.547638 0.779109 0.195021
O O10 0.197316 0.780624 0.869121
O O11 0.249390 0.000000 0.950377
O O12 0.227404 0.728646 0.044967
O O13 0.135827 0.251642 0.728854
O O14 0.104343 0.269349 0.554639
O O15 0.091357 0.000000 0.656734
O O16 0.278769 0.732145 0.194701
O O17 0.311772 0.000000 0.275632
O O18 0.730088 0.500000 0.653279
O O19 0.596488 0.500000 0.946748
#
# Coordination Sequence:
#
# PCOD9373247 Si02
#       8
#     4   8   4   8   8   8   8   8
#     4   7  10  18  32  57  86 109 132 162 195 231
#     4   9  16  27  41  60  82 105 131 165 205 238
#     4   7  12  22  37  57  84 109 132 162 195 229
#     4  10  18  29  42  56  75 105 138 165 194 240
#     4   9  15  25  41  62  84 110 138 163 192 235
#     4  10  19  30  42  60  83 106 131 166 205 238
#     4   8  16  28  40  54  78 106 131 161 202 238
#     4   8  13  21  38  61  86 111 136 163 195 235
#
# _framework density 16.879159999999999
#
# number of rings (size 3 to 8) (size 9 to 14) (size 15 to 20)
#    0.000    3.286    0.000    4.286    0.000    0.000 
#    0.000    6.786    0.000    0.000    0.000    2.500 
#    0.000    5.714    0.000    0.000    0.000    0.000 
#
# Total GULP energy -155885.857392 kJ/mol
# GULP energy per Si atom -5567.352050 kJ/mol
# Density = 1.684074 g / cm^3
# Si number density = 16.879160 Si / 1000 Ang^3
#
#
#
# Elastic Constant Matrix: (Units=GPa)
#
#
# Indices 1 2 3 4 5 6 
#
# 1 138.4737 -5.3905 67.1037 0.0000 0.0000 0.0000
# 2 -5.3905 30.1857 -1.2417 0.0000 0.0000 0.0000
# 3 67.1037 -1.2417 120.5746 0.0000 0.0000 0.0000
# 4 0.0000 0.0000 0.0000 4.7200 0.0000 0.0000
# 5 0.0000 0.0000 0.0000 0.0000 26.8250 0.0000
# 6 0.0000 0.0000 0.0000 0.0000 0.0000 5.9903
#
#
#
# Elastic Compliance Matrix: (Units=1/GPa)
#
#
# Indices 1 2 3 4 5 6 
#
# 1 0.009961 0.001551 -0.005527 0.000000 0.000000 0.000000
# 2 0.001551 0.033384 -0.000520 0.000000 0.000000 0.000000
# 3 -0.005527 -0.000520 0.011364 0.000000 0.000000 0.000000
# 4 0.000000 0.000000 0.000000 0.211866 0.000000 0.000000
# 5 0.000000 0.000000 0.000000 0.000000 0.037279 0.000000
# 6 0.000000 0.000000 0.000000 0.000000 0.000000 0.166936
#
#
# Mechanical properties :
#
#
# Convention : Reuss Voigt Hill
#
# Bulk Modulus (GPa) = 21.87335 45.57520 33.72428
# Shear Modulus (GPa) = 10.10061 22.75790 16.42925
#
# Velocity S-wave (km/s) = 2.44889 3.67588 3.12323
# Velocity P-wave (km/s) = 4.58072 6.71384 5.74711
#
# Compressibility (1/GPa) = 0.04571773
#
# Stress axis : x y z
#
# Youngs Moduli (GPa) = 100.39631 29.95450 87.99376
#
# Poissons Ratio (x) = -0.04647 0.48638
# Poissons Ratio (y) = -0.15575 0.04572
# Poissons Ratio (z) = 0.55493 0.01556
#
# Static dielectric constant tensor:
#      x y z
#    x 1.599690 0.000000 0.000000 
#    y 0.000000 1.652040 0.000000 
#    z 0.000000 0.000000 1.558350 
# 
# From -- ./inp_files/19668.got.cif
#   From: 2010.05.17/outbox.cif.g08.bks.cpg/sg44_10_cif.got.tgz:19668.got - 2010.06.03 19:37:08.
