data_PCOD9373030
_publ_section_title
;
Structure prediction by ZEFSAII (Michael W. Deem and Ramdas Pophale) SiO2 
 PCOD9373030
Probable space group: I M M 2
;
_chemical_formula_sum "Si O2"
_cell_formula_units_Z 64
_cell_length_a 8.837948
_cell_length_b 27.103482
_cell_length_c 18.902456
_cell_angle_alpha 90.000000
_cell_angle_beta 90.000000
_cell_angle_gamma 90.000000
_cell_volume 4527.878518
_symmetry_space_group_name_H-M "I M M 2"
_symmetry_group_IT_number 44
_symmetry_cell_setting 'orthorhombic'
loop_
_space_group_symop_operation_xyz
x,y,z
-x,-y,z
-x,y,z
x,-y,z
1/2+x,1/2+y,1/2+z
1/2-x,1/2-y,1/2+z
1/2-x,1/2+y,1/2+z
1/2+x,1/2-y,1/2+z
loop_
_atom_site_type_symbol
_atom_site_label
_atom_site_fract_x
_atom_site_fract_y
_atom_site_fract_z
Si Si1 0.181019 0.348095 0.933240
Si Si2 0.682396 0.744870 0.850029
Si Si3 0.179109 0.149495 0.112113
Si Si4 0.681847 0.057279 0.187705
Si Si5 0.174171 0.696077 0.482084
Si Si6 0.317460 0.757406 0.194852
Si Si7 0.674056 0.698107 0.062715
Si Si8 0.816076 0.555348 0.851582
O O1 0.255011 0.305245 0.885440
O O2 0.232191 0.400920 0.903120
O O3 0.000000 0.344447 0.926818
O O4 0.229296 0.337960 0.013963
O O5 0.500000 0.742590 0.848352
O O6 0.724784 0.789822 0.903034
O O7 0.750162 0.749707 0.772294
O O8 0.237303 0.096776 0.138593
O O9 0.256890 0.191708 0.160701
O O10 0.000000 0.153599 0.119541
O O11 0.227745 0.160837 0.031406
O O12 0.500000 0.063570 0.182658
O O13 0.725458 0.065987 0.269973
O O14 0.715967 0.000000 0.171437
O O15 0.174898 0.749185 0.521854
O O16 0.000000 0.678844 0.481050
O O17 0.500000 0.759749 0.196648
O O18 0.273892 0.713094 0.141109
O O19 0.500000 0.681186 0.065010
O O20 0.763792 0.500000 0.869828
O O21 0.000000 0.554396 0.852831
#
# Coordination Sequence:
#
# PCOD9373030 Si02
#       8
#     8   8   8   8   8   8   8   8
#     4  10  17  25  42  62  80 108 140 168 200 242
#     4  10  19  29  42  61  84 107 133 171 210 242
#     4  11  20  28  42  62  84 110 140 175 208 239
#     4   9  17  30  46  60  79 111 145 174 207 247
#     4   8  16  30  43  56  79 109 136 163 201 248
#     4  10  19  30  43  58  80 111 142 169 201 246
#     4   8  16  29  41  55  79 108 135 168 204 237
#     4   8  15  27  41  58  79 104 137 172 201 232
#
# _framework density 14.134655
#
# number of rings (size 3 to 8) (size 9 to 14) (size 15 to 20)
#    0.000    2.750    0.000    5.250    0.000    6.750 
#    0.000    0.625    0.000    3.000    0.000    0.000 
#    0.000    1.000    0.000    5.500    0.000    3.750 
#
# Total GULP energy -178235.071008 kJ/mol
# GULP energy per Si atom -5569.845969 kJ/mol
# Density = 1.410248 g / cm^3
# Si number density = 14.134655 Si / 1000 Ang^3
#
#
#
# Elastic Constant Matrix: (Units=GPa)
#
#
# Indices 1 2 3 4 5 6 
#
# 1 50.6254 38.0359 41.7458 0.0000 0.0000 0.0000
# 2 38.0359 80.8941 56.8441 0.0000 0.0000 0.0000
# 3 41.7458 56.8441 116.4703 0.0000 0.0000 0.0000
# 4 0.0000 0.0000 0.0000 24.5089 0.0000 0.0000
# 5 0.0000 0.0000 0.0000 0.0000 22.3603 0.0000
# 6 0.0000 0.0000 0.0000 0.0000 0.0000 16.4625
#
#
#
# Elastic Compliance Matrix: (Units=1/GPa)
#
#
# Indices 1 2 3 4 5 6 
#
# 1 0.033564 -0.011153 -0.006587 0.000000 0.000000 0.000000
# 2 -0.011153 0.022520 -0.006994 0.000000 0.000000 0.000000
# 3 -0.006587 -0.006994 0.014360 0.000000 0.000000 0.000000
# 4 0.000000 0.000000 0.000000 0.040802 0.000000 0.000000
# 5 0.000000 0.000000 0.000000 0.000000 0.044722 0.000000
# 6 0.000000 0.000000 0.000000 0.000000 0.000000 0.060744
#
#
# Mechanical properties :
#
#
# Convention : Reuss Voigt Hill
#
# Bulk Modulus (GPa) = 47.67054 57.91572 52.79313
# Shear Modulus (GPa) = 18.30350 20.09060 19.19705
#
# Velocity S-wave (km/s) = 3.60243 3.77420 3.68931
# Velocity P-wave (km/s) = 7.14860 7.74958 7.45515
#
# Compressibility (1/GPa) = 0.02097732
#
# Stress axis : x y z
#
# Youngs Moduli (GPa) = 29.79385 44.40422 69.63734
#
# Poissons Ratio (x) = 0.49524 0.45869
# Poissons Ratio (y) = 0.33229 0.48702
# Poissons Ratio (z) = 0.19625 0.31055
#
# Static dielectric constant tensor:
#      x y z
#    x 1.475350 0.000000 0.000000 
#    y 0.000000 1.450160 0.000000 
#    z 0.000000 0.000000 1.479080 
# 
# From -- ./inp_files/20926.got.cif
#   From: 2010.05.17/outbox.cif.g08.bks.cpg/sg44_11_cif.got.tgz:20926.got - 2010.06.03 19:37:08.
