data_PCOD9373538
_publ_section_title
;
Structure prediction by ZEFSAII (Michael W. Deem and Ramdas Pophale) SiO2 
 PCOD9373538
Probable space group: I M M 2
;
_chemical_formula_sum "Si O2"
_cell_formula_units_Z 40
_cell_length_a 12.175602
_cell_length_b 7.716519
_cell_length_c 20.610695
_cell_angle_alpha 90.000000
_cell_angle_beta 90.000000
_cell_angle_gamma 90.000000
_cell_volume 1936.442072
_symmetry_space_group_name_H-M "I M M 2"
_symmetry_group_IT_number 44
_symmetry_cell_setting 'orthorhombic'
loop_
_space_group_symop_operation_xyz
x,y,z
-x,-y,z
-x,y,z
x,-y,z
1/2+x,1/2+y,1/2+z
1/2-x,1/2-y,1/2+z
1/2-x,1/2+y,1/2+z
1/2+x,1/2-y,1/2+z
loop_
_atom_site_type_symbol
_atom_site_label
_atom_site_fract_x
_atom_site_fract_y
_atom_site_fract_z
Si Si1 0.125247 0.288352 0.021730
Si Si2 0.500000 0.193560 0.045969
Si Si3 0.243410 0.787105 0.393342
Si Si4 0.289483 0.706662 0.128651
Si Si5 0.000000 0.195711 0.404673
Si Si6 0.374897 0.207958 0.266891
O O1 0.123203 0.500000 0.020420
O O2 0.182264 0.234692 0.089083
O O3 0.000000 0.229161 0.015060
O O4 0.200959 0.233702 0.961148
O O5 0.605671 0.220691 0.090431
O O6 0.500000 0.000000 0.019430
O O7 0.500000 0.312590 0.983046
O O8 0.317604 0.731135 0.332856
O O9 0.117779 0.725471 0.386714
O O10 0.240460 0.000000 0.394364
O O11 0.294824 0.500000 0.123170
O O12 0.302917 0.752165 0.203676
O O13 0.000000 0.000000 0.377810
O O14 0.500000 0.274327 0.259090
O O15 0.382065 0.000000 0.271549
#
# Coordination Sequence:
#
# PCOD9373538 Si02
#       6
#     8   4   8   8   4   8
#     4   9  17  31  54  82 107 137 180 226 266 315
#     4  12  22  34  56  84 112 139 176 231 286 329
#     4   9  17  31  54  81 108 139 181 224 265 320
#     4  11  21  35  57  82 109 142 183 227 272 329
#     4  10  18  34  58  84 108 141 186 227 268 323
#     4  10  20  34  53  79 110 144 181 224 273 321
#
# _framework density 20.65644
#
# number of rings (size 3 to 8) (size 9 to 14) (size 15 to 20)
#    0.000    2.000    3.000    2.100    0.000    2.400 
#    1.800    1.000    0.000    1.800    0.000    0.000 
#    0.000    0.000    0.000    0.000    0.000    0.000 
#
# Total GULP energy -111668.759653 kJ/mol
# GULP energy per Si atom -5583.437983 kJ/mol
# Density = 2.060942 g / cm^3
# Si number density = 20.656440 Si / 1000 Ang^3
#
#
#
# Elastic Constant Matrix: (Units=GPa)
#
#
# Indices 1 2 3 4 5 6 
#
# 1 163.3315 6.5445 68.7740 0.0000 0.0000 0.0000
# 2 6.5445 41.7561 2.5145 0.0000 0.0000 0.0000
# 3 68.7740 2.5145 131.5851 0.0000 0.0000 0.0000
# 4 0.0000 0.0000 0.0000 17.7315 0.0000 0.0000
# 5 0.0000 0.0000 0.0000 0.0000 91.8551 0.0000
# 6 0.0000 0.0000 0.0000 0.0000 0.0000 -14.8102
#
#
#
# Elastic Compliance Matrix: (Units=1/GPa)
#
#
# Indices 1 2 3 4 5 6 
#
# 1 0.007891 -0.000990 -0.004105 0.000000 0.000000 0.000000
# 2 -0.000990 0.024100 0.000057 0.000000 0.000000 0.000000
# 3 -0.004105 0.000057 0.009744 0.000000 0.000000 0.000000
# 4 0.000000 0.000000 0.000000 0.056397 0.000000 0.000000
# 5 0.000000 0.000000 0.000000 0.000000 0.010887 0.000000
# 6 0.000000 0.000000 0.000000 0.000000 0.000000 -0.067521
#
#
# Mechanical properties :
#
#
# Convention : Reuss Voigt Hill
#
# Bulk Modulus (GPa) = 31.58662 54.70429 43.14545
# Shear Modulus (GPa) = 80.48025 36.21125 58.34575
#
# Velocity S-wave (km/s) = 6.24867 4.19146 5.32044
# Velocity P-wave (km/s) = 8.20889 7.06858 7.65998
#
# Compressibility (1/GPa) = 0.03165897
#
# Stress axis : x y z
#
# Youngs Moduli (GPa) = 126.73028 41.49332 102.62497
#
# Poissons Ratio (x) = 0.04106 0.42130
# Poissons Ratio (y) = 0.12540 -0.00581
# Poissons Ratio (z) = 0.52026 -0.00235
#
# Static dielectric constant tensor:
#      x y z
#    x 1.713320 0.000000 0.000000 
#    y 0.000000 1.791160 0.000000 
#    z 0.000000 0.000000 1.701250 
# 
# From -- ./inp_files/22763.got.cif
#   From: 2010.05.17/outbox.cif.g08.bks.cpg/sg44_12_cif.got.tgz:22763.got - 2010.06.03 19:37:08.
