data_PCOD9373419
_publ_section_title
;
Structure prediction by ZEFSAII (Michael W. Deem and Ramdas Pophale) SiO2 
 PCOD9373419
Probable space group: I M M 2
;
_chemical_formula_sum "Si O2"
_cell_formula_units_Z 64
_cell_length_a 7.546323
_cell_length_b 29.643080
_cell_length_c 12.806819
_cell_angle_alpha 90.000000
_cell_angle_beta 90.000000
_cell_angle_gamma 90.000000
_cell_volume 2864.837467
_symmetry_space_group_name_H-M "I M M 2"
_symmetry_group_IT_number 44
_symmetry_cell_setting 'orthorhombic'
loop_
_space_group_symop_operation_xyz
x,y,z
-x,-y,z
-x,y,z
x,-y,z
1/2+x,1/2+y,1/2+z
1/2-x,1/2-y,1/2+z
1/2-x,1/2+y,1/2+z
1/2+x,1/2-y,1/2+z
loop_
_atom_site_type_symbol
_atom_site_label
_atom_site_fract_x
_atom_site_fract_y
_atom_site_fract_z
Si Si1 0.282587 0.621877 0.822970
Si Si2 0.294748 0.176996 0.646511
Si Si3 0.290139 0.448918 0.649291
Si Si4 0.204454 0.047162 0.475981
Si Si5 0.294806 0.071065 0.700522
Si Si6 0.783303 0.692923 0.375059
Si Si7 0.214602 0.408233 0.424757
Si Si8 0.296561 0.710411 0.923551
O O1 0.500000 0.625020 0.820272
O O2 0.224166 0.591599 0.724404
O O3 0.218513 0.672781 0.844937
O O4 0.223066 0.591754 0.922315
O O5 0.500000 0.189640 0.632553
O O6 0.287561 0.124109 0.672999
O O7 0.228172 0.198466 0.754057
O O8 0.203521 0.189251 0.538971
O O9 0.500000 0.451527 0.670044
O O10 0.219139 0.500000 0.665872
O O11 0.265096 0.433462 0.530012
O O12 0.208140 0.048941 0.600529
O O13 0.000000 0.046193 0.442716
O O14 0.287873 0.000000 0.440818
O O15 0.500000 0.056703 0.700757
O O16 0.223426 0.067381 0.817916
O O17 0.724397 0.644300 0.419752
O O18 0.722509 0.738936 0.429346
O O19 0.000000 0.689781 0.376817
O O20 0.000000 0.407757 0.418766
O O21 0.500000 0.716614 0.889710
#
# Coordination Sequence:
#
# PCOD9373419 Si02
#       8
#     8   8   8   8   8   8   8   8
#     4   9  18  33  52  75 104 138 172 211 264 319
#     4   9  17  32  51  71 101 136 167 208 260 310
#     4  10  21  37  56  78 107 143 182 225 271 319
#     4  10  19  31  50  76 103 130 165 211 259 308
#     4   9  18  33  52  72  99 135 169 207 261 316
#     4   8  17  33  52  75 104 140 175 212 263 319
#     4   9  19  37  56  74 103 141 178 216 264 317
#     4  10  18  31  54  79 102 135 179 218 259 315
#
# _framework density 22.339836999999999
#
# number of rings (size 3 to 8) (size 9 to 14) (size 15 to 20)
#    0.000    2.750    1.250    1.875    0.000    4.000 
#    0.000    8.125    0.000    1.500    0.000    0.000 
#    0.000    0.000    0.000    0.000    0.000    0.000 
#
# Total GULP energy -178373.705006 kJ/mol
# GULP energy per Si atom -5574.178281 kJ/mol
# Density = 2.228899 g / cm^3
# Si number density = 22.339837 Si / 1000 Ang^3
#
#
#
# Elastic Constant Matrix: (Units=GPa)
#
#
# Indices 1 2 3 4 5 6 
#
# 1 49.2735 3.1856 -7.4601 0.0000 0.0000 0.0000
# 2 3.1856 70.2515 16.8181 -0.0001 0.0000 0.0000
# 3 -7.4601 16.8181 101.6708 -0.0002 0.0000 -0.0001
# 4 0.0000 -0.0001 -0.0002 29.2607 0.0000 0.0000
# 5 0.0000 0.0000 0.0000 0.0000 19.4805 0.0000
# 6 0.0000 0.0000 -0.0001 0.0000 0.0000 3.6410
#
#
#
# Elastic Compliance Matrix: (Units=1/GPa)
#
#
# Indices 1 2 3 4 5 6 
#
# 1 0.020646 -0.001352 0.001739 0.000000 0.000000 0.000000
# 2 -0.001352 0.014910 -0.002566 0.000000 0.000000 0.000000
# 3 0.001739 -0.002566 0.010388 0.000000 0.000000 0.000000
# 4 0.000000 0.000000 0.000000 0.034175 0.000000 0.000000
# 5 0.000000 0.000000 0.000000 0.000000 0.051333 0.000000
# 6 0.000000 0.000000 0.000000 0.000000 0.000000 0.274649
#
#
# Mechanical properties :
#
#
# Convention : Reuss Voigt Hill
#
# Bulk Modulus (GPa) = 24.04747 27.36477 25.70612
# Shear Modulus (GPa) = 11.78351 24.38659 18.08505
#
# Velocity S-wave (km/s) = 2.29916 3.30755 2.84833
# Velocity P-wave (km/s) = 4.22326 5.18290 4.72749
#
# Compressibility (1/GPa) = 0.04158442
#
# Stress axis : x y z
#
# Youngs Moduli (GPa) = 48.43655 67.06860 96.26829
#
# Poissons Ratio (x) = 0.09070 -0.16737
# Poissons Ratio (y) = 0.06551 0.24699
# Poissons Ratio (z) = -0.08421 0.17207
#
# Static dielectric constant tensor:
#      x y z
#    x 1.867910 0.000000 0.000000 
#    y 0.000000 1.866400 0.000000 
#    z 0.000000 0.000000 1.810270 
# 
# From -- ./inp_files/11541.got.cif
#   From: 2010.05.17/outbox.cif.g08.bks.cpg/sg44_6_cif.got.tgz:11541.got - 2010.06.03 19:37:08.
