data_PCOD9373072
_publ_section_title
;
Structure prediction by ZEFSAII (Michael W. Deem and Ramdas Pophale) SiO2 
 PCOD9373072
Probable space group: I M M 2
;
_chemical_formula_sum "Si O2"
_cell_formula_units_Z 64
_cell_length_a 7.677741
_cell_length_b 31.565721
_cell_length_c 15.101226
_cell_angle_alpha 90.000000
_cell_angle_beta 90.000000
_cell_angle_gamma 90.000000
_cell_volume 3659.833923
_symmetry_space_group_name_H-M "I M M 2"
_symmetry_group_IT_number 44
_symmetry_cell_setting 'orthorhombic'
loop_
_space_group_symop_operation_xyz
x,y,z
-x,-y,z
-x,y,z
x,-y,z
1/2+x,1/2+y,1/2+z
1/2-x,1/2-y,1/2+z
1/2-x,1/2+y,1/2+z
1/2+x,1/2-y,1/2+z
loop_
_atom_site_type_symbol
_atom_site_label
_atom_site_fract_x
_atom_site_fract_y
_atom_site_fract_z
Si Si1 0.295209 0.210048 0.628980
Si Si2 0.791490 0.294635 0.740102
Si Si3 0.700310 0.130069 0.120138
Si Si4 0.289007 0.774314 0.434889
Si Si5 0.208683 0.047334 0.823829
Si Si6 0.289194 0.048031 0.029545
Si Si7 0.289481 0.365951 0.256080
Si Si8 0.209447 0.825246 0.941633
O O1 0.500000 0.217424 0.620478
O O2 0.232655 0.250642 0.686016
O O3 0.222989 0.208145 0.528837
O O4 0.266464 0.166110 0.679905
O O5 0.720584 0.335644 0.687677
O O6 0.723156 0.291144 0.840462
O O7 0.000000 0.299780 0.744798
O O8 0.500000 0.122790 0.147702
O O9 0.777763 0.084011 0.096614
O O10 0.703268 0.153590 0.025660
O O11 0.500000 0.779665 0.432579
O O12 0.253848 0.724340 0.438243
O O13 0.272588 0.085432 0.761564
O O14 0.000000 0.045535 0.813417
O O15 0.279226 0.000000 0.807647
O O16 0.241019 0.057854 0.927451
O O17 0.500000 0.048529 0.033164
O O18 0.229937 0.000000 0.048061
O O19 0.500000 0.366294 0.254572
O O20 0.234918 0.345579 0.349453
O O21 0.000000 0.830871 0.950706
#
# Coordination Sequence:
#
# PCOD9373072 Si02
#       8
#     8   8   8   8   8   8   8   8
#     4  11  21  31  46  67  88 115 153 188 220 266
#     4  10  19  33  48  63  87 119 153 186 224 266
#     4  10  19  28  44  68  89 118 156 187 217 262
#     4   9  18  32  45  59  86 120 150 179 219 261
#     4   9  17  29  46  67  89 118 155 185 214 264
#     4   9  17  28  41  63  96 123 144 181 230 269
#     4  10  19  31  46  65  91 124 151 180 221 264
#     4  10  17  28  45  63  90 124 149 176 221 266
#
# _framework density 17.487133
#
# number of rings (size 3 to 8) (size 9 to 14) (size 15 to 20)
#    0.000    2.250    3.750    0.375    0.000    1.000 
#    0.000    1.250    0.000    0.000    0.000    0.875 
#    0.000    3.000    0.000    0.000    0.000    0.000 
#
# Total GULP energy -178368.743288 kJ/mol
# GULP energy per Si atom -5574.023228 kJ/mol
# Density = 1.744733 g / cm^3
# Si number density = 17.487133 Si / 1000 Ang^3
#
#
#
# Elastic Constant Matrix: (Units=GPa)
#
#
# Indices 1 2 3 4 5 6 
#
# 1 28.3740 5.0798 2.2225 0.0001 0.0000 0.0000
# 2 5.0798 131.9513 72.2134 0.0001 0.0000 0.0000
# 3 2.2225 72.2134 121.7236 0.0004 0.0001 0.0000
# 4 0.0001 0.0001 0.0004 21.7736 0.0000 0.0000
# 5 0.0000 0.0000 0.0001 0.0000 9.6649 0.0000
# 6 0.0000 0.0000 0.0000 0.0000 0.0000 17.2147
#
#
#
# Elastic Compliance Matrix: (Units=1/GPa)
#
#
# Indices 1 2 3 4 5 6 
#
# 1 0.035493 -0.001498 0.000241 0.000000 0.000000 0.000000
# 2 -0.001498 0.011285 -0.006668 0.000000 0.000000 0.000000
# 3 0.000241 -0.006668 0.012167 0.000000 0.000000 0.000000
# 4 0.000000 0.000000 0.000000 0.045927 0.000000 0.000000
# 5 0.000000 0.000000 0.000000 0.000000 0.103467 0.000000
# 6 0.000000 0.000000 0.000000 0.000000 0.000000 0.058090
#
#
# Mechanical properties :
#
#
# Convention : Reuss Voigt Hill
#
# Bulk Modulus (GPa) = 23.20478 49.00891 36.10684
# Shear Modulus (GPa) = 16.85520 23.23285 20.04402
#
# Velocity S-wave (km/s) = 3.10798 3.64891 3.38925
# Velocity P-wave (km/s) = 5.11643 6.77047 6.00071
#
# Compressibility (1/GPa) = 0.04309457
#
# Stress axis : x y z
#
# Youngs Moduli (GPa) = 28.17463 88.61092 82.19212
#
# Poissons Ratio (x) = 0.13275 -0.01978
# Poissons Ratio (y) = 0.04221 0.54803
# Poissons Ratio (z) = -0.00678 0.59083
#
# Static dielectric constant tensor:
#      x y z
#    x 1.655040 0.000000 0.000000 
#    y 0.000000 1.627180 0.000000 
#    z 0.000000 0.000000 1.595520 
# 
# From -- ./inp_files/17075.got.cif
#   From: 2010.05.17/outbox.cif.g08.bks.cpg/sg44_9_cif.got.tgz:17075.got - 2010.06.03 19:37:08.
