data_PCOD9373295
_publ_section_title
;
Structure prediction by ZEFSAII (Michael W. Deem and Ramdas Pophale) SiO2 
 PCOD9373295
Probable space group: I M M 2
;
_chemical_formula_sum "Si O2"
_cell_formula_units_Z 64
_cell_length_a 7.527693
_cell_length_b 17.213873
_cell_length_c 23.120447
_cell_angle_alpha 90.000000
_cell_angle_beta 90.000000
_cell_angle_gamma 90.000000
_cell_volume 2995.964892
_symmetry_space_group_name_H-M "I M M 2"
_symmetry_group_IT_number 44
_symmetry_cell_setting 'orthorhombic'
loop_
_space_group_symop_operation_xyz
x,y,z
-x,-y,z
-x,y,z
x,-y,z
1/2+x,1/2+y,1/2+z
1/2-x,1/2-y,1/2+z
1/2-x,1/2+y,1/2+z
1/2+x,1/2-y,1/2+z
loop_
_atom_site_type_symbol
_atom_site_label
_atom_site_fract_x
_atom_site_fract_y
_atom_site_fract_z
Si Si1 0.713441 0.586723 0.885250
Si Si2 0.713093 0.764154 0.466795
Si Si3 0.785656 0.748908 0.092516
Si Si4 0.297596 0.611819 0.755813
Si Si5 0.216097 0.911721 0.935432
Si Si6 0.717107 0.417923 0.628322
Si Si7 0.783969 0.916359 0.800404
Si Si8 0.208656 0.219768 0.721024
O O1 0.500000 0.584483 0.882466
O O2 0.771398 0.500000 0.906719
O O3 0.750726 0.665083 0.922222
O O4 0.781172 0.595203 0.818793
O O5 0.500000 0.757592 0.466563
O O6 0.773968 0.785920 0.531700
O O7 0.776101 0.674191 0.457187
O O8 0.725695 0.839057 0.097786
O O9 0.729717 0.710118 0.152456
O O10 0.000000 0.749131 0.092645
O O11 0.500000 0.583262 0.757600
O O12 0.219196 0.582722 0.695019
O O13 0.300230 0.703193 0.743974
O O14 0.261983 0.907853 0.867401
O O15 0.000000 0.912539 0.942171
O O16 0.272845 0.000000 0.955218
O O17 0.500000 0.415226 0.629443
O O18 0.768433 0.500000 0.601111
O O19 0.719991 0.850526 0.758242
O O20 0.000000 0.914927 0.799088
O O21 0.723947 0.000000 0.779876
O O22 0.000000 0.230178 0.732897
#
# Coordination Sequence:
#
# PCOD9373295 Si02
#       8
#     8   8   8   8   8   8   8   8
#     4  10  21  36  54  76 101 133 174 216 260 312
#     4  10  20  34  52  74 101 134 172 215 260 301
#     4   9  19  33  47  66  95 129 164 202 243 289
#     4   9  17  30  49  73 101 127 152 192 247 303
#     4   8  14  26  47  76 105 128 155 196 245 300
#     4   8  13  24  45  70  93 119 152 189 230 282
#     4   8  14  25  42  67  96 119 143 185 239 287
#     4  10  18  29  49  73  96 125 161 199 240 290
#
# _framework density 21.362067
#
# number of rings (size 3 to 8) (size 9 to 14) (size 15 to 20)
#    0.000    3.000    0.000    3.000    0.000    4.250 
#    0.000    3.125    0.000   13.125    0.000    8.750 
#    0.000    0.000    0.000    0.000    0.000    0.000 
#
# Total GULP energy -178210.887682 kJ/mol
# GULP energy per Si atom -5569.090240 kJ/mol
# Density = 2.131345 g / cm^3
# Si number density = 21.362067 Si / 1000 Ang^3
#
#
#
# Elastic Constant Matrix: (Units=GPa)
#
#
# Indices 1 2 3 4 5 6 
#
# 1 58.6760 6.7582 2.9374 0.0000 0.0000 0.0000
# 2 6.7582 125.3110 59.5032 0.0000 0.0000 0.0000
# 3 2.9374 59.5032 96.1511 0.0000 0.0000 0.0000
# 4 0.0000 0.0000 0.0000 -5.9238 0.0000 0.0000
# 5 0.0000 0.0000 0.0000 0.0000 8.8371 0.0000
# 6 0.0000 0.0000 0.0000 0.0000 0.0000 8.4801
#
#
#
# Elastic Compliance Matrix: (Units=1/GPa)
#
#
# Indices 1 2 3 4 5 6 
#
# 1 0.017150 -0.000957 0.000069 0.000000 0.000000 0.000000
# 2 -0.000957 0.011355 -0.006997 0.000000 0.000000 0.000000
# 3 0.000069 -0.006997 0.014729 0.000000 0.000000 0.000000
# 4 0.000000 0.000000 0.000000 -0.168810 0.000000 0.000000
# 5 0.000000 0.000000 0.000000 0.000000 0.113159 0.000000
# 6 0.000000 0.000000 0.000000 0.000000 0.000000 0.117924
#
#
# Mechanical properties :
#
#
# Convention : Reuss Voigt Hill
#
# Bulk Modulus (GPa) = 36.41661 46.50397 41.46029
# Shear Modulus (GPa) = 38.33412 16.34129 27.33770
#
# Velocity S-wave (km/s) = 4.24074 2.76881 3.58121
# Velocity P-wave (km/s) = 6.40803 5.66025 6.04571
#
# Compressibility (1/GPa) = 0.02746000
#
# Stress axis : x y z
#
# Youngs Moduli (GPa) = 58.31039 88.07080 67.89510
#
# Poissons Ratio (x) = 0.08433 -0.00466
# Poissons Ratio (y) = 0.05583 0.47510
# Poissons Ratio (z) = -0.00400 0.61627
#
# Static dielectric constant tensor:
#      x y z
#    x 1.832400 0.000000 0.000000 
#    y 0.000000 1.829690 0.000000 
#    z 0.000000 0.000000 1.769450 
# 
# From -- ./inp_files/23270.got.cif
#   From: 2010.05.17/outbox.cif.g08.bks.cpg/sg44_12_cif.got.tgz:23270.got - 2010.06.03 19:37:08.
