data_PCOD9373703
_publ_section_title
;
Structure prediction by ZEFSAII (Michael W. Deem and Ramdas Pophale) SiO2 
 PCOD9373703
Probable space group: I M M 2
;
_chemical_formula_sum "Si O2"
_cell_formula_units_Z 34
_cell_length_a 24.056987
_cell_length_b 7.321664
_cell_length_c 7.146195
_cell_angle_alpha 90.000000
_cell_angle_beta 90.000000
_cell_angle_gamma 90.000000
_cell_volume 1258.710604
_symmetry_space_group_name_H-M "I M M 2"
_symmetry_group_IT_number 44
_symmetry_cell_setting 'orthorhombic'
loop_
_space_group_symop_operation_xyz
x,y,z
-x,-y,z
-x,y,z
x,-y,z
1/2+x,1/2+y,1/2+z
1/2-x,1/2-y,1/2+z
1/2-x,1/2+y,1/2+z
1/2+x,1/2-y,1/2+z
loop_
_atom_site_type_symbol
_atom_site_label
_atom_site_fract_x
_atom_site_fract_y
_atom_site_fract_z
Si Si1 0.324361 0.705539 0.272430
Si Si2 0.500000 0.000000 0.576168
Si Si3 0.086193 0.787222 0.225636
Si Si4 0.297481 0.219611 0.854729
Si Si5 0.061123 0.778300 0.663922
O O1 0.326686 0.500000 0.349139
O O2 0.265305 0.788972 0.327966
O O3 0.385648 0.789278 0.279728
O O4 0.317232 0.696428 0.048074
O O5 0.451698 0.841404 0.604473
O O6 0.153208 0.761643 0.208778
O O7 0.070252 0.738855 0.442964
O O8 0.073572 0.000000 0.196565
O O9 0.295115 0.000000 0.867881
O O10 0.000000 0.707780 0.717694
O O11 0.060877 0.000000 0.680318
#
# Coordination Sequence:
#
# PCOD9373703 Si02
#       5
#     8   2   8   8   8
#     4   9  19  32  50  75 107 139 179 227 272 319
#     4  12  18  28  48  78 100 142 172 216 268 332
#     4  10  19  30  47  72 109 136 170 221 272 314
#     4  10  19  33  50  77 106 143 185 223 268 327
#     4   8  13  25  45  70  98 132 167 213 268 310
#
# _framework density 27.011766999999999
#
# number of rings (size 3 to 8) (size 9 to 14) (size 15 to 20)
#    0.000    2.588    2.353    2.471    0.000    1.882 
#    0.000    0.000    0.000    0.000    3.059    0.000 
#    0.000    0.000    0.000    0.000    0.000    0.471 
#
# Total GULP energy -94872.763471 kJ/mol
# GULP energy per Si atom -5580.750792 kJ/mol
# Density = 2.695029 g / cm^3
# Si number density = 27.011767 Si / 1000 Ang^3
#
#
#
# Elastic Constant Matrix: (Units=GPa)
#
#
# Indices 1 2 3 4 5 6 
#
# 1 324.3403 38.9943 68.1332 0.0000 0.0000 0.0000
# 2 38.9943 166.3013 13.9992 0.0000 0.0000 0.0000
# 3 68.1332 13.9992 73.9703 0.0000 0.0000 0.0000
# 4 0.0000 0.0000 0.0000 -16.1059 0.0000 0.0000
# 5 0.0000 0.0000 0.0000 0.0000 51.1019 0.0000
# 6 0.0000 0.0000 0.0000 0.0000 0.0000 10.9611
#
#
#
# Elastic Compliance Matrix: (Units=1/GPa)
#
#
# Indices 1 2 3 4 5 6 
#
# 1 0.003885 -0.000620 -0.003461 0.000000 0.000000 0.000000
# 2 -0.000620 0.006209 -0.000604 0.000000 0.000000 0.000000
# 3 -0.003461 -0.000604 0.016821 0.000000 0.000000 0.000000
# 4 0.000000 0.000000 0.000000 -0.062089 0.000000 0.000000
# 5 0.000000 0.000000 0.000000 0.000000 0.019569 0.000000
# 6 0.000000 0.000000 0.000000 0.000000 0.000000 0.091232
#
#
# Mechanical properties :
#
#
# Convention : Reuss Voigt Hill
#
# Bulk Modulus (GPa) = 56.99527 89.65168 73.32348
# Shear Modulus (GPa) = 55.03864 38.75709 46.89787
#
# Velocity S-wave (km/s) = 4.51885 3.79201 4.17130
# Velocity P-wave (km/s) = 6.95505 7.24116 7.09955
#
# Compressibility (1/GPa) = 0.01754532
#
# Stress axis : x y z
#
# Youngs Moduli (GPa) = 257.42107 161.04779 59.44903
#
# Poissons Ratio (x) = 0.09978 0.20575
# Poissons Ratio (y) = 0.15948 0.03594
# Poissons Ratio (z) = 0.89091 0.09735
#
# Static dielectric constant tensor:
#      x y z
#    x 2.200130 0.000000 0.000000 
#    y 0.000000 2.081780 0.000000 
#    z 0.000000 0.000000 2.168990 
# 
# From -- ./inp_files/4569.got.cif
#   From: 2010.05.17/outbox.cif.g08.bks.cpg/sg44_3_cif.got.tgz:4569.got - 2010.06.03 19:37:08.
