data_PCOD9373013
_publ_section_title
;
Structure prediction by ZEFSAII (Michael W. Deem and Ramdas Pophale) SiO2 
 PCOD9373013
Probable space group: I M M 2
;
_chemical_formula_sum "Si O2"
_cell_formula_units_Z 48
_cell_length_a 8.559868
_cell_length_b 19.606448
_cell_length_c 13.544475
_cell_angle_alpha 90.000000
_cell_angle_beta 90.000000
_cell_angle_gamma 90.000000
_cell_volume 2273.150369
_symmetry_space_group_name_H-M "I M M 2"
_symmetry_group_IT_number 44
_symmetry_cell_setting 'orthorhombic'
loop_
_space_group_symop_operation_xyz
x,y,z
-x,-y,z
-x,y,z
x,-y,z
1/2+x,1/2+y,1/2+z
1/2-x,1/2-y,1/2+z
1/2-x,1/2+y,1/2+z
1/2+x,1/2-y,1/2+z
loop_
_atom_site_type_symbol
_atom_site_label
_atom_site_fract_x
_atom_site_fract_y
_atom_site_fract_z
Si Si1 0.186767 0.778502 0.467230
Si Si2 0.174667 0.000000 0.276053
Si Si3 0.813714 0.500000 0.481401
Si Si4 0.690407 0.649736 0.764739
Si Si5 0.323638 0.116996 0.619043
Si Si6 0.313361 0.500000 0.258733
Si Si7 0.313097 0.353874 0.547132
Si Si8 0.334162 0.000000 0.458352
O O1 0.244076 0.813597 0.364560
O O2 0.243507 0.819097 0.565048
O O3 0.244993 0.700896 0.471305
O O4 0.000000 0.780216 0.466243
O O5 0.250957 0.927872 0.256393
O O6 0.178679 0.000000 0.394720
O O7 0.000000 0.000000 0.233471
O O8 0.759566 0.500000 0.367433
O O9 0.748982 0.569687 0.529940
O O10 0.000000 0.500000 0.487765
O O11 0.500000 0.646169 0.772288
O O12 0.727572 0.676168 0.655934
O O13 0.500000 0.134990 0.652326
O O14 0.241476 0.069251 0.701446
O O15 0.334605 0.064754 0.527914
O O16 0.500000 0.500000 0.263707
O O17 0.500000 0.356242 0.539574
O O18 0.500000 0.000000 0.401327
#
# Coordination Sequence:
#
# PCOD9373013 Si02
#       8
#     8   4   4   8   8   4   8   4
#     4  11  22  39  63  94 129 169 215 267 321 379
#     4  10  16  30  57  86 112 155 204 249 298 362
#     4  12  26  48  70  93 123 160 207 266 324 384
#     4   9  20  37  62  91 123 165 212 258 312 371
#     4  10  20  36  57  91 133 170 206 256 316 376
#     4  11  23  40  66  96 126 171 220 263 309 376
#     4  11  24  45  68  91 122 166 215 264 320 386
#     4   9  17  28  47  81 123 158 191 238 301 358
#
# _framework density 21.116070000000001
#
# number of rings (size 3 to 8) (size 9 to 14) (size 15 to 20)
#    0.000    1.667    1.667    4.000    0.000    4.000 
#    0.000   10.833    0.000    0.000    0.000    0.000 
#    0.000    0.000    0.000    0.000    0.000    0.000 
#
# Total GULP energy -133771.554644 kJ/mol
# GULP energy per Si atom -5573.814777 kJ/mol
# Density = 2.106801 g / cm^3
# Si number density = 21.116070 Si / 1000 Ang^3
#
#
#
# Elastic Constant Matrix: (Units=GPa)
#
#
# Indices 1 2 3 4 5 6 
#
# 1 85.4558 33.9101 26.1419 0.0000 0.0000 0.0000
# 2 33.9101 152.2817 56.2656 0.0000 0.0000 0.0000
# 3 26.1419 56.2656 109.7304 0.0000 0.0000 0.0000
# 4 0.0000 0.0000 0.0000 -17.6088 0.0000 0.0000
# 5 0.0000 0.0000 0.0000 0.0000 23.0919 0.0000
# 6 0.0000 0.0000 0.0000 0.0000 0.0000 36.8215
#
#
#
# Elastic Compliance Matrix: (Units=1/GPa)
#
#
# Indices 1 2 3 4 5 6 
#
# 1 0.013189 -0.002191 -0.002019 0.000000 0.000000 0.000000
# 2 -0.002191 0.008466 -0.003819 0.000000 0.000000 0.000000
# 3 -0.002019 -0.003819 0.011552 0.000000 0.000000 0.000000
# 4 0.000000 0.000000 0.000000 -0.056790 0.000000 0.000000
# 5 0.000000 0.000000 0.000000 0.000000 0.043305 0.000000
# 6 0.000000 0.000000 0.000000 0.000000 0.000000 0.027158
#
#
# Mechanical properties :
#
#
# Convention : Reuss Voigt Hill
#
# Bulk Modulus (GPa) = 58.30963 64.45591 61.38277
# Shear Modulus (GPa) = 72.82884 23.87094 48.34989
#
# Velocity S-wave (km/s) = 5.87917 3.36588 4.79029
# Velocity P-wave (km/s) = 8.58836 6.75991 7.72840
#
# Compressibility (1/GPa) = 0.01714983
#
# Stress axis : x y z
#
# Youngs Moduli (GPa) = 75.82118 118.12361 86.56260
#
# Poissons Ratio (x) = 0.25882 0.17474
# Poissons Ratio (y) = 0.16613 0.33057
# Poissons Ratio (z) = 0.15305 0.45110
#
# Static dielectric constant tensor:
#      x y z
#    x 1.810080 0.000000 0.000000 
#    y 0.000000 1.792890 0.000000 
#    z 0.000000 0.000000 1.782150 
# 
# From -- ./inp_files/16251.got.cif
#   From: 2010.05.17/outbox.cif.g08.bks.cpg/sg44_9_cif.got.tgz:16251.got - 2010.06.03 19:37:08.
