data_PCOD9373238
_publ_section_title
;
Structure prediction by ZEFSAII (Michael W. Deem and Ramdas Pophale) SiO2 
 PCOD9373238
Probable space group: I M M 2
;
_chemical_formula_sum "Si O2"
_cell_formula_units_Z 64
_cell_length_a 15.066659
_cell_length_b 8.096365
_cell_length_c 29.011872
_cell_angle_alpha 90.000000
_cell_angle_beta 90.000000
_cell_angle_gamma 90.000000
_cell_volume 3539.018155
_symmetry_space_group_name_H-M "I M M 2"
_symmetry_group_IT_number 44
_symmetry_cell_setting 'orthorhombic'
loop_
_space_group_symop_operation_xyz
x,y,z
-x,-y,z
-x,y,z
x,-y,z
1/2+x,1/2+y,1/2+z
1/2-x,1/2-y,1/2+z
1/2-x,1/2+y,1/2+z
1/2+x,1/2-y,1/2+z
loop_
_atom_site_type_symbol
_atom_site_label
_atom_site_fract_x
_atom_site_fract_y
_atom_site_fract_z
Si Si1 0.397928 0.201295 0.647410
Si Si2 0.100190 0.698781 0.601692
Si Si3 0.279099 0.196323 0.563310
Si Si4 0.899494 0.803000 0.978998
Si Si5 0.398787 0.199222 0.375355
Si Si6 0.899456 0.300907 0.251974
Si Si7 0.279742 0.198944 0.291031
Si Si8 0.602311 0.798830 0.205986
O O1 0.500000 0.247297 0.637015
O O2 0.332166 0.263819 0.608093
O O3 0.377425 0.256130 0.699596
O O4 0.394910 0.000000 0.647610
O O5 0.097942 0.500000 0.603165
O O6 0.177365 0.750237 0.567366
O O7 0.122783 0.757182 0.653889
O O8 0.000000 0.755762 0.590812
O O9 0.330660 0.247113 0.517489
O O10 0.281918 0.000000 0.566132
O O11 0.875281 0.748188 0.927369
O O12 0.000000 0.739064 0.988671
O O13 0.902896 0.000000 0.979712
O O14 0.500000 0.257128 0.366214
O O15 0.330601 0.259272 0.336573
O O16 0.400240 0.000000 0.373178
O O17 0.900414 0.500000 0.251164
O O18 0.822739 0.244948 0.286070
O O19 0.000000 0.245650 0.262665
O O20 0.331728 0.260917 0.245481
O O21 0.285954 0.000000 0.290879
O O22 0.500000 0.754353 0.216325
O O23 0.605727 0.000000 0.205779
#
# Coordination Sequence:
#
# PCOD9373238 Si02
#       8
#     8   8   8   8   8   8   8   8
#     4   8  15  28  45  67  96 129 163 196 233 281
#     4   9  18  32  48  67  97 136 171 202 237 279
#     4  11  20  30  50  75  98 127 163 203 245 289
#     4  10  21  36  53  74 100 127 156 194 240 291
#     4   9  18  33  52  74 100 127 154 188 236 292
#     4   9  18  32  47  64  93 133 169 198 232 277
#     4  10  18  28  48  75  98 123 159 201 239 277
#     4   8  14  26  45  70 100 132 163 194 232 280
#
# _framework density 18.084109999999999
#
# number of rings (size 3 to 8) (size 9 to 14) (size 15 to 20)
#    0.000    2.750    0.000    3.750    0.000    3.750 
#    0.000    0.625    0.000    4.125    0.000    3.500 
#    0.000    0.000    0.000    0.000    0.000    0.000 
#
# Total GULP energy -178482.613086 kJ/mol
# GULP energy per Si atom -5577.581659 kJ/mol
# Density = 1.804295 g / cm^3
# Si number density = 18.084110 Si / 1000 Ang^3
#
#
#
# Elastic Constant Matrix: (Units=GPa)
#
#
# Indices 1 2 3 4 5 6 
#
# 1 140.4831 12.8168 107.5682 0.0000 0.0000 0.0000
# 2 12.8168 13.8333 14.0555 0.0000 0.0000 0.0000
# 3 107.5682 14.0555 112.6146 0.0000 0.0000 0.0000
# 4 0.0000 0.0000 0.0000 12.8987 0.0000 0.0000
# 5 0.0000 0.0000 0.0000 0.0000 37.3454 0.0000
# 6 0.0000 0.0000 0.0000 0.0000 0.0000 17.3740
#
#
#
# Elastic Compliance Matrix: (Units=1/GPa)
#
#
# Indices 1 2 3 4 5 6 
#
# 1 0.026522 0.001337 -0.025500 0.000000 0.000000 0.000000
# 2 0.001337 0.082855 -0.011618 0.000000 0.000000 0.000000
# 3 -0.025500 -0.011618 0.034688 0.000000 0.000000 0.000000
# 4 0.000000 0.000000 0.000000 0.077527 0.000000 0.000000
# 5 0.000000 0.000000 0.000000 0.000000 0.026777 0.000000
# 6 0.000000 0.000000 0.000000 0.000000 0.000000 0.057557
#
#
# Mechanical properties :
#
#
# Convention : Reuss Voigt Hill
#
# Bulk Modulus (GPa) = 13.79282 59.53467 36.66374
# Shear Modulus (GPa) = 12.44842 22.35633 17.40238
#
# Velocity S-wave (km/s) = 2.62651 3.51984 3.10546
# Velocity P-wave (km/s) = 4.10386 7.03644 5.75991
#
# Compressibility (1/GPa) = 0.07250149
#
# Stress axis : x y z
#
# Youngs Moduli (GPa) = 37.70447 12.06923 28.82867
#
# Poissons Ratio (x) = -0.01614 0.73514
# Poissons Ratio (y) = -0.05041 0.33494
# Poissons Ratio (z) = 0.96148 0.14022
#
# Static dielectric constant tensor:
#      x y z
#    x 1.595540 0.000000 0.000000 
#    y 0.000000 1.644640 0.000000 
#    z 0.000000 0.000000 1.608370 
# 
# From -- ./inp_files/25769.got.cif
#   From: 2010.05.17/outbox.cif.g08.bks.cpg/sg44_13_cif.got.tgz:25769.got - 2010.06.03 19:37:08.
