data_PCOD9373907
_publ_section_title
;
Structure prediction by ZEFSAII (Michael W. Deem and Ramdas Pophale) SiO2 
 PCOD9373907
Probable space group: I M M 2
;
_chemical_formula_sum "Si O2"
_cell_formula_units_Z 64
_cell_length_a 8.441993
_cell_length_b 20.510512
_cell_length_c 20.820411
_cell_angle_alpha 90.000000
_cell_angle_beta 90.000000
_cell_angle_gamma 90.000000
_cell_volume 3605.045810
_symmetry_space_group_name_H-M "I M M 2"
_symmetry_group_IT_number 44
_symmetry_cell_setting 'orthorhombic'
loop_
_space_group_symop_operation_xyz
x,y,z
-x,-y,z
-x,y,z
x,-y,z
1/2+x,1/2+y,1/2+z
1/2-x,1/2-y,1/2+z
1/2-x,1/2+y,1/2+z
1/2+x,1/2-y,1/2+z
loop_
_atom_site_type_symbol
_atom_site_label
_atom_site_fract_x
_atom_site_fract_y
_atom_site_fract_z
Si Si1 0.306684 0.574453 0.371300
Si Si2 0.193154 0.925685 0.017464
Si Si3 0.310194 0.324901 0.119805
Si Si4 0.192984 0.176958 0.765900
Si Si5 0.810381 0.425080 0.013633
Si Si6 0.310323 0.575061 0.871815
Si Si7 0.690181 0.678953 0.621863
Si Si8 0.689873 0.173899 0.264409
O O1 0.500000 0.575476 0.370560
O O2 0.259153 0.500000 0.356812
O O3 0.258247 0.590037 0.444379
O O4 0.250102 0.626032 0.318914
O O5 0.246827 0.873345 0.069440
O O6 0.000000 0.925339 0.018095
O O7 0.242399 0.000000 0.032057
O O8 0.500000 0.325899 0.118513
O O9 0.258108 0.340150 0.193134
O O10 0.247041 0.376030 0.068281
O O11 0.253610 0.251195 0.106893
O O12 0.240642 0.251559 0.779734
O O13 0.000000 0.175744 0.766743
O O14 0.757512 0.500000 0.026021
O O15 0.000000 0.424369 0.011802
O O16 0.747551 0.406279 0.943086
O O17 0.500000 0.576156 0.870910
O O18 0.257550 0.500000 0.860451
O O19 0.247238 0.623367 0.817582
O O20 0.500000 0.680878 0.620760
O O21 0.745374 0.659681 0.693249
O O22 0.500000 0.173044 0.261813
#
# Coordination Sequence:
#
# PCOD9373907 Si02
#       8
#     8   8   8   8   8   8   8   8
#     4   8  13  24  43  67  95 124 156 196 242 292
#     4   8  15  27  44  69  99 128 162 209 258 302
#     4  10  20  34  51  74 106 138 172 216 262 310
#     4   8  16  29  45  69 101 135 168 205 249 297
#     4  10  21  37  56  78 104 135 173 216 263 319
#     4  10  21  37  56  78 104 134 170 214 264 319
#     4  10  19  32  51  74 103 139 178 217 259 311
#     4  10  20  34  51  73 104 137 171 214 259 306
#
# _framework density 17.752894999999999
#
# number of rings (size 3 to 8) (size 9 to 14) (size 15 to 20)
#    0.000    2.750    0.000    3.375    0.000    3.500 
#    0.000    5.000    0.000    1.125    0.000    2.625 
#    0.000   12.000    0.000    0.000    0.000    0.000 
#
# Total GULP energy -178446.850559 kJ/mol
# GULP energy per Si atom -5576.464080 kJ/mol
# Density = 1.771249 g / cm^3
# Si number density = 17.752895 Si / 1000 Ang^3
#
#
#
# Elastic Constant Matrix: (Units=GPa)
#
#
# Indices 1 2 3 4 5 6 
#
# 1 27.7768 15.9998 21.7129 0.0000 0.0000 0.0000
# 2 15.9998 121.1403 129.1619 0.0000 0.0000 0.0000
# 3 21.7129 129.1619 164.6788 0.0000 0.0000 0.0000
# 4 0.0000 0.0000 0.0000 45.2492 0.0000 0.0000
# 5 0.0000 0.0000 0.0000 0.0000 24.5902 0.0000
# 6 0.0000 0.0000 0.0000 0.0000 0.0000 21.3830
#
#
#
# Elastic Compliance Matrix: (Units=1/GPa)
#
#
# Indices 1 2 3 4 5 6 
#
# 1 0.040225 0.002089 -0.006942 0.000000 0.000000 0.000000
# 2 0.002089 0.050524 -0.039903 0.000000 0.000000 0.000000
# 3 -0.006942 -0.039903 0.038284 0.000000 0.000000 0.000000
# 4 0.000000 0.000000 0.000000 0.022100 0.000000 0.000000
# 5 0.000000 0.000000 0.000000 0.000000 0.040667 0.000000
# 6 0.000000 0.000000 0.000000 0.000000 0.000000 0.046766
#
#
# Mechanical properties :
#
#
# Convention : Reuss Voigt Hill
#
# Bulk Modulus (GPa) = 25.30271 71.92723 48.61497
# Shear Modulus (GPa) = 14.65201 28.02590 21.33895
#
# Velocity S-wave (km/s) = 2.87597 3.97755 3.47075
# Velocity P-wave (km/s) = 5.03110 7.85483 6.59584
#
# Compressibility (1/GPa) = 0.03952146
#
# Stress axis : x y z
#
# Youngs Moduli (GPa) = 24.86044 19.79268 26.12034
#
# Poissons Ratio (x) = -0.04135 0.18133
# Poissons Ratio (y) = -0.05193 1.04227
# Poissons Ratio (z) = 0.17258 0.78978
#
# Static dielectric constant tensor:
#      x y z
#    x 1.614810 0.000000 0.000000 
#    y 0.000000 1.595680 0.000000 
#    z 0.000000 0.000000 1.586730 
# 
# From -- ./inp_files/20772.got.cif
#   From: 2010.05.17/outbox.cif.g08.bks.cpg/sg44_11_cif.got.tgz:20772.got - 2010.06.03 19:37:08.
