data_PCOD9373250
_publ_section_title
;
Structure prediction by ZEFSAII (Michael W. Deem and Ramdas Pophale) SiO2 
 PCOD9373250
Probable space group: I M M 2
;
_chemical_formula_sum "Si O2"
_cell_formula_units_Z 48
_cell_length_a 7.739618
_cell_length_b 24.339217
_cell_length_c 14.345126
_cell_angle_alpha 90.000000
_cell_angle_beta 90.000000
_cell_angle_gamma 90.000000
_cell_volume 2702.280927
_symmetry_space_group_name_H-M "I M M 2"
_symmetry_group_IT_number 44
_symmetry_cell_setting 'orthorhombic'
loop_
_space_group_symop_operation_xyz
x,y,z
-x,-y,z
-x,y,z
x,-y,z
1/2+x,1/2+y,1/2+z
1/2-x,1/2-y,1/2+z
1/2-x,1/2+y,1/2+z
1/2+x,1/2-y,1/2+z
loop_
_atom_site_type_symbol
_atom_site_label
_atom_site_fract_x
_atom_site_fract_y
_atom_site_fract_z
Si Si1 0.711611 0.728774 0.301440
Si Si2 0.701018 0.263297 0.091334
Si Si3 0.208319 0.062276 0.310646
Si Si4 0.788605 0.063050 0.098958
Si Si5 0.200919 0.840276 0.970887
Si Si6 0.796231 0.331975 0.923512
O O1 0.500000 0.726894 0.301928
O O2 0.768697 0.725165 0.194828
O O3 0.774060 0.681680 0.372820
O O4 0.764175 0.786853 0.347398
O O5 0.500000 0.248011 0.099635
O O6 0.790074 0.211993 0.040212
O O7 0.715723 0.314948 0.022013
O O8 0.265999 0.076636 0.205066
O O9 0.263241 0.107864 0.384046
O O10 0.000000 0.061581 0.309259
O O11 0.266912 0.000000 0.331021
O O12 0.000000 0.064853 0.099048
O O13 0.739339 0.000000 0.079342
O O14 0.723795 0.107334 0.024510
O O15 0.000000 0.853120 0.953571
O O16 0.000000 0.324010 0.934569
#
# Coordination Sequence:
#
# PCOD9373250 Si02
#       6
#     8   8   8   8   8   8
#     4   8  16  28  42  62  88 115 142 179 220 258
#     4  10  18  29  44  62  87 117 146 178 222 267
#     4   9  17  29  45  67  93 118 145 178 217 261
#     4   8  14  25  44  69  93 117 146 180 217 259
#     4   9  16  28  45  65  89 115 146 183 219 257
#     4  10  19  31  46  66  90 115 147 183 219 259
#
# _framework density 17.762771999999998
#
# number of rings (size 3 to 8) (size 9 to 14) (size 15 to 20)
#    0.000    3.000    0.000    4.000    0.000    0.333 
#    0.000    7.500    0.000    2.500    0.000    4.667 
#    0.000    0.000    0.000    0.000    0.000    0.000 
#
# Total GULP energy -133750.670149 kJ/mol
# GULP energy per Si atom -5572.944590 kJ/mol
# Density = 1.772234 g / cm^3
# Si number density = 17.762772 Si / 1000 Ang^3
#
#
#
# Elastic Constant Matrix: (Units=GPa)
#
#
# Indices 1 2 3 4 5 6 
#
# 1 26.4530 -7.7101 -2.7212 0.0000 0.0000 0.0000
# 2 -7.7101 83.3705 59.8433 -0.0001 0.0000 0.0000
# 3 -2.7212 59.8433 148.0287 -0.0003 0.0000 0.0001
# 4 0.0000 -0.0001 -0.0003 27.2547 0.0000 0.0000
# 5 0.0000 0.0000 0.0000 0.0000 8.1726 0.0000
# 6 0.0000 0.0000 0.0001 0.0000 0.0000 9.8853
#
#
#
# Elastic Compliance Matrix: (Units=1/GPa)
#
#
# Indices 1 2 3 4 5 6 
#
# 1 0.038964 0.004352 -0.001043 0.000000 0.000000 0.000000
# 2 0.004352 0.017384 -0.006948 0.000000 0.000000 0.000000
# 3 -0.001043 -0.006948 0.009545 0.000000 0.000000 0.000000
# 4 0.000000 0.000000 0.000000 0.036691 0.000000 0.000000
# 5 0.000000 0.000000 0.000000 0.000000 0.122361 0.000000
# 6 0.000000 0.000000 0.000000 0.000000 0.000000 0.101160
#
#
# Mechanical properties :
#
#
# Convention : Reuss Voigt Hill
#
# Bulk Modulus (GPa) = 17.06028 39.63066 28.34547
# Shear Modulus (GPa) = 14.16744 22.95853 18.56299
#
# Velocity S-wave (km/s) = 2.82723 3.59905 3.23623
# Velocity P-wave (km/s) = 4.50367 6.29527 5.47327
#
# Compressibility (1/GPa) = 0.05861570
#
# Stress axis : x y z
#
# Youngs Moduli (GPa) = 25.66468 57.52291 104.76576
#
# Poissons Ratio (x) = -0.25035 0.10929
# Poissons Ratio (y) = -0.11170 0.72791
# Poissons Ratio (z) = 0.02677 0.39967
#
# Static dielectric constant tensor:
#      x y z
#    x 1.668590 0.000000 0.000000 
#    y 0.000000 1.598040 0.000000 
#    z 0.000000 0.000000 1.610940 
# 
# From -- ./inp_files/11147.got.cif
#   From: 2010.05.17/outbox.cif.g08.bks.cpg/sg44_6_cif.got.tgz:11147.got - 2010.06.03 19:37:08.
