data_PCOD9373058
_publ_section_title
;
Structure prediction by ZEFSAII (Michael W. Deem and Ramdas Pophale) SiO2 
 PCOD9373058
Probable space group: I M M 2
;
_chemical_formula_sum "Si O2"
_cell_formula_units_Z 56
_cell_length_a 26.031737
_cell_length_b 7.404402
_cell_length_c 14.589260
_cell_angle_alpha 90.000000
_cell_angle_beta 90.000000
_cell_angle_gamma 90.000000
_cell_volume 2812.071775
_symmetry_space_group_name_H-M "I M M 2"
_symmetry_group_IT_number 44
_symmetry_cell_setting 'orthorhombic'
loop_
_space_group_symop_operation_xyz
x,y,z
-x,-y,z
-x,y,z
x,-y,z
1/2+x,1/2+y,1/2+z
1/2-x,1/2-y,1/2+z
1/2-x,1/2+y,1/2+z
1/2+x,1/2-y,1/2+z
loop_
_atom_site_type_symbol
_atom_site_label
_atom_site_fract_x
_atom_site_fract_y
_atom_site_fract_z
Si Si1 0.000000 0.280839 0.220541
Si Si2 0.720585 0.217330 0.157403
Si Si3 0.500000 0.286613 0.501814
Si Si4 0.711779 0.710162 0.369798
Si Si5 0.901004 0.296417 0.330838
Si Si6 0.111252 0.779691 0.973736
Si Si7 0.682072 0.778089 0.964274
Si Si8 0.162827 0.782682 0.160743
O O1 0.000000 0.229423 0.113240
O O2 0.949832 0.216836 0.277092
O O3 0.000000 0.500000 0.219500
O O4 0.708928 0.278446 0.260179
O O5 0.687405 0.276049 0.070322
O O6 0.779377 0.270193 0.137506
O O7 0.718606 0.000000 0.159216
O O8 0.500000 0.500000 0.483252
O O9 0.553215 0.214046 0.460381
O O10 0.712587 0.500000 0.397641
O O11 0.658907 0.785047 0.412255
O O12 0.766048 0.781882 0.409783
O O13 0.916558 0.500000 0.356819
O O14 0.870416 0.214040 0.416304
O O15 0.856672 0.301375 0.253977
O O16 0.126030 0.733098 0.077773
O O17 0.110285 0.000000 0.967380
O O18 0.681078 0.000000 0.959882
O O19 0.161601 0.000000 0.171358
#
# Coordination Sequence:
#
# PCOD9373058 Si02
#       8
#     4   8   4   8   8   8   8   8
#     4  10  20  30  44  71 100 120 150 199 240 271
#     4  10  19  31  47  70  97 124 155 192 233 276
#     4  10  18  30  50  71  92 126 162 185 226 289
#     4  10  18  31  49  69  93 124 158 192 231 275
#     4  10  19  31  46  67  95 127 156 185 230 283
#     4   9  17  29  47  70  95 124 157 188 224 278
#     4   9  17  30  48  65  89 126 157 182 226 283
#     4  10  17  27  46  71  96 120 151 193 227 270
#
# _framework density 19.914142999999999
#
# number of rings (size 3 to 8) (size 9 to 14) (size 15 to 20)
#    0.000    2.286    4.286    0.000    0.000    0.000 
#    0.000    2.857    0.000    0.857    0.000    1.000 
#    0.000    0.000    0.000    0.000    0.000    0.000 
#
# Total GULP energy -156152.061023 kJ/mol
# GULP energy per Si atom -5576.859322 kJ/mol
# Density = 1.986882 g / cm^3
# Si number density = 19.914143 Si / 1000 Ang^3
#
#
#
# Elastic Constant Matrix: (Units=GPa)
#
#
# Indices 1 2 3 4 5 6 
#
# 1 76.5736 -1.1644 7.6241 0.0000 0.0000 0.0000
# 2 -1.1644 61.9208 -9.5635 0.0000 0.0000 0.0000
# 3 7.6241 -9.5635 57.4690 0.0000 0.0000 0.0000
# 4 0.0000 0.0000 0.0000 15.7798 0.0000 0.0000
# 5 0.0000 0.0000 0.0000 0.0000 36.4630 0.0000
# 6 0.0000 0.0000 0.0000 0.0000 0.0000 0.6974
#
#
#
# Elastic Compliance Matrix: (Units=1/GPa)
#
#
# Indices 1 2 3 4 5 6 
#
# 1 0.013234 -0.000023 -0.001760 0.000000 0.000000 0.000000
# 2 -0.000023 0.016576 0.002761 0.000000 0.000000 0.000000
# 3 -0.001760 0.002761 0.018094 0.000000 0.000000 0.000000
# 4 0.000000 0.000000 0.000000 0.063372 0.000000 0.000000
# 5 0.000000 0.000000 0.000000 0.000000 0.027425 0.000000
# 6 0.000000 0.000000 0.000000 0.000000 0.000000 1.433803
#
#
# Mechanical properties :
#
#
# Convention : Reuss Voigt Hill
#
# Bulk Modulus (GPa) = 20.05550 21.08397 20.56973
# Shear Modulus (GPa) = 3.15027 23.85920 13.50473
#
# Velocity S-wave (km/s) = 1.25911 3.46512 2.60695
# Velocity P-wave (km/s) = 3.49380 5.15944 4.40604
#
# Compressibility (1/GPa) = 0.04986164
#
# Stress axis : x y z
#
# Youngs Moduli (GPa) = 75.56202 60.32914 55.26800
#
# Poissons Ratio (x) = 0.00138 0.09724
# Poissons Ratio (y) = 0.00173 -0.15262
# Poissons Ratio (z) = 0.13295 -0.16660
#
# Static dielectric constant tensor:
#      x y z
#    x 1.722660 0.000000 0.000000 
#    y 0.000000 1.762260 0.000000 
#    z 0.000000 0.000000 1.676930 
# 
# From -- ./inp_files/12625.got.cif
#   From: 2010.05.17/outbox.cif.g08.bks.cpg/sg44_7_cif.got.tgz:12625.got - 2010.06.03 19:37:08.
