data_PCOD9373926
_publ_section_title
;
Structure prediction by ZEFSAII (Michael W. Deem and Ramdas Pophale) SiO2 
 PCOD9373926
Probable space group: I M M 2
;
_chemical_formula_sum "Si O2"
_cell_formula_units_Z 64
_cell_length_a 14.896200
_cell_length_b 8.578590
_cell_length_c 28.943565
_cell_angle_alpha 90.000000
_cell_angle_beta 90.000000
_cell_angle_gamma 90.000000
_cell_volume 3698.651640
_symmetry_space_group_name_H-M "I M M 2"
_symmetry_group_IT_number 44
_symmetry_cell_setting 'orthorhombic'
loop_
_space_group_symop_operation_xyz
x,y,z
-x,-y,z
-x,y,z
x,-y,z
1/2+x,1/2+y,1/2+z
1/2-x,1/2-y,1/2+z
1/2-x,1/2+y,1/2+z
1/2+x,1/2-y,1/2+z
loop_
_atom_site_type_symbol
_atom_site_label
_atom_site_fract_x
_atom_site_fract_y
_atom_site_fract_z
Si Si1 0.211891 0.187324 0.865450
Si Si2 0.853619 0.823165 0.960447
Si Si3 0.395845 0.686541 0.178256
Si Si4 0.395890 0.813318 0.279131
Si Si5 0.707110 0.188880 0.090120
Si Si6 0.598162 0.684854 0.896939
Si Si7 0.903234 0.190794 0.058441
Si Si8 0.354271 0.177308 0.992190
O O1 0.153542 0.248570 0.909588
O O2 0.168212 0.246297 0.818529
O O3 0.314844 0.238548 0.873459
O O4 0.209438 0.000000 0.867409
O O5 0.750230 0.833085 0.977202
O O6 0.888746 0.000000 0.955191
O O7 0.900318 0.751639 0.005172
O O8 0.500000 0.732224 0.170027
O O9 0.391100 0.500000 0.179973
O O10 0.370055 0.754224 0.228196
O O11 0.335487 0.749275 0.136810
O O12 0.500000 0.764317 0.287166
O O13 0.392559 0.000000 0.280016
O O14 0.810987 0.239301 0.083037
O O15 0.705828 0.000000 0.089833
O O16 0.649763 0.237664 0.044654
O O17 0.500000 0.738599 0.879806
O O18 0.604584 0.500000 0.890598
O O19 0.602306 0.723225 0.951687
O O20 0.000000 0.233941 0.079083
O O21 0.899720 0.000000 0.056525
O O22 0.389947 0.000000 0.991503
#
# Coordination Sequence:
#
# PCOD9373926 Si02
#       8
#     8   8   8   8   8   8   8   8
#     4  10  19  32  52  76 102 132 167 207 250 297
#     4   7  12  23  39  63  94 126 160 196 231 268
#     4  10  21  36  53  73  96 123 159 203 251 303
#     4  10  21  37  56  77 101 127 156 197 252 308
#     4   9  17  30  49  73 100 130 165 205 250 299
#     4  10  20  32  47  70 102 139 176 211 247 291
#     4   8  13  23  42  69 100 132 165 198 231 274
#     4   8  15  28  44  64  93 129 168 206 244 288
#
# _framework density 17.303604
#
# number of rings (size 3 to 8) (size 9 to 14) (size 15 to 20)
#    0.000    3.000    0.000    3.750    0.000    4.000 
#    0.000    3.750    0.000    1.125    0.000    1.750 
#    0.000    0.000    0.000    0.000    0.000    0.000 
#
# Total GULP energy -178174.401205 kJ/mol
# GULP energy per Si atom -5567.950038 kJ/mol
# Density = 1.726422 g / cm^3
# Si number density = 17.303604 Si / 1000 Ang^3
#
#
#
# Elastic Constant Matrix: (Units=GPa)
#
#
# Indices 1 2 3 4 5 6 
#
# 1 97.0394 22.3029 72.4629 0.0000 0.0000 0.0000
# 2 22.3029 24.8220 27.7290 0.0000 0.0000 0.0000
# 3 72.4629 27.7290 144.0018 0.0000 0.0000 0.0000
# 4 0.0000 0.0000 0.0000 25.8934 0.0000 0.0000
# 5 0.0000 0.0000 0.0000 0.0000 23.2945 0.0000
# 6 0.0000 0.0000 0.0000 0.0000 0.0000 14.2559
#
#
#
# Elastic Compliance Matrix: (Units=1/GPa)
#
#
# Indices 1 2 3 4 5 6 
#
# 1 0.017545 -0.007519 -0.007381 0.000000 0.000000 0.000000
# 2 -0.007519 0.054550 -0.006721 0.000000 0.000000 0.000000
# 3 -0.007381 -0.006721 0.011953 0.000000 0.000000 0.000000
# 4 0.000000 0.000000 0.000000 0.038620 0.000000 0.000000
# 5 0.000000 0.000000 0.000000 0.000000 0.042929 0.000000
# 6 0.000000 0.000000 0.000000 0.000000 0.000000 0.070146
#
#
# Mechanical properties :
#
#
# Convention : Reuss Voigt Hill
#
# Bulk Modulus (GPa) = 24.50568 56.76143 40.63356
# Shear Modulus (GPa) = 17.08903 22.24667 19.66785
#
# Velocity S-wave (km/s) = 3.14602 3.58951 3.37506
# Velocity P-wave (km/s) = 5.23350 7.07488 6.22268
#
# Compressibility (1/GPa) = 0.04080687
#
# Stress axis : x y z
#
# Youngs Moduli (GPa) = 56.99717 18.33169 83.66413
#
# Poissons Ratio (x) = 0.13784 0.61751
# Poissons Ratio (y) = 0.42856 0.56227
# Poissons Ratio (z) = 0.42068 0.12320
#
# Static dielectric constant tensor:
#      x y z
#    x 1.614240 0.000000 0.000000 
#    y 0.000000 1.594780 0.000000 
#    z 0.000000 0.000000 1.580890 
# 
# From -- ./inp_files/27536.got.cif
#   From: 2010.05.17/outbox.cif.g08.bks.cpg/sg44_14_cif.got.tgz:27536.got - 2010.06.03 19:37:08.
