data_PCOD9373562
_publ_section_title
;
Structure prediction by ZEFSAII (Michael W. Deem and Ramdas Pophale) SiO2 
 PCOD9373562
Probable space group: I M M 2
;
_chemical_formula_sum "Si O2"
_cell_formula_units_Z 64
_cell_length_a 18.936212
_cell_length_b 15.201661
_cell_length_c 12.162727
_cell_angle_alpha 90.000000
_cell_angle_beta 90.000000
_cell_angle_gamma 90.000000
_cell_volume 3501.185405
_symmetry_space_group_name_H-M "I M M 2"
_symmetry_group_IT_number 44
_symmetry_cell_setting 'orthorhombic'
loop_
_space_group_symop_operation_xyz
x,y,z
-x,-y,z
-x,y,z
x,-y,z
1/2+x,1/2+y,1/2+z
1/2-x,1/2-y,1/2+z
1/2-x,1/2+y,1/2+z
1/2+x,1/2-y,1/2+z
loop_
_atom_site_type_symbol
_atom_site_label
_atom_site_fract_x
_atom_site_fract_y
_atom_site_fract_z
Si Si1 0.315847 0.401591 0.356450
Si Si2 0.920405 0.898437 0.133977
Si Si3 0.304767 0.143021 0.700110
Si Si4 0.701566 0.105344 0.032428
Si Si5 0.721822 0.653144 0.747272
Si Si6 0.920321 0.605358 0.373855
Si Si7 0.818795 0.603166 0.944993
Si Si8 0.918180 0.768931 0.922392
O O1 0.342043 0.500000 0.377704
O O2 0.258692 0.405625 0.260960
O O3 0.269348 0.367029 0.460057
O O4 0.377278 0.332331 0.338120
O O5 0.853710 0.889106 0.215124
O O6 0.000000 0.885970 0.181047
O O7 0.918330 0.000000 0.092782
O O8 0.913047 0.825108 0.037452
O O9 0.290485 0.244199 0.728315
O O10 0.378596 0.120624 0.760046
O O11 0.303039 0.119303 0.573173
O O12 0.718802 0.126838 0.157305
O O13 0.699838 0.000000 0.022182
O O14 0.631172 0.139279 0.971680
O O15 0.753318 0.627648 0.865204
O O16 0.924950 0.500000 0.387451
O O17 0.000000 0.640928 0.374523
O O18 0.836841 0.500000 0.927775
O O19 0.880117 0.674813 0.922871
O O20 0.000000 0.759128 0.897694
#
# Coordination Sequence:
#
# PCOD9373562 Si02
#       8
#     8   8   8   8   8   8   8   8
#     4  10  18  35  61  87 115 149 195 257 308 352
#     4  10  20  36  61  92 121 148 190 257 320 365
#     4  11  22  37  60  85 121 159 207 252 306 362
#     4   9  17  32  57  86 111 145 193 245 299 356
#     4  12  22  37  62  85 124 161 208 253 306 364
#     4   9  19  36  60  89 117 149 195 252 307 359
#     4  12  25  41  60  89 124 169 208 245 303 376
#     4  11  22  37  57  89 121 153 196 245 304 368
#
# _framework density 18.279523999999999
#
# number of rings (size 3 to 8) (size 9 to 14) (size 15 to 20)
#    0.000    1.500    3.750    3.375    1.750    2.000 
#    0.000    0.625    0.000    2.250    0.000    0.000 
#    0.000    0.000    0.000    0.000    0.000    0.000 
#
# Total GULP energy -178393.775016 kJ/mol
# GULP energy per Si atom -5574.805469 kJ/mol
# Density = 1.823792 g / cm^3
# Si number density = 18.279524 Si / 1000 Ang^3
#
#
#
# Elastic Constant Matrix: (Units=GPa)
#
#
# Indices 1 2 3 4 5 6 
#
# 1 154.0390 51.6303 57.4818 0.0000 0.0000 0.0000
# 2 51.6303 106.1683 6.5161 0.0000 0.0000 0.0000
# 3 57.4818 6.5161 69.0906 0.0000 0.0000 0.0000
# 4 0.0000 0.0000 0.0000 23.1444 0.0000 0.0000
# 5 0.0000 0.0000 0.0000 0.0000 5.4270 0.0000
# 6 0.0000 0.0000 0.0000 0.0000 0.0000 32.8009
#
#
#
# Elastic Compliance Matrix: (Units=1/GPa)
#
#
# Indices 1 2 3 4 5 6 
#
# 1 0.011630 -0.005091 -0.009196 0.000000 0.000000 0.000000
# 2 -0.005091 0.011703 0.003132 0.000000 0.000000 0.000000
# 3 -0.009196 0.003132 0.021829 0.000000 0.000000 0.000000
# 4 0.000000 0.000000 0.000000 0.043207 0.000000 0.000000
# 5 0.000000 0.000000 0.000000 0.000000 0.184264 0.000000
# 6 0.000000 0.000000 0.000000 0.000000 0.000000 0.030487
#
#
# Mechanical properties :
#
#
# Convention : Reuss Voigt Hill
#
# Bulk Modulus (GPa) = 43.76003 62.28383 53.02193
# Shear Modulus (GPa) = 15.01292 26.51909 20.76600
#
# Velocity S-wave (km/s) = 2.86894 3.81301 3.37415
# Velocity P-wave (km/s) = 5.91318 7.31658 6.65200
#
# Compressibility (1/GPa) = 0.02285190
#
# Stress axis : x y z
#
# Youngs Moduli (GPa) = 85.98616 85.45049 45.81094
#
# Poissons Ratio (x) = 0.43505 0.42126
# Poissons Ratio (y) = 0.43778 -0.14348
# Poissons Ratio (z) = 0.79069 -0.26764
#
# Static dielectric constant tensor:
#      x y z
#    x 1.664390 0.000000 0.000000 
#    y 0.000000 1.670480 0.000000 
#    z 0.000000 0.000000 1.654440 
# 
# From -- ./inp_files/14006.got.cif
#   From: 2010.05.17/outbox.cif.g08.bks.cpg/sg44_8_cif.got.tgz:14006.got - 2010.06.03 19:37:08.
