data_PCOD9373924
_publ_section_title
;
Structure prediction by ZEFSAII (Michael W. Deem and Ramdas Pophale) SiO2 
 PCOD9373924
Probable space group: I M M 2
;
_chemical_formula_sum "Si O2"
_cell_formula_units_Z 56
_cell_length_a 14.889434
_cell_length_b 7.833567
_cell_length_c 23.403838
_cell_angle_alpha 90.000000
_cell_angle_beta 90.000000
_cell_angle_gamma 90.000000
_cell_volume 2729.762319
_symmetry_space_group_name_H-M "I M M 2"
_symmetry_group_IT_number 44
_symmetry_cell_setting 'orthorhombic'
loop_
_space_group_symop_operation_xyz
x,y,z
-x,-y,z
-x,y,z
x,-y,z
1/2+x,1/2+y,1/2+z
1/2-x,1/2-y,1/2+z
1/2-x,1/2+y,1/2+z
1/2+x,1/2-y,1/2+z
loop_
_atom_site_type_symbol
_atom_site_label
_atom_site_fract_x
_atom_site_fract_y
_atom_site_fract_z
Si Si1 0.101310 0.296363 0.449790
Si Si2 0.717075 0.200907 0.712665
Si Si3 0.285399 0.795455 0.494782
Si Si4 0.603659 0.209644 0.605189
Si Si5 0.100241 0.203476 0.756248
Si Si6 0.102448 0.797367 0.319888
Si Si7 0.103475 0.293939 0.886764
O O1 0.097974 0.500000 0.448763
O O2 0.179920 0.242896 0.492433
O O3 0.126370 0.236095 0.385782
O O4 0.000000 0.231872 0.462107
O O5 0.654250 0.269842 0.662369
O O6 0.817107 0.275013 0.719699
O O7 0.667291 0.218116 0.773217
O O8 0.727570 0.000000 0.700442
O O9 0.339505 0.734371 0.550053
O O10 0.331586 0.729710 0.436525
O O11 0.295375 0.000000 0.494039
O O12 0.500000 0.264509 0.603117
O O13 0.602194 0.000000 0.605424
O O14 0.122245 0.228871 0.823221
O O15 0.000000 0.274355 0.746148
O O16 0.096064 0.000000 0.746543
O O17 0.000000 0.734202 0.311948
O O18 0.103736 0.000000 0.310970
O O19 0.109894 0.500000 0.884297
O O20 0.000000 0.250456 0.900822
#
# Coordination Sequence:
#
# PCOD9373924 Si02
#       7
#     8   8   8   8   8   8   8
#     4  10  21  36  53  74 102 135 169 207 254 308
#     4  10  19  32  52  75 101 138 178 212 250 298
#     4  10  19  32  52  76 101 131 168 211 255 297
#     4   9  18  33  53  77 104 134 170 210 251 300
#     4   9  18  31  46  68  99 130 162 204 250 294
#     4  10  20  33  51  77 107 135 165 208 260 308
#     4   9  17  29  47  72 100 129 161 199 248 304
#
# _framework density 20.514607000000002
#
# number of rings (size 3 to 8) (size 9 to 14) (size 15 to 20)
#    0.000    2.429    0.000    2.571    0.000    7.429 
#    0.000    1.429    0.000    4.714    0.000    2.000 
#    0.000    0.000    0.000    0.000    0.000    0.000 
#
# Total GULP energy -156293.254861 kJ/mol
# GULP energy per Si atom -5581.901959 kJ/mol
# Density = 2.046791 g / cm^3
# Si number density = 20.514607 Si / 1000 Ang^3
#
#
#
# Elastic Constant Matrix: (Units=GPa)
#
#
# Indices 1 2 3 4 5 6 
#
# 1 177.3573 1.9536 106.1559 0.0000 0.0000 0.0000
# 2 1.9536 21.9138 2.3482 0.0000 0.0000 0.0000
# 3 106.1559 2.3482 77.9399 0.0000 0.0000 0.0000
# 4 0.0000 0.0000 0.0000 6.5531 0.0000 0.0000
# 5 0.0000 0.0000 0.0000 0.0000 36.8159 0.0000
# 6 0.0000 0.0000 0.0000 0.0000 0.0000 15.6862
#
#
#
# Elastic Compliance Matrix: (Units=1/GPa)
#
#
# Indices 1 2 3 4 5 6 
#
# 1 0.030581 0.001743 -0.041705 0.000000 0.000000 0.000000
# 2 0.001743 0.045880 -0.003756 0.000000 0.000000 0.000000
# 3 -0.041705 -0.003756 0.069747 0.000000 0.000000 0.000000
# 4 0.000000 0.000000 0.000000 0.152600 0.000000 0.000000
# 5 0.000000 0.000000 0.000000 0.000000 0.027162 0.000000
# 6 0.000000 0.000000 0.000000 0.000000 0.000000 0.063750
#
#
# Mechanical properties :
#
#
# Convention : Reuss Voigt Hill
#
# Bulk Modulus (GPa) = 17.01489 55.34740 36.18114
# Shear Modulus (GPa) = 10.06546 22.92793 16.49670
#
# Velocity S-wave (km/s) = 2.21746 3.34674 2.83882
# Velocity P-wave (km/s) = 3.85593 6.47860 5.33107
#
# Compressibility (1/GPa) = 0.05877206
#
# Stress axis : x y z
#
# Youngs Moduli (GPa) = 32.69964 21.79582 14.33759
#
# Poissons Ratio (x) = -0.03798 0.59795
# Poissons Ratio (y) = -0.05698 0.05385
# Poissons Ratio (z) = 1.36374 0.08186
#
# Static dielectric constant tensor:
#      x y z
#    x 1.745200 0.000000 0.000000 
#    y 0.000000 1.761720 0.000000 
#    z 0.000000 0.000000 1.697120 
# 
# From -- ./inp_files/23008.got.cif
#   From: 2010.05.17/outbox.cif.g08.bks.cpg/sg44_12_cif.got.tgz:23008.got - 2010.06.03 19:37:08.
