data_PCOD9373885
_publ_section_title
;
Structure prediction by ZEFSAII (Michael W. Deem and Ramdas Pophale) SiO2 
 PCOD9373885
Probable space group: I M M 2
;
_chemical_formula_sum "Si O2"
_cell_formula_units_Z 64
_cell_length_a 18.885227
_cell_length_b 8.916672
_cell_length_c 21.560721
_cell_angle_alpha 90.000000
_cell_angle_beta 90.000000
_cell_angle_gamma 90.000000
_cell_volume 3630.682572
_symmetry_space_group_name_H-M "I M M 2"
_symmetry_group_IT_number 44
_symmetry_cell_setting 'orthorhombic'
loop_
_space_group_symop_operation_xyz
x,y,z
-x,-y,z
-x,y,z
x,-y,z
1/2+x,1/2+y,1/2+z
1/2-x,1/2-y,1/2+z
1/2-x,1/2+y,1/2+z
1/2+x,1/2-y,1/2+z
loop_
_atom_site_type_symbol
_atom_site_label
_atom_site_fract_x
_atom_site_fract_y
_atom_site_fract_z
Si Si1 0.582202 0.680426 0.865980
Si Si2 0.586202 0.826368 0.993575
Si Si3 0.413948 0.172827 0.494694
Si Si4 0.083544 0.820849 0.865355
Si Si5 0.167690 0.318324 0.750901
Si Si6 0.918257 0.317080 0.629351
Si Si7 0.668541 0.317163 0.745761
Si Si8 0.083290 0.819410 0.123905
O O1 0.500000 0.726964 0.858478
O O2 0.583553 0.500000 0.866805
O O3 0.608657 0.738896 0.932351
O O4 0.627455 0.733298 0.807397
O O5 0.500000 0.822266 0.995438
O O6 0.607335 0.000000 0.987631
O O7 0.608390 0.767624 0.061369
O O8 0.500000 0.177365 0.495423
O O9 0.392488 0.258803 0.432318
O O10 0.391717 0.248442 0.559187
O O11 0.391794 0.000000 0.491820
O O12 0.128055 0.749129 0.810012
O O13 0.000000 0.781907 0.857542
O O14 0.089442 0.000000 0.864559
O O15 0.164285 0.500000 0.754605
O O16 0.128379 0.271293 0.687633
O O17 0.249667 0.273011 0.748092
O O18 0.918416 0.500000 0.627097
O O19 0.000000 0.270059 0.637902
O O20 0.666299 0.500000 0.745605
O O21 0.628583 0.269365 0.683157
O O22 0.000000 0.782617 0.133376
O O23 0.087920 0.000000 0.118910
#
# Coordination Sequence:
#
# PCOD9373885 Si02
#       8
#     8   8   8   8   8   8   8   8
#     4   9  16  28  47  69  93 123 159 195 231 275
#     4   8  14  26  44  66  90 114 146 191 237 279
#     4   9  17  30  50  76 101 124 157 202 247 290
#     4  10  20  34  52  74  99 126 158 198 244 294
#     4  10  19  32  50  70  95 127 162 199 238 285
#     4   8  14  26  46  69  89 112 145 184 228 279
#     4   9  18  31  47  69  97 129 164 200 238 283
#     4   9  16  29  50  72  96 130 169 206 245 289
#
# _framework density 17.627538999999999
#
# number of rings (size 3 to 8) (size 9 to 14) (size 15 to 20)
#    0.000    3.000    0.000    2.250    0.000    4.250 
#    0.000    3.750    0.000    6.750    0.000    0.000 
#    0.000    0.000    0.000    0.000    0.000    0.000 
#
# Total GULP energy -178309.727735 kJ/mol
# GULP energy per Si atom -5572.178992 kJ/mol
# Density = 1.758742 g / cm^3
# Si number density = 17.627539 Si / 1000 Ang^3
#
#
#
# Elastic Constant Matrix: (Units=GPa)
#
#
# Indices 1 2 3 4 5 6 
#
# 1 77.8441 27.7508 91.3763 0.0000 0.0000 0.0000
# 2 27.7508 20.6548 44.0412 0.0000 0.0000 0.0000
# 3 91.3763 44.0412 223.6662 0.0000 0.0000 0.0000
# 4 0.0000 0.0000 0.0000 32.0452 0.0000 0.0000
# 5 0.0000 0.0000 0.0000 0.0000 -3.2959 0.0000
# 6 0.0000 0.0000 0.0000 0.0000 0.0000 11.0871
#
#
#
# Elastic Compliance Matrix: (Units=1/GPa)
#
#
# Indices 1 2 3 4 5 6 
#
# 1 0.030706 -0.025006 -0.007621 0.000000 0.000000 0.000000
# 2 -0.025006 0.103817 -0.010226 0.000000 0.000000 0.000000
# 3 -0.007621 -0.010226 0.009598 0.000000 0.000000 0.000000
# 4 0.000000 0.000000 0.000000 0.031206 0.000000 0.000000
# 5 0.000000 0.000000 0.000000 0.000000 -0.303411 0.000000
# 6 0.000000 0.000000 0.000000 0.000000 0.000000 0.090195
#
#
# Mechanical properties :
#
#
# Convention : Reuss Voigt Hill
#
# Bulk Modulus (GPa) = 17.11889 72.05573 44.58731
# Shear Modulus (GPa) = 74.30573 18.56706 46.43639
#
# Velocity S-wave (km/s) = 6.49959 3.24898 5.13812
# Velocity P-wave (km/s) = 8.12766 7.41890 7.78135
#
# Compressibility (1/GPa) = 0.05841499
#
# Stress axis : x y z
#
# Youngs Moduli (GPa) = 32.56658 9.63233 104.18846
#
# Poissons Ratio (x) = 0.24087 0.79401
# Poissons Ratio (y) = 0.81436 1.06546
# Poissons Ratio (z) = 0.24819 0.09850
#
# Static dielectric constant tensor:
#      x y z
#    x 1.583990 0.000000 0.000000 
#    y 0.000000 1.597600 0.000000 
#    z 0.000000 0.000000 1.599690 
# 
# From -- ./inp_files/24360.got.cif
#   From: 2010.05.17/outbox.cif.g08.bks.cpg/sg44_13_cif.got.tgz:24360.got - 2010.06.03 19:37:08.
