data_PCOD9373578
_publ_section_title
;
Structure prediction by ZEFSAII (Michael W. Deem and Ramdas Pophale) SiO2 
 PCOD9373578
Probable space group: I M M 2
;
_chemical_formula_sum "Si O2"
_cell_formula_units_Z 64
_cell_length_a 8.960489
_cell_length_b 18.777856
_cell_length_c 27.446365
_cell_angle_alpha 90.000000
_cell_angle_beta 90.000000
_cell_angle_gamma 90.000000
_cell_volume 4618.091674
_symmetry_space_group_name_H-M "I M M 2"
_symmetry_group_IT_number 44
_symmetry_cell_setting 'orthorhombic'
loop_
_space_group_symop_operation_xyz
x,y,z
-x,-y,z
-x,y,z
x,-y,z
1/2+x,1/2+y,1/2+z
1/2-x,1/2-y,1/2+z
1/2-x,1/2+y,1/2+z
1/2+x,1/2-y,1/2+z
loop_
_atom_site_type_symbol
_atom_site_label
_atom_site_fract_x
_atom_site_fract_y
_atom_site_fract_z
Si Si1 0.822290 0.082709 0.296850
Si Si2 0.681446 0.418483 0.090332
Si Si3 0.679482 0.161664 0.389060
Si Si4 0.179241 0.915805 0.479598
Si Si5 0.671868 0.200259 0.238618
Si Si6 0.181219 0.163028 0.686131
Si Si7 0.828109 0.201253 0.836032
Si Si8 0.321956 0.082666 0.777951
O O1 0.745068 0.113174 0.345561
O O2 0.768058 0.131915 0.252272
O O3 0.000000 0.089019 0.302595
O O4 0.783970 0.000000 0.290170
O O5 0.500000 0.418989 0.090292
O O6 0.729205 0.500000 0.100222
O O7 0.728677 0.366908 0.133798
O O8 0.725688 0.399227 0.035254
O O9 0.500000 0.158846 0.386848
O O10 0.739772 0.131527 0.439596
O O11 0.723934 0.243637 0.377487
O O12 0.000000 0.906693 0.475631
O O13 0.209598 0.000000 0.471260
O O14 0.500000 0.179547 0.229729
O O15 0.724380 0.255128 0.197138
O O16 0.673204 0.249608 0.287263
O O17 0.247039 0.113778 0.728913
O O18 0.000000 0.160203 0.689614
O O19 0.733005 0.132494 0.822250
O O20 0.000000 0.180745 0.844981
O O21 0.500000 0.088242 0.773335
O O22 0.281385 0.000000 0.784361
#
# Coordination Sequence:
#
# PCOD9373578 Si02
#       8
#     8   8   8   8   8   8   8   8
#     4  10  19  28  39  56  77 103 134 162 190 231
#     4   8  14  25  41  59  78 102 133 165 190 217
#     4  10  19  29  41  57  77 102 132 164 197 230
#     4   9  17  28  41  58  79 103 133 164 192 227
#     4   8  15  26  39  57  78  99 127 162 195 227
#     4   9  16  27  43  59  76 104 138 163 188 226
#     4   8  16  29  41  54  73 100 133 161 187 228
#     4  10  19  27  37  58  84 105 128 160 195 229
#
# _framework density 13.858537999999999
#
# number of rings (size 3 to 8) (size 9 to 14) (size 15 to 20)
#    0.000    3.000    0.000    4.125    0.000    9.250 
#    0.000    0.625    0.000    0.750    0.000    0.000 
#    0.000    1.000    0.000    5.000    0.000    3.500 
#
# Total GULP energy -178143.845763 kJ/mol
# GULP energy per Si atom -5566.995180 kJ/mol
# Density = 1.382700 g / cm^3
# Si number density = 13.858538 Si / 1000 Ang^3
#
#
#
# Elastic Constant Matrix: (Units=GPa)
#
#
# Indices 1 2 3 4 5 6 
#
# 1 29.0913 40.1204 24.1758 0.0000 0.0000 0.0000
# 2 40.1204 105.8139 62.2047 0.0000 0.0000 0.0000
# 3 24.1758 62.2047 93.2310 0.0000 0.0000 0.0000
# 4 0.0000 0.0000 0.0000 27.2610 0.0000 0.0000
# 5 0.0000 0.0000 0.0000 0.0000 16.1786 0.0000
# 6 0.0000 0.0000 0.0000 0.0000 0.0000 21.3279
#
#
#
# Elastic Compliance Matrix: (Units=1/GPa)
#
#
# Indices 1 2 3 4 5 6 
#
# 1 0.072082 -0.026889 -0.000751 0.000000 0.000000 0.000000
# 2 -0.026889 0.025580 -0.010095 0.000000 0.000000 0.000000
# 3 -0.000751 -0.010095 0.017656 0.000000 0.000000 0.000000
# 4 0.000000 0.000000 0.000000 0.036683 0.000000 0.000000
# 5 0.000000 0.000000 0.000000 0.000000 0.061810 0.000000
# 6 0.000000 0.000000 0.000000 0.000000 0.000000 0.046887
#
#
# Mechanical properties :
#
#
# Convention : Reuss Voigt Hill
#
# Bulk Modulus (GPa) = 25.09498 53.45978 39.27738
# Shear Modulus (GPa) = 14.30820 19.72918 17.01869
#
# Velocity S-wave (km/s) = 3.21666 3.77717 3.50813
# Velocity P-wave (km/s) = 5.65182 7.59485 6.69421
#
# Compressibility (1/GPa) = 0.03984861
#
# Stress axis : x y z
#
# Youngs Moduli (GPa) = 13.87314 39.09269 56.63765
#
# Poissons Ratio (x) = 1.05117 0.04253
# Poissons Ratio (y) = 0.37304 0.57174
# Poissons Ratio (z) = 0.01042 0.39463
#
# Static dielectric constant tensor:
#      x y z
#    x 1.466450 0.000000 0.000000 
#    y 0.000000 1.459900 0.000000 
#    z 0.000000 0.000000 1.452870 
# 
# From -- ./inp_files/26284.got.cif
#   From: 2010.05.17/outbox.cif.g08.bks.cpg/sg44_14_cif.got.tgz:26284.got - 2010.06.03 19:37:08.
