data_PCOD9373653
_publ_section_title
;
Structure prediction by ZEFSAII (Michael W. Deem and Ramdas Pophale) SiO2 
 PCOD9373653
Probable space group: I M M 2
;
_chemical_formula_sum "Si O2"
_cell_formula_units_Z 64
_cell_length_a 8.706745
_cell_length_b 35.935759
_cell_length_c 13.944339
_cell_angle_alpha 90.000000
_cell_angle_beta 90.000000
_cell_angle_gamma 90.000000
_cell_volume 4362.953452
_symmetry_space_group_name_H-M "I M M 2"
_symmetry_group_IT_number 44
_symmetry_cell_setting 'orthorhombic'
loop_
_space_group_symop_operation_xyz
x,y,z
-x,-y,z
-x,y,z
x,-y,z
1/2+x,1/2+y,1/2+z
1/2-x,1/2-y,1/2+z
1/2-x,1/2+y,1/2+z
1/2+x,1/2-y,1/2+z
loop_
_atom_site_type_symbol
_atom_site_label
_atom_site_fract_x
_atom_site_fract_y
_atom_site_fract_z
Si Si1 0.184729 0.269623 0.903560
Si Si2 0.816364 0.193233 0.216714
Si Si3 0.814507 0.539951 0.406538
Si Si4 0.316083 0.306773 0.302465
Si Si5 0.683933 0.459125 0.622314
Si Si6 0.184909 0.234973 0.611801
Si Si7 0.315922 0.879122 0.899512
Si Si8 0.684196 0.880883 0.125488
O O1 0.254244 0.296279 0.822202
O O2 0.228785 0.227589 0.871420
O O3 0.000000 0.272311 0.901513
O O4 0.248565 0.276040 0.009285
O O5 0.749407 0.225078 0.146038
O O6 0.757546 0.153193 0.182509
O O7 0.000000 0.194755 0.214909
O O8 0.775561 0.500000 0.359980
O O9 0.740185 0.539692 0.511917
O O10 0.769541 0.579662 0.362468
O O11 0.000000 0.540978 0.418254
O O12 0.500000 0.308920 0.304211
O O13 0.270386 0.294054 0.195597
O O14 0.250783 0.345264 0.339939
O O15 0.500000 0.455872 0.625560
O O16 0.726472 0.500000 0.663828
O O17 0.758879 0.421327 0.661318
O O18 0.000000 0.237216 0.608407
O O19 0.500000 0.876673 0.896046
O O20 0.271876 0.876903 0.012386
O O21 0.500000 0.879330 0.130891
#
# Coordination Sequence:
#
# PCOD9373653 Si02
#       8
#     8   8   8   8   8   8   8   8
#     4  10  20  34  49  65  85 113 147 181 220 262
#     4  11  21  32  47  67  89 115 146 182 222 260
#     4   8  14  25  38  53  78 112 145 175 211 255
#     4   9  19  31  43  61  86 112 139 174 213 254
#     4   9  16  25  38  58  83 111 144 179 214 256
#     4  10  20  34  48  64  87 115 147 181 218 262
#     4   9  17  26  40  61  83 111 146 180 212 248
#     4  10  19  30  43  61  87 118 150 184 218 257
#
# _framework density 14.668962000000001
#
# number of rings (size 3 to 8) (size 9 to 14) (size 15 to 20)
#    0.000    2.500    0.000    4.875    0.000    8.250 
#    0.000    0.000    0.000    0.000    0.000    0.000 
#    0.000    1.000    0.000    6.500    0.000    4.750 
#
# Total GULP energy -178253.623268 kJ/mol
# GULP energy per Si atom -5570.425727 kJ/mol
# Density = 1.463558 g / cm^3
# Si number density = 14.668962 Si / 1000 Ang^3
#
#
#
# Elastic Constant Matrix: (Units=GPa)
#
#
# Indices 1 2 3 4 5 6 
#
# 1 47.1987 44.3377 27.3523 0.0000 0.0000 0.0000
# 2 44.3377 155.9465 53.0830 0.0000 0.0000 0.0000
# 3 27.3523 53.0830 69.7917 -0.0001 0.0000 0.0000
# 4 0.0000 0.0000 -0.0001 19.0555 0.0000 0.0000
# 5 0.0000 0.0000 0.0000 0.0000 21.0106 0.0000
# 6 0.0000 0.0000 0.0000 0.0000 0.0000 26.2492
#
#
#
# Elastic Compliance Matrix: (Units=1/GPa)
#
#
# Indices 1 2 3 4 5 6 
#
# 1 0.031559 -0.006426 -0.007481 0.000000 0.000000 0.000000
# 2 -0.006426 0.009961 -0.005058 0.000000 0.000000 0.000000
# 3 -0.007481 -0.005058 0.021107 0.000000 0.000000 0.000000
# 4 0.000000 0.000000 0.000000 0.052478 0.000000 0.000000
# 5 0.000000 0.000000 0.000000 0.000000 0.047595 0.000000
# 6 0.000000 0.000000 0.000000 0.000000 0.000000 0.038096
#
#
# Mechanical properties :
#
#
# Convention : Reuss Voigt Hill
#
# Bulk Modulus (GPa) = 40.48963 58.05365 49.27164
# Shear Modulus (GPa) = 20.24629 23.14065 21.69347
#
# Velocity S-wave (km/s) = 3.71915 3.97612 3.84978
# Velocity P-wave (km/s) = 6.79006 7.79366 7.30910
#
# Compressibility (1/GPa) = 0.02469768
#
# Stress axis : x y z
#
# Youngs Moduli (GPa) = 31.68684 100.38973 47.37755
#
# Poissons Ratio (x) = 0.64513 0.35441
# Poissons Ratio (y) = 0.20363 0.23963
# Poissons Ratio (z) = 0.23704 0.50776
#
# Static dielectric constant tensor:
#      x y z
#    x 1.491630 0.000000 0.000000 
#    y 0.000000 1.517010 0.000000 
#    z 0.000000 0.000000 1.461370 
# 
# From -- ./inp_files/17171.got.cif
#   From: 2010.05.17/outbox.cif.g08.bks.cpg/sg44_9_cif.got.tgz:17171.got - 2010.06.03 19:37:08.
