data_PCOD9373311
_publ_section_title
;
Structure prediction by ZEFSAII (Michael W. Deem and Ramdas Pophale) SiO2 
 PCOD9373311
Probable space group: I M M 2
;
_chemical_formula_sum "Si O2"
_cell_formula_units_Z 52
_cell_length_a 28.329123
_cell_length_b 15.294945
_cell_length_c 7.334720
_cell_angle_alpha 90.000000
_cell_angle_beta 90.000000
_cell_angle_gamma 90.000000
_cell_volume 3178.078272
_symmetry_space_group_name_H-M "I M M 2"
_symmetry_group_IT_number 44
_symmetry_cell_setting 'orthorhombic'
loop_
_space_group_symop_operation_xyz
x,y,z
-x,-y,z
-x,y,z
x,-y,z
1/2+x,1/2+y,1/2+z
1/2-x,1/2-y,1/2+z
1/2-x,1/2+y,1/2+z
1/2+x,1/2-y,1/2+z
loop_
_atom_site_type_symbol
_atom_site_label
_atom_site_fract_x
_atom_site_fract_y
_atom_site_fract_z
Si Si1 0.054052 0.894479 0.173540
Si Si2 0.795372 0.500000 0.789872
Si Si3 0.387924 0.396101 0.004747
Si Si4 0.195824 0.308735 0.758949
Si Si5 0.137874 0.842722 0.917050
Si Si6 0.209381 0.000000 0.022406
Si Si7 0.793573 0.830209 0.457942
Si Si8 0.252743 0.500000 0.147964
O O1 0.066311 0.874683 0.385299
O O2 0.000000 0.872936 0.130894
O O3 0.060144 0.000000 0.149504
O O4 0.092236 0.848173 0.045134
O O5 0.819026 0.590887 0.736338
O O6 0.740980 0.500000 0.706619
O O7 0.791015 0.500000 0.010217
O O8 0.384441 0.500000 0.015328
O O9 0.380821 0.362692 0.210396
O O10 0.343881 0.360748 0.885090
O O11 0.165141 0.249725 0.897396
O O12 0.197258 0.256903 0.571292
O O13 0.249805 0.314125 0.828055
O O14 0.175595 0.916540 0.984159
O O15 0.249422 0.000000 0.864160
O O16 0.779388 0.910603 0.591799
#
# Coordination Sequence:
#
# PCOD9373311 Si02
#       8
#     8   4   8   8   8   4   8   4
#     4  10  22  34  51  78 102 132 170 207 258 308
#     4  10  24  32  44  67 106 137 170 220 248 278
#     4  10  18  32  50  68 100 136 166 204 245 300
#     4  10  21  30  45  70  98 134 171 210 246 294
#     4  11  20  33  51  72  99 136 173 205 248 306
#     4  12  18  30  51  69  97 139 172 203 243 300
#     4  10  18  30  45  69  96 128 175 206 237 298
#     4  10  18  32  44  66  98 130 174 201 237 292
#
# _framework density 16.362088
#
# number of rings (size 3 to 8) (size 9 to 14) (size 15 to 20)
#    0.000    1.692    5.385    0.923    6.462    0.615 
#    0.000    1.538    0.000    0.000    0.000    0.538 
#    0.000    0.000    0.000    0.000    0.000    0.000 
#
# Total GULP energy -144834.526148 kJ/mol
# GULP energy per Si atom -5570.558698 kJ/mol
# Density = 1.632485 g / cm^3
# Si number density = 16.362088 Si / 1000 Ang^3
#
#
#
# Elastic Constant Matrix: (Units=GPa)
#
#
# Indices 1 2 3 4 5 6 
#
# 1 50.9771 12.1234 18.9210 0.0000 0.0000 0.0000
# 2 12.1234 108.0310 10.1029 0.0000 0.0000 0.0000
# 3 18.9210 10.1029 65.6016 0.0000 0.0000 0.0000
# 4 0.0000 0.0000 0.0000 14.0436 0.0000 0.0000
# 5 0.0000 0.0000 0.0000 0.0000 23.4259 0.0000
# 6 0.0000 0.0000 0.0000 0.0000 0.0000 12.0560
#
#
#
# Elastic Compliance Matrix: (Units=1/GPa)
#
#
# Indices 1 2 3 4 5 6 
#
# 1 0.022360 -0.001934 -0.006151 0.000000 0.000000 0.000000
# 2 -0.001934 0.009559 -0.000914 0.000000 0.000000 0.000000
# 3 -0.006151 -0.000914 0.017159 0.000000 0.000000 0.000000
# 4 0.000000 0.000000 0.000000 0.071207 0.000000 0.000000
# 5 0.000000 0.000000 0.000000 0.000000 0.042688 0.000000
# 6 0.000000 0.000000 0.000000 0.000000 0.000000 0.082946
#
#
# Mechanical properties :
#
#
# Convention : Reuss Voigt Hill
#
# Bulk Modulus (GPa) = 32.17682 34.10048 33.13865
# Shear Modulus (GPa) = 18.22978 22.13592 20.18285
#
# Velocity S-wave (km/s) = 3.34151 3.68214 3.51595
# Velocity P-wave (km/s) = 5.88181 6.24211 6.06464
#
# Compressibility (1/GPa) = 0.03107827
#
# Stress axis : x y z
#
# Youngs Moduli (GPa) = 44.72324 104.61188 58.28012
#
# Poissons Ratio (x) = 0.20232 0.35849
# Poissons Ratio (y) = 0.08649 0.05329
# Poissons Ratio (z) = 0.27510 0.09565
#
# Static dielectric constant tensor:
#      x y z
#    x 1.543600 0.000000 0.000000 
#    y 0.000000 1.568660 0.000000 
#    z 0.000000 0.000000 1.615480 
# 
# From -- ./inp_files/9790.got.cif
#   From: 2010.05.17/outbox.cif.g08.bks.cpg/sg44_5_cif.got.tgz:9790.got - 2010.06.03 19:37:08.
