data_PCOD9373674
_publ_section_title
;
Structure prediction by ZEFSAII (Michael W. Deem and Ramdas Pophale) SiO2 
 PCOD9373674
Probable space group: I M M 2
;
_chemical_formula_sum "Si O2"
_cell_formula_units_Z 48
_cell_length_a 7.878182
_cell_length_b 14.352164
_cell_length_c 24.503387
_cell_angle_alpha 90.000000
_cell_angle_beta 90.000000
_cell_angle_gamma 90.000000
_cell_volume 2770.572487
_symmetry_space_group_name_H-M "I M M 2"
_symmetry_group_IT_number 44
_symmetry_cell_setting 'orthorhombic'
loop_
_space_group_symop_operation_xyz
x,y,z
-x,-y,z
-x,y,z
x,-y,z
1/2+x,1/2+y,1/2+z
1/2-x,1/2-y,1/2+z
1/2-x,1/2+y,1/2+z
1/2+x,1/2-y,1/2+z
loop_
_atom_site_type_symbol
_atom_site_label
_atom_site_fract_x
_atom_site_fract_y
_atom_site_fract_z
Si Si1 0.292324 0.393358 0.791120
Si Si2 0.299954 0.722804 0.690053
Si Si3 0.204517 0.105775 0.415094
Si Si4 0.299541 0.105512 0.085399
Si Si5 0.708141 0.105822 0.622876
Si Si6 0.201386 0.276990 0.018465
O O1 0.500000 0.391739 0.790413
O O2 0.242854 0.500000 0.778504
O O3 0.228401 0.323851 0.744575
O O4 0.239334 0.372397 0.853210
O O5 0.500000 0.736407 0.699727
O O6 0.281800 0.652688 0.638861
O O7 0.231903 0.821923 0.669108
O O8 0.257462 0.180387 0.459928
O O9 0.000000 0.103207 0.414491
O O10 0.263582 0.000000 0.428757
O O11 0.500000 0.102243 0.095702
O O12 0.270482 0.175814 0.035068
O O13 0.237811 0.000000 0.076553
O O14 0.500000 0.105530 0.623276
O O15 0.762074 0.150405 0.565089
O O16 0.764947 0.000000 0.629208
O O17 0.000000 0.270506 0.023967
#
# Coordination Sequence:
#
# PCOD9373674 Si02
#       6
#     8   8   8   8   8   8
#     4   8  14  25  42  64  89 118 152 187 223 266
#     4   9  16  27  46  68  89 119 155 187 220 262
#     4   9  17  29  45  65  91 123 154 186 228 273
#     4  10  20  32  46  66  92 118 144 182 232 279
#     4   8  14  24  39  62  89 112 138 177 221 259
#     4  10  19  30  46  66  88 117 151 188 228 270
#
# _framework density 17.324939000000001
#
# number of rings (size 3 to 8) (size 9 to 14) (size 15 to 20)
#    0.000    3.000    0.000    4.000    0.000    3.000 
#    0.000    0.833    0.000    6.500    0.000    4.667 
#    0.000    0.000    0.000    0.000    0.000    0.000 
#
# Total GULP energy -133731.118660 kJ/mol
# GULP energy per Si atom -5572.129944 kJ/mol
# Density = 1.728551 g / cm^3
# Si number density = 17.324939 Si / 1000 Ang^3
#
#
#
# Elastic Constant Matrix: (Units=GPa)
#
#
# Indices 1 2 3 4 5 6 
#
# 1 15.1897 -1.3351 -7.1843 0.0000 0.0000 0.0000
# 2 -1.3351 154.8645 70.2743 0.0000 0.0000 0.0000
# 3 -7.1843 70.2743 92.2010 0.0000 0.0000 0.0000
# 4 0.0000 0.0000 0.0000 26.6022 0.0000 0.0000
# 5 0.0000 0.0000 0.0000 0.0000 16.2416 0.0000
# 6 0.0000 0.0000 0.0000 0.0000 0.0000 9.7298
#
#
#
# Elastic Compliance Matrix: (Units=1/GPa)
#
#
# Indices 1 2 3 4 5 6 
#
# 1 0.069153 -0.002827 0.007543 0.000000 0.000000 0.000000
# 2 -0.002827 0.009987 -0.007832 0.000000 0.000000 0.000000
# 3 0.007543 -0.007832 0.017403 0.000000 0.000000 0.000000
# 4 0.000000 0.000000 0.000000 0.037591 0.000000 0.000000
# 5 0.000000 0.000000 0.000000 0.000000 0.061570 0.000000
# 6 0.000000 0.000000 0.000000 0.000000 0.000000 0.102777
#
#
# Mechanical properties :
#
#
# Convention : Reuss Voigt Hill
#
# Bulk Modulus (GPa) = 11.07281 42.86279 26.96780
# Shear Modulus (GPa) = 14.93352 23.88141 19.40746
#
# Velocity S-wave (km/s) = 2.93911 3.71676 3.35058
# Velocity P-wave (km/s) = 4.23355 6.57369 5.52885
#
# Compressibility (1/GPa) = 0.09031128
#
# Stress axis : x y z
#
# Youngs Moduli (GPa) = 14.46068 100.13048 57.46077
#
# Poissons Ratio (x) = 0.28303 -0.43342
# Poissons Ratio (y) = 0.04087 0.45004
# Poissons Ratio (z) = -0.10907 0.78424
#
# Static dielectric constant tensor:
#      x y z
#    x 1.632480 0.000000 0.000000 
#    y 0.000000 1.592590 0.000000 
#    z 0.000000 0.000000 1.584410 
# 
# From -- ./inp_files/24018.got.cif
#   From: 2010.05.17/outbox.cif.g08.bks.cpg/sg44_13_cif.got.tgz:24018.got - 2010.06.03 19:37:08.
