data_PCOD9373841
_publ_section_title
;
Structure prediction by ZEFSAII (Michael W. Deem and Ramdas Pophale) SiO2 
 PCOD9373841
Probable space group: I M M 2
;
_chemical_formula_sum "Si O2"
_cell_formula_units_Z 64
_cell_length_a 8.419359
_cell_length_b 16.060593
_cell_length_c 23.665304
_cell_angle_alpha 90.000000
_cell_angle_beta 90.000000
_cell_angle_gamma 90.000000
_cell_volume 3200.019998
_symmetry_space_group_name_H-M "I M M 2"
_symmetry_group_IT_number 44
_symmetry_cell_setting 'orthorhombic'
loop_
_space_group_symop_operation_xyz
x,y,z
-x,-y,z
-x,y,z
x,-y,z
1/2+x,1/2+y,1/2+z
1/2-x,1/2-y,1/2+z
1/2-x,1/2+y,1/2+z
1/2+x,1/2-y,1/2+z
loop_
_atom_site_type_symbol
_atom_site_label
_atom_site_fract_x
_atom_site_fract_y
_atom_site_fract_z
Si Si1 0.679752 0.401968 0.050810
Si Si2 0.811245 0.273767 0.400558
Si Si3 0.814040 0.596534 0.931157
Si Si4 0.809277 0.854438 0.117735
Si Si5 0.691330 0.587931 0.741384
Si Si6 0.308984 0.769015 0.777634
Si Si7 0.313773 0.319361 0.160896
Si Si8 0.191293 0.093535 0.991496
O O1 0.500000 0.365178 0.044034
O O2 0.662390 0.500000 0.049040
O O3 0.747066 0.379339 0.111772
O O4 0.787531 0.381658 0.997419
O O5 0.771416 0.174917 0.402536
O O6 0.754243 0.301946 0.338221
O O7 0.742835 0.331920 0.450051
O O8 0.000000 0.281732 0.404148
O O9 0.756914 0.500000 0.921594
O O10 0.000000 0.598158 0.917635
O O11 0.783021 0.909211 0.173754
O O12 0.718712 0.770254 0.132943
O O13 0.000000 0.838217 0.115797
O O14 0.761029 0.889391 0.056844
O O15 0.500000 0.588477 0.749697
O O16 0.753855 0.500000 0.764501
O O17 0.752745 0.674409 0.766846
O O18 0.500000 0.764365 0.779331
O O19 0.263580 0.820521 0.722266
O O20 0.500000 0.334371 0.168261
O O21 0.000000 0.092231 0.991169
O O22 0.246879 0.000000 0.975002
#
# Coordination Sequence:
#
# PCOD9373841 Si02
#       8
#     8   8   8   8   8   8   8   8
#     4   9  18  33  52  76 106 136 169 213 266 325
#     4  11  23  38  56  78 108 148 190 231 275 323
#     4  10  21  36  56  84 115 146 181 222 270 325
#     4   9  17  30  50  76 106 135 164 204 257 322
#     4   8  13  25  48  74  96 120 155 200 246 297
#     4   9  20  36  52  71  97 134 179 220 260 314
#     4  10  19  31  51  77 103 133 169 213 267 319
#     4  10  21  37  58  83 109 142 186 232 277 325
#
# _framework density 19.999876
#
# number of rings (size 3 to 8) (size 9 to 14) (size 15 to 20)
#    0.000    2.500    0.000    3.000    0.000    7.500 
#    0.000    1.875    0.000   11.250    0.000    0.000 
#    0.000    0.000    0.000    0.000    0.000    0.000 
#
# Total GULP energy -178257.939371 kJ/mol
# GULP energy per Si atom -5570.560605 kJ/mol
# Density = 1.995436 g / cm^3
# Si number density = 19.999876 Si / 1000 Ang^3
#
#
#
# Elastic Constant Matrix: (Units=GPa)
#
#
# Indices 1 2 3 4 5 6 
#
# 1 3.2215 5.9770 6.0048 0.0000 0.0000 0.0000
# 2 5.9770 26.6668 20.1538 0.0000 0.0000 0.0000
# 3 6.0048 20.1538 92.9015 0.0000 0.0000 0.0000
# 4 0.0000 0.0000 0.0000 -3.3683 0.0000 0.0000
# 5 0.0000 0.0000 0.0000 0.0000 20.1545 0.0000
# 6 0.0000 0.0000 0.0000 0.0000 0.0000 14.2723
#
#
#
# Elastic Compliance Matrix: (Units=1/GPa)
#
#
# Indices 1 2 3 4 5 6 
#
# 1 0.539566 -0.113126 -0.010334 0.000000 0.000000 0.000000
# 2 -0.113126 0.068572 -0.007564 0.000000 0.000000 0.000000
# 3 -0.010334 -0.007564 0.013073 0.000000 0.000000 0.000000
# 4 0.000000 0.000000 0.000000 -0.296888 0.000000 0.000000
# 5 0.000000 0.000000 0.000000 0.000000 0.049617 0.000000
# 6 0.000000 0.000000 0.000000 0.000000 0.000000 0.070066
#
#
# Mechanical properties :
#
#
# Convention : Reuss Voigt Hill
#
# Bulk Modulus (GPa) = 2.78425 20.78455 11.78440
# Shear Modulus (GPa) = 6.05492 12.25532 9.15512
#
# Velocity S-wave (km/s) = 1.74185 2.47810 2.14185
# Velocity P-wave (km/s) = 2.33250 4.31311 3.46724
#
# Compressibility (1/GPa) = 0.35916260
#
# Stress axis : x y z
#
# Youngs Moduli (GPa) = 1.85334 14.58324 76.49403
#
# Poissons Ratio (x) = 1.64975 0.79051
# Poissons Ratio (y) = 0.20966 0.57858
# Poissons Ratio (z) = 0.01915 0.11030
#
# Static dielectric constant tensor:
#      x y z
#    x 1.704230 0.000000 0.000000 
#    y 0.000000 1.778170 0.000000 
#    z 0.000000 0.000000 1.736950 
# 
# From -- ./inp_files/25155.got.cif
#   From: 2010.05.17/outbox.cif.g08.bks.cpg/sg44_13_cif.got.tgz:25155.got - 2010.06.03 19:37:08.
