data_PCOD9373840
_publ_section_title
;
Structure prediction by ZEFSAII (Michael W. Deem and Ramdas Pophale) SiO2 
 PCOD9373840
Probable space group: I M M 2
;
_chemical_formula_sum "Si O2"
_cell_formula_units_Z 64
_cell_length_a 17.881429
_cell_length_b 9.163271
_cell_length_c 21.004440
_cell_angle_alpha 90.000000
_cell_angle_beta 90.000000
_cell_angle_gamma 90.000000
_cell_volume 3441.627480
_symmetry_space_group_name_H-M "I M M 2"
_symmetry_group_IT_number 44
_symmetry_cell_setting 'orthorhombic'
loop_
_space_group_symop_operation_xyz
x,y,z
-x,-y,z
-x,y,z
x,-y,z
1/2+x,1/2+y,1/2+z
1/2-x,1/2-y,1/2+z
1/2-x,1/2+y,1/2+z
1/2+x,1/2-y,1/2+z
loop_
_atom_site_type_symbol
_atom_site_label
_atom_site_fract_x
_atom_site_fract_y
_atom_site_fract_z
Si Si1 0.581224 0.822499 0.542030
Si Si2 0.627345 0.825751 0.402899
Si Si3 0.793708 0.323876 0.141039
Si Si4 0.416732 0.825115 0.004790
Si Si5 0.378683 0.668419 0.274358
Si Si6 0.132553 0.325594 0.646154
Si Si7 0.305480 0.327799 0.908642
Si Si8 0.196569 0.666731 0.282093
O O1 0.500000 0.776539 0.566558
O O2 0.590041 0.778147 0.468715
O O3 0.649987 0.776978 0.585830
O O4 0.583287 0.000000 0.542253
O O5 0.598555 0.745791 0.339878
O O6 0.716331 0.798551 0.412405
O O7 0.617473 0.000000 0.394733
O O8 0.779741 0.500000 0.136961
O O9 0.716001 0.238694 0.137497
O O10 0.829238 0.297486 0.210767
O O11 0.500000 0.781145 0.983349
O O12 0.408557 0.792601 0.079914
O O13 0.409923 0.000000 0.998139
O O14 0.352544 0.750409 0.963374
O O15 0.401556 0.500000 0.272189
O O16 0.400221 0.751602 0.209742
O O17 0.287331 0.672579 0.276788
O O18 0.134675 0.500000 0.655067
O O19 0.316042 0.500000 0.913794
O O20 0.328557 0.269810 0.838967
O O21 0.176169 0.500000 0.297616
#
# Coordination Sequence:
#
# PCOD9373840 Si02
#       8
#     8   8   8   8   8   8   8   8
#     4   9  17  30  49  73 101 134 171 206 239 282
#     4   9  17  30  50  76 103 130 163 204 246 287
#     4   9  17  31  52  77 103 130 164 205 245 287
#     4  10  22  38  52  69  97 131 165 202 245 296
#     4   9  17  30  50  75 101 128 161 202 245 291
#     4  10  19  32  53  77  98 124 161 203 248 297
#     4  10  19  31  51  76  99 125 160 204 249 292
#     4   8  15  28  47  72 100 127 157 197 243 290
#
# _framework density 18.595853000000002
#
# number of rings (size 3 to 8) (size 9 to 14) (size 15 to 20)
#    0.000    2.750    0.000    2.625    0.000    5.750 
#    0.000    1.875    0.000    7.500    0.000    0.000 
#    0.000    0.000    0.000    0.000    0.000    0.000 
#
# Total GULP energy -178451.311023 kJ/mol
# GULP energy per Si atom -5576.603469 kJ/mol
# Density = 1.855353 g / cm^3
# Si number density = 18.595853 Si / 1000 Ang^3
#
#
#
# Elastic Constant Matrix: (Units=GPa)
#
#
# Indices 1 2 3 4 5 6 
#
# 1 41.9641 23.6260 25.9996 0.0000 0.0000 0.0000
# 2 23.6260 42.9229 32.7455 0.0000 0.0000 0.0000
# 3 25.9996 32.7455 90.4839 0.0000 0.0000 0.0000
# 4 0.0000 0.0000 0.0000 30.8351 0.0000 0.0000
# 5 0.0000 0.0000 0.0000 0.0000 -14.3115 0.0000
# 6 0.0000 0.0000 0.0000 0.0000 0.0000 8.7346
#
#
#
# Elastic Compliance Matrix: (Units=1/GPa)
#
#
# Indices 1 2 3 4 5 6 
#
# 1 0.035729 -0.016347 -0.004350 0.000000 0.000000 0.000000
# 2 -0.016347 0.039662 -0.009656 0.000000 0.000000 0.000000
# 3 -0.004350 -0.009656 0.015796 0.000000 0.000000 0.000000
# 4 0.000000 0.000000 0.000000 0.032431 0.000000 0.000000
# 5 0.000000 0.000000 0.000000 0.000000 -0.069874 0.000000
# 6 0.000000 0.000000 0.000000 0.000000 0.000000 0.114487
#
#
# Mechanical properties :
#
#
# Convention : Reuss Voigt Hill
#
# Bulk Modulus (GPa) = 32.80891 37.79034 35.29963
# Shear Modulus (GPa) = 20.91188 11.25163 16.08176
#
# Velocity S-wave (km/s) = 3.35706 2.46247 2.94394
# Velocity P-wave (km/s) = 5.71908 5.33395 5.52987
#
# Compressibility (1/GPa) = 0.03047953
#
# Stress axis : x y z
#
# Youngs Moduli (GPa) = 27.98860 25.21281 63.30606
#
# Poissons Ratio (x) = 0.41216 0.27540
# Poissons Ratio (y) = 0.45754 0.61130
# Poissons Ratio (z) = 0.12176 0.24346
#
# Static dielectric constant tensor:
#      x y z
#    x 1.632710 0.000000 0.000000 
#    y 0.000000 1.621740 0.000000 
#    z 0.000000 0.000000 1.649480 
# 
# From -- ./inp_files/24366.got.cif
#   From: 2010.05.17/outbox.cif.g08.bks.cpg/sg44_13_cif.got.tgz:24366.got - 2010.06.03 19:37:08.
