data_PCOD9373191
_publ_section_title
;
Structure prediction by ZEFSAII (Michael W. Deem and Ramdas Pophale) SiO2 
 PCOD9373191
Probable space group: I M M 2
;
_chemical_formula_sum "Si O2"
_cell_formula_units_Z 56
_cell_length_a 9.333930
_cell_length_b 22.211617
_cell_length_c 18.163862
_cell_angle_alpha 90.000000
_cell_angle_beta 90.000000
_cell_angle_gamma 90.000000
_cell_volume 3765.762354
_symmetry_space_group_name_H-M "I M M 2"
_symmetry_group_IT_number 44
_symmetry_cell_setting 'orthorhombic'
loop_
_space_group_symop_operation_xyz
x,y,z
-x,-y,z
-x,y,z
x,-y,z
1/2+x,1/2+y,1/2+z
1/2-x,1/2-y,1/2+z
1/2-x,1/2+y,1/2+z
1/2+x,1/2-y,1/2+z
loop_
_atom_site_type_symbol
_atom_site_label
_atom_site_fract_x
_atom_site_fract_y
_atom_site_fract_z
Si Si1 0.331277 0.709728 0.735980
Si Si2 0.331176 0.149312 0.774776
Si Si3 0.829120 0.929935 0.654588
Si Si4 0.336127 0.677315 0.415547
Si Si5 0.828938 0.157859 0.520941
Si Si6 0.665042 0.820400 0.376655
Si Si7 0.327833 0.279544 0.569692
O O1 0.500000 0.698330 0.748922
O O2 0.309012 0.781700 0.747220
O O3 0.237961 0.675873 0.796909
O O4 0.296650 0.696264 0.651058
O O5 0.500000 0.138023 0.775611
O O6 0.252643 0.104956 0.718961
O O7 0.265544 0.146099 0.856600
O O8 0.800518 0.896146 0.577576
O O9 0.000000 0.925321 0.667784
O O10 0.790036 0.000000 0.651655
O O11 0.500000 0.656623 0.406227
O O12 0.333336 0.748878 0.396645
O O13 0.295764 0.676013 0.501614
O O14 0.755880 0.149130 0.441559
O O15 0.758715 0.218115 0.555531
O O16 0.000000 0.165828 0.513060
O O17 0.500000 0.839865 0.376560
O O18 0.500000 0.266536 0.566277
#
# Coordination Sequence:
#
# PCOD9373191 Si02
#       7
#     8   8   8   8   8   8   8
#     4   9  16  26  41  62  88 113 141 173 207 249
#     4  10  18  28  43  60  82 110 142 180 216 248
#     4  10  21  34  46  61  82 111 148 185 219 257
#     4   8  15  26  40  57  81 112 141 167 204 253
#     4  10  18  28  43  59  79 109 144 179 216 253
#     4   9  17  27  40  58  82 111 142 172 208 254
#     4   9  16  27  42  62  87 114 141 172 208 249
#
# _framework density 14.870825999999999
#
# number of rings (size 3 to 8) (size 9 to 14) (size 15 to 20)
#    0.000    2.714    1.429    2.143    0.000    5.429 
#    0.000    0.000    0.000    0.000    0.000    0.000 
#    0.000    1.143    0.000    9.143    0.000    4.143 
#
# Total GULP energy -155952.725670 kJ/mol
# GULP energy per Si atom -5569.740202 kJ/mol
# Density = 1.483698 g / cm^3
# Si number density = 14.870826 Si / 1000 Ang^3
#
#
#
# Elastic Constant Matrix: (Units=GPa)
#
#
# Indices 1 2 3 4 5 6 
#
# 1 69.9902 37.1272 75.8397 0.0000 0.0000 0.0000
# 2 37.1272 38.4967 37.0244 0.0000 0.0000 0.0000
# 3 75.8397 37.0244 164.0467 0.0000 0.0000 0.0000
# 4 0.0000 0.0000 0.0000 9.9027 0.0000 0.0000
# 5 0.0000 0.0000 0.0000 0.0000 27.3177 0.0000
# 6 0.0000 0.0000 0.0000 0.0000 0.0000 12.2288
#
#
#
# Elastic Compliance Matrix: (Units=1/GPa)
#
#
# Indices 1 2 3 4 5 6 
#
# 1 0.046203 -0.030674 -0.014437 0.000000 0.000000 0.000000
# 2 -0.030674 0.053543 0.002097 0.000000 0.000000 0.000000
# 3 -0.014437 0.002097 0.012297 0.000000 0.000000 0.000000
# 4 0.000000 0.000000 0.000000 0.100982 0.000000 0.000000
# 5 0.000000 0.000000 0.000000 0.000000 0.036606 0.000000
# 6 0.000000 0.000000 0.000000 0.000000 0.000000 0.081774
#
#
# Mechanical properties :
#
#
# Convention : Reuss Voigt Hill
#
# Bulk Modulus (GPa) = 38.44165 63.61289 51.02727
# Shear Modulus (GPa) = 11.73420 18.05934 14.89677
#
# Velocity S-wave (km/s) = 2.81210 3.48862 3.16847
# Velocity P-wave (km/s) = 6.03741 7.68747 6.91186
#
# Compressibility (1/GPa) = 0.02601345
#
# Stress axis : x y z
#
# Youngs Moduli (GPa) = 21.64385 18.67658 81.32204
#
# Poissons Ratio (x) = 0.57289 1.17402
# Poissons Ratio (y) = 0.66391 -0.17050
# Poissons Ratio (z) = 0.31246 -0.03916
#
# Static dielectric constant tensor:
#      x y z
#    x 1.496520 0.000000 0.000000 
#    y 0.000000 1.451370 0.000000 
#    z 0.000000 0.000000 1.515990 
# 
# From -- ./inp_files/20635.got.cif
#   From: 2010.05.17/outbox.cif.g08.bks.cpg/sg44_11_cif.got.tgz:20635.got - 2010.06.03 19:37:08.
