data_PCOD9373553
_publ_section_title
;
Structure prediction by ZEFSAII (Michael W. Deem and Ramdas Pophale) SiO2 
 PCOD9373553
Probable space group: I M M 2
;
_chemical_formula_sum "Si O2"
_cell_formula_units_Z 48
_cell_length_a 7.700567
_cell_length_b 22.374922
_cell_length_c 12.231803
_cell_angle_alpha 90.000000
_cell_angle_beta 90.000000
_cell_angle_gamma 90.000000
_cell_volume 2107.534593
_symmetry_space_group_name_H-M "I M M 2"
_symmetry_group_IT_number 44
_symmetry_cell_setting 'orthorhombic'
loop_
_space_group_symop_operation_xyz
x,y,z
-x,-y,z
-x,y,z
x,-y,z
1/2+x,1/2+y,1/2+z
1/2-x,1/2-y,1/2+z
1/2-x,1/2+y,1/2+z
1/2+x,1/2-y,1/2+z
loop_
_atom_site_type_symbol
_atom_site_label
_atom_site_fract_x
_atom_site_fract_y
_atom_site_fract_z
Si Si1 0.789510 0.000000 0.250000
Si Si2 0.798703 0.432594 0.148963
Si Si3 0.210310 0.320413 0.282487
Si Si4 0.287235 0.131969 0.008768
Si Si5 0.299005 0.604612 0.912098
Si Si6 0.703157 0.189407 0.234460
Si Si7 0.196542 0.500000 0.502960
O O1 0.740016 0.057038 0.321457
O O2 0.697238 0.000000 0.134655
O O3 0.000000 0.000000 0.233057
O O4 0.724091 0.500000 0.153532
O O5 0.722633 0.380489 0.224174
O O6 0.000000 0.437908 0.181814
O O7 0.794106 0.407517 0.025479
O O8 0.259843 0.324297 0.409964
O O9 0.272881 0.260172 0.225615
O O10 0.000000 0.319956 0.276630
O O11 0.500000 0.129100 0.013470
O O12 0.226130 0.155115 0.127057
O O13 0.225595 0.064948 0.977943
O O14 0.500000 0.592300 0.935459
O O15 0.282870 0.666926 0.848727
O O16 0.500000 0.175744 0.240938
O O17 0.000000 0.500000 0.458186
#
# Coordination Sequence:
#
# PCOD9373553 Si02
#       7
#     4   8   8   8   8   8   4
#     4  10  20  34  53  86 122 154 191 239 298 355
#     4  10  22  39  62  91 122 157 202 253 300 356
#     4  10  23  42  61  87 121 162 200 241 296 357
#     4   9  20  37  61  88 116 150 194 241 293 350
#     4  11  22  38  60  87 122 161 201 248 303 360
#     4  11  23  40  61  90 120 156 202 248 298 357
#     4  10  18  34  61  88 114 150 193 243 290 345
#
# _framework density 22.775427000000001
#
# number of rings (size 3 to 8) (size 9 to 14) (size 15 to 20)
#    0.000    1.833    2.500    1.000    3.500    1.333 
#    0.000    1.667    0.000    0.000    0.000    0.000 
#    0.000    0.000    0.000    0.000    0.000    0.000 
#
# Total GULP energy -134053.829628 kJ/mol
# GULP energy per Si atom -5585.576235 kJ/mol
# Density = 2.272359 g / cm^3
# Si number density = 22.775427 Si / 1000 Ang^3
#
#
#
# Elastic Constant Matrix: (Units=GPa)
#
#
# Indices 1 2 3 4 5 6 
#
# 1 43.1322 -3.1041 -4.7821 0.0000 0.0000 0.0000
# 2 -3.1041 136.6280 33.3836 0.0001 0.0000 0.0000
# 3 -4.7821 33.3836 51.2071 0.0003 0.0000 0.0000
# 4 0.0000 0.0001 0.0003 32.1612 0.0000 0.0000
# 5 0.0000 0.0000 0.0000 0.0000 -3.4229 0.0000
# 6 0.0000 0.0000 0.0000 0.0000 0.0000 21.3335
#
#
#
# Elastic Compliance Matrix: (Units=1/GPa)
#
#
# Indices 1 2 3 4 5 6 
#
# 1 0.023427 -0.000003 0.002190 0.000000 0.000000 0.000000
# 2 -0.000003 0.008706 -0.005676 0.000000 0.000000 0.000000
# 3 0.002190 -0.005676 0.023433 0.000000 0.000000 0.000000
# 4 0.000000 0.000000 0.000000 0.031093 0.000000 0.000000
# 5 0.000000 0.000000 0.000000 0.000000 -0.292150 0.000000
# 6 0.000000 0.000000 0.000000 0.000000 0.000000 0.046875
#
#
# Mechanical properties :
#
#
# Convention : Reuss Voigt Hill
#
# Bulk Modulus (GPa) = 20.58114 31.32912 25.95513
# Shear Modulus (GPa) = -36.91621 23.71236 -6.60193
#
# Velocity S-wave (km/s) = -4.03038 3.23017 -1.70441
# Velocity P-wave (km/s) = 3.55000 5.26284 2.74727
#
# Compressibility (1/GPa) = 0.04858817
#
# Stress axis : x y z
#
# Youngs Moduli (GPa) = 42.68561 114.86421 42.67424
#
# Poissons Ratio (x) = 0.00032 -0.09344
# Poissons Ratio (y) = 0.00012 0.24222
# Poissons Ratio (z) = -0.09346 0.65196
#
# Static dielectric constant tensor:
#      x y z
#    x 1.870690 0.000000 0.000000 
#    y 0.000000 1.870740 0.000000 
#    z 0.000000 0.000000 1.820930 
# 
# From -- ./inp_files/16216.got.cif
#   From: 2010.05.17/outbox.cif.g08.bks.cpg/sg44_9_cif.got.tgz:16216.got - 2010.06.03 19:37:08.
