data_PCOD9373150
_publ_section_title
;
Structure prediction by ZEFSAII (Michael W. Deem and Ramdas Pophale) SiO2 
 PCOD9373150
Probable space group: I M M 2
;
_chemical_formula_sum "Si O2"
_cell_formula_units_Z 58
_cell_length_a 15.288145
_cell_length_b 18.032325
_cell_length_c 9.827993
_cell_angle_alpha 90.000000
_cell_angle_beta 90.000000
_cell_angle_gamma 90.000000
_cell_volume 2709.388966
_symmetry_space_group_name_H-M "I M M 2"
_symmetry_group_IT_number 44
_symmetry_cell_setting 'orthorhombic'
loop_
_space_group_symop_operation_xyz
x,y,z
-x,-y,z
-x,y,z
x,-y,z
1/2+x,1/2+y,1/2+z
1/2-x,1/2-y,1/2+z
1/2-x,1/2+y,1/2+z
1/2+x,1/2-y,1/2+z
loop_
_atom_site_type_symbol
_atom_site_label
_atom_site_fract_x
_atom_site_fract_y
_atom_site_fract_z
Si Si1 0.906063 0.085554 0.480500
Si Si2 0.500000 0.000000 0.784251
Si Si3 0.340457 0.108550 0.718980
Si Si4 0.398183 0.263024 0.651302
Si Si5 0.602141 0.420087 0.582885
Si Si6 0.787488 0.413554 0.906267
Si Si7 0.353473 0.617515 0.278967
Si Si8 0.101614 0.281375 0.831554
O O1 0.812445 0.113775 0.428591
O O2 0.897882 0.086435 0.643942
O O3 0.000000 0.120360 0.443028
O O4 0.908648 0.000000 0.435750
O O5 0.577574 0.935754 0.775812
O O6 0.353166 0.197084 0.731704
O O7 0.330277 0.088963 0.558258
O O8 0.246689 0.091471 0.782894
O O9 0.500000 0.265229 0.690020
O O10 0.360225 0.346016 0.650628
O O11 0.396260 0.238165 0.492710
O O12 0.500000 0.422396 0.621199
O O13 0.642146 0.500000 0.615530
O O14 0.604716 0.407118 0.420580
O O15 0.789747 0.500000 0.863349
O O16 0.842211 0.355924 0.815781
O O17 0.361112 0.706810 0.264229
O O18 0.000000 0.291650 0.792762
#
# Coordination Sequence:
#
# PCOD9373150 Si02
#       8
#     8   2   8   8   8   8   8   8
#     4   9  16  26  42  64  91 117 143 176 221 271
#     4  12  20  28  44  68  88 124 148 178 244 280
#     4  10  19  27  43  63  91 116 147 186 224 279
#     4   8  14  27  40  58  84 114 143 176 216 256
#     4   9  16  25  42  65  89 112 138 171 218 269
#     4   9  17  27  43  69  88 114 151 192 228 270
#     4  10  18  27  40  63  92 117 143 181 226 273
#     4   9  17  27  43  62  89 121 148 181 229 273
#
# _framework density 21.407039999999999
#
# number of rings (size 3 to 8) (size 9 to 14) (size 15 to 20)
#    0.000    2.759    1.379    2.483    2.897    1.379 
#    0.000    0.000    1.517    0.828    0.000    0.000 
#    0.000    0.000    0.000    0.000    0.000    0.000 
#
# Total GULP energy -161506.099016 kJ/mol
# GULP energy per Si atom -5569.175828 kJ/mol
# Density = 2.135832 g / cm^3
# Si number density = 21.407040 Si / 1000 Ang^3
#
#
#
# Elastic Constant Matrix: (Units=GPa)
#
#
# Indices 1 2 3 4 5 6 
#
# 1 135.7419 49.2550 0.1229 0.0000 0.0000 0.0000
# 2 49.2550 169.1175 11.5406 0.0000 0.0000 0.0000
# 3 0.1229 11.5406 48.3187 0.0000 0.0000 0.0000
# 4 0.0000 0.0000 0.0000 6.7108 0.0000 0.0000
# 5 0.0000 0.0000 0.0000 0.0000 2.5381 0.0000
# 6 0.0000 0.0000 0.0000 0.0000 0.0000 18.2250
#
#
#
# Elastic Compliance Matrix: (Units=1/GPa)
#
#
# Indices 1 2 3 4 5 6 
#
# 1 0.008252 -0.002442 0.000562 0.000000 0.000000 0.000000
# 2 -0.002442 0.006734 -0.001602 0.000000 0.000000 0.000000
# 3 0.000562 -0.001602 0.021077 0.000000 0.000000 0.000000
# 4 0.000000 0.000000 0.000000 0.149013 0.000000 0.000000
# 5 0.000000 0.000000 0.000000 0.000000 0.394000 0.000000
# 6 0.000000 0.000000 0.000000 0.000000 0.000000 0.054870
#
#
# Mechanical properties :
#
#
# Convention : Reuss Voigt Hill
#
# Bulk Modulus (GPa) = 34.36453 52.77945 43.57199
# Shear Modulus (GPa) = 7.68510 24.97876 16.33193
#
# Velocity S-wave (km/s) = 1.89678 3.41962 2.76510
# Velocity P-wave (km/s) = 4.56999 6.34826 5.53106
#
# Compressibility (1/GPa) = 0.02909978
#
# Stress axis : x y z
#
# Youngs Moduli (GPa) = 121.17592 148.50986 47.44477
#
# Poissons Ratio (x) = 0.36264 -0.02667
# Poissons Ratio (y) = 0.29590 0.07601
# Poissons Ratio (z) = -0.06813 0.23792
#
# Static dielectric constant tensor:
#      x y z
#    x 1.760830 0.000000 0.000000 
#    y 0.000000 1.837300 0.000000 
#    z 0.000000 0.000000 1.765510 
# 
# From -- ./inp_files/13380.got.cif
#   From: 2010.05.17/outbox.cif.g08.bks.cpg/sg44_7_cif.got.tgz:13380.got - 2010.06.03 19:37:08.
