data_PCOD9373568
_publ_section_title
;
Structure prediction by ZEFSAII (Michael W. Deem and Ramdas Pophale) SiO2 
 PCOD9373568
Probable space group: I M M 2
;
_chemical_formula_sum "Si O2"
_cell_formula_units_Z 48
_cell_length_a 7.714787
_cell_length_b 16.685628
_cell_length_c 20.294510
_cell_angle_alpha 90.000000
_cell_angle_beta 90.000000
_cell_angle_gamma 90.000000
_cell_volume 2612.432433
_symmetry_space_group_name_H-M "I M M 2"
_symmetry_group_IT_number 44
_symmetry_cell_setting 'orthorhombic'
loop_
_space_group_symop_operation_xyz
x,y,z
-x,-y,z
-x,y,z
x,-y,z
1/2+x,1/2+y,1/2+z
1/2-x,1/2-y,1/2+z
1/2-x,1/2+y,1/2+z
1/2+x,1/2-y,1/2+z
loop_
_atom_site_type_symbol
_atom_site_label
_atom_site_fract_x
_atom_site_fract_y
_atom_site_fract_z
Si Si1 0.794713 0.500000 0.073450
Si Si2 0.790272 0.000000 0.418042
Si Si3 0.291459 0.781664 0.993073
Si Si4 0.302926 0.795877 0.764522
Si Si5 0.500000 0.592283 0.472758
Si Si6 0.702034 0.324308 0.120794
Si Si7 0.790836 0.170407 0.368580
Si Si8 0.500000 0.408426 0.314066
O O1 0.726954 0.418350 0.106038
O O2 0.000000 0.500000 0.080624
O O3 0.750030 0.500000 0.995800
O O4 0.723931 0.081706 0.384532
O O5 0.000000 0.000000 0.413165
O O6 0.500000 0.797257 0.991739
O O7 0.171257 0.859608 0.995114
O O8 0.251693 0.725219 0.055508
O O9 0.244193 0.731132 0.927571
O O10 0.500000 0.812899 0.786860
O O11 0.299121 0.795365 0.685805
O O12 0.245711 0.713341 0.800052
O O13 0.169480 0.863194 0.787962
O O14 0.500000 0.500000 0.494537
O O15 0.500000 0.593305 0.393146
O O16 0.500000 0.310210 0.133787
O O17 0.000000 0.164021 0.370160
O O18 0.500000 0.500000 0.291316
#
# Coordination Sequence:
#
# PCOD9373568 Si02
#       8
#     4   4   8   8   4   8   8   4
#     4  12  24  34  52  94 132 159 196 244 307 368
#     4  10  18  36  62  88 120 157 198 247 298 361
#     4  10  21  38  62  89 120 155 198 255 308 359
#     4  11  23  40  59  85 122 165 201 243 297 362
#     4  11  24  40  66  90 114 155 209 256 301 358
#     4  11  23  39  60  87 122 167 202 245 307 367
#     4   9  18  35  60  86 116 158 200 243 300 355
#     4  11  24  40  58  88 118 157 199 246 299 356
#
# _framework density 18.373681000000001
#
# number of rings (size 3 to 8) (size 9 to 14) (size 15 to 20)
#    0.000    1.500    4.167    1.250    3.500    0.667 
#    1.500    1.667    1.833    0.000    0.000    0.000 
#    0.000    0.000    0.000    0.000    0.000    0.000 
#
# Total GULP energy -134008.291023 kJ/mol
# GULP energy per Si atom -5583.678793 kJ/mol
# Density = 1.833186 g / cm^3
# Si number density = 18.373681 Si / 1000 Ang^3
#
#
#
# Elastic Constant Matrix: (Units=GPa)
#
#
# Indices 1 2 3 4 5 6 
#
# 1 69.7789 33.1229 14.7102 0.0000 0.0000 0.0000
# 2 33.1229 136.7842 56.6050 0.0000 0.0000 0.0000
# 3 14.7102 56.6050 103.0046 0.0000 0.0000 0.0000
# 4 0.0000 0.0000 0.0000 20.8689 0.0000 0.0000
# 5 0.0000 0.0000 0.0000 0.0000 22.7533 0.0000
# 6 0.0000 0.0000 0.0000 0.0000 0.0000 21.9188
#
#
#
# Elastic Compliance Matrix: (Units=1/GPa)
#
#
# Indices 1 2 3 4 5 6 
#
# 1 0.016196 -0.003837 -0.000204 0.000000 0.000000 0.000000
# 2 -0.003837 0.010372 -0.005152 0.000000 0.000000 0.000000
# 3 -0.000204 -0.005152 0.012569 0.000000 0.000000 0.000000
# 4 0.000000 0.000000 0.000000 0.047918 0.000000 0.000000
# 5 0.000000 0.000000 0.000000 0.000000 0.043950 0.000000
# 6 0.000000 0.000000 0.000000 0.000000 0.000000 0.045623
#
#
# Mechanical properties :
#
#
# Convention : Reuss Voigt Hill
#
# Bulk Modulus (GPa) = 48.19385 57.60488 52.89936
# Shear Modulus (GPa) = 24.76106 26.78350 25.77228
#
# Velocity S-wave (km/s) = 3.67500 3.82214 3.74929
# Velocity P-wave (km/s) = 6.65539 7.13430 6.89900
#
# Compressibility (1/GPa) = 0.02074954
#
# Stress axis : x y z
#
# Youngs Moduli (GPa) = 61.74540 96.41387 79.56372
#
# Poissons Ratio (x) = 0.36997 0.01624
# Poissons Ratio (y) = 0.23694 0.40989
# Poissons Ratio (z) = 0.01261 0.49670
#
# Static dielectric constant tensor:
#      x y z
#    x 1.651250 0.000000 0.000000 
#    y 0.000000 1.629330 0.000000 
#    z 0.000000 0.000000 1.637140 
# 
# From -- ./inp_files/20354.got.cif
#   From: 2010.05.17/outbox.cif.g08.bks.cpg/sg44_11_cif.got.tgz:20354.got - 2010.06.03 19:37:08.
