data_PCOD9373350
_publ_section_title
;
Structure prediction by ZEFSAII (Michael W. Deem and Ramdas Pophale) SiO2 
 PCOD9373350
Probable space group: I M M 2
;
_chemical_formula_sum "Si O2"
_cell_formula_units_Z 64
_cell_length_a 7.795897
_cell_length_b 20.364879
_cell_length_c 21.357674
_cell_angle_alpha 90.000000
_cell_angle_beta 90.000000
_cell_angle_gamma 90.000000
_cell_volume 3390.797699
_symmetry_space_group_name_H-M "I M M 2"
_symmetry_group_IT_number 44
_symmetry_cell_setting 'orthorhombic'
loop_
_space_group_symop_operation_xyz
x,y,z
-x,-y,z
-x,y,z
x,-y,z
1/2+x,1/2+y,1/2+z
1/2-x,1/2-y,1/2+z
1/2-x,1/2+y,1/2+z
1/2+x,1/2-y,1/2+z
loop_
_atom_site_type_symbol
_atom_site_label
_atom_site_fract_x
_atom_site_fract_y
_atom_site_fract_z
Si Si1 0.698116 0.213271 0.971210
Si Si2 0.206564 0.207215 0.214425
Si Si3 0.299777 0.426332 0.514188
Si Si4 0.789051 0.710087 0.333736
Si Si5 0.291057 0.927876 0.632512
Si Si6 0.291554 0.072243 0.779706
Si Si7 0.297114 0.211467 0.594928
Si Si8 0.203990 0.573105 0.657654
O O1 0.500000 0.232176 0.971565
O O2 0.770999 0.229217 0.902867
O O3 0.711362 0.134822 0.981191
O O4 0.776737 0.250025 0.030423
O O5 0.266101 0.241601 0.278123
O O6 0.273461 0.246687 0.153462
O O7 0.251185 0.131443 0.204291
O O8 0.000000 0.211942 0.214431
O O9 0.500000 0.424849 0.497516
O O10 0.231813 0.500000 0.501236
O O11 0.285040 0.415587 0.589156
O O12 0.733045 0.635956 0.317087
O O13 0.000000 0.709638 0.334603
O O14 0.500000 0.929691 0.629212
O O15 0.248043 0.920102 0.706186
O O16 0.229411 0.863103 0.596634
O O17 0.229815 0.000000 0.611792
O O18 0.500000 0.071881 0.782560
O O19 0.232097 0.000000 0.801012
O O20 0.500000 0.206005 0.606663
O O21 0.255950 0.500000 0.678731
O O22 0.000000 0.573442 0.647922
#
# Coordination Sequence:
#
# PCOD9373350 Si02
#       8
#     8   8   8   8   8   8   8   8
#     4  11  22  33  48  72 106 138 169 210 254 303
#     4  10  18  31  53  76  99 131 172 211 248 297
#     4  10  20  34  51  71  99 137 177 210 245 299
#     4   9  18  31  45  69 103 136 167 203 246 293
#     4   8  13  23  44  74 100 120 152 203 251 287
#     4   8  12  21  40  66  95 123 152 188 233 283
#     4  10  18  30  51  75  99 129 168 211 252 298
#     4  10  20  33  51  77 105 129 161 210 263 308
#
# _framework density 18.874614000000001
#
# number of rings (size 3 to 8) (size 9 to 14) (size 15 to 20)
#    0.000    2.500    2.500    1.875    0.000    2.000 
#    0.000    2.500    0.000    1.125    0.000    3.500 
#    0.000    0.000    0.000    0.000    0.000    0.000 
#
# Total GULP energy -178469.112034 kJ/mol
# GULP energy per Si atom -5577.159751 kJ/mol
# Density = 1.883165 g / cm^3
# Si number density = 18.874614 Si / 1000 Ang^3
#
#
#
# Elastic Constant Matrix: (Units=GPa)
#
#
# Indices 1 2 3 4 5 6 
#
# 1 23.5530 1.8077 -0.2029 0.0000 0.0000 0.0000
# 2 1.8077 129.0593 67.3804 0.0000 0.0000 0.0000
# 3 -0.2029 67.3804 101.5207 0.0000 0.0000 0.0000
# 4 0.0000 0.0000 0.0000 21.8959 0.0000 0.0000
# 5 0.0000 0.0000 0.0000 0.0000 8.1748 0.0000
# 6 0.0000 0.0000 0.0000 0.0000 0.0000 8.9828
#
#
#
# Elastic Compliance Matrix: (Units=1/GPa)
#
#
# Indices 1 2 3 4 5 6 
#
# 1 0.042539 -0.000980 0.000735 0.000000 0.000000 0.000000
# 2 -0.000980 0.011880 -0.007887 0.000000 0.000000 0.000000
# 3 0.000735 -0.007887 0.015086 0.000000 0.000000 0.000000
# 4 0.000000 0.000000 0.000000 0.045671 0.000000 0.000000
# 5 0.000000 0.000000 0.000000 0.000000 0.122328 0.000000
# 6 0.000000 0.000000 0.000000 0.000000 0.000000 0.111323
#
#
# Mechanical properties :
#
#
# Convention : Reuss Voigt Hill
#
# Bulk Modulus (GPa) = 18.78196 43.56704 31.17450
# Shear Modulus (GPa) = 13.06043 20.15389 16.60716
#
# Velocity S-wave (km/s) = 2.63336 3.27123 2.96947
# Velocity P-wave (km/s) = 4.38391 6.11559 5.32067
#
# Compressibility (1/GPa) = 0.05324258
#
# Stress axis : x y z
#
# Youngs Moduli (GPa) = 23.50787 84.17804 66.28628
#
# Poissons Ratio (x) = 0.08247 -0.04873
# Poissons Ratio (y) = 0.02303 0.52277
# Poissons Ratio (z) = -0.01728 0.66388
#
# Static dielectric constant tensor:
#      x y z
#    x 1.697380 0.000000 0.000000 
#    y 0.000000 1.678350 0.000000 
#    z 0.000000 0.000000 1.636770 
# 
# From -- ./inp_files/23417.got.cif
#   From: 2010.05.17/outbox.cif.g08.bks.cpg/sg44_12_cif.got.tgz:23417.got - 2010.06.03 19:37:08.
