data_PCOD9373684
_publ_section_title
;
Structure prediction by ZEFSAII (Michael W. Deem and Ramdas Pophale) SiO2 
 PCOD9373684
Probable space group: I M M 2
;
_chemical_formula_sum "Si O2"
_cell_formula_units_Z 64
_cell_length_a 9.110335
_cell_length_b 22.407245
_cell_length_c 15.934393
_cell_angle_alpha 90.000000
_cell_angle_beta 90.000000
_cell_angle_gamma 90.000000
_cell_volume 3252.807285
_symmetry_space_group_name_H-M "I M M 2"
_symmetry_group_IT_number 44
_symmetry_cell_setting 'orthorhombic'
loop_
_space_group_symop_operation_xyz
x,y,z
-x,-y,z
-x,y,z
x,-y,z
1/2+x,1/2+y,1/2+z
1/2-x,1/2-y,1/2+z
1/2-x,1/2+y,1/2+z
1/2+x,1/2-y,1/2+z
loop_
_atom_site_type_symbol
_atom_site_label
_atom_site_fract_x
_atom_site_fract_y
_atom_site_fract_z
Si Si1 0.674589 0.227224 0.662390
Si Si2 0.834334 0.571972 0.942394
Si Si3 0.325282 0.195445 0.844979
Si Si4 0.667575 0.572597 0.777873
Si Si5 0.679351 0.432639 0.589055
Si Si6 0.174141 0.814667 0.010860
Si Si7 0.823321 0.434949 0.277663
Si Si8 0.825817 0.106035 0.611524
O O1 0.500000 0.211275 0.658428
O O2 0.708677 0.233607 0.761275
O O3 0.697825 0.281417 0.599099
O O4 0.771888 0.173066 0.629047
O O5 0.840256 0.500000 0.937702
O O6 0.766347 0.593702 0.854602
O O7 0.000000 0.594387 0.955391
O O8 0.733254 0.587881 0.020720
O O9 0.500000 0.196193 0.856370
O O10 0.250048 0.214558 0.930902
O O11 0.279607 0.126460 0.824230
O O12 0.500000 0.594696 0.786594
O O13 0.661296 0.500000 0.781778
O O14 0.722473 0.585162 0.684001
O O15 0.500000 0.433026 0.590034
O O16 0.728377 0.500000 0.571208
O O17 0.727922 0.382454 0.524437
O O18 0.000000 0.815386 0.995858
O O19 0.785136 0.500000 0.315621
O O20 0.751490 0.431103 0.185704
O O21 0.000000 0.432422 0.269191
O O22 0.000000 0.099990 0.616456
#
# Coordination Sequence:
#
# PCOD9373684 Si02
#       8
#     8   8   8   8   8   8   8   8
#     4   9  20  40  58  73 105 150 188 227 276 332
#     4  10  19  30  46  70 105 146 182 219 272 336
#     4   9  19  36  56  79 111 147 183 229 278 325
#     4   8  14  27  46  68  99 137 177 220 259 304
#     4   8  15  30  53  81 112 142 173 215 270 329
#     4  10  20  36  60  85 109 144 186 226 273 332
#     4   9  18  34  55  78 110 152 187 216 266 334
#     4  11  21  32  50  76 104 137 183 239 284 323
#
# _framework density 19.675312999999999
#
# number of rings (size 3 to 8) (size 9 to 14) (size 15 to 20)
#    0.000    2.750    0.000    3.375    0.000    5.500 
#    2.250    0.625    0.000    0.750    0.000    0.000 
#    0.000    0.000    0.000    0.000    0.000    0.000 
#
# Total GULP energy -178411.830653 kJ/mol
# GULP energy per Si atom -5575.369708 kJ/mol
# Density = 1.963053 g / cm^3
# Si number density = 19.675313 Si / 1000 Ang^3
#
#
#
# Elastic Constant Matrix: (Units=GPa)
#
#
# Indices 1 2 3 4 5 6 
#
# 1 27.1080 14.0847 26.1241 0.0000 0.0000 0.0000
# 2 14.0847 25.9947 21.5881 0.0000 0.0000 0.0000
# 3 26.1241 21.5881 117.6894 0.0000 0.0000 0.0000
# 4 0.0000 0.0000 0.0000 17.0641 0.0000 0.0000
# 5 0.0000 0.0000 0.0000 0.0000 26.5702 0.0000
# 6 0.0000 0.0000 0.0000 0.0000 0.0000 11.1770
#
#
#
# Elastic Compliance Matrix: (Units=1/GPa)
#
#
# Indices 1 2 3 4 5 6 
#
# 1 0.057504 -0.024251 -0.008316 0.000000 0.000000 0.000000
# 2 -0.024251 0.055610 -0.004818 0.000000 0.000000 0.000000
# 3 -0.008316 -0.004818 0.011227 0.000000 0.000000 0.000000
# 4 0.000000 0.000000 0.000000 0.058603 0.000000 0.000000
# 5 0.000000 0.000000 0.000000 0.000000 0.037636 0.000000
# 6 0.000000 0.000000 0.000000 0.000000 0.000000 0.089469
#
#
# Mechanical properties :
#
#
# Convention : Reuss Voigt Hill
#
# Bulk Modulus (GPa) = 20.17292 32.70956 26.44124
# Shear Modulus (GPa) = 12.45818 18.22860 15.34339
#
# Velocity S-wave (km/s) = 2.51905 3.04710 2.79557
# Velocity P-wave (km/s) = 4.32851 5.38893 4.88756
#
# Compressibility (1/GPa) = 0.04957141
#
# Stress axis : x y z
#
# Youngs Moduli (GPa) = 17.39007 17.98225 89.07424
#
# Poissons Ratio (x) = 0.43609 0.74074
# Poissons Ratio (y) = 0.42173 0.42912
# Poissons Ratio (z) = 0.14462 0.08663
#
# Static dielectric constant tensor:
#      x y z
#    x 1.658000 0.000000 0.000000 
#    y 0.000000 1.739440 0.000000 
#    z 0.000000 0.000000 1.682640 
# 
# From -- ./inp_files/16849.got.cif
#   From: 2010.05.17/outbox.cif.g08.bks.cpg/sg44_9_cif.got.tgz:16849.got - 2010.06.03 19:37:08.
