data_PCOD9373042
_publ_section_title
;
Structure prediction by ZEFSAII (Michael W. Deem and Ramdas Pophale) SiO2 
 PCOD9373042
Probable space group: I M M 2
;
_chemical_formula_sum "Si O2"
_cell_formula_units_Z 56
_cell_length_a 8.718041
_cell_length_b 22.763629
_cell_length_c 18.453209
_cell_angle_alpha 90.000000
_cell_angle_beta 90.000000
_cell_angle_gamma 90.000000
_cell_volume 3662.117769
_symmetry_space_group_name_H-M "I M M 2"
_symmetry_group_IT_number 44
_symmetry_cell_setting 'orthorhombic'
loop_
_space_group_symop_operation_xyz
x,y,z
-x,-y,z
-x,y,z
x,-y,z
1/2+x,1/2+y,1/2+z
1/2-x,1/2-y,1/2+z
1/2-x,1/2+y,1/2+z
1/2+x,1/2-y,1/2+z
loop_
_atom_site_type_symbol
_atom_site_label
_atom_site_fract_x
_atom_site_fract_y
_atom_site_fract_z
Si Si1 0.677899 0.677305 0.150660
Si Si2 0.183786 0.431646 0.429782
Si Si3 0.813713 0.851313 0.804855
Si Si4 0.822101 0.316105 0.692021
Si Si5 0.314889 0.217416 0.347415
Si Si6 0.184823 0.216772 0.500954
Si Si7 0.818380 0.156471 0.044772
O O1 0.500000 0.659055 0.145209
O O2 0.742594 0.644800 0.221334
O O3 0.679203 0.746342 0.172965
O O4 0.742187 0.677626 0.069247
O O5 0.227127 0.500000 0.430824
O O6 0.246254 0.399452 0.358122
O O7 0.251919 0.396620 0.497979
O O8 0.000000 0.427088 0.431391
O O9 0.773308 0.786069 0.834277
O O10 0.000000 0.854356 0.804946
O O11 0.768617 0.318316 0.775252
O O12 0.725943 0.347074 0.629458
O O13 0.000000 0.334896 0.687446
O O14 0.500000 0.215156 0.351426
O O15 0.242788 0.197286 0.422612
O O16 0.245279 0.282849 0.515030
O O17 0.000000 0.218174 0.503078
O O18 0.000000 0.159884 0.035429
#
# Coordination Sequence:
#
# PCOD9373042 Si02
#       7
#     8   8   8   8   8   8   8
#     4   7  13  25  40  59  82 112 142 170 209 255
#     4  11  23  35  46  62  84 112 148 188 229 267
#     4   9  16  29  46  60  81 112 146 182 216 253
#     4   8  15  28  43  59  84 115 143 172 214 260
#     4   9  16  26  42  65  90 117 145 176 212 255
#     4  10  17  26  42  63  89 119 146 173 212 258
#     4  11  20  30  44  61  83 112 148 185 220 256
#
# _framework density 15.291698
#
# number of rings (size 3 to 8) (size 9 to 14) (size 15 to 20)
#    0.000    2.714    1.429    4.714    0.000    1.714 
#    0.000    6.429    0.000    0.000    0.000    0.000 
#    0.000    1.143    0.000    7.429    0.000    5.571 
#
# Total GULP energy -155883.438483 kJ/mol
# GULP energy per Si atom -5567.265660 kJ/mol
# Density = 1.525689 g / cm^3
# Si number density = 15.291698 Si / 1000 Ang^3
#
#
#
# Elastic Constant Matrix: (Units=GPa)
#
#
# Indices 1 2 3 4 5 6 
#
# 1 33.2398 19.6014 34.8447 0.0000 0.0000 0.0000
# 2 19.6014 46.3323 42.0461 0.0000 0.0000 0.0000
# 3 34.8447 42.0461 169.5127 0.0000 0.0000 0.0000
# 4 0.0000 0.0000 0.0000 12.9797 0.0000 0.0000
# 5 0.0000 0.0000 0.0000 0.0000 27.8366 0.0000
# 6 0.0000 0.0000 0.0000 0.0000 0.0000 10.8578
#
#
#
# Elastic Compliance Matrix: (Units=1/GPa)
#
#
# Indices 1 2 3 4 5 6 
#
# 1 0.043990 -0.013427 -0.005712 0.000000 0.000000 0.000000
# 2 -0.013427 0.031951 -0.005165 0.000000 0.000000 0.000000
# 3 -0.005712 -0.005165 0.008355 0.000000 0.000000 0.000000
# 4 0.000000 0.000000 0.000000 0.077043 0.000000 0.000000
# 5 0.000000 0.000000 0.000000 0.000000 0.035924 0.000000
# 6 0.000000 0.000000 0.000000 0.000000 0.000000 0.092100
#
#
# Mechanical properties :
#
#
# Convention : Reuss Voigt Hill
#
# Bulk Modulus (GPa) = 28.02105 49.11878 38.56992
# Shear Modulus (GPa) = 14.29116 20.50766 17.39941
#
# Velocity S-wave (km/s) = 3.06039 3.66607 3.37684
# Velocity P-wave (km/s) = 5.55447 7.07892 6.36251
#
# Compressibility (1/GPa) = 0.03568746
#
# Stress axis : x y z
#
# Youngs Moduli (GPa) = 22.73237 31.29799 119.69455
#
# Poissons Ratio (x) = 0.42023 0.68371
# Poissons Ratio (y) = 0.30522 0.61824
# Poissons Ratio (z) = 0.12985 0.16166
#
# Static dielectric constant tensor:
#      x y z
#    x 1.516900 0.000000 0.000000 
#    y 0.000000 1.466760 0.000000 
#    z 0.000000 0.000000 1.567530 
# 
# From -- ./inp_files/20637.got.cif
#   From: 2010.05.17/outbox.cif.g08.bks.cpg/sg44_11_cif.got.tgz:20637.got - 2010.06.03 19:37:08.
