data_PCOD9373090
_publ_section_title
;
Structure prediction by ZEFSAII (Michael W. Deem and Ramdas Pophale) SiO2 
 PCOD9373090
Probable space group: I M M 2
;
_chemical_formula_sum "Si O2"
_cell_formula_units_Z 64
_cell_length_a 7.428262
_cell_length_b 20.362532
_cell_length_c 21.437991
_cell_angle_alpha 90.000000
_cell_angle_beta 90.000000
_cell_angle_gamma 90.000000
_cell_volume 3242.672416
_symmetry_space_group_name_H-M "I M M 2"
_symmetry_group_IT_number 44
_symmetry_cell_setting 'orthorhombic'
loop_
_space_group_symop_operation_xyz
x,y,z
-x,-y,z
-x,y,z
x,-y,z
1/2+x,1/2+y,1/2+z
1/2-x,1/2-y,1/2+z
1/2-x,1/2+y,1/2+z
1/2+x,1/2-y,1/2+z
loop_
_atom_site_type_symbol
_atom_site_label
_atom_site_fract_x
_atom_site_fract_y
_atom_site_fract_z
Si Si1 0.718002 0.211397 0.570020
Si Si2 0.282801 0.927189 0.990607
Si Si3 0.721879 0.289023 0.310732
Si Si4 0.213614 0.071992 0.762993
Si Si5 0.283464 0.927427 0.615400
Si Si6 0.287894 0.204965 0.193997
Si Si7 0.780421 0.427269 0.635843
Si Si8 0.209414 0.784226 0.946976
O O1 0.500000 0.211307 0.568493
O O2 0.780429 0.136216 0.577830
O O3 0.768788 0.250633 0.632373
O O4 0.785870 0.248869 0.508374
O O5 0.500000 0.926780 0.988937
O O6 0.227769 0.919386 0.063244
O O7 0.223475 0.000000 0.969217
O O8 0.219547 0.862994 0.954763
O O9 0.500000 0.289935 0.310127
O O10 0.783024 0.363559 0.297244
O O11 0.783515 0.242849 0.254234
O O12 0.783126 0.267051 0.379028
O O13 0.239565 0.081114 0.688652
O O14 0.000000 0.069852 0.774304
O O15 0.288088 0.000000 0.779931
O O16 0.500000 0.928278 0.610610
O O17 0.217412 0.000000 0.596536
O O18 0.500000 0.196278 0.205576
O O19 0.214038 0.133367 0.176605
O O20 0.725327 0.500000 0.656523
O O21 0.000000 0.425848 0.635837
O O22 0.000000 0.765714 0.945763
#
# Coordination Sequence:
#
# PCOD9373090 Si02
#       8
#     8   8   8   8   8   8   8   8
#     4  10  19  30  46  68  92 118 150 191 229 268
#     4   9  17  30  47  68  94 122 155 191 224 266
#     4   9  18  30  44  66  92 121 153 185 225 269
#     4   9  16  27  44  65  88 114 147 184 218 259
#     4   9  17  29  45  65  89 117 147 181 226 271
#     4  10  17  29  51  70  87 117 155 191 226 270
#     4   8  14  25  44  69  92 113 142 186 232 266
#     4  10  20  32  45  65  96 127 154 187 230 277
#
# _framework density 19.736806999999999
#
# number of rings (size 3 to 8) (size 9 to 14) (size 15 to 20)
#    0.000    2.750    2.500    0.750    0.000    0.750 
#    0.000    2.500    0.000    2.625    0.000    5.250 
#    0.000    0.000    0.000    2.250    0.000    2.500 
#
# Total GULP energy -178520.087600 kJ/mol
# GULP energy per Si atom -5578.752738 kJ/mol
# Density = 1.969189 g / cm^3
# Si number density = 19.736807 Si / 1000 Ang^3
#
#
#
# Elastic Constant Matrix: (Units=GPa)
#
#
# Indices 1 2 3 4 5 6 
#
# 1 60.9260 -6.7277 -5.8603 0.0000 0.0000 0.0000
# 2 -6.7277 123.9335 64.8108 0.0000 0.0000 0.0000
# 3 -5.8603 64.8108 123.7978 0.0000 0.0000 0.0000
# 4 0.0000 0.0000 0.0000 24.4669 0.0000 0.0000
# 5 0.0000 0.0000 0.0000 0.0000 2.5771 0.0000
# 6 0.0000 0.0000 0.0000 0.0000 0.0000 7.3241
#
#
#
# Elastic Compliance Matrix: (Units=1/GPa)
#
#
# Indices 1 2 3 4 5 6 
#
# 1 0.016529 0.000672 0.000431 0.000000 0.000000 0.000000
# 2 0.000672 0.011138 -0.005799 0.000000 0.000000 0.000000
# 3 0.000431 -0.005799 0.011134 0.000000 0.000000 0.000000
# 4 0.000000 0.000000 0.000000 0.040871 0.000000 0.000000
# 5 0.000000 0.000000 0.000000 0.000000 0.388037 0.000000
# 6 0.000000 0.000000 0.000000 0.000000 0.000000 0.136536
#
#
# Mechanical properties :
#
#
# Convention : Reuss Voigt Hill
#
# Bulk Modulus (GPa) = 34.00427 45.90033 39.95230
# Shear Modulus (GPa) = 8.02000 23.96925 15.99463
#
# Velocity S-wave (km/s) = 2.01799 3.48867 2.84983
# Velocity P-wave (km/s) = 4.76403 6.28764 5.57810
#
# Compressibility (1/GPa) = 0.02940807
#
# Stress axis : x y z
#
# Youngs Moduli (GPa) = 60.49981 89.78276 89.81447
#
# Poissons Ratio (x) = -0.06034 -0.03867
# Poissons Ratio (y) = -0.04066 0.52085
# Poissons Ratio (z) = -0.02605 0.52067
#
# Static dielectric constant tensor:
#      x y z
#    x 1.753160 0.000000 0.000000 
#    y 0.000000 1.712400 0.000000 
#    z 0.000000 0.000000 1.673110 
# 
# From -- ./inp_files/20797.got.cif
#   From: 2010.05.17/outbox.cif.g08.bks.cpg/sg44_11_cif.got.tgz:20797.got - 2010.06.03 19:37:08.
