data_PCOD9373847
_publ_section_title
;
Structure prediction by ZEFSAII (Michael W. Deem and Ramdas Pophale) SiO2 
 PCOD9373847
Probable space group: I M M 2
;
_chemical_formula_sum "Si O2"
_cell_formula_units_Z 56
_cell_length_a 22.951160
_cell_length_b 7.708080
_cell_length_c 15.068807
_cell_angle_alpha 90.000000
_cell_angle_beta 90.000000
_cell_angle_gamma 90.000000
_cell_volume 2665.813264
_symmetry_space_group_name_H-M "I M M 2"
_symmetry_group_IT_number 44
_symmetry_cell_setting 'orthorhombic'
loop_
_space_group_symop_operation_xyz
x,y,z
-x,-y,z
-x,y,z
x,-y,z
1/2+x,1/2+y,1/2+z
1/2-x,1/2-y,1/2+z
1/2-x,1/2+y,1/2+z
1/2+x,1/2-y,1/2+z
loop_
_atom_site_type_symbol
_atom_site_label
_atom_site_fract_x
_atom_site_fract_y
_atom_site_fract_z
Si Si1 0.111851 0.287611 0.304700
Si Si2 0.710713 0.796072 0.484184
Si Si3 0.653716 0.207091 0.989069
Si Si4 0.500000 0.792386 0.696960
Si Si5 0.104924 0.201075 0.868224
Si Si6 0.782807 0.288136 0.183203
Si Si7 0.849746 0.791783 0.688670
Si Si8 0.000000 0.210140 0.989473
O O1 0.111093 0.500000 0.303485
O O2 0.114327 0.232511 0.407054
O O3 0.057425 0.226085 0.247063
O O4 0.171463 0.233069 0.256676
O O5 0.779926 0.770545 0.473653
O O6 0.668605 0.708585 0.413404
O O7 0.697601 0.734167 0.584538
O O8 0.698183 0.000000 0.479141
O O9 0.656491 0.000000 0.986317
O O10 0.633042 0.257143 0.087273
O O11 0.500000 0.760732 0.592223
O O12 0.500000 0.000000 0.708160
O O13 0.111312 0.277447 0.769402
O O14 0.057007 0.274252 0.935826
O O15 0.088171 0.000000 0.857120
O O16 0.781375 0.500000 0.182317
O O17 0.716913 0.227108 0.198509
O O18 0.847437 0.000000 0.698565
O O19 0.000000 0.000000 0.990525
#
# Coordination Sequence:
#
# PCOD9373847 Si02
#       8
#     8   8   8   4   8   8   8   4
#     4   9  17  30  50  74 100 134 174 210 250 304
#     4  10  19  31  51  80 109 136 172 215 258 311
#     4  10  19  32  51  76 106 138 173 216 264 309
#     4  10  20  36  57  78 102 138 179 212 249 304
#     4  10  20  35  54  74 103 142 176 211 260 312
#     4   8  14  26  45  70  98 127 161 203 249 298
#     4   9  18  33  51  71  99 136 175 214 259 313
#     4  10  22  38  55  80 108 132 167 214 259 306
#
# _framework density 21.006722
#
# number of rings (size 3 to 8) (size 9 to 14) (size 15 to 20)
#    0.000    2.571    0.000    3.429    0.000    4.571 
#    0.000    2.143    0.000    4.286    0.000    0.000 
#    0.000    0.000    0.000    0.000    0.000    0.000 
#
# Total GULP energy -156256.165921 kJ/mol
# GULP energy per Si atom -5580.577354 kJ/mol
# Density = 2.095891 g / cm^3
# Si number density = 21.006722 Si / 1000 Ang^3
#
#
#
# Elastic Constant Matrix: (Units=GPa)
#
#
# Indices 1 2 3 4 5 6 
#
# 1 55.8422 1.3535 85.7772 0.0000 0.0000 0.0000
# 2 1.3535 32.9826 -1.2859 0.0000 0.0000 0.0000
# 3 85.7772 -1.2859 206.9792 0.0000 0.0000 0.0000
# 4 0.0000 0.0000 0.0000 21.6981 0.0000 0.0000
# 5 0.0000 0.0000 0.0000 0.0000 34.4962 0.0000
# 6 0.0000 0.0000 0.0000 0.0000 0.0000 7.2295
#
#
#
# Elastic Compliance Matrix: (Units=1/GPa)
#
#
# Indices 1 2 3 4 5 6 
#
# 1 0.049539 -0.002834 -0.020548 0.000000 0.000000 0.000000
# 2 -0.002834 0.030489 0.001364 0.000000 0.000000 0.000000
# 3 -0.020548 0.001364 0.013355 0.000000 0.000000 0.000000
# 4 0.000000 0.000000 0.000000 0.046087 0.000000 0.000000
# 5 0.000000 0.000000 0.000000 0.000000 0.028989 0.000000
# 6 0.000000 0.000000 0.000000 0.000000 0.000000 0.138321
#
#
# Mechanical properties :
#
#
# Convention : Reuss Voigt Hill
#
# Bulk Modulus (GPa) = 20.26463 51.94376 36.10420
# Shear Modulus (GPa) = 13.61415 26.68204 20.14809
#
# Velocity S-wave (km/s) = 2.54851 3.56781 3.10034
# Velocity P-wave (km/s) = 4.28107 6.46167 5.48091
#
# Compressibility (1/GPa) = 0.04934705
#
# Stress axis : x y z
#
# Youngs Moduli (GPa) = 20.18612 32.79921 74.87616
#
# Poissons Ratio (x) = 0.09296 1.53854
# Poissons Ratio (y) = 0.05721 -0.10212
# Poissons Ratio (z) = 0.41478 -0.04474
#
# Static dielectric constant tensor:
#      x y z
#    x 1.737520 0.000000 0.000000 
#    y 0.000000 1.784950 0.000000 
#    z 0.000000 0.000000 1.777090 
# 
# From -- ./inp_files/19238.got.cif
#   From: 2010.05.17/outbox.cif.g08.bks.cpg/sg44_10_cif.got.tgz:19238.got - 2010.06.03 19:37:08.
