data_PCOD9373300
_publ_section_title
;
Structure prediction by ZEFSAII (Michael W. Deem and Ramdas Pophale) SiO2 
 PCOD9373300
Probable space group: I M M 2
;
_chemical_formula_sum "Si O2"
_cell_formula_units_Z 56
_cell_length_a 7.912514
_cell_length_b 25.554825
_cell_length_c 15.009336
_cell_angle_alpha 90.000000
_cell_angle_beta 90.000000
_cell_angle_gamma 90.000000
_cell_volume 3034.931425
_symmetry_space_group_name_H-M "I M M 2"
_symmetry_group_IT_number 44
_symmetry_cell_setting 'orthorhombic'
loop_
_space_group_symop_operation_xyz
x,y,z
-x,-y,z
-x,y,z
x,-y,z
1/2+x,1/2+y,1/2+z
1/2-x,1/2-y,1/2+z
1/2-x,1/2+y,1/2+z
1/2+x,1/2-y,1/2+z
loop_
_atom_site_type_symbol
_atom_site_label
_atom_site_fract_x
_atom_site_fract_y
_atom_site_fract_z
Si Si1 0.703257 0.108007 0.051940
Si Si2 0.704693 0.172093 0.221891
Si Si3 0.295503 0.183054 0.902844
Si Si4 0.705381 0.211153 0.511671
Si Si5 0.200096 0.000000 0.144689
Si Si6 0.797628 0.612517 0.896164
Si Si7 0.695971 0.787783 0.714100
Si Si8 0.300398 0.500000 0.849342
O O1 0.500000 0.108328 0.049376
O O2 0.756355 0.149540 0.127134
O O3 0.752397 0.051351 0.088253
O O4 0.764056 0.132690 0.959173
O O5 0.500000 0.178916 0.223971
O O6 0.753040 0.131039 0.297443
O O7 0.790745 0.226937 0.239570
O O8 0.500000 0.181318 0.897805
O O9 0.255078 0.236580 0.957126
O O10 0.229219 0.184166 0.801324
O O11 0.500000 0.211654 0.513022
O O12 0.763639 0.157968 0.462548
O O13 0.768606 0.209677 0.614026
O O14 0.272598 0.000000 0.246818
O O15 0.000000 0.000000 0.153741
O O16 0.747294 0.552374 0.902442
O O17 0.000000 0.614292 0.900980
O O18 0.500000 0.803919 0.706403
O O19 0.500000 0.500000 0.839828
#
# Coordination Sequence:
#
# PCOD9373300 Si02
#       8
#     8   8   8   8   4   8   8   4
#     4  10  20  34  51  72 102 138 172 204 246 305
#     4  10  18  29  49  76 104 135 172 207 243 301
#     4  10  20  33  51  76 105 138 172 209 253 301
#     4  10  20  33  51  76 105 138 172 209 253 301
#     4  11  23  35  51  76 103 130 164 211 263 306
#     4  10  20  34  51  72 102 138 172 204 246 305
#     4  10  20  32  49  76 109 138 168 211 256 295
#     4  11  23  35  51  76 103 130 164 211 263 306
#
# _framework density 18.451816999999998
#
# number of rings (size 3 to 8) (size 9 to 14) (size 15 to 20)
#    0.000    1.857    4.286    0.429    0.000    2.857 
#    0.000    0.000    0.000    0.857    0.000    6.000 
#    0.000    0.000    0.000    0.000    0.000    0.000 
#
# Total GULP energy -156096.614805 kJ/mol
# GULP energy per Si atom -5574.879100 kJ/mol
# Density = 1.840982 g / cm^3
# Si number density = 18.451817 Si / 1000 Ang^3
#
#
#
# Elastic Constant Matrix: (Units=GPa)
#
#
# Indices 1 2 3 4 5 6 
#
# 1 12.0010 -4.1012 5.2242 0.0000 0.0000 0.0000
# 2 -4.1012 71.8593 9.9885 0.0000 0.0000 0.0000
# 3 5.2242 9.9885 83.2368 -0.0005 0.0000 0.0000
# 4 0.0000 0.0000 -0.0005 92.4653 0.0000 0.0000
# 5 0.0000 0.0000 0.0000 0.0000 11.5892 0.0000
# 6 0.0000 0.0000 0.0000 0.0000 0.0000 23.1387
#
#
#
# Elastic Compliance Matrix: (Units=1/GPa)
#
#
# Indices 1 2 3 4 5 6 
#
# 1 0.088053 0.005892 -0.006234 0.000000 0.000000 0.000000
# 2 0.005892 0.014546 -0.002115 0.000000 0.000000 0.000000
# 3 -0.006234 -0.002115 0.012659 0.000000 0.000000 0.000000
# 4 0.000000 0.000000 0.000000 0.010815 0.000000 0.000000
# 5 0.000000 0.000000 0.000000 0.000000 0.086287 0.000000
# 6 0.000000 0.000000 0.000000 0.000000 0.000000 0.043218
#
#
# Mechanical properties :
#
#
# Convention : Reuss Voigt Hill
#
# Bulk Modulus (GPa) = 9.06251 21.03556 15.04904
# Shear Modulus (GPa) = 16.81950 35.83767 26.32859
#
# Velocity S-wave (km/s) = 3.02244 4.41185 3.78151
# Velocity P-wave (km/s) = 4.13549 6.11372 5.21919
#
# Compressibility (1/GPa) = 0.11034468
#
# Stress axis : x y z
#
# Youngs Moduli (GPa) = 11.35676 68.74553 78.99516
#
# Poissons Ratio (x) = -0.40505 0.49242
# Poissons Ratio (y) = -0.06691 0.16710
# Poissons Ratio (z) = 0.07079 0.14542
#
# Static dielectric constant tensor:
#      x y z
#    x 1.671190 0.000000 0.000000 
#    y 0.000000 1.626180 0.000000 
#    z 0.000000 0.000000 1.680130 
# 
# From -- ./inp_files/16529.got.cif
#   From: 2010.05.17/outbox.cif.g08.bks.cpg/sg44_9_cif.got.tgz:16529.got - 2010.06.03 19:37:08.
