data_PCOD9373571
_publ_section_title
;
Structure prediction by ZEFSAII (Michael W. Deem and Ramdas Pophale) SiO2 
 PCOD9373571
Probable space group: I M M 2
;
_chemical_formula_sum "Si O2"
_cell_formula_units_Z 64
_cell_length_a 28.232991
_cell_length_b 18.028423
_cell_length_c 6.459440
_cell_angle_alpha 90.000000
_cell_angle_beta 90.000000
_cell_angle_gamma 90.000000
_cell_volume 3287.831088
_symmetry_space_group_name_H-M "I M M 2"
_symmetry_group_IT_number 44
_symmetry_cell_setting 'orthorhombic'
loop_
_space_group_symop_operation_xyz
x,y,z
-x,-y,z
-x,y,z
x,-y,z
1/2+x,1/2+y,1/2+z
1/2-x,1/2-y,1/2+z
1/2-x,1/2+y,1/2+z
1/2+x,1/2-y,1/2+z
loop_
_atom_site_type_symbol
_atom_site_label
_atom_site_fract_x
_atom_site_fract_y
_atom_site_fract_z
Si Si1 0.171443 0.844173 0.294400
Si Si2 0.379923 0.832297 0.135106
Si Si3 0.137219 0.584586 0.026891
Si Si4 0.216772 0.079658 0.948502
Si Si5 0.202204 0.318198 0.307632
Si Si6 0.120209 0.084341 0.688297
Si Si7 0.554546 0.167976 0.747657
Si Si8 0.094995 0.208306 0.958735
O O1 0.203361 0.770707 0.316842
O O2 0.141253 0.874723 0.486008
O O3 0.132811 0.817465 0.127797
O O4 0.204211 0.905552 0.187533
O O5 0.376808 0.901807 0.288539
O O6 0.381431 0.763300 0.291962
O O7 0.334000 0.835926 0.992987
O O8 0.423778 0.821134 0.977529
O O9 0.151394 0.500000 0.065450
O O10 0.177302 0.642607 0.108758
O O11 0.089657 0.606920 0.150711
O O12 0.248070 0.144436 0.853333
O O13 0.166823 0.078114 0.831373
O O14 0.240833 0.000000 0.921751
O O15 0.103710 0.000000 0.644421
O O16 0.083570 0.135792 0.818745
O O17 0.500000 0.146686 0.756023
O O18 0.559993 0.240342 0.596386
#
# Coordination Sequence:
#
# PCOD9373571 Si02
#       8
#     8   8   8   8   8   8   8   8
#     4  11  20  35  58  82 111 151 195 245 291 344
#     4  10  19  36  57  84 109 150 194 236 286 345
#     4  10  22  39  58  82 118 156 196 243 289 345
#     4  10  24  36  50  79 117 152 194 245 295 345
#     4  11  21  36  58  81 111 158 202 245 288 344
#     4  10  21  37  58  84 117 150 191 245 300 354
#     4  10  21  37  60  88 118 149 190 241 292 352
#     4  10  18  38  59  84 113 146 192 235 286 351
#
# _framework density 19.465720999999998
#
# number of rings (size 3 to 8) (size 9 to 14) (size 15 to 20)
#    0.000    1.750    5.000    0.750    1.750    6.250 
#    0.000    0.000    0.000    0.375    0.000    0.000 
#    0.000    0.000    0.000    0.000    0.000    0.000 
#
# Total GULP energy -178223.594417 kJ/mol
# GULP energy per Si atom -5569.487326 kJ/mol
# Density = 1.942142 g / cm^3
# Si number density = 19.465721 Si / 1000 Ang^3
#
#
#
# Elastic Constant Matrix: (Units=GPa)
#
#
# Indices 1 2 3 4 5 6 
#
# 1 19.6741 -20.1238 -2.7845 0.0000 0.0000 0.0000
# 2 -20.1238 79.4106 17.3321 0.0000 0.0000 0.0000
# 3 -2.7845 17.3321 80.8942 0.0000 0.0000 0.0000
# 4 0.0000 0.0000 0.0000 5.3850 0.0000 0.0000
# 5 0.0000 0.0000 0.0000 0.0000 3.8391 0.0000
# 6 0.0000 0.0000 0.0000 0.0000 0.0000 9.7713
#
#
#
# Elastic Compliance Matrix: (Units=1/GPa)
#
#
# Indices 1 2 3 4 5 6 
#
# 1 0.068771 0.017741 -0.001434 0.000000 0.000000 0.000000
# 2 0.017741 0.017787 -0.003200 0.000000 0.000000 0.000000
# 3 -0.001434 -0.003200 0.012998 0.000000 0.000000 0.000000
# 4 0.000000 0.000000 0.000000 0.185702 0.000000 0.000000
# 5 0.000000 0.000000 0.000000 0.000000 0.260477 0.000000
# 6 0.000000 0.000000 0.000000 0.000000 0.000000 0.102341
#
#
# Mechanical properties :
#
#
# Convention : Reuss Voigt Hill
#
# Bulk Modulus (GPa) = 7.95106 18.75851 13.35478
# Shear Modulus (GPa) = 7.53254 16.16941 11.85098
#
# Velocity S-wave (km/s) = 1.96928 2.88525 2.47009
# Velocity P-wave (km/s) = 3.04372 4.55600 3.87436
#
# Compressibility (1/GPa) = 0.12576945
#
# Stress axis : x y z
#
# Youngs Moduli (GPa) = 14.54093 56.22088 76.93399
#
# Poissons Ratio (x) = -0.99739 0.11031
# Poissons Ratio (y) = -0.25796 0.24621
# Poissons Ratio (z) = 0.02085 0.17992
#
# Static dielectric constant tensor:
#      x y z
#    x 1.641480 0.000000 0.000000 
#    y 0.000000 1.759090 0.000000 
#    z 0.000000 0.000000 1.728080 
# 
# From -- ./inp_files/3364.got.cif
#   From: 2010.05.17/outbox.cif.g08.bks.cpg/sg44_2_cif.got.tgz:3364.got - 2010.06.03 19:37:08.
