data_PCOD9373323
_publ_section_title
;
Structure prediction by ZEFSAII (Michael W. Deem and Ramdas Pophale) SiO2 
 PCOD9373323
Probable space group: I M M 2
;
_chemical_formula_sum "Si O2"
_cell_formula_units_Z 56
_cell_length_a 8.408914
_cell_length_b 19.665541
_cell_length_c 18.574241
_cell_angle_alpha 90.000000
_cell_angle_beta 90.000000
_cell_angle_gamma 90.000000
_cell_volume 3071.545022
_symmetry_space_group_name_H-M "I M M 2"
_symmetry_group_IT_number 44
_symmetry_cell_setting 'orthorhombic'
loop_
_space_group_symop_operation_xyz
x,y,z
-x,-y,z
-x,y,z
x,-y,z
1/2+x,1/2+y,1/2+z
1/2-x,1/2-y,1/2+z
1/2-x,1/2+y,1/2+z
1/2+x,1/2-y,1/2+z
loop_
_atom_site_type_symbol
_atom_site_label
_atom_site_fract_x
_atom_site_fract_y
_atom_site_fract_z
Si Si1 0.312421 0.695378 0.771030
Si Si2 0.815956 0.846949 0.425139
Si Si3 0.689946 0.573392 0.513802
Si Si4 0.691387 0.922797 0.562092
Si Si5 0.312184 0.076266 0.177291
Si Si6 0.809824 0.707878 0.150597
Si Si7 0.681749 0.211009 0.018010
O O1 0.500000 0.708299 0.784096
O O2 0.243278 0.669469 0.847003
O O3 0.288948 0.632056 0.718066
O O4 0.248622 0.760783 0.726215
O O5 0.734565 0.898212 0.481315
O O6 0.814685 0.774410 0.464842
O O7 0.000000 0.869326 0.416595
O O8 0.500000 0.575421 0.519088
O O9 0.735426 0.500000 0.481120
O O10 0.763992 0.575451 0.593709
O O11 0.750168 0.643599 0.480975
O O12 0.500000 0.923169 0.567625
O O13 0.750923 0.864112 0.617912
O O14 0.748529 0.000000 0.575356
O O15 0.500000 0.090895 0.184146
O O16 0.282939 0.000000 0.205580
O O17 0.774716 0.763815 0.088735
O O18 0.000000 0.701759 0.157481
O O19 0.500000 0.198177 0.039518
#
# Coordination Sequence:
#
# PCOD9373323 Si02
#       7
#     8   8   8   8   8   8   8
#     4  10  19  32  49  69  97 132 166 199 239 292
#     4   9  20  34  48  70  99 131 163 198 245 298
#     4  10  19  30  46  68  93 122 156 192 234 285
#     4   9  18  33  52  74  98 125 163 210 254 296
#     4  10  20  31  44  67  98 127 156 192 232 275
#     4   9  17  30  50  71  92 124 164 204 245 289
#     4  10  18  30  48  69  95 123 158 203 242 284
#
# _framework density 18.231869
#
# number of rings (size 3 to 8) (size 9 to 14) (size 15 to 20)
#    0.000    2.429    1.429    1.286    0.000    3.714 
#    0.000    2.857    0.000    0.857    0.000    4.000 
#    0.000    0.000    0.000    0.000    0.000    0.000 
#
# Total GULP energy -155870.850005 kJ/mol
# GULP energy per Si atom -5566.816072 kJ/mol
# Density = 1.819037 g / cm^3
# Si number density = 18.231869 Si / 1000 Ang^3
#
#
#
# Elastic Constant Matrix: (Units=GPa)
#
#
# Indices 1 2 3 4 5 6 
#
# 1 10.9656 12.5671 0.0159 0.0000 0.0000 0.0000
# 2 12.5671 114.2719 6.9884 0.0000 0.0000 0.0000
# 3 0.0159 6.9884 37.7377 0.0000 0.0000 0.0000
# 4 0.0000 0.0000 0.0000 92.0019 0.0000 0.0000
# 5 0.0000 0.0000 0.0000 0.0000 14.0799 0.0000
# 6 0.0000 0.0000 0.0000 0.0000 0.0000 14.8065
#
#
#
# Elastic Compliance Matrix: (Units=1/GPa)
#
#
# Indices 1 2 3 4 5 6 
#
# 1 0.104511 -0.011623 0.002108 0.000000 0.000000 0.000000
# 2 -0.011623 0.010144 -0.001874 0.000000 0.000000 0.000000
# 3 0.002108 -0.001874 0.026845 0.000000 0.000000 0.000000
# 4 0.000000 0.000000 0.000000 0.010869 0.000000 0.000000
# 5 0.000000 0.000000 0.000000 0.000000 0.071023 0.000000
# 6 0.000000 0.000000 0.000000 0.000000 0.000000 0.067538
#
#
# Mechanical properties :
#
#
# Convention : Reuss Voigt Hill
#
# Bulk Modulus (GPa) = 8.42290 22.45757 15.44024
# Shear Modulus (GPa) = 14.15306 33.73791 23.94549
#
# Velocity S-wave (km/s) = 2.78921 4.30640 3.62800
# Velocity P-wave (km/s) = 3.87334 6.08862 5.10265
#
# Compressibility (1/GPa) = 0.11872399
#
# Stress axis : x y z
#
# Youngs Moduli (GPa) = 9.56837 98.58198 37.25120
#
# Poissons Ratio (x) = 1.14578 -0.07854
# Poissons Ratio (y) = 0.11121 0.06979
# Poissons Ratio (z) = -0.02017 0.18470
#
# Static dielectric constant tensor:
#      x y z
#    x 1.643180 0.000000 0.000000 
#    y 0.000000 1.681130 0.000000 
#    z 0.000000 0.000000 1.636290 
# 
# From -- ./inp_files/20655.got.cif
#   From: 2010.05.17/outbox.cif.g08.bks.cpg/sg44_11_cif.got.tgz:20655.got - 2010.06.03 19:37:08.
