data_PCOD9373677
_publ_section_title
;
Structure prediction by ZEFSAII (Michael W. Deem and Ramdas Pophale) SiO2 
 PCOD9373677
Probable space group: I M M 2
;
_chemical_formula_sum "Si O2"
_cell_formula_units_Z 64
_cell_length_a 14.167950
_cell_length_b 8.935852
_cell_length_c 30.271422
_cell_angle_alpha 90.000000
_cell_angle_beta 90.000000
_cell_angle_gamma 90.000000
_cell_volume 3832.443890
_symmetry_space_group_name_H-M "I M M 2"
_symmetry_group_IT_number 44
_symmetry_cell_setting 'orthorhombic'
loop_
_space_group_symop_operation_xyz
x,y,z
-x,-y,z
-x,y,z
x,-y,z
1/2+x,1/2+y,1/2+z
1/2-x,1/2-y,1/2+z
1/2-x,1/2+y,1/2+z
1/2+x,1/2-y,1/2+z
loop_
_atom_site_type_symbol
_atom_site_label
_atom_site_fract_x
_atom_site_fract_y
_atom_site_fract_z
Si Si1 0.898883 0.674518 0.477070
Si Si2 0.110653 0.181453 0.701985
Si Si3 0.614478 0.670968 0.302239
Si Si4 0.112141 0.666069 0.889436
Si Si5 0.686852 0.324508 0.473455
Si Si6 0.393885 0.668748 0.068532
Si Si7 0.255185 0.825208 0.128783
Si Si8 0.888583 0.320358 0.064068
O O1 0.898511 0.500000 0.492631
O O2 0.795468 0.696824 0.457529
O O3 0.900065 0.789731 0.517511
O O4 0.000000 0.693123 0.452811
O O5 0.134725 0.224502 0.752585
O O6 0.189808 0.248949 0.669763
O O7 0.000000 0.225758 0.693236
O O8 0.112494 0.000000 0.698890
O O9 0.500000 0.667208 0.304276
O O10 0.647502 0.500000 0.306651
O O11 0.650033 0.765215 0.343751
O O12 0.150679 0.500000 0.897475
O O13 0.127271 0.765452 0.932516
O O14 0.000000 0.654726 0.883262
O O15 0.671153 0.500000 0.481347
O O16 0.661305 0.240660 0.519194
O O17 0.500000 0.671234 0.086905
O O18 0.356211 0.500000 0.075521
O O19 0.331442 0.795191 0.090327
O O20 0.162777 0.747617 0.107423
O O21 0.239065 0.000000 0.136586
O O22 0.880331 0.500000 0.064731
O O23 0.000000 0.281651 0.062631
#
# Coordination Sequence:
#
# PCOD9373677 Si02
#       8
#     8   8   8   8   8   8   8   8
#     4   9  18  32  48  68  95 126 161 202 249 297
#     4   9  18  33  53  77 106 138 169 204 249 302
#     4   8  15  30  51  74 101 132 166 206 251 297
#     4  10  20  32  48  72 103 138 172 208 250 298
#     4  11  21  33  52  76 100 132 170 209 253 301
#     4  10  19  30  46  67  93 127 164 201 240 284
#     4  12  23  33  48  72 100 133 168 204 247 297
#     4  11  24  40  55  70  94 130 171 217 261 299
#
# _framework density 16.699525999999999
#
# number of rings (size 3 to 8) (size 9 to 14) (size 15 to 20)
#    0.000    2.000    1.250    4.125    0.000    6.750 
#    0.000    1.250    0.000    0.000    0.000    0.875 
#    0.000    3.000    0.000    0.000    0.000    0.000 
#
# Total GULP energy -178140.603487 kJ/mol
# GULP energy per Si atom -5566.893859 kJ/mol
# Density = 1.666152 g / cm^3
# Si number density = 16.699526 Si / 1000 Ang^3
#
#
#
# Elastic Constant Matrix: (Units=GPa)
#
#
# Indices 1 2 3 4 5 6 
#
# 1 74.0734 27.7564 24.4573 0.0000 0.0000 0.0000
# 2 27.7564 59.0119 30.0440 0.0000 0.0000 0.0000
# 3 24.4573 30.0440 77.3961 0.0000 0.0000 0.0000
# 4 0.0000 0.0000 0.0000 22.3180 0.0000 0.0000
# 5 0.0000 0.0000 0.0000 0.0000 14.6147 0.0000
# 6 0.0000 0.0000 0.0000 0.0000 0.0000 16.6852
#
#
#
# Elastic Compliance Matrix: (Units=1/GPa)
#
#
# Indices 1 2 3 4 5 6 
#
# 1 0.016863 -0.006504 -0.002804 0.000000 0.000000 0.000000
# 2 -0.006504 0.023628 -0.007117 0.000000 0.000000 0.000000
# 3 -0.002804 -0.007117 0.016569 0.000000 0.000000 0.000000
# 4 0.000000 0.000000 0.000000 0.044807 0.000000 0.000000
# 5 0.000000 0.000000 0.000000 0.000000 0.068424 0.000000
# 6 0.000000 0.000000 0.000000 0.000000 0.000000 0.059933
#
#
# Mechanical properties :
#
#
# Convention : Reuss Voigt Hill
#
# Bulk Modulus (GPa) = 41.30377 41.66629 41.48503
# Shear Modulus (GPa) = 18.44031 19.27183 18.85607
#
# Velocity S-wave (km/s) = 3.32662 3.40079 3.36391
# Velocity P-wave (km/s) = 6.28827 6.35809 6.32328
#
# Compressibility (1/GPa) = 0.02421086
#
# Stress axis : x y z
#
# Youngs Moduli (GPa) = 59.30114 42.32225 60.35269
#
# Poissons Ratio (x) = 0.27526 0.16923
# Poissons Ratio (y) = 0.38570 0.42952
# Poissons Ratio (z) = 0.16628 0.30120
#
# Static dielectric constant tensor:
#      x y z
#    x 1.605560 0.000000 0.000000 
#    y 0.000000 1.576210 0.000000 
#    z 0.000000 0.000000 1.560360 
# 
# From -- ./inp_files/27514.got.cif
#   From: 2010.05.17/outbox.cif.g08.bks.cpg/sg44_14_cif.got.tgz:27514.got - 2010.06.03 19:37:08.
