data_PCOD9373433
_publ_section_title
;
Structure prediction by ZEFSAII (Michael W. Deem and Ramdas Pophale) SiO2 
 PCOD9373433
Probable space group: I M M 2
;
_chemical_formula_sum "Si O2"
_cell_formula_units_Z 64
_cell_length_a 7.892856
_cell_length_b 29.053508
_cell_length_c 13.124130
_cell_angle_alpha 90.000000
_cell_angle_beta 90.000000
_cell_angle_gamma 90.000000
_cell_volume 3009.561904
_symmetry_space_group_name_H-M "I M M 2"
_symmetry_group_IT_number 44
_symmetry_cell_setting 'orthorhombic'
loop_
_space_group_symop_operation_xyz
x,y,z
-x,-y,z
-x,y,z
x,-y,z
1/2+x,1/2+y,1/2+z
1/2-x,1/2-y,1/2+z
1/2-x,1/2+y,1/2+z
1/2+x,1/2-y,1/2+z
loop_
_atom_site_type_symbol
_atom_site_label
_atom_site_fract_x
_atom_site_fract_y
_atom_site_fract_z
Si Si1 0.203257 0.619776 0.877090
Si Si2 0.195791 0.181179 0.709967
Si Si3 0.202514 0.447715 0.699408
Si Si4 0.294112 0.049011 0.543532
Si Si5 0.297517 0.079978 0.761682
Si Si6 0.705018 0.695195 0.426389
Si Si7 0.702477 0.408018 0.481137
Si Si8 0.299062 0.705862 0.991480
O O1 0.266804 0.591510 0.778325
O O2 0.241214 0.673154 0.898787
O O3 0.000000 0.616770 0.874585
O O4 0.267514 0.591376 0.976079
O O5 0.204544 0.127953 0.740486
O O6 0.271953 0.203687 0.811187
O O7 0.274767 0.188063 0.599480
O O8 0.000000 0.196237 0.702973
O O9 0.268739 0.500000 0.715517
O O10 0.233481 0.431372 0.583923
O O11 0.000000 0.450193 0.714713
O O12 0.500000 0.050373 0.539776
O O13 0.249012 0.050956 0.662519
O O14 0.240033 0.000000 0.498971
O O15 0.500000 0.086923 0.757605
O O16 0.253863 0.066054 0.876663
O O17 0.500000 0.692593 0.422088
O O18 0.763540 0.645433 0.468567
O O19 0.754455 0.740596 0.486103
O O20 0.500000 0.407124 0.485746
O O21 0.500000 0.700750 0.992851
#
# Coordination Sequence:
#
# PCOD9373433 Si02
#       8
#     8   8   8   8   8   8   8   8
#     4  10  20  37  59  83 114 153 195 241 294 350
#     4   9  19  36  54  74 109 149 182 230 291 346
#     4  10  22  40  63  89 118 158 207 254 297 353
#     4   9  17  30  52  83 113 141 179 228 279 332
#     4  10  18  31  56  85 110 143 187 233 283 342
#     4   9  20  38  57  79 109 151 198 243 295 355
#     4  10  22  40  60  83 117 156 195 243 300 355
#     4  11  22  35  56  85 116 150 194 246 300 358
#
# _framework density 21.265553000000001
#
# number of rings (size 3 to 8) (size 9 to 14) (size 15 to 20)
#    0.000    2.250    1.250    2.250    0.000    6.750 
#    0.000    5.000    0.000    3.750    0.000    0.000 
#    0.000    0.000    0.000    0.000    0.000    0.000 
#
# Total GULP energy -178365.370062 kJ/mol
# GULP energy per Si atom -5573.917814 kJ/mol
# Density = 2.121715 g / cm^3
# Si number density = 21.265553 Si / 1000 Ang^3
#
#
#
# Elastic Constant Matrix: (Units=GPa)
#
#
# Indices 1 2 3 4 5 6 
#
# 1 28.9189 0.7831 4.7043 0.0000 0.0000 0.0000
# 2 0.7831 49.5205 12.9794 -0.0001 0.0000 0.0000
# 3 4.7043 12.9794 90.3648 -0.0002 0.0000 0.0000
# 4 0.0000 -0.0001 -0.0002 18.3915 0.0000 0.0000
# 5 0.0000 0.0000 0.0000 0.0000 12.2784 0.0000
# 6 0.0000 0.0000 0.0000 0.0000 0.0000 8.1650
#
#
#
# Elastic Compliance Matrix: (Units=1/GPa)
#
#
# Indices 1 2 3 4 5 6 
#
# 1 0.034875 -0.000079 -0.001804 0.000000 0.000000 0.000000
# 2 -0.000079 0.020984 -0.003010 0.000000 0.000000 0.000000
# 3 -0.001804 -0.003010 0.011593 0.000000 0.000000 0.000000
# 4 0.000000 0.000000 0.000000 0.054373 0.000000 0.000000
# 5 0.000000 0.000000 0.000000 0.000000 0.081444 0.000000
# 6 0.000000 0.000000 0.000000 0.000000 0.000000 0.122474
#
#
# Mechanical properties :
#
#
# Convention : Reuss Voigt Hill
#
# Bulk Modulus (GPa) = 17.34128 22.85976 20.10052
# Shear Modulus (GPa) = 14.09443 17.78946 15.94194
#
# Velocity S-wave (km/s) = 2.57725 2.89544 2.74096
# Velocity P-wave (km/s) = 4.12657 4.68520 4.41473
#
# Compressibility (1/GPa) = 0.05766587
#
# Stress axis : x y z
#
# Youngs Moduli (GPa) = 28.67377 47.65583 86.26263
#
# Poissons Ratio (x) = 0.00375 0.15564
# Poissons Ratio (y) = 0.00225 0.25964
# Poissons Ratio (z) = 0.05174 0.14344
#
# Static dielectric constant tensor:
#      x y z
#    x 1.775980 0.000000 0.000000 
#    y 0.000000 1.850990 0.000000 
#    z 0.000000 0.000000 1.807820 
# 
# From -- ./inp_files/11546.got.cif
#   From: 2010.05.17/outbox.cif.g08.bks.cpg/sg44_6_cif.got.tgz:11546.got - 2010.06.03 19:37:08.
