data_PCOD9373998
_publ_section_title
;
Structure prediction by ZEFSAII (Michael W. Deem and Ramdas Pophale) SiO2 
 PCOD9373998
Probable space group: I M M 2
;
_chemical_formula_sum "Si O2"
_cell_formula_units_Z 40
_cell_length_a 8.875519
_cell_length_b 12.995539
_cell_length_c 21.226298
_cell_angle_alpha 90.000000
_cell_angle_beta 90.000000
_cell_angle_gamma 90.000000
_cell_volume 2448.286918
_symmetry_space_group_name_H-M "I M M 2"
_symmetry_group_IT_number 44
_symmetry_cell_setting 'orthorhombic'
loop_
_space_group_symop_operation_xyz
x,y,z
-x,-y,z
-x,y,z
x,-y,z
1/2+x,1/2+y,1/2+z
1/2-x,1/2-y,1/2+z
1/2-x,1/2+y,1/2+z
1/2+x,1/2-y,1/2+z
loop_
_atom_site_type_symbol
_atom_site_label
_atom_site_fract_x
_atom_site_fract_y
_atom_site_fract_z
Si Si1 0.182837 0.500000 0.807600
Si Si2 0.318476 0.883794 0.068719
Si Si3 0.679879 0.500000 0.946167
Si Si4 0.180675 0.677752 0.711682
Si Si5 0.680104 0.174741 0.532685
Si Si6 0.180701 0.385507 0.177228
O O1 0.257231 0.500000 0.875513
O O2 0.226983 0.599751 0.766403
O O3 0.000000 0.500000 0.813422
O O4 0.500000 0.873693 0.063695
O O5 0.278785 0.867769 0.142725
O O6 0.239698 0.791602 0.031331
O O7 0.277042 0.000000 0.049980
O O8 0.500000 0.500000 0.946861
O O9 0.742212 0.400188 0.983000
O O10 0.248718 0.791366 0.715142
O O11 0.000000 0.684505 0.712928
O O12 0.500000 0.171191 0.524898
O O13 0.716112 0.133450 0.603265
O O14 0.232128 0.500000 0.195149
O O15 0.000000 0.381410 0.182879
#
# Coordination Sequence:
#
# PCOD9373998 Si02
#       6
#     4   8   4   8   8   8
#     4  10  20  36  54  72 102 138 169 208 251 298
#     4   9  16  29  50  77 108 135 163 206 253 300
#     4  12  24  36  52  74 100 134 177 218 257 302
#     4   9  17  30  49  74 101 132 169 202 245 299
#     4  10  19  33  50  72 103 136 172 208 253 307
#     4   9  17  30  48  72 104 134 161 202 253 299
#
# _framework density 16.337952999999999
#
# number of rings (size 3 to 8) (size 9 to 14) (size 15 to 20)
#    0.000    2.400    2.000    1.500    0.000    2.400 
#    0.000    0.000    0.000    1.200    0.000    5.600 
#    0.000    0.000    0.000    0.000    0.000    0.000 
#
# Total GULP energy -111523.621285 kJ/mol
# GULP energy per Si atom -5576.181064 kJ/mol
# Density = 1.630077 g / cm^3
# Si number density = 16.337953 Si / 1000 Ang^3
#
#
#
# Elastic Constant Matrix: (Units=GPa)
#
#
# Indices 1 2 3 4 5 6 
#
# 1 40.7279 55.1941 41.5945 0.0000 0.0000 0.0000
# 2 55.1941 190.8232 72.8686 0.0000 0.0000 0.0000
# 3 41.5945 72.8686 89.1342 0.0000 0.0000 0.0000
# 4 0.0000 0.0000 0.0000 18.5482 0.0000 0.0000
# 5 0.0000 0.0000 0.0000 0.0000 20.6727 0.0000
# 6 0.0000 0.0000 0.0000 0.0000 0.0000 28.7269
#
#
#
# Elastic Compliance Matrix: (Units=1/GPa)
#
#
# Indices 1 2 3 4 5 6 
#
# 1 0.055876 -0.009021 -0.018700 0.000000 0.000000 0.000000
# 2 -0.009021 0.009075 -0.003210 0.000000 0.000000 0.000000
# 3 -0.018700 -0.003210 0.022569 0.000000 0.000000 0.000000
# 4 0.000000 0.000000 0.000000 0.053913 0.000000 0.000000
# 5 0.000000 0.000000 0.000000 0.000000 0.048373 0.000000
# 6 0.000000 0.000000 0.000000 0.000000 0.000000 0.034811
#
#
# Mechanical properties :
#
#
# Convention : Reuss Voigt Hill
#
# Bulk Modulus (GPa) = 38.97138 73.33330 56.15234
# Shear Modulus (GPa) = 16.94735 23.65812 20.30273
#
# Velocity S-wave (km/s) = 3.22421 3.80945 3.52898
# Velocity P-wave (km/s) = 6.14538 8.02072 7.14485
#
# Compressibility (1/GPa) = 0.02565986
#
# Stress axis : x y z
#
# Youngs Moduli (GPa) = 17.89677 110.18914 44.30811
#
# Poissons Ratio (x) = 0.99400 0.82855
# Poissons Ratio (y) = 0.16144 0.14221
# Poissons Ratio (z) = 0.33467 0.35366
#
# Static dielectric constant tensor:
#      x y z
#    x 1.545460 0.000000 0.000000 
#    y 0.000000 1.558930 0.000000 
#    z 0.000000 0.000000 1.519410 
# 
# From -- ./inp_files/22757.got.cif
#   From: 2010.05.17/outbox.cif.g08.bks.cpg/sg44_12_cif.got.tgz:22757.got - 2010.06.03 19:37:08.
