data_PCOD9373643
_publ_section_title
;
Structure prediction by ZEFSAII (Michael W. Deem and Ramdas Pophale) SiO2 
 PCOD9373643
Probable space group: I M M 2
;
_chemical_formula_sum "Si O2"
_cell_formula_units_Z 64
_cell_length_a 9.175732
_cell_length_b 22.259927
_cell_length_c 15.734185
_cell_angle_alpha 90.000000
_cell_angle_beta 90.000000
_cell_angle_gamma 90.000000
_cell_volume 3213.724979
_symmetry_space_group_name_H-M "I M M 2"
_symmetry_group_IT_number 44
_symmetry_cell_setting 'orthorhombic'
loop_
_space_group_symop_operation_xyz
x,y,z
-x,-y,z
-x,y,z
x,-y,z
1/2+x,1/2+y,1/2+z
1/2-x,1/2-y,1/2+z
1/2-x,1/2+y,1/2+z
1/2+x,1/2-y,1/2+z
loop_
_atom_site_type_symbol
_atom_site_label
_atom_site_fract_x
_atom_site_fract_y
_atom_site_fract_z
Si Si1 0.835196 0.072505 0.877530
Si Si2 0.675156 0.689810 0.976701
Si Si3 0.827117 0.182023 0.290661
Si Si4 0.673900 0.737604 0.153682
Si Si5 0.172527 0.429518 0.737883
Si Si6 0.664352 0.927200 0.040795
Si Si7 0.328273 0.066816 0.531196
Si Si8 0.670219 0.117762 0.714462
O O1 0.728996 0.090590 0.801475
O O2 0.000000 0.094008 0.862582
O O3 0.839279 0.000000 0.880503
O O4 0.772607 0.094214 0.967975
O O5 0.500000 0.682776 0.979927
O O6 0.713382 0.710716 0.881793
O O7 0.716009 0.734150 0.053929
O O8 0.745792 0.624623 0.994546
O O9 0.748117 0.212646 0.211628
O O10 0.771815 0.113596 0.293007
O O11 0.000000 0.185442 0.280076
O O12 0.500000 0.742869 0.159412
O O13 0.731463 0.674816 0.191288
O O14 0.197648 0.500000 0.752539
O O15 0.204130 0.415792 0.638424
O O16 0.000000 0.418036 0.751688
O O17 0.500000 0.904234 0.025938
O O18 0.658102 0.000000 0.034591
O O19 0.500000 0.071581 0.509309
O O20 0.317327 0.073360 0.633765
O O21 0.277323 0.000000 0.505501
O O22 0.500000 0.134983 0.721665
#
# Coordination Sequence:
#
# PCOD9373643 Si02
#       8
#     8   8   8   8   8   8   8   8
#     4  10  19  29  45  74 111 149 192 240 288 341
#     4   9  21  40  60  83 115 152 190 235 288 343
#     4  11  23  40  62  89 118 151 191 236 290 348
#     4  10  21  41  63  82 109 148 193 243 290 339
#     4   9  19  37  60  86 116 151 190 232 284 344
#     4   8  15  30  50  71 101 143 186 228 278 333
#     4   9  18  32  53  83 116 150 190 234 281 335
#     4  10  19  33  53  77 109 149 191 239 291 343
#
# _framework density 19.914584000000001
#
# number of rings (size 3 to 8) (size 9 to 14) (size 15 to 20)
#    0.000    2.500    0.000    2.625    0.000    4.750 
#    2.250    3.750    0.000    0.000    0.000    0.000 
#    0.000    0.000    0.000    0.000    0.000    0.000 
#
# Total GULP energy -178549.443065 kJ/mol
# GULP energy per Si atom -5579.670096 kJ/mol
# Density = 1.986926 g / cm^3
# Si number density = 19.914584 Si / 1000 Ang^3
#
#
#
# Elastic Constant Matrix: (Units=GPa)
#
#
# Indices 1 2 3 4 5 6 
#
# 1 52.9890 20.1584 57.1964 0.0000 0.0000 0.0000
# 2 20.1584 47.1019 29.4474 0.0000 0.0000 0.0000
# 3 57.1964 29.4474 102.8737 0.0000 0.0000 0.0000
# 4 0.0000 0.0000 0.0000 18.1819 0.0000 0.0000
# 5 0.0000 0.0000 0.0000 0.0000 25.4424 0.0000
# 6 0.0000 0.0000 0.0000 0.0000 0.0000 25.4636
#
#
#
# Elastic Compliance Matrix: (Units=1/GPa)
#
#
# Indices 1 2 3 4 5 6 
#
# 1 0.048036 -0.004703 -0.025361 0.000000 0.000000 0.000000
# 2 -0.004703 0.026318 -0.004919 0.000000 0.000000 0.000000
# 3 -0.025361 -0.004919 0.025229 0.000000 0.000000 0.000000
# 4 0.000000 0.000000 0.000000 0.055000 0.000000 0.000000
# 5 0.000000 0.000000 0.000000 0.000000 0.039305 0.000000
# 6 0.000000 0.000000 0.000000 0.000000 0.000000 0.039272
#
#
# Mechanical properties :
#
#
# Convention : Reuss Voigt Hill
#
# Bulk Modulus (GPa) = 33.76348 46.28545 40.02447
# Shear Modulus (GPa) = 15.97457 20.22841 18.10149
#
# Velocity S-wave (km/s) = 2.83531 3.19055 3.01816
# Velocity P-wave (km/s) = 5.26399 6.07168 5.68220
#
# Compressibility (1/GPa) = 0.02961780
#
# Stress axis : x y z
#
# Youngs Moduli (GPa) = 20.81784 37.99614 39.63673
#
# Poissons Ratio (x) = 0.17869 1.00523
# Poissons Ratio (y) = 0.09790 0.19497
# Poissons Ratio (z) = 0.52796 0.18690
#
# Static dielectric constant tensor:
#      x y z
#    x 1.668010 0.000000 0.000000 
#    y 0.000000 1.712220 0.000000 
#    z 0.000000 0.000000 1.725410 
# 
# From -- ./inp_files/16851.got.cif
#   From: 2010.05.17/outbox.cif.g08.bks.cpg/sg44_9_cif.got.tgz:16851.got - 2010.06.03 19:37:08.
