data_PCOD9373108
_publ_section_title
;
Structure prediction by ZEFSAII (Michael W. Deem and Ramdas Pophale) SiO2 
 PCOD9373108
Probable space group: I M M 2
;
_chemical_formula_sum "Si O2"
_cell_formula_units_Z 64
_cell_length_a 7.445046
_cell_length_b 31.810464
_cell_length_c 12.382367
_cell_angle_alpha 90.000000
_cell_angle_beta 90.000000
_cell_angle_gamma 90.000000
_cell_volume 2932.520530
_symmetry_space_group_name_H-M "I M M 2"
_symmetry_group_IT_number 44
_symmetry_cell_setting 'orthorhombic'
loop_
_space_group_symop_operation_xyz
x,y,z
-x,-y,z
-x,y,z
x,-y,z
1/2+x,1/2+y,1/2+z
1/2-x,1/2-y,1/2+z
1/2-x,1/2+y,1/2+z
1/2+x,1/2-y,1/2+z
loop_
_atom_site_type_symbol
_atom_site_label
_atom_site_fract_x
_atom_site_fract_y
_atom_site_fract_z
Si Si1 0.219450 0.046093 0.354240
Si Si2 0.784571 0.125604 0.973006
Si Si3 0.782807 0.203479 0.373269
Si Si4 0.795457 0.065530 0.591251
Si Si5 0.289555 0.838639 0.600204
Si Si6 0.280294 0.372466 0.719846
Si Si7 0.714189 0.203539 0.818477
Si Si8 0.780331 0.046762 0.830535
O O1 0.284029 0.050610 0.477910
O O2 0.277529 0.085571 0.283019
O O3 0.000000 0.047997 0.356933
O O4 0.269253 0.000000 0.312071
O O5 0.745812 0.168430 0.909070
O O6 0.718398 0.085337 0.904847
O O7 0.000000 0.121507 0.978050
O O8 0.719470 0.127222 0.096012
O O9 0.730493 0.188159 0.492091
O O10 0.723037 0.168749 0.286154
O O11 0.716432 0.250345 0.348205
O O12 0.000000 0.203817 0.370455
O O13 0.798398 0.116006 0.586969
O O14 0.717168 0.052678 0.706799
O O15 0.000000 0.049594 0.592397
O O16 0.500000 0.847197 0.618273
O O17 0.216907 0.814413 0.704729
O O18 0.500000 0.372281 0.719671
O O19 0.500000 0.208175 0.806005
O O20 0.000000 0.048842 0.828531
O O21 0.731354 0.000000 0.868775
#
# Coordination Sequence:
#
# PCOD9373108 Si02
#       8
#     8   8   8   8   8   8   8   8
#     4   9  16  27  49  80 108 136 174 221 270 318
#     4  10  20  34  56  81 108 144 183 225 270 319
#     4  10  21  39  58  77 106 144 180 218 270 324
#     4  10  17  31  54  79 108 144 179 218 268 325
#     4  11  22  36  57  84 110 138 175 226 272 313
#     4   9  18  32  52  78 107 138 176 222 268 315
#     4  10  23  39  56  79 110 144 177 221 271 321
#     4   9  17  29  49  81 113 139 178 231 274 312
#
# _framework density 21.82423
#
# number of rings (size 3 to 8) (size 9 to 14) (size 15 to 20)
#    0.000    2.250    2.500    0.750    1.750    3.000 
#    0.000    3.125    0.000    2.625    0.000    0.000 
#    0.000    0.000    0.000    0.000    0.000    0.000 
#
# Total GULP energy -178810.288295 kJ/mol
# GULP energy per Si atom -5587.821509 kJ/mol
# Density = 2.177456 g / cm^3
# Si number density = 21.824230 Si / 1000 Ang^3
#
#
#
# Elastic Constant Matrix: (Units=GPa)
#
#
# Indices 1 2 3 4 5 6 
#
# 1 69.6441 -0.8338 -3.2006 0.0000 0.0000 0.0000
# 2 -0.8338 220.4628 98.4657 0.0001 0.0000 0.0000
# 3 -3.2006 98.4657 166.2322 0.0001 0.0000 0.0001
# 4 0.0000 0.0001 0.0001 39.0597 0.0000 0.0001
# 5 0.0000 0.0000 0.0000 0.0000 -2.2547 0.0000
# 6 0.0000 0.0000 0.0001 0.0001 0.0000 10.0361
#
#
#
# Elastic Compliance Matrix: (Units=1/GPa)
#
#
# Indices 1 2 3 4 5 6 
#
# 1 0.014373 -0.000094 0.000332 0.000000 0.000000 0.000000
# 2 -0.000094 0.006168 -0.003655 0.000000 0.000000 0.000000
# 3 0.000332 -0.003655 0.008187 0.000000 0.000000 0.000000
# 4 0.000000 0.000000 0.000000 0.025602 0.000000 0.000000
# 5 0.000000 0.000000 0.000000 0.000000 -0.443519 0.000000
# 6 0.000000 0.000000 0.000000 0.000000 0.000000 0.099640
#
#
# Mechanical properties :
#
#
# Convention : Reuss Voigt Hill
#
# Bulk Modulus (GPa) = 45.67422 71.68907 58.68164
# Shear Modulus (GPa) = -18.15434 33.49541 7.67053
#
# Velocity S-wave (km/s) = -2.88730 3.92188 1.87678
# Velocity P-wave (km/s) = 3.13980 7.30944 5.62522
#
# Compressibility (1/GPa) = 0.02189419
#
# Stress axis : x y z
#
# Youngs Moduli (GPa) = 69.57552 162.12160 122.13946
#
# Poissons Ratio (x) = 0.01526 -0.04061
# Poissons Ratio (y) = 0.00655 0.44648
# Poissons Ratio (z) = -0.02313 0.59263
#
# Static dielectric constant tensor:
#      x y z
#    x 1.862000 0.000000 0.000000 
#    y 0.000000 1.762270 0.000000 
#    z 0.000000 0.000000 1.757710 
# 
# From -- ./inp_files/11409.got.cif
#   From: 2010.05.17/outbox.cif.g08.bks.cpg/sg44_6_cif.got.tgz:11409.got - 2010.06.03 19:37:08.
