data_PCOD9373716
_publ_section_title
;
Structure prediction by ZEFSAII (Michael W. Deem and Ramdas Pophale) SiO2 
 PCOD9373716
Probable space group: I M M 2
;
_chemical_formula_sum "Si O2"
_cell_formula_units_Z 64
_cell_length_a 30.185831
_cell_length_b 7.909864
_cell_length_c 12.786604
_cell_angle_alpha 90.000000
_cell_angle_beta 90.000000
_cell_angle_gamma 90.000000
_cell_volume 3053.003963
_symmetry_space_group_name_H-M "I M M 2"
_symmetry_group_IT_number 44
_symmetry_cell_setting 'orthorhombic'
loop_
_space_group_symop_operation_xyz
x,y,z
-x,-y,z
-x,y,z
x,-y,z
1/2+x,1/2+y,1/2+z
1/2-x,1/2-y,1/2+z
1/2-x,1/2+y,1/2+z
1/2+x,1/2-y,1/2+z
loop_
_atom_site_type_symbol
_atom_site_label
_atom_site_fract_x
_atom_site_fract_y
_atom_site_fract_z
Si Si1 0.449435 0.699053 0.650190
Si Si2 0.168548 0.308896 0.842024
Si Si3 0.954573 0.801756 0.689480
Si Si4 0.812704 0.800045 0.424306
Si Si5 0.847985 0.207555 0.199926
Si Si6 0.221279 0.812006 0.022207
Si Si7 0.639145 0.293799 0.122535
Si Si8 0.566838 0.196314 0.414774
O O1 0.500000 0.764558 0.678765
O O2 0.450209 0.500000 0.676036
O O3 0.400288 0.762958 0.690859
O O4 0.444895 0.722757 0.525069
O O5 0.185165 0.500000 0.857333
O O6 0.196208 0.183649 0.911835
O O7 0.168483 0.266379 0.719916
O O8 0.119080 0.298775 0.888742
O O9 0.909638 0.727036 0.647411
O O10 0.953462 0.785906 0.814391
O O11 0.000000 0.724401 0.649569
O O12 0.954073 0.000000 0.662772
O O13 0.824071 0.735949 0.307962
O O14 0.766505 0.775846 0.486157
O O15 0.847074 0.733100 0.509365
O O16 0.818790 0.000000 0.413613
O O17 0.849505 0.000000 0.194088
O O18 0.814631 0.261146 0.105186
O O19 0.232783 0.000000 0.060229
O O20 0.639828 0.500000 0.124985
O O21 0.553470 0.000000 0.417138
#
# Coordination Sequence:
#
# PCOD9373716 Si02
#       8
#     8   8   8   8   8   8   8   8
#     4  10  19  33  55  80 108 147 190 227 274 338
#     4  10  20  34  54  80 111 145 180 222 274 328
#     4   9  17  30  49  74 106 146 187 225 270 324
#     4  10  22  40  59  81 112 149 187 232 281 331
#     4   9  20  39  59  81 114 149 183 232 284 332
#     4  11  22  37  59  84 110 144 183 225 278 337
#     4   9  19  35  55  79 110 145 184 227 272 322
#     4  10  19  30  47  76 112 144 176 222 275 327
#
# _framework density 20.962961
#
# number of rings (size 3 to 8) (size 9 to 14) (size 15 to 20)
#    0.000    2.250    1.250    1.500    1.750    3.500 
#    0.000    1.875    0.000    3.750    0.000    0.000 
#    0.000    3.000    0.000    0.000    0.000    0.000 
#
# Total GULP energy -178139.157863 kJ/mol
# GULP energy per Si atom -5566.848683 kJ/mol
# Density = 2.091525 g / cm^3
# Si number density = 20.962961 Si / 1000 Ang^3
#
#
#
# Elastic Constant Matrix: (Units=GPa)
#
#
# Indices 1 2 3 4 5 6 
#
# 1 104.3036 0.0875 60.1247 0.0000 0.0000 0.0000
# 2 0.0875 23.4563 -0.5075 0.0000 0.0000 0.0000
# 3 60.1247 -0.5075 116.2703 0.0000 0.0000 0.0000
# 4 0.0000 0.0000 0.0000 3.8479 0.0000 0.0000
# 5 0.0000 0.0000 0.0000 0.0000 18.9025 0.0000
# 6 0.0000 0.0000 0.0000 0.0000 0.0000 -1.3579
#
#
#
# Elastic Compliance Matrix: (Units=1/GPa)
#
#
# Indices 1 2 3 4 5 6 
#
# 1 0.013660 -0.000204 -0.007065 0.000000 0.000000 0.000000
# 2 -0.000204 0.042640 0.000291 0.000000 0.000000 0.000000
# 3 -0.007065 0.000291 0.012255 0.000000 0.000000 0.000000
# 4 0.000000 0.000000 0.000000 0.259880 0.000000 0.000000
# 5 0.000000 0.000000 0.000000 0.000000 0.052903 0.000000
# 6 0.000000 0.000000 0.000000 0.000000 0.000000 -0.736409
#
#
# Mechanical properties :
#
#
# Convention : Reuss Voigt Hill
#
# Bulk Modulus (GPa) = 18.31474 40.38219 29.34846
# Shear Modulus (GPa) = -15.48385 16.56686 0.54151
#
# Velocity S-wave (km/s) = -2.72072 2.81426 0.50880
# Velocity P-wave (km/s) = 1.05550 5.46493 3.79153
#
# Compressibility (1/GPa) = 0.05460083
#
# Stress axis : x y z
#
# Youngs Moduli (GPa) = 73.20713 23.45237 81.59874
#
# Poissons Ratio (x) = 0.00478 0.57646
# Poissons Ratio (y) = 0.01492 -0.02379
# Poissons Ratio (z) = 0.51718 -0.00684
#
# Static dielectric constant tensor:
#      x y z
#    x 1.864470 0.000000 0.000000 
#    y 0.000000 1.766880 0.000000 
#    z 0.000000 0.000000 1.717660 
# 
# From -- ./inp_files/15057.got.cif
#   From: 2010.05.17/outbox.cif.g08.bks.cpg/sg44_8_cif.got.tgz:15057.got - 2010.06.03 19:37:08.
