data_PCOD9373260
_publ_section_title
;
Structure prediction by ZEFSAII (Michael W. Deem and Ramdas Pophale) SiO2 
 PCOD9373260
Probable space group: I M M 2
;
_chemical_formula_sum "Si O2"
_cell_formula_units_Z 48
_cell_length_a 7.308813
_cell_length_b 12.484975
_cell_length_c 26.091529
_cell_angle_alpha 90.000000
_cell_angle_beta 90.000000
_cell_angle_gamma 90.000000
_cell_volume 2380.861090
_symmetry_space_group_name_H-M "I M M 2"
_symmetry_group_IT_number 44
_symmetry_cell_setting 'orthorhombic'
loop_
_space_group_symop_operation_xyz
x,y,z
-x,-y,z
-x,y,z
x,-y,z
1/2+x,1/2+y,1/2+z
1/2-x,1/2-y,1/2+z
1/2-x,1/2+y,1/2+z
1/2+x,1/2-y,1/2+z
loop_
_atom_site_type_symbol
_atom_site_label
_atom_site_fract_x
_atom_site_fract_y
_atom_site_fract_z
Si Si1 0.711983 0.766012 0.531210
Si Si2 0.719502 0.000000 0.661632
Si Si3 0.719088 0.000000 0.540723
Si Si4 0.277522 0.124091 0.818598
Si Si5 0.777008 0.280764 0.214672
Si Si6 0.779293 0.622329 0.434025
Si Si7 0.276361 0.376805 0.626657
O O1 0.500000 0.783290 0.545889
O O2 0.790474 0.884725 0.522611
O O3 0.719016 0.698870 0.479301
O O4 0.786503 0.695654 0.578498
O O5 0.783578 0.109723 0.686881
O O6 0.500000 0.000000 0.668786
O O7 0.752583 0.000000 0.601536
O O8 0.500000 0.000000 0.530046
O O9 0.500000 0.123496 0.818438
O O10 0.219045 0.203835 0.773559
O O11 0.219525 0.151481 0.876355
O O12 0.223985 0.000000 0.807802
O O13 0.720559 0.181172 0.179549
O O14 0.000000 0.279020 0.214523
O O15 0.720659 0.500000 0.443994
O O16 0.000000 0.622967 0.433954
O O17 0.500000 0.378205 0.625592
O O18 0.217202 0.500000 0.622568
#
# Coordination Sequence:
#
# PCOD9373260 Si02
#       7
#     8   4   4   8   8   8   8
#     4  10  18  29  46  66  89 115 146 183 219 258
#     4   9  12  18  34  59  85 107 131 166 217 262
#     4   9  16  26  41  65  91 113 141 180 223 260
#     4   8  13  22  38  58  79 106 141 177 210 246
#     4   9  13  19  35  57  82 108 135 170 213 259
#     4   9  18  31  45  63  89 119 149 181 216 255
#     4   9  16  23  34  58  89 114 135 168 216 262
#
# _framework density 20.160772999999999
#
# number of rings (size 3 to 8) (size 9 to 14) (size 15 to 20)
#    0.000    3.000    2.500    1.500    0.000    1.000 
#    0.000    0.417    1.833    0.000    0.000    1.167 
#    0.000    0.000    0.000    0.000    0.000    0.000 
#
# Total GULP energy -133856.250099 kJ/mol
# GULP energy per Si atom -5577.343754 kJ/mol
# Density = 2.011489 g / cm^3
# Si number density = 20.160773 Si / 1000 Ang^3
#
#
#
# Elastic Constant Matrix: (Units=GPa)
#
#
# Indices 1 2 3 4 5 6 
#
# 1 77.4797 5.7085 -1.0849 0.0000 0.0000 0.0000
# 2 5.7085 174.4699 99.1125 0.0000 0.0000 0.0000
# 3 -1.0849 99.1125 117.3970 0.0000 0.0000 0.0000
# 4 0.0000 0.0000 0.0000 27.1557 0.0000 0.0000
# 5 0.0000 0.0000 0.0000 0.0000 5.8256 0.0000
# 6 0.0000 0.0000 0.0000 0.0000 0.0000 -7.2269
#
#
#
# Elastic Compliance Matrix: (Units=1/GPa)
#
#
# Indices 1 2 3 4 5 6 
#
# 1 0.012989 -0.000948 0.000920 0.000000 0.000000 0.000000
# 2 -0.000948 0.011083 -0.009366 0.000000 0.000000 0.000000
# 3 0.000920 -0.009366 0.016434 0.000000 0.000000 0.000000
# 4 0.000000 0.000000 0.000000 0.036825 0.000000 0.000000
# 5 0.000000 0.000000 0.000000 0.000000 0.171655 0.000000
# 6 0.000000 0.000000 0.000000 0.000000 0.000000 -0.138371
#
#
# Mechanical properties :
#
#
# Convention : Reuss Voigt Hill
#
# Bulk Modulus (GPa) = 46.04152 64.09097 55.06625
# Shear Modulus (GPa) = 36.59223 22.85824 29.72523
#
# Velocity S-wave (km/s) = 4.26493 3.37084 3.84397
# Velocity P-wave (km/s) = 6.86583 6.85632 6.86107
#
# Compressibility (1/GPa) = 0.02171953
#
# Stress axis : x y z
#
# Youngs Moduli (GPa) = 76.98634 90.22757 60.85103
#
# Poissons Ratio (x) = 0.08551 -0.05599
# Poissons Ratio (y) = 0.07296 0.56991
# Poissons Ratio (z) = -0.07084 0.84504
#
# Static dielectric constant tensor:
#      x y z
#    x 1.824710 0.000000 0.000000 
#    y 0.000000 1.696840 0.000000 
#    z 0.000000 0.000000 1.691340 
# 
# From -- ./inp_files/23721.got.cif
#   From: 2010.05.17/outbox.cif.g08.bks.cpg/sg44_12_cif.got.tgz:23721.got - 2010.06.03 19:37:08.
