data_PCOD9373153
_publ_section_title
;
Structure prediction by ZEFSAII (Michael W. Deem and Ramdas Pophale) SiO2 
 PCOD9373153
Probable space group: I M M 2
;
_chemical_formula_sum "Si O2"
_cell_formula_units_Z 64
_cell_length_a 8.791554
_cell_length_b 27.079814
_cell_length_c 19.003613
_cell_angle_alpha 90.000000
_cell_angle_beta 90.000000
_cell_angle_gamma 90.000000
_cell_volume 4524.259455
_symmetry_space_group_name_H-M "I M M 2"
_symmetry_group_IT_number 44
_symmetry_cell_setting 'orthorhombic'
loop_
_space_group_symop_operation_xyz
x,y,z
-x,-y,z
-x,y,z
x,-y,z
1/2+x,1/2+y,1/2+z
1/2-x,1/2-y,1/2+z
1/2-x,1/2+y,1/2+z
1/2+x,1/2-y,1/2+z
loop_
_atom_site_type_symbol
_atom_site_label
_atom_site_fract_x
_atom_site_fract_y
_atom_site_fract_z
Si Si1 0.825139 0.303738 0.763970
Si Si2 0.817045 0.942794 0.646366
Si Si3 0.824936 0.200793 0.852061
Si Si4 0.183295 0.353091 0.899450
Si Si5 0.315105 0.257898 0.138863
Si Si6 0.182272 0.757468 0.475709
Si Si7 0.817335 0.057180 0.482485
Si Si8 0.180910 0.350362 0.222768
O O1 0.825128 0.252554 0.808465
O O2 0.759815 0.342952 0.819358
O O3 0.759121 0.286861 0.689183
O O4 0.000000 0.239540 0.644941
O O5 0.777994 0.932864 0.564367
O O6 0.737078 0.903230 0.695643
O O7 0.000000 0.937832 0.652533
O O8 0.778415 0.000000 0.661328
O O9 0.744821 0.214393 0.925150
O O10 0.741608 0.162684 0.800689
O O11 0.000000 0.186590 0.862827
O O12 0.249101 0.308875 0.947224
O O13 0.236117 0.404447 0.931810
O O14 0.000000 0.349294 0.899275
O O15 0.500000 0.181554 0.250839
O O16 0.249767 0.308607 0.170620
O O17 0.276487 0.251245 0.057426
O O18 0.000000 0.759673 0.469938
O O19 0.000000 0.062694 0.476456
O O20 0.779796 0.000000 0.467773
O O21 0.000000 0.347076 0.221461
#
# Coordination Sequence:
#
# PCOD9373153 Si02
#       8
#     8   8   8   8   8   8   8   8
#     4   7  13  26  40  54  74 104 137 163 193 237
#     4   9  18  32  46  58  77 109 144 173 207 252
#     4   9  17  30  44  57  80 111 139 169 207 249
#     4  10  18  27  41  59  81 111 142 171 206 247
#     4   9  17  29  43  58  82 115 143 168 204 249
#     4  10  18  27  42  63  84 108 141 175 206 245
#     4   9  18  31  44  58  79 108 141 177 214 249
#     4  11  20  28  42  63  85 109 141 177 209 244
#
# _framework density 14.145961
#
# number of rings (size 3 to 8) (size 9 to 14) (size 15 to 20)
#    0.000    2.750    0.000    5.250    0.000    5.000 
#    0.000    1.875    0.000    0.000    0.000    0.000 
#    0.000    1.000    0.000    9.250    0.000    3.125 
#
# Total GULP energy -178210.145737 kJ/mol
# GULP energy per Si atom -5569.067054 kJ/mol
# Density = 1.411376 g / cm^3
# Si number density = 14.145961 Si / 1000 Ang^3
#
#
#
# Elastic Constant Matrix: (Units=GPa)
#
#
# Indices 1 2 3 4 5 6 
#
# 1 44.7341 31.9899 40.5522 0.0000 0.0000 0.0000
# 2 31.9899 75.0274 57.2480 0.0000 0.0000 0.0000
# 3 40.5522 57.2480 117.5582 0.0000 0.0000 0.0000
# 4 0.0000 0.0000 0.0000 27.3220 0.0000 0.0000
# 5 0.0000 0.0000 0.0000 0.0000 20.9643 0.0000
# 6 0.0000 0.0000 0.0000 0.0000 0.0000 20.7608
#
#
#
# Elastic Compliance Matrix: (Units=1/GPa)
#
#
# Indices 1 2 3 4 5 6 
#
# 1 0.036275 -0.009419 -0.007927 0.000000 0.000000 0.000000
# 2 -0.009419 0.023655 -0.008270 0.000000 0.000000 0.000000
# 3 -0.007927 -0.008270 0.015268 0.000000 0.000000 0.000000
# 4 0.000000 0.000000 0.000000 0.036601 0.000000 0.000000
# 5 0.000000 0.000000 0.000000 0.000000 0.047700 0.000000
# 6 0.000000 0.000000 0.000000 0.000000 0.000000 0.048168
#
#
# Mechanical properties :
#
#
# Convention : Reuss Voigt Hill
#
# Bulk Modulus (GPa) = 41.72391 55.21111 48.46751
# Shear Modulus (GPa) = 18.73450 20.97805 19.85628
#
# Velocity S-wave (km/s) = 3.64314 3.85511 3.75062
# Velocity P-wave (km/s) = 6.87429 7.67660 7.28650
#
# Compressibility (1/GPa) = 0.02396707
#
# Stress axis : x y z
#
# Youngs Moduli (GPa) = 27.56695 42.27467 65.49545
#
# Poissons Ratio (x) = 0.39817 0.51916
# Poissons Ratio (y) = 0.25964 0.54167
# Poissons Ratio (z) = 0.21851 0.34963
#
# Static dielectric constant tensor:
#      x y z
#    x 1.480290 0.000000 0.000000 
#    y 0.000000 1.448960 0.000000 
#    z 0.000000 0.000000 1.481210 
# 
# From -- ./inp_files/20911.got.cif
#   From: 2010.05.17/outbox.cif.g08.bks.cpg/sg44_11_cif.got.tgz:20911.got - 2010.06.03 19:37:08.
