data_PCOD9373535
_publ_section_title
;
Structure prediction by ZEFSAII (Michael W. Deem and Ramdas Pophale) SiO2 
 PCOD9373535
Probable space group: I M M 2
;
_chemical_formula_sum "Si O2"
_cell_formula_units_Z 40
_cell_length_a 19.058634
_cell_length_b 8.540432
_cell_length_c 13.876694
_cell_angle_alpha 90.000000
_cell_angle_beta 90.000000
_cell_angle_gamma 90.000000
_cell_volume 2258.695157
_symmetry_space_group_name_H-M "I M M 2"
_symmetry_group_IT_number 44
_symmetry_cell_setting 'orthorhombic'
loop_
_space_group_symop_operation_xyz
x,y,z
-x,-y,z
-x,y,z
x,-y,z
1/2+x,1/2+y,1/2+z
1/2-x,1/2-y,1/2+z
1/2-x,1/2+y,1/2+z
1/2+x,1/2-y,1/2+z
loop_
_atom_site_type_symbol
_atom_site_label
_atom_site_fract_x
_atom_site_fract_y
_atom_site_fract_z
Si Si1 0.000000 0.809387 0.722880
Si Si2 0.643964 0.310076 0.320170
Si Si3 0.784438 0.188134 0.015144
Si Si4 0.210008 0.687801 0.225836
Si Si5 0.000000 0.313160 0.504953
Si Si6 0.144017 0.186689 0.417312
O O1 0.070200 0.756208 0.778045
O O2 0.000000 0.748324 0.614379
O O3 0.000000 0.000000 0.720172
O O4 0.642197 0.500000 0.320211
O O5 0.663374 0.261727 0.428796
O O6 0.710158 0.264503 0.253963
O O7 0.804673 0.256302 0.118263
O O8 0.783845 0.000000 0.019343
O O9 0.707325 0.245411 0.982572
O O10 0.205653 0.500000 0.232260
O O11 0.161075 0.760720 0.308219
O O12 0.930132 0.250915 0.453078
O O13 0.000000 0.500000 0.504140
O O14 0.144927 0.000000 0.424596
#
# Coordination Sequence:
#
# PCOD9373535 Si02
#       6
#     4   8   8   8   4   8
#     4  10  18  34  57  80 107 144 181 216 262 322
#     4   8  17  31  51  77 106 137 177 222 265 313
#     4  10  19  34  54  80 111 145 183 227 273 321
#     4  10  19  34  54  79 108 142 183 230 276 322
#     4  12  24  38  55  80 111 140 171 222 282 336
#     4  11  22  37  56  80 107 142 185 228 272 327
#
# _framework density 17.709339
#
# number of rings (size 3 to 8) (size 9 to 14) (size 15 to 20)
#    0.000    2.000    0.000    6.300    0.000    1.600 
#    0.000    6.000    0.000    2.400    0.000    0.000 
#    0.000    0.000    0.000    0.000    0.000    0.000 
#
# Total GULP energy -111676.476999 kJ/mol
# GULP energy per Si atom -5583.823850 kJ/mol
# Density = 1.766903 g / cm^3
# Si number density = 17.709339 Si / 1000 Ang^3
#
#
#
# Elastic Constant Matrix: (Units=GPa)
#
#
# Indices 1 2 3 4 5 6 
#
# 1 142.7091 27.2323 79.9879 0.0000 0.0000 0.0000
# 2 27.2323 67.9721 26.0082 0.0000 0.0000 0.0000
# 3 79.9879 26.0082 147.2922 0.0000 0.0000 0.0000
# 4 0.0000 0.0000 0.0000 33.2411 0.0000 0.0000
# 5 0.0000 0.0000 0.0000 0.0000 13.8055 0.0000
# 6 0.0000 0.0000 0.0000 0.0000 0.0000 20.6094
#
#
#
# Elastic Compliance Matrix: (Units=1/GPa)
#
#
# Indices 1 2 3 4 5 6 
#
# 1 0.010356 -0.002142 -0.005246 0.000000 0.000000 0.000000
# 2 -0.002142 0.016221 -0.001701 0.000000 0.000000 0.000000
# 3 -0.005246 -0.001701 0.009938 0.000000 0.000000 0.000000
# 4 0.000000 0.000000 0.000000 0.030083 0.000000 0.000000
# 5 0.000000 0.000000 0.000000 0.000000 0.072435 0.000000
# 6 0.000000 0.000000 0.000000 0.000000 0.000000 0.048522
#
#
# Mechanical properties :
#
#
# Convention : Reuss Voigt Hill
#
# Bulk Modulus (GPa) = 54.53155 69.38112 61.95634
# Shear Modulus (GPa) = 23.60214 28.51421 26.05817
#
# Velocity S-wave (km/s) = 3.65465 4.01699 3.84009
# Velocity P-wave (km/s) = 6.97624 7.79600 7.39749
#
# Compressibility (1/GPa) = 0.01833801
#
# Stress axis : x y z
#
# Youngs Moduli (GPa) = 96.56012 61.64874 100.62023
#
# Poissons Ratio (x) = 0.13205 0.52783
# Poissons Ratio (y) = 0.20682 0.17116
# Poissons Ratio (z) = 0.50654 0.10487
#
# Static dielectric constant tensor:
#      x y z
#    x 1.585220 0.000000 0.000000 
#    y 0.000000 1.599870 0.000000 
#    z 0.000000 0.000000 1.587450 
# 
# From -- ./inp_files/14212.got.cif
#   From: 2010.05.17/outbox.cif.g08.bks.cpg/sg44_8_cif.got.tgz:14212.got - 2010.06.03 19:37:08.
