data_PCOD9373895
_publ_section_title
;
Structure prediction by ZEFSAII (Michael W. Deem and Ramdas Pophale) SiO2 
 PCOD9373895
Probable space group: I M M 2
;
_chemical_formula_sum "Si O2"
_cell_formula_units_Z 64
_cell_length_a 8.063402
_cell_length_b 16.934223
_cell_length_c 22.998096
_cell_angle_alpha 90.000000
_cell_angle_beta 90.000000
_cell_angle_gamma 90.000000
_cell_volume 3140.331309
_symmetry_space_group_name_H-M "I M M 2"
_symmetry_group_IT_number 44
_symmetry_cell_setting 'orthorhombic'
loop_
_space_group_symop_operation_xyz
x,y,z
-x,-y,z
-x,y,z
x,-y,z
1/2+x,1/2+y,1/2+z
1/2-x,1/2-y,1/2+z
1/2-x,1/2+y,1/2+z
1/2+x,1/2-y,1/2+z
loop_
_atom_site_type_symbol
_atom_site_label
_atom_site_fract_x
_atom_site_fract_y
_atom_site_fract_z
Si Si1 0.690633 0.775964 0.944860
Si Si2 0.799319 0.413938 0.855335
Si Si3 0.194352 0.086772 0.615736
Si Si4 0.691781 0.589993 0.519549
Si Si5 0.804987 0.253462 0.317621
Si Si6 0.308826 0.882295 0.487532
Si Si7 0.201138 0.911996 0.156207
Si Si8 0.200173 0.736577 0.191671
O O1 0.500000 0.747444 0.940891
O O2 0.698247 0.856072 0.979496
O O3 0.761572 0.783083 0.879630
O O4 0.791880 0.711642 0.980918
O O5 0.754962 0.500000 0.831902
O O6 0.719541 0.341167 0.821819
O O7 0.749867 0.410661 0.923769
O O8 0.000000 0.405126 0.853973
O O9 0.218760 0.092551 0.546049
O O10 0.261036 0.166213 0.646632
O O11 0.000000 0.085903 0.628246
O O12 0.264431 0.000000 0.633868
O O13 0.500000 0.616427 0.515178
O O14 0.700368 0.500000 0.500360
O O15 0.737033 0.592178 0.587316
O O16 0.736707 0.283958 0.256617
O O17 0.000000 0.272115 0.317569
O O18 0.500000 0.905928 0.493354
O O19 0.260920 0.826677 0.179478
O O20 0.000000 0.913233 0.162863
O O21 0.260004 0.000000 0.176851
O O22 0.000000 0.742287 0.192915
#
# Coordination Sequence:
#
# PCOD9373895 Si02
#       8
#     8   8   8   8   8   8   8   8
#     4  10  19  32  50  74 106 138 170 214 267 316
#     4   9  18  32  51  77 107 138 172 210 255 311
#     4  11  24  39  55  79 110 141 176 224 281 331
#     4   9  17  30  49  74 101 128 165 213 262 316
#     4   9  20  35  50  73 102 134 175 219 261 306
#     4  10  19  33  55  80 106 137 174 215 261 319
#     4   8  15  29  51  79 106 129 159 205 256 305
#     4  10  20  36  58  79 102 139 184 222 259 313
#
# _framework density 20.380015
#
# number of rings (size 3 to 8) (size 9 to 14) (size 15 to 20)
#    0.000    2.500    0.000    3.000    0.000    5.000 
#    0.000    1.875    0.000    4.875    0.000    0.000 
#    0.000    0.000    0.000    0.000    0.000    0.000 
#
# Total GULP energy -178336.293240 kJ/mol
# GULP energy per Si atom -5573.009164 kJ/mol
# Density = 2.033363 g / cm^3
# Si number density = 20.380015 Si / 1000 Ang^3
#
#
#
# Elastic Constant Matrix: (Units=GPa)
#
#
# Indices 1 2 3 4 5 6 
#
# 1 14.2687 10.0001 5.1327 0.0000 0.0000 0.0000
# 2 10.0001 89.7302 44.1150 0.0000 0.0000 0.0000
# 3 5.1327 44.1150 67.0854 0.0000 0.0000 0.0000
# 4 0.0000 0.0000 0.0000 -0.5116 0.0000 0.0000
# 5 0.0000 0.0000 0.0000 0.0000 9.8798 0.0000
# 6 0.0000 0.0000 0.0000 0.0000 0.0000 19.8201
#
#
#
# Elastic Compliance Matrix: (Units=1/GPa)
#
#
# Indices 1 2 3 4 5 6 
#
# 1 0.076027 -0.008295 -0.000362 0.000000 0.000000 0.000000
# 2 -0.008295 0.017374 -0.010790 0.000000 0.000000 0.000000
# 3 -0.000362 -0.010790 0.022030 0.000000 0.000000 0.000000
# 4 0.000000 0.000000 0.000000 -1.954657 0.000000 0.000000
# 5 0.000000 0.000000 0.000000 0.000000 0.101216 0.000000
# 6 0.000000 0.000000 0.000000 0.000000 0.000000 0.050454
#
#
# Mechanical properties :
#
#
# Convention : Reuss Voigt Hill
#
# Bulk Modulus (GPa) = 13.06571 32.17555 22.62063
# Shear Modulus (GPa) = -3.08043 13.29343 5.10650
#
# Velocity S-wave (km/s) = -1.23076 2.55674 1.58464
# Velocity P-wave (km/s) = 2.09887 4.95358 3.80416
#
# Compressibility (1/GPa) = 0.07653620
#
# Stress axis : x y z
#
# Youngs Moduli (GPa) = 13.15315 57.55742 45.39306
#
# Poissons Ratio (x) = 0.47743 0.01644
# Poissons Ratio (y) = 0.10910 0.48981
# Poissons Ratio (z) = 0.00476 0.62107
#
# Static dielectric constant tensor:
#      x y z
#    x 1.749520 0.000000 0.000000 
#    y 0.000000 1.758700 0.000000 
#    z 0.000000 0.000000 1.730560 
# 
# From -- ./inp_files/23313.got.cif
#   From: 2010.05.17/outbox.cif.g08.bks.cpg/sg44_12_cif.got.tgz:23313.got - 2010.06.03 19:37:08.
