data_PCOD9373156
_publ_section_title
;
Structure prediction by ZEFSAII (Michael W. Deem and Ramdas Pophale) SiO2 
 PCOD9373156
Probable space group: I M M 2
;
_chemical_formula_sum "Si O2"
_cell_formula_units_Z 48
_cell_length_a 14.301097
_cell_length_b 7.510972
_cell_length_c 24.771278
_cell_angle_alpha 90.000000
_cell_angle_beta 90.000000
_cell_angle_gamma 90.000000
_cell_volume 2660.810273
_symmetry_space_group_name_H-M "I M M 2"
_symmetry_group_IT_number 44
_symmetry_cell_setting 'orthorhombic'
loop_
_space_group_symop_operation_xyz
x,y,z
-x,-y,z
-x,y,z
x,-y,z
1/2+x,1/2+y,1/2+z
1/2-x,1/2-y,1/2+z
1/2-x,1/2+y,1/2+z
1/2+x,1/2-y,1/2+z
loop_
_atom_site_type_symbol
_atom_site_label
_atom_site_fract_x
_atom_site_fract_y
_atom_site_fract_z
Si Si1 0.108465 0.216995 0.882530
Si Si2 0.706338 0.710117 0.275283
Si Si3 0.789327 0.781688 0.110389
Si Si4 0.104049 0.708179 0.665066
Si Si5 0.391808 0.282937 0.503334
Si Si6 0.104707 0.214260 0.218248
O O1 0.172097 0.279511 0.833092
O O2 0.000000 0.266984 0.873358
O O3 0.111027 0.000000 0.883154
O O4 0.135717 0.274900 0.942954
O O5 0.689267 0.500000 0.274967
O O6 0.645053 0.783020 0.225692
O O7 0.814780 0.739449 0.261000
O O8 0.685785 0.718335 0.126680
O O9 0.827709 0.723072 0.052691
O O10 0.857630 0.727141 0.159453
O O11 0.788655 0.000000 0.110570
O O12 0.096699 0.500000 0.651430
O O13 0.000000 0.786083 0.661933
O O14 0.500000 0.231423 0.512309
O O15 0.390226 0.500000 0.503574
O O16 0.000000 0.279970 0.229209
O O17 0.101187 0.000000 0.216502
#
# Coordination Sequence:
#
# PCOD9373156 Si02
#       6
#     8   8   8   8   8   8
#     4   8  14  23  35  55  83 110 133 160 198 242
#     4  10  18  27  41  61  85 110 136 168 203 240
#     4   8  13  22  38  59  80 102 130 164 202 241
#     4   9  17  28  41  59  84 111 138 169 203 240
#     4   8  12  19  34  56  80 104 129 160 201 246
#     4   9  17  29  44  62  84 108 134 165 201 243
#
# _framework density 18.039618000000001
#
# number of rings (size 3 to 8) (size 9 to 14) (size 15 to 20)
#    0.000    3.333    0.000    3.500    0.000    3.333 
#    0.000    0.000    0.000    1.000    0.000   14.000 
#    0.000   10.667    0.000    0.000    0.000    0.000 
#
# Total GULP energy -133737.308426 kJ/mol
# GULP energy per Si atom -5572.387851 kJ/mol
# Density = 1.799856 g / cm^3
# Si number density = 18.039618 Si / 1000 Ang^3
#
#
#
# Elastic Constant Matrix: (Units=GPa)
#
#
# Indices 1 2 3 4 5 6 
#
# 1 143.5127 -1.6406 105.3212 0.0000 0.0000 0.0000
# 2 -1.6406 45.1087 -0.3320 0.0000 0.0000 0.0000
# 3 105.3212 -0.3320 174.0119 0.0000 0.0000 0.0000
# 4 0.0000 0.0000 0.0000 10.5193 0.0000 0.0000
# 5 0.0000 0.0000 0.0000 0.0000 21.8754 0.0000
# 6 0.0000 0.0000 0.0000 0.0000 0.0000 6.2549
#
#
#
# Elastic Compliance Matrix: (Units=1/GPa)
#
#
# Indices 1 2 3 4 5 6 
#
# 1 0.012544 0.000400 -0.007591 0.000000 0.000000 0.000000
# 2 0.000400 0.022182 -0.000200 0.000000 0.000000 0.000000
# 3 -0.007591 -0.000200 0.010341 0.000000 0.000000 0.000000
# 4 0.000000 0.000000 0.000000 0.095063 0.000000 0.000000
# 5 0.000000 0.000000 0.000000 0.000000 0.045714 0.000000
# 6 0.000000 0.000000 0.000000 0.000000 0.000000 0.159874
#
#
# Mechanical properties :
#
#
# Convention : Reuss Voigt Hill
#
# Bulk Modulus (GPa) = 33.02016 63.25895 48.13955
# Shear Modulus (GPa) = 13.49183 25.01556 19.25370
#
# Velocity S-wave (km/s) = 2.73774 3.72788 3.27050
# Velocity P-wave (km/s) = 5.32331 7.32614 6.40351
#
# Compressibility (1/GPa) = 0.03028453
#
# Stress axis : x y z
#
# Youngs Moduli (GPa) = 79.72080 45.08206 96.70183
#
# Poissons Ratio (x) = -0.01805 0.73410
# Poissons Ratio (y) = -0.03192 0.01934
# Poissons Ratio (z) = 0.60519 0.00902
#
# Static dielectric constant tensor:
#      x y z
#    x 1.622980 0.000000 0.000000 
#    y 0.000000 1.717430 0.000000 
#    z 0.000000 0.000000 1.608620 
# 
# From -- ./inp_files/22895.got.cif
#   From: 2010.05.17/outbox.cif.g08.bks.cpg/sg44_12_cif.got.tgz:22895.got - 2010.06.03 19:37:08.
