data_PCOD9373162
_publ_section_title
;
Structure prediction by ZEFSAII (Michael W. Deem and Ramdas Pophale) SiO2 
 PCOD9373162
Probable space group: I M M 2
;
_chemical_formula_sum "Si O2"
_cell_formula_units_Z 64
_cell_length_a 9.069073
_cell_length_b 26.194553
_cell_length_c 18.845475
_cell_angle_alpha 90.000000
_cell_angle_beta 90.000000
_cell_angle_gamma 90.000000
_cell_volume 4476.936946
_symmetry_space_group_name_H-M "I M M 2"
_symmetry_group_IT_number 44
_symmetry_cell_setting 'orthorhombic'
loop_
_space_group_symop_operation_xyz
x,y,z
-x,-y,z
-x,y,z
x,-y,z
1/2+x,1/2+y,1/2+z
1/2-x,1/2-y,1/2+z
1/2-x,1/2+y,1/2+z
1/2+x,1/2-y,1/2+z
loop_
_atom_site_type_symbol
_atom_site_label
_atom_site_fract_x
_atom_site_fract_y
_atom_site_fract_z
Si Si1 0.325822 0.060357 0.645290
Si Si2 0.322069 0.260812 0.992077
Si Si3 0.323876 0.146300 0.406886
Si Si4 0.325575 0.641926 0.241089
Si Si5 0.173895 0.939257 0.494990
Si Si6 0.669492 0.697302 0.779453
Si Si7 0.668937 0.194709 0.864318
Si Si8 0.324471 0.252810 0.157105
O O1 0.500000 0.069707 0.636219
O O2 0.260897 0.094742 0.707669
O O3 0.241199 0.073113 0.572276
O O4 0.304566 0.000000 0.658699
O O5 0.500000 0.269149 0.985792
O O6 0.285597 0.253503 0.074321
O O7 0.239534 0.309249 0.958527
O O8 0.286695 0.211520 0.943457
O O9 0.500000 0.146724 0.407840
O O10 0.258689 0.093808 0.436936
O O11 0.262894 0.159454 0.328651
O O12 0.500000 0.632699 0.240143
O O13 0.270676 0.657126 0.319479
O O14 0.294911 0.691511 0.191433
O O15 0.000000 0.927071 0.494210
O O16 0.191566 0.000000 0.484089
O O17 0.500000 0.680742 0.773923
O O18 0.670930 0.751247 0.822155
O O19 0.739477 0.711119 0.703871
O O20 0.500000 0.176190 0.864314
O O21 0.500000 0.244051 0.163700
#
# Coordination Sequence:
#
# PCOD9373162 Si02
#       8
#     8   8   8   8   8   8   8   8
#     4  10  20  32  45  62  84 109 140 178 214 249
#     4   9  17  29  44  62  87 116 144 175 210 251
#     4  11  20  29  44  63  85 113 144 177 211 249
#     4  10  18  27  42  61  83 113 144 175 210 249
#     4  10  20  33  47  62  83 111 142 176 212 249
#     4   9  17  29  43  59  82 111 142 174 208 247
#     4   8  15  27  41  57  80 111 143 175 209 245
#     4   9  17  28  42  62  86 111 141 174 208 246
#
# _framework density 14.295488000000001
#
# number of rings (size 3 to 8) (size 9 to 14) (size 15 to 20)
#    0.000    2.500    0.000    4.125    0.000    6.500 
#    0.000    0.000    0.000    0.000    0.000    0.000 
#    0.000    1.000    0.000    5.750    0.000    3.750 
#
# Total GULP energy -178386.153694 kJ/mol
# GULP energy per Si atom -5574.567303 kJ/mol
# Density = 1.426295 g / cm^3
# Si number density = 14.295488 Si / 1000 Ang^3
#
#
#
# Elastic Constant Matrix: (Units=GPa)
#
#
# Indices 1 2 3 4 5 6 
#
# 1 82.0695 39.3666 45.0880 0.0000 0.0000 0.0000
# 2 39.3666 37.3220 26.4947 0.0000 0.0000 0.0000
# 3 45.0880 26.4947 89.6101 0.0000 0.0000 0.0000
# 4 0.0000 0.0000 0.0000 25.3083 0.0000 0.0000
# 5 0.0000 0.0000 0.0000 0.0000 24.0585 0.0000
# 6 0.0000 0.0000 0.0000 0.0000 0.0000 20.3679
#
#
#
# Elastic Compliance Matrix: (Units=1/GPa)
#
#
# Indices 1 2 3 4 5 6 
#
# 1 0.027476 -0.024258 -0.006652 0.000000 0.000000 0.000000
# 2 -0.024258 0.055330 -0.004153 0.000000 0.000000 0.000000
# 3 -0.006652 -0.004153 0.015735 0.000000 0.000000 0.000000
# 4 0.000000 0.000000 0.000000 0.039513 0.000000 0.000000
# 5 0.000000 0.000000 0.000000 0.000000 0.041565 0.000000
# 6 0.000000 0.000000 0.000000 0.000000 0.000000 0.049097
#
#
# Mechanical properties :
#
#
# Convention : Reuss Voigt Hill
#
# Bulk Modulus (GPa) = 35.19639 47.87779 41.53709
# Shear Modulus (GPa) = 16.21727 20.48375 18.35051
#
# Velocity S-wave (km/s) = 3.37179 3.78945 3.58670
# Velocity P-wave (km/s) = 6.31131 7.26022 6.80233
#
# Compressibility (1/GPa) = 0.02841200
#
# Stress axis : x y z
#
# Youngs Moduli (GPa) = 36.39599 18.07347 63.55456
#
# Poissons Ratio (x) = 0.43843 0.42277
# Poissons Ratio (y) = 0.88291 0.26396
# Poissons Ratio (z) = 0.24211 0.07506
#
# Static dielectric constant tensor:
#      x y z
#    x 1.477500 0.000000 0.000000 
#    y 0.000000 1.453920 0.000000 
#    z 0.000000 0.000000 1.471580 
# 
# From -- ./inp_files/20760.got.cif
#   From: 2010.05.17/outbox.cif.g08.bks.cpg/sg44_11_cif.got.tgz:20760.got - 2010.06.03 19:37:08.
