data_PCOD9373911
_publ_section_title
;
Structure prediction by ZEFSAII (Michael W. Deem and Ramdas Pophale) SiO2 
 PCOD9373911
Probable space group: I M M 2
;
_chemical_formula_sum "Si O2"
_cell_formula_units_Z 56
_cell_length_a 9.076366
_cell_length_b 19.316032
_cell_length_c 17.696630
_cell_angle_alpha 90.000000
_cell_angle_beta 90.000000
_cell_angle_gamma 90.000000
_cell_volume 3102.562131
_symmetry_space_group_name_H-M "I M M 2"
_symmetry_group_IT_number 44
_symmetry_cell_setting 'orthorhombic'
loop_
_space_group_symop_operation_xyz
x,y,z
-x,-y,z
-x,y,z
x,-y,z
1/2+x,1/2+y,1/2+z
1/2-x,1/2-y,1/2+z
1/2-x,1/2+y,1/2+z
1/2+x,1/2-y,1/2+z
loop_
_atom_site_type_symbol
_atom_site_label
_atom_site_fract_x
_atom_site_fract_y
_atom_site_fract_z
Si Si1 0.822870 0.579348 0.273350
Si Si2 0.827022 0.690581 0.980340
Si Si3 0.333423 0.790759 0.231922
Si Si4 0.832071 0.151583 0.634813
Si Si5 0.324112 0.214076 0.866944
Si Si6 0.834354 0.921320 0.389883
Si Si7 0.670331 0.576800 0.707606
O O1 0.786590 0.500000 0.293629
O O2 0.745947 0.600700 0.194700
O O3 0.782265 0.637500 0.336101
O O4 0.000000 0.584260 0.263689
O O5 0.756503 0.665242 0.058553
O O6 0.000000 0.701298 0.987876
O O7 0.751723 0.758385 0.943102
O O8 0.787479 0.628443 0.923111
O O9 0.500000 0.803500 0.260011
O O10 0.337009 0.725574 0.176621
O O11 0.228966 0.766278 0.300522
O O12 0.271104 0.857966 0.189538
O O13 0.000000 0.129051 0.619453
O O14 0.500000 0.217256 0.874474
O O15 0.827513 0.924347 0.299227
O O16 0.000000 0.896246 0.410139
O O17 0.818551 0.000000 0.417840
O O18 0.500000 0.587510 0.684821
O O19 0.717167 0.500000 0.681728
#
# Coordination Sequence:
#
# PCOD9373911 Si02
#       7
#     8   8   8   8   8   8   8
#     4   9  19  37  60  85 110 139 180 225 270 324
#     4  12  23  34  51  77 107 140 181 223 263 311
#     4  10  19  32  51  76 101 129 172 219 256 303
#     4  10  22  37  53  75 106 142 177 214 266 323
#     4  10  19  33  55  78 105 140 174 216 269 319
#     4   9  18  32  49  71 101 136 169 200 243 300
#     4   9  17  29  48  73 100 132 165 198 244 300
#
# _framework density 18.049599000000001
#
# number of rings (size 3 to 8) (size 9 to 14) (size 15 to 20)
#    0.000    2.143    1.429    3.429    0.000    3.714 
#    0.000    1.429    0.000    0.857    0.000    2.000 
#    0.000    0.000    0.000    0.000    0.000    0.000 
#
# Total GULP energy -156113.702665 kJ/mol
# GULP energy per Si atom -5575.489381 kJ/mol
# Density = 1.800852 g / cm^3
# Si number density = 18.049599 Si / 1000 Ang^3
#
#
#
# Elastic Constant Matrix: (Units=GPa)
#
#
# Indices 1 2 3 4 5 6 
#
# 1 74.1612 26.7633 12.1379 0.0000 0.0000 0.0000
# 2 26.7633 110.4776 2.2705 0.0000 0.0000 0.0000
# 3 12.1379 2.2705 27.1195 0.0000 0.0000 0.0000
# 4 0.0000 0.0000 0.0000 10.9740 0.0000 0.0000
# 5 0.0000 0.0000 0.0000 0.0000 22.7958 0.0000
# 6 0.0000 0.0000 0.0000 0.0000 0.0000 21.7441
#
#
#
# Elastic Compliance Matrix: (Units=1/GPa)
#
#
# Indices 1 2 3 4 5 6 
#
# 1 0.015944 -0.003722 -0.006825 0.000000 0.000000 0.000000
# 2 -0.003722 0.009936 0.000834 0.000000 0.000000 0.000000
# 3 -0.006825 0.000834 0.039859 0.000000 0.000000 0.000000
# 4 0.000000 0.000000 0.000000 0.091124 0.000000 0.000000
# 5 0.000000 0.000000 0.000000 0.000000 0.043868 0.000000
# 6 0.000000 0.000000 0.000000 0.000000 0.000000 0.045989
#
#
# Mechanical properties :
#
#
# Convention : Reuss Voigt Hill
#
# Bulk Modulus (GPa) = 21.59197 32.67797 27.13497
# Shear Modulus (GPa) = 17.75669 22.47522 20.11595
#
# Velocity S-wave (km/s) = 3.13992 3.53256 3.34201
# Velocity P-wave (km/s) = 5.01338 5.89766 5.47341
#
# Compressibility (1/GPa) = 0.04631352
#
# Stress axis : x y z
#
# Youngs Moduli (GPa) = 62.71778 100.64211 25.08870
#
# Poissons Ratio (x) = 0.37462 0.17122
# Poissons Ratio (y) = 0.23345 -0.02093
# Poissons Ratio (z) = 0.42803 -0.08395
#
# Static dielectric constant tensor:
#      x y z
#    x 1.629940 0.000000 0.000000 
#    y 0.000000 1.652020 0.000000 
#    z 0.000000 0.000000 1.616300 
# 
# From -- ./inp_files/20656.got.cif
#   From: 2010.05.17/outbox.cif.g08.bks.cpg/sg44_11_cif.got.tgz:20656.got - 2010.06.03 19:37:08.
