data_PCOD9373353
_publ_section_title
;
Structure prediction by ZEFSAII (Michael W. Deem and Ramdas Pophale) SiO2 
 PCOD9373353
Probable space group: I M M 2
;
_chemical_formula_sum "Si O2"
_cell_formula_units_Z 48
_cell_length_a 7.464899
_cell_length_b 21.331423
_cell_length_c 14.853664
_cell_angle_alpha 90.000000
_cell_angle_beta 90.000000
_cell_angle_gamma 90.000000
_cell_volume 2365.251680
_symmetry_space_group_name_H-M "I M M 2"
_symmetry_group_IT_number 44
_symmetry_cell_setting 'orthorhombic'
loop_
_space_group_symop_operation_xyz
x,y,z
-x,-y,z
-x,y,z
x,-y,z
1/2+x,1/2+y,1/2+z
1/2-x,1/2-y,1/2+z
1/2-x,1/2+y,1/2+z
1/2+x,1/2-y,1/2+z
loop_
_atom_site_type_symbol
_atom_site_label
_atom_site_fract_x
_atom_site_fract_y
_atom_site_fract_z
Si Si1 0.219842 0.691882 0.193100
Si Si2 0.783583 0.124720 0.988715
Si Si3 0.780909 0.070901 0.181835
Si Si4 0.211220 0.430757 0.295314
Si Si5 0.213424 0.814384 0.302056
Si Si6 0.714215 0.231849 0.496480
O O1 0.283537 0.627153 0.237057
O O2 0.279789 0.751471 0.252351
O O3 0.000000 0.691456 0.195293
O O4 0.277302 0.702674 0.090388
O O5 0.728930 0.087474 0.900010
O O6 0.718919 0.196756 0.984458
O O7 0.000000 0.125753 0.989582
O O8 0.726140 0.092974 0.081964
O O9 0.719573 0.122912 0.253462
O O10 0.000000 0.070630 0.182482
O O11 0.722521 0.000000 0.200189
O O12 0.287470 0.500000 0.279042
O O13 0.000000 0.433782 0.275122
O O14 0.246800 0.807955 0.407768
O O15 0.000000 0.814422 0.288747
O O16 0.500000 0.236639 0.504214
#
# Coordination Sequence:
#
# PCOD9373353 Si02
#       6
#     8   8   8   8   8   8
#     4   9  17  32  51  69  96 131 164 196 233 288
#     4  10  18  30  51  77 101 126 158 201 250 293
#     4   9  17  30  50  75 100 128 163 199 240 294
#     4  10  20  33  50  73 100 131 164 199 242 289
#     4  10  18  32  53  73  96 130 166 200 239 285
#     4  10  19  32  51  76 101 126 162 205 243 283
#
# _framework density 20.293824000000001
#
# number of rings (size 3 to 8) (size 9 to 14) (size 15 to 20)
#    0.000    2.333    3.333    0.500    0.000    1.000 
#    0.000    3.333    0.000    2.500    0.000    0.000 
#    0.000    0.000    0.000    0.000    0.000    0.000 
#
# Total GULP energy -134033.951886 kJ/mol
# GULP energy per Si atom -5584.747995 kJ/mol
# Density = 2.024763 g / cm^3
# Si number density = 20.293824 Si / 1000 Ang^3
#
#
#
# Elastic Constant Matrix: (Units=GPa)
#
#
# Indices 1 2 3 4 5 6 
#
# 1 58.0547 8.4215 -5.4520 0.0000 0.0000 0.0000
# 2 8.4215 182.3417 85.2948 0.0000 0.0000 0.0000
# 3 -5.4520 85.2948 142.8612 0.0000 0.0000 0.0000
# 4 0.0000 0.0000 0.0000 25.1454 0.0000 0.0000
# 5 0.0000 0.0000 0.0000 0.0000 18.8569 0.0000
# 6 0.0000 0.0000 0.0000 0.0000 0.0000 -1.3633
#
#
#
# Elastic Compliance Matrix: (Units=1/GPa)
#
#
# Indices 1 2 3 4 5 6 
#
# 1 0.017603 -0.001564 0.001606 0.000000 0.000000 0.000000
# 2 -0.001564 0.007748 -0.004686 0.000000 0.000000 0.000000
# 3 0.001606 -0.004686 0.009859 0.000000 0.000000 0.000000
# 4 0.000000 0.000000 0.000000 0.039769 0.000000 0.000000
# 5 0.000000 0.000000 0.000000 0.000000 0.053031 0.000000
# 6 0.000000 0.000000 0.000000 0.000000 0.000000 -0.733516
#
#
# Mechanical properties :
#
#
# Convention : Reuss Voigt Hill
#
# Bulk Modulus (GPa) = 38.57828 62.19847 50.38838
# Shear Modulus (GPa) = -8.50952 28.19401 9.84225
#
# Velocity S-wave (km/s) = -2.04994 3.73136 2.20463
# Velocity P-wave (km/s) = 3.66717 7.01994 5.60034
#
# Compressibility (1/GPa) = 0.02592132
#
# Stress axis : x y z
#
# Youngs Moduli (GPa) = 56.80912 129.05980 101.43305
#
# Poissons Ratio (x) = 0.20185 -0.16286
# Poissons Ratio (y) = 0.08885 0.47530
# Poissons Ratio (z) = -0.09121 0.60475
#
# Static dielectric constant tensor:
#      x y z
#    x 1.785010 0.000000 0.000000 
#    y 0.000000 1.714460 0.000000 
#    z 0.000000 0.000000 1.680450 
# 
# From -- ./inp_files/11168.got.cif
#   From: 2010.05.17/outbox.cif.g08.bks.cpg/sg44_6_cif.got.tgz:11168.got - 2010.06.03 19:37:08.
