data_PCOD9373739
_publ_section_title
;
Structure prediction by ZEFSAII (Michael W. Deem and Ramdas Pophale) SiO2 
 PCOD9373739
Probable space group: I M M 2
;
_chemical_formula_sum "Si O2"
_cell_formula_units_Z 64
_cell_length_a 7.548030
_cell_length_b 26.014728
_cell_length_c 15.385968
_cell_angle_alpha 90.000000
_cell_angle_beta 90.000000
_cell_angle_gamma 90.000000
_cell_volume 3021.187867
_symmetry_space_group_name_H-M "I M M 2"
_symmetry_group_IT_number 44
_symmetry_cell_setting 'orthorhombic'
loop_
_space_group_symop_operation_xyz
x,y,z
-x,-y,z
-x,y,z
x,-y,z
1/2+x,1/2+y,1/2+z
1/2-x,1/2-y,1/2+z
1/2-x,1/2+y,1/2+z
1/2+x,1/2-y,1/2+z
loop_
_atom_site_type_symbol
_atom_site_label
_atom_site_fract_x
_atom_site_fract_y
_atom_site_fract_z
Si Si1 0.209685 0.768677 0.340290
Si Si2 0.788521 0.942724 0.732193
Si Si3 0.287653 0.363706 0.726417
Si Si4 0.213926 0.847808 0.847180
Si Si5 0.788186 0.557954 0.877011
Si Si6 0.797727 0.721589 0.039547
Si Si7 0.713995 0.890092 0.553563
Si Si8 0.782747 0.164598 0.044150
O O1 0.274984 0.810798 0.271764
O O2 0.236958 0.709292 0.314525
O O3 0.297425 0.778577 0.434102
O O4 0.000000 0.776407 0.353007
O O5 0.719140 0.895440 0.790287
O O6 0.757569 0.927600 0.632238
O O7 0.000000 0.944478 0.746189
O O8 0.718446 0.000000 0.750718
O O9 0.500000 0.359813 0.722122
O O10 0.244971 0.410156 0.790131
O O11 0.225957 0.368222 0.627107
O O12 0.000000 0.849401 0.846761
O O13 0.274512 0.851263 0.947758
O O14 0.718511 0.500000 0.873390
O O15 0.000000 0.554928 0.887751
O O16 0.719994 0.588278 0.961587
O O17 0.716987 0.667784 0.069540
O O18 0.720042 0.776957 0.061881
O O19 0.000000 0.722839 0.072123
O O20 0.500000 0.885992 0.548036
O O21 0.000000 0.165628 0.040497
#
# Coordination Sequence:
#
# PCOD9373739 Si02
#       8
#     8   8   8   8   8   8   8   8
#     4  10  19  30  50  80 112 138 171 219 268 314
#     4  10  22  38  55  78 107 140 183 234 280 319
#     4  10  20  33  52  79 109 139 175 220 266 310
#     4   9  19  37  57  75 104 145 185 221 267 325
#     4  10  21  37  55  76 106 143 181 217 257 314
#     4   9  17  32  54  76 105 143 178 208 254 320
#     4  10  20  34  56  81 107 142 180 217 265 328
#     4   8  16  32  53  76 104 137 174 215 259 311
#
# _framework density 21.183720999999998
#
# number of rings (size 3 to 8) (size 9 to 14) (size 15 to 20)
#    0.000    2.500    1.250    1.500    1.750    3.000 
#    0.000    3.125    0.000    2.250    0.000    0.000 
#    0.000    0.000    0.000    0.000    0.000    0.000 
#
# Total GULP energy -178624.435736 kJ/mol
# GULP energy per Si atom -5582.013617 kJ/mol
# Density = 2.113551 g / cm^3
# Si number density = 21.183721 Si / 1000 Ang^3
#
#
#
# Elastic Constant Matrix: (Units=GPa)
#
#
# Indices 1 2 3 4 5 6 
#
# 1 52.7083 -4.1373 -5.6243 0.0000 0.0000 0.0000
# 2 -4.1373 116.3391 37.9269 0.0000 0.0000 0.0000
# 3 -5.6243 37.9269 65.0061 0.0000 0.0000 0.0000
# 4 0.0000 0.0000 0.0000 28.0076 0.0000 0.0000
# 5 0.0000 0.0000 0.0000 0.0000 11.7173 0.0000
# 6 0.0000 0.0000 0.0000 0.0000 0.0000 15.5608
#
#
#
# Elastic Compliance Matrix: (Units=1/GPa)
#
#
# Indices 1 2 3 4 5 6 
#
# 1 0.019152 0.000174 0.001555 0.000000 0.000000 0.000000
# 2 0.000174 0.010616 -0.006179 0.000000 0.000000 0.000000
# 3 0.001555 -0.006179 0.019123 0.000000 0.000000 0.000000
# 4 0.000000 0.000000 0.000000 0.035705 0.000000 0.000000
# 5 0.000000 0.000000 0.000000 0.000000 0.085344 0.000000
# 6 0.000000 0.000000 0.000000 0.000000 0.000000 0.064264
#
#
# Mechanical properties :
#
#
# Convention : Reuss Voigt Hill
#
# Bulk Modulus (GPa) = 25.00487 32.26490 28.63489
# Shear Modulus (GPa) = 19.49833 24.78303 22.14068
#
# Velocity S-wave (km/s) = 3.03717 3.42410 3.23642
# Velocity P-wave (km/s) = 4.91209 5.55848 5.24525
#
# Compressibility (1/GPa) = 0.03999221
#
# Stress axis : x y z
#
# Youngs Moduli (GPa) = 52.21392 94.19718 52.29401
#
# Poissons Ratio (x) = -0.01639 -0.08134
# Poissons Ratio (y) = -0.00908 0.32311
# Poissons Ratio (z) = -0.08122 0.58202
#
# Static dielectric constant tensor:
#      x y z
#    x 1.811630 0.000000 0.000000 
#    y 0.000000 1.759400 0.000000 
#    z 0.000000 0.000000 1.754450 
# 
# From -- ./inp_files/16786.got.cif
#   From: 2010.05.17/outbox.cif.g08.bks.cpg/sg44_9_cif.got.tgz:16786.got - 2010.06.03 19:37:08.
