data_PCOD9373231
_publ_section_title
;
Structure prediction by ZEFSAII (Michael W. Deem and Ramdas Pophale) SiO2 
 PCOD9373231
Probable space group: I M M 2
;
_chemical_formula_sum "Si O2"
_cell_formula_units_Z 56
_cell_length_a 7.445049
_cell_length_b 20.396187
_cell_length_c 15.845884
_cell_angle_alpha 90.000000
_cell_angle_beta 90.000000
_cell_angle_gamma 90.000000
_cell_volume 2406.207177
_symmetry_space_group_name_H-M "I M M 2"
_symmetry_group_IT_number 44
_symmetry_cell_setting 'orthorhombic'
loop_
_space_group_symop_operation_xyz
x,y,z
-x,-y,z
-x,y,z
x,-y,z
1/2+x,1/2+y,1/2+z
1/2-x,1/2-y,1/2+z
1/2-x,1/2+y,1/2+z
1/2+x,1/2-y,1/2+z
loop_
_atom_site_type_symbol
_atom_site_label
_atom_site_fract_x
_atom_site_fract_y
_atom_site_fract_z
Si Si1 0.784756 0.426952 0.996040
Si Si2 0.712110 0.730508 0.683267
Si Si3 0.785932 0.139575 0.335199
Si Si4 0.783258 0.359499 0.522756
Si Si5 0.293918 0.000000 0.079382
Si Si6 0.281494 0.074369 0.859938
Si Si7 0.779813 0.379323 0.177324
Si Si8 0.281357 0.500000 0.772727
O O1 0.716299 0.500000 0.969503
O O2 0.742444 0.364451 0.935881
O O3 0.000000 0.430693 0.997120
O O4 0.722169 0.413669 0.091133
O O5 0.500000 0.737118 0.698451
O O6 0.784477 0.690474 0.765106
O O7 0.729755 0.692754 0.593791
O O8 0.782137 0.804032 0.677282
O O9 0.000000 0.140081 0.324119
O O10 0.716219 0.067506 0.311753
O O11 0.715925 0.430432 0.554164
O O12 0.728879 0.366651 0.424162
O O13 0.000000 0.357143 0.524000
O O14 0.500000 0.000000 0.047640
O O15 0.287998 0.000000 0.178784
O O16 0.500000 0.074293 0.860133
O O17 0.222917 0.087510 0.764636
O O18 0.227339 0.000000 0.886075
O O19 0.000000 0.380844 0.176746
O O20 0.500000 0.500000 0.772960
#
# Coordination Sequence:
#
# PCOD9373231 Si02
#       8
#     8   8   8   8   4   8   8   4
#     4  10  20  34  55  81 103 129 171 220 264 300
#     4  10  21  36  52  74 107 144 174 202 247 311
#     4  10  20  33  51  75 104 137 171 207 253 307
#     4  10  19  31  52  82 108 131 165 211 262 308
#     4  10  18  28  46  77 110 132 160 211 264 303
#     4   9  16  30  54  80 103 129 168 219 264 300
#     4   9  19  35  53  74 103 138 175 213 253 302
#     4  10  18  30  48  73 102 136 174 207 246 303
#
# _framework density 23.273142
#
# number of rings (size 3 to 8) (size 9 to 14) (size 15 to 20)
#    0.000    2.286    2.857    0.429    0.000    4.000 
#    0.000    2.143    0.000    1.714    0.000    0.000 
#    0.000    0.000    0.000    0.000    0.000    0.000 
#
# Total GULP energy -156094.406182 kJ/mol
# GULP energy per Si atom -5574.800221 kJ/mol
# Density = 2.322017 g / cm^3
# Si number density = 23.273142 Si / 1000 Ang^3
#
#
#
# Elastic Constant Matrix: (Units=GPa)
#
#
# Indices 1 2 3 4 5 6 
#
# 1 68.5405 -0.5459 -12.1599 0.0000 0.0000 0.0000
# 2 -0.5459 86.0210 32.1016 0.0000 0.0000 0.0000
# 3 -12.1599 32.1016 144.9671 0.0000 0.0000 0.0000
# 4 0.0000 0.0000 0.0000 40.8754 0.0000 0.0000
# 5 0.0000 0.0000 0.0000 0.0000 26.3784 0.0000
# 6 0.0000 0.0000 0.0000 0.0000 0.0000 5.1537
#
#
#
# Elastic Compliance Matrix: (Units=1/GPa)
#
#
# Indices 1 2 3 4 5 6 
#
# 1 0.014823 -0.000403 0.001333 0.000000 0.000000 0.000000
# 2 -0.000403 0.012683 -0.002842 0.000000 0.000000 0.000000
# 3 0.001333 -0.002842 0.007639 0.000000 0.000000 0.000000
# 4 0.000000 0.000000 0.000000 0.024465 0.000000 0.000000
# 5 0.000000 0.000000 0.000000 0.000000 0.037910 0.000000
# 6 0.000000 0.000000 0.000000 0.000000 0.000000 0.194034
#
#
# Mechanical properties :
#
#
# Convention : Reuss Voigt Hill
#
# Bulk Modulus (GPa) = 31.92879 37.59114 34.75996
# Shear Modulus (GPa) = 16.34951 33.15703 24.75327
#
# Velocity S-wave (km/s) = 2.65336 3.77860 3.26482
# Velocity P-wave (km/s) = 4.80999 5.93501 5.40187
#
# Compressibility (1/GPa) = 0.03131970
#
# Stress axis : x y z
#
# Youngs Moduli (GPa) = 67.46210 78.84413 130.90155
#
# Poissons Ratio (x) = 0.03180 -0.17445
# Poissons Ratio (y) = 0.02721 0.37208
# Poissons Ratio (z) = -0.08990 0.22411
#
# Static dielectric constant tensor:
#      x y z
#    x 1.884110 0.000000 0.000000 
#    y 0.000000 1.846950 0.000000 
#    z 0.000000 0.000000 1.953100 
# 
# From -- ./inp_files/16585.got.cif
#   From: 2010.05.17/outbox.cif.g08.bks.cpg/sg44_9_cif.got.tgz:16585.got - 2010.06.03 19:37:08.
