data_PCOD9373222
_publ_section_title
;
Structure prediction by ZEFSAII (Michael W. Deem and Ramdas Pophale) SiO2 
 PCOD9373222
Probable space group: I M M 2
;
_chemical_formula_sum "Si O2"
_cell_formula_units_Z 64
_cell_length_a 7.440379
_cell_length_b 21.572146
_cell_length_c 20.427650
_cell_angle_alpha 90.000000
_cell_angle_beta 90.000000
_cell_angle_gamma 90.000000
_cell_volume 3278.738780
_symmetry_space_group_name_H-M "I M M 2"
_symmetry_group_IT_number 44
_symmetry_cell_setting 'orthorhombic'
loop_
_space_group_symop_operation_xyz
x,y,z
-x,-y,z
-x,y,z
x,-y,z
1/2+x,1/2+y,1/2+z
1/2-x,1/2-y,1/2+z
1/2-x,1/2+y,1/2+z
1/2+x,1/2-y,1/2+z
loop_
_atom_site_type_symbol
_atom_site_label
_atom_site_fract_x
_atom_site_fract_y
_atom_site_fract_z
Si Si1 0.280574 0.378444 0.530100
Si Si2 0.718254 0.379950 0.385142
Si Si3 0.218767 0.734985 0.885071
Si Si4 0.211984 0.188882 0.669992
Si Si5 0.784951 0.690461 0.747237
Si Si6 0.216041 0.265248 0.029538
Si Si7 0.720006 0.568644 0.246955
Si Si8 0.284767 0.432388 0.665972
O O1 0.500000 0.379491 0.529995
O O2 0.222999 0.399904 0.457786
O O3 0.226055 0.306434 0.538666
O O4 0.218181 0.416298 0.592872
O O5 0.500000 0.382067 0.385423
O O6 0.767360 0.307500 0.376851
O O7 0.776488 0.417700 0.321796
O O8 0.281410 0.697752 0.821645
O O9 0.000000 0.733144 0.885740
O O10 0.278694 0.714378 0.957367
O O11 0.285014 0.251656 0.703898
O O12 0.231962 0.195045 0.592249
O O13 0.282612 0.125675 0.701940
O O14 0.000000 0.188514 0.684372
O O15 0.751254 0.625029 0.713365
O O16 0.000000 0.696956 0.749772
O O17 0.000000 0.264148 0.028091
O O18 0.500000 0.568815 0.246278
O O19 0.777359 0.500000 0.226390
O O20 0.500000 0.435677 0.661255
O O21 0.218567 0.500000 0.687483
#
# Coordination Sequence:
#
# PCOD9373222 Si02
#       8
#     8   8   8   8   8   8   8   8
#     4   8  14  24  40  63  91 120 148 180 217 262
#     4   8  12  21  38  62  91 119 148 180 217 261
#     4   8  14  26  45  68  90 114 148 193 232 261
#     4  10  18  28  45  70  96 120 150 190 230 267
#     4  10  18  30  49  69  91 120 156 195 232 271
#     4   9  16  28  48  69  90 118 153 188 226 272
#     4   9  16  25  39  63  95 125 150 181 225 272
#     4  10  20  32  45  66  97 126 153 188 230 276
#
# _framework density 19.519701999999999
#
# number of rings (size 3 to 8) (size 9 to 14) (size 15 to 20)
#    0.000    3.000    2.500    1.500    0.000    0.750 
#    0.000    3.125    0.000    1.125    0.000    4.375 
#    0.000    0.000    0.000    0.000    0.000    0.000 
#
# Total GULP energy -178446.777025 kJ/mol
# GULP energy per Si atom -5576.461782 kJ/mol
# Density = 1.947527 g / cm^3
# Si number density = 19.519702 Si / 1000 Ang^3
#
#
#
# Elastic Constant Matrix: (Units=GPa)
#
#
# Indices 1 2 3 4 5 6 
#
# 1 57.7607 6.7594 2.6799 0.0000 0.0000 0.0000
# 2 6.7594 139.1813 100.1694 0.0000 0.0000 0.0000
# 3 2.6799 100.1694 151.2709 0.0000 0.0000 0.0000
# 4 0.0000 0.0000 0.0000 20.9290 0.0000 0.0000
# 5 0.0000 0.0000 0.0000 0.0000 11.5618 0.0000
# 6 0.0000 0.0000 0.0000 0.0000 0.0000 5.0867
#
#
#
# Elastic Compliance Matrix: (Units=1/GPa)
#
#
# Indices 1 2 3 4 5 6 
#
# 1 0.017430 -0.001193 0.000481 0.000000 0.000000 0.000000
# 2 -0.001193 0.013808 -0.009123 0.000000 0.000000 0.000000
# 3 0.000481 -0.009123 0.012643 0.000000 0.000000 0.000000
# 4 0.000000 0.000000 0.000000 0.047781 0.000000 0.000000
# 5 0.000000 0.000000 0.000000 0.000000 0.086492 0.000000
# 6 0.000000 0.000000 0.000000 0.000000 0.000000 0.196589
#
#
# Mechanical properties :
#
#
# Convention : Reuss Voigt Hill
#
# Bulk Modulus (GPa) = 41.30032 63.04780 52.17406
# Shear Modulus (GPa) = 12.42290 23.42244 17.92267
#
# Velocity S-wave (km/s) = 2.52549 3.46777 3.03344
# Velocity P-wave (km/s) = 5.45054 6.95727 6.24948
#
# Compressibility (1/GPa) = 0.02421289
#
# Stress axis : x y z
#
# Youngs Moduli (GPa) = 57.37213 72.41998 79.09539
#
# Poissons Ratio (x) = 0.08637 -0.03804
# Poissons Ratio (y) = 0.06842 0.72155
# Poissons Ratio (z) = -0.02759 0.66066
#
# Static dielectric constant tensor:
#      x y z
#    x 1.783680 0.000000 0.000000 
#    y 0.000000 1.669780 0.000000 
#    z 0.000000 0.000000 1.695750 
# 
# From -- ./inp_files/21494.got.cif
#   From: 2010.05.17/outbox.cif.g08.bks.cpg/sg44_11_cif.got.tgz:21494.got - 2010.06.03 19:37:08.
