data_PCOD9373638
_publ_section_title
;
Structure prediction by ZEFSAII (Michael W. Deem and Ramdas Pophale) SiO2 
 PCOD9373638
Probable space group: I M M 2
;
_chemical_formula_sum "Si O2"
_cell_formula_units_Z 48
_cell_length_a 8.204703
_cell_length_b 14.286267
_cell_length_c 24.711495
_cell_angle_alpha 90.000000
_cell_angle_beta 90.000000
_cell_angle_gamma 90.000000
_cell_volume 2896.547451
_symmetry_space_group_name_H-M "I M M 2"
_symmetry_group_IT_number 44
_symmetry_cell_setting 'orthorhombic'
loop_
_space_group_symop_operation_xyz
x,y,z
-x,-y,z
-x,y,z
x,-y,z
1/2+x,1/2+y,1/2+z
1/2-x,1/2-y,1/2+z
1/2-x,1/2+y,1/2+z
1/2+x,1/2-y,1/2+z
loop_
_atom_site_type_symbol
_atom_site_label
_atom_site_fract_x
_atom_site_fract_y
_atom_site_fract_z
Si Si1 0.301107 0.108277 0.995920
Si Si2 0.194594 0.789505 0.223849
Si Si3 0.196228 0.286937 0.390252
Si Si4 0.805621 0.605247 0.830641
Si Si5 0.698989 0.105525 0.782401
Si Si6 0.803302 0.392361 0.617833
O O1 0.500000 0.110268 0.995824
O O2 0.243362 0.175197 0.947830
O O3 0.255113 0.000000 0.985461
O O4 0.249060 0.133228 0.056933
O O5 0.259832 0.857670 0.270921
O O6 0.250619 0.684547 0.239444
O O7 0.244710 0.825470 0.165262
O O8 0.000000 0.790683 0.227943
O O9 0.243779 0.182522 0.372969
O O10 0.249544 0.355289 0.341278
O O11 0.000000 0.290977 0.391177
O O12 0.741882 0.500000 0.839067
O O13 0.000000 0.602926 0.834148
O O14 0.500000 0.103474 0.782231
O O15 0.756204 0.000000 0.772873
O O16 0.750948 0.500000 0.628283
O O17 0.000000 0.392118 0.618054
#
# Coordination Sequence:
#
# PCOD9373638 Si02
#       6
#     8   8   8   8   8   8
#     4   8  14  26  46  70  92 116 147 178 212 261
#     4  10  19  29  45  68  89 113 148 188 222 253
#     4   9  16  27  47  71  89 109 141 182 220 254
#     4  10  20  32  45  62  88 121 149 176 218 268
#     4   8  14  25  42  64  87 109 136 173 217 261
#     4   9  17  29  45  65  91 122 149 175 215 265
#
# _framework density 16.571453000000002
#
# number of rings (size 3 to 8) (size 9 to 14) (size 15 to 20)
#    0.000    3.000    0.000    4.000    0.000    5.667 
#    0.000    0.833    0.000   19.000    0.000    4.667 
#    0.000    0.000    0.000    0.000    0.000    0.000 
#
# Total GULP energy -133716.567089 kJ/mol
# GULP energy per Si atom -5571.523629 kJ/mol
# Density = 1.653374 g / cm^3
# Si number density = 16.571453 Si / 1000 Ang^3
#
#
#
# Elastic Constant Matrix: (Units=GPa)
#
#
# Indices 1 2 3 4 5 6 
#
# 1 5.5785 5.0299 9.9369 0.0000 0.0000 0.0000
# 2 5.0299 144.9394 94.8841 0.0000 0.0000 0.0000
# 3 9.9369 94.8841 145.1838 0.0000 0.0000 0.0000
# 4 0.0000 0.0000 0.0000 24.3548 0.0000 0.0000
# 5 0.0000 0.0000 0.0000 0.0000 20.2882 0.0000
# 6 0.0000 0.0000 0.0000 0.0000 0.0000 11.8651
#
#
#
# Elastic Compliance Matrix: (Units=1/GPa)
#
#
# Indices 1 2 3 4 5 6 
#
# 1 0.205232 0.003624 -0.016415 0.000000 0.000000 0.000000
# 2 0.003624 0.012123 -0.008171 0.000000 0.000000 0.000000
# 3 -0.016415 -0.008171 0.013351 0.000000 0.000000 0.000000
# 4 0.000000 0.000000 0.000000 0.041060 0.000000 0.000000
# 5 0.000000 0.000000 0.000000 0.000000 0.049290 0.000000
# 6 0.000000 0.000000 0.000000 0.000000 0.000000 0.084281
#
#
# Mechanical properties :
#
#
# Convention : Reuss Voigt Hill
#
# Bulk Modulus (GPa) = 5.29711 57.26704 31.28208
# Shear Modulus (GPa) = 9.80032 23.69168 16.74600
#
# Velocity S-wave (km/s) = 2.43451 3.78520 3.18234
# Velocity P-wave (km/s) = 3.33255 7.33050 5.69395
#
# Compressibility (1/GPa) = 0.18878214
#
# Stress axis : x y z
#
# Youngs Moduli (GPa) = 4.87253 82.49060 74.89940
#
# Poissons Ratio (x) = -0.29894 1.22949
# Poissons Ratio (y) = -0.01766 0.61198
# Poissons Ratio (z) = 0.07998 0.67401
#
# Static dielectric constant tensor:
#      x y z
#    x 1.589050 0.000000 0.000000 
#    y 0.000000 1.565220 0.000000 
#    z 0.000000 0.000000 1.554720 
# 
# From -- ./inp_files/24017.got.cif
#   From: 2010.05.17/outbox.cif.g08.bks.cpg/sg44_13_cif.got.tgz:24017.got - 2010.06.03 19:37:08.
