data_PCOD9373864
_publ_section_title
;
Structure prediction by ZEFSAII (Michael W. Deem and Ramdas Pophale) SiO2 
 PCOD9373864
Probable space group: I M M 2
;
_chemical_formula_sum "Si O2"
_cell_formula_units_Z 40
_cell_length_a 8.231346
_cell_length_b 7.607864
_cell_length_c 28.918010
_cell_angle_alpha 90.000000
_cell_angle_beta 90.000000
_cell_angle_gamma 90.000000
_cell_volume 1810.931410
_symmetry_space_group_name_H-M "I M M 2"
_symmetry_group_IT_number 44
_symmetry_cell_setting 'orthorhombic'
loop_
_space_group_symop_operation_xyz
x,y,z
-x,-y,z
-x,y,z
x,-y,z
1/2+x,1/2+y,1/2+z
1/2-x,1/2-y,1/2+z
1/2-x,1/2+y,1/2+z
1/2+x,1/2-y,1/2+z
loop_
_atom_site_type_symbol
_atom_site_label
_atom_site_fract_x
_atom_site_fract_y
_atom_site_fract_z
Si Si1 0.000000 0.798844 0.161240
Si Si2 0.687487 0.785562 0.818146
Si Si3 0.000000 0.299057 0.058463
Si Si4 0.675407 0.706485 0.014986
Si Si5 0.679931 0.287482 0.220353
Si Si6 0.186389 0.787015 0.918085
O O1 0.000000 0.694809 0.113513
O O2 0.836647 0.764766 0.190523
O O3 0.000000 0.000000 0.147006
O O4 0.500000 0.732584 0.812867
O O5 0.787774 0.729484 0.773230
O O6 0.756040 0.727829 0.867521
O O7 0.691320 0.000000 0.818497
O O8 0.165939 0.215761 0.039610
O O9 0.000000 0.500000 0.040162
O O10 0.500000 0.783873 0.027109
O O11 0.669191 0.500000 0.027461
O O12 0.704935 0.721633 0.960177
O O13 0.500000 0.228131 0.204827
O O14 0.678238 0.500000 0.220111
O O15 0.000000 0.733683 0.926078
O O16 0.192870 0.000000 0.918543
#
# Coordination Sequence:
#
# PCOD9373864 Si02
#       6
#     4   8   4   8   8   8
#     4  12  26  42  62  90 126 158 194 252 321 372
#     4   9  16  29  53  85 119 153 195 245 289 336
#     4  10  22  42  64  84 112 152 204 252 295 354
#     4  10  21  38  60  85 114 150 193 242 292 346
#     4  10  20  38  65  91 118 158 208 254 295 353
#     4  10  19  31  52  85 122 157 194 236 288 346
#
# _framework density 22.088080000000001
#
# number of rings (size 3 to 8) (size 9 to 14) (size 15 to 20)
#    0.000    2.000    2.000    2.100    0.000    5.600 
#    0.000    3.000    0.000    2.400    0.000    0.000 
#    0.000    0.000    0.000    0.000    0.000    0.000 
#
# Total GULP energy -111733.003790 kJ/mol
# GULP energy per Si atom -5586.650189 kJ/mol
# Density = 2.203781 g / cm^3
# Si number density = 22.088080 Si / 1000 Ang^3
#
#
#
# Elastic Constant Matrix: (Units=GPa)
#
#
# Indices 1 2 3 4 5 6 
#
# 1 215.1931 9.4244 60.6407 0.0000 0.0000 0.0000
# 2 9.4244 53.4784 -9.1542 0.0000 0.0000 0.0000
# 3 60.6407 -9.1542 101.3432 0.0000 0.0000 0.0000
# 4 0.0000 0.0000 0.0000 10.8940 0.0000 0.0000
# 5 0.0000 0.0000 0.0000 0.0000 26.4811 0.0000
# 6 0.0000 0.0000 0.0000 0.0000 0.0000 3.8487
#
#
#
# Elastic Compliance Matrix: (Units=1/GPa)
#
#
# Indices 1 2 3 4 5 6 
#
# 1 0.005724 -0.001620 -0.003572 0.000000 0.000000 0.000000
# 2 -0.001620 0.019451 0.002726 0.000000 0.000000 0.000000
# 3 -0.003572 0.002726 0.012251 0.000000 0.000000 0.000000
# 4 0.000000 0.000000 0.000000 0.091793 0.000000 0.000000
# 5 0.000000 0.000000 0.000000 0.000000 0.037763 0.000000
# 6 0.000000 0.000000 0.000000 0.000000 0.000000 0.259825
#
#
# Mechanical properties :
#
#
# Convention : Reuss Voigt Hill
#
# Bulk Modulus (GPa) = 30.77305 54.64850 42.71078
# Shear Modulus (GPa) = 11.29764 28.85170 20.07467
#
# Velocity S-wave (km/s) = 2.26405 3.61808 3.01798
# Velocity P-wave (km/s) = 4.56035 6.49991 5.61452
#
# Compressibility (1/GPa) = 0.03249597
#
# Stress axis : x y z
#
# Youngs Moduli (GPa) = 174.68978 51.41026 81.62653
#
# Poissons Ratio (x) = 0.08329 0.29154
# Poissons Ratio (y) = 0.28303 -0.22255
# Poissons Ratio (z) = 0.62394 -0.14017
#
# Static dielectric constant tensor:
#      x y z
#    x 1.834870 0.000000 0.000000 
#    y 0.000000 1.834530 0.000000 
#    z 0.000000 0.000000 1.763380 
# 
# From -- ./inp_files/25944.got.cif
#   From: 2010.05.17/outbox.cif.g08.bks.cpg/sg44_13_cif.got.tgz:25944.got - 2010.06.03 19:37:08.
