data_PCOD9373382
_publ_section_title
;
Structure prediction by ZEFSAII (Michael W. Deem and Ramdas Pophale) SiO2 
 PCOD9373382
Probable space group: I M M 2
;
_chemical_formula_sum "Si O2"
_cell_formula_units_Z 64
_cell_length_a 31.421820
_cell_length_b 8.025944
_cell_length_c 15.137766
_cell_angle_alpha 90.000000
_cell_angle_beta 90.000000
_cell_angle_gamma 90.000000
_cell_volume 3817.589691
_symmetry_space_group_name_H-M "I M M 2"
_symmetry_group_IT_number 44
_symmetry_cell_setting 'orthorhombic'
loop_
_space_group_symop_operation_xyz
x,y,z
-x,-y,z
-x,y,z
x,-y,z
1/2+x,1/2+y,1/2+z
1/2-x,1/2-y,1/2+z
1/2-x,1/2+y,1/2+z
1/2+x,1/2-y,1/2+z
loop_
_atom_site_type_symbol
_atom_site_label
_atom_site_fract_x
_atom_site_fract_y
_atom_site_fract_z
Si Si1 0.291557 0.300499 0.893070
Si Si2 0.207494 0.700366 0.784686
Si Si3 0.951490 0.799250 0.191279
Si Si4 0.132924 0.299381 0.911054
Si Si5 0.773679 0.798947 0.589278
Si Si6 0.367320 0.801662 0.771368
Si Si7 0.548286 0.700439 0.490001
Si Si8 0.175550 0.703288 0.092077
O O1 0.286360 0.500000 0.896725
O O2 0.251004 0.238033 0.834191
O O3 0.336589 0.263408 0.847712
O O4 0.290564 0.238590 0.994290
O O5 0.208536 0.500000 0.792302
O O6 0.164841 0.760455 0.834670
O O7 0.206337 0.743021 0.681494
O O8 0.916835 0.742505 0.262291
O O9 0.941008 0.740089 0.090563
O O10 0.000000 0.746127 0.209952
O O11 0.950960 0.000000 0.189298
O O12 0.134577 0.500000 0.909762
O O13 0.083630 0.251724 0.919259
O O14 0.153299 0.238901 0.003111
O O15 0.724434 0.746927 0.593127
O O16 0.775308 0.000000 0.588526
O O17 0.347346 0.735583 0.679719
O O18 0.363609 0.000000 0.772564
O O19 0.500000 0.756412 0.470587
O O20 0.547852 0.500000 0.493515
O O21 0.174171 0.500000 0.091935
#
# Coordination Sequence:
#
# PCOD9373382 Si02
#       8
#     8   8   8   8   8   8   8   8
#     4  10  20  33  49  68  95 132 165 196 240 290
#     4  10  20  32  48  70  96 126 162 203 242 281
#     4   9  18  32  48  68  98 131 160 194 238 290
#     4  10  18  31  48  68  96 130 163 195 237 285
#     4  10  19  34  50  65  94 132 167 201 237 280
#     4  11  20  30  48  72  98 128 164 205 239 278
#     4   9  18  31  46  68  98 127 157 197 239 280
#     4   9  16  27  44  67  95 126 159 196 233 270
#
# _framework density 16.764505
#
# number of rings (size 3 to 8) (size 9 to 14) (size 15 to 20)
#    0.000    2.250    3.750    1.125    0.000    1.500 
#    0.000    1.875    0.000    0.000    0.000    0.875 
#    0.000    5.000    0.000    0.000    0.000    0.000 
#
# Total GULP energy -178337.763593 kJ/mol
# GULP energy per Si atom -5573.055112 kJ/mol
# Density = 1.672635 g / cm^3
# Si number density = 16.764505 Si / 1000 Ang^3
#
#
#
# Elastic Constant Matrix: (Units=GPa)
#
#
# Indices 1 2 3 4 5 6 
#
# 1 125.0588 6.0049 70.1936 0.0000 0.0000 0.0000
# 2 6.0049 13.2612 9.7939 0.0000 0.0000 0.0000
# 3 70.1936 9.7939 117.0915 0.0000 0.0000 0.0000
# 4 0.0000 0.0000 0.0000 19.0036 0.0000 0.0000
# 5 0.0000 0.0000 0.0000 0.0000 21.9280 0.0000
# 6 0.0000 0.0000 0.0000 0.0000 0.0000 17.7218
#
#
#
# Elastic Compliance Matrix: (Units=1/GPa)
#
#
# Indices 1 2 3 4 5 6 
#
# 1 0.012051 -0.000129 -0.007214 0.000000 0.000000 0.000000
# 2 -0.000129 0.080374 -0.006645 0.000000 0.000000 0.000000
# 3 -0.007214 -0.006645 0.013421 0.000000 0.000000 0.000000
# 4 0.000000 0.000000 0.000000 0.052622 0.000000 0.000000
# 5 0.000000 0.000000 0.000000 0.000000 0.045604 0.000000
# 6 0.000000 0.000000 0.000000 0.000000 0.000000 0.056428
#
#
# Mechanical properties :
#
#
# Convention : Reuss Voigt Hill
#
# Bulk Modulus (GPa) = 12.84201 47.48849 30.16525
# Shear Modulus (GPa) = 15.90168 23.02530 19.46349
#
# Velocity S-wave (km/s) = 3.08317 3.71004 3.41103
# Velocity P-wave (km/s) = 4.51126 6.83672 5.79190
#
# Compressibility (1/GPa) = 0.07786944
#
# Stress axis : x y z
#
# Youngs Moduli (GPa) = 82.97805 12.44182 74.51242
#
# Poissons Ratio (x) = 0.00161 0.53751
# Poissons Ratio (y) = 0.01074 0.49515
# Poissons Ratio (z) = 0.59858 0.08268
#
# Static dielectric constant tensor:
#      x y z
#    x 1.588500 0.000000 0.000000 
#    y 0.000000 1.603570 0.000000 
#    z 0.000000 0.000000 1.566990 
# 
# From -- ./inp_files/17099.got.cif
#   From: 2010.05.17/outbox.cif.g08.bks.cpg/sg44_9_cif.got.tgz:17099.got - 2010.06.03 19:37:08.
