data_PCOD9373597
_publ_section_title
;
Structure prediction by ZEFSAII (Michael W. Deem and Ramdas Pophale) SiO2 
 PCOD9373597
Probable space group: I M M 2
;
_chemical_formula_sum "Si O2"
_cell_formula_units_Z 56
_cell_length_a 9.132958
_cell_length_b 18.648425
_cell_length_c 21.501178
_cell_angle_alpha 90.000000
_cell_angle_beta 90.000000
_cell_angle_gamma 90.000000
_cell_volume 3661.979201
_symmetry_space_group_name_H-M "I M M 2"
_symmetry_group_IT_number 44
_symmetry_cell_setting 'orthorhombic'
loop_
_space_group_symop_operation_xyz
x,y,z
-x,-y,z
-x,y,z
x,-y,z
1/2+x,1/2+y,1/2+z
1/2-x,1/2-y,1/2+z
1/2-x,1/2+y,1/2+z
1/2+x,1/2-y,1/2+z
loop_
_atom_site_type_symbol
_atom_site_label
_atom_site_fract_x
_atom_site_fract_y
_atom_site_fract_z
Si Si1 0.673898 0.083607 0.625000
Si Si2 0.674503 0.583009 0.619254
Si Si3 0.174852 0.415031 0.365924
Si Si4 0.323507 0.847471 0.999196
Si Si5 0.332017 0.795012 0.185895
Si Si6 0.168104 0.796025 0.556928
Si Si7 0.823775 0.848350 0.745987
O O1 0.500000 0.093450 0.632644
O O2 0.733267 0.135397 0.570716
O O3 0.753786 0.107881 0.688544
O O4 0.703281 0.000000 0.613087
O O5 0.500000 0.590161 0.614331
O O6 0.711153 0.500000 0.630744
O O7 0.747163 0.608623 0.554500
O O8 0.734373 0.636043 0.672510
O O9 0.204206 0.500000 0.368095
O O10 0.211976 0.379727 0.432201
O O11 0.262488 0.379339 0.309804
O O12 0.000000 0.405726 0.355770
O O13 0.500000 0.851942 0.008215
O O14 0.283850 0.763377 0.006814
O O15 0.500000 0.816362 0.197727
O O16 0.331019 0.749645 0.121321
O O17 0.284434 0.735675 0.236009
O O18 0.000000 0.817582 0.545073
O O19 0.000000 0.853483 0.742311
#
# Coordination Sequence:
#
# PCOD9373597 Si02
#       7
#     8   8   8   8   8   8   8
#     4  10  19  29  43  65  91 117 145 178 219 265
#     4  10  19  28  42  68  95 115 141 180 222 259
#     4  10  20  32  46  65  89 119 152 180 210 253
#     4   9  18  32  47  63  87 120 153 180 210 255
#     4   8  16  30  45  61  83 114 148 178 215 264
#     4   8  15  28  45  64  85 111 145 182 218 257
#     4  10  20  32  45  63  88 117 150 185 217 253
#
# _framework density 15.292277
#
# number of rings (size 3 to 8) (size 9 to 14) (size 15 to 20)
#    0.000    2.714    0.000    3.857    0.000   11.143 
#    0.000    0.000    0.000    0.000    0.000    1.000 
#    0.000    1.143    0.000    0.000    0.000    0.000 
#
# Total GULP energy -155998.032265 kJ/mol
# GULP energy per Si atom -5571.358295 kJ/mol
# Density = 1.525747 g / cm^3
# Si number density = 15.292277 Si / 1000 Ang^3
#
#
#
# Elastic Constant Matrix: (Units=GPa)
#
#
# Indices 1 2 3 4 5 6 
#
# 1 55.4109 71.9187 35.9644 0.0000 0.0000 0.0000
# 2 71.9187 145.3313 65.7228 0.0000 0.0000 0.0000
# 3 35.9644 65.7228 69.8983 0.0000 0.0000 0.0000
# 4 0.0000 0.0000 0.0000 26.8230 0.0000 0.0000
# 5 0.0000 0.0000 0.0000 0.0000 19.7545 0.0000
# 6 0.0000 0.0000 0.0000 0.0000 0.0000 27.3807
#
#
#
# Elastic Compliance Matrix: (Units=1/GPa)
#
#
# Indices 1 2 3 4 5 6 
#
# 1 0.051212 -0.023360 -0.004386 0.000000 0.000000 0.000000
# 2 -0.023360 0.022626 -0.009255 0.000000 0.000000 0.000000
# 3 -0.004386 -0.009255 0.025266 0.000000 0.000000 0.000000
# 4 0.000000 0.000000 0.000000 0.037281 0.000000 0.000000
# 5 0.000000 0.000000 0.000000 0.000000 0.050621 0.000000
# 6 0.000000 0.000000 0.000000 0.000000 0.000000 0.036522
#
#
# Mechanical properties :
#
#
# Convention : Reuss Voigt Hill
#
# Bulk Modulus (GPa) = 39.83678 68.65026 54.24352
# Shear Modulus (GPa) = 16.34531 21.26062 18.80296
#
# Velocity S-wave (km/s) = 3.27289 3.73270 3.51033
# Velocity P-wave (km/s) = 6.35525 7.97289 7.20958
#
# Compressibility (1/GPa) = 0.02510243
#
# Stress axis : x y z
#
# Youngs Moduli (GPa) = 19.52654 44.19670 39.57936
#
# Poissons Ratio (x) = 1.03242 0.17359
# Poissons Ratio (y) = 0.45613 0.36633
# Poissons Ratio (z) = 0.08564 0.40906
#
# Static dielectric constant tensor:
#      x y z
#    x 1.513230 0.000000 0.000000 
#    y 0.000000 1.521730 0.000000 
#    z 0.000000 0.000000 1.493360 
# 
# From -- ./inp_files/23218.got.cif
#   From: 2010.05.17/outbox.cif.g08.bks.cpg/sg44_12_cif.got.tgz:23218.got - 2010.06.03 19:37:08.
