data_PCOD9373913
_publ_section_title
;
Structure prediction by ZEFSAII (Michael W. Deem and Ramdas Pophale) SiO2 
 PCOD9373913
Probable space group: I M M 2
;
_chemical_formula_sum "Si O2"
_cell_formula_units_Z 40
_cell_length_a 21.368473
_cell_length_b 8.635058
_cell_length_c 12.890476
_cell_angle_alpha 90.000000
_cell_angle_beta 90.000000
_cell_angle_gamma 90.000000
_cell_volume 2378.524899
_symmetry_space_group_name_H-M "I M M 2"
_symmetry_group_IT_number 44
_symmetry_cell_setting 'orthorhombic'
loop_
_space_group_symop_operation_xyz
x,y,z
-x,-y,z
-x,y,z
x,-y,z
1/2+x,1/2+y,1/2+z
1/2-x,1/2-y,1/2+z
1/2-x,1/2+y,1/2+z
1/2+x,1/2-y,1/2+z
loop_
_atom_site_type_symbol
_atom_site_label
_atom_site_fract_x
_atom_site_fract_y
_atom_site_fract_z
Si Si1 0.833895 0.315632 0.311390
Si Si2 0.801688 0.184953 0.096950
Si Si3 0.427432 0.686502 0.978509
Si Si4 0.333594 0.685810 0.160954
Si Si5 0.698484 0.184880 0.375675
O O1 0.826359 0.500000 0.311227
O O2 0.839524 0.254068 0.194037
O O3 0.890695 0.264977 0.384116
O O4 0.770042 0.240434 0.356160
O O5 0.730356 0.243137 0.114711
O O6 0.802846 0.000000 0.100214
O O7 0.822752 0.246576 0.985354
O O8 0.500000 0.730657 0.982937
O O9 0.423569 0.500000 0.965647
O O10 0.390293 0.724577 0.084249
O O11 0.326495 0.500000 0.165138
O O12 0.339367 0.751382 0.276881
O O13 0.697235 0.000000 0.377846
#
# Coordination Sequence:
#
# PCOD9373913 Si02
#       5
#     8   8   8   8   8
#     4  11  21  33  51  77 107 139 177 218 265 317
#     4  11  20  32  52  77 107 138 171 217 270 321
#     4  10  21  37  56  77 107 145 181 218 260 311
#     4  10  19  32  51  76 106 138 176 215 260 317
#     4  11  20  32  51  76 108 139 171 217 269 320
#
# _framework density 16.817146999999999
#
# number of rings (size 3 to 8) (size 9 to 14) (size 15 to 20)
#    0.000    1.400    2.000    8.400    0.000    1.200 
#    0.000    0.000    0.000    1.200    0.000    2.800 
#    0.000    0.000    0.000    0.000    0.000    0.000 
#
# Total GULP energy -111714.558398 kJ/mol
# GULP energy per Si atom -5585.727920 kJ/mol
# Density = 1.677887 g / cm^3
# Si number density = 16.817147 Si / 1000 Ang^3
#
#
#
# Elastic Constant Matrix: (Units=GPa)
#
#
# Indices 1 2 3 4 5 6 
#
# 1 81.8720 41.5476 59.2809 0.0000 0.0000 0.0000
# 2 41.5476 115.2093 59.9763 0.0000 0.0000 0.0000
# 3 59.2809 59.9763 172.7004 0.0000 0.0000 0.0000
# 4 0.0000 0.0000 0.0000 33.1628 0.0000 0.0000
# 5 0.0000 0.0000 0.0000 0.0000 18.6195 0.0000
# 6 0.0000 0.0000 0.0000 0.0000 0.0000 14.3980
#
#
#
# Elastic Compliance Matrix: (Units=1/GPa)
#
#
# Indices 1 2 3 4 5 6 
#
# 1 0.017584 -0.003905 -0.004680 0.000000 0.000000 0.000000
# 2 -0.003905 0.011463 -0.002640 0.000000 0.000000 0.000000
# 3 -0.004680 -0.002640 0.008314 0.000000 0.000000 0.000000
# 4 0.000000 0.000000 0.000000 0.030154 0.000000 0.000000
# 5 0.000000 0.000000 0.000000 0.000000 0.053707 0.000000
# 6 0.000000 0.000000 0.000000 0.000000 0.000000 0.069454
#
#
# Mechanical properties :
#
#
# Convention : Reuss Voigt Hill
#
# Bulk Modulus (GPa) = 67.06818 76.82124 71.94471
# Shear Modulus (GPa) = 22.92555 27.16785 25.04670
#
# Velocity S-wave (km/s) = 3.69619 4.02367 3.86340
# Velocity P-wave (km/s) = 7.62779 8.20768 7.92304
#
# Compressibility (1/GPa) = 0.01491020
#
# Stress axis : x y z
#
# Youngs Moduli (GPa) = 56.86840 87.23951 120.28330
#
# Poissons Ratio (x) = 0.34069 0.56290
# Poissons Ratio (y) = 0.22208 0.31759
# Poissons Ratio (z) = 0.26613 0.23034
#
# Static dielectric constant tensor:
#      x y z
#    x 1.533380 0.000000 0.000000 
#    y 0.000000 1.562360 0.000000 
#    z 0.000000 0.000000 1.590530 
# 
# From -- ./inp_files/10992.got.cif
#   From: 2010.05.17/outbox.cif.g08.bks.cpg/sg44_6_cif.got.tgz:10992.got - 2010.06.03 19:37:08.
