data_PCOD9373951
_publ_section_title
;
Structure prediction by ZEFSAII (Michael W. Deem and Ramdas Pophale) SiO2 
 PCOD9373951
Probable space group: I M M 2
;
_chemical_formula_sum "Si O2"
_cell_formula_units_Z 64
_cell_length_a 7.916975
_cell_length_b 21.356263
_cell_length_c 20.470830
_cell_angle_alpha 90.000000
_cell_angle_beta 90.000000
_cell_angle_gamma 90.000000
_cell_volume 3461.146529
_symmetry_space_group_name_H-M "I M M 2"
_symmetry_group_IT_number 44
_symmetry_cell_setting 'orthorhombic'
loop_
_space_group_symop_operation_xyz
x,y,z
-x,-y,z
-x,y,z
x,-y,z
1/2+x,1/2+y,1/2+z
1/2-x,1/2-y,1/2+z
1/2-x,1/2+y,1/2+z
1/2+x,1/2-y,1/2+z
loop_
_atom_site_type_symbol
_atom_site_label
_atom_site_fract_x
_atom_site_fract_y
_atom_site_fract_z
Si Si1 0.801928 0.368903 0.609480
Si Si2 0.704131 0.375818 0.466113
Si Si3 0.702796 0.312696 0.825728
Si Si4 0.802049 0.725818 0.107685
Si Si5 0.203123 0.930509 0.243018
Si Si6 0.296411 0.190186 0.747667
Si Si7 0.796087 0.730896 0.964715
Si Si8 0.704024 0.430855 0.329865
O O1 0.766006 0.395739 0.537467
O O2 0.711725 0.301231 0.614056
O O3 0.742637 0.412086 0.668519
O O4 0.000000 0.357274 0.616136
O O5 0.500000 0.376951 0.467791
O O6 0.758393 0.303396 0.455864
O O7 0.761453 0.415079 0.403709
O O8 0.500000 0.312563 0.818928
O O9 0.767818 0.374640 0.789319
O O10 0.766917 0.249579 0.789929
O O11 0.743085 0.308280 0.902080
O O12 0.729675 0.696031 0.173582
O O13 0.000000 0.709323 0.105866
O O14 0.731246 0.709749 0.036009
O O15 0.000000 0.931851 0.249813
O O16 0.268354 0.000000 0.258100
O O17 0.500000 0.195857 0.744877
O O18 0.255568 0.125430 0.782786
O O19 0.000000 0.731563 0.967026
O O20 0.500000 0.431405 0.331229
O O21 0.763080 0.500000 0.310127
#
# Coordination Sequence:
#
# PCOD9373951 Si02
#       8
#     8   8   8   8   8   8   8   8
#     4  11  21  31  49  78 109 136 169 216 262 298
#     4   9  18  33  50  70 102 143 182 207 241 307
#     4  10  19  32  53  79 103 130 171 217 259 302
#     4   9  18  35  54  75 104 139 177 209 250 313
#     4  10  21  38  56  72  99 143 182 209 250 313
#     4  10  19  33  55  78 104 134 172 221 260 299
#     4   9  17  30  52  77 102 133 169 211 253 301
#     4  10  21  36  53  75 105 140 178 215 255 309
#
# _framework density 18.490981999999999
#
# number of rings (size 3 to 8) (size 9 to 14) (size 15 to 20)
#    0.000    2.250    2.500    1.875    0.000    4.500 
#    0.000    1.250    0.000    0.750    0.000    3.500 
#    0.000    0.000    0.000    0.000    0.000    0.000 
#
# Total GULP energy -178517.034157 kJ/mol
# GULP energy per Si atom -5578.657317 kJ/mol
# Density = 1.844890 g / cm^3
# Si number density = 18.490982 Si / 1000 Ang^3
#
#
#
# Elastic Constant Matrix: (Units=GPa)
#
#
# Indices 1 2 3 4 5 6 
#
# 1 12.5531 3.1975 7.6041 0.0000 0.0000 0.0000
# 2 3.1975 119.1456 95.5305 0.0000 0.0000 0.0000
# 3 7.6041 95.5305 156.5232 0.0000 0.0000 0.0000
# 4 0.0000 0.0000 0.0000 22.4595 0.0000 0.0000
# 5 0.0000 0.0000 0.0000 0.0000 22.8184 0.0000
# 6 0.0000 0.0000 0.0000 0.0000 0.0000 12.4380
#
#
#
# Elastic Compliance Matrix: (Units=1/GPa)
#
#
# Indices 1 2 3 4 5 6 
#
# 1 0.082309 0.001953 -0.005191 0.000000 0.000000 0.000000
# 2 0.001953 0.016483 -0.010155 0.000000 0.000000 0.000000
# 3 -0.005191 -0.010155 0.012839 0.000000 0.000000 0.000000
# 4 0.000000 0.000000 0.000000 0.044525 0.000000 0.000000
# 5 0.000000 0.000000 0.000000 0.000000 0.043824 0.000000
# 6 0.000000 0.000000 0.000000 0.000000 0.000000 0.080399
#
#
# Mechanical properties :
#
#
# Convention : Reuss Voigt Hill
#
# Bulk Modulus (GPa) = 11.78618 55.65401 33.72009
# Shear Modulus (GPa) = 14.90560 23.66916 19.28738
#
# Velocity S-wave (km/s) = 2.84227 3.58164 3.23316
# Velocity P-wave (km/s) = 4.14237 6.87514 5.67568
#
# Compressibility (1/GPa) = 0.08484516
#
# Stress axis : x y z
#
# Youngs Moduli (GPa) = 12.14940 60.66968 77.88946
#
# Poissons Ratio (x) = -0.11848 0.40429
# Poissons Ratio (y) = -0.02373 0.79095
# Poissons Ratio (z) = 0.06306 0.61608
#
# Static dielectric constant tensor:
#      x y z
#    x 1.675230 0.000000 0.000000 
#    y 0.000000 1.623730 0.000000 
#    z 0.000000 0.000000 1.654710 
# 
# From -- ./inp_files/20762.got.cif
#   From: 2010.05.17/outbox.cif.g08.bks.cpg/sg44_11_cif.got.tgz:20762.got - 2010.06.03 19:37:08.
