data_PCOD9373787
_publ_section_title
;
Structure prediction by ZEFSAII (Michael W. Deem and Ramdas Pophale) SiO2 
 PCOD9373787
Probable space group: I M M 2
;
_chemical_formula_sum "Si O2"
_cell_formula_units_Z 64
_cell_length_a 8.027817
_cell_length_b 29.203891
_cell_length_c 14.903795
_cell_angle_alpha 90.000000
_cell_angle_beta 90.000000
_cell_angle_gamma 90.000000
_cell_volume 3494.097753
_symmetry_space_group_name_H-M "I M M 2"
_symmetry_group_IT_number 44
_symmetry_cell_setting 'orthorhombic'
loop_
_space_group_symop_operation_xyz
x,y,z
-x,-y,z
-x,y,z
x,-y,z
1/2+x,1/2+y,1/2+z
1/2-x,1/2-y,1/2+z
1/2-x,1/2+y,1/2+z
1/2+x,1/2-y,1/2+z
loop_
_atom_site_type_symbol
_atom_site_label
_atom_site_fract_x
_atom_site_fract_y
_atom_site_fract_z
Si Si1 0.700795 0.860770 0.075280
Si Si2 0.199652 0.637142 0.152639
Si Si3 0.700325 0.948446 0.763566
Si Si4 0.800849 0.948343 0.967217
Si Si5 0.309785 0.231157 0.003726
Si Si6 0.198985 0.828817 0.458634
Si Si7 0.303425 0.763383 0.691917
Si Si8 0.801168 0.326145 0.769411
O O1 0.500000 0.856559 0.075295
O O2 0.764931 0.819766 0.009659
O O3 0.757132 0.851118 0.177684
O O4 0.746198 0.909834 0.036814
O O5 0.267002 0.591323 0.198700
O O6 0.245130 0.683861 0.206230
O O7 0.000000 0.634328 0.156137
O O8 0.246599 0.645352 0.048865
O O9 0.500000 0.949928 0.753756
O O10 0.737521 0.937278 0.867179
O O11 0.764590 0.000000 0.745698
O O12 0.000000 0.948991 0.964461
O O13 0.741651 0.000000 0.989210
O O14 0.500000 0.227251 0.969937
O O15 0.305905 0.245563 0.108723
O O16 0.229236 0.276594 0.962071
O O17 0.250275 0.849073 0.363024
O O18 0.000000 0.825330 0.462484
O O19 0.500000 0.762738 0.667602
O O20 0.274918 0.725124 0.766390
O O21 0.000000 0.322995 0.766395
#
# Coordination Sequence:
#
# PCOD9373787 Si02
#       8
#     8   8   8   8   8   8   8   8
#     4   9  18  33  52  71  94 128 166 202 240 285
#     4   9  18  32  50  73 100 129 164 205 244 284
#     4   9  18  34  55  75  96 126 162 198 240 292
#     4  10  21  35  51  74 101 124 151 196 250 297
#     4   8  16  30  45  65  94 125 159 197 233 272
#     4  10  19  31  49  72 100 135 169 200 238 286
#     4   9  16  27  44  66  93 125 160 197 236 278
#     4  10  20  33  48  69 100 134 167 204 241 281
#
# _framework density 18.316604000000002
#
# number of rings (size 3 to 8) (size 9 to 14) (size 15 to 20)
#    0.000    2.750    0.000    2.250    0.000    5.750 
#    0.000    5.000    0.000    0.750    0.000    1.750 
#    0.000    0.000    0.000    0.000    0.000    0.000 
#
# Total GULP energy -178178.267266 kJ/mol
# GULP energy per Si atom -5568.070852 kJ/mol
# Density = 1.827491 g / cm^3
# Si number density = 18.316604 Si / 1000 Ang^3
#
#
#
# Elastic Constant Matrix: (Units=GPa)
#
#
# Indices 1 2 3 4 5 6 
#
# 1 17.6585 13.1692 -2.4299 0.0000 0.0000 0.0000
# 2 13.1692 131.3008 77.6748 0.0000 0.0000 0.0000
# 3 -2.4299 77.6748 97.3560 0.0000 0.0000 0.0000
# 4 0.0000 0.0000 0.0000 24.2703 0.0000 0.0000
# 5 0.0000 0.0000 0.0000 0.0000 19.8097 0.0000
# 6 0.0000 0.0000 0.0000 0.0000 0.0000 16.1246
#
#
#
# Elastic Compliance Matrix: (Units=1/GPa)
#
#
# Indices 1 2 3 4 5 6 
#
# 1 0.069902 -0.015233 0.013898 0.000000 0.000000 0.000000
# 2 -0.015233 0.017744 -0.014537 0.000000 0.000000 0.000000
# 3 0.013898 -0.014537 0.022217 0.000000 0.000000 0.000000
# 4 0.000000 0.000000 0.000000 0.041203 0.000000 0.000000
# 5 0.000000 0.000000 0.000000 0.000000 0.050480 0.000000
# 6 0.000000 0.000000 0.000000 0.000000 0.000000 0.062017
#
#
# Mechanical properties :
#
#
# Convention : Reuss Voigt Hill
#
# Bulk Modulus (GPa) = 12.80090 47.01596 29.90843
# Shear Modulus (GPa) = 15.55958 22.56768 19.06363
#
# Velocity S-wave (km/s) = 2.91775 3.51392 3.22962
# Velocity P-wave (km/s) = 4.28426 6.49521 5.50193
#
# Compressibility (1/GPa) = 0.07811951
#
# Stress axis : x y z
#
# Youngs Moduli (GPa) = 14.30564 56.35839 45.01151
#
# Poissons Ratio (x) = 0.85850 -0.62558
# Poissons Ratio (y) = 0.21792 0.65432
# Poissons Ratio (z) = -0.19882 0.81927
#
# Static dielectric constant tensor:
#      x y z
#    x 1.665700 0.000000 0.000000 
#    y 0.000000 1.673400 0.000000 
#    z 0.000000 0.000000 1.637650 
# 
# From -- ./inp_files/17129.got.cif
#   From: 2010.05.17/outbox.cif.g08.bks.cpg/sg44_9_cif.got.tgz:17129.got - 2010.06.03 19:37:08.
