data_PCOD9373783
_publ_section_title
;
Structure prediction by ZEFSAII (Michael W. Deem and Ramdas Pophale) SiO2 
 PCOD9373783
Probable space group: I M M 2
;
_chemical_formula_sum "Si O2"
_cell_formula_units_Z 48
_cell_length_a 17.237894
_cell_length_b 7.703941
_cell_length_c 19.211601
_cell_angle_alpha 90.000000
_cell_angle_beta 90.000000
_cell_angle_gamma 90.000000
_cell_volume 2551.295202
_symmetry_space_group_name_H-M "I M M 2"
_symmetry_group_IT_number 44
_symmetry_cell_setting 'orthorhombic'
loop_
_space_group_symop_operation_xyz
x,y,z
-x,-y,z
-x,y,z
x,-y,z
1/2+x,1/2+y,1/2+z
1/2-x,1/2-y,1/2+z
1/2-x,1/2+y,1/2+z
1/2+x,1/2-y,1/2+z
loop_
_atom_site_type_symbol
_atom_site_label
_atom_site_fract_x
_atom_site_fract_y
_atom_site_fract_z
Si Si1 0.834416 0.290974 0.971870
Si Si2 0.662369 0.792651 0.218185
Si Si3 0.500000 0.304214 0.429455
Si Si4 0.690560 0.709293 0.058695
Si Si5 0.411593 0.287590 0.927562
Si Si6 0.231617 0.211257 0.338894
Si Si7 0.500000 0.800210 0.274378
O O1 0.836741 0.500000 0.973515
O O2 0.793906 0.241696 0.898735
O O3 0.922022 0.227576 0.972513
O O4 0.775028 0.231218 0.031497
O O5 0.672547 0.762192 0.136778
O O6 0.733544 0.726924 0.265841
O O7 0.580096 0.721581 0.246021
O O8 0.660900 0.000000 0.229967
O O9 0.500000 0.500000 0.404060
O O10 0.500000 0.196433 0.358053
O O11 0.690903 0.500000 0.056376
O O12 0.627524 0.765835 0.000937
O O13 0.500000 0.228756 0.920488
O O14 0.412390 0.500000 0.927313
O O15 0.352300 0.230773 0.866766
O O16 0.227762 0.000000 0.337980
O O17 0.500000 0.000000 0.249560
#
# Coordination Sequence:
#
# PCOD9373783 Si02
#       7
#     8   8   4   8   8   8   4
#     4   9  17  34  53  68  95 137 175 196 234 313
#     4  10  19  31  49  70  98 133 166 201 241 295
#     4  12  22  30  50  82 104 119 158 223 268 283
#     4   9  19  32  50  74  99 131 164 199 247 297
#     4   8  14  26  46  72  96 118 155 204 244 280
#     4   8  14  27  48  68  88 127 172 198 228 286
#     4  10  20  34  50  70 100 143 172 191 246 319
#
# _framework density 18.813974000000002
#
# number of rings (size 3 to 8) (size 9 to 14) (size 15 to 20)
#    0.000    2.833    1.667    2.750    1.167    1.333 
#    0.000    0.000    1.833    0.000    0.000    0.000 
#    0.000    0.000    0.000    0.000    0.000    0.000 
#
# Total GULP energy -133781.077647 kJ/mol
# GULP energy per Si atom -5574.211569 kJ/mol
# Density = 1.877115 g / cm^3
# Si number density = 18.813974 Si / 1000 Ang^3
#
#
#
# Elastic Constant Matrix: (Units=GPa)
#
#
# Indices 1 2 3 4 5 6 
#
# 1 203.0524 9.6706 82.7370 0.0000 0.0000 0.0000
# 2 9.6706 26.7723 2.3678 0.0000 0.0000 0.0000
# 3 82.7370 2.3678 109.4166 0.0000 0.0000 0.0000
# 4 0.0000 0.0000 0.0000 21.4191 0.0000 0.0000
# 5 0.0000 0.0000 0.0000 0.0000 19.0452 0.0000
# 6 0.0000 0.0000 0.0000 0.0000 0.0000 -8.9508
#
#
#
# Elastic Compliance Matrix: (Units=1/GPa)
#
#
# Indices 1 2 3 4 5 6 
#
# 1 0.007238 -0.002134 -0.005427 0.000000 0.000000 0.000000
# 2 -0.002134 0.038053 0.000791 0.000000 0.000000 0.000000
# 3 -0.005427 0.000791 0.013226 0.000000 0.000000 0.000000
# 4 0.000000 0.000000 0.000000 0.046687 0.000000 0.000000
# 5 0.000000 0.000000 0.000000 0.000000 0.052507 0.000000
# 6 0.000000 0.000000 0.000000 0.000000 0.000000 -0.111722
#
#
# Mechanical properties :
#
#
# Convention : Reuss Voigt Hill
#
# Bulk Modulus (GPa) = 22.23444 58.75466 40.49455
# Shear Modulus (GPa) = 67.09492 22.60045 44.84769
#
# Velocity S-wave (km/s) = 5.97827 3.46968 4.88766
# Velocity P-wave (km/s) = 7.71341 6.88103 7.30908
#
# Compressibility (1/GPa) = 0.04497528
#
# Stress axis : x y z
#
# Youngs Moduli (GPa) = 138.16566 26.27910 75.61001
#
# Poissons Ratio (x) = 0.05609 0.41031
# Poissons Ratio (y) = 0.29490 -0.05977
# Poissons Ratio (z) = 0.74978 -0.02077
#
# Static dielectric constant tensor:
#      x y z
#    x 1.666410 0.000000 0.000000 
#    y 0.000000 1.699250 0.000000 
#    z 0.000000 0.000000 1.623030 
# 
# From -- ./inp_files/24307.got.cif
#   From: 2010.05.17/outbox.cif.g08.bks.cpg/sg44_13_cif.got.tgz:24307.got - 2010.06.03 19:37:08.
