data_PCOD9373528
_publ_section_title
;
Structure prediction by ZEFSAII (Michael W. Deem and Ramdas Pophale) SiO2 
 PCOD9373528
Probable space group: I M M 2
;
_chemical_formula_sum "Si O2"
_cell_formula_units_Z 64
_cell_length_a 15.866949
_cell_length_b 17.459732
_cell_length_c 11.976847
_cell_angle_alpha 90.000000
_cell_angle_beta 90.000000
_cell_angle_gamma 90.000000
_cell_volume 3317.977989
_symmetry_space_group_name_H-M "I M M 2"
_symmetry_group_IT_number 44
_symmetry_cell_setting 'orthorhombic'
loop_
_space_group_symop_operation_xyz
x,y,z
-x,-y,z
-x,y,z
x,-y,z
1/2+x,1/2+y,1/2+z
1/2-x,1/2-y,1/2+z
1/2-x,1/2+y,1/2+z
1/2+x,1/2-y,1/2+z
loop_
_atom_site_type_symbol
_atom_site_label
_atom_site_fract_x
_atom_site_fract_y
_atom_site_fract_z
Si Si1 0.229667 0.083730 0.632540
Si Si2 0.694207 0.659790 0.913813
Si Si3 0.596443 0.205208 0.912092
Si Si4 0.596316 0.308568 0.256953
Si Si5 0.400660 0.160981 0.667530
Si Si6 0.402987 0.860202 0.148507
Si Si7 0.334539 0.715428 0.497253
Si Si8 0.774649 0.911961 0.174707
O O1 0.207780 0.093743 0.502641
O O2 0.171061 0.144947 0.696424
O O3 0.329975 0.098582 0.638611
O O4 0.209840 0.000000 0.676311
O O5 0.608661 0.705630 0.936099
O O6 0.695876 0.628402 0.789228
O O7 0.761508 0.728001 0.945950
O O8 0.500000 0.187110 0.898552
O O9 0.631472 0.187359 0.790294
O O10 0.620597 0.157119 0.019731
O O11 0.500000 0.334545 0.232493
O O12 0.601675 0.220692 0.213866
O O13 0.613545 0.310863 0.389363
O O14 0.500000 0.139027 0.666881
O O15 0.387211 0.230176 0.580582
O O16 0.500000 0.887423 0.156166
O O17 0.327014 0.912200 0.188335
O O18 0.301682 0.644329 0.572547
O O19 0.803797 0.000000 0.161611
#
# Coordination Sequence:
#
# PCOD9373528 Si02
#       8
#     8   8   8   8   8   8   8   8
#     4  11  24  39  58  87 124 160 197 249 309 363
#     4  11  20  39  62  85 117 159 209 246 292 363
#     4  10  18  33  62  88 107 143 205 261 295 341
#     4  11  22  39  64  90 115 158 213 254 295 361
#     4  10  21  38  63  90 116 155 206 255 299 356
#     4  10  20  37  60  88 117 155 206 259 304 362
#     4  11  21  37  63  88 118 160 205 248 294 365
#     4  12  24  38  60  91 127 166 198 250 323 371
#
# _framework density 19.288857
#
# number of rings (size 3 to 8) (size 9 to 14) (size 15 to 20)
#    0.000    1.250    5.000    2.250    0.000    1.250 
#    0.000    0.000    0.000    7.500    0.000    0.000 
#    0.000    0.000    0.000    0.000    0.000    0.000 
#
# Total GULP energy -178246.782011 kJ/mol
# GULP energy per Si atom -5570.211938 kJ/mol
# Density = 1.924495 g / cm^3
# Si number density = 19.288857 Si / 1000 Ang^3
#
#
#
# Elastic Constant Matrix: (Units=GPa)
#
#
# Indices 1 2 3 4 5 6 
#
# 1 29.2627 -6.7278 6.7878 0.0000 0.0000 0.0000
# 2 -6.7278 53.7258 -1.2767 0.0000 0.0000 0.0000
# 3 6.7878 -1.2767 83.3644 0.0000 0.0000 0.0000
# 4 0.0000 0.0000 0.0000 7.3411 0.0000 0.0000
# 5 0.0000 0.0000 0.0000 0.0000 24.7186 0.0000
# 6 0.0000 0.0000 0.0000 0.0000 0.0000 10.5220
#
#
#
# Elastic Compliance Matrix: (Units=1/GPa)
#
#
# Indices 1 2 3 4 5 6 
#
# 1 0.035851 0.004422 -0.002851 0.000000 0.000000 0.000000
# 2 0.004422 0.019165 -0.000067 0.000000 0.000000 0.000000
# 3 -0.002851 -0.000067 0.012227 0.000000 0.000000 0.000000
# 4 0.000000 0.000000 0.000000 0.136220 0.000000 0.000000
# 5 0.000000 0.000000 0.000000 0.000000 0.040455 0.000000
# 6 0.000000 0.000000 0.000000 0.000000 0.000000 0.095039
#
#
# Mechanical properties :
#
#
# Convention : Reuss Voigt Hill
#
# Bulk Modulus (GPa) = 14.23475 18.21328 16.22402
# Shear Modulus (GPa) = 13.91338 19.68764 16.80051
#
# Velocity S-wave (km/s) = 2.68865 3.19827 2.95447
# Velocity P-wave (km/s) = 4.12726 4.80639 4.47971
#
# Compressibility (1/GPa) = 0.07025060
#
# Stress axis : x y z
#
# Youngs Moduli (GPa) = 27.89304 52.17803 81.78838
#
# Poissons Ratio (x) = -0.23071 0.23321
# Poissons Ratio (y) = -0.12333 0.00544
# Poissons Ratio (z) = 0.07953 0.00347
#
# Static dielectric constant tensor:
#      x y z
#    x 1.726710 0.000000 0.000000 
#    y 0.000000 1.659790 0.000000 
#    z 0.000000 0.000000 1.747630 
# 
# From -- ./inp_files/13470.got.cif
#   From: 2010.05.17/outbox.cif.g08.bks.cpg/sg44_7_cif.got.tgz:13470.got - 2010.06.03 19:37:08.
