data_PCOD9373320
_publ_section_title
;
Structure prediction by ZEFSAII (Michael W. Deem and Ramdas Pophale) SiO2 
 PCOD9373320
Probable space group: I M M 2
;
_chemical_formula_sum "Si O2"
_cell_formula_units_Z 64
_cell_length_a 31.186197
_cell_length_b 8.948870
_cell_length_c 14.800525
_cell_angle_alpha 90.000000
_cell_angle_beta 90.000000
_cell_angle_gamma 90.000000
_cell_volume 4130.548614
_symmetry_space_group_name_H-M "I M M 2"
_symmetry_group_IT_number 44
_symmetry_cell_setting 'orthorhombic'
loop_
_space_group_symop_operation_xyz
x,y,z
-x,-y,z
-x,y,z
x,-y,z
1/2+x,1/2+y,1/2+z
1/2-x,1/2-y,1/2+z
1/2-x,1/2+y,1/2+z
1/2+x,1/2-y,1/2+z
loop_
_atom_site_type_symbol
_atom_site_label
_atom_site_fract_x
_atom_site_fract_y
_atom_site_fract_z
Si Si1 0.325626 0.669802 0.500000
Si Si2 0.794075 0.319728 0.681607
Si Si3 0.792365 0.821260 0.289223
Si Si4 0.048903 0.819821 0.889106
Si Si5 0.635688 0.823712 0.668729
Si Si6 0.548783 0.180096 0.586579
Si Si7 0.366252 0.675453 0.301693
Si Si8 0.223385 0.675058 0.480590
O O1 0.335392 0.500000 0.532266
O O2 0.343562 0.786185 0.571470
O O3 0.345814 0.687857 0.401615
O O4 0.274758 0.682874 0.490762
O O5 0.793038 0.500000 0.681302
O O6 0.750410 0.270258 0.733592
O O7 0.835708 0.263159 0.734145
O O8 0.794278 0.270493 0.577106
O O9 0.834763 0.760022 0.240581
O O10 0.789676 0.763660 0.391541
O O11 0.792527 0.000000 0.287089
O O12 0.084863 0.772488 0.817171
O O13 0.000000 0.781913 0.864024
O O14 0.052202 0.000000 0.897464
O O15 0.057256 0.750959 0.988057
O O16 0.586075 0.775791 0.656332
O O17 0.637117 0.000000 0.686817
O O18 0.500000 0.220701 0.612627
O O19 0.550790 0.000000 0.577362
O O20 0.366136 0.500000 0.276811
O O21 0.211991 0.500000 0.468653
#
# Coordination Sequence:
#
# PCOD9373320 Si02
#       8
#     8   8   8   8   8   8   8   8
#     4  10  18  30  47  69 100 131 161 199 238 277
#     4  10  21  34  49  69  96 128 163 199 238 283
#     4  11  22  35  50  71  97 127 163 201 240 285
#     4   9  17  29  46  69  97 129 162 196 239 288
#     4  11  21  31  48  72  97 132 168 197 237 288
#     4   9  18  31  46  68  98 128 160 198 237 282
#     4  10  19  30  47  70  97 130 164 198 236 281
#     4  10  20  36  50  66  96 130 162 202 241 277
#
# _framework density 15.49431
#
# number of rings (size 3 to 8) (size 9 to 14) (size 15 to 20)
#    0.000    2.000    3.750    0.750    0.000    3.000 
#    0.000    0.000    0.000    0.000    0.000    0.875 
#    0.000    1.000    0.000    0.000    0.000    0.000 
#
# Total GULP energy -178422.960863 kJ/mol
# GULP energy per Si atom -5575.717527 kJ/mol
# Density = 1.545904 g / cm^3
# Si number density = 15.494310 Si / 1000 Ang^3
#
#
#
# Elastic Constant Matrix: (Units=GPa)
#
#
# Indices 1 2 3 4 5 6 
#
# 1 112.6399 27.4687 59.1996 0.0000 0.0000 0.0000
# 2 27.4687 23.8407 30.6035 0.0000 0.0000 0.0000
# 3 59.1996 30.6035 92.4283 0.0000 0.0000 0.0000
# 4 0.0000 0.0000 0.0000 27.0367 0.0000 0.0000
# 5 0.0000 0.0000 0.0000 0.0000 21.6206 0.0000
# 6 0.0000 0.0000 0.0000 0.0000 0.0000 17.9493
#
#
#
# Elastic Compliance Matrix: (Units=1/GPa)
#
#
# Indices 1 2 3 4 5 6 
#
# 1 0.014243 -0.008175 -0.006416 0.000000 0.000000 0.000000
# 2 -0.008175 0.077644 -0.020472 0.000000 0.000000 0.000000
# 3 -0.006416 -0.020472 0.021707 0.000000 0.000000 0.000000
# 4 0.000000 0.000000 0.000000 0.036987 0.000000 0.000000
# 5 0.000000 0.000000 0.000000 0.000000 0.046252 0.000000
# 6 0.000000 0.000000 0.000000 0.000000 0.000000 0.055712
#
#
# Mechanical properties :
#
#
# Convention : Reuss Voigt Hill
#
# Bulk Modulus (GPa) = 23.00555 51.49472 37.25013
# Shear Modulus (GPa) = 14.82969 20.76380 17.79675
#
# Velocity S-wave (km/s) = 3.09707 3.66470 3.39278
# Velocity P-wave (km/s) = 5.26014 7.15636 6.28023
#
# Compressibility (1/GPa) = 0.04346777
#
# Stress axis : x y z
#
# Youngs Moduli (GPa) = 70.20759 12.87935 46.06791
#
# Poissons Ratio (x) = 0.10529 0.29557
# Poissons Ratio (y) = 0.57394 0.94311
# Poissons Ratio (z) = 0.45046 0.26367
#
# Static dielectric constant tensor:
#      x y z
#    x 1.542180 0.000000 0.000000 
#    y 0.000000 1.527210 0.000000 
#    z 0.000000 0.000000 1.491700 
# 
# From -- ./inp_files/17086.got.cif
#   From: 2010.05.17/outbox.cif.g08.bks.cpg/sg44_9_cif.got.tgz:17086.got - 2010.06.03 19:37:08.
