data_PCOD9373623
_publ_section_title
;
Structure prediction by ZEFSAII (Michael W. Deem and Ramdas Pophale) SiO2 
 PCOD9373623
Probable space group: I M M 2
;
_chemical_formula_sum "Si O2"
_cell_formula_units_Z 56
_cell_length_a 14.119601
_cell_length_b 8.825615
_cell_length_c 30.213375
_cell_angle_alpha 90.000000
_cell_angle_beta 90.000000
_cell_angle_gamma 90.000000
_cell_volume 3765.014418
_symmetry_space_group_name_H-M "I M M 2"
_symmetry_group_IT_number 44
_symmetry_cell_setting 'orthorhombic'
loop_
_space_group_symop_operation_xyz
x,y,z
-x,-y,z
-x,y,z
x,-y,z
1/2+x,1/2+y,1/2+z
1/2-x,1/2-y,1/2+z
1/2-x,1/2+y,1/2+z
1/2+x,1/2-y,1/2+z
loop_
_atom_site_type_symbol
_atom_site_label
_atom_site_fract_x
_atom_site_fract_y
_atom_site_fract_z
Si Si1 0.114881 0.824378 0.651840
Si Si2 0.389036 0.817260 0.244304
Si Si3 0.391407 0.183067 0.424947
Si Si4 0.607887 0.683213 0.884699
Si Si5 0.708584 0.816239 0.333789
Si Si6 0.788709 0.317964 0.469207
Si Si7 0.889710 0.682377 0.559357
O O1 0.145851 0.746219 0.697387
O O2 0.145418 0.747436 0.606064
O O3 0.000000 0.812727 0.651887
O O4 0.140789 0.000000 0.652002
O O5 0.500000 0.775647 0.250168
O O6 0.330199 0.762227 0.286778
O O7 0.385105 0.000000 0.242642
O O8 0.500000 0.226586 0.432780
O O9 0.358649 0.226252 0.375114
O O10 0.315378 0.255616 0.457906
O O11 0.384335 0.000000 0.427750
O O12 0.500000 0.726387 0.874892
O O13 0.612313 0.500000 0.888532
O O14 0.685394 0.729195 0.847930
O O15 0.643118 0.753188 0.930859
O O16 0.706907 0.000000 0.331898
O O17 0.789002 0.500000 0.467058
O O18 0.828270 0.270711 0.517060
O O19 0.888444 0.500000 0.561890
O O20 0.000000 0.728571 0.552851
#
# Coordination Sequence:
#
# PCOD9373623 Si02
#       7
#     8   8   8   8   8   8   8
#     4   9  17  27  39  58  83 107 132 167 210 252
#     4   9  15  24  40  59  80 108 138 167 203 249
#     4   9  17  30  46  63  86 115 146 178 208 243
#     4   9  17  29  44  62  86 115 146 179 211 246
#     4   8  14  25  42  63  83 108 144 176 202 239
#     4  10  19  29  43  64  88 113 142 176 213 252
#     4   9  17  29  43  59  82 112 142 170 204 249
#
# _framework density 14.873780999999999
#
# number of rings (size 3 to 8) (size 9 to 14) (size 15 to 20)
#    0.000    3.000    0.000    2.571    0.000    5.714 
#    0.000    4.286    0.000    3.429    0.000    1.000 
#    0.000    5.714    0.000    0.000    0.000    0.000 
#
# Total GULP energy -155926.919503 kJ/mol
# GULP energy per Si atom -5568.818554 kJ/mol
# Density = 1.483993 g / cm^3
# Si number density = 14.873781 Si / 1000 Ang^3
#
#
#
# Elastic Constant Matrix: (Units=GPa)
#
#
# Indices 1 2 3 4 5 6 
#
# 1 101.3642 24.6808 72.5369 0.0000 0.0000 0.0000
# 2 24.6808 14.4203 33.1620 0.0000 0.0000 0.0000
# 3 72.5369 33.1620 158.7255 0.0000 0.0000 0.0000
# 4 0.0000 0.0000 0.0000 22.2890 0.0000 0.0000
# 5 0.0000 0.0000 0.0000 0.0000 24.0912 0.0000
# 6 0.0000 0.0000 0.0000 0.0000 0.0000 14.4944
#
#
#
# Elastic Compliance Matrix: (Units=1/GPa)
#
#
# Indices 1 2 3 4 5 6 
#
# 1 0.017824 -0.022664 -0.003411 0.000000 0.000000 0.000000
# 2 -0.022664 0.162294 -0.023550 0.000000 0.000000 0.000000
# 3 -0.003411 -0.023550 0.012779 0.000000 0.000000 0.000000
# 4 0.000000 0.000000 0.000000 0.044865 0.000000 0.000000
# 5 0.000000 0.000000 0.000000 0.000000 0.041509 0.000000
# 6 0.000000 0.000000 0.000000 0.000000 0.000000 0.068992
#
#
# Mechanical properties :
#
#
# Convention : Reuss Voigt Hill
#
# Bulk Modulus (GPa) = 10.67828 59.47438 35.07633
# Shear Modulus (GPa) = 10.44434 21.78361 16.11397
#
# Velocity S-wave (km/s) = 2.65278 3.83111 3.29505
# Velocity P-wave (km/s) = 4.07159 7.72287 6.17335
#
# Compressibility (1/GPa) = 0.09364804
#
# Stress axis : x y z
#
# Youngs Moduli (GPa) = 56.10289 6.16167 78.25283
#
# Poissons Ratio (x) = 0.13965 0.26689
# Poissons Ratio (y) = 1.27150 1.84287
# Poissons Ratio (z) = 0.19135 0.14511
#
# Static dielectric constant tensor:
#      x y z
#    x 1.486210 0.000000 0.000000 
#    y 0.000000 1.501840 0.000000 
#    z 0.000000 0.000000 1.485960 
# 
# From -- ./inp_files/27205.got.cif
#   From: 2010.05.17/outbox.cif.g08.bks.cpg/sg44_14_cif.got.tgz:27205.got - 2010.06.03 19:37:08.
