data_PCOD9373202
_publ_section_title
;
Structure prediction by ZEFSAII (Michael W. Deem and Ramdas Pophale) SiO2 
 PCOD9373202
Probable space group: I M M 2
;
_chemical_formula_sum "Si O2"
_cell_formula_units_Z 64
_cell_length_a 25.311018
_cell_length_b 13.017579
_cell_length_c 9.697324
_cell_angle_alpha 90.000000
_cell_angle_beta 90.000000
_cell_angle_gamma 90.000000
_cell_volume 3195.153601
_symmetry_space_group_name_H-M "I M M 2"
_symmetry_group_IT_number 44
_symmetry_cell_setting 'orthorhombic'
loop_
_space_group_symop_operation_xyz
x,y,z
-x,-y,z
-x,y,z
x,-y,z
1/2+x,1/2+y,1/2+z
1/2-x,1/2-y,1/2+z
1/2-x,1/2+y,1/2+z
1/2+x,1/2-y,1/2+z
loop_
_atom_site_type_symbol
_atom_site_label
_atom_site_fract_x
_atom_site_fract_y
_atom_site_fract_z
Si Si1 0.279688 0.335163 0.963550
Si Si2 0.333118 0.383866 0.242310
Si Si3 0.222390 0.380210 0.370740
Si Si4 0.440615 0.319628 0.834718
Si Si5 0.831325 0.331182 0.082408
Si Si6 0.337710 0.388750 0.686923
Si Si7 0.440659 0.883891 0.661331
Si Si8 0.059240 0.125186 0.653343
O O1 0.290608 0.211907 0.974739
O O2 0.297711 0.370390 0.813423
O O3 0.315386 0.384653 0.081954
O O4 0.218633 0.362414 0.991208
O O5 0.339174 0.500000 0.291942
O O6 0.280448 0.345996 0.316418
O O7 0.391501 0.336582 0.244911
O O8 0.221894 0.500000 0.413869
O O9 0.184553 0.368844 0.237146
O O10 0.500000 0.354982 0.800612
O O11 0.395394 0.381277 0.756179
O O12 0.435237 0.202933 0.779234
O O13 0.434690 0.331355 0.998504
O O14 0.832674 0.207567 0.087066
O O15 0.890846 0.368904 0.059644
O O16 0.328977 0.500000 0.624100
O O17 0.500000 0.870714 0.601767
O O18 0.437636 0.000000 0.716158
O O19 0.000000 0.149913 0.703014
O O20 0.062628 0.000000 0.643297
#
# Coordination Sequence:
#
# PCOD9373202 Si02
#       8
#     8   8   8   8   8   8   8   8
#     4  10  18  29  44  62  84 114 143 176 211 250
#     4   9  16  28  44  63  87 112 138 171 209 249
#     4   9  18  30  45  63  84 112 144 176 212 253
#     4   9  16  25  39  63  91 114 135 167 209 253
#     4   9  19  31  43  62  88 113 141 177 217 253
#     4  10  18  28  43  64  87 114 143 172 208 255
#     4   9  17  29  44  61  83 111 143 178 212 250
#     4   9  15  23  39  62  86 111 136 163 202 253
#
# _framework density 20.030335999999998
#
# number of rings (size 3 to 8) (size 9 to 14) (size 15 to 20)
#    0.000    2.750    1.250    1.125    0.000    2.750 
#    0.000    0.000    0.000    0.750    0.000    0.000 
#    0.000    0.000    0.000    0.000    0.000    0.000 
#
# Total GULP energy -178308.703868 kJ/mol
# GULP energy per Si atom -5572.146996 kJ/mol
# Density = 1.998475 g / cm^3
# Si number density = 20.030336 Si / 1000 Ang^3
#
#
#
# Elastic Constant Matrix: (Units=GPa)
#
#
# Indices 1 2 3 4 5 6 
#
# 1 163.4596 17.1135 18.3157 0.0000 0.0000 0.0000
# 2 17.1135 99.1657 6.1154 0.0000 0.0000 0.0000
# 3 18.3157 6.1154 17.7358 0.0000 0.0000 0.0000
# 4 0.0000 0.0000 0.0000 2.7529 0.0000 0.0000
# 5 0.0000 0.0000 0.0000 0.0000 20.7175 0.0000
# 6 0.0000 0.0000 0.0000 0.0000 0.0000 18.3223
#
#
#
# Elastic Compliance Matrix: (Units=1/GPa)
#
#
# Indices 1 2 3 4 5 6 
#
# 1 0.006976 -0.000776 -0.006937 0.000000 0.000000 0.000000
# 2 -0.000776 0.010390 -0.002781 0.000000 0.000000 0.000000
# 3 -0.006937 -0.002781 0.064506 0.000000 0.000000 0.000000
# 4 0.000000 0.000000 0.000000 0.363252 0.000000 0.000000
# 5 0.000000 0.000000 0.000000 0.000000 0.048268 0.000000
# 6 0.000000 0.000000 0.000000 0.000000 0.000000 0.054578
#
#
# Mechanical properties :
#
#
# Convention : Reuss Voigt Hill
#
# Bulk Modulus (GPa) = 16.42470 40.38336 28.40403
# Shear Modulus (GPa) = 8.48534 24.27966 16.38250
#
# Velocity S-wave (km/s) = 2.06045 3.48536 2.86297
# Velocity P-wave (km/s) = 3.72536 6.03340 5.01399
#
# Compressibility (1/GPa) = 0.06088392
#
# Stress axis : x y z
#
# Youngs Moduli (GPa) = 143.34373 96.25040 15.50255
#
# Poissons Ratio (x) = 0.07470 0.10754
# Poissons Ratio (y) = 0.11126 0.04311
# Poissons Ratio (z) = 0.99433 0.26766
#
# Static dielectric constant tensor:
#      x y z
#    x 1.767710 0.000000 0.000000 
#    y 0.000000 1.731470 0.000000 
#    z 0.000000 0.000000 1.699040 
# 
# From -- ./inp_files/14923.got.cif
#   From: 2010.05.17/outbox.cif.g08.bks.cpg/sg44_8_cif.got.tgz:14923.got - 2010.06.03 19:37:08.
