data_PCOD9373690
_publ_section_title
;
Structure prediction by ZEFSAII (Michael W. Deem and Ramdas Pophale) SiO2 
 PCOD9373690
Probable space group: I M M 2
;
_chemical_formula_sum "Si O2"
_cell_formula_units_Z 64
_cell_length_a 8.890250
_cell_length_b 21.803526
_cell_length_c 16.114621
_cell_angle_alpha 90.000000
_cell_angle_beta 90.000000
_cell_angle_gamma 90.000000
_cell_volume 3123.638749
_symmetry_space_group_name_H-M "I M M 2"
_symmetry_group_IT_number 44
_symmetry_cell_setting 'orthorhombic'
loop_
_space_group_symop_operation_xyz
x,y,z
-x,-y,z
-x,y,z
x,-y,z
1/2+x,1/2+y,1/2+z
1/2-x,1/2-y,1/2+z
1/2-x,1/2+y,1/2+z
1/2+x,1/2-y,1/2+z
loop_
_atom_site_type_symbol
_atom_site_label
_atom_site_fract_x
_atom_site_fract_y
_atom_site_fract_z
Si Si1 0.827757 0.074389 0.526940
Si Si2 0.818716 0.188536 0.095541
Si Si3 0.827159 0.425219 0.856988
Si Si4 0.680860 0.194986 0.924264
Si Si5 0.171093 0.398264 0.198872
Si Si6 0.819761 0.069591 0.183106
Si Si7 0.827803 0.256949 0.255880
Si Si8 0.679028 0.431976 0.365195
O O1 0.759010 0.095716 0.439423
O O2 0.732816 0.094215 0.606554
O O3 0.000000 0.094873 0.534940
O O4 0.826575 0.000000 0.525945
O O5 0.786496 0.116547 0.109460
O O6 0.760028 0.219456 0.180107
O O7 0.000000 0.197033 0.089768
O O8 0.742327 0.213640 0.013407
O O9 0.824515 0.500000 0.858757
O O10 0.749523 0.408422 0.770342
O O11 0.000000 0.405512 0.858750
O O12 0.500000 0.195195 0.921820
O O13 0.737764 0.237680 0.848211
O O14 0.738043 0.125727 0.906307
O O15 0.167549 0.326885 0.223814
O O16 0.275616 0.429435 0.267973
O O17 0.000000 0.421742 0.204721
O O18 0.000000 0.069047 0.193432
O O19 0.769051 0.000000 0.166958
O O20 0.000000 0.234049 0.264686
O O21 0.500000 0.423965 0.374485
O O22 0.719337 0.500000 0.397279
#
# Coordination Sequence:
#
# PCOD9373690 Si02
#       8
#     8   8   8   8   8   8   8   8
#     4  10  19  30  46  71 105 144 187 231 277 336
#     4  10  20  38  62  83 110 150 189 229 282 342
#     4   9  17  30  48  70 101 140 178 221 273 324
#     4  10  21  38  59  84 115 148 188 240 288 334
#     4  10  19  32  51  75 107 144 186 237 287 335
#     4   9  18  33  54  80 109 141 178 221 273 336
#     4   8  18  38  58  76 107 148 186 229 282 333
#     4  10  20  34  54  81 113 149 189 229 276 341
#
# _framework density 20.488925999999999
#
# number of rings (size 3 to 8) (size 9 to 14) (size 15 to 20)
#    0.000    2.500    0.000    3.000    0.000    5.750 
#    2.250    5.000    0.000    0.000    0.000    0.000 
#    0.000    0.000    0.000    0.000    0.000    0.000 
#
# Total GULP energy -178556.526150 kJ/mol
# GULP energy per Si atom -5579.891442 kJ/mol
# Density = 2.044229 g / cm^3
# Si number density = 20.488926 Si / 1000 Ang^3
#
#
#
# Elastic Constant Matrix: (Units=GPa)
#
#
# Indices 1 2 3 4 5 6 
#
# 1 43.6776 6.1732 25.8321 0.0000 0.0000 0.0000
# 2 6.1732 32.4577 26.6137 0.0000 0.0000 0.0000
# 3 25.8321 26.6137 142.5786 0.0000 0.0000 0.0000
# 4 0.0000 0.0000 0.0000 20.6721 0.0000 0.0000
# 5 0.0000 0.0000 0.0000 0.0000 33.7813 0.0000
# 6 0.0000 0.0000 0.0000 0.0000 0.0000 9.8726
#
#
#
# Elastic Compliance Matrix: (Units=1/GPa)
#
#
# Indices 1 2 3 4 5 6 
#
# 1 0.025687 -0.001263 -0.004418 0.000000 0.000000 0.000000
# 2 -0.001263 0.036439 -0.006573 0.000000 0.000000 0.000000
# 3 -0.004418 -0.006573 0.009041 0.000000 0.000000 0.000000
# 4 0.000000 0.000000 0.000000 0.048374 0.000000 0.000000
# 5 0.000000 0.000000 0.000000 0.000000 0.029602 0.000000
# 6 0.000000 0.000000 0.000000 0.000000 0.000000 0.101291
#
#
# Mechanical properties :
#
#
# Convention : Reuss Voigt Hill
#
# Bulk Modulus (GPa) = 21.43212 37.32800 29.38006
# Shear Modulus (GPa) = 17.21203 23.53818 20.37510
#
# Velocity S-wave (km/s) = 2.90153 3.39311 3.15690
# Velocity P-wave (km/s) = 4.65921 5.79733 5.25915
#
# Compressibility (1/GPa) = 0.04665895
#
# Stress axis : x y z
#
# Youngs Moduli (GPa) = 38.93090 27.44313 110.60670
#
# Poissons Ratio (x) = 0.03465 0.48867
# Poissons Ratio (y) = 0.04916 0.72701
# Poissons Ratio (z) = 0.17200 0.18038
#
# Static dielectric constant tensor:
#      x y z
#    x 1.701450 0.000000 0.000000 
#    y 0.000000 1.766610 0.000000 
#    z 0.000000 0.000000 1.724620 
# 
# From -- ./inp_files/16871.got.cif
#   From: 2010.05.17/outbox.cif.g08.bks.cpg/sg44_9_cif.got.tgz:16871.got - 2010.06.03 19:37:08.
