data_PCOD9373609
_publ_section_title
;
Structure prediction by ZEFSAII (Michael W. Deem and Ramdas Pophale) SiO2 
 PCOD9373609
Probable space group: I M M 2
;
_chemical_formula_sum "Si O2"
_cell_formula_units_Z 64
_cell_length_a 9.242828
_cell_length_b 13.925703
_cell_length_c 34.894974
_cell_angle_alpha 90.000000
_cell_angle_beta 90.000000
_cell_angle_gamma 90.000000
_cell_volume 4491.432518
_symmetry_space_group_name_H-M "I M M 2"
_symmetry_group_IT_number 44
_symmetry_cell_setting 'orthorhombic'
loop_
_space_group_symop_operation_xyz
x,y,z
-x,-y,z
-x,y,z
x,-y,z
1/2+x,1/2+y,1/2+z
1/2-x,1/2-y,1/2+z
1/2-x,1/2+y,1/2+z
1/2+x,1/2-y,1/2+z
loop_
_atom_site_type_symbol
_atom_site_label
_atom_site_fract_x
_atom_site_fract_y
_atom_site_fract_z
Si Si1 0.172111 0.784405 0.398720
Si Si2 0.325800 0.886690 0.328595
Si Si3 0.671754 0.114850 0.089217
Si Si4 0.172019 0.111501 0.937873
Si Si5 0.665660 0.383226 0.667034
Si Si6 0.833018 0.383199 0.742359
Si Si7 0.827523 0.111787 0.478920
Si Si8 0.172064 0.215146 0.018397
O O1 0.246955 0.827178 0.361255
O O2 0.239015 0.682252 0.410676
O O3 0.200973 0.853962 0.435260
O O4 0.000000 0.778067 0.393783
O O5 0.500000 0.877888 0.331865
O O6 0.286085 0.855509 0.285254
O O7 0.290775 0.000000 0.332762
O O8 0.500000 0.131517 0.088800
O O9 0.739558 0.143365 0.130153
O O10 0.750013 0.170759 0.055122
O O11 0.695793 0.000000 0.084391
O O12 0.000000 0.122937 0.930647
O O13 0.209881 0.000000 0.933565
O O14 0.197674 0.146316 0.981538
O O15 0.500000 0.351718 0.662916
O O16 0.665616 0.500000 0.668149
O O17 0.735379 0.350367 0.707065
O O18 0.832271 0.500000 0.742323
O O19 0.000000 0.354070 0.736511
O O20 0.739023 0.182591 0.506336
O O21 0.000000 0.124035 0.485509
O O22 0.791274 0.000000 0.483545
O O23 0.000000 0.221719 0.024399
#
# Coordination Sequence:
#
# PCOD9373609 Si02
#       8
#     8   8   8   8   8   8   8   8
#     4  10  19  29  43  64  87 110 140 178 215 251
#     4   9  17  28  42  60  84 115 147 177 209 248
#     4  10  19  29  42  60  84 115 146 174 207 250
#     4   9  18  32  47  61  81 111 143 175 213 255
#     4   9  16  25  38  57  81 109 140 173 208 245
#     4   8  14  25  39  55  78 109 142 172 204 245
#     4   9  18  32  46  60  83 114 144 174 210 252
#     4  10  19  30  45  65  86 107 138 179 216 251
#
# _framework density 14.249351000000001
#
# number of rings (size 3 to 8) (size 9 to 14) (size 15 to 20)
#    0.000    2.750    0.000    3.000    0.000    5.500 
#    0.000    1.250    0.000    0.000    0.000    0.000 
#    0.000    1.000    0.000    8.750    0.000    5.125 
#
# Total GULP energy -178326.656483 kJ/mol
# GULP energy per Si atom -5572.708015 kJ/mol
# Density = 1.421692 g / cm^3
# Si number density = 14.249351 Si / 1000 Ang^3
#
#
#
# Elastic Constant Matrix: (Units=GPa)
#
#
# Indices 1 2 3 4 5 6 
#
# 1 78.0444 51.1887 79.6413 0.0000 0.0000 0.0000
# 2 51.1887 77.5588 57.4453 0.0000 0.0000 0.0000
# 3 79.6413 57.4453 136.5799 0.0000 0.0000 0.0000
# 4 0.0000 0.0000 0.0000 19.4341 0.0000 0.0000
# 5 0.0000 0.0000 0.0000 0.0000 28.8129 0.0000
# 6 0.0000 0.0000 0.0000 0.0000 0.0000 19.3279
#
#
#
# Elastic Compliance Matrix: (Units=1/GPa)
#
#
# Indices 1 2 3 4 5 6 
#
# 1 0.038845 -0.012870 -0.017238 0.000000 0.000000 0.000000
# 2 -0.012870 0.022992 -0.002165 0.000000 0.000000 0.000000
# 3 -0.017238 -0.002165 0.018284 0.000000 0.000000 0.000000
# 4 0.000000 0.000000 0.000000 0.051456 0.000000 0.000000
# 5 0.000000 0.000000 0.000000 0.000000 0.034707 0.000000
# 6 0.000000 0.000000 0.000000 0.000000 0.000000 0.051739
#
#
# Mechanical properties :
#
#
# Convention : Reuss Voigt Hill
#
# Bulk Modulus (GPa) = 64.21026 74.30374 69.25700
# Shear Modulus (GPa) = 17.37550 20.44217 18.90884
#
# Velocity S-wave (km/s) = 3.49576 3.79173 3.64675
# Velocity P-wave (km/s) = 7.83923 8.45152 8.15112
#
# Compressibility (1/GPa) = 0.01557384
#
# Stress axis : x y z
#
# Youngs Moduli (GPa) = 25.74302 43.49392 54.69208
#
# Poissons Ratio (x) = 0.55978 0.94278
# Poissons Ratio (y) = 0.33132 0.11843
# Poissons Ratio (z) = 0.44376 0.09418
#
# Static dielectric constant tensor:
#      x y z
#    x 1.471550 0.000000 0.000000 
#    y 0.000000 1.440550 0.000000 
#    z 0.000000 0.000000 1.460990 
# 
# From -- ./inp_files/27298.got.cif
#   From: 2010.05.17/outbox.cif.g08.bks.cpg/sg44_14_cif.got.tgz:27298.got - 2010.06.03 19:37:08.
