data_PCOD9373204
_publ_section_title
;
Structure prediction by ZEFSAII (Michael W. Deem and Ramdas Pophale) SiO2 
 PCOD9373204
Probable space group: I M M 2
;
_chemical_formula_sum "Si O2"
_cell_formula_units_Z 64
_cell_length_a 23.774565
_cell_length_b 7.588825
_cell_length_c 20.008178
_cell_angle_alpha 90.000000
_cell_angle_beta 90.000000
_cell_angle_gamma 90.000000
_cell_volume 3609.895748
_symmetry_space_group_name_H-M "I M M 2"
_symmetry_group_IT_number 44
_symmetry_cell_setting 'orthorhombic'
loop_
_space_group_symop_operation_xyz
x,y,z
-x,-y,z
-x,y,z
x,-y,z
1/2+x,1/2+y,1/2+z
1/2-x,1/2-y,1/2+z
1/2-x,1/2+y,1/2+z
1/2+x,1/2-y,1/2+z
loop_
_atom_site_type_symbol
_atom_site_label
_atom_site_fract_x
_atom_site_fract_y
_atom_site_fract_z
Si Si1 0.936463 0.289002 0.687620
Si Si2 0.236479 0.294076 0.475213
Si Si3 0.743041 0.794948 0.828617
Si Si4 0.274168 0.216840 0.682889
Si Si5 0.333605 0.290823 0.098401
Si Si6 0.155800 0.296545 0.060601
Si Si7 0.374175 0.214168 0.322036
Si Si8 0.064577 0.284102 0.959057
O O1 0.939926 0.500000 0.694165
O O2 0.894729 0.251989 0.626452
O O3 0.906618 0.224727 0.755641
O O4 0.000000 0.221329 0.680189
O O5 0.251197 0.500000 0.468400
O O6 0.226642 0.220329 0.401037
O O7 0.184596 0.278879 0.526078
O O8 0.290165 0.207787 0.511288
O O9 0.720287 0.720249 0.758770
O O10 0.810659 0.782266 0.823923
O O11 0.726111 0.000000 0.829215
O O12 0.213982 0.271935 0.651401
O O13 0.321428 0.278272 0.630478
O O14 0.274100 0.000000 0.683144
O O15 0.328050 0.500000 0.094712
O O16 0.141720 0.500000 0.074115
O O17 0.103588 0.219895 0.019902
O O18 0.407258 0.267518 0.388827
O O19 0.371466 0.000000 0.321101
O O20 0.065506 0.500000 0.959838
O O21 0.000000 0.228782 0.963355
#
# Coordination Sequence:
#
# PCOD9373204 Si02
#       8
#     8   8   8   8   8   8   8   8
#     4  10  20  32  46  67  96 128 160 193 230 270
#     4  10  19  29  45  65  89 117 149 190 236 281
#     4  10  18  29  44  64  91 122 151 184 231 278
#     4   8  15  27  43  62  85 113 145 182 227 269
#     4  10  19  32  49  66  89 120 155 194 232 275
#     4   9  16  28  45  64  86 115 151 190 228 269
#     4  10  18  28  43  64  93 125 159 189 215 260
#     4   9  16  26  42  64  90 121 155 188 221 258
#
# _framework density 17.729043999999998
#
# number of rings (size 3 to 8) (size 9 to 14) (size 15 to 20)
#    0.000    2.500    2.500    1.875    0.000    2.250 
#    0.000    0.000    0.000    2.250    0.000    0.875 
#    0.000    5.000    0.000    0.000    0.000    0.250 
#
# Total GULP energy -178454.850420 kJ/mol
# GULP energy per Si atom -5576.714076 kJ/mol
# Density = 1.768869 g / cm^3
# Si number density = 17.729044 Si / 1000 Ang^3
#
#
#
# Elastic Constant Matrix: (Units=GPa)
#
#
# Indices 1 2 3 4 5 6 
#
# 1 73.5444 -8.9722 60.0561 0.0000 0.0000 0.0000
# 2 -8.9722 39.0547 -3.5533 0.0000 0.0000 0.0000
# 3 60.0561 -3.5533 169.3326 0.0000 0.0000 0.0000
# 4 0.0000 0.0000 0.0000 5.4870 0.0000 0.0000
# 5 0.0000 0.0000 0.0000 0.0000 18.1025 0.0000
# 6 0.0000 0.0000 0.0000 0.0000 0.0000 10.4996
#
#
#
# Elastic Compliance Matrix: (Units=1/GPa)
#
#
# Indices 1 2 3 4 5 6 
#
# 1 0.019717 0.003901 -0.006911 0.000000 0.000000 0.000000
# 2 0.003901 0.026426 -0.000829 0.000000 0.000000 0.000000
# 3 -0.006911 -0.000829 0.008339 0.000000 0.000000 0.000000
# 4 0.000000 0.000000 0.000000 0.182249 0.000000 0.000000
# 5 0.000000 0.000000 0.000000 0.000000 0.055241 0.000000
# 6 0.000000 0.000000 0.000000 0.000000 0.000000 0.095242
#
#
# Mechanical properties :
#
#
# Convention : Reuss Voigt Hill
#
# Bulk Modulus (GPa) = 21.36596 41.88810 31.62703
# Shear Modulus (GPa) = 12.18049 22.44456 17.31252
#
# Velocity S-wave (km/s) = 2.62398 3.56192 3.12830
# Velocity P-wave (km/s) = 4.61063 6.37138 5.56113
#
# Compressibility (1/GPa) = 0.04680342
#
# Stress axis : x y z
#
# Youngs Moduli (GPa) = 50.71891 37.84180 119.91585
#
# Poissons Ratio (x) = -0.14761 0.82872
# Poissons Ratio (y) = -0.19784 0.09940
# Poissons Ratio (z) = 0.35051 0.03137
#
# Static dielectric constant tensor:
#      x y z
#    x 1.581180 0.000000 0.000000 
#    y 0.000000 1.677660 0.000000 
#    z 0.000000 0.000000 1.636740 
# 
# From -- ./inp_files/20897.got.cif
#   From: 2010.05.17/outbox.cif.g08.bks.cpg/sg44_11_cif.got.tgz:20897.got - 2010.06.03 19:37:08.
