data_PCOD9373656
_publ_section_title
;
Structure prediction by ZEFSAII (Michael W. Deem and Ramdas Pophale) SiO2 
 PCOD9373656
Probable space group: I M M 2
;
_chemical_formula_sum "Si O2"
_cell_formula_units_Z 56
_cell_length_a 8.584162
_cell_length_b 14.191889
_cell_length_c 30.179540
_cell_angle_alpha 90.000000
_cell_angle_beta 90.000000
_cell_angle_gamma 90.000000
_cell_volume 3676.636774
_symmetry_space_group_name_H-M "I M M 2"
_symmetry_group_IT_number 44
_symmetry_cell_setting 'orthorhombic'
loop_
_space_group_symop_operation_xyz
x,y,z
-x,-y,z
-x,y,z
x,-y,z
1/2+x,1/2+y,1/2+z
1/2-x,1/2-y,1/2+z
1/2-x,1/2+y,1/2+z
1/2+x,1/2-y,1/2+z
loop_
_atom_site_type_symbol
_atom_site_label
_atom_site_fract_x
_atom_site_fract_y
_atom_site_fract_z
Si Si1 0.688349 0.107361 0.852340
Si Si2 0.311571 0.393617 0.892978
Si Si3 0.684946 0.609864 0.722553
Si Si4 0.315389 0.788911 0.307393
Si Si5 0.190572 0.609447 0.531424
Si Si6 0.680082 0.114314 0.128716
Si Si7 0.810486 0.289845 0.442761
O O1 0.500000 0.110954 0.850305
O O2 0.754438 0.184328 0.818583
O O3 0.733334 0.142144 0.901815
O O4 0.737952 0.000000 0.844633
O O5 0.500000 0.393539 0.892711
O O6 0.257871 0.500000 0.901322
O O7 0.256809 0.356503 0.845215
O O8 0.260414 0.315048 0.928604
O O9 0.500000 0.612904 0.728740
O O10 0.735555 0.500000 0.727451
O O11 0.764419 0.673006 0.759754
O O12 0.727212 0.640788 0.672666
O O13 0.500000 0.790885 0.311417
O O14 0.236406 0.500000 0.525217
O O15 0.240286 0.644055 0.580237
O O16 0.243903 0.671131 0.489869
O O17 0.000000 0.610122 0.532283
O O18 0.500000 0.143830 0.133754
O O19 0.681036 0.000000 0.126638
O O20 0.000000 0.289964 0.444245
#
# Coordination Sequence:
#
# PCOD9373656 Si02
#       7
#     8   8   8   8   8   8   8
#     4   9  17  30  47  65  87 115 145 175 205 242
#     4   9  17  29  43  60  85 115 147 182 214 247
#     4  10  19  30  44  61  83 111 142 177 215 256
#     4  11  21  30  43  63  86 112 142 176 214 255
#     4   8  12  19  35  60  86 108 133 169 209 249
#     4   8  14  24  38  58  83 108 135 169 210 255
#     4   8  13  22  39  63  86 110 142 174 204 241
#
# _framework density 15.231311
#
# number of rings (size 3 to 8) (size 9 to 14) (size 15 to 20)
#    0.000    3.000    0.000    4.286    0.000    4.857 
#    0.000    0.000    0.000    3.429    0.000    5.000 
#    0.000    3.429    0.000    0.000    0.000    0.000 
#
# Total GULP energy -155933.558344 kJ/mol
# GULP energy per Si atom -5569.055655 kJ/mol
# Density = 1.519664 g / cm^3
# Si number density = 15.231311 Si / 1000 Ang^3
#
#
#
# Elastic Constant Matrix: (Units=GPa)
#
#
# Indices 1 2 3 4 5 6 
#
# 1 12.3211 17.8731 12.9740 0.0000 0.0000 0.0000
# 2 17.8731 105.8494 63.2814 0.0000 0.0000 0.0000
# 3 12.9740 63.2814 121.8345 0.0000 0.0000 0.0000
# 4 0.0000 0.0000 0.0000 22.9415 0.0000 0.0000
# 5 0.0000 0.0000 0.0000 0.0000 16.5264 0.0000
# 6 0.0000 0.0000 0.0000 0.0000 0.0000 7.6456
#
#
#
# Elastic Compliance Matrix: (Units=1/GPa)
#
#
# Indices 1 2 3 4 5 6 
#
# 1 0.108215 -0.016510 -0.002948 0.000000 0.000000 0.000000
# 2 -0.016510 0.016221 -0.006667 0.000000 0.000000 0.000000
# 3 -0.002948 -0.006667 0.011985 0.000000 0.000000 0.000000
# 4 0.000000 0.000000 0.000000 0.043589 0.000000 0.000000
# 5 0.000000 0.000000 0.000000 0.000000 0.060509 0.000000
# 6 0.000000 0.000000 0.000000 0.000000 0.000000 0.130795
#
#
# Mechanical properties :
#
#
# Convention : Reuss Voigt Hill
#
# Bulk Modulus (GPa) = 11.88069 47.58469 29.73269
# Shear Modulus (GPa) = 11.07121 19.14780 15.10950
#
# Velocity S-wave (km/s) = 2.69898 3.54945 3.15302
# Velocity P-wave (km/s) = 4.18686 6.93595 5.72875
#
# Compressibility (1/GPa) = 0.08417017
#
# Stress axis : x y z
#
# Youngs Moduli (GPa) = 9.24084 61.64813 83.43903
#
# Poissons Ratio (x) = 1.01780 0.24601
# Poissons Ratio (y) = 0.15257 0.55630
# Poissons Ratio (z) = 0.02725 0.41102
#
# Static dielectric constant tensor:
#      x y z
#    x 1.521170 0.000000 0.000000 
#    y 0.000000 1.498680 0.000000 
#    z 0.000000 0.000000 1.510230 
# 
# From -- ./inp_files/27209.got.cif
#   From: 2010.05.17/outbox.cif.g08.bks.cpg/sg44_14_cif.got.tgz:27209.got - 2010.06.03 19:37:08.
