data_PCOD9373023
_publ_section_title
;
Structure prediction by ZEFSAII (Michael W. Deem and Ramdas Pophale) SiO2 
 PCOD9373023
Probable space group: I M M 2
;
_chemical_formula_sum "Si O2"
_cell_formula_units_Z 28
_cell_length_a 9.745110
_cell_length_b 5.538090
_cell_length_c 26.000375
_cell_angle_alpha 90.000000
_cell_angle_beta 90.000000
_cell_angle_gamma 90.000000
_cell_volume 1403.221941
_symmetry_space_group_name_H-M "I M M 2"
_symmetry_group_IT_number 44
_symmetry_cell_setting 'orthorhombic'
loop_
_space_group_symop_operation_xyz
x,y,z
-x,-y,z
-x,y,z
x,-y,z
1/2+x,1/2+y,1/2+z
1/2-x,1/2-y,1/2+z
1/2-x,1/2+y,1/2+z
1/2+x,1/2-y,1/2+z
loop_
_atom_site_type_symbol
_atom_site_label
_atom_site_fract_x
_atom_site_fract_y
_atom_site_fract_z
Si Si1 0.000000 0.000000 0.143500
Si Si2 0.333364 0.500000 0.401306
Si Si3 0.839038 0.500000 0.732307
Si Si4 0.299473 0.000000 0.110286
Si Si5 0.667926 0.500000 0.281367
Si Si6 0.232719 0.000000 0.572810
Si Si7 0.000000 0.500000 0.147191
Si Si8 0.833694 0.500000 0.956173
O O1 0.133010 0.000000 0.107423
O O2 0.000000 0.754548 0.175516
O O3 0.500000 0.500000 0.403278
O O4 0.295123 0.500000 0.341344
O O5 0.289256 0.750560 0.428359
O O6 0.829378 0.500000 0.670815
O O7 0.783214 0.752617 0.754411
O O8 0.000000 0.500000 0.746589
O O9 0.344028 0.749177 0.085460
O O10 0.500000 0.500000 0.277791
O O11 0.364800 0.000000 0.611336
O O12 0.282242 0.000000 0.514485
O O13 0.000000 0.500000 0.956355
#
# Coordination Sequence:
#
# PCOD9373023 Si02
#       8
#     2   4   4   4   4   4   2   4
#     4   8  16  26  40  56  82 110 140 170 204 248
#     4   9  17  26  39  60  84 113 147 178 207 252
#     4  10  19  31  47  63  83 117 154 182 218 256
#     4  10  19  29  43  62  85 120 148 178 210 252
#     4   9  17  30  45  61  84 114 147 182 220 259
#     4  10  17  27  39  58  87 117 148 169 204 252
#     4   8  14  24  36  52  76 114 146 158 188 240
#     4  10  17  25  39  60  87 120 148 166 203 260
#
# _framework density 19.954077000000002
#
# number of rings (size 3 to 8) (size 9 to 14) (size 15 to 20)
#    0.000    2.571    0.714    2.571    0.000    3.429 
#    0.000    0.000    0.000    0.000    0.000    0.000 
#    0.000    0.000   48.571    0.000    0.000    0.000 
#
# Total GULP energy -78004.299597 kJ/mol
# GULP energy per Si atom -5571.735686 kJ/mol
# Density = 1.990866 g / cm^3
# Si number density = 19.954077 Si / 1000 Ang^3
#
#
#
# Elastic Constant Matrix: (Units=GPa)
#
#
# Indices 1 2 3 4 5 6 
#
# 1 42.8687 5.8221 -10.1173 0.0000 0.0000 0.0000
# 2 5.8221 287.8873 98.4283 0.0000 0.0000 0.0000
# 3 -10.1173 98.4283 108.3776 0.0000 0.0000 0.0000
# 4 0.0000 0.0000 0.0000 44.2479 0.0000 0.0000
# 5 0.0000 0.0000 0.0000 0.0000 14.4192 0.0000
# 6 0.0000 0.0000 0.0000 0.0000 0.0000 -13.0474
#
#
#
# Elastic Compliance Matrix: (Units=1/GPa)
#
#
# Indices 1 2 3 4 5 6 
#
# 1 0.024516 -0.001854 0.003972 0.000000 0.000000 0.000000
# 2 -0.001854 0.005178 -0.004876 0.000000 0.000000 0.000000
# 3 0.003972 -0.004876 0.014026 0.000000 0.000000 0.000000
# 4 0.000000 0.000000 0.000000 0.022600 0.000000 0.000000
# 5 0.000000 0.000000 0.000000 0.000000 0.069352 0.000000
# 6 0.000000 0.000000 0.000000 0.000000 0.000000 -0.076644
#
#
# Mechanical properties :
#
#
# Convention : Reuss Voigt Hill
#
# Bulk Modulus (GPa) = 26.17405 69.71110 47.94257
# Shear Modulus (GPa) = 64.70092 32.12397 48.41245
#
# Velocity S-wave (km/s) = 5.70047 4.01670 4.93098
# Velocity P-wave (km/s) = 7.51483 7.51821 7.51652
#
# Compressibility (1/GPa) = 0.03820579
#
# Stress axis : x y z
#
# Youngs Moduli (GPa) = 40.78906 193.12056 71.29595
#
# Poissons Ratio (x) = 0.35804 -0.28322
# Poissons Ratio (y) = 0.07562 0.34763
# Poissons Ratio (z) = -0.16203 0.94162
#
# Static dielectric constant tensor:
#      x y z
#    x 1.732900 0.000000 0.000000 
#    y 0.000000 1.763890 0.000000 
#    z 0.000000 0.000000 1.639990 
# 
# From -- ./inp_files/19754.got.cif
#   From: 2010.05.17/outbox.cif.g08.bks.cpg/sg44_10_cif.got.tgz:19754.got - 2010.06.03 19:37:08.
