data_PCOD9373940
_publ_section_title
;
Structure prediction by ZEFSAII (Michael W. Deem and Ramdas Pophale) SiO2 
 PCOD9373940
Probable space group: I M M 2
;
_chemical_formula_sum "Si O2"
_cell_formula_units_Z 40
_cell_length_a 8.854809
_cell_length_b 21.130920
_cell_length_c 12.855966
_cell_angle_alpha 90.000000
_cell_angle_beta 90.000000
_cell_angle_gamma 90.000000
_cell_volume 2405.483148
_symmetry_space_group_name_H-M "I M M 2"
_symmetry_group_IT_number 44
_symmetry_cell_setting 'orthorhombic'
loop_
_space_group_symop_operation_xyz
x,y,z
-x,-y,z
-x,y,z
x,-y,z
1/2+x,1/2+y,1/2+z
1/2-x,1/2-y,1/2+z
1/2-x,1/2+y,1/2+z
1/2+x,1/2-y,1/2+z
loop_
_atom_site_type_symbol
_atom_site_label
_atom_site_fract_x
_atom_site_fract_y
_atom_site_fract_z
Si Si1 0.179251 0.925800 0.294030
Si Si2 0.320157 0.693186 0.410542
Si Si3 0.180175 0.664037 0.625375
Si Si4 0.318959 0.201651 0.693217
Si Si5 0.179032 0.340401 0.967272
O O1 0.264853 0.892363 0.198850
O O2 0.229307 0.889252 0.398134
O O3 0.000000 0.918191 0.278927
O O4 0.214418 0.000000 0.300686
O O5 0.500000 0.683524 0.412451
O O6 0.243293 0.659141 0.508365
O O7 0.250095 0.675835 0.299656
O O8 0.292722 0.768594 0.427773
O O9 0.249359 0.729018 0.671789
O O10 0.000000 0.668658 0.625350
O O11 0.500000 0.207763 0.701087
O O12 0.285205 0.160789 0.590001
O O13 0.000000 0.352332 0.954330
#
# Coordination Sequence:
#
# PCOD9373940 Si02
#       5
#     8   8   8   8   8
#     4  11  23  37  54  76 105 141 181 224 265 310
#     4  10  19  32  52  79 109 138 171 215 267 318
#     4  11  21  33  51  76 106 141 178 215 264 318
#     4  10  19  32  52  78 109 138 170 217 267 317
#     4   9  19  33  50  76 106 137 175 213 260 315
#
# _framework density 16.628675999999999
#
# number of rings (size 3 to 8) (size 9 to 14) (size 15 to 20)
#    0.000    1.800    2.000    4.800    0.000    5.600 
#    0.000    0.000    0.000    1.200    0.000    5.600 
#    0.000    0.000    0.000    0.000    0.000    0.000 
#
# Total GULP energy -111658.038559 kJ/mol
# GULP energy per Si atom -5582.901928 kJ/mol
# Density = 1.659083 g / cm^3
# Si number density = 16.628676 Si / 1000 Ang^3
#
#
#
# Elastic Constant Matrix: (Units=GPa)
#
#
# Indices 1 2 3 4 5 6 
#
# 1 96.9752 53.4114 72.9864 0.0000 0.0000 0.0000
# 2 53.4114 62.3705 47.1322 0.0000 0.0000 0.0000
# 3 72.9864 47.1322 161.6550 0.0000 0.0000 0.0000
# 4 0.0000 0.0000 0.0000 15.7456 0.0000 0.0000
# 5 0.0000 0.0000 0.0000 0.0000 35.3903 0.0000
# 6 0.0000 0.0000 0.0000 0.0000 0.0000 21.0110
#
#
#
# Elastic Compliance Matrix: (Units=1/GPa)
#
#
# Indices 1 2 3 4 5 6 
#
# 1 0.023369 -0.015441 -0.006049 0.000000 0.000000 0.000000
# 2 -0.015441 0.030767 -0.001999 0.000000 0.000000 0.000000
# 3 -0.006049 -0.001999 0.009500 0.000000 0.000000 0.000000
# 4 0.000000 0.000000 0.000000 0.063510 0.000000 0.000000
# 5 0.000000 0.000000 0.000000 0.000000 0.028256 0.000000
# 6 0.000000 0.000000 0.000000 0.000000 0.000000 0.047594
#
#
# Mechanical properties :
#
#
# Convention : Reuss Voigt Hill
#
# Bulk Modulus (GPa) = 60.03160 74.22895 67.13027
# Shear Modulus (GPa) = 19.56741 24.26075 21.91408
#
# Velocity S-wave (km/s) = 3.43407 3.82379 3.63416
# Velocity P-wave (km/s) = 7.20440 8.01444 7.62019
#
# Compressibility (1/GPa) = 0.01665789
#
# Stress axis : x y z
#
# Youngs Moduli (GPa) = 42.79136 32.50252 105.26456
#
# Poissons Ratio (x) = 0.50188 0.63675
# Poissons Ratio (y) = 0.66075 0.21040
# Poissons Ratio (z) = 0.25885 0.06497
#
# Static dielectric constant tensor:
#      x y z
#    x 1.551510 0.000000 0.000000 
#    y 0.000000 1.524960 0.000000 
#    z 0.000000 0.000000 1.579220 
# 
# From -- ./inp_files/10831.got.cif
#   From: 2010.05.17/outbox.cif.g08.bks.cpg/sg44_6_cif.got.tgz:10831.got - 2010.06.03 19:37:08.
