data_PCOD9373006
_publ_section_title
;
Structure prediction by ZEFSAII (Michael W. Deem and Ramdas Pophale) SiO2 
 PCOD9373006
Probable space group: I M M 2
;
_chemical_formula_sum "Si O2"
_cell_formula_units_Z 52
_cell_length_a 9.120320
_cell_length_b 12.226008
_cell_length_c 25.886256
_cell_angle_alpha 90.000000
_cell_angle_beta 90.000000
_cell_angle_gamma 90.000000
_cell_volume 2886.449701
_symmetry_space_group_name_H-M "I M M 2"
_symmetry_group_IT_number 44
_symmetry_cell_setting 'orthorhombic'
loop_
_space_group_symop_operation_xyz
x,y,z
-x,-y,z
-x,y,z
x,-y,z
1/2+x,1/2+y,1/2+z
1/2-x,1/2-y,1/2+z
1/2-x,1/2+y,1/2+z
1/2+x,1/2-y,1/2+z
loop_
_atom_site_type_symbol
_atom_site_label
_atom_site_fract_x
_atom_site_fract_y
_atom_site_fract_z
Si Si1 0.166652 0.000000 0.225721
Si Si2 0.249725 0.000000 0.108486
Si Si3 0.178444 0.728241 0.731477
Si Si4 0.321988 0.374342 0.328369
Si Si5 0.166820 0.746607 0.616847
Si Si6 0.322459 0.281199 0.438200
Si Si7 0.166547 0.000000 0.992672
Si Si8 0.175732 0.871356 0.516416
O O1 0.165210 0.000000 0.162811
O O2 0.253051 0.109208 0.241590
O O3 0.000000 0.000000 0.244547
O O4 0.333838 0.115509 0.108908
O O5 0.166178 0.000000 0.054287
O O6 0.220739 0.813188 0.775892
O O7 0.229984 0.764697 0.674132
O O8 0.000000 0.718662 0.730176
O O9 0.500000 0.378448 0.328616
O O10 0.270376 0.500000 0.331616
O O11 0.280633 0.305518 0.379110
O O12 0.233561 0.806334 0.567189
O O13 0.000000 0.787278 0.619371
O O14 0.500000 0.272575 0.441384
O O15 0.269426 0.388138 0.470433
O O16 0.251452 0.177886 0.465845
O O17 0.000000 0.000000 0.972580
O O18 0.000000 0.853565 0.512469
O O19 0.201894 0.000000 0.522271
#
# Coordination Sequence:
#
# PCOD9373006 Si02
#       8
#     4   4   8   8   8   8   4   8
#     4  10  20  33  50  75 108 141 173 208 248 305
#     4  10  16  28  49  75 100 134 168 208 250 302
#     4   9  18  33  54  78 103 134 171 214 258 304
#     4   9  17  32  56  82 103 125 165 219 266 303
#     4   9  17  29  48  75 103 132 167 208 254 300
#     4  10  19  34  55  78 103 130 166 212 259 306
#     4  10  17  27  49  78 103 127 156 204 259 301
#     4  10  21  36  51  72 106 142 172 206 250 306
#
# _framework density 18.015211000000001
#
# number of rings (size 3 to 8) (size 9 to 14) (size 15 to 20)
#    0.000    2.462    2.308    0.692    0.000    2.769 
#    1.385    4.231    0.000    1.385    0.000    0.000 
#    0.000    0.000    0.000    0.000    0.000    0.000 
#
# Total GULP energy -144780.678718 kJ/mol
# GULP energy per Si atom -5568.487643 kJ/mol
# Density = 1.797421 g / cm^3
# Si number density = 18.015211 Si / 1000 Ang^3
#
#
#
# Elastic Constant Matrix: (Units=GPa)
#
#
# Indices 1 2 3 4 5 6 
#
# 1 23.1330 22.7731 19.1690 0.0000 0.0000 0.0000
# 2 22.7731 97.7380 75.0946 0.0000 0.0000 0.0000
# 3 19.1690 75.0946 139.4083 0.0000 0.0000 0.0000
# 4 0.0000 0.0000 0.0000 32.3891 0.0000 0.0000
# 5 0.0000 0.0000 0.0000 0.0000 16.8430 0.0000
# 6 0.0000 0.0000 0.0000 0.0000 0.0000 3.6025
#
#
#
# Elastic Compliance Matrix: (Units=1/GPa)
#
#
# Indices 1 2 3 4 5 6 
#
# 1 0.056203 -0.012212 -0.001150 0.000000 0.000000 0.000000
# 2 -0.012212 0.020109 -0.009153 0.000000 0.000000 0.000000
# 3 -0.001150 -0.009153 0.012262 0.000000 0.000000 0.000000
# 4 0.000000 0.000000 0.000000 0.030875 0.000000 0.000000
# 5 0.000000 0.000000 0.000000 0.000000 0.059372 0.000000
# 6 0.000000 0.000000 0.000000 0.000000 0.000000 0.277585
#
#
# Mechanical properties :
#
#
# Convention : Reuss Voigt Hill
#
# Bulk Modulus (GPa) = 22.96502 54.92808 38.94655
# Shear Modulus (GPa) = 9.69084 20.11641 14.90362
#
# Velocity S-wave (km/s) = 2.32184 3.34523 2.87937
# Velocity P-wave (km/s) = 4.46802 6.74365 5.72014
#
# Compressibility (1/GPa) = 0.04354448
#
# Stress axis : x y z
#
# Youngs Moduli (GPa) = 17.79257 49.72794 81.55435
#
# Poissons Ratio (x) = 0.60728 0.09378
# Poissons Ratio (y) = 0.21728 0.74648
# Poissons Ratio (z) = 0.02046 0.45517
#
# Static dielectric constant tensor:
#      x y z
#    x 1.627360 0.000000 0.000000 
#    y 0.000000 1.611050 0.000000 
#    z 0.000000 0.000000 1.634040 
# 
# From -- ./inp_files/26124.got.cif
#   From: 2010.05.17/outbox.cif.g08.bks.cpg/sg44_14_cif.got.tgz:26124.got - 2010.06.03 19:37:08.
