data_PCOD9373689
_publ_section_title
;
Structure prediction by ZEFSAII (Michael W. Deem and Ramdas Pophale) SiO2 
 PCOD9373689
Probable space group: I M M 2
;
_chemical_formula_sum "Si O2"
_cell_formula_units_Z 56
_cell_length_a 8.492931
_cell_length_b 14.335764
_cell_length_c 25.080371
_cell_angle_alpha 90.000000
_cell_angle_beta 90.000000
_cell_angle_gamma 90.000000
_cell_volume 3053.601745
_symmetry_space_group_name_H-M "I M M 2"
_symmetry_group_IT_number 44
_symmetry_cell_setting 'orthorhombic'
loop_
_space_group_symop_operation_xyz
x,y,z
-x,-y,z
-x,y,z
x,-y,z
1/2+x,1/2+y,1/2+z
1/2-x,1/2-y,1/2+z
1/2-x,1/2+y,1/2+z
1/2+x,1/2-y,1/2+z
loop_
_atom_site_type_symbol
_atom_site_label
_atom_site_fract_x
_atom_site_fract_y
_atom_site_fract_z
Si Si1 0.313753 0.294462 0.879060
Si Si2 0.814659 0.899620 0.886165
Si Si3 0.178065 0.388976 0.778715
Si Si4 0.689664 0.391893 0.990121
Si Si5 0.820074 0.249845 0.073089
Si Si6 0.190015 0.891062 0.163351
Si Si7 0.322169 0.105059 0.002293
O O1 0.500000 0.279814 0.883918
O O2 0.233091 0.197846 0.861127
O O3 0.274925 0.363538 0.831134
O O4 0.257482 0.335559 0.936492
O O5 0.000000 0.897011 0.899266
O O6 0.785524 0.000000 0.858627
O O7 0.712046 0.899543 0.939924
O O8 0.167540 0.500000 0.777093
O O9 0.259313 0.363331 0.722912
O O10 0.000000 0.350816 0.781973
O O11 0.500000 0.392827 0.988142
O O12 0.743826 0.500000 0.988615
O O13 0.739976 0.337975 0.044047
O O14 0.751582 0.189981 0.122902
O O15 0.806273 0.170642 0.027860
O O16 0.000000 0.274437 0.085111
O O17 0.000000 0.892597 0.159010
O O18 0.242287 0.000000 0.153185
O O19 0.500000 0.140888 0.011697
O O20 0.311824 0.000000 0.023515
#
# Coordination Sequence:
#
# PCOD9373689 Si02
#       7
#     8   8   8   8   8   8   8
#     4  11  21  35  57  81 109 148 187 223 271 328
#     4  10  20  33  50  75 108 142 177 220 267 316
#     4  10  21  36  56  83 112 143 183 230 277 324
#     4  10  22  38  54  76 108 146 187 226 268 324
#     4  11  21  33  53  79 108 142 179 222 274 324
#     4   9  19  36  56  80 111 144 179 221 273 333
#     4  10  19  30  46  71 104 141 177 211 254 313
#
# _framework density 18.338999000000001
#
# number of rings (size 3 to 8) (size 9 to 14) (size 15 to 20)
#    0.000    1.857    1.429    3.000    0.000    5.714 
#    0.000    1.429    0.000    0.857    0.000    4.000 
#    0.000    0.000    0.000    0.000    0.000    0.000 
#
# Total GULP energy -155935.280648 kJ/mol
# GULP energy per Si atom -5569.117166 kJ/mol
# Density = 1.829726 g / cm^3
# Si number density = 18.338999 Si / 1000 Ang^3
#
#
#
# Elastic Constant Matrix: (Units=GPa)
#
#
# Indices 1 2 3 4 5 6 
#
# 1 34.7762 22.9495 9.3713 0.0000 0.0000 0.0000
# 2 22.9495 90.8043 32.2558 0.0000 0.0000 0.0000
# 3 9.3713 32.2558 79.8404 0.0000 0.0000 0.0000
# 4 0.0000 0.0000 0.0000 25.0574 0.0000 0.0000
# 5 0.0000 0.0000 0.0000 0.0000 22.6623 0.0000
# 6 0.0000 0.0000 0.0000 0.0000 0.0000 17.8386
#
#
#
# Elastic Compliance Matrix: (Units=1/GPa)
#
#
# Indices 1 2 3 4 5 6 
#
# 1 0.034537 -0.008510 -0.000616 0.000000 0.000000 0.000000
# 2 -0.008510 0.014955 -0.005043 0.000000 0.000000 0.000000
# 3 -0.000616 -0.005043 0.014635 0.000000 0.000000 0.000000
# 4 0.000000 0.000000 0.000000 0.039908 0.000000 0.000000
# 5 0.000000 0.000000 0.000000 0.000000 0.044126 0.000000
# 6 0.000000 0.000000 0.000000 0.000000 0.000000 0.056058
#
#
# Mechanical properties :
#
#
# Convention : Reuss Voigt Hill
#
# Bulk Modulus (GPa) = 27.94140 37.17492 32.55816
# Shear Modulus (GPa) = 20.45103 22.50129 21.47616
#
# Velocity S-wave (km/s) = 3.34303 3.50660 3.42580
# Velocity P-wave (km/s) = 5.49275 6.05888 5.78275
#
# Compressibility (1/GPa) = 0.03578919
#
# Stress axis : x y z
#
# Youngs Moduli (GPa) = 28.95432 66.86792 68.33110
#
# Poissons Ratio (x) = 0.56905 0.04207
# Poissons Ratio (y) = 0.24640 0.34459
# Poissons Ratio (z) = 0.01783 0.33721
#
# Static dielectric constant tensor:
#      x y z
#    x 1.645100 0.000000 0.000000 
#    y 0.000000 1.693970 0.000000 
#    z 0.000000 0.000000 1.619330 
# 
# From -- ./inp_files/23047.got.cif
#   From: 2010.05.17/outbox.cif.g08.bks.cpg/sg44_12_cif.got.tgz:23047.got - 2010.06.03 19:37:08.
