data_PCOD9373718
_publ_section_title
;
Structure prediction by ZEFSAII (Michael W. Deem and Ramdas Pophale) SiO2 
 PCOD9373718
Probable space group: I M M 2
;
_chemical_formula_sum "Si O2"
_cell_formula_units_Z 40
_cell_length_a 36.567769
_cell_length_b 12.487103
_cell_length_c 5.291925
_cell_angle_alpha 90.000000
_cell_angle_beta 90.000000
_cell_angle_gamma 90.000000
_cell_volume 2416.427888
_symmetry_space_group_name_H-M "I M M 2"
_symmetry_group_IT_number 44
_symmetry_cell_setting 'orthorhombic'
loop_
_space_group_symop_operation_xyz
x,y,z
-x,-y,z
-x,y,z
x,-y,z
1/2+x,1/2+y,1/2+z
1/2-x,1/2-y,1/2+z
1/2-x,1/2+y,1/2+z
1/2+x,1/2-y,1/2+z
loop_
_atom_site_type_symbol
_atom_site_label
_atom_site_fract_x
_atom_site_fract_y
_atom_site_fract_z
Si Si1 0.788806 0.620899 0.959750
Si Si2 0.914122 0.870325 0.790108
Si Si3 0.211369 0.829004 0.246201
Si Si4 0.042126 0.130327 0.289576
Si Si5 0.830098 0.190397 0.755100
O O1 0.798301 0.500000 0.024771
O O2 0.750784 0.623853 0.806678
O O3 0.819133 0.685091 0.798778
O O4 0.782993 0.700982 0.197474
O O5 0.937039 0.837041 0.543857
O O6 0.872852 0.828867 0.779450
O O7 0.912400 0.000000 0.790560
O O8 0.935302 0.836284 0.042851
O O9 0.185456 0.846250 0.486269
O O10 0.191930 0.864963 0.987201
O O11 0.000000 0.166035 0.283602
O O12 0.041427 0.000000 0.288342
#
# Coordination Sequence:
#
# PCOD9373718 Si02
#       5
#     8   8   8   8   8
#     4  10  21  37  55  70  99 136 171 217 262 295
#     4  10  19  30  48  72 104 137 161 203 251 290
#     4  10  20  37  48  74  96 127 177 214 245 307
#     4   9  17  30  48  71  99 135 170 194 235 302
#     4  10  20  35  48  72 103 127 169 212 247 304
#
# _framework density 16.553359
#
# number of rings (size 3 to 8) (size 9 to 14) (size 15 to 20)
#    1.200    1.000    2.000    1.800    0.000    4.800 
#    0.000    0.000    0.000    0.000    0.000    0.000 
#    0.000    4.800    0.000    0.000    0.000    0.000 
#
# Total GULP energy -111407.157484 kJ/mol
# GULP energy per Si atom -5570.357874 kJ/mol
# Density = 1.651568 g / cm^3
# Si number density = 16.553359 Si / 1000 Ang^3
#
#
#
# Elastic Constant Matrix: (Units=GPa)
#
#
# Indices 1 2 3 4 5 6 
#
# 1 144.5918 11.8461 61.7597 -0.0009 0.0005 0.0008
# 2 11.8461 44.0453 8.8518 0.0030 0.0016 -0.0004
# 3 61.7597 8.8518 132.5492 0.0019 0.0033 0.0048
# 4 -0.0009 0.0030 0.0019 6.0232 0.0020 0.0016
# 5 0.0005 0.0016 0.0033 0.0020 29.4565 0.0054
# 6 0.0008 -0.0004 0.0048 0.0016 0.0054 -18.9657
#
#
#
# Elastic Compliance Matrix: (Units=1/GPa)
#
#
# Indices 1 2 3 4 5 6 
#
# 1 0.008738 -0.001553 -0.003968 0.000003 0.000000 -0.000001
# 2 -0.001553 0.023289 -0.000832 -0.000012 -0.000001 -0.000001
# 3 -0.003968 -0.000832 0.009449 -0.000003 -0.000001 0.000002
# 4 0.000003 -0.000012 -0.000003 0.166026 -0.000011 0.000014
# 5 0.000000 -0.000001 -0.000001 -0.000011 0.033948 0.000010
# 6 -0.000001 -0.000001 0.000002 0.000014 0.000010 -0.052727
#
#
# Mechanical properties :
#
#
# Convention : Reuss Voigt Hill
#
# Bulk Modulus (GPa) = 34.75730 54.01127 44.38428
# Shear Modulus (GPa) = 23.69473 19.21803 21.45638
#
# Velocity S-wave (km/s) = 3.78751 3.41100 3.60418
# Velocity P-wave (km/s) = 6.33796 6.94354 6.64764
#
# Compressibility (1/GPa) = 0.02877094
#
# Stress axis : x y z
#
# Youngs Moduli (GPa) = 114.44355 42.93933 105.83592
#
# Poissons Ratio (x) = 0.06667 0.41992
# Poissons Ratio (y) = 0.17770 0.08803
# Poissons Ratio (z) = 0.45407 0.03572
#
# Static dielectric constant tensor:
#      x y z
#    x 1.531130 0.000000 0.000000 
#    y 0.000000 1.564310 0.000000 
#    z 0.000000 0.000000 1.586260 
# 
# From -- ./inp_files/3243.got.cif
#   From: 2010.05.17/outbox.cif.g08.bks.cpg/sg44_2_cif.got.tgz:3243.got - 2010.06.03 19:37:08.
