data_PCOD9373476
_publ_section_title
;
Structure prediction by ZEFSAII (Michael W. Deem and Ramdas Pophale) SiO2 
 PCOD9373476
Probable space group: I M M 2
;
_chemical_formula_sum "Si O2"
_cell_formula_units_Z 64
_cell_length_a 34.482699
_cell_length_b 8.531063
_cell_length_c 12.021836
_cell_angle_alpha 90.000000
_cell_angle_beta 90.000000
_cell_angle_gamma 90.000000
_cell_volume 3536.512516
_symmetry_space_group_name_H-M "I M M 2"
_symmetry_group_IT_number 44
_symmetry_cell_setting 'orthorhombic'
loop_
_space_group_symop_operation_xyz
x,y,z
-x,-y,z
-x,y,z
x,-y,z
1/2+x,1/2+y,1/2+z
1/2-x,1/2-y,1/2+z
1/2-x,1/2+y,1/2+z
1/2+x,1/2-y,1/2+z
loop_
_atom_site_type_symbol
_atom_site_label
_atom_site_fract_x
_atom_site_fract_y
_atom_site_fract_z
Si Si1 0.315433 0.318652 0.683150
Si Si2 0.124812 0.689785 0.751969
Si Si3 0.455365 0.313482 0.911201
Si Si4 0.381318 0.183750 0.816118
Si Si5 0.956081 0.189245 0.670463
Si Si6 0.183293 0.314365 0.938365
Si Si7 0.737120 0.186317 0.875810
Si Si8 0.330406 0.188818 0.032625
O O1 0.305694 0.500000 0.698079
O O2 0.358958 0.282976 0.724421
O O3 0.312385 0.270413 0.555797
O O4 0.288055 0.219973 0.765839
O O5 0.124508 0.500000 0.747635
O O6 0.080830 0.747142 0.736933
O O7 0.146437 0.737165 0.865116
O O8 0.151612 0.746967 0.648120
O O9 0.500000 0.287496 0.881465
O O10 0.447563 0.500000 0.905989
O O11 0.425856 0.223906 0.832894
O O12 0.450661 0.264797 0.040583
O O13 0.360895 0.222678 0.934189
O O14 0.375124 0.000000 0.794435
O O15 0.000000 0.238985 0.703850
O O16 0.955529 0.000000 0.674372
O O17 0.180266 0.500000 0.957010
O O18 0.222488 0.275771 0.871602
O O19 0.710953 0.241149 0.982090
O O20 0.743540 0.000000 0.886101
O O21 0.327432 0.000000 0.041930
#
# Coordination Sequence:
#
# PCOD9373476 Si02
#       8
#     8   8   8   8   8   8   8   8
#     4  11  23  40  59  78 107 147 190 230 278 332
#     4  10  20  35  55  81 113 147 184 229 278 333
#     4   9  17  29  47  77 115 148 178 217 271 334
#     4  10  18  32  55  79 107 140 181 229 275 327
#     4   9  18  32  51  79 116 150 183 228 276 329
#     4  11  24  39  57  83 113 146 188 235 281 332
#     4  10  21  38  60  84 112 143 183 233 281 334
#     4   8  16  31  51  77 107 139 174 218 270 324
#
# _framework density 18.096924999999999
#
# number of rings (size 3 to 8) (size 9 to 14) (size 15 to 20)
#    0.000    2.250    1.250    3.750    1.750    1.500 
#    0.000    1.875    0.000    0.750    0.000    3.500 
#    0.000    0.000    0.000    0.000    0.000    0.000 
#
# Total GULP energy -178507.730913 kJ/mol
# GULP energy per Si atom -5578.366591 kJ/mol
# Density = 1.805574 g / cm^3
# Si number density = 18.096925 Si / 1000 Ang^3
#
#
#
# Elastic Constant Matrix: (Units=GPa)
#
#
# Indices 1 2 3 4 5 6 
#
# 1 92.1928 2.9111 23.4336 0.0000 0.0000 0.0000
# 2 2.9111 14.8049 0.3576 0.0000 0.0000 0.0000
# 3 23.4336 0.3576 53.1396 0.0000 0.0000 0.0000
# 4 0.0000 0.0000 0.0000 20.2176 0.0000 0.0000
# 5 0.0000 0.0000 0.0000 0.0000 22.1024 0.0000
# 6 0.0000 0.0000 0.0000 0.0000 0.0000 29.9091
#
#
#
# Elastic Compliance Matrix: (Units=1/GPa)
#
#
# Indices 1 2 3 4 5 6 
#
# 1 0.012293 -0.002287 -0.005406 0.000000 0.000000 0.000000
# 2 -0.002287 0.067981 0.000551 0.000000 0.000000 0.000000
# 3 -0.005406 0.000551 0.021198 0.000000 0.000000 0.000000
# 4 0.000000 0.000000 0.000000 0.049462 0.000000 0.000000
# 5 0.000000 0.000000 0.000000 0.000000 0.045244 0.000000
# 6 0.000000 0.000000 0.000000 0.000000 0.000000 0.033435
#
#
# Mechanical properties :
#
#
# Convention : Reuss Voigt Hill
#
# Bulk Modulus (GPa) = 11.46918 23.72685 17.59802
# Shear Modulus (GPa) = 18.31775 23.34148 20.82961
#
# Velocity S-wave (km/s) = 3.18496 3.59528 3.39632
# Velocity P-wave (km/s) = 4.45833 5.51128 5.01253
#
# Compressibility (1/GPa) = 0.08719019
#
# Stress axis : x y z
#
# Youngs Moduli (GPa) = 81.34689 14.70993 47.17328
#
# Poissons Ratio (x) = 0.03364 0.25500
# Poissons Ratio (y) = 0.18601 -0.02599
# Poissons Ratio (z) = 0.43973 -0.00810
#
# Static dielectric constant tensor:
#      x y z
#    x 1.639370 0.000000 0.000000 
#    y 0.000000 1.614530 0.000000 
#    z 0.000000 0.000000 1.613370 
# 
# From -- ./inp_files/15038.got.cif
#   From: 2010.05.17/outbox.cif.g08.bks.cpg/sg44_8_cif.got.tgz:15038.got - 2010.06.03 19:37:08.
