data_PCOD9373244
_publ_section_title
;
Structure prediction by ZEFSAII (Michael W. Deem and Ramdas Pophale) SiO2 
 PCOD9373244
Probable space group: I M M 2
;
_chemical_formula_sum "Si O2"
_cell_formula_units_Z 56
_cell_length_a 19.248833
_cell_length_b 26.989120
_cell_length_c 5.334883
_cell_angle_alpha 90.000000
_cell_angle_beta 90.000000
_cell_angle_gamma 90.000000
_cell_volume 2771.520072
_symmetry_space_group_name_H-M "I M M 2"
_symmetry_group_IT_number 44
_symmetry_cell_setting 'orthorhombic'
loop_
_space_group_symop_operation_xyz
x,y,z
-x,-y,z
-x,y,z
x,-y,z
1/2+x,1/2+y,1/2+z
1/2-x,1/2-y,1/2+z
1/2-x,1/2+y,1/2+z
1/2+x,1/2-y,1/2+z
loop_
_atom_site_type_symbol
_atom_site_label
_atom_site_fract_x
_atom_site_fract_y
_atom_site_fract_z
Si Si1 0.383881 0.088636 0.043250
Si Si2 0.275006 0.558033 0.602348
Si Si3 0.761820 0.892604 0.602469
Si Si4 0.078010 0.308954 0.393531
Si Si5 0.889829 0.557165 0.042612
Si Si6 0.226717 0.220558 0.740237
Si Si7 0.078600 0.244844 0.898230
O O1 0.309400 0.062646 0.086495
O O2 0.420917 0.086443 0.310078
O O3 0.373948 0.145023 0.959595
O O4 0.421955 0.062510 0.815333
O O5 0.292543 0.500000 0.626848
O O6 0.298683 0.582509 0.341895
O O7 0.296621 0.591011 0.840953
O O8 0.686384 0.918924 0.584076
O O9 0.752636 0.834091 0.643380
O O10 0.074786 0.277116 0.645383
O O11 0.000000 0.328858 0.347017
O O12 0.095232 0.277493 0.146055
O O13 0.886164 0.500000 0.975205
O O14 0.235321 0.256154 0.490584
O O15 0.147243 0.213551 0.838080
O O16 0.000000 0.223796 0.936724
#
# Coordination Sequence:
#
# PCOD9373244 Si02
#       7
#     8   8   8   8   8   8   8
#     4  10  18  28  50  71  97 128 178 228 279 323
#     4  10  19  32  53  76 108 147 184 222 290 358
#     4  10  20  33  48  77 110 146 178 227 289 346
#     4  10  21  36  56  77  98 144 201 243 272 331
#     4  10  19  31  50  73 103 139 178 220 288 353
#     4  12  26  37  57  89 125 151 192 248 306 341
#     4  10  23  41  58  77 114 158 200 233 283 354
#
# _framework density 20.205518000000001
#
# number of rings (size 3 to 8) (size 9 to 14) (size 15 to 20)
#    0.000    1.714    0.000    6.857   12.000    0.000 
#    0.000    0.000    0.000    4.714    0.000    0.000 
#    0.000    6.286    0.000    0.000    0.000    0.000 
#
# Total GULP energy -156004.112688 kJ/mol
# GULP energy per Si atom -5571.575453 kJ/mol
# Density = 2.015953 g / cm^3
# Si number density = 20.205518 Si / 1000 Ang^3
#
#
#
# Elastic Constant Matrix: (Units=GPa)
#
#
# Indices 1 2 3 4 5 6 
#
# 1 39.7555 1.4899 3.3652 0.0000 0.0000 0.0000
# 2 1.4899 69.9482 34.4251 0.0000 0.0000 0.0000
# 3 3.3652 34.4251 207.0134 0.0000 0.0000 0.0000
# 4 0.0000 0.0000 0.0000 31.5942 0.0000 0.0000
# 5 0.0000 0.0000 0.0000 0.0000 23.7472 0.0000
# 6 0.0000 0.0000 0.0000 0.0000 0.0000 2.1018
#
#
#
# Elastic Compliance Matrix: (Units=1/GPa)
#
#
# Indices 1 2 3 4 5 6 
#
# 1 0.025197 -0.000365 -0.000349 0.000000 0.000000 0.000000
# 2 -0.000365 0.015576 -0.002584 0.000000 0.000000 0.000000
# 3 -0.000349 -0.002584 0.005266 0.000000 0.000000 0.000000
# 4 0.000000 0.000000 0.000000 0.031651 0.000000 0.000000
# 5 0.000000 0.000000 0.000000 0.000000 0.042110 0.000000
# 6 0.000000 0.000000 0.000000 0.000000 0.000000 0.475786
#
#
# Mechanical properties :
#
#
# Convention : Reuss Voigt Hill
#
# Bulk Modulus (GPa) = 25.35328 43.91973 34.63651
# Shear Modulus (GPa) = 8.12572 29.98443 19.05507
#
# Velocity S-wave (km/s) = 2.00755 3.85642 3.07426
# Velocity P-wave (km/s) = 4.23658 6.45081 5.45718
#
# Compressibility (1/GPa) = 0.03944263
#
# Stress axis : x y z
#
# Youngs Moduli (GPa) = 39.68728 64.20176 189.89672
#
# Poissons Ratio (x) = 0.02343 0.06626
# Poissons Ratio (y) = 0.01449 0.49074
# Poissons Ratio (z) = 0.01385 0.16591
#
# Static dielectric constant tensor:
#      x y z
#    x 1.708470 0.000000 0.000000 
#    y 0.000000 1.710500 0.000000 
#    z 0.000000 0.000000 1.866420 
# 
# From -- ./inp_files/2450.got.cif
#   From: 2010.05.17/outbox.cif.g08.bks.cpg/sg44_2_cif.got.tgz:2450.got - 2010.06.03 19:37:08.
