data_PCOD9373575
_publ_section_title
;
Structure prediction by ZEFSAII (Michael W. Deem and Ramdas Pophale) SiO2 
 PCOD9373575
Probable space group: I M M 2
;
_chemical_formula_sum "Si O2"
_cell_formula_units_Z 30
_cell_length_a 10.939024
_cell_length_b 15.483893
_cell_length_c 8.734512
_cell_angle_alpha 90.000000
_cell_angle_beta 90.000000
_cell_angle_gamma 90.000000
_cell_volume 1479.440088
_symmetry_space_group_name_H-M "I M M 2"
_symmetry_group_IT_number 44
_symmetry_cell_setting 'orthorhombic'
loop_
_space_group_symop_operation_xyz
x,y,z
-x,-y,z
-x,y,z
x,-y,z
1/2+x,1/2+y,1/2+z
1/2-x,1/2-y,1/2+z
1/2-x,1/2+y,1/2+z
1/2+x,1/2-y,1/2+z
loop_
_atom_site_type_symbol
_atom_site_label
_atom_site_fract_x
_atom_site_fract_y
_atom_site_fract_z
Si Si1 0.500000 0.402065 0.546391
Si Si2 0.142630 0.500000 0.849188
Si Si3 0.749070 0.166324 0.180072
Si Si4 0.000000 0.000000 0.746511
Si Si5 0.775348 0.500000 0.193947
Si Si6 0.857564 0.324160 0.356229
O O1 0.500000 0.500000 0.611127
O O2 0.621570 0.356466 0.601553
O O3 0.500000 0.418695 0.364097
O O4 0.204898 0.585362 0.779840
O O5 0.000000 0.500000 0.807885
O O6 0.157594 0.500000 0.031883
O O7 0.773843 0.250193 0.281741
O O8 0.657662 0.179854 0.038940
O O9 0.870792 0.000000 0.662574
O O10 0.812512 0.416284 0.292186
O O11 0.000000 0.312140 0.315024
#
# Coordination Sequence:
#
# PCOD9373575 Si02
#       6
#     4   4   8   2   4   8
#     4  10  18  43  72  94 131 168 214 283 332 384
#     4  12  26  47  68  98 135 177 219 275 330 393
#     4  12  24  45  69  99 134 173 223 272 332 394
#     4  10  20  44  72  96 126 174 220 272 334 392
#     4  12  25  45  68  98 136 177 223 271 330 389
#     4  12  25  44  69 100 134 176 222 274 329 394
#
# _framework density 20.277940999999998
#
# number of rings (size 3 to 8) (size 9 to 14) (size 15 to 20)
#    0.400    0.000    5.333    4.400    0.000    1.067 
#   14.400    0.000    0.000    0.000    0.000    0.000 
#    0.000    0.000    0.000    0.000    0.000    0.000 
#
# Total GULP energy -83885.201443 kJ/mol
# GULP energy per Si atom -5592.346763 kJ/mol
# Density = 2.023179 g / cm^3
# Si number density = 20.277941 Si / 1000 Ang^3
#
#
#
# Elastic Constant Matrix: (Units=GPa)
#
#
# Indices 1 2 3 4 5 6 
#
# 1 109.9583 28.7047 4.5211 0.0000 0.0000 0.0000
# 2 28.7047 166.3549 54.9215 0.0000 0.0000 0.0000
# 3 4.5211 54.9215 84.0859 0.0000 0.0000 0.0000
# 4 0.0000 0.0000 0.0000 20.4547 0.0000 0.0000
# 5 0.0000 0.0000 0.0000 0.0000 25.9313 0.0000
# 6 0.0000 0.0000 0.0000 0.0000 0.0000 10.0939
#
#
#
# Elastic Compliance Matrix: (Units=1/GPa)
#
#
# Indices 1 2 3 4 5 6 
#
# 1 0.009557 -0.001886 0.000718 0.000000 0.000000 0.000000
# 2 -0.001886 0.008036 -0.005147 0.000000 0.000000 0.000000
# 3 0.000718 -0.005147 0.015216 0.000000 0.000000 0.000000
# 4 0.000000 0.000000 0.000000 0.048889 0.000000 0.000000
# 5 0.000000 0.000000 0.000000 0.000000 0.038563 0.000000
# 6 0.000000 0.000000 0.000000 0.000000 0.000000 0.099070
#
#
# Mechanical properties :
#
#
# Convention : Reuss Voigt Hill
#
# Bulk Modulus (GPa) = 49.55801 59.63265 54.59533
# Shear Modulus (GPa) = 20.94781 29.44610 25.19695
#
# Velocity S-wave (km/s) = 3.21757 3.81481 3.52885
# Velocity P-wave (km/s) = 6.18839 6.99108 6.60194
#
# Compressibility (1/GPa) = 0.02017837
#
# Stress axis : x y z
#
# Youngs Moduli (GPa) = 104.63295 124.43810 65.71985
#
# Poissons Ratio (x) = 0.23471 -0.04719
# Poissons Ratio (y) = 0.19736 0.33829
# Poissons Ratio (z) = -0.07514 0.64054
#
# Static dielectric constant tensor:
#      x y z
#    x 1.712790 0.000000 0.000000 
#    y 0.000000 1.705540 0.000000 
#    z 0.000000 0.000000 1.684260 
# 
# From -- ./inp_files/5350.got.cif
#   From: 2010.05.17/outbox.cif.g08.bks.cpg/sg44_3_cif.got.tgz:5350.got - 2010.06.03 19:37:08.
