data_PCOD9373346
_publ_section_title
;
Structure prediction by ZEFSAII (Michael W. Deem and Ramdas Pophale) SiO2 
 PCOD9373346
Probable space group: I M M 2
;
_chemical_formula_sum "Si O2"
_cell_formula_units_Z 40
_cell_length_a 7.391442
_cell_length_b 12.163254
_cell_length_c 20.598716
_cell_angle_alpha 90.000000
_cell_angle_beta 90.000000
_cell_angle_gamma 90.000000
_cell_volume 1851.906685
_symmetry_space_group_name_H-M "I M M 2"
_symmetry_group_IT_number 44
_symmetry_cell_setting 'orthorhombic'
loop_
_space_group_symop_operation_xyz
x,y,z
-x,-y,z
-x,y,z
x,-y,z
1/2+x,1/2+y,1/2+z
1/2-x,1/2-y,1/2+z
1/2-x,1/2+y,1/2+z
1/2+x,1/2-y,1/2+z
loop_
_atom_site_type_symbol
_atom_site_label
_atom_site_fract_x
_atom_site_fract_y
_atom_site_fract_z
Si Si1 0.219904 0.500000 0.244830
Si Si2 0.705786 0.500000 0.094474
Si Si3 0.720619 0.873193 0.960368
Si Si4 0.714120 0.123771 0.212952
Si Si5 0.778211 0.757027 0.588013
Si Si6 0.283002 0.214383 0.824633
O O1 0.294711 0.500000 0.172681
O O2 0.277774 0.391516 0.283326
O O3 0.000000 0.500000 0.241056
O O4 0.500000 0.500000 0.069121
O O5 0.786380 0.618279 0.076890
O O6 0.500000 0.874059 0.960218
O O7 0.780466 0.802066 0.898279
O O8 0.777566 0.000000 0.953463
O O9 0.775066 0.820640 0.028525
O O10 0.500000 0.116174 0.201157
O O11 0.783727 0.204904 0.156360
O O12 0.737023 0.178343 0.283325
O O13 0.787728 0.000000 0.208967
O O14 0.000000 0.761998 0.589894
O O15 0.500000 0.209342 0.826842
#
# Coordination Sequence:
#
# PCOD9373346 Si02
#       6
#     4   4   8   8   8   8
#     4  10  18  30  50  76 102 127 160 202 248 299
#     4  10  18  30  50  76 100 125 164 208 248 291
#     4   9  16  29  49  73 101 129 160 202 249 294
#     4  10  20  34  52  74 100 132 168 204 248 299
#     4   9  17  29  48  74 100 126 161 207 250 288
#     4  10  19  32  52  77 101 128 165 206 248 294
#
# _framework density 21.599360000000001
#
# number of rings (size 3 to 8) (size 9 to 14) (size 15 to 20)
#    0.000    2.400    3.000    0.600    0.000    2.800 
#    1.800    0.000    0.000    2.400    0.000    0.000 
#    0.000    0.000    0.000    0.000    0.000    0.000 
#
# Total GULP energy -111676.661898 kJ/mol
# GULP energy per Si atom -5583.833095 kJ/mol
# Density = 2.155020 g / cm^3
# Si number density = 21.599360 Si / 1000 Ang^3
#
#
#
# Elastic Constant Matrix: (Units=GPa)
#
#
# Indices 1 2 3 4 5 6 
#
# 1 73.4479 3.7024 -4.4749 0.0000 0.0000 0.0000
# 2 3.7024 159.7676 60.2715 0.0000 0.0000 0.0000
# 3 -4.4749 60.2715 123.0544 0.0000 0.0000 0.0000
# 4 0.0000 0.0000 0.0000 38.1845 0.0000 0.0000
# 5 0.0000 0.0000 0.0000 0.0000 14.1813 0.0000
# 6 0.0000 0.0000 0.0000 0.0000 0.0000 -10.5352
#
#
#
# Elastic Compliance Matrix: (Units=1/GPa)
#
#
# Indices 1 2 3 4 5 6 
#
# 1 0.013695 -0.000620 0.000802 0.000000 0.000000 0.000000
# 2 -0.000620 0.007706 -0.003797 0.000000 0.000000 0.000000
# 3 0.000802 -0.003797 0.010015 0.000000 0.000000 0.000000
# 4 0.000000 0.000000 0.000000 0.026189 0.000000 0.000000
# 5 0.000000 0.000000 0.000000 0.000000 0.070516 0.000000
# 6 0.000000 0.000000 0.000000 0.000000 0.000000 -0.094920
#
#
# Mechanical properties :
#
#
# Convention : Reuss Voigt Hill
#
# Bulk Modulus (GPa) = 41.34573 52.80754 47.07664
# Shear Modulus (GPa) = 103.10820 28.15084 65.62952
#
# Velocity S-wave (km/s) = 6.91667 3.61407 5.51823
# Velocity P-wave (km/s) = 9.10883 6.47434 7.90215
#
# Compressibility (1/GPa) = 0.02418629
#
# Stress axis : x y z
#
# Youngs Moduli (GPa) = 73.01845 129.77283 99.84738
#
# Poissons Ratio (x) = 0.08043 -0.08004
# Poissons Ratio (y) = 0.04525 0.37910
# Poissons Ratio (z) = -0.05853 0.49272
#
# Static dielectric constant tensor:
#      x y z
#    x 1.873780 0.000000 0.000000 
#    y 0.000000 1.769400 0.000000 
#    z 0.000000 0.000000 1.736240 
# 
# From -- ./inp_files/22765.got.cif
#   From: 2010.05.17/outbox.cif.g08.bks.cpg/sg44_12_cif.got.tgz:22765.got - 2010.06.03 19:37:08.
