data_PCOD9373904
_publ_section_title
;
Structure prediction by ZEFSAII (Michael W. Deem and Ramdas Pophale) SiO2 
 PCOD9373904
Probable space group: I M M 2
;
_chemical_formula_sum "Si O2"
_cell_formula_units_Z 48
_cell_length_a 7.394052
_cell_length_b 14.438608
_cell_length_c 19.219979
_cell_angle_alpha 90.000000
_cell_angle_beta 90.000000
_cell_angle_gamma 90.000000
_cell_volume 2051.921467
_symmetry_space_group_name_H-M "I M M 2"
_symmetry_group_IT_number 44
_symmetry_cell_setting 'orthorhombic'
loop_
_space_group_symop_operation_xyz
x,y,z
-x,-y,z
-x,y,z
x,-y,z
1/2+x,1/2+y,1/2+z
1/2-x,1/2-y,1/2+z
1/2-x,1/2+y,1/2+z
1/2+x,1/2-y,1/2+z
loop_
_atom_site_type_symbol
_atom_site_label
_atom_site_fract_x
_atom_site_fract_y
_atom_site_fract_z
Si Si1 0.215606 0.895921 0.497670
Si Si2 0.220651 0.602642 0.281940
Si Si3 0.719966 0.751943 0.895038
Si Si4 0.296093 0.398546 0.667378
Si Si5 0.782893 0.697539 0.145827
Si Si6 0.215245 0.399999 0.508727
O O1 0.281897 0.846150 0.426563
O O2 0.240921 0.833734 0.567307
O O3 0.000000 0.902253 0.490115
O O4 0.287238 0.000000 0.507759
O O5 0.280573 0.500000 0.304327
O O6 0.280633 0.691429 0.327255
O O7 0.270727 0.620713 0.201898
O O8 0.000000 0.601965 0.286476
O O9 0.500000 0.747471 0.890047
O O10 0.771116 0.820784 0.957516
O O11 0.500000 0.396771 0.697045
O O12 0.216569 0.500000 0.687175
O O13 0.211273 0.296708 0.674732
O O14 0.305412 0.400089 0.583399
O O15 0.000000 0.706622 0.148017
O O16 0.244453 0.500000 0.475259
O O17 0.000000 0.390300 0.521501
#
# Coordination Sequence:
#
# PCOD9373904 Si02
#       6
#     8   8   8   8   8   8
#     4  10  20  33  50  73 100 129 163 206 252 294
#     4   9  17  29  47  72  99 126 161 206 248 287
#     4   9  16  28  45  68  96 123 155 198 245 287
#     4   9  17  28  42  65  97 126 152 189 239 285
#     4  10  19  32  51  74 100 131 167 203 241 292
#     4   9  15  24  43  68  89 114 152 194 233 277
#
# _framework density 23.392707999999999
#
# number of rings (size 3 to 8) (size 9 to 14) (size 15 to 20)
#    0.000    2.667    1.667    1.000    0.000    3.000 
#    0.000    0.833    0.000    7.000    0.000    2.333 
#    0.000    2.667    0.000    0.000    0.000    0.000 
#
# Total GULP energy -133696.772382 kJ/mol
# GULP energy per Si atom -5570.698849 kJ/mol
# Density = 2.333946 g / cm^3
# Si number density = 23.392708 Si / 1000 Ang^3
#
#
#
# Elastic Constant Matrix: (Units=GPa)
#
#
# Indices 1 2 3 4 5 6 
#
# 1 73.5550 9.5824 -3.9556 0.0000 0.0000 0.0000
# 2 9.5824 161.0002 41.8189 0.0000 0.0000 0.0000
# 3 -3.9556 41.8189 87.1425 0.0000 0.0000 0.0000
# 4 0.0000 0.0000 0.0000 28.1842 0.0000 0.0000
# 5 0.0000 0.0000 0.0000 0.0000 4.7731 0.0000
# 6 0.0000 0.0000 0.0000 0.0000 0.0000 1.4302
#
#
#
# Elastic Compliance Matrix: (Units=1/GPa)
#
#
# Indices 1 2 3 4 5 6 
#
# 1 0.013804 -0.001125 0.001166 0.000000 0.000000 0.000000
# 2 -0.001125 0.007187 -0.003500 0.000000 0.000000 0.000000
# 3 0.001166 -0.003500 0.013208 0.000000 0.000000 0.000000
# 4 0.000000 0.000000 0.000000 0.035481 0.000000 0.000000
# 5 0.000000 0.000000 0.000000 0.000000 0.209508 0.000000
# 6 0.000000 0.000000 0.000000 0.000000 0.000000 0.699204
#
#
# Mechanical properties :
#
#
# Convention : Reuss Voigt Hill
#
# Bulk Modulus (GPa) = 36.65285 46.28766 41.47026
# Shear Modulus (GPa) = 5.02814 25.16095 15.09454
#
# Velocity S-wave (km/s) = 1.46769 3.28318 2.54297
# Velocity P-wave (km/s) = 4.30983 5.84829 5.13698
#
# Compressibility (1/GPa) = 0.02728301
#
# Stress axis : x y z
#
# Youngs Moduli (GPa) = 72.44018 139.13537 75.71118
#
# Poissons Ratio (x) = 0.15646 -0.08830
# Poissons Ratio (y) = 0.08146 0.26500
# Poissons Ratio (z) = -0.08449 0.48699
#
# Static dielectric constant tensor:
#      x y z
#    x 1.958720 0.000000 0.000000 
#    y 0.000000 1.969960 0.000000 
#    z 0.000000 0.000000 1.826790 
# 
# From -- ./inp_files/17709.got.cif
#   From: 2010.05.17/outbox.cif.g08.bks.cpg/sg44_9_cif.got.tgz:17709.got - 2010.06.03 19:37:08.
