data_PCOD9373379
_publ_section_title
;
Structure prediction by ZEFSAII (Michael W. Deem and Ramdas Pophale) SiO2 
 PCOD9373379
Probable space group: I M M 2
;
_chemical_formula_sum "Si O2"
_cell_formula_units_Z 58
_cell_length_a 7.759929
_cell_length_b 26.509900
_cell_length_c 14.034517
_cell_angle_alpha 90.000000
_cell_angle_beta 90.000000
_cell_angle_gamma 90.000000
_cell_volume 2887.109848
_symmetry_space_group_name_H-M "I M M 2"
_symmetry_group_IT_number 44
_symmetry_cell_setting 'orthorhombic'
loop_
_space_group_symop_operation_xyz
x,y,z
-x,-y,z
-x,y,z
x,-y,z
1/2+x,1/2+y,1/2+z
1/2-x,1/2-y,1/2+z
1/2-x,1/2+y,1/2+z
1/2+x,1/2-y,1/2+z
loop_
_atom_site_type_symbol
_atom_site_label
_atom_site_fract_x
_atom_site_fract_y
_atom_site_fract_z
Si Si1 0.710324 0.728992 0.423270
Si Si2 0.304089 0.822975 0.312636
Si Si3 0.794205 0.440375 0.521247
Si Si4 0.000000 0.500000 0.750585
Si Si5 0.688739 0.578456 0.720914
Si Si6 0.296331 0.740103 0.635316
Si Si7 0.709281 0.663309 0.241767
Si Si8 0.704958 0.556880 0.302541
O O1 0.500000 0.729053 0.421574
O O2 0.767338 0.784786 0.391154
O O3 0.763473 0.722055 0.531769
O O4 0.764878 0.689381 0.342271
O O5 0.500000 0.836743 0.337466
O O6 0.201548 0.872251 0.285460
O O7 0.303433 0.788791 0.217740
O O8 0.756989 0.500000 0.540517
O O9 0.711554 0.409751 0.607647
O O10 0.731988 0.430532 0.414494
O O11 0.000000 0.434627 0.524653
O O12 0.151688 0.456734 0.745823
O O13 0.500000 0.555975 0.732850
O O14 0.500000 0.729114 0.644626
O O15 0.271307 0.799592 0.658163
O O16 0.500000 0.663278 0.240268
O O17 0.769746 0.605144 0.243399
O O18 0.500000 0.553995 0.286680
O O19 0.776232 0.500000 0.286187
#
# Coordination Sequence:
#
# PCOD9373379 Si02
#       8
#     8   8   8   2   8   8   8   8
#     4   8  17  33  53  74 106 143 177 227 289 344
#     4  10  20  37  54  79 112 145 185 231 285 343
#     4  10  18  31  45  69 106 141 180 222 270 326
#     4  12  22  40  52  82 112 152 196 232 282 338
#     4  12  22  35  55  79 111 152 190 234 280 334
#     4  10  19  33  54  81 106 140 188 231 282 345
#     4   9  18  34  51  73 107 143 175 224 286 341
#     4   9  18  30  48  74 101 139 186 224 273 341
#
# _framework density 20.089293000000001
#
# number of rings (size 3 to 8) (size 9 to 14) (size 15 to 20)
#    0.000    2.207    2.069    2.276    1.931    1.103 
#    0.000    6.897    0.000    0.000    1.793    0.000 
#    0.000    0.000    0.000    0.000    0.000    0.000 
#
# Total GULP energy -161509.318048 kJ/mol
# GULP energy per Si atom -5569.286829 kJ/mol
# Density = 2.004357 g / cm^3
# Si number density = 20.089293 Si / 1000 Ang^3
#
#
#
# Elastic Constant Matrix: (Units=GPa)
#
#
# Indices 1 2 3 4 5 6 
#
# 1 80.1353 19.3624 -4.9213 0.0000 0.0000 0.0000
# 2 19.3624 77.4519 -10.3380 0.0000 0.0000 0.0000
# 3 -4.9213 -10.3380 25.0529 0.0001 0.0000 0.0001
# 4 0.0000 0.0000 0.0001 9.5886 0.0000 0.0000
# 5 0.0000 0.0000 0.0000 0.0000 11.0539 0.0000
# 6 0.0000 0.0000 0.0001 0.0000 0.0000 -14.3238
#
#
#
# Elastic Compliance Matrix: (Units=1/GPa)
#
#
# Indices 1 2 3 4 5 6 
#
# 1 0.013322 -0.003155 0.001315 0.000000 0.000000 0.000000
# 2 -0.003155 0.014411 0.005327 0.000000 0.000000 0.000000
# 3 0.001315 0.005327 0.042372 -0.000001 0.000000 0.000000
# 4 0.000000 0.000000 -0.000001 0.104291 0.000000 0.000000
# 5 0.000000 0.000000 0.000000 0.000000 0.090466 0.000000
# 6 0.000000 0.000000 0.000000 0.000000 0.000000 -0.069814
#
#
# Mechanical properties :
#
#
# Convention : Reuss Voigt Hill
#
# Bulk Modulus (GPa) = 12.97371 21.20516 17.08943
# Shear Modulus (GPa) = 23.39008 13.16622 18.27815
#
# Velocity S-wave (km/s) = 3.41589 2.56283 3.01964
# Velocity P-wave (km/s) = 4.69359 4.39725 4.54784
#
# Compressibility (1/GPa) = 0.07707896
#
# Stress axis : x y z
#
# Youngs Moduli (GPa) = 75.06420 69.39175 23.60055
#
# Poissons Ratio (x) = 0.21892 -0.03104
# Poissons Ratio (y) = 0.23682 -0.12572
# Poissons Ratio (z) = -0.09872 -0.36964
#
# Static dielectric constant tensor:
#      x y z
#    x 1.715780 0.000000 0.000000 
#    y 0.000000 1.874780 0.000000 
#    z 0.000000 0.000000 1.696030 
# 
# From -- ./inp_files/16984.got.cif
#   From: 2010.05.17/outbox.cif.g08.bks.cpg/sg44_9_cif.got.tgz:16984.got - 2010.06.03 19:37:08.
