data_PCOD9373869
_publ_section_title
;
Structure prediction by ZEFSAII (Michael W. Deem and Ramdas Pophale) SiO2 
 PCOD9373869
Probable space group: I M M 2
;
_chemical_formula_sum "Si O2"
_cell_formula_units_Z 64
_cell_length_a 19.342518
_cell_length_b 7.766337
_cell_length_c 22.231753
_cell_angle_alpha 90.000000
_cell_angle_beta 90.000000
_cell_angle_gamma 90.000000
_cell_volume 3339.665345
_symmetry_space_group_name_H-M "I M M 2"
_symmetry_group_IT_number 44
_symmetry_cell_setting 'orthorhombic'
loop_
_space_group_symop_operation_xyz
x,y,z
-x,-y,z
-x,y,z
x,-y,z
1/2+x,1/2+y,1/2+z
1/2-x,1/2-y,1/2+z
1/2-x,1/2+y,1/2+z
1/2+x,1/2-y,1/2+z
loop_
_atom_site_type_symbol
_atom_site_label
_atom_site_fract_x
_atom_site_fract_y
_atom_site_fract_z
Si Si1 0.923192 0.701862 0.648280
Si Si2 0.075216 0.793207 0.971386
Si Si3 0.273027 0.205672 0.468117
Si Si4 0.577240 0.294204 0.331018
Si Si5 0.130843 0.796627 0.521371
Si Si6 0.076176 0.706457 0.391001
Si Si7 0.778996 0.205587 0.338805
Si Si8 0.187215 0.693977 0.738444
O O1 0.925798 0.500000 0.665549
O O2 0.906116 0.712787 0.577924
O O3 0.857918 0.777806 0.685141
O O4 0.000000 0.775876 0.659622
O O5 0.150853 0.740225 0.993921
O O6 0.077678 0.743965 0.900857
O O7 0.000000 0.731010 0.995267
O O8 0.073293 0.000000 0.974163
O O9 0.208946 0.268866 0.508446
O O10 0.260240 0.272835 0.399416
O O11 0.264831 0.000000 0.463906
O O12 0.500000 0.264581 0.307740
O O13 0.591080 0.500000 0.327504
O O14 0.631396 0.191979 0.292298
O O15 0.091012 0.768475 0.458863
O O16 0.133539 0.000000 0.533775
O O17 0.077126 0.500000 0.391848
O O18 0.140362 0.765914 0.350873
O O19 0.000000 0.765242 0.371726
O O20 0.751046 0.276209 0.275134
O O21 0.766891 0.000000 0.336487
O O22 0.206990 0.500000 0.719010
#
# Coordination Sequence:
#
# PCOD9373869 Si02
#       8
#     8   8   8   8   8   8   8   8
#     4  10  21  35  50  71  99 132 171 208 241 282
#     4   9  17  27  40  63  94 124 154 189 231 280
#     4   9  17  30  46  67  92 121 160 200 240 289
#     4   9  17  27  39  60  91 125 160 194 227 270
#     4  10  21  35  51  71  97 128 166 209 249 291
#     4  10  20  33  51  75 100 126 158 199 248 299
#     4   9  18  31  47  70  98 127 160 197 241 294
#     4  10  19  32  48  67  95 129 165 202 237 279
#
# _framework density 19.163596999999999
#
# number of rings (size 3 to 8) (size 9 to 14) (size 15 to 20)
#    0.000    2.500    1.250    3.000    0.000    7.250 
#    0.000    1.250    0.000    0.000    0.000    0.875 
#    0.000    1.000    0.000    0.000    0.000    0.125 
#
# Total GULP energy -178272.693870 kJ/mol
# GULP energy per Si atom -5571.021683 kJ/mol
# Density = 1.911998 g / cm^3
# Si number density = 19.163597 Si / 1000 Ang^3
#
#
#
# Elastic Constant Matrix: (Units=GPa)
#
#
# Indices 1 2 3 4 5 6 
#
# 1 143.3611 -0.2480 35.8151 0.0000 0.0000 0.0000
# 2 -0.2480 26.4937 -1.3403 0.0000 0.0000 0.0000
# 3 35.8151 -1.3403 59.8350 0.0000 0.0000 0.0000
# 4 0.0000 0.0000 0.0000 12.3115 0.0000 0.0000
# 5 0.0000 0.0000 0.0000 0.0000 20.7449 0.0000
# 6 0.0000 0.0000 0.0000 0.0000 0.0000 22.5981
#
#
#
# Elastic Compliance Matrix: (Units=1/GPa)
#
#
# Indices 1 2 3 4 5 6 
#
# 1 0.008203 -0.000172 -0.004914 0.000000 0.000000 0.000000
# 2 -0.000172 0.037791 0.000949 0.000000 0.000000 0.000000
# 3 -0.004914 0.000949 0.019675 0.000000 0.000000 0.000000
# 4 0.000000 0.000000 0.000000 0.081225 0.000000 0.000000
# 5 0.000000 0.000000 0.000000 0.000000 0.048205 0.000000
# 6 0.000000 0.000000 0.000000 0.000000 0.000000 0.044252
#
#
# Mechanical properties :
#
#
# Convention : Reuss Voigt Hill
#
# Bulk Modulus (GPa) = 17.42261 33.12704 25.27483
# Shear Modulus (GPa) = 18.74383 24.16177 21.45280
#
# Velocity S-wave (km/s) = 3.13084 3.55465 3.34946
# Velocity P-wave (km/s) = 4.70965 5.84563 5.30812
#
# Compressibility (1/GPa) = 0.05739668
#
# Stress axis : x y z
#
# Youngs Moduli (GPa) = 121.91189 26.46119 50.82580
#
# Poissons Ratio (x) = 0.00455 0.24974
# Poissons Ratio (y) = 0.02094 -0.04825
# Poissons Ratio (z) = 0.59903 -0.02512
#
# Static dielectric constant tensor:
#      x y z
#    x 1.771130 0.000000 0.000000 
#    y 0.000000 1.735270 0.000000 
#    z 0.000000 0.000000 1.668460 
# 
# From -- ./inp_files/24370.got.cif
#   From: 2010.05.17/outbox.cif.g08.bks.cpg/sg44_13_cif.got.tgz:24370.got - 2010.06.03 19:37:08.
