data_PCOD9373465
_publ_section_title
;
Structure prediction by ZEFSAII (Michael W. Deem and Ramdas Pophale) SiO2 
 PCOD9373465
Probable space group: I M M 2
;
_chemical_formula_sum "Si O2"
_cell_formula_units_Z 56
_cell_length_a 20.185459
_cell_length_b 7.523120
_cell_length_c 15.941594
_cell_angle_alpha 90.000000
_cell_angle_beta 90.000000
_cell_angle_gamma 90.000000
_cell_volume 2420.852688
_symmetry_space_group_name_H-M "I M M 2"
_symmetry_group_IT_number 44
_symmetry_cell_setting 'orthorhombic'
loop_
_space_group_symop_operation_xyz
x,y,z
-x,-y,z
-x,y,z
x,-y,z
1/2+x,1/2+y,1/2+z
1/2-x,1/2-y,1/2+z
1/2-x,1/2+y,1/2+z
1/2+x,1/2-y,1/2+z
loop_
_atom_site_type_symbol
_atom_site_label
_atom_site_fract_x
_atom_site_fract_y
_atom_site_fract_z
Si Si1 0.425371 0.288038 0.815910
Si Si2 0.426489 0.212895 0.177615
Si Si3 0.360795 0.287633 0.339235
Si Si4 0.143933 0.201333 0.161027
Si Si5 0.500000 0.716157 0.409975
Si Si6 0.723170 0.281829 0.497882
Si Si7 0.500000 0.793936 0.603293
Si Si8 0.124776 0.713921 0.500348
O O1 0.500000 0.219263 0.798392
O O2 0.426846 0.500000 0.801596
O O3 0.367382 0.216627 0.753832
O O4 0.409078 0.260210 0.912819
O O5 0.500000 0.281349 0.203840
O O6 0.365075 0.251057 0.240138
O O7 0.430908 0.000000 0.174914
O O8 0.411424 0.278782 0.084016
O O9 0.359061 0.500000 0.346371
O O10 0.432851 0.221118 0.367831
O O11 0.309539 0.222143 0.409589
O O12 0.067378 0.201756 0.131865
O O13 0.169608 0.000000 0.171669
O O14 0.184587 0.278936 0.082340
O O15 0.500000 0.500000 0.410265
O O16 0.500000 0.781990 0.503884
O O17 0.719692 0.500000 0.498654
O O18 0.799144 0.226556 0.500639
O O19 0.500000 0.000000 0.628740
O O20 0.125324 0.500000 0.504909
#
# Coordination Sequence:
#
# PCOD9373465 Si02
#       8
#     8   8   8   8   4   8   4   8
#     4  10  21  37  61  89 110 139 190 243 284 324
#     4  10  21  36  55  81 112 145 181 227 282 331
#     4  10  19  33  57  84 107 141 186 229 273 322
#     4  10  19  37  60  81 112 151 190 230 276 341
#     4  10  18  32  54  79 110 149 184 221 278 340
#     4   9  19  36  59  83 110 150 192 221 267 344
#     4  12  22  30  50  87 120 145 180 233 292 334
#     4  10  22  40  58  79 112 153 190 227 279 339
#
# _framework density 23.132344
#
# number of rings (size 3 to 8) (size 9 to 14) (size 15 to 20)
#    0.000    2.000    2.857    1.071    0.000    3.714 
#    0.000    2.857    0.000    0.000    0.000    0.000 
#    0.000    0.000    0.000    0.000    0.000    0.000 
#
# Total GULP energy -156243.784096 kJ/mol
# GULP energy per Si atom -5580.135146 kJ/mol
# Density = 2.307969 g / cm^3
# Si number density = 23.132344 Si / 1000 Ang^3
#
#
#
# Elastic Constant Matrix: (Units=GPa)
#
#
# Indices 1 2 3 4 5 6 
#
# 1 75.4008 2.0504 33.9578 0.0000 0.0000 0.0000
# 2 2.0504 65.0346 -1.8784 0.0000 0.0000 0.0000
# 3 33.9578 -1.8784 172.4562 0.0000 0.0000 0.0000
# 4 0.0000 0.0000 0.0000 85.4743 0.0000 0.0000
# 5 0.0000 0.0000 0.0000 0.0000 31.6788 0.0000
# 6 0.0000 0.0000 0.0000 0.0000 0.0000 5.9307
#
#
#
# Elastic Compliance Matrix: (Units=1/GPa)
#
#
# Indices 1 2 3 4 5 6 
#
# 1 0.014572 -0.000542 -0.002875 0.000000 0.000000 0.000000
# 2 -0.000542 0.015401 0.000275 0.000000 0.000000 0.000000
# 3 -0.002875 0.000275 0.006368 0.000000 0.000000 0.000000
# 4 0.000000 0.000000 0.000000 0.011699 0.000000 0.000000
# 5 0.000000 0.000000 0.000000 0.000000 0.031567 0.000000
# 6 0.000000 0.000000 0.000000 0.000000 0.000000 0.168615
#
#
# Mechanical properties :
#
#
# Convention : Reuss Voigt Hill
#
# Bulk Modulus (GPa) = 33.27235 42.35012 37.81123
# Shear Modulus (GPa) = 18.90163 43.20088 31.05126
#
# Velocity S-wave (km/s) = 2.86161 4.32621 3.66776
# Velocity P-wave (km/s) = 5.03320 6.58045 5.85813
#
# Compressibility (1/GPa) = 0.03005499
#
# Stress axis : x y z
#
# Youngs Moduli (GPa) = 68.62422 64.92894 157.04202
#
# Poissons Ratio (x) = 0.03522 0.45154
# Poissons Ratio (y) = 0.03723 -0.04312
# Poissons Ratio (z) = 0.19731 -0.01783
#
# Static dielectric constant tensor:
#      x y z
#    x 1.827870 0.000000 0.000000 
#    y 0.000000 1.886980 0.000000 
#    z 0.000000 0.000000 1.945900 
# 
# From -- ./inp_files/19268.got.cif
#   From: 2010.05.17/outbox.cif.g08.bks.cpg/sg44_10_cif.got.tgz:19268.got - 2010.06.03 19:37:08.
