data_PCOD9373797
_publ_section_title
;
Structure prediction by ZEFSAII (Michael W. Deem and Ramdas Pophale) SiO2 
 PCOD9373797
Probable space group: I M M 2
;
_chemical_formula_sum "Si O2"
_cell_formula_units_Z 48
_cell_length_a 18.002057
_cell_length_b 29.299202
_cell_length_c 5.250745
_cell_angle_alpha 90.000000
_cell_angle_beta 90.000000
_cell_angle_gamma 90.000000
_cell_volume 2769.483946
_symmetry_space_group_name_H-M "I M M 2"
_symmetry_group_IT_number 44
_symmetry_cell_setting 'orthorhombic'
loop_
_space_group_symop_operation_xyz
x,y,z
-x,-y,z
-x,y,z
x,-y,z
1/2+x,1/2+y,1/2+z
1/2-x,1/2-y,1/2+z
1/2-x,1/2+y,1/2+z
1/2+x,1/2-y,1/2+z
loop_
_atom_site_type_symbol
_atom_site_label
_atom_site_fract_x
_atom_site_fract_y
_atom_site_fract_z
Si Si1 0.584493 0.386356 0.452060
Si Si2 0.911248 0.266309 0.482165
Si Si3 0.216017 0.395037 0.951360
Si Si4 0.638500 0.664676 0.950527
Si Si5 0.270041 0.445652 0.452886
Si Si6 0.411973 0.825702 0.483162
O O1 0.500000 0.402866 0.457359
O O2 0.599918 0.354198 0.695137
O O3 0.645619 0.426327 0.459619
O O4 0.599086 0.357425 0.196482
O O5 0.868047 0.218875 0.464696
O O6 0.895642 0.293213 0.742274
O O7 0.000000 0.255995 0.475292
O O8 0.894321 0.298614 0.242480
O O9 0.277838 0.354681 0.949116
O O10 0.229263 0.424411 0.698023
O O11 0.136744 0.370979 0.963666
O O12 0.233133 0.425623 0.197737
O O13 0.268854 0.500000 0.456528
O O14 0.500000 0.835402 0.481204
#
# Coordination Sequence:
#
# PCOD9373797 Si02
#       6
#     8   8   8   8   8   8
#     4  10  19  32  51  76 107 140 172 206 245 290
#     4  10  19  31  49  75 106 139 175 208 241 288
#     4  10  21  37  55  76 103 134 168 211 261 306
#     4  10  20  32  50  76 107 143 176 206 242 287
#     4  10  21  37  57  78 100 131 168 209 261 313
#     4  10  21  35  53  76 102 136 172 210 257 302
#
# _framework density 17.331748000000001
#
# number of rings (size 3 to 8) (size 9 to 14) (size 15 to 20)
#    0.000    2.000    0.000    4.000    0.000    3.000 
#    0.000    0.000    0.000    9.000    0.000    0.000 
#    0.000    0.000    0.000    0.000    0.000    0.000 
#
# Total GULP energy -134050.093498 kJ/mol
# GULP energy per Si atom -5585.420562 kJ/mol
# Density = 1.729230 g / cm^3
# Si number density = 17.331748 Si / 1000 Ang^3
#
#
#
# Elastic Constant Matrix: (Units=GPa)
#
#
# Indices 1 2 3 4 5 6 
#
# 1 38.3792 30.4850 -7.9366 -0.0095 0.0080 0.0003
# 2 30.4850 61.9574 -27.1600 -0.0159 0.0127 0.0008
# 3 -7.9366 -27.1600 50.1629 -0.0129 0.0150 0.0002
# 4 -0.0095 -0.0159 -0.0129 0.7777 0.0081 0.0004
# 5 0.0080 0.0127 0.0150 0.0081 21.0716 0.0004
# 6 0.0003 0.0008 0.0002 0.0004 0.0004 5.5428
#
#
#
# Elastic Compliance Matrix: (Units=1/GPa)
#
#
# Indices 1 2 3 4 5 6 
#
# 1 0.044229 -0.024512 -0.006274 -0.000067 0.000002 0.000001
# 2 -0.024512 0.034749 0.014936 0.000660 -0.000023 -0.000004
# 3 -0.006274 0.014936 0.027029 0.000678 -0.000026 -0.000003
# 4 -0.000067 0.000660 0.000678 1.285798 -0.000494 -0.000097
# 5 0.000002 -0.000023 -0.000026 -0.000494 0.047457 -0.000004
# 6 0.000001 -0.000004 -0.000003 -0.000097 -0.000004 0.180415
#
#
# Mechanical properties :
#
#
# Convention : Reuss Voigt Hill
#
# Bulk Modulus (GPa) = 13.45788 15.69737 14.57762
# Shear Modulus (GPa) = 2.98303 15.81918 9.40111
#
# Velocity S-wave (km/s) = 1.31334 3.02442 2.33152
# Velocity P-wave (km/s) = 3.17515 4.61224 3.95944
#
# Compressibility (1/GPa) = 0.07430593
#
# Stress axis : x y z
#
# Youngs Moduli (GPa) = 22.60977 28.77818 36.99669
#
# Poissons Ratio (x) = 0.70542 0.23212
# Poissons Ratio (y) = 0.55422 -0.55258
# Poissons Ratio (z) = 0.14186 -0.42983
#
# Static dielectric constant tensor:
#      x y z
#    x 1.584650 0.000000 0.000000 
#    y 0.000000 1.546000 0.000000 
#    z 0.000000 0.000000 1.582770 
# 
# From -- ./inp_files/1593.got.cif
#   From: 2010.05.17/outbox.cif.g08.bks.cpg/sg44_1_cif.got.tgz:1593.got - 2010.06.03 19:37:08.
