data_PCOD9373278
_publ_section_title
;
Structure prediction by ZEFSAII (Michael W. Deem and Ramdas Pophale) SiO2 
 PCOD9373278
Probable space group: I M M 2
;
_chemical_formula_sum "Si O2"
_cell_formula_units_Z 64
_cell_length_a 15.287431
_cell_length_b 7.451134
_cell_length_c 28.687544
_cell_angle_alpha 90.000000
_cell_angle_beta 90.000000
_cell_angle_gamma 90.000000
_cell_volume 3267.760754
_symmetry_space_group_name_H-M "I M M 2"
_symmetry_group_IT_number 44
_symmetry_cell_setting 'orthorhombic'
loop_
_space_group_symop_operation_xyz
x,y,z
-x,-y,z
-x,y,z
x,-y,z
1/2+x,1/2+y,1/2+z
1/2-x,1/2-y,1/2+z
1/2-x,1/2+y,1/2+z
1/2+x,1/2-y,1/2+z
loop_
_atom_site_type_symbol
_atom_site_label
_atom_site_fract_x
_atom_site_fract_y
_atom_site_fract_z
Si Si1 0.598143 0.285348 0.523870
Si Si2 0.901917 0.785565 0.292558
Si Si3 0.725528 0.780060 0.334568
Si Si4 0.099804 0.713661 0.184425
Si Si5 0.272305 0.292396 0.601020
Si Si6 0.901157 0.281829 0.752067
Si Si7 0.598791 0.780482 0.145445
Si Si8 0.401084 0.215173 0.415735
O O1 0.500000 0.214818 0.533082
O O2 0.594196 0.500000 0.530938
O O3 0.669929 0.212101 0.559474
O O4 0.618396 0.253889 0.469693
O O5 0.824679 0.719128 0.325873
O O6 0.878399 0.754028 0.238243
O O7 0.000000 0.713234 0.300067
O O8 0.906203 0.000000 0.298447
O O9 0.668809 0.723439 0.289771
O O10 0.672965 0.719849 0.380256
O O11 0.726865 0.000000 0.335192
O O12 0.099719 0.500000 0.178686
O O13 0.168466 0.788546 0.147603
O O14 0.000000 0.779082 0.175992
O O15 0.256441 0.500000 0.588503
O O16 0.177585 0.214836 0.613334
O O17 0.900002 0.500000 0.752094
O O18 0.884089 0.225230 0.699016
O O19 0.000000 0.227756 0.764842
O O20 0.500000 0.726476 0.132839
O O21 0.600100 0.000000 0.145416
O O22 0.500000 0.282364 0.405624
O O23 0.404537 0.000000 0.410442
#
# Coordination Sequence:
#
# PCOD9373278 Si02
#       8
#     8   8   8   8   8   8   8   8
#     4   9  18  31  45  63  88 115 143 179 224 271
#     4   9  17  29  45  64  87 117 151 183 214 253
#     4   9  15  24  41  64  86 108 139 178 213 247
#     4  10  20  31  43  64  95 125 151 183 224 268
#     4  10  18  29  48  69  88 116 154 190 224 266
#     4   8  12  18  31  55  86 111 129 158 204 250
#     4   8  14  24  40  65  92 114 140 178 219 254
#     4   9  17  29  46  67  88 110 139 178 224 270
#
# _framework density 19.585277999999999
#
# number of rings (size 3 to 8) (size 9 to 14) (size 15 to 20)
#    0.000    3.000    0.000    2.625    0.000    5.250 
#    0.000    1.875    0.000    1.125    0.000    0.000 
#    0.000    0.000    0.000    0.000    0.000    0.000 
#
# Total GULP energy -178534.922834 kJ/mol
# GULP energy per Si atom -5579.216339 kJ/mol
# Density = 1.954070 g / cm^3
# Si number density = 19.585278 Si / 1000 Ang^3
#
#
#
# Elastic Constant Matrix: (Units=GPa)
#
#
# Indices 1 2 3 4 5 6 
#
# 1 167.3210 2.5609 115.4446 0.0000 0.0000 0.0000
# 2 2.5609 60.4931 -1.5596 0.0000 0.0000 0.0000
# 3 115.4446 -1.5596 108.1720 0.0000 0.0000 0.0000
# 4 0.0000 0.0000 0.0000 11.2749 0.0000 0.0000
# 5 0.0000 0.0000 0.0000 0.0000 26.0060 0.0000
# 6 0.0000 0.0000 0.0000 0.0000 0.0000 -7.6408
#
#
#
# Elastic Compliance Matrix: (Units=1/GPa)
#
#
# Indices 1 2 3 4 5 6 
#
# 1 0.022821 -0.001595 -0.024378 0.000000 0.000000 0.000000
# 2 -0.001595 0.016648 0.001942 0.000000 0.000000 0.000000
# 3 -0.024378 0.001942 0.035290 0.000000 0.000000 0.000000
# 4 0.000000 0.000000 0.000000 0.088692 0.000000 0.000000
# 5 0.000000 0.000000 0.000000 0.000000 0.038453 0.000000
# 6 0.000000 0.000000 0.000000 0.000000 0.000000 -0.130877
#
#
# Mechanical properties :
#
#
# Convention : Reuss Voigt Hill
#
# Bulk Modulus (GPa) = 37.45726 63.20866 50.33296
# Shear Modulus (GPa) = 39.06623 20.56405 29.81514
#
# Velocity S-wave (km/s) = 4.47102 3.24385 3.90593
# Velocity P-wave (km/s) = 6.76906 6.80982 6.78947
#
# Compressibility (1/GPa) = 0.02669710
#
# Stress axis : x y z
#
# Youngs Moduli (GPa) = 43.81961 60.06588 28.33695
#
# Poissons Ratio (x) = 0.09578 0.69080
# Poissons Ratio (y) = 0.06987 -0.05503
# Poissons Ratio (z) = 1.06824 -0.11664
#
# Static dielectric constant tensor:
#      x y z
#    x 1.723140 0.000000 0.000000 
#    y 0.000000 1.789850 0.000000 
#    z 0.000000 0.000000 1.650620 
# 
# From -- ./inp_files/27506.got.cif
#   From: 2010.05.17/outbox.cif.g08.bks.cpg/sg44_14_cif.got.tgz:27506.got - 2010.06.03 19:37:08.
