data_PCOD9373727
_publ_section_title
;
Structure prediction by ZEFSAII (Michael W. Deem and Ramdas Pophale) SiO2 
 PCOD9373727
Probable space group: I M M 2
;
_chemical_formula_sum "Si O2"
_cell_formula_units_Z 48
_cell_length_a 7.611034
_cell_length_b 7.935394
_cell_length_c 36.194230
_cell_angle_alpha 90.000000
_cell_angle_beta 90.000000
_cell_angle_gamma 90.000000
_cell_volume 2186.006750
_symmetry_space_group_name_H-M "I M M 2"
_symmetry_group_IT_number 44
_symmetry_cell_setting 'orthorhombic'
loop_
_space_group_symop_operation_xyz
x,y,z
-x,-y,z
-x,y,z
x,-y,z
1/2+x,1/2+y,1/2+z
1/2-x,1/2-y,1/2+z
1/2-x,1/2+y,1/2+z
1/2+x,1/2-y,1/2+z
loop_
_atom_site_type_symbol
_atom_site_label
_atom_site_fract_x
_atom_site_fract_y
_atom_site_fract_z
Si Si1 0.211749 0.194948 0.258590
Si Si2 0.215607 0.805519 0.418907
Si Si3 0.711682 0.000000 0.970086
Si Si4 0.206219 0.319650 0.099258
Si Si5 0.208233 0.693616 0.678449
Si Si6 0.710151 0.500000 0.556287
Si Si7 0.204103 0.205807 0.337487
O O1 0.256125 0.270801 0.218861
O O2 0.277694 0.265205 0.297939
O O3 0.000000 0.191767 0.261128
O O4 0.274811 0.000000 0.256560
O O5 0.272316 0.668520 0.448823
O O6 0.277900 0.752413 0.377717
O O7 0.000000 0.806433 0.417881
O O8 0.268235 0.000000 0.425985
O O9 0.500000 0.000000 0.967812
O O10 0.760495 0.000000 0.012812
O O11 0.286634 0.500000 0.090329
O O12 0.217998 0.286934 0.142990
O O13 0.000000 0.326916 0.089943
O O14 0.283466 0.164641 0.076624
O O15 0.277280 0.500000 0.678055
O O16 0.000000 0.687345 0.673776
O O17 0.500000 0.500000 0.562735
O O18 0.000000 0.259712 0.338341
O O19 0.205778 0.000000 0.335983
#
# Coordination Sequence:
#
# PCOD9373727 Si02
#       7
#     8   8   4   8   8   4   8
#     4   8  13  22  41  68  96 133 179 219 254 297
#     4   8  14  26  45  71 103 134 166 210 258 297
#     4  10  20  32  52  80 104 130 168 210 254 312
#     4  10  21  38  60  80  98 130 175 217 261 312
#     4  10  19  30  48  76 109 142 174 210 259 314
#     4  10  22  40  58  78 106 134 162 210 266 316
#     4   7  10  19  38  64  93 129 172 213 254 293
#
# _framework density 21.957847000000001
#
# number of rings (size 3 to 8) (size 9 to 14) (size 15 to 20)
#    0.000    3.167    0.833    2.500    0.000    2.333 
#    0.000    0.000    1.833    1.000    0.000    2.333 
#    0.000    0.000    0.000    0.000    0.000    0.000 
#
# Total GULP energy -133792.045508 kJ/mol
# GULP energy per Si atom -5574.668563 kJ/mol
# Density = 2.190787 g / cm^3
# Si number density = 21.957847 Si / 1000 Ang^3
#
#
#
# Elastic Constant Matrix: (Units=GPa)
#
#
# Indices 1 2 3 4 5 6 
#
# 1 45.4341 8.4757 -8.3075 0.0000 0.0000 0.0000
# 2 8.4757 124.7681 94.9118 0.0000 0.0000 0.0000
# 3 -8.3075 94.9118 178.9776 0.0000 0.0000 0.0000
# 4 0.0000 0.0000 0.0000 -34.0056 0.0000 0.0000
# 5 0.0000 0.0000 0.0000 0.0000 11.5746 0.0000
# 6 0.0000 0.0000 0.0000 0.0000 0.0000 -9.4065
#
#
#
# Elastic Compliance Matrix: (Units=1/GPa)
#
#
# Indices 1 2 3 4 5 6 
#
# 1 0.023354 -0.004041 0.003227 0.000000 0.000000 0.000000
# 2 -0.004041 0.014134 -0.007683 0.000000 0.000000 0.000000
# 3 0.003227 -0.007683 0.009811 0.000000 0.000000 0.000000
# 4 0.000000 0.000000 0.000000 -0.029407 0.000000 0.000000
# 5 0.000000 0.000000 0.000000 0.000000 0.086396 0.000000
# 6 0.000000 0.000000 0.000000 0.000000 0.000000 -0.106310
#
#
# Mechanical properties :
#
#
# Convention : Reuss Voigt Hill
#
# Bulk Modulus (GPa) = 32.99789 59.92665 46.46227
# Shear Modulus (GPa) = 199.41430 10.57249 104.99339
#
# Velocity S-wave (km/s) = 9.54013 2.19667 6.92241
# Velocity P-wave (km/s) = 11.67958 5.81246 9.22489
#
# Compressibility (1/GPa) = 0.03030497
#
# Stress axis : x y z
#
# Youngs Moduli (GPa) = 42.81938 70.75306 101.92427
#
# Poissons Ratio (x) = 0.28594 -0.32893
# Poissons Ratio (y) = 0.17305 0.78305
# Poissons Ratio (z) = -0.13819 0.54357
#
# Static dielectric constant tensor:
#      x y z
#    x 1.836090 0.000000 0.000000 
#    y 0.000000 1.826180 0.000000 
#    z 0.000000 0.000000 1.806760 
# 
# From -- ./inp_files/26985.got.cif
#   From: 2010.05.17/outbox.cif.g08.bks.cpg/sg44_14_cif.got.tgz:26985.got - 2010.06.03 19:37:08.
