data_PCOD9373404
_publ_section_title
;
Structure prediction by ZEFSAII (Michael W. Deem and Ramdas Pophale) SiO2 
 PCOD9373404
Probable space group: I M M 2
;
_chemical_formula_sum "Si O2"
_cell_formula_units_Z 58
_cell_length_a 8.977162
_cell_length_b 25.983771
_cell_length_c 13.917540
_cell_angle_alpha 90.000000
_cell_angle_beta 90.000000
_cell_angle_gamma 90.000000
_cell_volume 3246.412640
_symmetry_space_group_name_H-M "I M M 2"
_symmetry_group_IT_number 44
_symmetry_cell_setting 'orthorhombic'
loop_
_space_group_symop_operation_xyz
x,y,z
-x,-y,z
-x,y,z
x,-y,z
1/2+x,1/2+y,1/2+z
1/2-x,1/2-y,1/2+z
1/2-x,1/2+y,1/2+z
1/2+x,1/2-y,1/2+z
loop_
_atom_site_type_symbol
_atom_site_label
_atom_site_fract_x
_atom_site_fract_y
_atom_site_fract_z
Si Si1 0.179229 0.060203 0.118660
Si Si2 0.835608 0.398657 0.805099
Si Si3 0.321708 0.313037 0.928543
Si Si4 0.321268 0.794940 0.834388
Si Si5 0.320479 0.441509 0.205681
Si Si6 0.821167 0.896147 0.912030
Si Si7 0.321557 0.160555 0.627830
Si Si8 0.000000 0.500000 0.860876
O O1 0.259599 0.091025 0.202823
O O2 0.000000 0.065587 0.126786
O O3 0.216479 0.000000 0.129072
O O4 0.224554 0.078818 0.012564
O O5 0.736558 0.362242 0.870430
O O6 0.000000 0.374404 0.791593
O O7 0.872381 0.453936 0.852925
O O8 0.500000 0.314292 0.936220
O O9 0.277924 0.261087 0.872039
O O10 0.249632 0.315152 0.033573
O O11 0.500000 0.799206 0.841396
O O12 0.248612 0.840267 0.896436
O O13 0.281777 0.807158 0.723656
O O14 0.500000 0.436847 0.195682
O O15 0.277944 0.500000 0.180856
O O16 0.283120 0.429866 0.317691
O O17 0.241279 0.397064 0.144816
O O18 0.000000 0.891913 0.913041
O O19 0.500000 0.158558 0.619004
#
# Coordination Sequence:
#
# PCOD9373404 Si02
#       8
#     8   8   8   8   8   8   8   2
#     4  10  18  31  52  81 115 152 186 225 273 325
#     4  10  20  38  56  79 110 145 179 225 271 320
#     4  11  23  40  61  85 109 141 184 226 269 327
#     4   9  21  40  58  79 111 144 180 230 276 320
#     4   9  17  33  54  80 112 148 187 231 274 322
#     4   9  18  31  53  82 113 147 189 229 273 326
#     4  10  21  39  59  81 110 144 181 225 276 327
#     4   8  20  40  58  76 116 142 182 228 274 316
#
# _framework density 17.865874000000002
#
# number of rings (size 3 to 8) (size 9 to 14) (size 15 to 20)
#    0.414    1.931    0.690    1.655    0.000    5.241 
#    1.241    4.138    0.000    2.483    0.000    0.000 
#    0.000    0.000    0.000    0.000    0.000    0.000 
#
# Total GULP energy -161454.820742 kJ/mol
# GULP energy per Si atom -5567.407612 kJ/mol
# Density = 1.782521 g / cm^3
# Si number density = 17.865874 Si / 1000 Ang^3
#
#
#
# Elastic Constant Matrix: (Units=GPa)
#
#
# Indices 1 2 3 4 5 6 
#
# 1 37.6550 38.1496 37.7160 0.0000 0.0000 0.0000
# 2 38.1496 115.1114 52.3301 0.0000 0.0000 0.0000
# 3 37.7160 52.3301 89.6307 0.0000 0.0000 0.0000
# 4 0.0000 0.0000 0.0000 15.4654 0.0000 0.0000
# 5 0.0000 0.0000 0.0000 0.0000 26.5986 0.0000
# 6 0.0000 0.0000 0.0000 0.0000 0.0000 28.8026
#
#
#
# Elastic Compliance Matrix: (Units=1/GPa)
#
#
# Indices 1 2 3 4 5 6 
#
# 1 0.053454 -0.010196 -0.016540 0.000000 0.000000 0.000000
# 2 -0.010196 0.013771 -0.003750 0.000000 0.000000 0.000000
# 3 -0.016540 -0.003750 0.020306 0.000000 0.000000 0.000000
# 4 0.000000 0.000000 0.000000 0.064661 0.000000 0.000000
# 5 0.000000 0.000000 0.000000 0.000000 0.037596 0.000000
# 6 0.000000 0.000000 0.000000 0.000000 0.000000 0.034719
#
#
# Mechanical properties :
#
#
# Convention : Reuss Voigt Hill
#
# Bulk Modulus (GPa) = 37.65174 55.42093 46.53634
# Shear Modulus (GPa) = 16.98764 21.78674 19.38719
#
# Velocity S-wave (km/s) = 3.08692 3.49587 3.29774
# Velocity P-wave (km/s) = 5.81600 6.88351 6.37215
#
# Compressibility (1/GPa) = 0.02655920
#
# Stress axis : x y z
#
# Youngs Moduli (GPa) = 18.70765 72.61647 49.24639
#
# Poissons Ratio (x) = 0.74041 0.81454
# Poissons Ratio (y) = 0.19075 0.18465
# Poissons Ratio (z) = 0.30943 0.27228
#
# Static dielectric constant tensor:
#      x y z
#    x 1.603190 0.000000 0.000000 
#    y 0.000000 1.587300 0.000000 
#    z 0.000000 0.000000 1.602640 
# 
# From -- ./inp_files/16988.got.cif
#   From: 2010.05.17/outbox.cif.g08.bks.cpg/sg44_9_cif.got.tgz:16988.got - 2010.06.03 19:37:08.
