data_PCOD9373646
_publ_section_title
;
Structure prediction by ZEFSAII (Michael W. Deem and Ramdas Pophale) SiO2 
 PCOD9373646
Probable space group: I M M 2
;
_chemical_formula_sum "Si O2"
_cell_formula_units_Z 40
_cell_length_a 8.064951
_cell_length_b 11.205976
_cell_length_c 22.618329
_cell_angle_alpha 90.000000
_cell_angle_beta 90.000000
_cell_angle_gamma 90.000000
_cell_volume 2044.146125
_symmetry_space_group_name_H-M "I M M 2"
_symmetry_group_IT_number 44
_symmetry_cell_setting 'orthorhombic'
loop_
_space_group_symop_operation_xyz
x,y,z
-x,-y,z
-x,y,z
x,-y,z
1/2+x,1/2+y,1/2+z
1/2-x,1/2-y,1/2+z
1/2-x,1/2+y,1/2+z
1/2+x,1/2-y,1/2+z
loop_
_atom_site_type_symbol
_atom_site_label
_atom_site_fract_x
_atom_site_fract_y
_atom_site_fract_z
Si Si1 0.691835 0.305849 0.204230
Si Si2 0.688598 0.000000 0.931104
Si Si3 0.201366 0.363430 0.798603
Si Si4 0.188053 0.500000 0.113717
Si Si5 0.800037 0.239031 0.423486
Si Si6 0.807420 0.000000 0.484947
Si Si7 0.316451 0.500000 0.306759
O O1 0.500000 0.290409 0.185586
O O2 0.758160 0.185392 0.234337
O O3 0.779706 0.382771 0.153836
O O4 0.693866 0.390211 0.262132
O O5 0.764076 0.869249 0.944497
O O6 0.687824 0.000000 0.859329
O O7 0.500000 0.000000 0.954151
O O8 0.252973 0.500000 0.807782
O O9 0.260365 0.287679 0.854984
O O10 0.000000 0.358078 0.797835
O O11 0.000000 0.500000 0.093391
O O12 0.297913 0.500000 0.055432
O O13 0.000000 0.245040 0.429461
O O14 0.735503 0.123409 0.459068
O O15 0.000000 0.000000 0.466261
O O16 0.500000 0.500000 0.334718
#
# Coordination Sequence:
#
# PCOD9373646 Si02
#       7
#     8   4   8   4   8   4   4
#     4   9  18  33  51  75 107 139 172 214 270 326
#     4  10  19  29  46  77 111 139 172 217 261 311
#     4  10  19  31  51  80 112 144 179 220 269 325
#     4  11  23  37  58  82 100 133 188 238 271 313
#     4  10  20  33  52  80 113 147 181 219 270 325
#     4  10  21  39  58  75 105 151 189 224 274 328
#     4   9  15  25  44  70 100 135 165 197 248 310
#
# _framework density 19.568073999999999
#
# number of rings (size 3 to 8) (size 9 to 14) (size 15 to 20)
#    0.000    2.200    3.000    1.500    0.000    3.200 
#    0.000    0.000    2.200    0.000    0.000    0.000 
#    0.000    0.000    0.000    0.000    0.000    0.000 
#
# Total GULP energy -111370.341563 kJ/mol
# GULP energy per Si atom -5568.517078 kJ/mol
# Density = 1.952354 g / cm^3
# Si number density = 19.568074 Si / 1000 Ang^3
#
#
#
# Elastic Constant Matrix: (Units=GPa)
#
#
# Indices 1 2 3 4 5 6 
#
# 1 18.1889 4.6472 -7.2916 0.0000 0.0000 0.0000
# 2 4.6472 161.7474 33.7927 0.0000 0.0000 0.0000
# 3 -7.2916 33.7927 57.3156 0.0000 0.0000 0.0000
# 4 0.0000 0.0000 0.0000 22.2279 0.0000 0.0000
# 5 0.0000 0.0000 0.0000 0.0000 19.9150 0.0000
# 6 0.0000 0.0000 0.0000 0.0000 0.0000 10.9504
#
#
#
# Elastic Compliance Matrix: (Units=1/GPa)
#
#
# Indices 1 2 3 4 5 6 
#
# 1 0.059891 -0.003778 0.009847 0.000000 0.000000 0.000000
# 2 -0.003778 0.007289 -0.004778 0.000000 0.000000 0.000000
# 3 0.009847 -0.004778 0.021517 0.000000 0.000000 0.000000
# 4 0.000000 0.000000 0.000000 0.044989 0.000000 0.000000
# 5 0.000000 0.000000 0.000000 0.000000 0.050213 0.000000
# 6 0.000000 0.000000 0.000000 0.000000 0.000000 0.091320
#
#
# Mechanical properties :
#
#
# Convention : Reuss Voigt Hill
#
# Bulk Modulus (GPa) = 10.95548 33.28316 22.11932
# Shear Modulus (GPa) = 16.49808 24.35891 20.42849
#
# Velocity S-wave (km/s) = 2.90679 3.53204 3.23456
# Velocity P-wave (km/s) = 4.10813 5.80341 5.02774
#
# Compressibility (1/GPa) = 0.09127855
#
# Stress axis : x y z
#
# Youngs Moduli (GPa) = 16.69694 137.18690 46.47447
#
# Poissons Ratio (x) = 0.51828 -0.45762
# Poissons Ratio (y) = 0.06308 0.22207
# Poissons Ratio (z) = -0.16441 0.65552
#
# Static dielectric constant tensor:
#      x y z
#    x 1.703100 0.000000 0.000000 
#    y 0.000000 1.839160 0.000000 
#    z 0.000000 0.000000 1.633010 
# 
# From -- ./inp_files/22822.got.cif
#   From: 2010.05.17/outbox.cif.g08.bks.cpg/sg44_12_cif.got.tgz:22822.got - 2010.06.03 19:37:08.
