data_PCOD9373533
_publ_section_title
;
Structure prediction by ZEFSAII (Michael W. Deem and Ramdas Pophale) SiO2 
 PCOD9373533
Probable space group: I M M 2
;
_chemical_formula_sum "Si O2"
_cell_formula_units_Z 48
_cell_length_a 7.563766
_cell_length_b 14.724691
_cell_length_c 21.261523
_cell_angle_alpha 90.000000
_cell_angle_beta 90.000000
_cell_angle_gamma 90.000000
_cell_volume 2367.983353
_symmetry_space_group_name_H-M "I M M 2"
_symmetry_group_IT_number 44
_symmetry_cell_setting 'orthorhombic'
loop_
_space_group_symop_operation_xyz
x,y,z
-x,-y,z
-x,y,z
x,-y,z
1/2+x,1/2+y,1/2+z
1/2-x,1/2-y,1/2+z
1/2-x,1/2+y,1/2+z
1/2+x,1/2-y,1/2+z
loop_
_atom_site_type_symbol
_atom_site_label
_atom_site_fract_x
_atom_site_fract_y
_atom_site_fract_z
Si Si1 0.792520 0.700729 0.305350
Si Si2 0.292979 0.300284 0.929008
Si Si3 0.282398 0.693146 0.068469
Si Si4 0.282682 0.000000 0.238619
Si Si5 0.705157 0.812204 0.183192
Si Si6 0.287473 0.000000 0.384439
Si Si7 0.211834 0.000000 0.769324
Si Si8 0.784574 0.000000 0.623646
O O1 0.718223 0.746512 0.368849
O O2 0.711332 0.744825 0.242827
O O3 0.770487 0.592682 0.302445
O O4 0.000000 0.722957 0.301966
O O5 0.500000 0.275919 0.931417
O O6 0.277028 0.407668 0.916206
O O7 0.220706 0.282410 0.998563
O O8 0.500000 0.692740 0.068447
O O9 0.219977 0.761984 0.122364
O O10 0.228502 0.591588 0.088633
O O11 0.219723 0.091438 0.204891
O O12 0.500000 0.000000 0.239253
O O13 0.229712 0.000000 0.311587
O O14 0.500000 0.829546 0.168409
O O15 0.500000 0.000000 0.386261
O O16 0.273957 0.000000 0.696489
O O17 0.000000 0.000000 0.767938
O O18 0.000000 0.000000 0.624584
#
# Coordination Sequence:
#
# PCOD9373533 Si02
#       8
#     8   8   8   4   8   4   4   4
#     4  11  22  35  53  81 113 141 174 220 271 321
#     4  10  21  36  54  79 112 147 177 215 272 327
#     4   9  17  31  54  79 104 138 184 225 261 314
#     4   9  18  30  51  83 109 129 176 233 265 299
#     4  10  18  34  57  79 105 142 186 226 262 309
#     4  11  20  32  54  83 112 141 177 223 268 319
#     4  11  21  36  59  83 104 140 184 221 263 313
#     4   9  15  26  52  83 101 124 173 227 262 301
#
# _framework density 20.270410999999999
#
# number of rings (size 3 to 8) (size 9 to 14) (size 15 to 20)
#    0.000    2.000    3.333    1.500    0.000    2.000 
#    0.000    2.083    0.000    4.000    0.000    0.000 
#    0.000    0.000    0.000    0.000    0.000    0.000 
#
# Total GULP energy -134044.185760 kJ/mol
# GULP energy per Si atom -5585.174407 kJ/mol
# Density = 2.022427 g / cm^3
# Si number density = 20.270411 Si / 1000 Ang^3
#
#
#
# Elastic Constant Matrix: (Units=GPa)
#
#
# Indices 1 2 3 4 5 6 
#
# 1 47.5908 -19.2792 -4.5727 0.0000 0.0000 0.0000
# 2 -19.2792 114.4033 65.8507 0.0000 0.0000 0.0000
# 3 -4.5727 65.8507 184.8264 0.0000 0.0000 0.0000
# 4 0.0000 0.0000 0.0000 19.0943 0.0000 0.0000
# 5 0.0000 0.0000 0.0000 0.0000 5.4285 0.0000
# 6 0.0000 0.0000 0.0000 0.0000 0.0000 19.4563
#
#
#
# Elastic Compliance Matrix: (Units=1/GPa)
#
#
# Indices 1 2 3 4 5 6 
#
# 1 0.022700 0.004406 -0.001008 0.000000 0.000000 0.000000
# 2 0.004406 0.011851 -0.004113 0.000000 0.000000 0.000000
# 3 -0.001008 -0.004113 0.006851 0.000000 0.000000 0.000000
# 4 0.000000 0.000000 0.000000 0.052372 0.000000 0.000000
# 5 0.000000 0.000000 0.000000 0.000000 0.184213 0.000000
# 6 0.000000 0.000000 0.000000 0.000000 0.000000 0.051397
#
#
# Mechanical properties :
#
#
# Convention : Reuss Voigt Hill
#
# Bulk Modulus (GPa) = 25.01805 47.86868 36.44336
# Shear Modulus (GPa) = 14.52898 29.11728 21.82313
#
# Velocity S-wave (km/s) = 2.68014 3.79415 3.28472
# Velocity P-wave (km/s) = 4.68471 6.54679 5.69240
#
# Compressibility (1/GPa) = 0.03997114
#
# Stress axis : x y z
#
# Youngs Moduli (GPa) = 44.05209 84.38025 145.96266
#
# Poissons Ratio (x) = -0.37176 0.14714
# Poissons Ratio (y) = -0.19408 0.60040
# Poissons Ratio (z) = 0.04441 0.34709
#
# Static dielectric constant tensor:
#      x y z
#    x 1.771910 0.000000 0.000000 
#    y 0.000000 1.690430 0.000000 
#    z 0.000000 0.000000 1.716290 
# 
# From -- ./inp_files/20366.got.cif
#   From: 2010.05.17/outbox.cif.g08.bks.cpg/sg44_11_cif.got.tgz:20366.got - 2010.06.03 19:37:08.
