data_PCOD9373215
_publ_section_title
;
Structure prediction by ZEFSAII (Michael W. Deem and Ramdas Pophale) SiO2 
 PCOD9373215
Probable space group: I M M 2
;
_chemical_formula_sum "Si O2"
_cell_formula_units_Z 48
_cell_length_a 17.228808
_cell_length_b 7.553838
_cell_length_c 19.129525
_cell_angle_alpha 90.000000
_cell_angle_beta 90.000000
_cell_angle_gamma 90.000000
_cell_volume 2489.585720
_symmetry_space_group_name_H-M "I M M 2"
_symmetry_group_IT_number 44
_symmetry_cell_setting 'orthorhombic'
loop_
_space_group_symop_operation_xyz
x,y,z
-x,-y,z
-x,y,z
x,-y,z
1/2+x,1/2+y,1/2+z
1/2-x,1/2-y,1/2+z
1/2-x,1/2+y,1/2+z
1/2+x,1/2-y,1/2+z
loop_
_atom_site_type_symbol
_atom_site_label
_atom_site_fract_x
_atom_site_fract_y
_atom_site_fract_z
Si Si1 0.832634 0.293879 0.947060
Si Si2 0.658220 0.716210 0.180498
Si Si3 0.500000 0.789736 0.418940
Si Si4 0.680994 0.717306 0.022131
Si Si5 0.412710 0.286980 0.886291
Si Si6 0.241973 0.290326 0.307824
Si Si7 0.500000 0.713979 0.255198
O O1 0.840325 0.500000 0.965927
O O2 0.796178 0.286463 0.869228
O O3 0.918614 0.214777 0.946853
O O4 0.765744 0.220003 0.996900
O O5 0.658395 0.500000 0.178469
O O6 0.663805 0.775365 0.100568
O O7 0.727855 0.771464 0.232357
O O8 0.577750 0.772667 0.216029
O O9 0.500000 0.770284 0.335387
O O10 0.500000 0.000000 0.433400
O O11 0.680736 0.500000 0.021221
O O12 0.620508 0.772845 0.961817
O O13 0.500000 0.221599 0.873103
O O14 0.415839 0.500000 0.889014
O O15 0.346984 0.243088 0.829141
O O16 0.254670 0.500000 0.310602
O O17 0.500000 0.500000 0.254727
#
# Coordination Sequence:
#
# PCOD9373215 Si02
#       7
#     8   8   4   8   8   8   4
#     4   9  17  30  47  67  92 122 157 191 226 268
#     4   9  17  27  44  70  97 121 148 187 231 274
#     4  10  18  28  46  70  94 119 152 192 228 267
#     4   8  15  28  46  68  93 118 149 190 231 271
#     4   9  18  32  51  72  91 118 156 193 228 268
#     4  10  18  29  47  69  95 123 152 186 230 275
#     4  10  18  28  44  70  96 121 150 182 226 277
#
# _framework density 19.280318000000001
#
# number of rings (size 3 to 8) (size 9 to 14) (size 15 to 20)
#    0.000    2.833    1.667    1.500    1.167    0.333 
#    0.000    0.000    1.833   12.000    0.000    0.000 
#    0.000    0.000    0.000    0.000    0.000    0.000 
#
# Total GULP energy -133811.323808 kJ/mol
# GULP energy per Si atom -5575.471825 kJ/mol
# Density = 1.923643 g / cm^3
# Si number density = 19.280318 Si / 1000 Ang^3
#
#
#
# Elastic Constant Matrix: (Units=GPa)
#
#
# Indices 1 2 3 4 5 6 
#
# 1 159.4273 2.7037 44.0034 0.0000 0.0000 0.0000
# 2 2.7037 45.0511 2.1136 0.0000 0.0000 0.0000
# 3 44.0034 2.1136 72.6898 0.0000 0.0000 0.0000
# 4 0.0000 0.0000 0.0000 14.9075 0.0000 0.0000
# 5 0.0000 0.0000 0.0000 0.0000 20.1678 0.0000
# 6 0.0000 0.0000 0.0000 0.0000 0.0000 5.0053
#
#
#
# Elastic Compliance Matrix: (Units=1/GPa)
#
#
# Indices 1 2 3 4 5 6 
#
# 1 0.007533 -0.000238 -0.004553 0.000000 0.000000 0.000000
# 2 -0.000238 0.022235 -0.000502 0.000000 0.000000 0.000000
# 3 -0.004553 -0.000502 0.016528 0.000000 0.000000 0.000000
# 4 0.000000 0.000000 0.000000 0.067080 0.000000 0.000000
# 5 0.000000 0.000000 0.000000 0.000000 0.049584 0.000000
# 6 0.000000 0.000000 0.000000 0.000000 0.000000 0.199788
#
#
# Mechanical properties :
#
#
# Convention : Reuss Voigt Hill
#
# Bulk Modulus (GPa) = 28.00474 41.64548 34.82511
# Shear Modulus (GPa) = 12.97892 23.23928 18.10910
#
# Velocity S-wave (km/s) = 2.59737 3.47556 3.06805
# Velocity P-wave (km/s) = 4.85300 6.14434 5.53645
#
# Compressibility (1/GPa) = 0.03570823
#
# Stress axis : x y z
#
# Youngs Moduli (GPa) = 132.74440 44.97438 60.50297
#
# Poissons Ratio (x) = 0.01073 0.27549
# Poissons Ratio (y) = 0.03166 0.03038
# Poissons Ratio (z) = 0.60444 0.02258
#
# Static dielectric constant tensor:
#      x y z
#    x 1.694980 0.000000 0.000000 
#    y 0.000000 1.743850 0.000000 
#    z 0.000000 0.000000 1.638760 
# 
# From -- ./inp_files/24308.got.cif
#   From: 2010.05.17/outbox.cif.g08.bks.cpg/sg44_13_cif.got.tgz:24308.got - 2010.06.03 19:37:08.
