data_PCOD9373751
_publ_section_title
;
Structure prediction by ZEFSAII (Michael W. Deem and Ramdas Pophale) SiO2 
 PCOD9373751
Probable space group: I M M 2
;
_chemical_formula_sum "Si O2"
_cell_formula_units_Z 64
_cell_length_a 31.134216
_cell_length_b 8.947198
_cell_length_c 14.777592
_cell_angle_alpha 90.000000
_cell_angle_beta 90.000000
_cell_angle_gamma 90.000000
_cell_volume 4116.505066
_symmetry_space_group_name_H-M "I M M 2"
_symmetry_group_IT_number 44
_symmetry_cell_setting 'orthorhombic'
loop_
_space_group_symop_operation_xyz
x,y,z
-x,-y,z
-x,y,z
x,-y,z
1/2+x,1/2+y,1/2+z
1/2-x,1/2-y,1/2+z
1/2-x,1/2+y,1/2+z
1/2+x,1/2-y,1/2+z
loop_
_atom_site_type_symbol
_atom_site_label
_atom_site_fract_x
_atom_site_fract_y
_atom_site_fract_z
Si Si1 0.451659 0.681959 0.905520
Si Si2 0.868915 0.675116 0.693505
Si Si3 0.276479 0.674851 0.515314
Si Si4 0.291752 0.821379 0.706454
Si Si5 0.704466 0.680736 0.312749
Si Si6 0.136077 0.176624 0.327751
Si Si7 0.450369 0.320399 0.115317
Si Si8 0.174017 0.329792 0.497295
O O1 0.500000 0.730143 0.881367
O O2 0.451477 0.500000 0.906088
O O3 0.413252 0.729496 0.839754
O O4 0.443129 0.727066 0.010140
O O5 0.871807 0.500000 0.714820
O O6 0.837212 0.755657 0.763122
O O7 0.915824 0.745810 0.680593
O O8 0.846847 0.690851 0.594949
O O9 0.287932 0.500000 0.528033
O O10 0.289891 0.765261 0.603613
O O11 0.294012 0.726365 0.417994
O O12 0.224984 0.682876 0.506776
O O13 0.248308 0.771607 0.760372
O O14 0.333701 0.757917 0.756057
O O15 0.292399 0.000000 0.709822
O O16 0.703883 0.500000 0.310183
O O17 0.156704 0.212551 0.425406
O O18 0.136384 0.000000 0.310063
O O19 0.500000 0.285286 0.136919
O O20 0.445428 0.500000 0.118244
O O21 0.164433 0.500000 0.465297
#
# Coordination Sequence:
#
# PCOD9373751 Si02
#       8
#     8   8   8   8   8   8   8   8
#     4   8  15  28  46  70  98 127 163 204 240 282
#     4  11  21  31  48  73 103 134 166 207 250 295
#     4  10  20  37  52  68  97 132 171 212 244 284
#     4  11  22  35  50  72 101 132 165 205 251 298
#     4  10  21  35  51  69  96 133 171 205 243 292
#     4  11  20  30  50  74  97 133 172 204 242 296
#     4   9  17  31  50  71  99 133 168 204 242 293
#     4  10  19  31  46  69 103 134 163 206 247 282
#
# _framework density 15.547169
#
# number of rings (size 3 to 8) (size 9 to 14) (size 15 to 20)
#    0.000    2.000    3.750    1.875    0.000    2.250 
#    0.000    0.000    0.000    1.500    0.000    0.875 
#    0.000    3.000    0.000    0.000    0.000    0.000 
#
# Total GULP energy -178449.292807 kJ/mol
# GULP energy per Si atom -5576.540400 kJ/mol
# Density = 1.551178 g / cm^3
# Si number density = 15.547169 Si / 1000 Ang^3
#
#
#
# Elastic Constant Matrix: (Units=GPa)
#
#
# Indices 1 2 3 4 5 6 
#
# 1 115.9946 32.4804 61.1998 0.0000 0.0000 0.0000
# 2 32.4804 29.7181 36.1544 0.0000 0.0000 0.0000
# 3 61.1998 36.1544 91.4025 0.0000 0.0000 0.0000
# 4 0.0000 0.0000 0.0000 25.2091 0.0000 0.0000
# 5 0.0000 0.0000 0.0000 0.0000 22.4643 0.0000
# 6 0.0000 0.0000 0.0000 0.0000 0.0000 21.1643
#
#
#
# Elastic Compliance Matrix: (Units=1/GPa)
#
#
# Indices 1 2 3 4 5 6 
#
# 1 0.014169 -0.007603 -0.006480 0.000000 0.000000 0.000000
# 2 -0.007603 0.068942 -0.022180 0.000000 0.000000 0.000000
# 3 -0.006480 -0.022180 0.024052 0.000000 0.000000 0.000000
# 4 0.000000 0.000000 0.000000 0.039668 0.000000 0.000000
# 5 0.000000 0.000000 0.000000 0.000000 0.044515 0.000000
# 6 0.000000 0.000000 0.000000 0.000000 0.000000 0.047249
#
#
# Mechanical properties :
#
#
# Convention : Reuss Voigt Hill
#
# Bulk Modulus (GPa) = 28.86895 55.19826 42.03360
# Shear Modulus (GPa) = 15.49587 20.91958 18.20773
#
# Velocity S-wave (km/s) = 3.16048 3.67216 3.42589
# Velocity P-wave (km/s) = 5.65041 7.31850 6.53787
#
# Compressibility (1/GPa) = 0.03463930
#
# Stress axis : x y z
#
# Youngs Moduli (GPa) = 70.57827 14.50486 41.57602
#
# Poissons Ratio (x) = 0.11028 0.26939
# Poissons Ratio (y) = 0.53659 0.92214
# Poissons Ratio (z) = 0.45732 0.32171
#
# Static dielectric constant tensor:
#      x y z
#    x 1.524490 0.000000 0.000000 
#    y 0.000000 1.529090 0.000000 
#    z 0.000000 0.000000 1.500490 
# 
# From -- ./inp_files/17071.got.cif
#   From: 2010.05.17/outbox.cif.g08.bks.cpg/sg44_9_cif.got.tgz:17071.got - 2010.06.03 19:37:08.
