data_PCOD9373742
_publ_section_title
;
Structure prediction by ZEFSAII (Michael W. Deem and Ramdas Pophale) SiO2 
 PCOD9373742
Probable space group: I M M 2
;
_chemical_formula_sum "Si O2"
_cell_formula_units_Z 64
_cell_length_a 14.596714
_cell_length_b 23.775631
_cell_length_c 9.734124
_cell_angle_alpha 90.000000
_cell_angle_beta 90.000000
_cell_angle_gamma 90.000000
_cell_volume 3378.189634
_symmetry_space_group_name_H-M "I M M 2"
_symmetry_group_IT_number 44
_symmetry_cell_setting 'orthorhombic'
loop_
_space_group_symop_operation_xyz
x,y,z
-x,-y,z
-x,y,z
x,-y,z
1/2+x,1/2+y,1/2+z
1/2-x,1/2-y,1/2+z
1/2-x,1/2+y,1/2+z
1/2+x,1/2-y,1/2+z
loop_
_atom_site_type_symbol
_atom_site_label
_atom_site_fract_x
_atom_site_fract_y
_atom_site_fract_z
Si Si1 0.897663 0.705814 0.235180
Si Si2 0.890962 0.767100 0.863820
Si Si3 0.900053 0.146826 0.613230
Si Si4 0.892073 0.610139 0.030354
Si Si5 0.303993 0.851257 0.264706
Si Si6 0.235703 0.655043 0.458083
Si Si7 0.599643 0.333468 0.798052
Si Si8 0.752126 0.064932 0.730667
O O1 0.827066 0.688122 0.350190
O O2 0.897822 0.772443 0.229511
O O3 0.000000 0.687327 0.274685
O O4 0.876155 0.673131 0.094564
O O5 0.892196 0.804696 0.725611
O O6 0.837882 0.710123 0.819200
O O7 0.828563 0.806811 0.963429
O O8 0.000000 0.758045 0.902654
O O9 0.896169 0.173429 0.462833
O O10 0.823289 0.100808 0.639706
O O11 0.000000 0.119818 0.629083
O O12 0.851177 0.608266 0.876950
O O13 0.000000 0.600054 0.024756
O O14 0.841985 0.572198 0.144454
O O15 0.194955 0.862896 0.267423
O O16 0.318253 0.852378 0.100804
O O17 0.251819 0.596194 0.378301
O O18 0.500000 0.359692 0.764933
O O19 0.775674 0.000000 0.743424
#
# Coordination Sequence:
#
# PCOD9373742 Si02
#       8
#     8   8   8   8   8   8   8   8
#     4   9  18  33  53  78 112 154 190 219 259 324
#     4  10  21  33  52  81 119 159 190 221 266 331
#     4   9  18  35  56  85 115 144 187 235 279 332
#     4  10  22  38  57  84 116 149 190 231 275 334
#     4  12  22  33  54  83 120 157 183 225 276 335
#     4  10  22  35  55  82 115 149 189 235 276 335
#     4  10  19  30  52  81 117 152 181 219 272 332
#     4  10  21  41  64  82 103 140 192 246 295 339
#
# _framework density 18.945060000000002
#
# number of rings (size 3 to 8) (size 9 to 14) (size 15 to 20)
#    0.000    2.000    2.500    1.125    1.750    3.000 
#    0.000    0.625    0.000    0.000    0.000    0.000 
#    0.000    0.000    0.000    0.000    0.000    0.000 
#
# Total GULP energy -178268.802437 kJ/mol
# GULP energy per Si atom -5570.900076 kJ/mol
# Density = 1.890194 g / cm^3
# Si number density = 18.945060 Si / 1000 Ang^3
#
#
#
# Elastic Constant Matrix: (Units=GPa)
#
#
# Indices 1 2 3 4 5 6 
#
# 1 104.6127 12.9504 30.6032 -0.0002 0.0000 0.0000
# 2 12.9504 54.5045 14.0588 -0.0001 0.0000 0.0000
# 3 30.6032 14.0588 89.4093 -0.0006 0.0000 -0.0001
# 4 -0.0002 -0.0001 -0.0006 3.0844 0.0000 0.0000
# 5 0.0000 0.0000 0.0000 0.0000 20.8515 0.0000
# 6 0.0000 0.0000 -0.0001 0.0000 0.0000 1.9520
#
#
#
# Elastic Compliance Matrix: (Units=1/GPa)
#
#
# Indices 1 2 3 4 5 6 
#
# 1 0.010768 -0.001676 -0.003422 0.000000 0.000000 0.000000
# 2 -0.001676 0.019383 -0.002474 0.000000 0.000000 0.000000
# 3 -0.003422 -0.002474 0.012745 0.000002 0.000000 0.000001
# 4 0.000000 0.000000 0.000002 0.324209 0.000000 0.000004
# 5 0.000000 0.000000 0.000000 0.000000 0.047958 0.000000
# 6 0.000000 0.000000 0.000001 0.000004 0.000000 0.512283
#
#
# Mechanical properties :
#
#
# Convention : Reuss Voigt Hill
#
# Bulk Modulus (GPa) = 36.03373 40.41682 38.22528
# Shear Modulus (GPa) = 5.25353 17.90521 11.57937
#
# Velocity S-wave (km/s) = 1.66705 3.07760 2.47494
# Velocity P-wave (km/s) = 4.77146 5.83171 5.32802
#
# Compressibility (1/GPa) = 0.02775178
#
# Stress axis : x y z
#
# Youngs Moduli (GPa) = 92.87128 51.59036 78.46286
#
# Poissons Ratio (x) = 0.08645 0.26850
# Poissons Ratio (y) = 0.15563 0.19414
# Poissons Ratio (z) = 0.31781 0.12765
#
# Static dielectric constant tensor:
#      x y z
#    x 1.726400 0.000000 0.000000 
#    y 0.000000 1.642240 0.000000 
#    z 0.000000 0.000000 1.690570 
# 
# From -- ./inp_files/7546.got.cif
#   From: 2010.05.17/outbox.cif.g08.bks.cpg/sg44_4_cif.got.tgz:7546.got - 2010.06.03 19:37:08.
