data_PCOD9373055
_publ_section_title
;
Structure prediction by ZEFSAII (Michael W. Deem and Ramdas Pophale) SiO2 
 PCOD9373055
Probable space group: I M M 2
;
_chemical_formula_sum "Si O2"
_cell_formula_units_Z 64
_cell_length_a 7.573670
_cell_length_b 31.773651
_cell_length_c 15.005212
_cell_angle_alpha 90.000000
_cell_angle_beta 90.000000
_cell_angle_gamma 90.000000
_cell_volume 3610.901443
_symmetry_space_group_name_H-M "I M M 2"
_symmetry_group_IT_number 44
_symmetry_cell_setting 'orthorhombic'
loop_
_space_group_symop_operation_xyz
x,y,z
-x,-y,z
-x,y,z
x,-y,z
1/2+x,1/2+y,1/2+z
1/2-x,1/2-y,1/2+z
1/2-x,1/2+y,1/2+z
1/2+x,1/2-y,1/2+z
loop_
_atom_site_type_symbol
_atom_site_label
_atom_site_fract_x
_atom_site_fract_y
_atom_site_fract_z
Si Si1 0.215565 0.952553 0.258630
Si Si2 0.287634 0.547412 0.553502
Si Si3 0.291727 0.864465 0.991412
Si Si4 0.704401 0.678993 0.671783
Si Si5 0.713275 0.227241 0.666313
Si Si6 0.791164 0.203807 0.470379
Si Si7 0.283490 0.630864 0.845373
Si Si8 0.215907 0.288831 0.367721
O O1 0.271176 0.943598 0.155928
O O2 0.273867 0.917011 0.328055
O O3 0.000000 0.951993 0.256931
O O4 0.270670 0.000000 0.280448
O O5 0.500000 0.546481 0.555814
O O6 0.227028 0.500000 0.530270
O O7 0.237897 0.585517 0.488318
O O8 0.500000 0.857720 0.997980
O O9 0.227054 0.832031 0.915981
O O10 0.211931 0.848868 0.084310
O O11 0.500000 0.686281 0.694999
O O12 0.780658 0.724891 0.654816
O O13 0.777768 0.655227 0.756596
O O14 0.500000 0.226572 0.666904
O O15 0.765443 0.203934 0.576103
O O16 0.771650 0.212698 0.764391
O O17 0.723601 0.160784 0.425550
O O18 0.723876 0.247030 0.422695
O O19 0.000000 0.204775 0.452653
O O20 0.500000 0.629315 0.847823
O O21 0.000000 0.288044 0.368006
#
# Coordination Sequence:
#
# PCOD9373055 Si02
#       8
#     8   8   8   8   8   8   8   8
#     4   8  13  22  40  66  89 111 146 184 212 253
#     4   9  17  30  48  68  91 119 152 187 221 266
#     4  11  20  29  44  67  94 123 151 186 228 270
#     4  10  17  27  45  65  87 119 157 187 216 263
#     4  10  19  32  47  63  87 122 158 190 221 263
#     4  10  18  30  46  65  89 117 151 190 228 265
#     4   9  15  25  44  64  86 121 153 178 217 271
#     4   9  18  31  45  62  88 122 154 183 225 274
#
# _framework density 17.724105999999999
#
# number of rings (size 3 to 8) (size 9 to 14) (size 15 to 20)
#    0.000    2.500    3.750    1.125    0.000    0.250 
#    0.000    2.500    0.000    0.000    0.000    0.875 
#    0.000    3.000    0.000    0.000    0.000    0.000 
#
# Total GULP energy -178300.858683 kJ/mol
# GULP energy per Si atom -5571.901834 kJ/mol
# Density = 1.768377 g / cm^3
# Si number density = 17.724106 Si / 1000 Ang^3
#
#
#
# Elastic Constant Matrix: (Units=GPa)
#
#
# Indices 1 2 3 4 5 6 
#
# 1 35.1775 3.9924 -3.3144 0.0000 0.0000 0.0000
# 2 3.9924 141.2760 57.3944 -0.0001 0.0000 0.0000
# 3 -3.3144 57.3944 92.9250 -0.0001 0.0000 0.0000
# 4 0.0000 -0.0001 -0.0001 24.3785 0.0000 0.0000
# 5 0.0000 0.0000 0.0000 0.0000 11.1660 0.0000
# 6 0.0000 0.0000 0.0000 0.0000 0.0000 11.4206
#
#
#
# Elastic Compliance Matrix: (Units=1/GPa)
#
#
# Indices 1 2 3 4 5 6 
#
# 1 0.028806 -0.001644 0.002043 0.000000 0.000000 0.000000
# 2 -0.001644 0.009543 -0.005953 0.000000 0.000000 0.000000
# 3 0.002043 -0.005953 0.014511 0.000000 0.000000 0.000000
# 4 0.000000 0.000000 0.000000 0.041020 0.000000 0.000000
# 5 0.000000 0.000000 0.000000 0.000000 0.089558 0.000000
# 6 0.000000 0.000000 0.000000 0.000000 0.000000 0.087561
#
#
# Mechanical properties :
#
#
# Convention : Reuss Voigt Hill
#
# Bulk Modulus (GPa) = 23.95071 42.83591 33.39331
# Shear Modulus (GPa) = 16.89046 23.48008 20.18527
#
# Velocity S-wave (km/s) = 3.09036 3.64367 3.37836
# Velocity P-wave (km/s) = 5.12603 6.47475 5.83946
#
# Compressibility (1/GPa) = 0.04175241
#
# Stress axis : x y z
#
# Youngs Moduli (GPa) = 34.71463 104.78641 68.91317
#
# Poissons Ratio (x) = 0.17227 -0.14078
# Poissons Ratio (y) = 0.05707 0.41024
# Poissons Ratio (z) = -0.07092 0.62379
#
# Static dielectric constant tensor:
#      x y z
#    x 1.689780 0.000000 0.000000 
#    y 0.000000 1.646000 0.000000 
#    z 0.000000 0.000000 1.583700 
# 
# From -- ./inp_files/17102.got.cif
#   From: 2010.05.17/outbox.cif.g08.bks.cpg/sg44_9_cif.got.tgz:17102.got - 2010.06.03 19:37:08.
