data_PCOD9373114
_publ_section_title
;
Structure prediction by ZEFSAII (Michael W. Deem and Ramdas Pophale) SiO2 
 PCOD9373114
Probable space group: I M M 2
;
_chemical_formula_sum "Si O2"
_cell_formula_units_Z 48
_cell_length_a 7.793327
_cell_length_b 18.677166
_cell_length_c 18.523833
_cell_angle_alpha 90.000000
_cell_angle_beta 90.000000
_cell_angle_gamma 90.000000
_cell_volume 2696.278415
_symmetry_space_group_name_H-M "I M M 2"
_symmetry_group_IT_number 44
_symmetry_cell_setting 'orthorhombic'
loop_
_space_group_symop_operation_xyz
x,y,z
-x,-y,z
-x,y,z
x,-y,z
1/2+x,1/2+y,1/2+z
1/2-x,1/2-y,1/2+z
1/2-x,1/2+y,1/2+z
1/2+x,1/2-y,1/2+z
loop_
_atom_site_type_symbol
_atom_site_label
_atom_site_fract_x
_atom_site_fract_y
_atom_site_fract_z
Si Si1 0.706523 0.717948 0.531680
Si Si2 0.290968 0.581486 0.621029
Si Si3 0.000000 0.418636 0.165551
Si Si4 0.697567 0.671249 0.922943
Si Si5 0.807611 0.185638 0.669195
Si Si6 0.793876 0.821142 0.254189
Si Si7 0.500000 0.918839 0.492018
O O1 0.500000 0.718125 0.527296
O O2 0.762446 0.639803 0.560563
O O3 0.779732 0.749569 0.457481
O O4 0.759845 0.773944 0.594400
O O5 0.500000 0.579850 0.619245
O O6 0.230382 0.500000 0.611845
O O7 0.242916 0.615613 0.698817
O O8 0.831518 0.374365 0.186501
O O9 0.000000 0.500000 0.191888
O O10 0.000000 0.419653 0.078374
O O11 0.500000 0.649285 0.933486
O O12 0.738425 0.666744 0.838165
O O13 0.832264 0.621977 0.964390
O O14 0.794069 0.248774 0.727591
O O15 0.000000 0.157330 0.664064
O O16 0.000000 0.811566 0.244919
O O17 0.500000 0.000000 0.465215
#
# Coordination Sequence:
#
# PCOD9373114 Si02
#       7
#     8   8   4   8   8   8   4
#     4  10  17  32  54  76 110 143 182 233 270 314
#     4   8  15  29  52  80 108 142 177 217 275 330
#     4  11  22  38  56  78 112 145 177 230 287 324
#     4  11  21  35  56  82 110 148 190 222 268 326
#     4  11  19  33  57  80 105 140 186 231 267 322
#     4   9  19  33  54  81 111 144 183 223 273 324
#     4  11  24  38  54  80 116 149 181 224 275 330
#
# _framework density 17.802316000000001
#
# number of rings (size 3 to 8) (size 9 to 14) (size 15 to 20)
#    0.000    2.000    4.167    1.500    1.167    1.333 
#    0.000    3.333    0.000   10.000    0.000    2.333 
#    0.000    0.000    0.000    0.000    0.000    0.000 
#
# Total GULP energy -133878.497560 kJ/mol
# GULP energy per Si atom -5578.270732 kJ/mol
# Density = 1.776180 g / cm^3
# Si number density = 17.802316 Si / 1000 Ang^3
#
#
#
# Elastic Constant Matrix: (Units=GPa)
#
#
# Indices 1 2 3 4 5 6 
#
# 1 76.2996 36.7072 7.7092 0.0000 0.0000 0.0000
# 2 36.7072 140.5968 24.0762 0.0000 0.0000 0.0000
# 3 7.7092 24.0762 46.4416 0.0000 0.0000 0.0000
# 4 0.0000 0.0000 0.0000 15.6199 0.0000 0.0000
# 5 0.0000 0.0000 0.0000 0.0000 12.3498 0.0000
# 6 0.0000 0.0000 0.0000 0.0000 0.0000 -9.9840
#
#
#
# Elastic Compliance Matrix: (Units=1/GPa)
#
#
# Indices 1 2 3 4 5 6 
#
# 1 0.015000 -0.003830 -0.000505 0.000000 0.000000 0.000000
# 2 -0.003830 0.008783 -0.003918 0.000000 0.000000 0.000000
# 3 -0.000505 -0.003918 0.023647 0.000000 0.000000 0.000000
# 4 0.000000 0.000000 0.000000 0.064021 0.000000 0.000000
# 5 0.000000 0.000000 0.000000 0.000000 0.080973 0.000000
# 6 0.000000 0.000000 0.000000 0.000000 0.000000 -0.100160
#
#
# Mechanical properties :
#
#
# Convention : Reuss Voigt Hill
#
# Bulk Modulus (GPa) = 32.33498 44.48035 38.40766
# Shear Modulus (GPa) = 41.98972 16.58683 29.28827
#
# Velocity S-wave (km/s) = 4.86188 3.05573 4.06050
# Velocity P-wave (km/s) = 7.05124 6.12290 6.60340
#
# Compressibility (1/GPa) = 0.03092626
#
# Stress axis : x y z
#
# Youngs Moduli (GPa) = 66.66812 113.85263 42.28837
#
# Poissons Ratio (x) = 0.43603 0.02133
# Poissons Ratio (y) = 0.25532 0.16567
# Poissons Ratio (z) = 0.03363 0.44604
#
# Static dielectric constant tensor:
#      x y z
#    x 1.634440 0.000000 0.000000 
#    y 0.000000 1.613880 0.000000 
#    z 0.000000 0.000000 1.605910 
# 
# From -- ./inp_files/23179.got.cif
#   From: 2010.05.17/outbox.cif.g08.bks.cpg/sg44_12_cif.got.tgz:23179.got - 2010.06.03 19:37:08.
