data_PCOD9373411
_publ_section_title
;
Structure prediction by ZEFSAII (Michael W. Deem and Ramdas Pophale) SiO2 
 PCOD9373411
Probable space group: I M M 2
;
_chemical_formula_sum "Si O2"
_cell_formula_units_Z 36
_cell_length_a 7.651015
_cell_length_b 13.192820
_cell_length_c 22.814793
_cell_angle_alpha 90.000000
_cell_angle_beta 90.000000
_cell_angle_gamma 90.000000
_cell_volume 2302.890155
_symmetry_space_group_name_H-M "I M M 2"
_symmetry_group_IT_number 44
_symmetry_cell_setting 'orthorhombic'
loop_
_space_group_symop_operation_xyz
x,y,z
-x,-y,z
-x,y,z
x,-y,z
1/2+x,1/2+y,1/2+z
1/2-x,1/2-y,1/2+z
1/2-x,1/2+y,1/2+z
1/2+x,1/2-y,1/2+z
loop_
_atom_site_type_symbol
_atom_site_label
_atom_site_fract_x
_atom_site_fract_y
_atom_site_fract_z
Si Si1 0.296330 0.619067 0.047740
Si Si2 0.294710 0.881404 0.784953
Si Si3 0.500000 0.879557 0.211898
Si Si4 0.796433 0.262256 0.165559
Si Si5 0.500000 0.879389 0.453560
Si Si6 0.000000 0.740768 0.832864
O O1 0.500000 0.632201 0.032836
O O2 0.267727 0.500000 0.062465
O O3 0.250046 0.685921 0.104128
O O4 0.168773 0.642901 0.993874
O O5 0.500000 0.867523 0.798891
O O6 0.269013 0.843600 0.718004
O O7 0.168971 0.812151 0.823865
O O8 0.252141 0.000000 0.789899
O O9 0.331313 0.830208 0.180577
O O10 0.500000 0.838715 0.278801
O O11 0.500000 0.000000 0.209719
O O12 0.000000 0.233067 0.166113
O O13 0.500000 0.816236 0.394233
O O14 0.500000 0.000000 0.440711
#
# Coordination Sequence:
#
# PCOD9373411 Si02
#       6
#     8   8   4   8   4   4
#     4  10  19  31  51  80 107 131 161 206 263 314
#     4   9  18  31  51  80 108 131 161 209 261 306
#     4  10  21  35  51  74 105 138 175 215 249 294
#     4  10  18  31  53  80 106 133 163 205 265 315
#     4  10  21  35  51  74 105 138 173 211 249 298
#     4  10  20  34  52  74 100 144 178 204 244 302
#
# _framework density 15.632531
#
# number of rings (size 3 to 8) (size 9 to 14) (size 15 to 20)
#    0.000    2.222    2.222    1.333    0.000    2.222 
#    0.000    0.000    0.000    6.667    0.000    0.000 
#    0.000    0.000    0.000    0.000    0.000    0.000 
#
# Total GULP energy -100405.079224 kJ/mol
# GULP energy per Si atom -5578.059957 kJ/mol
# Density = 1.559695 g / cm^3
# Si number density = 15.632531 Si / 1000 Ang^3
#
#
#
# Elastic Constant Matrix: (Units=GPa)
#
#
# Indices 1 2 3 4 5 6 
#
# 1 122.2028 80.8853 77.0671 0.0000 0.0000 0.0000
# 2 80.8853 127.9399 83.1357 0.0000 0.0000 0.0000
# 3 77.0671 83.1357 127.4162 0.0000 0.0000 0.0000
# 4 0.0000 0.0000 0.0000 21.7970 0.0000 0.0000
# 5 0.0000 0.0000 0.0000 0.0000 16.8043 0.0000
# 6 0.0000 0.0000 0.0000 0.0000 0.0000 12.6819
#
#
#
# Elastic Compliance Matrix: (Units=1/GPa)
#
#
# Indices 1 2 3 4 5 6 
#
# 1 0.015903 -0.006603 -0.005310 0.000000 0.000000 0.000000
# 2 -0.006603 0.016311 -0.006649 0.000000 0.000000 0.000000
# 3 -0.005310 -0.006649 0.015398 0.000000 0.000000 0.000000
# 4 0.000000 0.000000 0.000000 0.045878 0.000000 0.000000
# 5 0.000000 0.000000 0.000000 0.000000 0.059509 0.000000
# 6 0.000000 0.000000 0.000000 0.000000 0.000000 0.078853
#
#
# Mechanical properties :
#
#
# Convention : Reuss Voigt Hill
#
# Bulk Modulus (GPa) = 95.34884 95.52612 95.43748
# Shear Modulus (GPa) = 18.35055 19.35468 18.85262
#
# Velocity S-wave (km/s) = 3.42990 3.52249 3.47650
# Velocity P-wave (km/s) = 8.76424 8.81951 8.79192
#
# Compressibility (1/GPa) = 0.01048780
#
# Stress axis : x y z
#
# Youngs Moduli (GPa) = 62.88250 61.30772 64.94273
#
# Poissons Ratio (x) = 0.40483 0.34486
# Poissons Ratio (y) = 0.41523 0.43178
# Poissons Ratio (z) = 0.33392 0.40761
#
# Static dielectric constant tensor:
#      x y z
#    x 1.538810 0.000000 0.000000 
#    y 0.000000 1.490550 0.000000 
#    z 0.000000 0.000000 1.487030 
# 
# From -- ./inp_files/22702.got.cif
#   From: 2010.05.17/outbox.cif.g08.bks.cpg/sg44_12_cif.got.tgz:22702.got - 2010.06.03 19:37:08.
