data_PCOD9373488
_publ_section_title
;
Structure prediction by ZEFSAII (Michael W. Deem and Ramdas Pophale) SiO2 
 PCOD9373488
Probable space group: I M M 2
;
_chemical_formula_sum "Si O2"
_cell_formula_units_Z 64
_cell_length_a 15.755851
_cell_length_b 17.043277
_cell_length_c 12.295937
_cell_angle_alpha 90.000000
_cell_angle_beta 90.000000
_cell_angle_gamma 90.000000
_cell_volume 3301.844353
_symmetry_space_group_name_H-M "I M M 2"
_symmetry_group_IT_number 44
_symmetry_cell_setting 'orthorhombic'
loop_
_space_group_symop_operation_xyz
x,y,z
-x,-y,z
-x,y,z
x,-y,z
1/2+x,1/2+y,1/2+z
1/2-x,1/2-y,1/2+z
1/2-x,1/2+y,1/2+z
1/2+x,1/2-y,1/2+z
loop_
_atom_site_type_symbol
_atom_site_label
_atom_site_fract_x
_atom_site_fract_y
_atom_site_fract_z
Si Si1 0.599514 0.829383 0.884290
Si Si2 0.096853 0.411696 0.167619
Si Si3 0.397084 0.090681 0.102063
Si Si4 0.666766 0.330523 0.825268
Si Si5 0.768254 0.344915 0.020543
Si Si6 0.601447 0.587105 0.609940
Si Si7 0.398664 0.714208 0.429212
Si Si8 0.324233 0.752355 0.207821
O O1 0.500000 0.846010 0.886832
O O2 0.627049 0.858229 0.766440
O O3 0.612129 0.736166 0.886527
O O4 0.635752 0.879918 0.983537
O O5 0.091413 0.500000 0.208639
O O6 0.168822 0.405293 0.077702
O O7 0.000000 0.388871 0.133135
O O8 0.500000 0.089254 0.103219
O O9 0.369077 0.164791 0.175836
O O10 0.369958 0.000000 0.126057
O O11 0.623219 0.376980 0.727846
O O12 0.738792 0.280643 0.765158
O O13 0.713144 0.377936 0.920845
O O14 0.705704 0.300878 0.106134
O O15 0.836332 0.282136 0.972955
O O16 0.500000 0.582552 0.605338
O O17 0.638343 0.500000 0.600685
O O18 0.625155 0.641525 0.507669
O O19 0.500000 0.729817 0.442919
O O20 0.378100 0.707378 0.300716
#
# Coordination Sequence:
#
# PCOD9373488 Si02
#       8
#     8   8   8   8   8   8   8   8
#     4  10  18  32  56  84 114 153 195 235 287 353
#     4  10  20  35  56  83 117 157 200 244 292 351
#     4  10  21  37  57  86 123 158 193 237 294 360
#     4  11  21  35  57  83 117 152 192 245 294 346
#     4  11  21  36  58  84 119 155 197 239 295 362
#     4  10  21  39  62  86 111 149 203 254 300 350
#     4  10  21  39  61  83 115 157 200 248 293 350
#     4  11  21  36  57  87 118 153 197 242 292 357
#
# _framework density 19.383106999999999
#
# number of rings (size 3 to 8) (size 9 to 14) (size 15 to 20)
#    0.000    1.625    3.750    1.500    0.000    4.500 
#    0.000    2.500    0.000    6.750    0.000    1.750 
#    0.000    0.000    0.000    0.000    0.000    0.000 
#
# Total GULP energy -178188.443676 kJ/mol
# GULP energy per Si atom -5568.388865 kJ/mol
# Density = 1.933899 g / cm^3
# Si number density = 19.383107 Si / 1000 Ang^3
#
#
#
# Elastic Constant Matrix: (Units=GPa)
#
#
# Indices 1 2 3 4 5 6 
#
# 1 35.1837 24.6299 26.2097 0.0000 0.0000 0.0000
# 2 24.6299 71.7251 27.3290 0.0000 0.0000 0.0000
# 3 26.2097 27.3290 94.8366 0.0000 0.0000 0.0000
# 4 0.0000 0.0000 0.0000 21.2428 0.0000 0.0000
# 5 0.0000 0.0000 0.0000 0.0000 61.7618 0.0000
# 6 0.0000 0.0000 0.0000 0.0000 0.0000 12.6759
#
#
#
# Elastic Compliance Matrix: (Units=1/GPa)
#
#
# Indices 1 2 3 4 5 6 
#
# 1 0.042785 -0.011443 -0.008527 0.000000 0.000000 0.000000
# 2 -0.011443 0.018722 -0.002233 0.000000 0.000000 0.000000
# 3 -0.008527 -0.002233 0.013544 0.000000 0.000000 0.000000
# 4 0.000000 0.000000 0.000000 0.047075 0.000000 0.000000
# 5 0.000000 0.000000 0.000000 0.000000 0.016191 0.000000
# 6 0.000000 0.000000 0.000000 0.000000 0.000000 0.078890
#
#
# Mechanical properties :
#
#
# Convention : Reuss Voigt Hill
#
# Bulk Modulus (GPa) = 32.63033 39.78696 36.20865
# Shear Modulus (GPa) = 18.39401 27.37455 22.88428
#
# Velocity S-wave (km/s) = 3.08388 3.76212 3.43976
# Velocity P-wave (km/s) = 5.43612 6.28033 5.87341
#
# Compressibility (1/GPa) = 0.03064633
#
# Stress axis : x y z
#
# Youngs Moduli (GPa) = 23.37285 53.41222 73.83147
#
# Poissons Ratio (x) = 0.61120 0.62954
# Poissons Ratio (y) = 0.26746 0.16484
# Poissons Ratio (z) = 0.19929 0.11925
#
# Static dielectric constant tensor:
#      x y z
#    x 1.698270 0.000000 0.000000 
#    y 0.000000 1.680070 0.000000 
#    z 0.000000 0.000000 1.764120 
# 
# From -- ./inp_files/13452.got.cif
#   From: 2010.05.17/outbox.cif.g08.bks.cpg/sg44_7_cif.got.tgz:13452.got - 2010.06.03 19:37:08.
