data_PCOD9373993
_publ_section_title
;
Structure prediction by ZEFSAII (Michael W. Deem and Ramdas Pophale) SiO2 
 PCOD9373993
Probable space group: I M M 2
;
_chemical_formula_sum "Si O2"
_cell_formula_units_Z 64
_cell_length_a 9.554873
_cell_length_b 14.717615
_cell_length_c 24.051779
_cell_angle_alpha 90.000000
_cell_angle_beta 90.000000
_cell_angle_gamma 90.000000
_cell_volume 3382.280031
_symmetry_space_group_name_H-M "I M M 2"
_symmetry_group_IT_number 44
_symmetry_cell_setting 'orthorhombic'
loop_
_space_group_symop_operation_xyz
x,y,z
-x,-y,z
-x,y,z
x,-y,z
1/2+x,1/2+y,1/2+z
1/2-x,1/2-y,1/2+z
1/2-x,1/2+y,1/2+z
1/2+x,1/2-y,1/2+z
loop_
_atom_site_type_symbol
_atom_site_label
_atom_site_fract_x
_atom_site_fract_y
_atom_site_fract_z
Si Si1 0.665342 0.098129 0.934440
Si Si2 0.334370 0.106109 0.443297
Si Si3 0.156925 0.395811 0.681519
Si Si4 0.165759 0.260953 0.235680
Si Si5 0.238480 0.101401 0.059865
Si Si6 0.657890 0.195167 0.560875
Si Si7 0.666600 0.270817 0.866395
Si Si8 0.666191 0.608637 0.160104
O O1 0.500000 0.096083 0.922891
O O2 0.721379 0.183515 0.900824
O O3 0.725933 0.000000 0.917707
O O4 0.685179 0.106573 0.000521
O O5 0.500000 0.117810 0.433074
O O6 0.299964 0.161583 0.499461
O O7 0.247465 0.144018 0.391684
O O8 0.306959 0.000000 0.453021
O O9 0.182274 0.500000 0.699286
O O10 0.270989 0.327162 0.704999
O O11 0.165496 0.395313 0.614537
O O12 0.000000 0.368968 0.698859
O O13 0.186006 0.246734 0.301305
O O14 0.251990 0.345898 0.211544
O O15 0.000000 0.270836 0.224319
O O16 0.154624 0.195417 0.062993
O O17 0.170285 0.000000 0.061560
O O18 0.500000 0.160747 0.571880
O O19 0.764221 0.155235 0.606014
O O20 0.500000 0.281670 0.876304
O O21 0.500000 0.627941 0.162467
O O22 0.684997 0.500000 0.158187
#
# Coordination Sequence:
#
# PCOD9373993 Si02
#       8
#     8   8   8   8   8   8   8   8
#     4   9  17  32  56  85 116 149 185 231 289 351
#     4  10  22  40  61  87 121 160 200 244 298 359
#     4  10  21  37  59  88 120 155 196 243 298 359
#     4  11  24  40  60  88 120 158 201 251 305 352
#     4  10  19  32  58  93 124 151 187 236 296 358
#     4  11  22  38  62  92 127 162 194 240 304 367
#     4  10  22  39  60  87 117 152 200 249 292 344
#     4  11  25  43  64  90 119 156 204 254 302 358
#
# _framework density 18.922146000000001
#
# number of rings (size 3 to 8) (size 9 to 14) (size 15 to 20)
#    0.000    1.750    2.500    1.500    0.000    6.750 
#    0.000    5.000    0.000    0.375    0.000    0.000 
#    0.000    0.000    0.000    0.000    0.000    0.000 
#
# Total GULP energy -178507.458939 kJ/mol
# GULP energy per Si atom -5578.358092 kJ/mol
# Density = 1.887908 g / cm^3
# Si number density = 18.922146 Si / 1000 Ang^3
#
#
#
# Elastic Constant Matrix: (Units=GPa)
#
#
# Indices 1 2 3 4 5 6 
#
# 1 84.6909 55.6276 46.0455 0.0000 0.0000 0.0000
# 2 55.6276 126.0323 49.9463 0.0000 0.0000 0.0000
# 3 46.0455 49.9463 89.0293 0.0000 0.0000 0.0000
# 4 0.0000 0.0000 0.0000 13.5688 0.0000 0.0000
# 5 0.0000 0.0000 0.0000 0.0000 20.8244 0.0000
# 6 0.0000 0.0000 0.0000 0.0000 0.0000 21.5738
#
#
#
# Elastic Compliance Matrix: (Units=1/GPa)
#
#
# Indices 1 2 3 4 5 6 
#
# 1 0.019298 -0.005867 -0.006690 0.000000 0.000000 0.000000
# 2 -0.005867 0.011986 -0.003690 0.000000 0.000000 0.000000
# 3 -0.006690 -0.003690 0.016762 0.000000 0.000000 0.000000
# 4 0.000000 0.000000 0.000000 0.073698 0.000000 0.000000
# 5 0.000000 0.000000 0.000000 0.000000 0.048021 0.000000
# 6 0.000000 0.000000 0.000000 0.000000 0.000000 0.046352
#
#
# Mechanical properties :
#
#
# Convention : Reuss Voigt Hill
#
# Bulk Modulus (GPa) = 64.29319 66.99903 65.64611
# Shear Modulus (GPa) = 19.70089 21.06895 20.38492
#
# Velocity S-wave (km/s) = 3.23019 3.34047 3.28579
# Velocity P-wave (km/s) = 6.92558 7.09668 7.01165
#
# Compressibility (1/GPa) = 0.01555375
#
# Stress axis : x y z
#
# Youngs Moduli (GPa) = 51.81856 83.42857 59.65742
#
# Poissons Ratio (x) = 0.48944 0.39909
# Poissons Ratio (y) = 0.30400 0.22015
# Poissons Ratio (z) = 0.34665 0.30787
#
# Static dielectric constant tensor:
#      x y z
#    x 1.642070 0.000000 0.000000 
#    y 0.000000 1.679090 0.000000 
#    z 0.000000 0.000000 1.637240 
# 
# From -- ./inp_files/25152.got.cif
#   From: 2010.05.17/outbox.cif.g08.bks.cpg/sg44_13_cif.got.tgz:25152.got - 2010.06.03 19:37:08.
