data_PCOD9373795
_publ_section_title
;
Structure prediction by ZEFSAII (Michael W. Deem and Ramdas Pophale) SiO2 
 PCOD9373795
Probable space group: I M M 2
;
_chemical_formula_sum "Si O2"
_cell_formula_units_Z 64
_cell_length_a 9.229342
_cell_length_b 21.337075
_cell_length_c 15.705044
_cell_angle_alpha 90.000000
_cell_angle_beta 90.000000
_cell_angle_gamma 90.000000
_cell_volume 3092.749751
_symmetry_space_group_name_H-M "I M M 2"
_symmetry_group_IT_number 44
_symmetry_cell_setting 'orthorhombic'
loop_
_space_group_symop_operation_xyz
x,y,z
-x,-y,z
-x,y,z
x,-y,z
1/2+x,1/2+y,1/2+z
1/2-x,1/2-y,1/2+z
1/2-x,1/2+y,1/2+z
1/2+x,1/2-y,1/2+z
loop_
_atom_site_type_symbol
_atom_site_label
_atom_site_fract_x
_atom_site_fract_y
_atom_site_fract_z
Si Si1 0.670089 0.426093 0.657600
Si Si2 0.834854 0.576177 0.481863
Si Si3 0.167181 0.232112 0.586341
Si Si4 0.172005 0.610148 0.140919
Si Si5 0.166020 0.677549 0.744252
Si Si6 0.829785 0.205528 0.400564
Si Si7 0.172686 0.067826 0.474629
Si Si8 0.834113 0.924231 0.814050
O O1 0.500000 0.412730 0.650503
O O2 0.688460 0.500000 0.673507
O O3 0.749173 0.411048 0.568543
O O4 0.740382 0.384664 0.730987
O O5 0.842246 0.500000 0.476092
O O6 0.748992 0.598255 0.398588
O O7 0.000000 0.600020 0.485237
O O8 0.279911 0.180577 0.618016
O O9 0.171717 0.287432 0.653728
O O10 0.197269 0.244768 0.486829
O O11 0.000000 0.206934 0.587773
O O12 0.241529 0.571248 0.063342
O O13 0.246056 0.592988 0.229894
O O14 0.000000 0.602403 0.144818
O O15 0.234273 0.719724 0.818579
O O16 0.000000 0.663001 0.764165
O O17 0.795757 0.132672 0.425661
O O18 0.000000 0.210143 0.379777
O O19 0.000000 0.069510 0.491314
O O20 0.203982 0.000000 0.432784
O O21 0.000000 0.901211 0.810225
O O22 0.839722 0.000000 0.818676
#
# Coordination Sequence:
#
# PCOD9373795 Si02
#       8
#     8   8   8   8   8   8   8   8
#     4  10  21  38  60  86 118 157 196 233 283 352
#     4   9  17  31  51  76 109 146 186 237 290 336
#     4   9  21  43  63  80 112 156 195 239 296 356
#     4  11  21  32  51  80 112 148 193 249 300 345
#     4  11  23  40  64  92 119 151 193 246 300 348
#     4   9  19  38  62  86 116 155 197 241 289 351
#     4   9  18  34  56  81 114 158 198 232 284 354
#     4  10  19  31  49  74 109 154 199 241 292 356
#
# _framework density 20.693560000000002
#
# number of rings (size 3 to 8) (size 9 to 14) (size 15 to 20)
#    0.000    2.250    0.000    3.750    0.000    8.250 
#    2.250    1.250    0.000    0.000    0.000    0.000 
#    0.000    0.000    0.000    0.000    0.000    0.000 
#
# Total GULP energy -178688.369251 kJ/mol
# GULP energy per Si atom -5584.011539 kJ/mol
# Density = 2.064646 g / cm^3
# Si number density = 20.693560 Si / 1000 Ang^3
#
#
#
# Elastic Constant Matrix: (Units=GPa)
#
#
# Indices 1 2 3 4 5 6 
#
# 1 103.0841 15.1462 56.4011 0.0000 0.0000 0.0000
# 2 15.1462 14.1544 6.4412 0.0000 0.0000 0.0000
# 3 56.4011 6.4412 118.3538 0.0000 0.0000 0.0000
# 4 0.0000 0.0000 0.0000 20.9129 0.0000 0.0000
# 5 0.0000 0.0000 0.0000 0.0000 30.4479 0.0000
# 6 0.0000 0.0000 0.0000 0.0000 0.0000 10.7642
#
#
#
# Elastic Compliance Matrix: (Units=1/GPa)
#
#
# Indices 1 2 3 4 5 6 
#
# 1 0.015234 -0.013328 -0.006535 0.000000 0.000000 0.000000
# 2 -0.013328 0.084104 0.001774 0.000000 0.000000 0.000000
# 3 -0.006535 0.001774 0.011467 0.000000 0.000000 0.000000
# 4 0.000000 0.000000 0.000000 0.047817 0.000000 0.000000
# 5 0.000000 0.000000 0.000000 0.000000 0.032843 0.000000
# 6 0.000000 0.000000 0.000000 0.000000 0.000000 0.092901
#
#
# Mechanical properties :
#
#
# Convention : Reuss Voigt Hill
#
# Bulk Modulus (GPa) = 13.39970 43.50768 28.45369
# Shear Modulus (GPa) = 14.47514 22.93190 18.70352
#
# Velocity S-wave (km/s) = 2.64767 3.33252 3.00964
# Velocity P-wave (km/s) = 3.97948 5.98983 5.08499
#
# Compressibility (1/GPa) = 0.07462852
#
# Stress axis : x y z
#
# Youngs Moduli (GPa) = 65.64082 11.88998 87.20915
#
# Poissons Ratio (x) = 0.15847 0.56987
# Poissons Ratio (y) = 0.87488 -0.15474
# Poissons Ratio (z) = 0.42893 -0.02110
#
# Static dielectric constant tensor:
#      x y z
#    x 1.698930 0.000000 0.000000 
#    y 0.000000 1.791340 0.000000 
#    z 0.000000 0.000000 1.725670 
# 
# From -- ./inp_files/16881.got.cif
#   From: 2010.05.17/outbox.cif.g08.bks.cpg/sg44_9_cif.got.tgz:16881.got - 2010.06.03 19:37:08.
