data_PCOD9373158
_publ_section_title
;
Structure prediction by ZEFSAII (Michael W. Deem and Ramdas Pophale) SiO2 
 PCOD9373158
Probable space group: I M M 2
;
_chemical_formula_sum "Si O2"
_cell_formula_units_Z 64
_cell_length_a 9.002688
_cell_length_b 27.074967
_cell_length_c 18.446806
_cell_angle_alpha 90.000000
_cell_angle_beta 90.000000
_cell_angle_gamma 90.000000
_cell_volume 4496.362486
_symmetry_space_group_name_H-M "I M M 2"
_symmetry_group_IT_number 44
_symmetry_cell_setting 'orthorhombic'
loop_
_space_group_symop_operation_xyz
x,y,z
-x,-y,z
-x,y,z
x,-y,z
1/2+x,1/2+y,1/2+z
1/2-x,1/2-y,1/2+z
1/2-x,1/2+y,1/2+z
1/2+x,1/2-y,1/2+z
loop_
_atom_site_type_symbol
_atom_site_label
_atom_site_fract_x
_atom_site_fract_y
_atom_site_fract_z
Si Si1 0.175381 0.241828 0.018390
Si Si2 0.322270 0.557400 0.517480
Si Si3 0.170498 0.201111 0.639776
Si Si4 0.321368 0.644866 0.278260
Si Si5 0.322968 0.236893 0.862575
Si Si6 0.670451 0.798101 0.243449
Si Si7 0.823112 0.146291 0.119325
Si Si8 0.676385 0.058173 0.862476
O O1 0.226783 0.285394 0.072369
O O2 0.204394 0.190629 0.061792
O O3 0.000000 0.244474 0.003611
O O4 0.265752 0.242424 0.944207
O O5 0.500000 0.562887 0.505208
O O6 0.293257 0.500000 0.535377
O O7 0.280001 0.595314 0.580631
O O8 0.238536 0.569401 0.442863
O O9 0.216383 0.157694 0.694680
O O10 0.171658 0.249511 0.691703
O O11 0.000000 0.193569 0.616016
O O12 0.500000 0.647690 0.284944
O O13 0.249395 0.687496 0.328213
O O14 0.259755 0.593111 0.306069
O O15 0.500000 0.233315 0.859381
O O16 0.265446 0.282126 0.812872
O O17 0.500000 0.807982 0.263376
O O18 0.738838 0.840610 0.193177
O O19 0.000000 0.145935 0.133310
O O20 0.500000 0.066994 0.860163
O O21 0.703691 0.000000 0.849362
#
# Coordination Sequence:
#
# PCOD9373158 Si02
#       8
#     8   8   8   8   8   8   8   8
#     4  10  18  27  41  61  85 112 142 174 207 248
#     4   9  17  29  44  61  84 115 148 181 215 250
#     4   8  16  29  42  58  80 106 137 173 210 248
#     4  10  19  31  46  62  83 112 145 177 210 251
#     4  11  20  29  43  62  86 113 141 174 210 248
#     4   9  17  29  43  59  81 108 139 173 209 250
#     4   9  17  28  42  60  82 110 144 177 210 248
#     4  10  20  31  43  62  87 113 144 181 215 247
#
# _framework density 14.233727
#
# number of rings (size 3 to 8) (size 9 to 14) (size 15 to 20)
#    0.000    2.500    0.000    4.125    0.000    6.250 
#    0.000    0.000    0.000    0.000    0.000    0.000 
#    0.000    1.000    0.000    5.250    0.000    4.250 
#
# Total GULP energy -178371.013441 kJ/mol
# GULP energy per Si atom -5574.094170 kJ/mol
# Density = 1.420133 g / cm^3
# Si number density = 14.233727 Si / 1000 Ang^3
#
#
#
# Elastic Constant Matrix: (Units=GPa)
#
#
# Indices 1 2 3 4 5 6 
#
# 1 73.5259 32.4987 45.6962 0.0000 0.0000 0.0000
# 2 32.4987 54.4167 29.0538 0.0000 0.0000 0.0000
# 3 45.6962 29.0538 60.4230 -0.0001 0.0000 0.0000
# 4 0.0000 0.0000 -0.0001 27.5877 0.0000 0.0000
# 5 0.0000 0.0000 0.0000 0.0000 25.5025 0.0000
# 6 0.0000 0.0000 0.0000 0.0000 0.0000 18.5476
#
#
#
# Elastic Compliance Matrix: (Units=1/GPa)
#
#
# Indices 1 2 3 4 5 6 
#
# 1 0.027603 -0.007184 -0.017421 0.000000 0.000000 0.000000
# 2 -0.007184 0.026594 -0.007354 0.000000 0.000000 0.000000
# 3 -0.017421 -0.007354 0.033261 0.000000 0.000000 0.000000
# 4 0.000000 0.000000 0.000000 0.036248 0.000000 0.000000
# 5 0.000000 0.000000 0.000000 0.000000 0.039212 0.000000
# 6 0.000000 0.000000 0.000000 0.000000 0.000000 0.053915
#
#
# Mechanical properties :
#
#
# Convention : Reuss Voigt Hill
#
# Bulk Modulus (GPa) = 42.48190 44.76256 43.62223
# Shear Modulus (GPa) = 17.32511 19.73537 18.53024
#
# Velocity S-wave (km/s) = 3.49261 3.72764 3.61204
# Velocity P-wave (km/s) = 6.79523 7.07415 6.93609
#
# Compressibility (1/GPa) = 0.02353944
#
# Stress axis : x y z
#
# Youngs Moduli (GPa) = 36.22778 37.60313 30.06479
#
# Poissons Ratio (x) = 0.27013 0.52377
# Poissons Ratio (y) = 0.26025 0.22111
# Poissons Ratio (z) = 0.63113 0.27655
#
# Static dielectric constant tensor:
#      x y z
#    x 1.475760 0.000000 0.000000 
#    y 0.000000 1.465470 0.000000 
#    z 0.000000 0.000000 1.455090 
# 
# From -- ./inp_files/20887.got.cif
#   From: 2010.05.17/outbox.cif.g08.bks.cpg/sg44_11_cif.got.tgz:20887.got - 2010.06.03 19:37:08.
