data_PCOD9373389
_publ_section_title
;
Structure prediction by ZEFSAII (Michael W. Deem and Ramdas Pophale) SiO2 
 PCOD9373389
Probable space group: I M M 2
;
_chemical_formula_sum "Si O2"
_cell_formula_units_Z 64
_cell_length_a 8.683928
_cell_length_b 31.202634
_cell_length_c 14.784096
_cell_angle_alpha 90.000000
_cell_angle_beta 90.000000
_cell_angle_gamma 90.000000
_cell_volume 4005.919750
_symmetry_space_group_name_H-M "I M M 2"
_symmetry_group_IT_number 44
_symmetry_cell_setting 'orthorhombic'
loop_
_space_group_symop_operation_xyz
x,y,z
-x,-y,z
-x,y,z
x,-y,z
1/2+x,1/2+y,1/2+z
1/2-x,1/2-y,1/2+z
1/2-x,1/2+y,1/2+z
1/2+x,1/2-y,1/2+z
loop_
_atom_site_type_symbol
_atom_site_label
_atom_site_fract_x
_atom_site_fract_y
_atom_site_fract_z
Si Si1 0.323394 0.326404 0.441130
Si Si2 0.814666 0.792135 0.614553
Si Si3 0.812124 0.951734 0.828303
Si Si4 0.821198 0.275854 0.922498
Si Si5 0.684943 0.633457 0.245247
Si Si6 0.314481 0.549246 0.538828
Si Si7 0.183045 0.789600 0.224585
Si Si8 0.179550 0.633561 0.613581
O O1 0.500000 0.339313 0.465241
O O2 0.317040 0.275417 0.436407
O O3 0.290422 0.344080 0.341927
O O4 0.211033 0.344768 0.516034
O O5 0.760249 0.794246 0.511309
O O6 0.757647 0.834215 0.668808
O O7 0.753001 0.749360 0.664697
O O8 0.000000 0.790338 0.618901
O O9 0.756525 0.914827 0.760533
O O10 0.000000 0.951310 0.827033
O O11 0.762247 0.000000 0.806363
O O12 0.770504 0.942497 0.933257
O O13 0.741853 0.285894 0.827271
O O14 0.000000 0.288943 0.918905
O O15 0.500000 0.630533 0.231999
O O16 0.500000 0.551851 0.543186
O O17 0.270519 0.500000 0.559639
O O18 0.243232 0.585463 0.602333
O O19 0.234406 0.835007 0.182821
O O20 0.000000 0.785802 0.220725
O O21 0.000000 0.633116 0.634721
#
# Coordination Sequence:
#
# PCOD9373389 Si02
#       8
#     8   8   8   8   8   8   8   8
#     4  10  18  31  50  71 101 137 172 209 253 302
#     4  11  21  34  51  75 103 135 173 212 258 312
#     4   8  13  23  44  73 100 130 169 208 245 291
#     4  11  22  37  53  72 100 136 173 217 261 306
#     4   9  16  28  47  70 100 134 168 207 248 295
#     4   9  17  31  52  75 101 135 174 213 257 310
#     4  12  24  37  53  73 100 135 175 219 259 306
#     4  12  23  33  49  75 106 140 176 213 255 313
#
# _framework density 15.976357
#
# number of rings (size 3 to 8) (size 9 to 14) (size 15 to 20)
#    0.000    1.750    3.750    3.750    0.000    0.750 
#    0.000    0.000    0.000    0.000    0.000    0.875 
#    0.000    5.000    0.000    0.000    0.000    0.000 
#
# Total GULP energy -178508.145805 kJ/mol
# GULP energy per Si atom -5578.379556 kJ/mol
# Density = 1.593999 g / cm^3
# Si number density = 15.976357 Si / 1000 Ang^3
#
#
#
# Elastic Constant Matrix: (Units=GPa)
#
#
# Indices 1 2 3 4 5 6 
#
# 1 66.3990 26.9672 30.9309 0.0000 0.0000 0.0003
# 2 26.9672 100.1639 50.7249 -0.0001 0.0000 0.0006
# 3 30.9309 50.7249 77.5371 0.0002 0.0000 -0.0003
# 4 0.0000 -0.0001 0.0002 23.1048 0.0000 -0.0005
# 5 0.0000 0.0000 0.0000 0.0000 21.8388 0.0001
# 6 0.0003 0.0006 -0.0003 -0.0005 0.0001 39.2292
#
#
#
# Elastic Compliance Matrix: (Units=1/GPa)
#
#
# Indices 1 2 3 4 5 6 
#
# 1 0.018732 -0.001883 -0.006241 0.000000 0.000000 0.000000
# 2 -0.001883 0.015119 -0.009140 0.000000 0.000000 0.000000
# 3 -0.006241 -0.009140 0.021366 0.000000 0.000000 0.000000
# 4 0.000000 0.000000 0.000000 0.043281 0.000000 0.000001
# 5 0.000000 0.000000 0.000000 0.000000 0.045790 0.000000
# 6 0.000000 0.000000 0.000000 0.000001 0.000000 0.025491
#
#
# Mechanical properties :
#
#
# Convention : Reuss Voigt Hill
#
# Bulk Modulus (GPa) = 48.33188 51.26065 49.79626
# Shear Modulus (GPa) = 23.67380 25.86635 24.77008
#
# Velocity S-wave (km/s) = 3.85359 4.02809 3.94181
# Velocity P-wave (km/s) = 7.07941 7.33410 7.20788
#
# Compressibility (1/GPa) = 0.02069028
#
# Stress axis : x y z
#
# Youngs Moduli (GPa) = 53.38347 66.14125 46.80335
#
# Poissons Ratio (x) = 0.12453 0.29210
# Poissons Ratio (y) = 0.10051 0.42778
# Poissons Ratio (z) = 0.33316 0.60452
#
# Static dielectric constant tensor:
#      x y z
#    x 1.543380 0.000000 0.000000 
#    y 0.000000 1.561460 0.000000 
#    z 0.000000 0.000000 1.513510 
# 
# From -- ./inp_files/17125.got.cif
#   From: 2010.05.17/outbox.cif.g08.bks.cpg/sg44_9_cif.got.tgz:17125.got - 2010.06.03 19:37:08.
