data_PCOD9373865
_publ_section_title
;
Structure prediction by ZEFSAII (Michael W. Deem and Ramdas Pophale) SiO2 
 PCOD9373865
Probable space group: I M M 2
;
_chemical_formula_sum "Si O2"
_cell_formula_units_Z 64
_cell_length_a 17.907748
_cell_length_b 9.024200
_cell_length_c 21.025402
_cell_angle_alpha 90.000000
_cell_angle_beta 90.000000
_cell_angle_gamma 90.000000
_cell_volume 3397.770131
_symmetry_space_group_name_H-M "I M M 2"
_symmetry_group_IT_number 44
_symmetry_cell_setting 'orthorhombic'
loop_
_space_group_symop_operation_xyz
x,y,z
-x,-y,z
-x,y,z
x,-y,z
1/2+x,1/2+y,1/2+z
1/2-x,1/2-y,1/2+z
1/2-x,1/2+y,1/2+z
1/2+x,1/2-y,1/2+z
loop_
_atom_site_type_symbol
_atom_site_label
_atom_site_fract_x
_atom_site_fract_y
_atom_site_fract_z
Si Si1 0.621880 0.670936 0.260860
Si Si2 0.134676 0.821745 0.898720
Si Si3 0.416336 0.677144 0.537939
Si Si4 0.803549 0.669839 0.270866
Si Si5 0.416474 0.675901 0.005034
Si Si6 0.297275 0.676664 0.898642
Si Si7 0.634575 0.176334 0.131776
Si Si8 0.701923 0.177483 0.629741
O O1 0.598675 0.500000 0.251810
O O2 0.598943 0.725116 0.331168
O O3 0.712833 0.673301 0.265334
O O4 0.602324 0.764056 0.198744
O O5 0.216356 0.750746 0.906721
O O6 0.143508 0.000000 0.893459
O O7 0.090083 0.790340 0.962770
O O8 0.500000 0.712620 0.559992
O O9 0.404156 0.500000 0.545494
O O10 0.354085 0.765241 0.576449
O O11 0.824480 0.500000 0.284672
O O12 0.825744 0.772267 0.329346
O O13 0.830036 0.711202 0.200331
O O14 0.500000 0.696233 0.978908
O O15 0.406140 0.500000 0.017688
O O16 0.408570 0.762505 0.070806
O O17 0.353799 0.722284 0.954400
O O18 0.289557 0.500000 0.900249
O O19 0.718305 0.242513 0.124607
O O20 0.636915 0.000000 0.132418
O O21 0.713242 0.000000 0.626006
#
# Coordination Sequence:
#
# PCOD9373865 Si02
#       8
#     8   8   8   8   8   8   8   8
#     4   8  15  30  51  75 103 134 169 208 253 307
#     4   9  18  33  53  76 104 137 170 206 253 310
#     4  10  21  36  53  76 106 138 175 219 261 300
#     4   8  16  31  51  75 103 133 166 207 253 304
#     4  10  22  39  54  71 102 142 178 211 253 309
#     4  10  19  31  53  81 102 126 168 217 259 302
#     4  11  21  33  54  82 107 132 169 217 263 304
#     4  10  20  35  55  78 105 139 177 211 251 309
#
# _framework density 18.835882000000002
#
# number of rings (size 3 to 8) (size 9 to 14) (size 15 to 20)
#    0.000    2.500    0.000    4.125    0.000    9.000 
#    0.000    1.250    0.000    4.500    0.000    0.000 
#    0.000    0.000    0.000    0.000    0.000    0.000 
#
# Total GULP energy -178526.177501 kJ/mol
# GULP energy per Si atom -5578.943047 kJ/mol
# Density = 1.879301 g / cm^3
# Si number density = 18.835882 Si / 1000 Ang^3
#
#
#
# Elastic Constant Matrix: (Units=GPa)
#
#
# Indices 1 2 3 4 5 6 
#
# 1 46.3222 19.9365 23.5162 0.0000 0.0000 0.0000
# 2 19.9365 40.9409 29.4054 0.0000 0.0000 0.0000
# 3 23.5162 29.4054 95.5711 0.0000 0.0000 0.0000
# 4 0.0000 0.0000 0.0000 33.4419 0.0000 0.0000
# 5 0.0000 0.0000 0.0000 0.0000 -14.3220 0.0000
# 6 0.0000 0.0000 0.0000 0.0000 0.0000 11.9732
#
#
#
# Elastic Compliance Matrix: (Units=1/GPa)
#
#
# Indices 1 2 3 4 5 6 
#
# 1 0.028187 -0.011225 -0.003482 0.000000 0.000000 0.000000
# 2 -0.011225 0.035825 -0.008261 0.000000 0.000000 0.000000
# 3 -0.003482 -0.008261 0.013862 0.000000 0.000000 0.000000
# 4 0.000000 0.000000 0.000000 0.029903 0.000000 0.000000
# 5 0.000000 0.000000 0.000000 0.000000 -0.069823 0.000000
# 6 0.000000 0.000000 0.000000 0.000000 0.000000 0.083520
#
#
# Mechanical properties :
#
#
# Convention : Reuss Voigt Hill
#
# Bulk Modulus (GPa) = 31.31036 36.50563 33.90800
# Shear Modulus (GPa) = 28.08136 13.55034 20.81585
#
# Velocity S-wave (km/s) = 3.86533 2.68505 3.32794
# Velocity P-wave (km/s) = 6.04813 5.38847 5.72781
#
# Compressibility (1/GPa) = 0.03193831
#
# Stress axis : x y z
#
# Youngs Moduli (GPa) = 35.47782 27.91381 72.14075
#
# Poissons Ratio (x) = 0.31333 0.25119
# Poissons Ratio (y) = 0.39823 0.59592
# Poissons Ratio (z) = 0.12353 0.23058
#
# Static dielectric constant tensor:
#      x y z
#    x 1.631720 0.000000 0.000000 
#    y 0.000000 1.625800 0.000000 
#    z 0.000000 0.000000 1.682660 
# 
# From -- ./inp_files/24368.got.cif
#   From: 2010.05.17/outbox.cif.g08.bks.cpg/sg44_13_cif.got.tgz:24368.got - 2010.06.03 19:37:08.
