data_PCOD9373879
_publ_section_title
;
Structure prediction by ZEFSAII (Michael W. Deem and Ramdas Pophale) SiO2 
 PCOD9373879
Probable space group: I M M 2
;
_chemical_formula_sum "Si O2"
_cell_formula_units_Z 48
_cell_length_a 8.594671
_cell_length_b 24.458782
_cell_length_c 14.158266
_cell_angle_alpha 90.000000
_cell_angle_beta 90.000000
_cell_angle_gamma 90.000000
_cell_volume 2976.282497
_symmetry_space_group_name_H-M "I M M 2"
_symmetry_group_IT_number 44
_symmetry_cell_setting 'orthorhombic'
loop_
_space_group_symop_operation_xyz
x,y,z
-x,-y,z
-x,y,z
x,-y,z
1/2+x,1/2+y,1/2+z
1/2-x,1/2-y,1/2+z
1/2-x,1/2+y,1/2+z
1/2+x,1/2-y,1/2+z
loop_
_atom_site_type_symbol
_atom_site_label
_atom_site_fract_x
_atom_site_fract_y
_atom_site_fract_z
Si Si1 0.188382 0.937807 0.386300
Si Si2 0.311280 0.334283 0.001147
Si Si3 0.813341 0.724616 0.392481
Si Si4 0.685256 0.666732 0.572955
Si Si5 0.813638 0.437070 0.675990
Si Si6 0.812910 0.770869 0.683815
O O1 0.242371 0.892043 0.460233
O O2 0.254882 0.925979 0.282448
O O3 0.000000 0.935470 0.380494
O O4 0.232093 0.000000 0.411891
O O5 0.500000 0.335785 0.002722
O O6 0.267304 0.284977 0.930640
O O7 0.261877 0.315569 0.105476
O O8 0.745141 0.682535 0.468804
O O9 0.752909 0.717516 0.286925
O O10 0.000000 0.721400 0.394729
O O11 0.500000 0.670133 0.576235
O O12 0.741054 0.607576 0.607001
O O13 0.754998 0.712643 0.643547
O O14 0.770027 0.500000 0.653551
O O15 0.000000 0.432872 0.673642
O O16 0.000000 0.769852 0.686803
#
# Coordination Sequence:
#
# PCOD9373879 Si02
#       6
#     8   8   8   8   8   8
#     4   9  16  28  48  72  97 127 162 197 235 283
#     4   8  16  29  45  67  95 124 154 193 238 284
#     4  10  19  32  49  70  97 127 161 202 248 295
#     4  11  21  33  50  72  98 128 163 202 245 292
#     4  10  20  33  49  71  99 128 158 197 245 294
#     4  10  19  32  49  70  98 130 164 202 245 292
#
# _framework density 16.127502
#
# number of rings (size 3 to 8) (size 9 to 14) (size 15 to 20)
#    0.000    2.333    0.000    5.000    0.000    2.333 
#    0.000    4.167    0.000    1.000    0.000    2.333 
#    0.000    0.000    0.000    0.000    0.000    0.000 
#
# Total GULP energy -133876.911963 kJ/mol
# GULP energy per Si atom -5578.204665 kJ/mol
# Density = 1.609079 g / cm^3
# Si number density = 16.127502 Si / 1000 Ang^3
#
#
#
# Elastic Constant Matrix: (Units=GPa)
#
#
# Indices 1 2 3 4 5 6 
#
# 1 53.5525 33.4811 36.6589 0.0000 0.0000 0.0000
# 2 33.4811 117.4089 89.4725 0.0000 0.0000 0.0000
# 3 36.6589 89.4725 144.8028 0.0000 0.0000 0.0000
# 4 0.0000 0.0000 0.0000 24.3899 0.0000 0.0000
# 5 0.0000 0.0000 0.0000 0.0000 27.7731 0.0000
# 6 0.0000 0.0000 0.0000 0.0000 0.0000 18.1262
#
#
#
# Elastic Compliance Matrix: (Units=1/GPa)
#
#
# Indices 1 2 3 4 5 6 
#
# 1 0.023594 -0.004113 -0.003432 0.000000 0.000000 0.000000
# 2 -0.004113 0.016814 -0.009348 0.000000 0.000000 0.000000
# 3 -0.003432 -0.009348 0.013551 0.000000 0.000000 0.000000
# 4 0.000000 0.000000 0.000000 0.041001 0.000000 0.000000
# 5 0.000000 0.000000 0.000000 0.000000 0.036006 0.000000
# 6 0.000000 0.000000 0.000000 0.000000 0.000000 0.055169
#
#
# Mechanical properties :
#
#
# Convention : Reuss Voigt Hill
#
# Bulk Modulus (GPa) = 49.57074 70.55437 60.06256
# Shear Modulus (GPa) = 22.06110 24.46794 23.26452
#
# Velocity S-wave (km/s) = 3.70255 3.89929 3.80220
# Velocity P-wave (km/s) = 7.00586 8.00722 7.52321
#
# Compressibility (1/GPa) = 0.02017319
#
# Stress axis : x y z
#
# Youngs Moduli (GPa) = 42.38382 59.47530 73.79717
#
# Poissons Ratio (x) = 0.24462 0.25325
# Poissons Ratio (y) = 0.17433 0.68984
# Poissons Ratio (z) = 0.14545 0.55596
#
# Static dielectric constant tensor:
#      x y z
#    x 1.543350 0.000000 0.000000 
#    y 0.000000 1.541520 0.000000 
#    z 0.000000 0.000000 1.518900 
# 
# From -- ./inp_files/11128.got.cif
#   From: 2010.05.17/outbox.cif.g08.bks.cpg/sg44_6_cif.got.tgz:11128.got - 2010.06.03 19:37:08.
