data_PCOD9373039
_publ_section_title
;
Structure prediction by ZEFSAII (Michael W. Deem and Ramdas Pophale) SiO2 
 PCOD9373039
Probable space group: I M M 2
;
_chemical_formula_sum "Si O2"
_cell_formula_units_Z 64
_cell_length_a 24.058225
_cell_length_b 7.974156
_cell_length_c 13.687371
_cell_angle_alpha 90.000000
_cell_angle_beta 90.000000
_cell_angle_gamma 90.000000
_cell_volume 2625.840539
_symmetry_space_group_name_H-M "I M M 2"
_symmetry_group_IT_number 44
_symmetry_cell_setting 'orthorhombic'
loop_
_space_group_symop_operation_xyz
x,y,z
-x,-y,z
-x,y,z
x,-y,z
1/2+x,1/2+y,1/2+z
1/2-x,1/2-y,1/2+z
1/2-x,1/2+y,1/2+z
1/2+x,1/2-y,1/2+z
loop_
_atom_site_type_symbol
_atom_site_label
_atom_site_fract_x
_atom_site_fract_y
_atom_site_fract_z
Si Si1 0.909386 0.700531 0.233230
Si Si2 0.703495 0.684800 0.668639
Si Si3 0.584162 0.297834 0.936312
Si Si4 0.678036 0.808693 0.464064
Si Si5 0.939770 0.301687 0.657029
Si Si6 0.060413 0.704671 0.011774
Si Si7 0.203744 0.195445 0.455194
Si Si8 0.316895 0.687489 0.189512
O O1 0.902908 0.500000 0.232571
O O2 0.850044 0.794632 0.235193
O O3 0.940935 0.751555 0.331833
O O4 0.935008 0.746843 0.127400
O O5 0.703840 0.500000 0.623755
O O6 0.689679 0.812719 0.581091
O O7 0.762523 0.709317 0.720919
O O8 0.585791 0.500000 0.945390
O O9 0.561908 0.233867 0.039969
O O10 0.646302 0.221124 0.926500
O O11 0.616324 0.733461 0.457319
O O12 0.736219 0.728454 0.430554
O O13 0.675411 0.000000 0.426807
O O14 0.939843 0.500000 0.672231
O O15 0.881011 0.240126 0.701545
O O16 0.000000 0.234570 0.692774
O O17 0.062312 0.500000 0.006086
O O18 0.000000 0.759318 0.974787
O O19 0.194210 0.189612 0.572604
O O20 0.204990 0.000000 0.423165
O O21 0.310928 0.500000 0.226785
#
# Coordination Sequence:
#
# PCOD9373039 Si02
#       8
#     8   8   8   8   8   8   8   8
#     4  10  19  30  42  57  82 114 146 179 215 254
#     4  10  17  26  42  62  82 104 135 174 217 261
#     4  10  19  30  43  59  81 110 146 184 219 254
#     4   8  13  24  41  58  77 102 131 165 209 254
#     4  10  20  32  45  63  88 118 151 183 214 251
#     4   8  14  24  39  58  78 103 136 170 201 238
#     4   7  12  23  39  57  75  97 126 164 209 251
#     4   9  16  28  45  63  83 107 137 174 218 261
#
# _framework density 24.373148
#
# number of rings (size 3 to 8) (size 9 to 14) (size 15 to 20)
#    0.000    3.000    0.000    4.875    0.000    1.500 
#    0.000    1.875    0.000    9.000    0.000    0.000 
#    0.000    1.000    0.000    7.500    0.000    2.750 
#
# Total GULP energy -178224.188580 kJ/mol
# GULP energy per Si atom -5569.505893 kJ/mol
# Density = 2.431767 g / cm^3
# Si number density = 24.373148 Si / 1000 Ang^3
#
#
#
# Elastic Constant Matrix: (Units=GPa)
#
#
# Indices 1 2 3 4 5 6 
#
# 1 254.0682 19.2445 -6.9809 0.0000 0.0000 0.0000
# 2 19.2445 61.7308 -7.6770 0.0000 0.0000 0.0000
# 3 -6.9809 -7.6770 44.4700 0.0000 0.0000 0.0000
# 4 0.0000 0.0000 0.0000 7.0047 0.0000 0.0000
# 5 0.0000 0.0000 0.0000 0.0000 -16.0242 0.0000
# 6 0.0000 0.0000 0.0000 0.0000 0.0000 9.1633
#
#
#
# Elastic Compliance Matrix: (Units=1/GPa)
#
#
# Indices 1 2 3 4 5 6 
#
# 1 0.004039 -0.001206 0.000426 0.000000 0.000000 0.000000
# 2 -0.001206 0.016915 0.002731 0.000000 0.000000 0.000000
# 3 0.000426 0.002731 0.023025 0.000000 0.000000 0.000000
# 4 0.000000 0.000000 0.000000 0.142762 0.000000 0.000000
# 5 0.000000 0.000000 0.000000 0.000000 -0.062406 0.000000
# 6 0.000000 0.000000 0.000000 0.000000 0.000000 0.109131
#
#
# Mechanical properties :
#
#
# Convention : Reuss Voigt Hill
#
# Bulk Modulus (GPa) = 20.88551 41.04914 30.96733
# Shear Modulus (GPa) = 20.36448 23.74092 22.05270
#
# Velocity S-wave (km/s) = 2.89369 3.12438 3.01124
# Velocity P-wave (km/s) = 4.44435 5.46756 4.98229
#
# Compressibility (1/GPa) = 0.04788007
#
# Stress axis : x y z
#
# Youngs Moduli (GPa) = 247.58511 59.11914 43.43039
#
# Poissons Ratio (x) = 0.07131 -0.01849
# Poissons Ratio (y) = 0.29864 -0.11860
# Poissons Ratio (z) = -0.10542 -0.16144
#
# Static dielectric constant tensor:
#      x y z
#    x 2.083040 0.000000 0.000000 
#    y 0.000000 1.881880 0.000000 
#    z 0.000000 0.000000 1.984720 
# 
# From -- ./inp_files/24515.got.cif
#   From: 2010.05.17/outbox.cif.g08.bks.cpg/sg44_13_cif.got.tgz:24515.got - 2010.06.03 19:37:08.
