data_PCOD9373945
_publ_section_title
;
Structure prediction by ZEFSAII (Michael W. Deem and Ramdas Pophale) SiO2 
 PCOD9373945
Probable space group: I M M 2
;
_chemical_formula_sum "Si O2"
_cell_formula_units_Z 56
_cell_length_a 8.386454
_cell_length_b 24.345034
_cell_length_c 14.006936
_cell_angle_alpha 90.000000
_cell_angle_beta 90.000000
_cell_angle_gamma 90.000000
_cell_volume 2859.775222
_symmetry_space_group_name_H-M "I M M 2"
_symmetry_group_IT_number 44
_symmetry_cell_setting 'orthorhombic'
loop_
_space_group_symop_operation_xyz
x,y,z
-x,-y,z
-x,y,z
x,-y,z
1/2+x,1/2+y,1/2+z
1/2-x,1/2-y,1/2+z
1/2-x,1/2+y,1/2+z
1/2+x,1/2-y,1/2+z
loop_
_atom_site_type_symbol
_atom_site_label
_atom_site_fract_x
_atom_site_fract_y
_atom_site_fract_z
Si Si1 0.192354 0.563342 0.432770
Si Si2 0.310958 0.672640 0.970062
Si Si3 0.305530 0.938018 0.152062
Si Si4 0.306667 0.561147 0.065631
Si Si5 0.185519 0.265919 0.150842
Si Si6 0.187513 0.667351 0.763620
Si Si7 0.810256 0.127086 0.752828
O O1 0.237382 0.500000 0.410512
O O2 0.241059 0.574098 0.542376
O O3 0.263976 0.604449 0.355834
O O4 0.000000 0.566633 0.428457
O O5 0.500000 0.675349 0.987594
O O6 0.272974 0.684407 0.860921
O O7 0.255686 0.610422 0.995908
O O8 0.229081 0.713136 0.045245
O O9 0.500000 0.937719 0.152983
O O10 0.250996 0.890815 0.223433
O O11 0.254065 0.000000 0.176233
O O12 0.500000 0.558893 0.060712
O O13 0.245153 0.500000 0.045810
O O14 0.266019 0.581728 0.172355
O O15 0.284482 0.213412 0.183945
O O16 0.226788 0.316747 0.220931
O O17 0.000000 0.252744 0.157066
O O18 0.000000 0.662444 0.783655
O O19 0.000000 0.135684 0.746656
#
# Coordination Sequence:
#
# PCOD9373945 Si02
#       7
#     8   8   8   8   8   8   8
#     4   9  17  31  52  79 112 151 193 232 274 329
#     4  10  21  38  58  83 115 147 183 227 277 333
#     4   8  17  35  57  81 111 146 183 224 269 322
#     4   8  15  29  50  76 108 146 183 221 270 327
#     4  11  23  40  59  80 110 146 188 235 282 332
#     4  11  22  38  61  85 110 144 186 229 277 331
#     4  10  19  32  52  80 114 149 188 234 285 337
#
# _framework density 19.581959000000001
#
# number of rings (size 3 to 8) (size 9 to 14) (size 15 to 20)
#    0.000    2.429    0.000    4.714    0.000    2.571 
#    0.000    5.714    0.000   11.143    0.000    0.000 
#    0.000    0.000    0.000    0.000    0.000    0.000 
#
# Total GULP energy -156292.517106 kJ/mol
# GULP energy per Si atom -5581.875611 kJ/mol
# Density = 1.953739 g / cm^3
# Si number density = 19.581959 Si / 1000 Ang^3
#
#
#
# Elastic Constant Matrix: (Units=GPa)
#
#
# Indices 1 2 3 4 5 6 
#
# 1 20.2535 -13.8938 -4.3372 0.0000 0.0000 0.0000
# 2 -13.8938 59.0095 27.2191 -0.0001 0.0000 0.0000
# 3 -4.3372 27.2191 71.7886 -0.0002 0.0000 0.0000
# 4 0.0000 -0.0001 -0.0002 18.3532 0.0000 0.0000
# 5 0.0000 0.0000 0.0000 0.0000 20.5574 0.0000
# 6 0.0000 0.0000 0.0000 0.0000 0.0000 18.9570
#
#
#
# Elastic Compliance Matrix: (Units=1/GPa)
#
#
# Indices 1 2 3 4 5 6 
#
# 1 0.059138 0.014878 -0.002068 0.000000 0.000000 0.000000
# 2 0.014878 0.024281 -0.008308 0.000000 0.000000 0.000000
# 3 -0.002068 -0.008308 0.016955 0.000000 0.000000 0.000000
# 4 0.000000 0.000000 0.000000 0.054487 0.000000 0.000000
# 5 0.000000 0.000000 0.000000 0.000000 0.048644 0.000000
# 6 0.000000 0.000000 0.000000 0.000000 0.000000 0.052751
#
#
# Mechanical properties :
#
#
# Convention : Reuss Voigt Hill
#
# Bulk Modulus (GPa) = 9.14262 18.78087 13.96174
# Shear Modulus (GPa) = 17.62360 21.04441 19.33401
#
# Velocity S-wave (km/s) = 3.00324 3.28179 3.14560
# Velocity P-wave (km/s) = 4.08717 4.89612 4.50982
#
# Compressibility (1/GPa) = 0.10937788
#
# Stress axis : x y z
#
# Youngs Moduli (GPa) = 16.90974 41.18374 58.98063
#
# Poissons Ratio (x) = -0.61273 0.12198
# Poissons Ratio (y) = -0.25158 0.48999
# Poissons Ratio (z) = 0.03497 0.34214
#
# Static dielectric constant tensor:
#      x y z
#    x 1.665400 0.000000 0.000000 
#    y 0.000000 1.686740 0.000000 
#    z 0.000000 0.000000 1.663060 
# 
# From -- ./inp_files/16487.got.cif
#   From: 2010.05.17/outbox.cif.g08.bks.cpg/sg44_9_cif.got.tgz:16487.got - 2010.06.03 19:37:08.
