data_PCOD9373432
_publ_section_title
;
Structure prediction by ZEFSAII (Michael W. Deem and Ramdas Pophale) SiO2 
 PCOD9373432
Probable space group: I M M 2
;
_chemical_formula_sum "Si O2"
_cell_formula_units_Z 64
_cell_length_a 18.248061
_cell_length_b 16.566538
_cell_length_c 11.876954
_cell_angle_alpha 90.000000
_cell_angle_beta 90.000000
_cell_angle_gamma 90.000000
_cell_volume 3590.488661
_symmetry_space_group_name_H-M "I M M 2"
_symmetry_group_IT_number 44
_symmetry_cell_setting 'orthorhombic'
loop_
_space_group_symop_operation_xyz
x,y,z
-x,-y,z
-x,y,z
x,-y,z
1/2+x,1/2+y,1/2+z
1/2-x,1/2-y,1/2+z
1/2-x,1/2+y,1/2+z
1/2+x,1/2-y,1/2+z
loop_
_atom_site_type_symbol
_atom_site_label
_atom_site_fract_x
_atom_site_fract_y
_atom_site_fract_z
Si Si1 0.779038 0.664905 0.474370
Si Si2 0.916880 0.593359 0.593544
Si Si3 0.351103 0.846761 0.310515
Si Si4 0.251543 0.853216 0.500829
Si Si5 0.416582 0.669070 0.339195
Si Si6 0.728282 0.593283 0.253575
Si Si7 0.302981 0.595674 0.781755
Si Si8 0.131519 0.906612 0.060781
O O1 0.857208 0.645116 0.526907
O O2 0.755743 0.756523 0.499265
O O3 0.773707 0.648306 0.340888
O O4 0.716550 0.605677 0.524416
O O5 0.908127 0.500000 0.561379
O O6 0.900377 0.601715 0.726932
O O7 0.000000 0.618982 0.571548
O O8 0.327518 0.875346 0.435526
O O9 0.386341 0.758962 0.318585
O O10 0.269439 0.850814 0.255114
O O11 0.245300 0.886268 0.624990
O O12 0.189482 0.887424 0.414704
O O13 0.500000 0.660701 0.300763
O O14 0.357279 0.611636 0.279389
O O15 0.411679 0.647603 0.472076
O O16 0.743898 0.500000 0.277029
O O17 0.286168 0.500000 0.766826
O O18 0.366711 0.614821 0.693187
O O19 0.110020 0.000000 0.047377
#
# Coordination Sequence:
#
# PCOD9373432 Si02
#       8
#     8   8   8   8   8   8   8   8
#     4  11  19  33  55  79 110 140 185 229 273 322
#     4  11  22  35  56  84 113 145 182 228 281 331
#     4  10  19  33  54  81 110 144 181 229 277 328
#     4  10  21  32  56  82 112 140 185 225 282 326
#     4  11  22  35  52  79 115 152 186 229 281 333
#     4  11  22  35  55  85 111 147 192 235 279 334
#     4   9  17  31  55  82 109 136 174 229 278 320
#     4  10  18  31  56  80 102 137 183 231 275 315
#
# _framework density 17.824871999999999
#
# number of rings (size 3 to 8) (size 9 to 14) (size 15 to 20)
#    0.750    0.875    3.750    4.125    1.750    1.000 
#    0.000    0.000    0.000    4.500    0.000    3.500 
#    0.000    0.000    0.000    0.000    0.000    0.000 
#
# Total GULP energy -178159.273322 kJ/mol
# GULP energy per Si atom -5567.477291 kJ/mol
# Density = 1.778430 g / cm^3
# Si number density = 17.824872 Si / 1000 Ang^3
#
#
#
# Elastic Constant Matrix: (Units=GPa)
#
#
# Indices 1 2 3 4 5 6 
#
# 1 72.8967 7.2711 17.0981 0.0000 0.0000 0.0000
# 2 7.2711 50.5513 6.0944 0.0000 0.0000 0.0000
# 3 17.0981 6.0944 88.6092 0.0000 0.0000 0.0000
# 4 0.0000 0.0000 0.0000 28.0307 0.0000 0.0000
# 5 0.0000 0.0000 0.0000 0.0000 15.2779 0.0000
# 6 0.0000 0.0000 0.0000 0.0000 0.0000 13.3567
#
#
#
# Elastic Compliance Matrix: (Units=1/GPa)
#
#
# Indices 1 2 3 4 5 6 
#
# 1 0.014523 -0.001766 -0.002681 0.000000 0.000000 0.000000
# 2 -0.001766 0.020162 -0.001046 0.000000 0.000000 0.000000
# 3 -0.002681 -0.001046 0.011875 0.000000 0.000000 0.000000
# 4 0.000000 0.000000 0.000000 0.035675 0.000000 0.000000
# 5 0.000000 0.000000 0.000000 0.000000 0.065454 0.000000
# 6 0.000000 0.000000 0.000000 0.000000 0.000000 0.074869
#
#
# Mechanical properties :
#
#
# Convention : Reuss Voigt Hill
#
# Bulk Modulus (GPa) = 28.11007 30.33160 29.22083
# Shear Modulus (GPa) = 20.37482 23.43931 21.90706
#
# Velocity S-wave (km/s) = 3.38458 3.63020 3.50954
# Velocity P-wave (km/s) = 5.57478 5.88426 5.73161
#
# Compressibility (1/GPa) = 0.03557444
#
# Stress axis : x y z
#
# Youngs Moduli (GPa) = 68.85639 49.59837 84.21225
#
# Poissons Ratio (x) = 0.08758 0.22577
# Poissons Ratio (y) = 0.12158 0.08809
# Poissons Ratio (z) = 0.18460 0.05188
#
# Static dielectric constant tensor:
#      x y z
#    x 1.604340 0.000000 0.000000 
#    y 0.000000 1.615640 0.000000 
#    z 0.000000 0.000000 1.677030 
# 
# From -- ./inp_files/14004.got.cif
#   From: 2010.05.17/outbox.cif.g08.bks.cpg/sg44_8_cif.got.tgz:14004.got - 2010.06.03 19:37:08.
