data_PCOD9373045
_publ_section_title
;
Structure prediction by ZEFSAII (Michael W. Deem and Ramdas Pophale) SiO2 
 PCOD9373045
Probable space group: I M M 2
;
_chemical_formula_sum "Si O2"
_cell_formula_units_Z 56
_cell_length_a 22.503855
_cell_length_b 9.052716
_cell_length_c 18.257319
_cell_angle_alpha 90.000000
_cell_angle_beta 90.000000
_cell_angle_gamma 90.000000
_cell_volume 3719.399434
_symmetry_space_group_name_H-M "I M M 2"
_symmetry_group_IT_number 44
_symmetry_cell_setting 'orthorhombic'
loop_
_space_group_symop_operation_xyz
x,y,z
-x,-y,z
-x,y,z
x,-y,z
1/2+x,1/2+y,1/2+z
1/2-x,1/2-y,1/2+z
1/2-x,1/2+y,1/2+z
1/2+x,1/2-y,1/2+z
loop_
_atom_site_type_symbol
_atom_site_label
_atom_site_fract_x
_atom_site_fract_y
_atom_site_fract_z
Si Si1 0.348284 0.676988 0.309520
Si Si2 0.723352 0.674921 0.762512
Si Si3 0.930144 0.324876 0.692089
Si Si4 0.712294 0.174694 0.612270
Si Si5 0.305486 0.674222 0.921179
Si Si6 0.315706 0.674604 0.467755
Si Si7 0.851653 0.173432 0.571900
O O1 0.342881 0.500000 0.301354
O O2 0.287175 0.751516 0.281006
O O3 0.400779 0.739728 0.260154
O O4 0.355032 0.710360 0.396181
O O5 0.731858 0.500000 0.751886
O O6 0.698944 0.747367 0.688947
O O7 0.683067 0.696151 0.835294
O O8 0.921738 0.500000 0.701691
O O9 0.895023 0.270706 0.620278
O O10 0.000000 0.293863 0.685965
O O11 0.676043 0.239942 0.543682
O O12 0.782898 0.200262 0.595685
O O13 0.703835 0.000000 0.617251
O O14 0.287637 0.500000 0.930115
O O15 0.249948 0.776987 0.941125
O O16 0.353692 0.700675 0.984397
O O17 0.318052 0.500000 0.480817
O O18 0.863787 0.000000 0.585584
#
# Coordination Sequence:
#
# PCOD9373045 Si02
#       7
#     8   8   8   8   8   8   8
#     4  10  19  31  45  61  83 113 147 184 222 261
#     4  10  17  26  43  64  88 117 145 175 213 257
#     4  11  23  34  45  63  85 113 152 192 226 261
#     4  10  18  27  41  63  90 117 146 176 210 257
#     4   8  16  28  41  60  84 111 142 175 213 258
#     4   9  17  27  41  61  83 110 145 177 212 259
#     4   9  17  30  45  59  82 113 145 182 219 256
#
# _framework density 15.056195000000001
#
# number of rings (size 3 to 8) (size 9 to 14) (size 15 to 20)
#    0.000    2.429    1.429    3.000    0.000    5.714 
#    0.000    0.000    0.000    0.000    0.000    0.000 
#    0.000    1.143    0.000   10.857    0.000    6.286 
#
# Total GULP energy -155940.708702 kJ/mol
# GULP energy per Si atom -5569.311025 kJ/mol
# Density = 1.502193 g / cm^3
# Si number density = 15.056195 Si / 1000 Ang^3
#
#
#
# Elastic Constant Matrix: (Units=GPa)
#
#
# Indices 1 2 3 4 5 6 
#
# 1 33.6944 28.6612 31.8386 0.0000 0.0000 0.0000
# 2 28.6612 67.4593 66.7690 0.0000 0.0000 0.0000
# 3 31.8386 66.7690 152.3531 0.0000 0.0000 0.0000
# 4 0.0000 0.0000 0.0000 28.0859 0.0000 0.0000
# 5 0.0000 0.0000 0.0000 0.0000 9.9805 0.0000
# 6 0.0000 0.0000 0.0000 0.0000 0.0000 14.4477
#
#
#
# Elastic Compliance Matrix: (Units=1/GPa)
#
#
# Indices 1 2 3 4 5 6 
#
# 1 0.046778 -0.018012 -0.001882 0.000000 0.000000 0.000000
# 2 -0.018012 0.033115 -0.010749 0.000000 0.000000 0.000000
# 3 -0.001882 -0.010749 0.011668 0.000000 0.000000 0.000000
# 4 0.000000 0.000000 0.000000 0.035605 0.000000 0.000000
# 5 0.000000 0.000000 0.000000 0.000000 0.100195 0.000000
# 6 0.000000 0.000000 0.000000 0.000000 0.000000 0.069215
#
#
# Mechanical properties :
#
#
# Convention : Reuss Voigt Hill
#
# Bulk Modulus (GPa) = 33.02948 56.44937 44.73943
# Shear Modulus (GPa) = 13.58872 18.91869 16.25371
#
# Velocity S-wave (km/s) = 3.00748 3.54861 3.28919
# Velocity P-wave (km/s) = 5.83481 7.37320 6.64865
#
# Compressibility (1/GPa) = 0.03027598
#
# Stress axis : x y z
#
# Youngs Moduli (GPa) = 21.37759 30.19790 85.70757
#
# Poissons Ratio (x) = 0.54391 0.16130
# Poissons Ratio (y) = 0.38505 0.92124
# Poissons Ratio (z) = 0.04023 0.32458
#
# Static dielectric constant tensor:
#      x y z
#    x 1.454820 0.000000 0.000000 
#    y 0.000000 1.500640 0.000000 
#    z 0.000000 0.000000 1.552960 
# 
# From -- ./inp_files/20636.got.cif
#   From: 2010.05.17/outbox.cif.g08.bks.cpg/sg44_11_cif.got.tgz:20636.got - 2010.06.03 19:37:08.
