data_PCOD9373868
_publ_section_title
;
Structure prediction by ZEFSAII (Michael W. Deem and Ramdas Pophale) SiO2 
 PCOD9373868
Probable space group: I M M 2
;
_chemical_formula_sum "Si O2"
_cell_formula_units_Z 30
_cell_length_a 12.200305
_cell_length_b 7.566369
_cell_length_c 19.733847
_cell_angle_alpha 90.000000
_cell_angle_beta 90.000000
_cell_angle_gamma 90.000000
_cell_volume 1821.671073
_symmetry_space_group_name_H-M "I M M 2"
_symmetry_group_IT_number 44
_symmetry_cell_setting 'orthorhombic'
loop_
_space_group_symop_operation_xyz
x,y,z
-x,-y,z
-x,y,z
x,-y,z
1/2+x,1/2+y,1/2+z
1/2-x,1/2-y,1/2+z
1/2-x,1/2+y,1/2+z
1/2+x,1/2-y,1/2+z
loop_
_atom_site_type_symbol
_atom_site_label
_atom_site_fract_x
_atom_site_fract_y
_atom_site_fract_z
Si Si1 0.500000 0.202345 0.490270
Si Si2 0.294547 0.000000 0.259671
Si Si3 0.702905 0.207179 0.572959
Si Si4 0.126002 0.293898 0.228452
Si Si5 0.500000 0.000000 0.358745
Si Si6 0.871466 0.500000 0.603618
O O1 0.612335 0.276393 0.519768
O O2 0.500000 0.167214 0.410332
O O3 0.500000 0.000000 0.519914
O O4 0.214699 0.830768 0.263703
O O5 0.348417 0.000000 0.184651
O O6 0.391455 0.000000 0.313727
O O7 0.648330 0.221568 0.647624
O O8 0.809726 0.328447 0.574383
O O9 0.728304 0.000000 0.560518
O O10 0.139710 0.500000 0.246193
O O11 0.000000 0.242300 0.241759
O O12 0.000000 0.500000 0.590795
#
# Coordination Sequence:
#
# PCOD9373868 Si02
#       6
#     4   4   8   8   2   4
#     4   8  16  31  55  76  93 133 172 212 250 289
#     4  10  19  32  47  74 108 143 168 192 261 315
#     4   9  16  30  51  77 103 124 169 217 269 292
#     4   9  16  28  52  79 103 126 163 229 261 292
#     4  10  20  34  56  70 112 148 170 202 236 332
#     4  10  20  30  48  77 109 132 161 214 261 316
#
# _framework density 16.468395000000001
#
# number of rings (size 3 to 8) (size 9 to 14) (size 15 to 20)
#    0.400    2.400    2.000    0.400    0.000    1.067 
#    0.000    0.667    5.867    3.200    0.000    0.000 
#    0.000    0.000    0.000    0.000    0.000    0.000 
#
# Total GULP energy -83513.277476 kJ/mol
# GULP energy per Si atom -5567.551832 kJ/mol
# Density = 1.643091 g / cm^3
# Si number density = 16.468395 Si / 1000 Ang^3
#
#
#
# Elastic Constant Matrix: (Units=GPa)
#
#
# Indices 1 2 3 4 5 6 
#
# 1 192.7532 80.4929 61.0741 0.0000 0.0000 0.0000
# 2 80.4929 83.8905 35.1899 0.0000 0.0000 0.0000
# 3 61.0741 35.1899 62.9301 0.0000 0.0000 0.0000
# 4 0.0000 0.0000 0.0000 10.2277 0.0000 0.0000
# 5 0.0000 0.0000 0.0000 0.0000 22.3883 0.0000
# 6 0.0000 0.0000 0.0000 0.0000 0.0000 21.0090
#
#
#
# Elastic Compliance Matrix: (Units=1/GPa)
#
#
# Indices 1 2 3 4 5 6 
#
# 1 0.009996 -0.007214 -0.005667 0.000000 0.000000 0.000000
# 2 -0.007214 0.020780 -0.004618 0.000000 0.000000 0.000000
# 3 -0.005667 -0.004618 0.023973 0.000000 0.000000 0.000000
# 4 0.000000 0.000000 0.000000 0.097774 0.000000 0.000000
# 5 0.000000 0.000000 0.000000 0.000000 0.044666 0.000000
# 6 0.000000 0.000000 0.000000 0.000000 0.000000 0.047599
#
#
# Mechanical properties :
#
#
# Convention : Reuss Voigt Hill
#
# Bulk Modulus (GPa) = 50.63419 77.00975 63.82197
# Shear Modulus (GPa) = 17.45988 21.57945 19.51966
#
# Velocity S-wave (km/s) = 3.25961 3.62381 3.44653
# Velocity P-wave (km/s) = 6.70670 8.02328 7.39435
#
# Compressibility (1/GPa) = 0.01974950
#
# Stress axis : x y z
#
# Youngs Moduli (GPa) = 100.03709 48.12434 41.71277
#
# Poissons Ratio (x) = 0.34717 0.23640
# Poissons Ratio (y) = 0.72168 0.19264
# Poissons Ratio (z) = 0.56695 0.22226
#
# Static dielectric constant tensor:
#      x y z
#    x 1.540670 0.000000 0.000000 
#    y 0.000000 1.584040 0.000000 
#    z 0.000000 0.000000 1.536490 
# 
# From -- ./inp_files/22520.got.cif
#   From: 2010.05.17/outbox.cif.g08.bks.cpg/sg44_12_cif.got.tgz:22520.got - 2010.06.03 19:37:08.
