data_PCOD9373197
_publ_section_title
;
Structure prediction by ZEFSAII (Michael W. Deem and Ramdas Pophale) SiO2 
 PCOD9373197
Probable space group: I M M 2
;
_chemical_formula_sum "Si O2"
_cell_formula_units_Z 56
_cell_length_a 8.117936
_cell_length_b 19.048726
_cell_length_c 21.632175
_cell_angle_alpha 90.000000
_cell_angle_beta 90.000000
_cell_angle_gamma 90.000000
_cell_volume 3345.120337
_symmetry_space_group_name_H-M "I M M 2"
_symmetry_group_IT_number 44
_symmetry_cell_setting 'orthorhombic'
loop_
_space_group_symop_operation_xyz
x,y,z
-x,-y,z
-x,y,z
x,-y,z
1/2+x,1/2+y,1/2+z
1/2-x,1/2-y,1/2+z
1/2-x,1/2+y,1/2+z
1/2+x,1/2-y,1/2+z
loop_
_atom_site_type_symbol
_atom_site_label
_atom_site_fract_x
_atom_site_fract_y
_atom_site_fract_z
Si Si1 0.305034 0.079511 0.561080
Si Si2 0.190194 0.781395 0.608142
Si Si3 0.310346 0.286678 0.484912
Si Si4 0.199275 0.156671 0.179096
Si Si5 0.798532 0.081164 0.304393
Si Si6 0.298568 0.419994 0.551908
Si Si7 0.805907 0.147244 0.433068
O O1 0.500000 0.079827 0.571895
O O2 0.224082 0.136015 0.607001
O O3 0.273907 0.107699 0.491445
O O4 0.242825 0.000000 0.566833
O O5 0.300149 0.749429 0.552820
O O6 0.233709 0.734874 0.667286
O O7 0.000000 0.769800 0.591264
O O8 0.500000 0.291523 0.465602
O O9 0.243580 0.364489 0.499492
O O10 0.221924 0.230598 0.441342
O O11 0.254899 0.121617 0.242736
O O12 0.249915 0.109962 0.119411
O O13 0.000000 0.159090 0.179159
O O14 0.744364 0.118171 0.367725
O O15 0.000000 0.081992 0.304103
O O16 0.747358 0.000000 0.303092
O O17 0.500000 0.419042 0.550926
O O18 0.244665 0.500000 0.543578
O O19 0.000000 0.133058 0.437254
#
# Coordination Sequence:
#
# PCOD9373197 Si02
#       7
#     8   8   8   8   8   8   8
#     4  10  19  30  45  65  88 114 145 180 218 260
#     4  10  18  28  43  62  86 113 141 175 215 260
#     4   9  16  27  43  61  83 112 145 179 216 261
#     4   9  16  28  45  62  84 113 144 177 210 252
#     4   9  17  28  44  66  88 115 152 185 211 246
#     4   8  13  22  40  64  83 102 134 176 216 251
#     4  10  18  28  43  63  90 120 149 181 215 254
#
# _framework density 16.740801999999999
#
# number of rings (size 3 to 8) (size 9 to 14) (size 15 to 20)
#    0.000    2.714    0.000    6.000    0.000    3.429 
#    0.000    1.429    0.000   16.286    0.000    1.000 
#    0.000    5.714    0.000    0.000    0.000    0.000 
#
# Total GULP energy -155970.121973 kJ/mol
# GULP energy per Si atom -5570.361499 kJ/mol
# Density = 1.670270 g / cm^3
# Si number density = 16.740802 Si / 1000 Ang^3
#
#
#
# Elastic Constant Matrix: (Units=GPa)
#
#
# Indices 1 2 3 4 5 6 
#
# 1 21.8363 6.4106 3.9738 0.0000 0.0000 0.0000
# 2 6.4106 162.6475 65.1024 0.0000 0.0000 0.0000
# 3 3.9738 65.1024 77.2240 0.0000 0.0000 0.0000
# 4 0.0000 0.0000 0.0000 28.0507 0.0000 0.0000
# 5 0.0000 0.0000 0.0000 0.0000 13.4825 0.0000
# 6 0.0000 0.0000 0.0000 0.0000 0.0000 10.6386
#
#
#
# Elastic Compliance Matrix: (Units=1/GPa)
#
#
# Indices 1 2 3 4 5 6 
#
# 1 0.046415 -0.001318 -0.001277 0.000000 0.000000 0.000000
# 2 -0.001318 0.009317 -0.007787 0.000000 0.000000 0.000000
# 3 -0.001277 -0.007787 0.019580 0.000000 0.000000 0.000000
# 4 0.000000 0.000000 0.000000 0.035650 0.000000 0.000000
# 5 0.000000 0.000000 0.000000 0.000000 0.074170 0.000000
# 6 0.000000 0.000000 0.000000 0.000000 0.000000 0.093997
#
#
# Mechanical properties :
#
#
# Convention : Reuss Voigt Hill
#
# Bulk Modulus (GPa) = 18.33276 45.85350 32.09313
# Shear Modulus (GPa) = 15.71958 22.84910 19.28434
#
# Velocity S-wave (km/s) = 3.06763 3.69843 3.39770
# Velocity P-wave (km/s) = 4.84993 6.75926 5.88258
#
# Compressibility (1/GPa) = 0.05454717
#
# Stress axis : x y z
#
# Youngs Moduli (GPa) = 21.54487 107.33099 51.07383
#
# Poissons Ratio (x) = 0.14148 0.06523
# Poissons Ratio (y) = 0.02840 0.39770
# Poissons Ratio (z) = 0.02752 0.83575
#
# Static dielectric constant tensor:
#      x y z
#    x 1.589120 0.000000 0.000000 
#    y 0.000000 1.605780 0.000000 
#    z 0.000000 0.000000 1.545460 
# 
# From -- ./inp_files/23368.got.cif
#   From: 2010.05.17/outbox.cif.g08.bks.cpg/sg44_12_cif.got.tgz:23368.got - 2010.06.03 19:37:08.
