data_PCOD9373387
_publ_section_title
;
Structure prediction by ZEFSAII (Michael W. Deem and Ramdas Pophale) SiO2 
 PCOD9373387
Probable space group: I M M 2
;
_chemical_formula_sum "Si O2"
_cell_formula_units_Z 42
_cell_length_a 7.363771
_cell_length_b 10.846680
_cell_length_c 24.223708
_cell_angle_alpha 90.000000
_cell_angle_beta 90.000000
_cell_angle_gamma 90.000000
_cell_volume 1934.807333
_symmetry_space_group_name_H-M "I M M 2"
_symmetry_group_IT_number 44
_symmetry_cell_setting 'orthorhombic'
loop_
_space_group_symop_operation_xyz
x,y,z
-x,-y,z
-x,y,z
x,-y,z
1/2+x,1/2+y,1/2+z
1/2-x,1/2-y,1/2+z
1/2-x,1/2+y,1/2+z
1/2+x,1/2-y,1/2+z
loop_
_atom_site_type_symbol
_atom_site_label
_atom_site_fract_x
_atom_site_fract_y
_atom_site_fract_z
Si Si1 0.279198 0.137731 0.238360
Si Si2 0.792031 0.698963 0.032497
Si Si3 0.279091 0.135899 0.367039
Si Si4 0.781623 0.134509 0.939603
Si Si5 0.219555 0.857828 0.659249
Si Si6 0.000000 0.000000 0.495852
O O1 0.500000 0.138420 0.236431
O O2 0.229371 0.149617 0.302743
O O3 0.217411 0.254479 0.202612
O O4 0.222047 0.000000 0.219480
O O5 0.769479 0.686801 0.097904
O O6 0.656785 0.605340 0.004452
O O7 0.000000 0.667670 0.018509
O O8 0.752891 0.829600 0.003539
O O9 0.500000 0.132862 0.369644
O O10 0.215965 0.252649 0.401871
O O11 0.212883 0.000000 0.386028
O O12 0.000000 0.130450 0.931352
O O13 0.709680 0.000000 0.925748
O O14 0.000000 0.861870 0.661712
O O15 0.281493 0.000000 0.667614
#
# Coordination Sequence:
#
# PCOD9373387 Si02
#       6
#     8   8   8   8   8   2
#     4   8  15  27  45  73 110 149 191 238 287 336
#     4  11  22  37  59  85 117 155 193 243 292 343
#     4   8  14  26  46  75 109 147 193 243 287 338
#     4   9  19  33  51  80 118 152 193 241 292 351
#     4  10  18  31  49  76 109 142 186 236 281 341
#     4  12  22  40  58  86 120 144 204 244 284 348
#
# _framework density 21.707588000000001
#
# number of rings (size 3 to 8) (size 9 to 14) (size 15 to 20)
#    0.000    2.667    1.905    1.429    1.333    1.524 
#    0.000    4.286    0.000    0.000    2.476    0.000 
#    0.000    0.000    0.000    0.000    0.000    0.000 
#
# Total GULP energy -116956.647357 kJ/mol
# GULP energy per Si atom -5569.364160 kJ/mol
# Density = 2.165818 g / cm^3
# Si number density = 21.707588 Si / 1000 Ang^3
#
#
#
# Elastic Constant Matrix: (Units=GPa)
#
#
# Indices 1 2 3 4 5 6 
#
# 1 91.2689 18.3007 -0.4770 0.0000 0.0000 0.0000
# 2 18.3007 238.2202 117.4359 0.0000 0.0000 0.0000
# 3 -0.4770 117.4359 116.8097 0.0000 0.0000 0.0000
# 4 0.0000 0.0000 0.0000 25.2030 0.0000 0.0000
# 5 0.0000 0.0000 0.0000 0.0000 -2.4040 0.0000
# 6 0.0000 0.0000 0.0000 0.0000 0.0000 8.7553
#
#
#
# Elastic Compliance Matrix: (Units=1/GPa)
#
#
# Indices 1 2 3 4 5 6 
#
# 1 0.011321 -0.001769 0.001825 0.000000 0.000000 0.000000
# 2 -0.001769 0.008599 -0.008653 0.000000 0.000000 0.000000
# 3 0.001825 -0.008653 0.017267 0.000000 0.000000 0.000000
# 4 0.000000 0.000000 0.000000 0.039678 0.000000 0.000000
# 5 0.000000 0.000000 0.000000 0.000000 -0.415965 0.000000
# 6 0.000000 0.000000 0.000000 0.000000 0.000000 0.114217
#
#
# Mechanical properties :
#
#
# Convention : Reuss Voigt Hill
#
# Bulk Modulus (GPa) = 50.01535 79.64644 64.83090
# Shear Modulus (GPa) = -24.87261 27.04679 1.08709
#
# Velocity S-wave (km/s) = -3.38864 3.53365 0.70843
# Velocity P-wave (km/s) = 2.78926 7.30884 5.53169
#
# Compressibility (1/GPa) = 0.01999386
#
# Stress axis : x y z
#
# Youngs Moduli (GPa) = 88.33157 116.29022 57.91301
#
# Poissons Ratio (x) = 0.20577 -0.10570
# Poissons Ratio (y) = 0.15630 0.50109
# Poissons Ratio (z) = -0.16122 1.00620
#
# Static dielectric constant tensor:
#      x y z
#    x 1.829620 0.000000 0.000000 
#    y 0.000000 1.786840 0.000000 
#    z 0.000000 0.000000 1.788450 
# 
# From -- ./inp_files/24707.got.cif
#   From: 2010.05.17/outbox.cif.g08.bks.cpg/sg44_13_cif.got.tgz:24707.got - 2010.06.03 19:37:08.
