data_PCOD9373036
_publ_section_title
;
Structure prediction by ZEFSAII (Michael W. Deem and Ramdas Pophale) SiO2 
 PCOD9373036
Probable space group: I M M 2
;
_chemical_formula_sum "Si O2"
_cell_formula_units_Z 56
_cell_length_a 8.062094
_cell_length_b 23.125423
_cell_length_c 18.553636
_cell_angle_alpha 90.000000
_cell_angle_beta 90.000000
_cell_angle_gamma 90.000000
_cell_volume 3459.127539
_symmetry_space_group_name_H-M "I M M 2"
_symmetry_group_IT_number 44
_symmetry_cell_setting 'orthorhombic'
loop_
_space_group_symop_operation_xyz
x,y,z
-x,-y,z
-x,y,z
x,-y,z
1/2+x,1/2+y,1/2+z
1/2-x,1/2-y,1/2+z
1/2-x,1/2+y,1/2+z
1/2+x,1/2-y,1/2+z
loop_
_atom_site_type_symbol
_atom_site_label
_atom_site_fract_x
_atom_site_fract_y
_atom_site_fract_z
Si Si1 0.299551 0.718321 0.748430
Si Si2 0.802440 0.281519 0.907482
Si Si3 0.808353 0.177814 0.100527
Si Si4 0.299931 0.434262 0.322911
Si Si5 0.698323 0.153374 0.700665
Si Si6 0.296715 0.651115 0.447640
Si Si7 0.691718 0.697799 0.057742
O O1 0.500000 0.718579 0.744994
O O2 0.247264 0.699643 0.827710
O O3 0.236509 0.679678 0.681177
O O4 0.243479 0.784760 0.734069
O O5 0.745972 0.214502 0.918430
O O6 0.000000 0.282481 0.913528
O O7 0.728983 0.316559 0.974923
O O8 0.800416 0.245467 0.076817
O O9 0.000000 0.159790 0.106659
O O10 0.737105 0.145636 0.030445
O O11 0.500000 0.435834 0.326833
O O12 0.238407 0.500000 0.321611
O O13 0.253413 0.398032 0.252244
O O14 0.241036 0.397971 0.392519
O O15 0.500000 0.154677 0.697762
O O16 0.766483 0.151680 0.619291
O O17 0.500000 0.651033 0.449111
O O18 0.500000 0.714511 0.064472
#
# Coordination Sequence:
#
# PCOD9373036 Si02
#       7
#     8   8   8   8   8   8   8
#     4   9  16  25  39  60  83 108 140 177 211 253
#     4  10  17  26  41  59  84 114 142 169 209 261
#     4   8  15  27  40  57  81 110 143 174 211 258
#     4  10  19  30  45  65  86 113 154 193 222 254
#     4  10  19  31  44  58  83 114 147 181 220 262
#     4   8  14  26  41  56  79 112 143 175 216 253
#     4  10  18  27  41  60  82 107 141 176 213 257
#
# _framework density 16.189053000000001
#
# number of rings (size 3 to 8) (size 9 to 14) (size 15 to 20)
#    0.000    2.714    1.429    3.857    0.000    2.571 
#    0.000    0.000    0.000    0.000    0.000    0.000 
#    0.000    1.143    0.000    8.571    0.000    2.000 
#
# Total GULP energy -155890.349375 kJ/mol
# GULP energy per Si atom -5567.512478 kJ/mol
# Density = 1.615221 g / cm^3
# Si number density = 16.189053 Si / 1000 Ang^3
#
#
#
# Elastic Constant Matrix: (Units=GPa)
#
#
# Indices 1 2 3 4 5 6 
#
# 1 24.5339 7.4378 11.7030 0.0000 0.0000 0.0000
# 2 7.4378 52.4496 51.8678 0.0000 0.0000 0.0000
# 3 11.7030 51.8678 186.9804 0.0000 0.0000 0.0000
# 4 0.0000 0.0000 0.0000 13.4244 0.0000 0.0000
# 5 0.0000 0.0000 0.0000 0.0000 20.9524 0.0000
# 6 0.0000 0.0000 0.0000 0.0000 0.0000 9.1387
#
#
#
# Elastic Compliance Matrix: (Units=1/GPa)
#
#
# Indices 1 2 3 4 5 6 
#
# 1 0.042845 -0.004718 -0.001373 0.000000 0.000000 0.000000
# 2 -0.004718 0.026793 -0.007137 0.000000 0.000000 0.000000
# 3 -0.001373 -0.007137 0.007414 0.000000 0.000000 0.000000
# 4 0.000000 0.000000 0.000000 0.074491 0.000000 0.000000
# 5 0.000000 0.000000 0.000000 0.000000 0.047727 0.000000
# 6 0.000000 0.000000 0.000000 0.000000 0.000000 0.109424
#
#
# Mechanical properties :
#
#
# Convention : Reuss Voigt Hill
#
# Bulk Modulus (GPa) = 19.76446 45.10901 32.43673
# Shear Modulus (GPa) = 14.20391 21.56679 17.88535
#
# Velocity S-wave (km/s) = 2.96527 3.65387 3.32743
# Velocity P-wave (km/s) = 4.89477 6.76206 5.90272
#
# Compressibility (1/GPa) = 0.05059588
#
# Stress axis : x y z
#
# Youngs Moduli (GPa) = 23.33985 37.32356 134.88284
#
# Poissons Ratio (x) = 0.17610 0.18518
# Poissons Ratio (y) = 0.11012 0.96265
# Poissons Ratio (z) = 0.03204 0.26638
#
# Static dielectric constant tensor:
#      x y z
#    x 1.577400 0.000000 0.000000 
#    y 0.000000 1.506100 0.000000 
#    z 0.000000 0.000000 1.604930 
# 
# From -- ./inp_files/20657.got.cif
#   From: 2010.05.17/outbox.cif.g08.bks.cpg/sg44_11_cif.got.tgz:20657.got - 2010.06.03 19:37:08.
