data_PCOD9373274
_publ_section_title
;
Structure prediction by ZEFSAII (Michael W. Deem and Ramdas Pophale) SiO2 
 PCOD9373274
Probable space group: I M M 2
;
_chemical_formula_sum "Si O2"
_cell_formula_units_Z 64
_cell_length_a 31.271325
_cell_length_b 8.714816
_cell_length_c 14.907766
_cell_angle_alpha 90.000000
_cell_angle_beta 90.000000
_cell_angle_gamma 90.000000
_cell_volume 4062.721688
_symmetry_space_group_name_H-M "I M M 2"
_symmetry_group_IT_number 44
_symmetry_cell_setting 'orthorhombic'
loop_
_space_group_symop_operation_xyz
x,y,z
-x,-y,z
-x,y,z
x,-y,z
1/2+x,1/2+y,1/2+z
1/2-x,1/2-y,1/2+z
1/2-x,1/2+y,1/2+z
1/2+x,1/2-y,1/2+z
loop_
_atom_site_type_symbol
_atom_site_label
_atom_site_fract_x
_atom_site_fract_y
_atom_site_fract_z
Si Si1 0.816478 0.823342 0.853030
Si Si2 0.132011 0.819335 0.038312
Si Si3 0.707922 0.687928 0.661553
Si Si4 0.368719 0.319072 0.170495
Si Si5 0.773756 0.819950 0.362162
Si Si6 0.048902 0.683414 0.748980
Si Si7 0.951280 0.185891 0.948600
Si Si8 0.793714 0.316749 0.553477
O O1 0.845309 0.796274 0.766373
O O2 0.776943 0.709494 0.856046
O O3 0.800238 0.000000 0.849204
O O4 0.843925 0.810060 0.942951
O O5 0.165342 0.755729 0.110828
O O6 0.126841 0.000000 0.060472
O O7 0.084668 0.757253 0.018156
O O8 0.708213 0.500000 0.658460
O O9 0.708750 0.733534 0.765565
O O10 0.751212 0.736534 0.608913
O O11 0.373036 0.500000 0.155229
O O12 0.415278 0.245081 0.181567
O O13 0.336525 0.248481 0.098239
O O14 0.789663 0.734287 0.450603
O O15 0.782820 0.000000 0.371849
O O16 0.051629 0.500000 0.754023
O O17 0.056896 0.751048 0.848603
O O18 0.000000 0.725931 0.724652
O O19 0.000000 0.226020 0.973170
O O20 0.948152 0.000000 0.943464
O O21 0.794315 0.500000 0.558972
#
# Coordination Sequence:
#
# PCOD9373274 Si02
#       8
#     8   8   8   8   8   8   8   8
#     4  10  18  29  47  69  96 130 162 197 243 291
#     4   9  15  28  46  67  93 128 164 194 240 296
#     4   9  18  30  47  67  92 126 164 199 242 291
#     4  11  21  33  50  74 100 131 168 206 246 292
#     4  11  21  33  47  69  95 126 167 209 243 285
#     4  10  20  32  47  70 101 134 165 199 244 297
#     4   9  16  27  46  71  97 126 163 206 248 292
#     4  11  21  35  51  70  96 130 165 203 249 297
#
# _framework density 15.752986
#
# number of rings (size 3 to 8) (size 9 to 14) (size 15 to 20)
#    0.000    2.000    3.750    1.500    0.000    1.250 
#    0.000    0.000    0.000    0.000    0.000    0.875 
#    0.000    3.000    0.000    0.000    0.000    0.000 
#
# Total GULP energy -178406.473948 kJ/mol
# GULP energy per Si atom -5575.202311 kJ/mol
# Density = 1.571713 g / cm^3
# Si number density = 15.752986 Si / 1000 Ang^3
#
#
#
# Elastic Constant Matrix: (Units=GPa)
#
#
# Indices 1 2 3 4 5 6 
#
# 1 130.5146 32.6105 56.5730 0.0000 0.0000 0.0000
# 2 32.6105 23.2718 24.6526 0.0000 0.0000 0.0000
# 3 56.5730 24.6526 91.8466 0.0000 0.0000 0.0000
# 4 0.0000 0.0000 0.0000 17.5251 0.0000 0.0000
# 5 0.0000 0.0000 0.0000 0.0000 17.2230 0.0000
# 6 0.0000 0.0000 0.0000 0.0000 0.0000 19.9736
#
#
#
# Elastic Compliance Matrix: (Units=1/GPa)
#
#
# Indices 1 2 3 4 5 6 
#
# 1 0.012914 -0.013512 -0.004328 0.000000 0.000000 0.000000
# 2 -0.013512 0.074180 -0.011588 0.000000 0.000000 0.000000
# 3 -0.004328 -0.011588 0.016664 0.000000 0.000000 0.000000
# 4 0.000000 0.000000 0.000000 0.057061 0.000000 0.000000
# 5 0.000000 0.000000 0.000000 0.000000 0.058062 0.000000
# 6 0.000000 0.000000 0.000000 0.000000 0.000000 0.050066
#
#
# Mechanical properties :
#
#
# Convention : Reuss Voigt Hill
#
# Bulk Modulus (GPa) = 22.27047 52.58945 37.42996
# Shear Modulus (GPa) = 14.58709 19.73079 17.15894
#
# Velocity S-wave (km/s) = 3.04631 3.54292 3.30396
# Velocity P-wave (km/s) = 5.15183 7.08468 6.19411
#
# Compressibility (1/GPa) = 0.04490251
#
# Stress axis : x y z
#
# Youngs Moduli (GPa) = 77.43619 13.48079 60.01066
#
# Poissons Ratio (x) = 0.18215 0.25970
# Poissons Ratio (y) = 1.04629 0.69541
# Poissons Ratio (z) = 0.33512 0.15622
#
# Static dielectric constant tensor:
#      x y z
#    x 1.543340 0.000000 0.000000 
#    y 0.000000 1.538970 0.000000 
#    z 0.000000 0.000000 1.512880 
# 
# From -- ./inp_files/17103.got.cif
#   From: 2010.05.17/outbox.cif.g08.bks.cpg/sg44_9_cif.got.tgz:17103.got - 2010.06.03 19:37:08.
