data_PCOD9373639
_publ_section_title
;
Structure prediction by ZEFSAII (Michael W. Deem and Ramdas Pophale) SiO2 
 PCOD9373639
Probable space group: I M M 2
;
_chemical_formula_sum "Si O2"
_cell_formula_units_Z 56
_cell_length_a 7.985862
_cell_length_b 13.978304
_cell_length_c 32.843404
_cell_angle_alpha 90.000000
_cell_angle_beta 90.000000
_cell_angle_gamma 90.000000
_cell_volume 3666.269998
_symmetry_space_group_name_H-M "I M M 2"
_symmetry_group_IT_number 44
_symmetry_cell_setting 'orthorhombic'
loop_
_space_group_symop_operation_xyz
x,y,z
-x,-y,z
-x,y,z
x,-y,z
1/2+x,1/2+y,1/2+z
1/2-x,1/2-y,1/2+z
1/2-x,1/2+y,1/2+z
1/2+x,1/2-y,1/2+z
loop_
_atom_site_type_symbol
_atom_site_label
_atom_site_fract_x
_atom_site_fract_y
_atom_site_fract_z
Si Si1 0.188973 0.114783 0.398710
Si Si2 0.297201 0.201908 0.313910
Si Si3 0.305477 0.799085 0.685787
Si Si4 0.797415 0.391886 0.728305
Si Si5 0.000000 0.383687 0.954817
Si Si6 0.813052 0.885822 0.603359
Si Si7 0.297618 0.607002 0.270490
Si Si8 0.000000 0.383761 0.048012
O O1 0.219029 0.163983 0.355254
O O2 0.333870 0.145083 0.430034
O O3 0.000000 0.134066 0.413239
O O4 0.205105 0.000000 0.393038
O O5 0.500000 0.198633 0.317990
O O6 0.252227 0.137411 0.274628
O O7 0.245366 0.309547 0.301534
O O8 0.500000 0.813878 0.676886
O O9 0.272247 0.689640 0.698745
O O10 0.205775 0.832556 0.646283
O O11 0.257167 0.860941 0.725462
O O12 0.743819 0.500000 0.719409
O O13 0.000000 0.387328 0.726107
O O14 0.000000 0.500000 0.955787
O O15 0.000000 0.350072 0.001410
O O16 0.666187 0.855363 0.572747
O O17 0.000000 0.870625 0.586696
O O18 0.793212 0.000000 0.610801
O O19 0.500000 0.607099 0.270564
O O20 0.238521 0.500000 0.279811
O O21 0.000000 0.500000 0.046873
#
# Coordination Sequence:
#
# PCOD9373639 Si02
#       8
#     8   8   8   8   4   8   8   4
#     4  10  19  29  45  68  92 123 157 186 224 276
#     4   9  16  28  45  63  88 122 156 193 233 269
#     4  11  20  29  43  64  92 124 159 194 229 275
#     4   9  18  31  46  63  87 122 160 198 237 272
#     4   9  18  32  48  66  95 123 149 193 234 274
#     4  10  19  31  48  68  93 124 156 191 228 275
#     4   9  18  31  45  62  87 122 161 198 235 271
#     4   9  18  32  48  70  93 119 155 191 234 280
#
# _framework density 15.274380000000001
#
# number of rings (size 3 to 8) (size 9 to 14) (size 15 to 20)
#    0.000    2.429    1.429    3.000    0.000    5.714 
#    0.000    2.857    0.000    0.000    0.000    0.000 
#    0.000    2.286    0.000    2.714    0.000    0.286 
#
# Total GULP energy -156118.765399 kJ/mol
# GULP energy per Si atom -5575.670193 kJ/mol
# Density = 1.523962 g / cm^3
# Si number density = 15.274380 Si / 1000 Ang^3
#
#
#
# Elastic Constant Matrix: (Units=GPa)
#
#
# Indices 1 2 3 4 5 6 
#
# 1 83.9219 26.2564 52.0918 0.0000 0.0000 0.0000
# 2 26.2564 59.0570 22.8576 0.0000 0.0000 0.0000
# 3 52.0918 22.8576 96.4164 0.0000 0.0000 0.0000
# 4 0.0000 0.0000 0.0000 15.2900 0.0000 0.0000
# 5 0.0000 0.0000 0.0000 0.0000 15.0653 0.0000
# 6 0.0000 0.0000 0.0000 0.0000 0.0000 12.9670
#
#
#
# Elastic Compliance Matrix: (Units=1/GPa)
#
#
# Indices 1 2 3 4 5 6 
#
# 1 0.019167 -0.004970 -0.009178 0.000000 0.000000 0.000000
# 2 -0.004970 0.019932 -0.002040 0.000000 0.000000 0.000000
# 3 -0.009178 -0.002040 0.015814 0.000000 0.000000 0.000000
# 4 0.000000 0.000000 0.000000 0.065402 0.000000 0.000000
# 5 0.000000 0.000000 0.000000 0.000000 0.066378 0.000000
# 6 0.000000 0.000000 0.000000 0.000000 0.000000 0.077119
#
#
# Mechanical properties :
#
#
# Convention : Reuss Voigt Hill
#
# Bulk Modulus (GPa) = 44.36922 49.08965 46.72944
# Shear Modulus (GPa) = 16.46364 17.87709 17.17037
#
# Velocity S-wave (km/s) = 3.28664 3.42482 3.35644
# Velocity P-wave (km/s) = 6.59650 6.91719 6.75875
#
# Compressibility (1/GPa) = 0.02253815
#
# Stress axis : x y z
#
# Youngs Moduli (GPa) = 52.17211 50.17072 63.23570
#
# Poissons Ratio (x) = 0.24933 0.58035
# Poissons Ratio (y) = 0.25927 0.12902
# Poissons Ratio (z) = 0.47881 0.10237
#
# Static dielectric constant tensor:
#      x y z
#    x 1.544670 0.000000 0.000000 
#    y 0.000000 1.500570 0.000000 
#    z 0.000000 0.000000 1.474600 
# 
# From -- ./inp_files/27245.got.cif
#   From: 2010.05.17/outbox.cif.g08.bks.cpg/sg44_14_cif.got.tgz:27245.got - 2010.06.03 19:37:08.
