data_PCOD9373213
_publ_section_title
;
Structure prediction by ZEFSAII (Michael W. Deem and Ramdas Pophale) SiO2 
 PCOD9373213
Probable space group: I M M 2
;
_chemical_formula_sum "Si O2"
_cell_formula_units_Z 48
_cell_length_a 12.400457
_cell_length_b 7.368848
_cell_length_c 26.280129
_cell_angle_alpha 90.000000
_cell_angle_beta 90.000000
_cell_angle_gamma 90.000000
_cell_volume 2401.401523
_symmetry_space_group_name_H-M "I M M 2"
_symmetry_group_IT_number 44
_symmetry_cell_setting 'orthorhombic'
loop_
_space_group_symop_operation_xyz
x,y,z
-x,-y,z
-x,y,z
x,-y,z
1/2+x,1/2+y,1/2+z
1/2-x,1/2-y,1/2+z
1/2-x,1/2+y,1/2+z
1/2+x,1/2-y,1/2+z
loop_
_atom_site_type_symbol
_atom_site_label
_atom_site_fract_x
_atom_site_fract_y
_atom_site_fract_z
Si Si1 0.238396 0.722830 0.336330
Si Si2 0.282925 0.281988 0.021493
Si Si3 0.876037 0.779305 0.739365
Si Si4 0.874382 0.778948 0.625504
Si Si5 0.000000 0.779597 0.463853
Si Si6 0.000000 0.705994 0.346403
Si Si7 0.877835 0.785814 0.932745
O O1 0.234958 0.500000 0.338207
O O2 0.303859 0.778379 0.286437
O O3 0.115388 0.787655 0.332618
O O4 0.299728 0.784260 0.387704
O O5 0.285051 0.500000 0.022868
O O6 0.391538 0.222582 0.992435
O O7 0.180677 0.233703 0.987113
O O8 0.297704 0.218533 0.079574
O O9 0.843496 0.721086 0.682473
O O10 0.000000 0.724656 0.747235
O O11 0.874413 0.000000 0.739318
O O12 0.000000 0.727058 0.616182
O O13 0.874302 0.000000 0.625413
O O14 0.000000 0.704448 0.407461
O O15 0.000000 0.000000 0.461511
O O16 0.000000 0.500000 0.326198
O O17 0.000000 0.712305 0.931682
O O18 0.886526 0.000000 0.922944
#
# Coordination Sequence:
#
# PCOD9373213 Si02
#       7
#     8   8   8   8   4   4   8
#     4   9  16  26  41  63  90 116 144 181 224 266
#     4  10  18  29  47  69  94 118 146 186 225 265
#     4   8  13  22  39  62  88 117 145 176 219 268
#     4   8  13  23  41  65  90 116 145 178 220 265
#     4  10  18  28  44  68  94 120 146 177 222 270
#     4  10  18  28  44  66  92 118 146 183 224 266
#     4  10  20  32  46  65  91 122 153 184 221 269
#
# _framework density 19.988326000000001
#
# number of rings (size 3 to 8) (size 9 to 14) (size 15 to 20)
#    0.000    2.833    2.500    1.500    0.000    2.333 
#    0.000    0.000    1.833    0.000    0.000    2.333 
#    0.000    2.667    0.000    0.000    0.000    0.000 
#
# Total GULP energy -133875.497606 kJ/mol
# GULP energy per Si atom -5578.145734 kJ/mol
# Density = 1.994283 g / cm^3
# Si number density = 19.988326 Si / 1000 Ang^3
#
#
#
# Elastic Constant Matrix: (Units=GPa)
#
#
# Indices 1 2 3 4 5 6 
#
# 1 160.7005 5.8786 97.6285 0.0000 0.0000 0.0000
# 2 5.8786 70.5283 -0.8071 0.0000 0.0000 0.0000
# 3 97.6285 -0.8071 166.6979 0.0000 0.0000 0.0000
# 4 0.0000 0.0000 0.0000 9.1028 0.0000 0.0000
# 5 0.0000 0.0000 0.0000 0.0000 26.1173 0.0000
# 6 0.0000 0.0000 0.0000 0.0000 0.0000 2.7313
#
#
#
# Elastic Compliance Matrix: (Units=1/GPa)
#
#
# Indices 1 2 3 4 5 6 
#
# 1 0.009713 -0.000875 -0.005693 0.000000 0.000000 0.000000
# 2 -0.000875 0.014258 0.000581 0.000000 0.000000 0.000000
# 3 -0.005693 0.000581 0.009336 0.000000 0.000000 0.000000
# 4 0.000000 0.000000 0.000000 0.109856 0.000000 0.000000
# 5 0.000000 0.000000 0.000000 0.000000 0.038289 0.000000
# 6 0.000000 0.000000 0.000000 0.000000 0.000000 0.366131
#
#
# Mechanical properties :
#
#
# Convention : Reuss Voigt Hill
#
# Bulk Modulus (GPa) = 46.87202 67.03630 56.95416
# Shear Modulus (GPa) = 8.82351 27.27206 18.04779
#
# Velocity S-wave (km/s) = 2.10331 3.69778 3.00812
# Velocity P-wave (km/s) = 5.42210 7.20014 6.37343
#
# Compressibility (1/GPa) = 0.02133469
#
# Stress axis : x y z
#
# Youngs Moduli (GPa) = 102.95124 70.13476 107.11410
#
# Poissons Ratio (x) = 0.06135 0.60980
# Poissons Ratio (y) = 0.09006 -0.06227
# Poissons Ratio (z) = 0.58610 -0.04077
#
# Static dielectric constant tensor:
#      x y z
#    x 1.697920 0.000000 0.000000 
#    y 0.000000 1.813260 0.000000 
#    z 0.000000 0.000000 1.692830 
# 
# From -- ./inp_files/23742.got.cif
#   From: 2010.05.17/outbox.cif.g08.bks.cpg/sg44_12_cif.got.tgz:23742.got - 2010.06.03 19:37:08.
