data_PCOD9373660
_publ_section_title
;
Structure prediction by ZEFSAII (Michael W. Deem and Ramdas Pophale) SiO2 
 PCOD9373660
Probable space group: I M M 2
;
_chemical_formula_sum "Si O2"
_cell_formula_units_Z 64
_cell_length_a 13.881829
_cell_length_b 8.852628
_cell_length_c 35.074702
_cell_angle_alpha 90.000000
_cell_angle_beta 90.000000
_cell_angle_gamma 90.000000
_cell_volume 4310.353562
_symmetry_space_group_name_H-M "I M M 2"
_symmetry_group_IT_number 44
_symmetry_cell_setting 'orthorhombic'
loop_
_space_group_symop_operation_xyz
x,y,z
-x,-y,z
-x,y,z
x,-y,z
1/2+x,1/2+y,1/2+z
1/2-x,1/2-y,1/2+z
1/2-x,1/2+y,1/2+z
1/2+x,1/2-y,1/2+z
loop_
_atom_site_type_symbol
_atom_site_label
_atom_site_fract_x
_atom_site_fract_y
_atom_site_fract_z
Si Si1 0.114992 0.179182 0.323540
Si Si2 0.382861 0.674111 0.982313
Si Si3 0.208689 0.819567 0.636268
Si Si4 0.614992 0.179182 0.062351
Si Si5 0.888258 0.680887 0.710323
Si Si6 0.617139 0.174111 0.903579
Si Si7 0.291311 0.180433 0.749623
Si Si8 0.111742 0.180887 0.175569
O O1 0.144525 0.236379 0.365463
O O2 0.170700 0.265702 0.290364
O O3 0.000000 0.207579 0.319382
O O4 0.130276 0.000000 0.320112
O O5 0.500000 0.675743 0.981323
O O6 0.352435 0.500000 0.984528
O O7 0.349742 0.750000 0.942946
O O8 0.355475 0.763621 0.020428
O O9 0.170700 0.765702 0.595528
O O10 0.141157 0.747758 0.669164
O O11 0.314729 0.756115 0.645902
O O12 0.207429 0.000000 0.639445
O O13 0.500000 0.207579 0.066510
O O14 0.630276 0.000000 0.065779
O O15 0.873772 0.500000 0.709720
O O16 0.814729 0.756115 0.739990
O O17 0.000000 0.711734 0.718308
O O18 0.500000 0.175744 0.904568
O O19 0.647565 0.000000 0.901363
O O20 0.358843 0.252241 0.716728
O O21 0.292571 0.000000 0.746446
O O22 0.000000 0.211735 0.167583
O O23 0.126228 0.000000 0.176172
#
# Coordination Sequence:
#
# PCOD9373660 Si02
#       8
#     8   8   8   8   8   8   8   8
#     4  10  19  30  44  62  87 119 152 185 219 257
#     4   9  16  26  40  59  84 114 147 180 216 259
#     4  11  21  31  46  67  90 115 145 183 222 262
#     4  10  19  30  44  62  87 119 152 185 219 257
#     4  10  20  34  50  65  85 115 148 182 220 262
#     4   9  16  26  40  59  84 114 147 180 216 259
#     4  11  21  31  46  67  90 115 145 183 222 262
#     4  10  20  34  50  65  85 115 148 182 220 262
#
# _framework density 14.847970999999999
#
# number of rings (size 3 to 8) (size 9 to 14) (size 15 to 20)
#    0.000    2.000    0.000    6.750    0.000    9.500 
#    0.000    0.000    0.000    0.000    0.000    0.000 
#    0.000    1.000    0.000    3.750    0.000    5.750 
#
# Total GULP energy -178549.704249 kJ/mol
# GULP energy per Si atom -5579.678258 kJ/mol
# Density = 1.481418 g / cm^3
# Si number density = 14.847971 Si / 1000 Ang^3
#
#
#
# Elastic Constant Matrix: (Units=GPa)
#
#
# Indices 1 2 3 4 5 6 
#
# 1 61.0277 45.7443 39.7483 0.0000 0.0000 0.0000
# 2 45.7443 112.5761 56.9116 0.0000 0.0000 0.0000
# 3 39.7483 56.9116 116.1712 0.0000 0.0000 0.0000
# 4 0.0000 0.0000 0.0000 30.9540 0.0000 0.0000
# 5 0.0000 0.0000 0.0000 0.0000 15.6632 0.0000
# 6 0.0000 0.0000 0.0000 0.0000 0.0000 9.5997
#
#
#
# Elastic Compliance Matrix: (Units=1/GPa)
#
#
# Indices 1 2 3 4 5 6 
#
# 1 0.025459 -0.007897 -0.004842 0.000000 0.000000 0.000000
# 2 -0.007897 0.014257 -0.004282 0.000000 0.000000 0.000000
# 3 -0.004842 -0.004282 0.012363 0.000000 0.000000 0.000000
# 4 0.000000 0.000000 0.000000 0.032306 0.000000 0.000000
# 5 0.000000 0.000000 0.000000 0.000000 0.063844 0.000000
# 6 0.000000 0.000000 0.000000 0.000000 0.000000 0.104170
#
#
# Mechanical properties :
#
#
# Convention : Reuss Voigt Hill
#
# Bulk Modulus (GPa) = 55.44674 63.84261 59.64467
# Shear Modulus (GPa) = 17.09672 21.06809 19.08240
#
# Velocity S-wave (km/s) = 3.39699 3.77094 3.58884
# Velocity P-wave (km/s) = 7.26705 7.87724 7.57829
#
# Compressibility (1/GPa) = 0.01803532
#
# Stress axis : x y z
#
# Youngs Moduli (GPa) = 39.27836 70.14253 80.88945
#
# Poissons Ratio (x) = 0.55394 0.39168
# Poissons Ratio (y) = 0.31019 0.34638
# Poissons Ratio (z) = 0.19019 0.30036
#
# Static dielectric constant tensor:
#      x y z
#    x 1.472760 0.000000 0.000000 
#    y 0.000000 1.495620 0.000000 
#    z 0.000000 0.000000 1.479860 
# 
# From -- ./inp_files/27518.got.cif
#   From: 2010.05.17/outbox.cif.g08.bks.cpg/sg44_14_cif.got.tgz:27518.got - 2010.06.03 19:37:08.
