data_PCOD9373929
_publ_section_title
;
Structure prediction by ZEFSAII (Michael W. Deem and Ramdas Pophale) SiO2 
 PCOD9373929
Probable space group: I M M 2
;
_chemical_formula_sum "Si O2"
_cell_formula_units_Z 32
_cell_length_a 7.433482
_cell_length_b 10.286221
_cell_length_c 17.909897
_cell_angle_alpha 90.000000
_cell_angle_beta 90.000000
_cell_angle_gamma 90.000000
_cell_volume 1369.434401
_symmetry_space_group_name_H-M "I M M 2"
_symmetry_group_IT_number 44
_symmetry_cell_setting 'orthorhombic'
loop_
_space_group_symop_operation_xyz
x,y,z
-x,-y,z
-x,y,z
x,-y,z
1/2+x,1/2+y,1/2+z
1/2-x,1/2-y,1/2+z
1/2-x,1/2+y,1/2+z
1/2+x,1/2-y,1/2+z
loop_
_atom_site_type_symbol
_atom_site_label
_atom_site_fract_x
_atom_site_fract_y
_atom_site_fract_z
Si Si1 0.284837 0.500000 0.886301
Si Si2 0.719211 0.500000 0.715610
Si Si3 0.221042 0.219888 0.101583
Si Si4 0.289314 0.711477 0.437341
Si Si5 0.792250 0.500000 0.147226
Si Si6 0.781508 0.000000 0.820930
O O1 0.500000 0.500000 0.885576
O O2 0.218499 0.500000 0.800669
O O3 0.228115 0.634489 0.924471
O O4 0.500000 0.500000 0.717755
O O5 0.776019 0.625079 0.668078
O O6 0.285178 0.365770 0.117123
O O7 0.000000 0.219304 0.101610
O O8 0.281858 0.177000 0.019369
O O9 0.500000 0.679655 0.439858
O O10 0.219683 0.625928 0.368447
O O11 0.786526 0.500000 0.236788
O O12 0.000000 0.500000 0.122738
O O13 0.000000 0.000000 0.814946
#
# Coordination Sequence:
#
# PCOD9373929 Si02
#       6
#     4   4   8   8   4   4
#     4  11  22  35  54  81 110 139 172 214 266 317
#     4   9  17  30  50  76 102 129 170 220 258 295
#     4   9  17  31  52  75  98 131 176 218 253 295
#     4  10  20  36  57  79 105 138 177 219 260 307
#     4  10  19  32  52  76 103 136 172 212 258 308
#     4  10  21  35  54  81 109 138 172 214 266 316
#
# _framework density 23.367308999999999
#
# number of rings (size 3 to 8) (size 9 to 14) (size 15 to 20)
#    0.000    2.250    0.000    3.375    0.000    8.000 
#    0.000    2.500    0.000    3.000    0.000    0.000 
#    0.000    0.000    0.000    0.000    0.000    0.000 
#
# Total GULP energy -89466.079512 kJ/mol
# GULP energy per Si atom -5591.629970 kJ/mol
# Density = 2.331412 g / cm^3
# Si number density = 23.367309 Si / 1000 Ang^3
#
#
#
# Elastic Constant Matrix: (Units=GPa)
#
#
# Indices 1 2 3 4 5 6 
#
# 1 74.5924 -9.8574 -9.8186 0.0000 0.0000 0.0000
# 2 -9.8574 80.6752 -7.8615 0.0000 0.0000 0.0000
# 3 -9.8186 -7.8615 97.3724 0.0000 0.0000 0.0000
# 4 0.0000 0.0000 0.0000 48.4261 0.0000 0.0000
# 5 0.0000 0.0000 0.0000 0.0000 15.3637 0.0000
# 6 0.0000 0.0000 0.0000 0.0000 0.0000 -18.9519
#
#
#
# Elastic Compliance Matrix: (Units=1/GPa)
#
#
# Indices 1 2 3 4 5 6 
#
# 1 0.013853 0.001843 0.001546 0.000000 0.000000 0.000000
# 2 0.001843 0.012739 0.001214 0.000000 0.000000 0.000000
# 3 0.001546 0.001214 0.010524 0.000000 0.000000 0.000000
# 4 0.000000 0.000000 0.000000 0.020650 0.000000 0.000000
# 5 0.000000 0.000000 0.000000 0.000000 0.065088 0.000000
# 6 0.000000 0.000000 0.000000 0.000000 0.000000 -0.052765
#
#
# Mechanical properties :
#
#
# Convention : Reuss Voigt Hill
#
# Bulk Modulus (GPa) = 21.58768 21.95167 21.76968
# Shear Modulus (GPa) = 65.51089 27.64608 46.57849
#
# Velocity S-wave (km/s) = 5.30058 3.44337 4.46950
# Velocity P-wave (km/s) = 6.83520 5.02231 5.99765
#
# Compressibility (1/GPa) = 0.04632271
#
# Stress axis : x y z
#
# Youngs Moduli (GPa) = 72.18528 78.49941 95.02306
#
# Poissons Ratio (x) = -0.14470 -0.14688
# Poissons Ratio (y) = -0.13306 -0.11539
# Poissons Ratio (z) = -0.11158 -0.09533
#
# Static dielectric constant tensor:
#      x y z
#    x 1.896010 0.000000 0.000000 
#    y 0.000000 1.860780 0.000000 
#    z 0.000000 0.000000 1.827600 
# 
# From -- ./inp_files/15553.got.cif
#   From: 2010.05.17/outbox.cif.g08.bks.cpg/sg44_8_cif.got.tgz:15553.got - 2010.06.03 19:37:08.
