data_PCOD9373217
_publ_section_title
;
Structure prediction by ZEFSAII (Michael W. Deem and Ramdas Pophale) SiO2 
 PCOD9373217
Probable space group: I M M 2
;
_chemical_formula_sum "Si O2"
_cell_formula_units_Z 34
_cell_length_a 24.090866
_cell_length_b 7.410914
_cell_length_c 6.874034
_cell_angle_alpha 90.000000
_cell_angle_beta 90.000000
_cell_angle_gamma 90.000000
_cell_volume 1227.257971
_symmetry_space_group_name_H-M "I M M 2"
_symmetry_group_IT_number 44
_symmetry_cell_setting 'orthorhombic'
loop_
_space_group_symop_operation_xyz
x,y,z
-x,-y,z
-x,y,z
x,-y,z
1/2+x,1/2+y,1/2+z
1/2-x,1/2-y,1/2+z
1/2-x,1/2+y,1/2+z
1/2+x,1/2-y,1/2+z
loop_
_atom_site_type_symbol
_atom_site_label
_atom_site_fract_x
_atom_site_fract_y
_atom_site_fract_z
Si Si1 0.674501 0.704465 0.013070
Si Si2 0.411350 0.791442 0.597269
Si Si3 0.500000 0.500000 0.720269
Si Si4 0.562292 0.720664 0.140849
Si Si5 0.297123 0.218834 0.444791
O O1 0.672994 0.500000 0.939966
O O2 0.613226 0.789467 0.008293
O O3 0.681107 0.697831 0.247347
O O4 0.734146 0.787399 0.962055
O O5 0.451594 0.654890 0.702291
O O6 0.427734 0.771706 0.366366
O O7 0.344841 0.745674 0.605197
O O8 0.419302 0.000000 0.643898
O O9 0.500000 0.777869 0.089083
O O10 0.562379 0.500000 0.130486
O O11 0.295309 0.000000 0.430306
#
# Coordination Sequence:
#
# PCOD9373217 Si02
#       5
#     8   8   2   8   8
#     4   9  18  31  50  72 103 135 170 213 260 304
#     4  10  18  28  45  68 103 130 163 210 258 303
#     4  12  18  28  44  74  96 134 164 208 260 312
#     4   9  14  25  44  71  97 128 165 208 256 302
#     4   9  19  33  47  75 102 135 177 212 253 310
#
# _framework density 27.704037
#
# number of rings (size 3 to 8) (size 9 to 14) (size 15 to 20)
#    0.000    2.588    2.353    0.353    1.647    0.941 
#    0.000    0.000    0.000    0.000    3.059    0.000 
#    0.000    0.000    0.000    0.000    0.000    0.000 
#
# Total GULP energy -94900.838264 kJ/mol
# GULP energy per Si atom -5582.402251 kJ/mol
# Density = 2.764098 g / cm^3
# Si number density = 27.704037 Si / 1000 Ang^3
#
#
#
# Elastic Constant Matrix: (Units=GPa)
#
#
# Indices 1 2 3 4 5 6 
#
# 1 315.9945 81.0454 41.6489 0.0000 0.0000 0.0000
# 2 81.0454 170.8388 46.5878 0.0000 0.0000 0.0000
# 3 41.6489 46.5878 58.8356 0.0000 0.0000 0.0000
# 4 0.0000 0.0000 0.0000 34.8665 0.0000 0.0000
# 5 0.0000 0.0000 0.0000 0.0000 44.0355 0.0000
# 6 0.0000 0.0000 0.0000 0.0000 0.0000 12.6759
#
#
#
# Elastic Compliance Matrix: (Units=1/GPa)
#
#
# Indices 1 2 3 4 5 6 
#
# 1 0.003714 -0.001333 -0.001574 0.000000 0.000000 0.000000
# 2 -0.001333 0.007944 -0.005347 0.000000 0.000000 0.000000
# 3 -0.001574 -0.005347 0.022344 0.000000 0.000000 0.000000
# 4 0.000000 0.000000 0.000000 0.028681 0.000000 0.000000
# 5 0.000000 0.000000 0.000000 0.000000 0.022709 0.000000
# 6 0.000000 0.000000 0.000000 0.000000 0.000000 0.078890
#
#
# Mechanical properties :
#
#
# Convention : Reuss Voigt Hill
#
# Bulk Modulus (GPa) = 57.15734 98.24811 77.70272
# Shear Modulus (GPa) = 26.79248 43.40803 35.10026
#
# Velocity S-wave (km/s) = 3.11319 3.96264 3.56332
# Velocity P-wave (km/s) = 5.79645 7.51513 6.71103
#
# Compressibility (1/GPa) = 0.01749557
#
# Stress axis : x y z
#
# Youngs Moduli (GPa) = 269.26354 125.88533 44.75438
#
# Poissons Ratio (x) = 0.16776 0.07043
# Poissons Ratio (y) = 0.35884 0.23929
# Poissons Ratio (z) = 0.42374 0.67307
#
# Static dielectric constant tensor:
#      x y z
#    x 2.266440 0.000000 0.000000 
#    y 0.000000 1.970820 0.000000 
#    z 0.000000 0.000000 2.268560 
# 
# From -- ./inp_files/4564.got.cif
#   From: 2010.05.17/outbox.cif.g08.bks.cpg/sg44_3_cif.got.tgz:4564.got - 2010.06.03 19:37:08.
