data_PCOD9373802
_publ_section_title
;
Structure prediction by ZEFSAII (Michael W. Deem and Ramdas Pophale) SiO2 
 PCOD9373802
Probable space group: I M M 2
;
_chemical_formula_sum "Si O2"
_cell_formula_units_Z 64
_cell_length_a 28.230851
_cell_length_b 8.735978
_cell_length_c 15.205079
_cell_angle_alpha 90.000000
_cell_angle_beta 90.000000
_cell_angle_gamma 90.000000
_cell_volume 3749.938821
_symmetry_space_group_name_H-M "I M M 2"
_symmetry_group_IT_number 44
_symmetry_cell_setting 'orthorhombic'
loop_
_space_group_symop_operation_xyz
x,y,z
-x,-y,z
-x,y,z
x,-y,z
1/2+x,1/2+y,1/2+z
1/2-x,1/2-y,1/2+z
1/2-x,1/2+y,1/2+z
1/2+x,1/2-y,1/2+z
loop_
_atom_site_type_symbol
_atom_site_label
_atom_site_fract_x
_atom_site_fract_y
_atom_site_fract_z
Si Si1 0.861014 0.316921 0.401490
Si Si2 0.945560 0.315461 0.527473
Si Si3 0.638347 0.315250 0.343399
Si Si4 0.282675 0.183099 0.217240
Si Si5 0.328440 0.683357 0.724850
Si Si6 0.280971 0.682513 0.026561
Si Si7 0.945630 0.815294 0.717590
Si Si8 0.676201 0.684729 0.526876
O O1 0.857812 0.500000 0.405377
O O2 0.908720 0.268331 0.452445
O O3 0.857808 0.262613 0.301287
O O4 0.816877 0.246425 0.454390
O O5 0.944701 0.500000 0.533081
O O6 0.931329 0.249225 0.622388
O O7 0.000000 0.267901 0.510305
O O8 0.641044 0.500000 0.337900
O O9 0.682861 0.246277 0.291530
O O10 0.590897 0.266000 0.292786
O O11 0.642508 0.273569 0.445874
O O12 0.227572 0.219773 0.236222
O O13 0.295264 0.256616 0.123175
O O14 0.286676 0.000000 0.210408
O O15 0.333416 0.500000 0.732743
O O16 0.340501 0.729088 0.624647
O O17 0.281384 0.500000 0.025338
O O18 0.227839 0.743402 0.011058
O O19 0.000000 0.767450 0.734321
O O20 0.944756 0.000000 0.713173
O O21 0.682095 0.500000 0.528111
#
# Coordination Sequence:
#
# PCOD9373802 Si02
#       8
#     8   8   8   8   8   8   8   8
#     4  11  21  32  50  73  96 125 161 200 242 288
#     4   9  19  35  52  71  96 125 156 191 235 286
#     4  10  19  31  50  73  96 127 164 199 238 284
#     4  10  20  33  48  70 101 132 161 196 237 282
#     4   9  19  34  49  67  95 129 162 198 239 281
#     4  11  21  32  48  71 100 131 162 197 237 284
#     4   9  18  32  50  74 101 125 152 190 237 287
#     4   9  19  35  51  68  95 130 166 202 237 276
#
# _framework density 17.066946000000002
#
# number of rings (size 3 to 8) (size 9 to 14) (size 15 to 20)
#    0.000    2.250    0.000    4.125    0.000    8.500 
#    0.000    0.000    0.000    0.750    0.000    1.750 
#    0.000    0.000    0.000    0.000    0.000    0.000 
#
# Total GULP energy -178602.140642 kJ/mol
# GULP energy per Si atom -5581.316895 kJ/mol
# Density = 1.702810 g / cm^3
# Si number density = 17.066946 Si / 1000 Ang^3
#
#
#
# Elastic Constant Matrix: (Units=GPa)
#
#
# Indices 1 2 3 4 5 6 
#
# 1 75.3696 27.4725 88.7115 0.0000 0.0000 0.0000
# 2 27.4725 21.5485 38.4216 0.0000 0.0000 0.0000
# 3 88.7115 38.4216 165.4159 0.0000 0.0000 0.0000
# 4 0.0000 0.0000 0.0000 23.3709 0.0000 0.0000
# 5 0.0000 0.0000 0.0000 0.0000 28.7641 0.0000
# 6 0.0000 0.0000 0.0000 0.0000 0.0000 14.9022
#
#
#
# Elastic Compliance Matrix: (Units=1/GPa)
#
#
# Indices 1 2 3 4 5 6 
#
# 1 0.041565 -0.022610 -0.017039 0.000000 0.000000 0.000000
# 2 -0.022610 0.091512 -0.009130 0.000000 0.000000 0.000000
# 3 -0.017039 -0.009130 0.017304 0.000000 0.000000 0.000000
# 4 0.000000 0.000000 0.000000 0.042788 0.000000 0.000000
# 5 0.000000 0.000000 0.000000 0.000000 0.034766 0.000000
# 6 0.000000 0.000000 0.000000 0.000000 0.000000 0.067104
#
#
# Mechanical properties :
#
#
# Convention : Reuss Voigt Hill
#
# Bulk Modulus (GPa) = 18.93146 63.50501 41.21824
# Shear Modulus (GPa) = 12.18899 20.58936 16.38917
#
# Velocity S-wave (km/s) = 2.67533 3.47708 3.10221
# Velocity P-wave (km/s) = 4.54530 7.30823 6.08564
#
# Compressibility (1/GPa) = 0.05282212
#
# Stress axis : x y z
#
# Youngs Moduli (GPa) = 24.05860 10.92749 57.78976
#
# Poissons Ratio (x) = 0.24708 0.98470
# Poissons Ratio (y) = 0.54398 0.52762
# Poissons Ratio (z) = 0.40994 0.09977
#
# Static dielectric constant tensor:
#      x y z
#    x 1.567980 0.000000 0.000000 
#    y 0.000000 1.572230 0.000000 
#    z 0.000000 0.000000 1.583780 
# 
# From -- ./inp_files/16877.got.cif
#   From: 2010.05.17/outbox.cif.g08.bks.cpg/sg44_9_cif.got.tgz:16877.got - 2010.06.03 19:37:08.
