data_PCOD9373590
_publ_section_title
;
Structure prediction by ZEFSAII (Michael W. Deem and Ramdas Pophale) SiO2 
 PCOD9373590
Probable space group: I M M 2
;
_chemical_formula_sum "Si O2"
_cell_formula_units_Z 64
_cell_length_a 19.266465
_cell_length_b 8.592123
_cell_length_c 22.164579
_cell_angle_alpha 90.000000
_cell_angle_beta 90.000000
_cell_angle_gamma 90.000000
_cell_volume 3669.120796
_symmetry_space_group_name_H-M "I M M 2"
_symmetry_group_IT_number 44
_symmetry_cell_setting 'orthorhombic'
loop_
_space_group_symop_operation_xyz
x,y,z
-x,-y,z
-x,y,z
x,-y,z
1/2+x,1/2+y,1/2+z
1/2-x,1/2-y,1/2+z
1/2-x,1/2+y,1/2+z
1/2+x,1/2-y,1/2+z
loop_
_atom_site_type_symbol
_atom_site_label
_atom_site_fract_x
_atom_site_fract_y
_atom_site_fract_z
Si Si1 0.322551 0.321096 0.161100
Si Si2 0.422360 0.185077 0.260295
Si Si3 0.075867 0.813233 0.438252
Si Si4 0.281540 0.812618 0.565232
Si Si5 0.078888 0.676023 0.571047
Si Si6 0.229350 0.812752 0.432164
Si Si7 0.129272 0.814579 0.885760
Si Si8 0.922493 0.812297 0.018398
O O1 0.310388 0.500000 0.177049
O O2 0.360488 0.241185 0.216932
O O3 0.254535 0.255237 0.126909
O O4 0.377971 0.302013 0.107170
O O5 0.500000 0.245534 0.244120
O O6 0.404789 0.235491 0.328165
O O7 0.424623 0.000000 0.256106
O O8 0.076468 0.722402 0.501376
O O9 0.151169 0.774970 0.410546
O O10 0.000000 0.780605 0.409043
O O11 0.077639 0.000000 0.449653
O O12 0.241529 0.765608 0.502901
O O13 0.360107 0.757996 0.556932
O O14 0.278246 0.000000 0.566799
O O15 0.106701 0.500000 0.579267
O O16 0.000000 0.675415 0.593735
O O17 0.290502 0.734031 0.394420
O O18 0.238275 0.000000 0.429441
O O19 0.092192 0.768877 0.948559
O O20 0.123796 0.000000 0.879247
O O21 0.000000 0.763340 0.035773
O O22 0.918554 0.000000 0.021577
#
# Coordination Sequence:
#
# PCOD9373590 Si02
#       8
#     8   8   8   8   8   8   8   8
#     4  11  21  34  50  69  96 132 171 208 245 293
#     4  11  24  39  53  73 101 134 173 213 252 295
#     4   9  16  27  44  66  95 131 167 202 243 293
#     4   9  18  31  47  71  99 129 165 202 247 301
#     4  10  19  28  40  62  93 128 165 203 241 283
#     4   9  16  30  48  70 100 131 167 210 254 301
#     4  10  20  34  53  75  99 132 172 211 253 300
#     4   9  18  32  51  76 103 130 162 203 251 300
#
# _framework density 17.442872000000001
#
# number of rings (size 3 to 8) (size 9 to 14) (size 15 to 20)
#    0.000    2.250    1.250    2.250    0.000    6.000 
#    0.000    0.000    0.000    0.000    0.000    0.875 
#    0.000    5.000    0.000    0.000    0.000    0.000 
#
# Total GULP energy -178280.061647 kJ/mol
# GULP energy per Si atom -5571.251926 kJ/mol
# Density = 1.740317 g / cm^3
# Si number density = 17.442872 Si / 1000 Ang^3
#
#
#
# Elastic Constant Matrix: (Units=GPa)
#
#
# Indices 1 2 3 4 5 6 
#
# 1 131.3607 18.9610 33.4806 0.0000 0.0000 0.0000
# 2 18.9610 15.4603 14.5494 0.0000 0.0000 0.0000
# 3 33.4806 14.5494 57.2562 0.0000 0.0000 0.0000
# 4 0.0000 0.0000 0.0000 18.2781 0.0000 0.0000
# 5 0.0000 0.0000 0.0000 0.0000 16.9357 0.0000
# 6 0.0000 0.0000 0.0000 0.0000 0.0000 23.2504
#
#
#
# Elastic Compliance Matrix: (Units=1/GPa)
#
#
# Indices 1 2 3 4 5 6 
#
# 1 0.009757 -0.008670 -0.003502 0.000000 0.000000 0.000000
# 2 -0.008670 0.092716 -0.018490 0.000000 0.000000 0.000000
# 3 -0.003502 -0.018490 0.024212 0.000000 0.000000 0.000000
# 4 0.000000 0.000000 0.000000 0.054710 0.000000 0.000000
# 5 0.000000 0.000000 0.000000 0.000000 0.059047 0.000000
# 6 0.000000 0.000000 0.000000 0.000000 0.000000 0.043010
#
#
# Mechanical properties :
#
#
# Convention : Reuss Voigt Hill
#
# Bulk Modulus (GPa) = 15.29999 37.56214 26.43106
# Shear Modulus (GPa) = 13.64022 20.83192 17.23607
#
# Velocity S-wave (km/s) = 2.79945 3.45960 3.14689
# Velocity P-wave (km/s) = 4.38631 6.12696 5.32820
#
# Compressibility (1/GPa) = 0.06535953
#
# Stress axis : x y z
#
# Youngs Moduli (GPa) = 102.49364 10.78562 41.30223
#
# Poissons Ratio (x) = 0.09351 0.14464
# Poissons Ratio (y) = 0.88864 0.76369
# Poissons Ratio (z) = 0.35894 0.19943
#
# Static dielectric constant tensor:
#      x y z
#    x 1.642760 0.000000 0.000000 
#    y 0.000000 1.602670 0.000000 
#    z 0.000000 0.000000 1.576580 
# 
# From -- ./inp_files/24356.got.cif
#   From: 2010.05.17/outbox.cif.g08.bks.cpg/sg44_13_cif.got.tgz:24356.got - 2010.06.03 19:37:08.
