data_PCOD9373230
_publ_section_title
;
Structure prediction by ZEFSAII (Michael W. Deem and Ramdas Pophale) SiO2 
 PCOD9373230
Probable space group: I M M 2
;
_chemical_formula_sum "Si O2"
_cell_formula_units_Z 64
_cell_length_a 29.073113
_cell_length_b 7.845035
_cell_length_c 15.078868
_cell_angle_alpha 90.000000
_cell_angle_beta 90.000000
_cell_angle_gamma 90.000000
_cell_volume 3439.182017
_symmetry_space_group_name_H-M "I M M 2"
_symmetry_group_IT_number 44
_symmetry_cell_setting 'orthorhombic'
loop_
_space_group_symop_operation_xyz
x,y,z
-x,-y,z
-x,y,z
x,-y,z
1/2+x,1/2+y,1/2+z
1/2-x,1/2-y,1/2+z
1/2-x,1/2+y,1/2+z
1/2+x,1/2-y,1/2+z
loop_
_atom_site_type_symbol
_atom_site_label
_atom_site_fract_x
_atom_site_fract_y
_atom_site_fract_z
Si Si1 0.135046 0.291401 0.549980
Si Si2 0.362921 0.297055 0.494413
Si Si3 0.824531 0.708817 0.370468
Si Si4 0.819514 0.298765 0.171163
Si Si5 0.052667 0.708120 0.673618
Si Si6 0.721201 0.699540 0.378439
Si Si7 0.716909 0.199573 0.177665
Si Si8 0.552103 0.205109 0.374237
O O1 0.134390 0.500000 0.549553
O O2 0.141627 0.235849 0.448543
O O3 0.089722 0.233476 0.601926
O O4 0.179942 0.238827 0.606381
O O5 0.359281 0.500000 0.496239
O O6 0.355841 0.234623 0.594265
O O7 0.320289 0.225772 0.435764
O O8 0.410311 0.254421 0.446053
O O9 0.824301 0.500000 0.370814
O O10 0.833876 0.762763 0.269338
O O11 0.772577 0.768752 0.392890
O O12 0.811424 0.500000 0.178121
O O13 0.769726 0.220535 0.147598
O O14 0.053298 0.500000 0.673162
O O15 0.064969 0.762184 0.774198
O O16 0.000000 0.760001 0.656023
O O17 0.724016 0.500000 0.401047
O O18 0.711686 0.714890 0.273622
O O19 0.708039 0.000000 0.191817
O O20 0.500000 0.265279 0.392829
O O21 0.550693 0.000000 0.371562
#
# Coordination Sequence:
#
# PCOD9373230 Si02
#       8
#     8   8   8   8   8   8   8   8
#     4   9  15  24  42  66  91 120 154 193 237 281
#     4  11  21  32  50  73  96 125 165 207 243 286
#     4   8  15  28  43  59  85 123 160 191 230 279
#     4  10  20  33  47  64  93 131 164 197 243 290
#     4   8  14  25  43  69  98 124 151 187 233 285
#     4   9  18  31  44  63  95 129 157 193 242 290
#     4  10  18  28  46  71  96 124 160 198 236 285
#     4   9  18  33  51  72 100 128 153 189 242 300
#
# _framework density 18.609076999999999
#
# number of rings (size 3 to 8) (size 9 to 14) (size 15 to 20)
#    0.000    2.750    0.000    4.125    0.000    4.250 
#    0.000    0.000    0.000    3.000    0.000    3.500 
#    0.000    0.000    0.000    0.000    0.000    0.000 
#
# Total GULP energy -178469.486343 kJ/mol
# GULP energy per Si atom -5577.171448 kJ/mol
# Density = 1.856672 g / cm^3
# Si number density = 18.609077 Si / 1000 Ang^3
#
#
#
# Elastic Constant Matrix: (Units=GPa)
#
#
# Indices 1 2 3 4 5 6 
#
# 1 95.7666 2.7655 98.7924 0.0000 0.0000 0.0000
# 2 2.7655 20.6321 1.9965 0.0000 0.0000 0.0000
# 3 98.7924 1.9965 137.4801 0.0000 0.0000 0.0000
# 4 0.0000 0.0000 0.0000 11.7346 0.0000 0.0000
# 5 0.0000 0.0000 0.0000 0.0000 29.2188 0.0000
# 6 0.0000 0.0000 0.0000 0.0000 0.0000 12.5447
#
#
#
# Elastic Compliance Matrix: (Units=1/GPa)
#
#
# Indices 1 2 3 4 5 6 
#
# 1 0.040504 -0.002616 -0.029068 0.000000 0.000000 0.000000
# 2 -0.002616 0.048705 0.001173 0.000000 0.000000 0.000000
# 3 -0.029068 0.001173 0.028145 0.000000 0.000000 0.000000
# 4 0.000000 0.000000 0.000000 0.085218 0.000000 0.000000
# 5 0.000000 0.000000 0.000000 0.000000 0.034225 0.000000
# 6 0.000000 0.000000 0.000000 0.000000 0.000000 0.079715
#
#
# Mechanical properties :
#
#
# Convention : Reuss Voigt Hill
#
# Bulk Modulus (GPa) = 17.75219 51.22084 34.48651
# Shear Modulus (GPa) = 12.61635 20.72126 16.66880
#
# Velocity S-wave (km/s) = 2.60661 3.34054 2.99613
# Velocity P-wave (km/s) = 4.31502 6.51639 5.52643
#
# Compressibility (1/GPa) = 0.05633108
#
# Stress axis : x y z
#
# Youngs Moduli (GPa) = 24.68899 20.53167 35.53061
#
# Poissons Ratio (x) = 0.05372 1.03280
# Poissons Ratio (y) = 0.06459 -0.04167
# Poissons Ratio (z) = 0.71766 -0.02408
#
# Static dielectric constant tensor:
#      x y z
#    x 1.636020 0.000000 0.000000 
#    y 0.000000 1.694090 0.000000 
#    z 0.000000 0.000000 1.655040 
# 
# From -- ./inp_files/17169.got.cif
#   From: 2010.05.17/outbox.cif.g08.bks.cpg/sg44_9_cif.got.tgz:17169.got - 2010.06.03 19:37:08.
