data_PCOD9373770
_publ_section_title
;
Structure prediction by ZEFSAII (Michael W. Deem and Ramdas Pophale) SiO2 
 PCOD9373770
Probable space group: I M M 2
;
_chemical_formula_sum "Si O2"
_cell_formula_units_Z 48
_cell_length_a 8.888645
_cell_length_b 14.123325
_cell_length_c 24.363255
_cell_angle_alpha 90.000000
_cell_angle_beta 90.000000
_cell_angle_gamma 90.000000
_cell_volume 3058.495355
_symmetry_space_group_name_H-M "I M M 2"
_symmetry_group_IT_number 44
_symmetry_cell_setting 'orthorhombic'
loop_
_space_group_symop_operation_xyz
x,y,z
-x,-y,z
-x,y,z
x,-y,z
1/2+x,1/2+y,1/2+z
1/2-x,1/2-y,1/2+z
1/2-x,1/2+y,1/2+z
1/2+x,1/2-y,1/2+z
loop_
_atom_site_type_symbol
_atom_site_label
_atom_site_fract_x
_atom_site_fract_y
_atom_site_fract_z
Si Si1 0.180069 0.783874 0.326890
Si Si2 0.820114 0.389182 0.724170
Si Si3 0.681345 0.390817 0.385752
Si Si4 0.180892 0.889137 0.106839
Si Si5 0.181128 0.891721 0.438815
Si Si6 0.818931 0.217404 0.997180
O O1 0.249367 0.825794 0.271714
O O2 0.243235 0.681059 0.343160
O O3 0.221471 0.852063 0.378336
O O4 0.000000 0.781262 0.322938
O O5 0.779082 0.500000 0.733460
O O6 0.758091 0.363102 0.664104
O O7 0.000000 0.381783 0.725075
O O8 0.500000 0.384751 0.380652
O O9 0.725672 0.500000 0.379085
O O10 0.720951 0.352665 0.446707
O O11 0.229427 0.826342 0.055101
O O12 0.000000 0.880963 0.112668
O O13 0.213993 0.000000 0.095598
O O14 0.250083 0.818722 0.482179
O O15 0.000000 0.888868 0.442778
O O16 0.230871 0.000000 0.445476
O O17 0.000000 0.224539 0.997822
#
# Coordination Sequence:
#
# PCOD9373770 Si02
#       6
#     8   8   8   8   8   8
#     4  10  19  31  48  69  94 124 157 192 230 274
#     4  10  20  32  47  69  95 122 154 192 233 277
#     4   9  17  30  48  70  97 126 154 187 228 273
#     4   9  17  30  48  69  94 123 152 184 226 275
#     4   9  18  31  46  66  93 124 155 187 227 273
#     4   9  17  29  47  71  95 121 154 188 224 269
#
# _framework density 15.693992
#
# number of rings (size 3 to 8) (size 9 to 14) (size 15 to 20)
#    0.000    2.667    0.000    2.000    0.000    5.667 
#    0.000    0.000    0.000    4.000    0.000    4.667 
#    0.000    0.000    0.000    0.000    0.000    0.000 
#
# Total GULP energy -133826.508794 kJ/mol
# GULP energy per Si atom -5576.104533 kJ/mol
# Density = 1.565827 g / cm^3
# Si number density = 15.693992 Si / 1000 Ang^3
#
#
#
# Elastic Constant Matrix: (Units=GPa)
#
#
# Indices 1 2 3 4 5 6 
#
# 1 25.2141 43.2548 44.2220 0.0000 0.0000 0.0000
# 2 43.2548 145.6020 94.0886 0.0000 0.0000 0.0000
# 3 44.2220 94.0886 142.0782 0.0000 0.0000 0.0000
# 4 0.0000 0.0000 0.0000 26.2515 0.0000 0.0000
# 5 0.0000 0.0000 0.0000 0.0000 25.4638 0.0000
# 6 0.0000 0.0000 0.0000 0.0000 0.0000 25.1657
#
#
#
# Elastic Compliance Matrix: (Units=1/GPa)
#
#
# Indices 1 2 3 4 5 6 
#
# 1 0.109805 -0.018416 -0.021981 0.000000 0.000000 0.000000
# 2 -0.018416 0.015094 -0.004264 0.000000 0.000000 0.000000
# 3 -0.021981 -0.004264 0.016704 0.000000 0.000000 0.000000
# 4 0.000000 0.000000 0.000000 0.038093 0.000000 0.000000
# 5 0.000000 0.000000 0.000000 0.000000 0.039271 0.000000
# 6 0.000000 0.000000 0.000000 0.000000 0.000000 0.039737
#
#
# Mechanical properties :
#
#
# Convention : Reuss Voigt Hill
#
# Bulk Modulus (GPa) = 19.12745 75.11390 47.12068
# Shear Modulus (GPa) = 13.68159 24.13144 18.90652
#
# Velocity S-wave (km/s) = 2.95578 3.92551 3.47464
# Velocity P-wave (km/s) = 4.88499 8.27717 6.79613
#
# Compressibility (1/GPa) = 0.05228088
#
# Stress axis : x y z
#
# Youngs Moduli (GPa) = 9.10702 66.24977 59.86648
#
# Poissons Ratio (x) = 1.22006 1.31595
# Poissons Ratio (y) = 0.16772 0.25527
# Poissons Ratio (z) = 0.20018 0.28249
#
# Static dielectric constant tensor:
#      x y z
#    x 1.525340 0.000000 0.000000 
#    y 0.000000 1.508540 0.000000 
#    z 0.000000 0.000000 1.501480 
# 
# From -- ./inp_files/22897.got.cif
#   From: 2010.05.17/outbox.cif.g08.bks.cpg/sg44_12_cif.got.tgz:22897.got - 2010.06.03 19:37:08.
