data_PCOD9373041
_publ_section_title
;
Structure prediction by ZEFSAII (Michael W. Deem and Ramdas Pophale) SiO2 
 PCOD9373041
Probable space group: I M M 2
;
_chemical_formula_sum "Si O2"
_cell_formula_units_Z 56
_cell_length_a 8.698791
_cell_length_b 22.935545
_cell_length_c 18.405374
_cell_angle_alpha 90.000000
_cell_angle_beta 90.000000
_cell_angle_gamma 90.000000
_cell_volume 3672.084004
_symmetry_space_group_name_H-M "I M M 2"
_symmetry_group_IT_number 44
_symmetry_cell_setting 'orthorhombic'
loop_
_space_group_symop_operation_xyz
x,y,z
-x,-y,z
-x,y,z
x,-y,z
1/2+x,1/2+y,1/2+z
1/2-x,1/2-y,1/2+z
1/2-x,1/2+y,1/2+z
1/2+x,1/2-y,1/2+z
loop_
_atom_site_type_symbol
_atom_site_label
_atom_site_fract_x
_atom_site_fract_y
_atom_site_fract_z
Si Si1 0.182978 0.688581 0.940360
Si Si2 0.184156 0.314544 0.393536
Si Si3 0.815954 0.220212 0.750568
Si Si4 0.684728 0.717796 0.086142
Si Si5 0.685361 0.433348 0.669767
Si Si6 0.684751 0.346159 0.796934
Si Si7 0.184792 0.351412 0.547051
O O1 0.258129 0.750738 0.918606
O O2 0.246222 0.646444 0.877551
O O3 0.000000 0.692324 0.935970
O O4 0.236490 0.680119 0.023096
O O5 0.256638 0.322127 0.314284
O O6 0.227367 0.355305 0.461674
O O7 0.000000 0.313651 0.387767
O O8 0.775670 0.201806 0.668726
O O9 0.744649 0.284150 0.765928
O O10 0.000000 0.225629 0.755409
O O11 0.500000 0.714395 0.076995
O O12 0.728093 0.786131 0.074311
O O13 0.500000 0.433636 0.668920
O O14 0.739761 0.500000 0.671794
O O15 0.732366 0.396239 0.740612
O O16 0.742557 0.399172 0.598919
O O17 0.500000 0.343855 0.801438
O O18 0.000000 0.354984 0.552042
#
# Coordination Sequence:
#
# PCOD9373041 Si02
#       7
#     8   8   8   8   8   8   8
#     4  10  18  26  40  60  81 108 144 175 206 253
#     4   9  17  28  40  58  84 111 140 172 210 254
#     4  10  17  26  42  63  86 112 143 174 205 250
#     4   9  17  28  41  60  88 114 140 173 209 251
#     4  10  21  33  45  63  84 110 148 188 220 253
#     4  10  18  29  43  57  81 113 142 176 219 255
#     4   9  17  30  44  58  81 113 144 177 215 251
#
# _framework density 15.250196000000001
#
# number of rings (size 3 to 8) (size 9 to 14) (size 15 to 20)
#    0.000    2.429    1.429    5.143    0.000    4.857 
#    0.000    0.000    0.000    0.000    0.000    0.000 
#    0.000    1.143    0.000   10.286    0.000    6.000 
#
# Total GULP energy -155950.580113 kJ/mol
# GULP energy per Si atom -5569.663575 kJ/mol
# Density = 1.521549 g / cm^3
# Si number density = 15.250196 Si / 1000 Ang^3
#
#
#
# Elastic Constant Matrix: (Units=GPa)
#
#
# Indices 1 2 3 4 5 6 
#
# 1 24.7964 11.0940 39.8431 0.0000 0.0000 0.0000
# 2 11.0940 48.8963 46.2368 0.0000 0.0000 0.0000
# 3 39.8431 46.2368 173.7815 0.0000 0.0000 0.0000
# 4 0.0000 0.0000 0.0000 12.6967 0.0000 0.0000
# 5 0.0000 0.0000 0.0000 0.0000 29.0269 0.0000
# 6 0.0000 0.0000 0.0000 0.0000 0.0000 11.4244
#
#
#
# Elastic Compliance Matrix: (Units=1/GPa)
#
#
# Indices 1 2 3 4 5 6 
#
# 1 0.063878 -0.000861 -0.014416 0.000000 0.000000 0.000000
# 2 -0.000861 0.027338 -0.007076 0.000000 0.000000 0.000000
# 3 -0.014416 -0.007076 0.010942 0.000000 0.000000 0.000000
# 4 0.000000 0.000000 0.000000 0.078761 0.000000 0.000000
# 5 0.000000 0.000000 0.000000 0.000000 0.034451 0.000000
# 6 0.000000 0.000000 0.000000 0.000000 0.000000 0.087532
#
#
# Mechanical properties :
#
#
# Convention : Reuss Voigt Hill
#
# Bulk Modulus (GPa) = 17.40603 49.09133 33.24868
# Shear Modulus (GPa) = 13.63290 20.64961 17.14125
#
# Velocity S-wave (km/s) = 2.99314 3.68374 3.35625
# Velocity P-wave (km/s) = 4.83566 7.09604 6.07196
#
# Compressibility (1/GPa) = 0.05745136
#
# Stress axis : x y z
#
# Youngs Moduli (GPa) = 15.65485 36.57880 91.38814
#
# Poissons Ratio (x) = 0.03149 1.31748
# Poissons Ratio (y) = 0.01348 0.64669
# Poissons Ratio (z) = 0.22569 0.25884
#
# Static dielectric constant tensor:
#      x y z
#    x 1.513270 0.000000 0.000000 
#    y 0.000000 1.469460 0.000000 
#    z 0.000000 0.000000 1.569290 
# 
# From -- ./inp_files/20818.got.cif
#   From: 2010.05.17/outbox.cif.g08.bks.cpg/sg44_11_cif.got.tgz:20818.got - 2010.06.03 19:37:08.
