data_PCOD9373887
_publ_section_title
;
Structure prediction by ZEFSAII (Michael W. Deem and Ramdas Pophale) SiO2 
 PCOD9373887
Probable space group: I M M 2
;
_chemical_formula_sum "Si O2"
_cell_formula_units_Z 56
_cell_length_a 7.531583
_cell_length_b 24.205288
_cell_length_c 13.980553
_cell_angle_alpha 90.000000
_cell_angle_beta 90.000000
_cell_angle_gamma 90.000000
_cell_volume 2548.712630
_symmetry_space_group_name_H-M "I M M 2"
_symmetry_group_IT_number 44
_symmetry_cell_setting 'orthorhombic'
loop_
_space_group_symop_operation_xyz
x,y,z
-x,-y,z
-x,y,z
x,-y,z
1/2+x,1/2+y,1/2+z
1/2-x,1/2-y,1/2+z
1/2-x,1/2+y,1/2+z
1/2+x,1/2-y,1/2+z
loop_
_atom_site_type_symbol
_atom_site_label
_atom_site_fract_x
_atom_site_fract_y
_atom_site_fract_z
Si Si1 0.784474 0.760979 0.404280
Si Si2 0.286552 0.366116 0.604775
Si Si3 0.294913 0.759068 0.616139
Si Si4 0.218133 0.373010 0.189458
Si Si5 0.286801 0.629244 0.809983
Si Si6 0.711416 0.865537 0.894315
Si Si7 0.211822 0.562236 0.002374
O O1 0.715818 0.780627 0.507342
O O2 0.729469 0.807047 0.327890
O O3 0.721270 0.698064 0.393617
O O4 0.000000 0.760178 0.406389
O O5 0.500000 0.364413 0.606139
O O6 0.217885 0.302474 0.609697
O O7 0.225457 0.391682 0.705682
O O8 0.244585 0.389502 0.499917
O O9 0.500000 0.752095 0.646298
O O10 0.222318 0.809126 0.678373
O O11 0.272363 0.393180 0.295214
O O12 0.000000 0.372503 0.185212
O O13 0.280881 0.406873 0.097318
O O14 0.500000 0.630096 0.807004
O O15 0.240253 0.594245 0.903129
O O16 0.500000 0.862121 0.886566
O O17 0.282137 0.500000 0.995843
O O18 0.000000 0.559150 0.014827
#
# Coordination Sequence:
#
# PCOD9373887 Si02
#       7
#     8   8   8   8   8   8   8
#     4   9  16  26  42  68  98 127 161 200 235 279
#     4   9  18  30  45  70 101 132 164 197 232 281
#     4   9  15  26  45  67  95 132 166 193 232 288
#     4   9  16  29  49  69  93 127 161 196 243 290
#     4  10  19  32  50  70  98 132 164 201 247 295
#     4   9  17  29  46  69  98 132 166 196 233 287
#     4  10  21  36  54  76  97 120 161 213 254 289
#
# _framework density 21.971876000000002
#
# number of rings (size 3 to 8) (size 9 to 14) (size 15 to 20)
#    0.000    2.714    1.429    0.857    0.000    4.286 
#    0.000    1.429    0.000    7.714    0.000    2.000 
#    0.000    0.000    0.000    0.000    0.000    0.000 
#
# Total GULP energy -156048.400559 kJ/mol
# GULP energy per Si atom -5573.157163 kJ/mol
# Density = 2.192187 g / cm^3
# Si number density = 21.971876 Si / 1000 Ang^3
#
#
#
# Elastic Constant Matrix: (Units=GPa)
#
#
# Indices 1 2 3 4 5 6 
#
# 1 52.7523 2.1666 1.3670 0.0000 0.0000 0.0000
# 2 2.1666 36.8428 37.5616 0.0000 0.0000 0.0000
# 3 1.3670 37.5616 224.5196 -0.0001 0.0000 0.0000
# 4 0.0000 0.0000 -0.0001 10.6695 0.0000 0.0000
# 5 0.0000 0.0000 0.0000 0.0000 16.9093 0.0000
# 6 0.0000 0.0000 0.0000 0.0000 0.0000 6.6040
#
#
#
# Elastic Compliance Matrix: (Units=1/GPa)
#
#
# Indices 1 2 3 4 5 6 
#
# 1 0.019004 -0.001205 0.000086 0.000000 0.000000 0.000000
# 2 -0.001205 0.032800 -0.005480 0.000000 0.000000 0.000000
# 3 0.000086 -0.005480 0.005370 0.000000 0.000000 0.000000
# 4 0.000000 0.000000 0.000000 0.093725 0.000000 0.000000
# 5 0.000000 0.000000 0.000000 0.000000 0.059139 0.000000
# 6 0.000000 0.000000 0.000000 0.000000 0.000000 0.151422
#
#
# Mechanical properties :
#
#
# Convention : Reuss Voigt Hill
#
# Bulk Modulus (GPa) = 22.73988 44.03391 33.38690
# Shear Modulus (GPa) = 12.84298 25.03787 18.94043
#
# Velocity S-wave (km/s) = 2.42031 3.37937 2.93922
# Velocity P-wave (km/s) = 4.26410 5.94234 5.17175
#
# Compressibility (1/GPa) = 0.04397560
#
# Stress axis : x y z
#
# Youngs Moduli (GPa) = 52.62112 30.48762 186.21173
#
# Poissons Ratio (x) = 0.03674 -0.01600
# Poissons Ratio (y) = 0.06342 1.02045
# Poissons Ratio (z) = -0.00452 0.16707
#
# Static dielectric constant tensor:
#      x y z
#    x 1.854940 0.000000 0.000000 
#    y 0.000000 1.770730 0.000000 
#    z 0.000000 0.000000 1.896090 
# 
# From -- ./inp_files/12580.got.cif
#   From: 2010.05.17/outbox.cif.g08.bks.cpg/sg44_7_cif.got.tgz:12580.got - 2010.06.03 19:37:08.
