data_PCOD9373133
_publ_section_title
;
Structure prediction by ZEFSAII (Michael W. Deem and Ramdas Pophale) SiO2 
 PCOD9373133
Probable space group: I M M 2
;
_chemical_formula_sum "Si O2"
_cell_formula_units_Z 56
_cell_length_a 30.504922
_cell_length_b 7.598502
_cell_length_c 14.250945
_cell_angle_alpha 90.000000
_cell_angle_beta 90.000000
_cell_angle_gamma 90.000000
_cell_volume 3303.250922
_symmetry_space_group_name_H-M "I M M 2"
_symmetry_group_IT_number 44
_symmetry_cell_setting 'orthorhombic'
loop_
_space_group_symop_operation_xyz
x,y,z
-x,-y,z
-x,y,z
x,-y,z
1/2+x,1/2+y,1/2+z
1/2-x,1/2-y,1/2+z
1/2-x,1/2+y,1/2+z
1/2+x,1/2-y,1/2+z
loop_
_atom_site_type_symbol
_atom_site_label
_atom_site_fract_x
_atom_site_fract_y
_atom_site_fract_z
Si Si1 0.817269 0.211712 0.383310
Si Si2 0.680512 0.288771 0.305566
Si Si3 0.095079 0.216337 0.483359
Si Si4 0.771507 0.210971 0.989403
Si Si5 0.769304 0.211977 0.199132
Si Si6 0.000000 0.801276 0.468726
Si Si7 0.000000 0.297438 0.680459
Si Si8 0.095033 0.211715 0.700648
O O1 0.863644 0.275191 0.422437
O O2 0.777944 0.253943 0.454843
O O3 0.801511 0.277557 0.281432
O O4 0.820074 0.000000 0.377795
O O5 0.676790 0.500000 0.313738
O O6 0.696748 0.220440 0.406821
O O7 0.720040 0.253135 0.233157
O O8 0.634600 0.221417 0.264964
O O9 0.047493 0.278028 0.446759
O O10 0.100329 0.270843 0.592231
O O11 0.094047 0.000000 0.483295
O O12 0.778099 0.279418 0.094540
O O13 0.777015 0.000000 0.992447
O O14 0.773008 0.000000 0.196962
O O15 0.000000 0.809208 0.582901
O O16 0.000000 0.000000 0.430832
O O17 0.954241 0.259725 0.731341
O O18 0.000000 0.500000 0.652008
O O19 0.097647 0.000000 0.699311
#
# Coordination Sequence:
#
# PCOD9373133 Si02
#       8
#     8   8   8   8   8   4   4   8
#     4   9  16  26  40  58  77 104 137 162 190 235
#     4   9  17  28  43  59  76 104 141 167 188 229
#     4   8  13  22  38  56  73  95 128 161 187 220
#     4   9  17  28  39  56  81 106 130 162 200 232
#     4   9  17  27  39  57  84 109 129 162 206 237
#     4   8  14  26  40  54  75 102 130 162 193 226
#     4  10  18  26  38  58  81 102 122 152 195 240
#     4   9  16  27  41  56  75 102 132 161 189 224
#
# _framework density 16.952995000000001
#
# number of rings (size 3 to 8) (size 9 to 14) (size 15 to 20)
#    0.000    3.143    0.000    2.357    0.000    2.286 
#    0.000    4.286    0.000    0.000    0.000    1.000 
#    0.000    6.857    0.000    5.143    0.000    5.714 
#
# Total GULP energy -155962.196483 kJ/mol
# GULP energy per Si atom -5570.078446 kJ/mol
# Density = 1.691441 g / cm^3
# Si number density = 16.952995 Si / 1000 Ang^3
#
#
#
# Elastic Constant Matrix: (Units=GPa)
#
#
# Indices 1 2 3 4 5 6 
#
# 1 175.5499 3.7701 79.4032 0.0000 0.0000 0.0000
# 2 3.7701 39.4425 5.9299 0.0000 0.0000 0.0000
# 3 79.4032 5.9299 112.2490 0.0000 0.0000 0.0000
# 4 0.0000 0.0000 0.0000 5.5413 0.0000 0.0000
# 5 0.0000 0.0000 0.0000 0.0000 24.0876 0.0000
# 6 0.0000 0.0000 0.0000 0.0000 0.0000 12.5661
#
#
#
# Elastic Compliance Matrix: (Units=1/GPa)
#
#
# Indices 1 2 3 4 5 6 
#
# 1 0.008377 0.000091 -0.005930 0.000000 0.000000 0.000000
# 2 0.000091 0.025557 -0.001414 0.000000 0.000000 0.000000
# 3 -0.005930 -0.001414 0.013179 0.000000 0.000000 0.000000
# 4 0.000000 0.000000 0.000000 0.180464 0.000000 0.000000
# 5 0.000000 0.000000 0.000000 0.000000 0.041515 0.000000
# 6 0.000000 0.000000 0.000000 0.000000 0.000000 0.079579
#
#
# Mechanical properties :
#
#
# Convention : Reuss Voigt Hill
#
# Bulk Modulus (GPa) = 30.67034 56.16087 43.41561
# Shear Modulus (GPa) = 13.36729 24.31486 18.84107
#
# Velocity S-wave (km/s) = 2.81106 3.79126 3.33734
# Velocity P-wave (km/s) = 5.35413 7.23631 6.36517
#
# Compressibility (1/GPa) = 0.03260479
#
# Stress axis : x y z
#
# Youngs Moduli (GPa) = 119.37661 39.12769 75.88057
#
# Poissons Ratio (x) = -0.00356 0.45001
# Poissons Ratio (y) = -0.01085 0.10733
# Poissons Ratio (z) = 0.70796 0.05534
#
# Static dielectric constant tensor:
#      x y z
#    x 1.590190 0.000000 0.000000 
#    y 0.000000 1.639180 0.000000 
#    z 0.000000 0.000000 1.570480 
# 
# From -- ./inp_files/17042.got.cif
#   From: 2010.05.17/outbox.cif.g08.bks.cpg/sg44_9_cif.got.tgz:17042.got - 2010.06.03 19:37:08.
