data_PCOD9373306
_publ_section_title
;
Structure prediction by ZEFSAII (Michael W. Deem and Ramdas Pophale) SiO2 
 PCOD9373306
Probable space group: I M M 2
;
_chemical_formula_sum "Si O2"
_cell_formula_units_Z 48
_cell_length_a 7.375115
_cell_length_b 19.212621
_cell_length_c 15.222601
_cell_angle_alpha 90.000000
_cell_angle_beta 90.000000
_cell_angle_gamma 90.000000
_cell_volume 2156.970853
_symmetry_space_group_name_H-M "I M M 2"
_symmetry_group_IT_number 44
_symmetry_cell_setting 'orthorhombic'
loop_
_space_group_symop_operation_xyz
x,y,z
-x,-y,z
-x,y,z
x,-y,z
1/2+x,1/2+y,1/2+z
1/2-x,1/2-y,1/2+z
1/2-x,1/2+y,1/2+z
1/2+x,1/2-y,1/2+z
loop_
_atom_site_type_symbol
_atom_site_label
_atom_site_fract_x
_atom_site_fract_y
_atom_site_fract_z
Si Si1 0.280041 0.500000 0.741560
Si Si2 0.277685 0.229172 0.859226
Si Si3 0.282317 0.241955 0.657824
Si Si4 0.780229 0.109604 0.099261
Si Si5 0.277912 0.500000 0.942959
Si Si6 0.713183 0.348193 0.995857
Si Si7 0.708330 0.074984 0.904550
O O1 0.500000 0.500000 0.743814
O O2 0.225005 0.566708 0.684962
O O3 0.221412 0.500000 0.841185
O O4 0.500000 0.228616 0.863577
O O5 0.222896 0.243447 0.758754
O O6 0.215600 0.288427 0.928432
O O7 0.214002 0.150455 0.879753
O O8 0.500000 0.244700 0.660800
O O9 0.218584 0.311363 0.608588
O O10 0.233358 0.177928 0.595567
O O11 0.000000 0.107469 0.094803
O O12 0.710686 0.076722 0.010099
O O13 0.500000 0.500000 0.947462
O O14 0.215661 0.573566 0.983075
O O15 0.500000 0.351963 0.975434
O O16 0.500000 0.075331 0.873406
O O17 0.788137 0.000000 0.876568
#
# Coordination Sequence:
#
# PCOD9373306 Si02
#       7
#     4   8   8   8   4   8   8
#     4   9  16  28  49  78 103 128 164 211 261 306
#     4   9  18  34  54  75 102 137 173 209 253 307
#     4  10  20  34  53  78 104 135 174 212 253 304
#     4  10  18  29  50  77 104 128 161 209 259 303
#     4   9  18  32  53  78 101 130 172 213 251 302
#     4  10  19  35  57  77 102 135 172 214 256 302
#     4  10  19  32  51  74 102 134 169 205 246 301
#
# _framework density 22.253430000000002
#
# number of rings (size 3 to 8) (size 9 to 14) (size 15 to 20)
#    0.000    2.333    2.500    1.000    0.000    4.000 
#    1.500    2.083    0.000    4.000    0.000    0.000 
#    0.000    0.000    0.000    0.000    0.000    0.000 
#
# Total GULP energy -133965.234326 kJ/mol
# GULP energy per Si atom -5581.884764 kJ/mol
# Density = 2.220278 g / cm^3
# Si number density = 22.253430 Si / 1000 Ang^3
#
#
#
# Elastic Constant Matrix: (Units=GPa)
#
#
# Indices 1 2 3 4 5 6 
#
# 1 78.7282 11.5804 -6.9457 0.0000 0.0000 0.0000
# 2 11.5804 153.6126 32.7874 0.0000 0.0000 0.0000
# 3 -6.9457 32.7874 68.5969 0.0000 0.0000 0.0000
# 4 0.0000 0.0000 0.0000 33.2012 0.0000 0.0000
# 5 0.0000 0.0000 0.0000 0.0000 16.5047 0.0000
# 6 0.0000 0.0000 0.0000 0.0000 0.0000 -10.6556
#
#
#
# Elastic Compliance Matrix: (Units=1/GPa)
#
#
# Indices 1 2 3 4 5 6 
#
# 1 0.013086 -0.001414 0.002001 0.000000 0.000000 0.000000
# 2 -0.001414 0.007402 -0.003681 0.000000 0.000000 0.000000
# 3 0.002001 -0.003681 0.016540 0.000000 0.000000 0.000000
# 4 0.000000 0.000000 0.000000 0.030119 0.000000 0.000000
# 5 0.000000 0.000000 0.000000 0.000000 0.060589 0.000000
# 6 0.000000 0.000000 0.000000 0.000000 0.000000 -0.093847
#
#
# Mechanical properties :
#
#
# Convention : Reuss Voigt Hill
#
# Bulk Modulus (GPa) = 32.42494 41.75354 37.08924
# Shear Modulus (GPa) = 99.28936 25.37775 62.33355
#
# Velocity S-wave (km/s) = 6.68688 3.38064 5.29826
# Velocity P-wave (km/s) = 8.61520 5.83453 7.35742
#
# Compressibility (1/GPa) = 0.03084046
#
# Stress axis : x y z
#
# Youngs Moduli (GPa) = 76.41536 135.09560 60.45948
#
# Poissons Ratio (x) = 0.19097 -0.12096
# Poissons Ratio (y) = 0.10802 0.22256
# Poissons Ratio (z) = -0.15288 0.49731
#
# Static dielectric constant tensor:
#      x y z
#    x 1.871800 0.000000 0.000000 
#    y 0.000000 1.847230 0.000000 
#    z 0.000000 0.000000 1.757550 
# 
# From -- ./inp_files/16207.got.cif
#   From: 2010.05.17/outbox.cif.g08.bks.cpg/sg44_9_cif.got.tgz:16207.got - 2010.06.03 19:37:08.
