data_PCOD9373304
_publ_section_title
;
Structure prediction by ZEFSAII (Michael W. Deem and Ramdas Pophale) SiO2 
 PCOD9373304
Probable space group: I M M 2
;
_chemical_formula_sum "Si O2"
_cell_formula_units_Z 64
_cell_length_a 14.738204
_cell_length_b 8.826322
_cell_length_c 28.995776
_cell_angle_alpha 90.000000
_cell_angle_beta 90.000000
_cell_angle_gamma 90.000000
_cell_volume 3771.890417
_symmetry_space_group_name_H-M "I M M 2"
_symmetry_group_IT_number 44
_symmetry_cell_setting 'orthorhombic'
loop_
_space_group_symop_operation_xyz
x,y,z
-x,-y,z
-x,y,z
x,-y,z
1/2+x,1/2+y,1/2+z
1/2-x,1/2-y,1/2+z
1/2-x,1/2+y,1/2+z
1/2+x,1/2-y,1/2+z
loop_
_atom_site_type_symbol
_atom_site_label
_atom_site_fract_x
_atom_site_fract_y
_atom_site_fract_z
Si Si1 0.601793 0.815742 0.465930
Si Si2 0.894327 0.181618 0.597754
Si Si3 0.608433 0.177539 0.921069
Si Si4 0.286293 0.316626 0.007328
Si Si5 0.894698 0.818846 0.321807
Si Si6 0.894725 0.318760 0.697664
Si Si7 0.223902 0.820397 0.778712
Si Si8 0.108116 0.679282 0.860153
O O1 0.500000 0.762335 0.476820
O O2 0.681887 0.769507 0.499933
O O3 0.625030 0.773053 0.413098
O O4 0.598922 0.000000 0.465739
O O5 0.831099 0.230671 0.555477
O O6 0.874444 0.262520 0.645988
O O7 0.000000 0.211536 0.585913
O O8 0.884920 0.000000 0.603902
O O9 0.500000 0.191368 0.927800
O O10 0.630265 0.259856 0.872971
O O11 0.631040 0.000000 0.917291
O O12 0.658419 0.251516 0.964199
O O13 0.290955 0.500000 0.005374
O O14 0.823746 0.748111 0.286362
O O15 0.000000 0.775954 0.313397
O O16 0.888132 0.000000 0.321080
O O17 0.888863 0.500000 0.700218
O O18 0.827639 0.245956 0.734494
O O19 0.000000 0.275506 0.707741
O O20 0.165156 0.770574 0.823200
O O21 0.228803 0.000000 0.775763
O O22 0.130107 0.500000 0.855788
O O23 0.000000 0.694834 0.852022
#
# Coordination Sequence:
#
# PCOD9373304 Si02
#       8
#     8   8   8   8   8   8   8   8
#     4   8  15  28  46  69  97 130 168 207 241 276
#     4   9  18  32  49  72 101 128 160 207 259 307
#     4  10  20  32  47  72 106 137 166 205 251 297
#     4  10  18  29  50  75  99 133 173 208 248 304
#     4  10  21  37  55  73  98 135 175 211 247 292
#     4  10  21  37  56  76  99 130 168 207 250 305
#     4  12  23  33  51  77 104 132 163 205 256 307
#     4   9  17  30  48  71 102 139 177 212 244 288
#
# _framework density 16.967618999999999
#
# number of rings (size 3 to 8) (size 9 to 14) (size 15 to 20)
#    0.000    2.250    0.000    4.500    0.000    6.000 
#    0.000    1.250    0.000    1.875    0.000    1.750 
#    0.000    0.000    0.000    0.000    0.000    0.000 
#
# Total GULP energy -178633.688927 kJ/mol
# GULP energy per Si atom -5582.302779 kJ/mol
# Density = 1.692900 g / cm^3
# Si number density = 16.967619 Si / 1000 Ang^3
#
#
#
# Elastic Constant Matrix: (Units=GPa)
#
#
# Indices 1 2 3 4 5 6 
#
# 1 108.3863 49.5678 98.5476 0.0000 0.0000 0.0000
# 2 49.5678 52.5713 48.1237 0.0000 0.0000 0.0000
# 3 98.5476 48.1237 117.4081 0.0000 0.0000 0.0000
# 4 0.0000 0.0000 0.0000 24.8873 0.0000 0.0000
# 5 0.0000 0.0000 0.0000 0.0000 33.0851 0.0000
# 6 0.0000 0.0000 0.0000 0.0000 0.0000 17.7371
#
#
#
# Elastic Compliance Matrix: (Units=1/GPa)
#
#
# Indices 1 2 3 4 5 6 
#
# 1 0.043277 -0.012088 -0.031370 0.000000 0.000000 0.000000
# 2 -0.012088 0.033822 -0.003716 0.000000 0.000000 0.000000
# 3 -0.031370 -0.003716 0.036372 0.000000 0.000000 0.000000
# 4 0.000000 0.000000 0.000000 0.040181 0.000000 0.000000
# 5 0.000000 0.000000 0.000000 0.000000 0.030225 0.000000
# 6 0.000000 0.000000 0.000000 0.000000 0.000000 0.056379
#
#
# Mechanical properties :
#
#
# Convention : Reuss Voigt Hill
#
# Bulk Modulus (GPa) = 52.30096 74.53820 63.41958
# Shear Modulus (GPa) = 14.66365 20.61702 17.64033
#
# Velocity S-wave (km/s) = 2.94294 3.48958 3.22785
# Velocity P-wave (km/s) = 6.51450 7.76281 7.16589
#
# Compressibility (1/GPa) = 0.01912011
#
# Stress axis : x y z
#
# Youngs Moduli (GPa) = 23.10676 29.56699 27.49399
#
# Poissons Ratio (x) = 0.35742 0.86250
# Poissons Ratio (y) = 0.27933 0.10218
# Poissons Ratio (z) = 0.72487 0.10988
#
# Static dielectric constant tensor:
#      x y z
#    x 1.591580 0.000000 0.000000 
#    y 0.000000 1.570680 0.000000 
#    z 0.000000 0.000000 1.542130 
# 
# From -- ./inp_files/27529.got.cif
#   From: 2010.05.17/outbox.cif.g08.bks.cpg/sg44_14_cif.got.tgz:27529.got - 2010.06.03 19:37:08.
