data_PCOD9373181
_publ_section_title
;
Structure prediction by ZEFSAII (Michael W. Deem and Ramdas Pophale) SiO2 
 PCOD9373181
Probable space group: I M M 2
;
_chemical_formula_sum "Si O2"
_cell_formula_units_Z 64
_cell_length_a 8.686804
_cell_length_b 18.815217
_cell_length_c 27.046094
_cell_angle_alpha 90.000000
_cell_angle_beta 90.000000
_cell_angle_gamma 90.000000
_cell_volume 4420.524554
_symmetry_space_group_name_H-M "I M M 2"
_symmetry_group_IT_number 44
_symmetry_cell_setting 'orthorhombic'
loop_
_space_group_symop_operation_xyz
x,y,z
-x,-y,z
-x,y,z
x,-y,z
1/2+x,1/2+y,1/2+z
1/2-x,1/2-y,1/2+z
1/2-x,1/2+y,1/2+z
1/2+x,1/2-y,1/2+z
loop_
_atom_site_type_symbol
_atom_site_label
_atom_site_fract_x
_atom_site_fract_y
_atom_site_fract_z
Si Si1 0.316531 0.416613 0.376990
Si Si2 0.183861 0.291666 0.731665
Si Si3 0.683801 0.208000 0.636117
Si Si4 0.315004 0.165955 0.082740
Si Si5 0.815663 0.916736 0.177742
Si Si6 0.684337 0.583254 0.190252
Si Si7 0.816860 0.665964 0.285126
Si Si8 0.315218 0.082664 0.984121
O O1 0.500000 0.409655 0.371535
O O2 0.276262 0.500000 0.369011
O O3 0.233182 0.368681 0.336533
O O4 0.265849 0.398633 0.432704
O O5 0.250785 0.249872 0.683983
O O6 0.246185 0.370843 0.722853
O O7 0.245986 0.244413 0.776723
O O8 0.000000 0.290646 0.730560
O O9 0.500000 0.208677 0.636736
O O10 0.747273 0.255348 0.591287
O O11 0.746818 0.128977 0.645027
O O12 0.500000 0.168398 0.086689
O O13 0.251979 0.116141 0.127021
O O14 0.271991 0.131548 0.030382
O O15 0.000000 0.907611 0.177013
O O16 0.779482 0.000000 0.181049
O O17 0.500000 0.592293 0.191323
O O18 0.720207 0.500000 0.186993
O O19 0.751764 0.616067 0.240956
O O20 0.000000 0.669701 0.280502
O O21 0.500000 0.087348 0.977457
O O22 0.278628 0.000000 0.995533
#
# Coordination Sequence:
#
# PCOD9373181 Si02
#       8
#     8   8   8   8   8   8   8   8
#     4  10  20  32  45  62  85 112 143 179 215 250
#     4  10  18  29  44  60  82 110 142 177 211 250
#     4  10  18  28  42  60  84 111 141 175 211 252
#     4  10  18  29  45  62  84 114 147 179 212 252
#     4  10  19  29  42  62  88 115 144 177 212 252
#     4  10  19  30  44  62  85 112 143 177 212 252
#     4  11  20  30  45  62  84 113 144 176 212 254
#     4   9  18  31  45  62  84 111 144 180 215 249
#
# _framework density 14.477919999999999
#
# number of rings (size 3 to 8) (size 9 to 14) (size 15 to 20)
#    0.000    2.000    0.000    8.625    0.000    5.750 
#    0.000    1.250    0.000    0.000    0.000    0.000 
#    0.000    1.000    0.000    8.750    0.000    4.875 
#
# Total GULP energy -178458.180725 kJ/mol
# GULP energy per Si atom -5576.818148 kJ/mol
# Density = 1.444497 g / cm^3
# Si number density = 14.477920 Si / 1000 Ang^3
#
#
#
# Elastic Constant Matrix: (Units=GPa)
#
#
# Indices 1 2 3 4 5 6 
#
# 1 90.6473 55.4763 37.5426 0.0000 0.0000 0.0000
# 2 55.4763 106.6581 54.9710 0.0000 0.0000 0.0000
# 3 37.5426 54.9710 74.7960 0.0000 0.0000 0.0000
# 4 0.0000 0.0000 0.0000 28.9864 0.0000 0.0000
# 5 0.0000 0.0000 0.0000 0.0000 21.7643 0.0000
# 6 0.0000 0.0000 0.0000 0.0000 0.0000 23.3057
#
#
#
# Elastic Compliance Matrix: (Units=1/GPa)
#
#
# Indices 1 2 3 4 5 6 
#
# 1 0.016648 -0.007006 -0.003207 0.000000 0.000000 0.000000
# 2 -0.007006 0.018041 -0.009743 0.000000 0.000000 0.000000
# 3 -0.003207 -0.009743 0.022140 0.000000 0.000000 0.000000
# 4 0.000000 0.000000 0.000000 0.034499 0.000000 0.000000
# 5 0.000000 0.000000 0.000000 0.000000 0.045947 0.000000
# 6 0.000000 0.000000 0.000000 0.000000 0.000000 0.042908
#
#
# Mechanical properties :
#
#
# Convention : Reuss Voigt Hill
#
# Bulk Modulus (GPa) = 59.11168 63.12012 61.11590
# Shear Modulus (GPa) = 22.15007 23.08538 22.61773
#
# Velocity S-wave (km/s) = 3.91566 3.99748 3.95678
# Velocity P-wave (km/s) = 7.83331 8.06217 7.94856
#
# Compressibility (1/GPa) = 0.01691713
#
# Stress axis : x y z
#
# Youngs Moduli (GPa) = 60.06814 55.42862 45.16777
#
# Poissons Ratio (x) = 0.38834 0.14485
# Poissons Ratio (y) = 0.42085 0.44005
# Poissons Ratio (z) = 0.19263 0.54002
#
# Static dielectric constant tensor:
#      x y z
#    x 1.484900 0.000000 0.000000 
#    y 0.000000 1.503270 0.000000 
#    z 0.000000 0.000000 1.465970 
# 
# From -- ./inp_files/26302.got.cif
#   From: 2010.05.17/outbox.cif.g08.bks.cpg/sg44_14_cif.got.tgz:26302.got - 2010.06.03 19:37:08.
