data_PCOD9373962
_publ_section_title
;
Structure prediction by ZEFSAII (Michael W. Deem and Ramdas Pophale) SiO2 
 PCOD9373962
Probable space group: I M M 2
;
_chemical_formula_sum "Si O2"
_cell_formula_units_Z 40
_cell_length_a 8.033861
_cell_length_b 8.752158
_cell_length_c 29.537566
_cell_angle_alpha 90.000000
_cell_angle_beta 90.000000
_cell_angle_gamma 90.000000
_cell_volume 2076.893216
_symmetry_space_group_name_H-M "I M M 2"
_symmetry_group_IT_number 44
_symmetry_cell_setting 'orthorhombic'
loop_
_space_group_symop_operation_xyz
x,y,z
-x,-y,z
-x,y,z
x,-y,z
1/2+x,1/2+y,1/2+z
1/2-x,1/2-y,1/2+z
1/2-x,1/2+y,1/2+z
1/2+x,1/2-y,1/2+z
loop_
_atom_site_type_symbol
_atom_site_label
_atom_site_fract_x
_atom_site_fract_y
_atom_site_fract_z
Si Si1 0.314653 0.318160 0.702750
Si Si2 0.500000 0.316955 0.150255
Si Si3 0.699042 0.679008 0.888004
Si Si4 0.684951 0.186372 0.486791
Si Si5 0.500000 0.313376 0.045679
Si Si6 0.197960 0.821877 0.793675
O O1 0.500000 0.268232 0.688247
O O2 0.303247 0.500000 0.697796
O O3 0.289806 0.274777 0.755322
O O4 0.165082 0.242004 0.675230
O O5 0.500000 0.500000 0.152075
O O6 0.500000 0.266863 0.097897
O O7 0.500000 0.688315 0.893341
O O8 0.742866 0.500000 0.881497
O O9 0.780661 0.732587 0.934904
O O10 0.754446 0.769857 0.843906
O O11 0.500000 0.234105 0.501074
O O12 0.834674 0.237553 0.519043
O O13 0.689166 0.000000 0.486792
O O14 0.500000 0.500000 0.044788
O O15 0.000000 0.802222 0.787499
O O16 0.238344 0.000000 0.787302
#
# Coordination Sequence:
#
# PCOD9373962 Si02
#       6
#     8   4   8   8   4   8
#     4  11  24  42  64  88 117 157 205 253 299 360
#     4  11  23  39  63  93 125 159 197 253 318 367
#     4  10  19  32  53  82 116 153 196 242 287 345
#     4   9  16  29  51  79 114 153 191 237 288 339
#     4   9  18  33  53  83 119 151 193 243 294 357
#     4  11  23  37  55  83 119 156 195 244 302 360
#
# _framework density 19.259537999999999
#
# number of rings (size 3 to 8) (size 9 to 14) (size 15 to 20)
#    0.000    1.800    2.000    2.700    0.000    7.200 
#    0.000    2.000    0.000    2.400    0.000    2.800 
#    0.000    0.000    0.000    0.000    0.000    0.000 
#
# Total GULP energy -111733.077638 kJ/mol
# GULP energy per Si atom -5586.653882 kJ/mol
# Density = 1.921570 g / cm^3
# Si number density = 19.259538 Si / 1000 Ang^3
#
#
#
# Elastic Constant Matrix: (Units=GPa)
#
#
# Indices 1 2 3 4 5 6 
#
# 1 151.9130 36.6207 77.2728 0.0000 0.0000 0.0000
# 2 36.6207 27.5545 16.4807 0.0000 0.0000 0.0000
# 3 77.2728 16.4807 129.0231 0.0000 0.0000 0.0000
# 4 0.0000 0.0000 0.0000 21.7768 0.0000 0.0000
# 5 0.0000 0.0000 0.0000 0.0000 23.5453 0.0000
# 6 0.0000 0.0000 0.0000 0.0000 0.0000 1.9329
#
#
#
# Elastic Compliance Matrix: (Units=1/GPa)
#
#
# Indices 1 2 3 4 5 6 
#
# 1 0.012901 -0.013560 -0.005994 0.000000 0.000000 0.000000
# 2 -0.013560 0.053547 0.001281 0.000000 0.000000 0.000000
# 3 -0.005994 0.001281 0.011177 0.000000 0.000000 0.000000
# 4 0.000000 0.000000 0.000000 0.045920 0.000000 0.000000
# 5 0.000000 0.000000 0.000000 0.000000 0.042471 0.000000
# 6 0.000000 0.000000 0.000000 0.000000 0.000000 0.517362
#
#
# Mechanical properties :
#
#
# Convention : Reuss Voigt Hill
#
# Bulk Modulus (GPa) = 24.34346 63.24877 43.79611
# Shear Modulus (GPa) = 6.81555 21.32543 14.07049
#
# Velocity S-wave (km/s) = 1.88321 3.33117 2.70584
# Velocity P-wave (km/s) = 4.17082 6.90703 5.70539
#
# Compressibility (1/GPa) = 0.04107880
#
# Stress axis : x y z
#
# Youngs Moduli (GPa) = 77.51615 18.67518 89.47100
#
# Poissons Ratio (x) = 0.25324 0.53630
# Poissons Ratio (y) = 1.05112 -0.11465
# Poissons Ratio (z) = 0.46464 -0.02393
#
# Static dielectric constant tensor:
#      x y z
#    x 1.678550 0.000000 0.000000 
#    y 0.000000 1.652460 0.000000 
#    z 0.000000 0.000000 1.642710 
# 
# From -- ./inp_files/25947.got.cif
#   From: 2010.05.17/outbox.cif.g08.bks.cpg/sg44_13_cif.got.tgz:25947.got - 2010.06.03 19:37:08.
