data_PCOD9373105
_publ_section_title
;
Structure prediction by ZEFSAII (Michael W. Deem and Ramdas Pophale) SiO2 
 PCOD9373105
Probable space group: I M M 2
;
_chemical_formula_sum "Si O2"
_cell_formula_units_Z 58
_cell_length_a 12.937744
_cell_length_b 16.782456
_cell_length_c 12.827424
_cell_angle_alpha 90.000000
_cell_angle_beta 90.000000
_cell_angle_gamma 90.000000
_cell_volume 2785.181623
_symmetry_space_group_name_H-M "I M M 2"
_symmetry_group_IT_number 44
_symmetry_cell_setting 'orthorhombic'
loop_
_space_group_symop_operation_xyz
x,y,z
-x,-y,z
-x,y,z
x,-y,z
1/2+x,1/2+y,1/2+z
1/2-x,1/2-y,1/2+z
1/2-x,1/2+y,1/2+z
1/2+x,1/2-y,1/2+z
loop_
_atom_site_type_symbol
_atom_site_label
_atom_site_fract_x
_atom_site_fract_y
_atom_site_fract_z
Si Si1 0.168078 0.134427 0.676970
Si Si2 0.119386 0.914246 0.902946
Si Si3 0.113205 0.303545 0.174593
Si Si4 0.620535 0.360355 0.951899
Si Si5 0.884153 0.315103 0.722030
Si Si6 0.000000 0.000000 0.140194
Si Si7 0.180828 0.258924 0.948595
Si Si8 0.834638 0.877833 0.223940
O O1 0.118298 0.094554 0.777306
O O2 0.290124 0.140934 0.701688
O O3 0.143558 0.098896 0.563772
O O4 0.130895 0.227125 0.671949
O O5 0.173339 0.835869 0.945009
O O6 0.000000 0.914211 0.938533
O O7 0.164499 0.000000 0.930467
O O8 0.130068 0.214984 0.220459
O O9 0.000000 0.333072 0.202996
O O10 0.124277 0.291029 0.050469
O O11 0.500000 0.339874 0.948643
O O12 0.701233 0.287396 0.950852
O O13 0.647746 0.405026 0.844084
O O14 0.870705 0.294788 0.845012
O O15 0.786998 0.371755 0.695802
O O16 0.000000 0.344051 0.700501
O O17 0.091438 0.069269 0.153703
#
# Coordination Sequence:
#
# PCOD9373105 Si02
#       8
#     8   8   8   8   8   2   8   8
#     4   9  18  29  51  75  97 124 157 202 252 280
#     4  10  19  33  47  70 102 130 155 193 244 304
#     4  10  17  31  49  74  96 122 165 204 240 282
#     4  10  17  31  49  74  96 122 165 204 240 282
#     4   9  16  31  51  75  96 119 157 210 246 285
#     4  12  20  40  42  64 104 138 162 202 224 300
#     4   9  18  29  51  75  97 124 157 202 252 280
#     4  10  21  31  48  67  98 135 161 197 239 278
#
# _framework density 20.824494000000001
#
# number of rings (size 3 to 8) (size 9 to 14) (size 15 to 20)
#    0.000    2.345    1.379    4.138    0.000    0.000 
#    2.483    0.345    0.000    1.655    0.000    0.000 
#    0.000    0.000    0.000    0.000    0.000    0.000 
#
# Total GULP energy -161598.719614 kJ/mol
# GULP energy per Si atom -5572.369642 kJ/mol
# Density = 2.077710 g / cm^3
# Si number density = 20.824494 Si / 1000 Ang^3
#
#
#
# Elastic Constant Matrix: (Units=GPa)
#
#
# Indices 1 2 3 4 5 6 
#
# 1 191.1046 32.5942 -1.9211 0.0000 0.0000 0.0000
# 2 32.5942 57.2921 -5.6957 0.0000 0.0000 0.0000
# 3 -1.9211 -5.6957 71.8104 0.0001 0.0000 0.0001
# 4 0.0000 0.0000 0.0001 -9.5673 0.0000 0.0001
# 5 0.0000 0.0000 0.0000 0.0000 24.5831 0.0000
# 6 0.0000 0.0000 0.0001 0.0001 0.0000 -31.3401
#
#
#
# Elastic Compliance Matrix: (Units=1/GPa)
#
#
# Indices 1 2 3 4 5 6 
#
# 1 0.005796 -0.003308 -0.000107 0.000000 0.000000 0.000000
# 2 -0.003308 0.019481 0.001457 0.000000 0.000000 0.000000
# 3 -0.000107 0.001457 0.014038 0.000000 0.000000 0.000000
# 4 0.000000 0.000000 0.000000 -0.104523 0.000000 0.000000
# 5 0.000000 0.000000 0.000000 0.000000 0.040678 0.000000
# 6 0.000000 0.000000 0.000000 0.000000 0.000000 -0.031908
#
#
# Mechanical properties :
#
#
# Convention : Reuss Voigt Hill
#
# Bulk Modulus (GPa) = 28.25022 41.12911 34.68967
# Shear Modulus (GPa) = -122.78857 16.41712 -53.18572
#
# Velocity S-wave (km/s) = -7.68710 2.81081 -5.05919
# Velocity P-wave (km/s) = 8.07424 5.50704 4.17528
#
# Compressibility (1/GPa) = 0.03539796
#
# Stress axis : x y z
#
# Youngs Moduli (GPa) = 172.53696 51.33156 71.23406
#
# Poissons Ratio (x) = 0.16981 0.00765
# Poissons Ratio (y) = 0.57075 -0.10376
# Poissons Ratio (z) = 0.01852 -0.07477
#
# Static dielectric constant tensor:
#      x y z
#    x 1.763500 0.000000 0.000000 
#    y 0.000000 1.715880 0.000000 
#    z 0.000000 0.000000 1.851190 
# 
# From -- ./inp_files/17897.got.cif
#   From: 2010.05.17/outbox.cif.g08.bks.cpg/sg44_9_cif.got.tgz:17897.got - 2010.06.03 19:37:08.
