data_PCOD9373726
_publ_section_title
;
Structure prediction by ZEFSAII (Michael W. Deem and Ramdas Pophale) SiO2 
 PCOD9373726
Probable space group: I M M 2
;
_chemical_formula_sum "Si O2"
_cell_formula_units_Z 56
_cell_length_a 19.495095
_cell_length_b 7.371589
_cell_length_c 17.444444
_cell_angle_alpha 90.000000
_cell_angle_beta 90.000000
_cell_angle_gamma 90.000000
_cell_volume 2506.938044
_symmetry_space_group_name_H-M "I M M 2"
_symmetry_group_IT_number 44
_symmetry_cell_setting 'orthorhombic'
loop_
_space_group_symop_operation_xyz
x,y,z
-x,-y,z
-x,y,z
x,-y,z
1/2+x,1/2+y,1/2+z
1/2-x,1/2-y,1/2+z
1/2-x,1/2+y,1/2+z
1/2+x,1/2-y,1/2+z
loop_
_atom_site_type_symbol
_atom_site_label
_atom_site_fract_x
_atom_site_fract_y
_atom_site_fract_z
Si Si1 0.421090 0.219595 0.427870
Si Si2 0.195786 0.281888 0.346760
Si Si3 0.078431 0.777889 0.632662
Si Si4 0.802376 0.214722 0.526946
Si Si5 0.078681 0.278524 0.236772
Si Si6 0.343331 0.221455 0.582582
Si Si7 0.665078 0.708847 0.277251
O O1 0.500000 0.277364 0.424159
O O2 0.385867 0.275593 0.507241
O O3 0.378535 0.285899 0.355195
O O4 0.419542 0.000000 0.425681
O O5 0.197490 0.500000 0.341061
O O6 0.203648 0.240449 0.436170
O O7 0.124709 0.221066 0.308973
O O8 0.260839 0.211402 0.298249
O O9 0.126153 0.718908 0.561947
O O10 0.118856 0.716086 0.708858
O O11 0.000000 0.715770 0.630164
O O12 0.075387 0.000000 0.633951
O O13 0.734780 0.284735 0.570648
O O14 0.802041 0.000000 0.540560
O O15 0.077213 0.500000 0.236046
O O16 0.118585 0.221590 0.159784
O O17 0.000000 0.217845 0.238319
O O18 0.342419 0.000000 0.583869
O O19 0.678203 0.500000 0.254880
#
# Coordination Sequence:
#
# PCOD9373726 Si02
#       7
#     8   8   8   8   8   8   8
#     4  10  19  30  48  76 106 132 162 204 251 300
#     4  10  20  33  51  77 104 131 168 208 249 301
#     4   9  18  32  51  75  99 128 171 214 246 288
#     4  10  19  33  54  75  98 132 170 207 250 298
#     4   9  17  30  50  75 101 130 167 213 256 291
#     4   9  16  29  49  73  99 127 164 205 247 293
#     4  10  19  33  52  73 102 135 168 205 248 298
#
# _framework density 22.338007999999999
#
# number of rings (size 3 to 8) (size 9 to 14) (size 15 to 20)
#    0.000    2.429    1.429    1.714    0.000    6.571 
#    0.000    0.714    0.000    4.286    0.000    0.000 
#    0.000    0.000    0.000    0.000    0.000    0.000 
#
# Total GULP energy -156468.988097 kJ/mol
# GULP energy per Si atom -5588.178146 kJ/mol
# Density = 2.228717 g / cm^3
# Si number density = 22.338008 Si / 1000 Ang^3
#
#
#
# Elastic Constant Matrix: (Units=GPa)
#
#
# Indices 1 2 3 4 5 6 
#
# 1 232.1429 6.5423 83.2120 0.0000 0.0000 0.0000
# 2 6.5423 78.4431 -4.3412 0.0000 0.0000 0.0000
# 3 83.2120 -4.3412 56.1190 0.0000 0.0000 0.0000
# 4 0.0000 0.0000 0.0000 18.3979 0.0000 0.0000
# 5 0.0000 0.0000 0.0000 0.0000 18.5912 0.0000
# 6 0.0000 0.0000 0.0000 0.0000 0.0000 1.3819
#
#
#
# Elastic Compliance Matrix: (Units=1/GPa)
#
#
# Indices 1 2 3 4 5 6 
#
# 1 0.009381 -0.001559 -0.014030 0.000000 0.000000 0.000000
# 2 -0.001559 0.013062 0.003322 0.000000 0.000000 0.000000
# 3 -0.014030 0.003322 0.038880 0.000000 0.000000 0.000000
# 4 0.000000 0.000000 0.000000 0.054354 0.000000 0.000000
# 5 0.000000 0.000000 0.000000 0.000000 0.053789 0.000000
# 6 0.000000 0.000000 0.000000 0.000000 0.000000 0.723654
#
#
# Mechanical properties :
#
#
# Convention : Reuss Voigt Hill
#
# Bulk Modulus (GPa) = 27.18255 59.72569 43.45412
# Shear Modulus (GPa) = 5.37682 26.42698 15.90190
#
# Velocity S-wave (km/s) = 1.55314 3.44328 2.67100
# Velocity P-wave (km/s) = 3.92575 6.52714 5.38586
#
# Compressibility (1/GPa) = 0.03678831
#
# Stress axis : x y z
#
# Youngs Moduli (GPa) = 106.60107 76.55826 25.72021
#
# Poissons Ratio (x) = 0.11934 0.36086
# Poissons Ratio (y) = 0.16617 -0.08544
# Poissons Ratio (z) = 1.49563 -0.25432
#
# Static dielectric constant tensor:
#      x y z
#    x 1.798850 0.000000 0.000000 
#    y 0.000000 1.875150 0.000000 
#    z 0.000000 0.000000 1.762800 
# 
# From -- ./inp_files/14326.got.cif
#   From: 2010.05.17/outbox.cif.g08.bks.cpg/sg44_8_cif.got.tgz:14326.got - 2010.06.03 19:37:08.
