data_PCOD9373986
_publ_section_title
;
Structure prediction by ZEFSAII (Michael W. Deem and Ramdas Pophale) SiO2 
 PCOD9373986
Probable space group: I M M 2
;
_chemical_formula_sum "Si O2"
_cell_formula_units_Z 58
_cell_length_a 22.845824
_cell_length_b 7.311666
_cell_length_c 15.446405
_cell_angle_alpha 90.000000
_cell_angle_beta 90.000000
_cell_angle_gamma 90.000000
_cell_volume 2580.183472
_symmetry_space_group_name_H-M "I M M 2"
_symmetry_group_IT_number 44
_symmetry_cell_setting 'orthorhombic'
loop_
_space_group_symop_operation_xyz
x,y,z
-x,-y,z
-x,y,z
x,-y,z
1/2+x,1/2+y,1/2+z
1/2-x,1/2-y,1/2+z
1/2-x,1/2+y,1/2+z
1/2+x,1/2-y,1/2+z
loop_
_atom_site_type_symbol
_atom_site_label
_atom_site_fract_x
_atom_site_fract_y
_atom_site_fract_z
Si Si1 0.402906 0.285568 0.192810
Si Si2 0.500000 0.000000 0.250013
Si Si3 0.933339 0.776050 0.135773
Si Si4 0.880159 0.222863 0.499997
Si Si5 0.684325 0.280508 0.557177
Si Si6 0.764952 0.721367 0.718474
Si Si7 0.765413 0.213500 0.407839
Si Si8 0.569482 0.706836 0.822961
O O1 0.419047 0.500000 0.197681
O O2 0.447846 0.159842 0.244504
O O3 0.404245 0.218740 0.092195
O O4 0.333606 0.271668 0.215376
O O5 0.882122 0.719547 0.072226
O O6 0.912855 0.711998 0.231348
O O7 0.000000 0.717592 0.118005
O O8 0.934961 0.000000 0.139037
O O9 0.815100 0.285033 0.473513
O O10 0.915738 0.284900 0.415834
O O11 0.881372 0.000000 0.505833
O O12 0.684667 0.500000 0.563214
O O13 0.727886 0.215453 0.634454
O O14 0.706602 0.231257 0.462349
O O15 0.762554 0.500000 0.718236
O O16 0.738275 0.786692 0.810469
O O17 0.778563 0.000000 0.397887
O O18 0.500000 0.696327 0.816430
O O19 0.593992 0.500000 0.823928
#
# Coordination Sequence:
#
# PCOD9373986 Si02
#       8
#     8   2   8   8   8   8   8   8
#     4  11  23  40  65  91 123 168 220 266 324 387
#     4  12  26  44  64  90 128 176 210 276 328 390
#     4   8  14  26  46  75 110 147 189 244 306 369
#     4   9  17  30  50  83 117 149 197 251 303 380
#     4  10  19  32  55  84 114 152 199 254 317 376
#     4  10  20  37  59  86 124 164 206 268 330 383
#     4  10  20  34  56  83 115 156 199 251 318 380
#     4   8  13  22  41  72 107 138 177 231 288 355
#
# _framework density 22.479022000000001
#
# number of rings (size 3 to 8) (size 9 to 14) (size 15 to 20)
#    0.000    2.483    2.069    1.862    0.966    3.862 
#    0.000    0.000    1.517    0.414    1.793    0.000 
#    0.000    0.000    0.000    0.000    0.000    0.000 
#
# Total GULP energy -161523.916281 kJ/mol
# GULP energy per Si atom -5569.790217 kJ/mol
# Density = 2.242786 g / cm^3
# Si number density = 22.479022 Si / 1000 Ang^3
#
#
#
# Elastic Constant Matrix: (Units=GPa)
#
#
# Indices 1 2 3 4 5 6 
#
# 1 82.8882 7.3903 5.8621 0.0000 0.0000 0.0000
# 2 7.3903 114.2462 -4.5143 0.0000 0.0000 0.0000
# 3 5.8621 -4.5143 55.9214 0.0000 0.0000 0.0000
# 4 0.0000 0.0000 0.0000 5.4102 0.0000 0.0000
# 5 0.0000 0.0000 0.0000 0.0000 31.8792 0.0000
# 6 0.0000 0.0000 0.0000 0.0000 0.0000 -23.8202
#
#
#
# Elastic Compliance Matrix: (Units=1/GPa)
#
#
# Indices 1 2 3 4 5 6 
#
# 1 0.012235 -0.000845 -0.001351 0.000000 0.000000 0.000000
# 2 -0.000845 0.008839 0.000802 0.000000 0.000000 0.000000
# 3 -0.001351 0.000802 0.018089 0.000000 0.000000 0.000000
# 4 0.000000 0.000000 0.000000 0.184835 0.000000 0.000000
# 5 0.000000 0.000000 0.000000 0.000000 0.031368 0.000000
# 6 0.000000 0.000000 0.000000 0.000000 0.000000 -0.041981
#
#
# Mechanical properties :
#
#
# Convention : Reuss Voigt Hill
#
# Bulk Modulus (GPa) = 27.49046 30.05910 28.77478
# Shear Modulus (GPa) = 21.90120 18.98170 20.44145
#
# Velocity S-wave (km/s) = 3.12476 2.90904 3.01883
# Velocity P-wave (km/s) = 5.02740 4.96834 4.99796
#
# Compressibility (1/GPa) = 0.03637626
#
# Stress axis : x y z
#
# Youngs Moduli (GPa) = 81.73068 113.13024 55.28341
#
# Poissons Ratio (x) = 0.09558 0.07468
# Poissons Ratio (y) = 0.06905 -0.04434
# Poissons Ratio (z) = 0.11040 -0.09075
#
# Static dielectric constant tensor:
#      x y z
#    x 1.886270 0.000000 0.000000 
#    y 0.000000 1.846050 0.000000 
#    z 0.000000 0.000000 1.837440 
# 
# From -- ./inp_files/19424.got.cif
#   From: 2010.05.17/outbox.cif.g08.bks.cpg/sg44_10_cif.got.tgz:19424.got - 2010.06.03 19:37:08.
