data_PCOD9373170
_publ_section_title
;
Structure prediction by ZEFSAII (Michael W. Deem and Ramdas Pophale) SiO2 
 PCOD9373170
Probable space group: I M M 2
;
_chemical_formula_sum "Si O2"
_cell_formula_units_Z 56
_cell_length_a 9.052523
_cell_length_b 14.065010
_cell_length_c 30.033506
_cell_angle_alpha 90.000000
_cell_angle_beta 90.000000
_cell_angle_gamma 90.000000
_cell_volume 3823.980908
_symmetry_space_group_name_H-M "I M M 2"
_symmetry_group_IT_number 44
_symmetry_cell_setting 'orthorhombic'
loop_
_space_group_symop_operation_xyz
x,y,z
-x,-y,z
-x,y,z
x,-y,z
1/2+x,1/2+y,1/2+z
1/2-x,1/2-y,1/2+z
1/2-x,1/2+y,1/2+z
1/2+x,1/2-y,1/2+z
loop_
_atom_site_type_symbol
_atom_site_label
_atom_site_fract_x
_atom_site_fract_y
_atom_site_fract_z
Si Si1 0.176147 0.611307 0.318290
Si Si2 0.823802 0.208376 0.901917
Si Si3 0.677282 0.390369 0.495398
Si Si4 0.329547 0.384530 0.227111
Si Si5 0.177143 0.390771 0.956608
Si Si6 0.322463 0.713204 0.039254
Si Si7 0.320016 0.609772 0.129157
O O1 0.220150 0.500000 0.324359
O O2 0.241866 0.672062 0.358464
O O3 0.237440 0.643372 0.270293
O O4 0.000000 0.615799 0.318452
O O5 0.788815 0.142289 0.944751
O O6 0.785903 0.315097 0.917987
O O7 0.000000 0.203155 0.894488
O O8 0.500000 0.380432 0.500679
O O9 0.717625 0.500000 0.502226
O O10 0.758253 0.316604 0.527619
O O11 0.500000 0.354249 0.232470
O O12 0.329425 0.500000 0.225456
O O13 0.272729 0.355399 0.178199
O O14 0.211469 0.500000 0.946153
O O15 0.000000 0.382492 0.964055
O O16 0.259266 0.356345 0.001075
O O17 0.500000 0.714234 0.037124
O O18 0.276099 0.673928 0.087512
O O19 0.500000 0.608331 0.130548
O O20 0.272555 0.500000 0.122449
#
# Coordination Sequence:
#
# PCOD9373170 Si02
#       7
#     8   8   8   8   8   8   8
#     4  10  19  28  39  60  89 113 134 168 212 252
#     4   9  17  29  45  62  79 107 145 175 203 244
#     4   9  18  32  46  60  83 115 149 181 209 244
#     4   8  14  26  43  59  78 109 144 171 199 243
#     4   9  18  32  46  61  85 115 146 178 208 244
#     4  10  18  27  43  67  91 113 140 175 214 253
#     4   8  14  25  41  62  87 113 140 169 202 244
#
# _framework density 14.644425
#
# number of rings (size 3 to 8) (size 9 to 14) (size 15 to 20)
#    0.000    3.000    0.000    3.429    0.000    4.857 
#    0.000    1.429    0.000    3.429    0.000    1.000 
#    0.000    3.429    0.000    0.000    0.000    0.000 
#
# Total GULP energy -155942.573373 kJ/mol
# GULP energy per Si atom -5569.377620 kJ/mol
# Density = 1.461109 g / cm^3
# Si number density = 14.644425 Si / 1000 Ang^3
#
#
#
# Elastic Constant Matrix: (Units=GPa)
#
#
# Indices 1 2 3 4 5 6 
#
# 1 27.6725 34.3179 47.5376 0.0000 0.0000 0.0000
# 2 34.3179 101.9426 70.8036 0.0000 0.0000 0.0000
# 3 47.5376 70.8036 150.2452 0.0000 0.0000 0.0000
# 4 0.0000 0.0000 0.0000 22.9264 0.0000 0.0000
# 5 0.0000 0.0000 0.0000 0.0000 21.8469 0.0000
# 6 0.0000 0.0000 0.0000 0.0000 0.0000 18.7176
#
#
#
# Elastic Compliance Matrix: (Units=1/GPa)
#
#
# Indices 1 2 3 4 5 6 
#
# 1 0.094687 -0.016452 -0.022206 0.000000 0.000000 0.000000
# 2 -0.016452 0.017441 -0.003014 0.000000 0.000000 0.000000
# 3 -0.022206 -0.003014 0.015102 0.000000 0.000000 0.000000
# 4 0.000000 0.000000 0.000000 0.043618 0.000000 0.000000
# 5 0.000000 0.000000 0.000000 0.000000 0.045773 0.000000
# 6 0.000000 0.000000 0.000000 0.000000 0.000000 0.053426
#
#
# Mechanical properties :
#
#
# Convention : Reuss Voigt Hill
#
# Bulk Modulus (GPa) = 22.78623 65.01983 43.90303
# Shear Modulus (GPa) = 13.58630 21.17827 17.38228
#
# Velocity S-wave (km/s) = 3.04920 3.80697 3.44896
# Velocity P-wave (km/s) = 5.29058 7.98871 6.77531
#
# Compressibility (1/GPa) = 0.04388615
#
# Stress axis : x y z
#
# Youngs Moduli (GPa) = 10.56117 57.33599 66.21724
#
# Poissons Ratio (x) = 0.94332 1.47039
# Poissons Ratio (y) = 0.17376 0.19955
# Poissons Ratio (z) = 0.23452 0.17279
#
# Static dielectric constant tensor:
#      x y z
#    x 1.490610 0.000000 0.000000 
#    y 0.000000 1.475990 0.000000 
#    z 0.000000 0.000000 1.480280 
# 
# From -- ./inp_files/27232.got.cif
#   From: 2010.05.17/outbox.cif.g08.bks.cpg/sg44_14_cif.got.tgz:27232.got - 2010.06.03 19:37:08.
