data_PCOD9373434
_publ_section_title
;
Structure prediction by ZEFSAII (Michael W. Deem and Ramdas Pophale) SiO2 
 PCOD9373434
Probable space group: I M M 2
;
_chemical_formula_sum "Si O2"
_cell_formula_units_Z 52
_cell_length_a 7.381497
_cell_length_b 24.916165
_cell_length_c 12.388399
_cell_angle_alpha 90.000000
_cell_angle_beta 90.000000
_cell_angle_gamma 90.000000
_cell_volume 2278.456966
_symmetry_space_group_name_H-M "I M M 2"
_symmetry_group_IT_number 44
_symmetry_cell_setting 'orthorhombic'
loop_
_space_group_symop_operation_xyz
x,y,z
-x,-y,z
-x,y,z
x,-y,z
1/2+x,1/2+y,1/2+z
1/2-x,1/2-y,1/2+z
1/2-x,1/2+y,1/2+z
1/2+x,1/2-y,1/2+z
loop_
_atom_site_type_symbol
_atom_site_label
_atom_site_fract_x
_atom_site_fract_y
_atom_site_fract_z
Si Si1 0.720018 0.000000 0.178620
Si Si2 0.221557 0.500000 0.158544
Si Si3 0.780800 0.309323 0.128767
Si Si4 0.706283 0.694604 0.707845
Si Si5 0.713943 0.376140 0.910222
Si Si6 0.719819 0.102734 0.797433
Si Si7 0.750110 0.500000 0.918729
Si Si8 0.219374 0.604490 0.542651
O O1 0.809611 0.000000 0.294950
O O2 0.767160 0.948260 0.109476
O O3 0.500000 0.000000 0.198057
O O4 0.271501 0.551301 0.228203
O O5 0.000000 0.500000 0.139977
O O6 0.311300 0.500000 0.042197
O O7 0.714704 0.249848 0.160324
O O8 0.725456 0.345947 0.229447
O O9 0.000000 0.307360 0.122369
O O10 0.726373 0.339833 0.018463
O O11 0.500000 0.707435 0.742353
O O12 0.782228 0.660419 0.809520
O O13 0.707501 0.654689 0.607295
O O14 0.500000 0.388438 0.892375
O O15 0.807373 0.434971 0.919213
O O16 0.500000 0.102145 0.801367
O O17 0.782725 0.101598 0.919904
O O18 0.000000 0.607953 0.542252
#
# Coordination Sequence:
#
# PCOD9373434 Si02
#       8
#     4   4   8   8   8   8   4   8
#     4  10  20  33  54  91 122 147 198 257 294 344
#     4  10  18  31  56  85 114 149 190 241 298 350
#     4  10  22  40  61  86 116 153 199 247 294 351
#     4  10  23  41  59  85 120 157 197 240 296 361
#     4  11  24  41  63  89 121 159 200 247 300 361
#     4   9  18  33  56  83 111 147 190 238 293 345
#     4  12  20  36  60  86 121 166 197 242 301 372
#     4  10  20  36  60  86 115 152 198 247 293 346
#
# _framework density 22.822462999999999
#
# number of rings (size 3 to 8) (size 9 to 14) (size 15 to 20)
#    0.000    1.846    3.077    0.923    2.154    3.692 
#    0.000    1.154    0.000    0.000    0.000    0.000 
#    0.000    0.000    0.000    0.000    0.000    0.000 
#
# Total GULP energy -144977.420001 kJ/mol
# GULP energy per Si atom -5576.054615 kJ/mol
# Density = 2.277052 g / cm^3
# Si number density = 22.822463 Si / 1000 Ang^3
#
#
#
# Elastic Constant Matrix: (Units=GPa)
#
#
# Indices 1 2 3 4 5 6 
#
# 1 92.1955 16.3588 11.0856 0.0000 0.0000 0.0000
# 2 16.3588 241.1513 112.7439 0.0001 0.0000 -0.0002
# 3 11.0856 112.7439 246.5377 0.0003 0.0000 -0.0004
# 4 0.0000 0.0001 0.0003 30.3424 0.0000 -0.0003
# 5 0.0000 0.0000 0.0000 0.0000 -3.9677 0.0001
# 6 0.0000 -0.0002 -0.0004 -0.0003 0.0001 -22.0449
#
#
#
# Elastic Compliance Matrix: (Units=1/GPa)
#
#
# Indices 1 2 3 4 5 6 
#
# 1 0.010986 -0.000654 -0.000195 0.000000 0.000000 0.000000
# 2 -0.000654 0.005313 -0.002400 0.000000 0.000000 0.000000
# 3 -0.000195 -0.002400 0.005163 0.000000 0.000000 0.000000
# 4 0.000000 0.000000 0.000000 0.032957 0.000000 0.000000
# 5 0.000000 0.000000 0.000000 0.000000 -0.252032 -0.000001
# 6 0.000000 0.000000 0.000000 0.000000 -0.000001 -0.045362
#
#
# Mechanical properties :
#
#
# Convention : Reuss Voigt Hill
#
# Bulk Modulus (GPa) = 66.83056 95.58457 81.20757
# Shear Modulus (GPa) = -21.59935 30.17903 4.28984
#
# Velocity S-wave (km/s) = -3.07971 3.64034 1.37249
# Velocity P-wave (km/s) = 4.08659 7.72283 6.17828
#
# Compressibility (1/GPa) = 0.01496321
#
# Stress axis : x y z
#
# Youngs Moduli (GPa) = 91.02480 188.20264 193.69757
#
# Poissons Ratio (x) = 0.12311 0.03774
# Poissons Ratio (y) = 0.05954 0.46496
# Poissons Ratio (z) = 0.01773 0.45177
#
# Static dielectric constant tensor:
#      x y z
#    x 1.950760 0.000000 0.000000 
#    y 0.000000 1.837470 0.000000 
#    z 0.000000 0.000000 1.769370 
# 
# From -- ./inp_files/11274.got.cif
#   From: 2010.05.17/outbox.cif.g08.bks.cpg/sg44_6_cif.got.tgz:11274.got - 2010.06.03 19:37:08.
