data_PCOD9373139
_publ_section_title
;
Structure prediction by ZEFSAII (Michael W. Deem and Ramdas Pophale) SiO2 
 PCOD9373139
Probable space group: I M M 2
;
_chemical_formula_sum "Si O2"
_cell_formula_units_Z 52
_cell_length_a 12.890493
_cell_length_b 7.985691
_cell_length_c 33.324167
_cell_angle_alpha 90.000000
_cell_angle_beta 90.000000
_cell_angle_gamma 90.000000
_cell_volume 3430.372887
_symmetry_space_group_name_H-M "I M M 2"
_symmetry_group_IT_number 44
_symmetry_cell_setting 'orthorhombic'
loop_
_space_group_symop_operation_xyz
x,y,z
-x,-y,z
-x,y,z
x,-y,z
1/2+x,1/2+y,1/2+z
1/2-x,1/2-y,1/2+z
1/2-x,1/2+y,1/2+z
1/2+x,1/2-y,1/2+z
loop_
_atom_site_type_symbol
_atom_site_label
_atom_site_fract_x
_atom_site_fract_y
_atom_site_fract_z
Si Si1 0.626184 0.815363 0.942500
Si Si2 0.876807 0.000000 0.664465
Si Si3 0.120773 0.698545 0.267669
Si Si4 0.752950 0.188454 0.192151
Si Si5 0.874593 0.803883 0.355909
Si Si6 0.625747 0.500000 0.997194
Si Si7 0.123170 0.193053 0.110103
Si Si8 0.244709 0.000000 0.580855
O O1 0.500000 0.813036 0.941560
O O2 0.661856 0.783580 0.896728
O O3 0.655919 0.663892 0.971472
O O4 0.658868 0.000000 0.956102
O O5 0.830265 0.165383 0.685551
O O6 0.832705 0.000000 0.619031
O O7 0.000000 0.000000 0.664838
O O8 0.123541 0.500000 0.260048
O O9 0.188637 0.787932 0.234146
O O10 0.158719 0.732378 0.313009
O O11 0.000000 0.753652 0.265078
O O12 0.836053 0.208505 0.155937
O O13 0.709933 0.000000 0.189123
O O14 0.000000 0.787584 0.356057
O O15 0.849855 0.000000 0.358164
O O16 0.500000 0.500000 0.001639
O O17 0.680930 0.500000 0.039908
O O18 0.184409 0.334120 0.085461
O O19 0.000000 0.220734 0.108572
O O20 0.144395 0.000000 0.097560
#
# Coordination Sequence:
#
# PCOD9373139 Si02
#       8
#     8   4   8   8   8   4   8   4
#     4   9  16  27  42  59  84 122 160 191 227 273
#     4  10  21  37  51  66  91 123 162 207 249 279
#     4  10  18  26  40  67 101 132 159 189 226 275
#     4  10  19  32  49  70  95 126 161 196 233 278
#     4   9  15  24  38  59  90 126 158 186 221 270
#     4  10  19  31  45  64  91 125 164 199 233 273
#     4   9  18  32  50  71  97 126 153 186 234 288
#     4  10  20  32  50  72  92 122 158 202 236 280
#
# _framework density 15.158702
#
# number of rings (size 3 to 8) (size 9 to 14) (size 15 to 20)
#    0.000    2.462    1.538    1.846    0.000    4.308 
#    0.000    0.000    0.000    2.769    0.000    0.000 
#    0.000    2.462    0.923    0.000    0.000    0.000 
#
# Total GULP energy -144869.512683 kJ/mol
# GULP energy per Si atom -5571.904334 kJ/mol
# Density = 1.512420 g / cm^3
# Si number density = 15.158702 Si / 1000 Ang^3
#
#
#
# Elastic Constant Matrix: (Units=GPa)
#
#
# Indices 1 2 3 4 5 6 
#
# 1 62.2354 46.1069 32.6418 0.0000 0.0000 0.0000
# 2 46.1069 122.9055 63.8412 0.0000 0.0000 0.0000
# 3 32.6418 63.8412 90.0425 0.0000 0.0000 0.0000
# 4 0.0000 0.0000 0.0000 18.8017 0.0000 0.0000
# 5 0.0000 0.0000 0.0000 0.0000 18.4832 0.0000
# 6 0.0000 0.0000 0.0000 0.0000 0.0000 8.1737
#
#
#
# Elastic Compliance Matrix: (Units=1/GPa)
#
#
# Indices 1 2 3 4 5 6 
#
# 1 0.022930 -0.006782 -0.003504 0.000000 0.000000 0.000000
# 2 -0.006782 0.014886 -0.008096 0.000000 0.000000 0.000000
# 3 -0.003504 -0.008096 0.018116 0.000000 0.000000 0.000000
# 4 0.000000 0.000000 0.000000 0.053187 0.000000 0.000000
# 5 0.000000 0.000000 0.000000 0.000000 0.054103 0.000000
# 6 0.000000 0.000000 0.000000 0.000000 0.000000 0.122344
#
#
# Mechanical properties :
#
#
# Convention : Reuss Voigt Hill
#
# Bulk Modulus (GPa) = 52.16827 62.26257 57.21542
# Shear Modulus (GPa) = 15.21059 17.93128 16.57094
#
# Velocity S-wave (km/s) = 3.17112 3.44307 3.30989
# Velocity P-wave (km/s) = 6.92080 7.54780 7.24109
#
# Compressibility (1/GPa) = 0.01916874
#
# Stress axis : x y z
#
# Youngs Moduli (GPa) = 43.61053 67.17903 55.19994
#
# Poissons Ratio (x) = 0.45560 0.19343
# Poissons Ratio (y) = 0.29576 0.44687
# Poissons Ratio (z) = 0.15281 0.54385
#
# Static dielectric constant tensor:
#      x y z
#    x 1.460370 0.000000 0.000000 
#    y 0.000000 1.532590 0.000000 
#    z 0.000000 0.000000 1.497510 
# 
# From -- ./inp_files/26116.got.cif
#   From: 2010.05.17/outbox.cif.g08.bks.cpg/sg44_14_cif.got.tgz:26116.got - 2010.06.03 19:37:08.
