data_PCOD9373480
_publ_section_title
;
Structure prediction by ZEFSAII (Michael W. Deem and Ramdas Pophale) SiO2 
 PCOD9373480
Probable space group: I M M 2
;
_chemical_formula_sum "Si O2"
_cell_formula_units_Z 48
_cell_length_a 7.424962
_cell_length_b 19.112359
_cell_length_c 15.439448
_cell_angle_alpha 90.000000
_cell_angle_beta 90.000000
_cell_angle_gamma 90.000000
_cell_volume 2190.989513
_symmetry_space_group_name_H-M "I M M 2"
_symmetry_group_IT_number 44
_symmetry_cell_setting 'orthorhombic'
loop_
_space_group_symop_operation_xyz
x,y,z
-x,-y,z
-x,y,z
x,-y,z
1/2+x,1/2+y,1/2+z
1/2-x,1/2-y,1/2+z
1/2-x,1/2+y,1/2+z
1/2+x,1/2-y,1/2+z
loop_
_atom_site_type_symbol
_atom_site_label
_atom_site_fract_x
_atom_site_fract_y
_atom_site_fract_z
Si Si1 0.779039 0.723932 0.109360
Si Si2 0.718942 0.924559 0.531747
Si Si3 0.207335 0.846759 0.980767
Si Si4 0.704761 0.228062 0.806641
Si Si5 0.204470 0.000000 0.004196
Si Si6 0.781382 0.500000 0.702778
Si Si7 0.217801 0.385910 0.839912
O O1 0.721659 0.647988 0.074278
O O2 0.720056 0.728543 0.209177
O O3 0.000000 0.725682 0.107033
O O4 0.717836 0.788181 0.047641
O O5 0.500000 0.924026 0.536233
O O6 0.768329 0.920455 0.430696
O O7 0.778649 0.000000 0.567778
O O8 0.208690 0.815492 0.884211
O O9 0.000000 0.856531 0.008767
O O10 0.288699 0.924728 0.980494
O O11 0.500000 0.202363 0.800357
O O12 0.708796 0.308338 0.835738
O O13 0.202863 0.000000 0.108070
O O14 0.000000 0.000000 0.967842
O O15 0.727275 0.567464 0.758593
O O16 0.000000 0.500000 0.696371
O O17 0.000000 0.381585 0.838935
#
# Coordination Sequence:
#
# PCOD9373480 Si02
#       7
#     8   8   8   8   4   4   8
#     4   9  18  33  54  78 106 141 180 222 269 329
#     4   9  15  28  53  79 102 134 178 218 257 320
#     4  10  20  39  61  78 106 149 191 226 273 342
#     4  11  22  35  54  84 112 141 185 235 282 325
#     4  10  22  38  58  81 108 152 195 228 279 346
#     4  10  20  32  54  89 118 142 183 238 289 334
#     4  10  18  32  55  81 109 145 182 220 274 340
#
# _framework density 21.907907999999999
#
# number of rings (size 3 to 8) (size 9 to 14) (size 15 to 20)
#    0.000    2.167    2.500    1.500    0.000    2.667 
#    1.500    1.667    0.000    0.000    0.000    0.000 
#    0.000    0.000    0.000    0.000    0.000    0.000 
#
# Total GULP energy -133979.782070 kJ/mol
# GULP energy per Si atom -5582.490920 kJ/mol
# Density = 2.185804 g / cm^3
# Si number density = 21.907908 Si / 1000 Ang^3
#
#
#
# Elastic Constant Matrix: (Units=GPa)
#
#
# Indices 1 2 3 4 5 6 
#
# 1 65.5676 3.6800 1.7188 0.0000 0.0000 0.0000
# 2 3.6800 217.2808 77.1774 0.0000 0.0000 0.0000
# 3 1.7188 77.1774 112.4221 0.0000 0.0000 0.0000
# 4 0.0000 0.0000 0.0000 -24.8909 0.0000 0.0000
# 5 0.0000 0.0000 0.0000 0.0000 17.5098 0.0000
# 6 0.0000 0.0000 0.0000 0.0000 0.0000 -12.5624
#
#
#
# Elastic Compliance Matrix: (Units=1/GPa)
#
#
# Indices 1 2 3 4 5 6 
#
# 1 0.015266 -0.000232 -0.000074 0.000000 0.000000 0.000000
# 2 -0.000232 0.006090 -0.004177 0.000000 0.000000 0.000000
# 3 -0.000074 -0.004177 0.011764 0.000000 0.000000 0.000000
# 4 0.000000 0.000000 0.000000 -0.040175 0.000000 0.000000
# 5 0.000000 0.000000 0.000000 0.000000 0.057111 0.000000
# 6 0.000000 0.000000 0.000000 0.000000 0.000000 -0.079603
#
#
# Mechanical properties :
#
#
# Convention : Reuss Voigt Hill
#
# Bulk Modulus (GPa) = 41.40214 62.26922 51.83568
# Shear Modulus (GPa) = -399.08047 16.85758 -191.11144
#
# Velocity S-wave (km/s) = -13.51141 2.77695 -9.35005
# Velocity P-wave (km/s) = 14.98238 6.22630 9.63600
#
# Compressibility (1/GPa) = 0.02415334
#
# Stress axis : x y z
#
# Youngs Moduli (GPa) = 65.50325 164.20341 85.00635
#
# Poissons Ratio (x) = 0.03814 0.00629
# Poissons Ratio (y) = 0.01522 0.35509
# Poissons Ratio (z) = 0.00484 0.68591
#
# Static dielectric constant tensor:
#      x y z
#    x 1.844440 0.000000 0.000000 
#    y 0.000000 1.800460 0.000000 
#    z 0.000000 0.000000 1.756300 
# 
# From -- ./inp_files/16155.got.cif
#   From: 2010.05.17/outbox.cif.g08.bks.cpg/sg44_9_cif.got.tgz:16155.got - 2010.06.03 19:37:08.
