data_PCOD9373435
_publ_section_title
;
Structure prediction by ZEFSAII (Michael W. Deem and Ramdas Pophale) SiO2 
 PCOD9373435
Probable space group: I M M 2
;
_chemical_formula_sum "Si O2"
_cell_formula_units_Z 48
_cell_length_a 17.121438
_cell_length_b 17.899069
_cell_length_c 9.028234
_cell_angle_alpha 90.000000
_cell_angle_beta 90.000000
_cell_angle_gamma 90.000000
_cell_volume 2766.772731
_symmetry_space_group_name_H-M "I M M 2"
_symmetry_group_IT_number 44
_symmetry_cell_setting 'orthorhombic'
loop_
_space_group_symop_operation_xyz
x,y,z
-x,-y,z
-x,y,z
x,-y,z
1/2+x,1/2+y,1/2+z
1/2-x,1/2-y,1/2+z
1/2-x,1/2+y,1/2+z
1/2+x,1/2-y,1/2+z
loop_
_atom_site_type_symbol
_atom_site_label
_atom_site_fract_x
_atom_site_fract_y
_atom_site_fract_z
Si Si1 0.410258 0.306448 0.334990
Si Si2 0.179008 0.161570 0.109672
Si Si3 0.251265 0.082704 0.370955
Si Si4 0.909408 0.719177 0.274769
Si Si5 0.910992 0.360239 0.975189
Si Si6 0.683845 0.725372 0.042879
O O1 0.500000 0.332407 0.334292
O O2 0.354270 0.352639 0.446040
O O3 0.409601 0.222026 0.400752
O O4 0.373960 0.298820 0.172930
O O5 0.219388 0.097025 0.204803
O O6 0.107567 0.200350 0.198181
O O7 0.243810 0.227321 0.104699
O O8 0.344221 0.092614 0.394959
O O9 0.214982 0.150993 0.463598
O O10 0.228329 0.000000 0.420238
O O11 0.857364 0.721806 0.421094
O O12 0.000000 0.712999 0.313279
O O13 0.892787 0.656872 0.148809
O O14 0.000000 0.388811 0.963998
#
# Coordination Sequence:
#
# PCOD9373435 Si02
#       6
#     8   8   8   8   8   8
#     4  10  18  31  57  83 105 134 182 231 270 314
#     4  10  18  33  53  76 106 142 183 222 262 314
#     4  11  22  35  53  80 112 145 179 224 277 320
#     4   9  17  29  51  79 107 134 175 224 265 310
#     4   9  17  32  52  80 109 141 175 211 265 328
#     4  11  18  32  55  83 108 138 180 228 267 317
#
# _framework density 17.348731999999998
#
# number of rings (size 3 to 8) (size 9 to 14) (size 15 to 20)
#    0.000    2.000    5.000    3.000    0.000    0.333 
#    0.000    0.833    0.000   19.000    0.000    0.000 
#    0.000    0.000    0.000    0.000    0.000    0.000 
#
# Total GULP energy -133653.298102 kJ/mol
# GULP energy per Si atom -5568.887421 kJ/mol
# Density = 1.730925 g / cm^3
# Si number density = 17.348732 Si / 1000 Ang^3
#
#
#
# Elastic Constant Matrix: (Units=GPa)
#
#
# Indices 1 2 3 4 5 6 
#
# 1 88.7437 16.3496 34.3558 0.0000 0.0000 0.0000
# 2 16.3496 43.6972 3.5663 0.0000 0.0000 0.0000
# 3 34.3558 3.5663 78.0568 0.0000 0.0000 0.0000
# 4 0.0000 0.0000 0.0000 10.8313 0.0000 0.0000
# 5 0.0000 0.0000 0.0000 0.0000 28.3798 0.0000
# 6 0.0000 0.0000 0.0000 0.0000 0.0000 7.7810
#
#
#
# Elastic Compliance Matrix: (Units=1/GPa)
#
#
# Indices 1 2 3 4 5 6 
#
# 1 0.014576 -0.004949 -0.006189 0.000000 0.000000 0.000000
# 2 -0.004949 0.024650 0.001052 0.000000 0.000000 0.000000
# 3 -0.006189 0.001052 0.015487 0.000000 0.000000 0.000000
# 4 0.000000 0.000000 0.000000 0.092325 0.000000 0.000000
# 5 0.000000 0.000000 0.000000 0.000000 0.035236 0.000000
# 6 0.000000 0.000000 0.000000 0.000000 0.000000 0.128519
#
#
# Mechanical properties :
#
#
# Convention : Reuss Voigt Hill
#
# Bulk Modulus (GPa) = 28.95067 35.44902 32.19984
# Shear Modulus (GPa) = 14.59937 19.81349 17.20643
#
# Velocity S-wave (km/s) = 2.90405 3.38312 3.15270
# Velocity P-wave (km/s) = 5.28851 5.97815 5.64387
#
# Compressibility (1/GPa) = 0.03454151
#
# Stress axis : x y z
#
# Youngs Moduli (GPa) = 68.60461 40.56719 64.56880
#
# Poissons Ratio (x) = 0.20075 0.39965
# Poissons Ratio (y) = 0.33950 -0.06792
# Poissons Ratio (z) = 0.42463 -0.04267
#
# Static dielectric constant tensor:
#      x y z
#    x 1.606830 0.000000 0.000000 
#    y 0.000000 1.559120 0.000000 
#    z 0.000000 0.000000 1.630310 
# 
# From -- ./inp_files/7136.got.cif
#   From: 2010.05.17/outbox.cif.g08.bks.cpg/sg44_4_cif.got.tgz:7136.got - 2010.06.03 19:37:08.
