data_PCOD9373545
_publ_section_title
;
Structure prediction by ZEFSAII (Michael W. Deem and Ramdas Pophale) SiO2 
 PCOD9373545
Probable space group: I M M 2
;
_chemical_formula_sum "Si O2"
_cell_formula_units_Z 64
_cell_length_a 31.876197
_cell_length_b 12.553407
_cell_length_c 8.000661
_cell_angle_alpha 90.000000
_cell_angle_beta 90.000000
_cell_angle_gamma 90.000000
_cell_volume 3201.503499
_symmetry_space_group_name_H-M "I M M 2"
_symmetry_group_IT_number 44
_symmetry_cell_setting 'orthorhombic'
loop_
_space_group_symop_operation_xyz
x,y,z
-x,-y,z
-x,y,z
x,-y,z
1/2+x,1/2+y,1/2+z
1/2-x,1/2-y,1/2+z
1/2-x,1/2+y,1/2+z
1/2+x,1/2-y,1/2+z
loop_
_atom_site_type_symbol
_atom_site_label
_atom_site_fract_x
_atom_site_fract_y
_atom_site_fract_z
Si Si1 0.336477 0.619669 0.868620
Si Si2 0.134149 0.622328 0.928401
Si Si3 0.941059 0.119991 0.728822
Si Si4 0.454282 0.222743 0.533249
Si Si5 0.937153 0.877151 0.343067
Si Si6 0.654478 0.670305 0.243058
Si Si7 0.709179 0.798553 0.655811
Si Si8 0.264797 0.383396 0.440430
O O1 0.322153 0.500000 0.829137
O O2 0.386538 0.623672 0.843059
O O3 0.315611 0.708802 0.758223
O O4 0.328117 0.644953 0.061513
O O5 0.131481 0.500000 0.875679
O O6 0.144861 0.705688 0.780536
O O7 0.089304 0.656896 0.011097
O O8 0.173895 0.639069 0.051451
O O9 0.949829 0.150138 0.534854
O O10 0.890819 0.117192 0.750327
O O11 0.956034 0.000000 0.755934
O O12 0.955388 0.201676 0.869408
O O13 0.500000 0.165928 0.540037
O O14 0.451174 0.296757 0.698721
O O15 0.950173 0.000000 0.310633
O O16 0.687048 0.626899 0.378316
O O17 0.740521 0.724166 0.547430
O O18 0.735144 0.871861 0.780023
O O19 0.257836 0.500000 0.518216
#
# Coordination Sequence:
#
# PCOD9373545 Si02
#       8
#     8   8   8   8   8   8   8   8
#     4  10  18  34  59  85 115 152 187 229 293 361
#     4  10  22  42  61  80 111 157 206 252 299 345
#     4   9  18  33  55  84 120 157 189 231 297 369
#     4  11  22  36  57  85 116 153 202 256 305 360
#     4   9  18  33  55  85 119 154 190 234 294 365
#     4   9  19  35  58  84 112 147 191 238 290 354
#     4  11  22  38  58  86 119 154 195 242 289 356
#     4  11  22  36  55  84 117 152 192 241 292 345
#
# _framework density 19.990608000000002
#
# number of rings (size 3 to 8) (size 9 to 14) (size 15 to 20)
#    0.000    2.000    1.250    3.750    0.000    1.750 
#    0.000   10.625    0.000    0.000    0.000    1.750 
#    0.000    0.000    0.000    0.000    0.000    0.000 
#
# Total GULP energy -178535.375267 kJ/mol
# GULP energy per Si atom -5579.230477 kJ/mol
# Density = 1.994511 g / cm^3
# Si number density = 19.990608 Si / 1000 Ang^3
#
#
#
# Elastic Constant Matrix: (Units=GPa)
#
#
# Indices 1 2 3 4 5 6 
#
# 1 80.4674 18.7698 1.9484 0.0000 0.0000 0.0000
# 2 18.7698 108.1047 14.2961 0.0000 0.0000 0.0000
# 3 1.9484 14.2961 44.2437 0.0000 0.0001 0.0000
# 4 0.0000 0.0000 0.0000 13.1797 0.0001 0.0000
# 5 0.0000 0.0000 0.0001 0.0001 -71.9153 0.0001
# 6 0.0000 0.0000 0.0000 0.0000 0.0001 -7.2130
#
#
#
# Elastic Compliance Matrix: (Units=1/GPa)
#
#
# Indices 1 2 3 4 5 6 
#
# 1 0.012953 -0.002271 0.000163 0.000000 0.000000 0.000000
# 2 -0.002271 0.010061 -0.003151 0.000000 0.000000 0.000000
# 3 0.000163 -0.003151 0.023613 0.000000 0.000000 0.000000
# 4 0.000000 0.000000 0.000000 0.075874 0.000000 0.000000
# 5 0.000000 0.000000 0.000000 0.000000 -0.013905 0.000000
# 6 0.000000 0.000000 0.000000 0.000000 0.000000 -0.138639
#
#
# Mechanical properties :
#
#
# Convention : Reuss Voigt Hill
#
# Bulk Modulus (GPa) = 27.69266 33.64938 30.67102
# Shear Modulus (GPa) = -667.67641 -0.00295 -333.83968
#
# Velocity S-wave (km/s) = -18.29536 -0.03848 -12.93680
# Velocity P-wave (km/s) = 20.79448 4.10697 14.41429
#
# Compressibility (1/GPa) = 0.03611065
#
# Stress axis : x y z
#
# Youngs Moduli (GPa) = 77.20173 99.39148 42.34950
#
# Poissons Ratio (x) = 0.22568 -0.00691
# Poissons Ratio (y) = 0.17529 0.13344
# Poissons Ratio (z) = -0.01260 0.31318
#
# Static dielectric constant tensor:
#      x y z
#    x 1.751830 0.000000 0.000000 
#    y 0.000000 1.695590 0.000000 
#    z 0.000000 0.000000 1.736250 
# 
# From -- ./inp_files/10129.got.cif
#   From: 2010.05.17/outbox.cif.g08.bks.cpg/sg44_6_cif.got.tgz:10129.got - 2010.06.03 19:37:08.
