data_PCOD9373131
_publ_section_title
;
Structure prediction by ZEFSAII (Michael W. Deem and Ramdas Pophale) SiO2 
 PCOD9373131
Probable space group: I M M 2
;
_chemical_formula_sum "Si O2"
_cell_formula_units_Z 56
_cell_length_a 8.039888
_cell_length_b 30.555267
_cell_length_c 13.995905
_cell_angle_alpha 90.000000
_cell_angle_beta 90.000000
_cell_angle_gamma 90.000000
_cell_volume 3438.246961
_symmetry_space_group_name_H-M "I M M 2"
_symmetry_group_IT_number 44
_symmetry_cell_setting 'orthorhombic'
loop_
_space_group_symop_operation_xyz
x,y,z
-x,-y,z
-x,y,z
x,-y,z
1/2+x,1/2+y,1/2+z
1/2-x,1/2-y,1/2+z
1/2-x,1/2+y,1/2+z
1/2+x,1/2-y,1/2+z
loop_
_atom_site_type_symbol
_atom_site_label
_atom_site_fract_x
_atom_site_fract_y
_atom_site_fract_z
Si Si1 0.195162 0.685772 0.045310
Si Si2 0.203523 0.594903 0.958874
Si Si3 0.807001 0.000000 0.257204
Si Si4 0.307790 0.000000 0.470973
Si Si5 0.201017 0.407115 0.736072
Si Si6 0.804703 0.726363 0.443906
Si Si7 0.195256 0.769823 0.730208
Si Si8 0.796887 0.319651 0.633748
O O1 0.218263 0.697243 0.156520
O O2 0.000000 0.687629 0.021126
O O3 0.257378 0.637784 0.016102
O O4 0.279443 0.724817 0.985761
O O5 0.264708 0.547579 0.996688
O O6 0.250679 0.599390 0.847248
O O7 0.000000 0.593279 0.961340
O O8 0.765840 0.045323 0.205262
O O9 0.699609 0.000000 0.354868
O O10 0.000000 0.000000 0.284878
O O11 0.500000 0.000000 0.502073
O O12 0.259867 0.366165 0.673559
O O13 0.000000 0.407992 0.733567
O O14 0.722411 0.721579 0.341180
O O15 0.741845 0.694079 0.527589
O O16 0.000000 0.718620 0.431460
O O17 0.252441 0.720560 0.702862
O O18 0.000000 0.771919 0.707983
O O19 0.000000 0.320570 0.633191
#
# Coordination Sequence:
#
# PCOD9373131 Si02
#       8
#     8   8   4   4   8   8   8   8
#     4  10  18  29  45  67  90 115 145 181 220 259
#     4   8  14  24  43  65  85 111 146 178 209 250
#     4  10  18  26  36  60  91 112 133 172 215 252
#     4   8  14  28  44  58  79 114 149 172 201 252
#     4   9  15  28  46  61  80 114 148 173 204 251
#     4  10  19  31  45  65  90 117 146 181 218 257
#     4  10  19  32  46  63  88 119 149 181 215 254
#     4   8  16  29  46  64  83 109 148 184 210 245
#
# _framework density 16.287369999999999
#
# number of rings (size 3 to 8) (size 9 to 14) (size 15 to 20)
#    0.000    2.857    0.000    4.500    0.000    2.286 
#    0.000   12.857    0.000    0.000    0.000    1.000 
#    0.000    4.571    0.000    0.000    0.000    0.000 
#
# Total GULP energy -155967.391167 kJ/mol
# GULP energy per Si atom -5570.263970 kJ/mol
# Density = 1.625030 g / cm^3
# Si number density = 16.287370 Si / 1000 Ang^3
#
#
#
# Elastic Constant Matrix: (Units=GPa)
#
#
# Indices 1 2 3 4 5 6 
#
# 1 18.4401 2.6113 -2.2888 0.0000 0.0000 0.0000
# 2 2.6113 160.4995 56.9331 0.0001 0.0000 0.0000
# 3 -2.2888 56.9331 74.0472 0.0001 0.0000 0.0000
# 4 0.0000 0.0001 0.0001 25.1030 0.0000 0.0000
# 5 0.0000 0.0000 0.0000 0.0000 16.7831 0.0000
# 6 0.0000 0.0000 0.0000 0.0000 0.0000 14.7504
#
#
#
# Elastic Compliance Matrix: (Units=1/GPa)
#
#
# Indices 1 2 3 4 5 6 
#
# 1 0.054928 -0.002057 0.003279 0.000000 0.000000 0.000000
# 2 -0.002057 0.008644 -0.006710 0.000000 0.000000 0.000000
# 3 0.003279 -0.006710 0.018765 0.000000 0.000000 0.000000
# 4 0.000000 0.000000 0.000000 0.039836 0.000000 0.000000
# 5 0.000000 0.000000 0.000000 0.000000 0.059584 0.000000
# 6 0.000000 0.000000 0.000000 0.000000 0.000000 0.067795
#
#
# Mechanical properties :
#
#
# Convention : Reuss Voigt Hill
#
# Bulk Modulus (GPa) = 14.01294 40.83313 27.42304
# Shear Modulus (GPa) = 17.58617 24.37605 20.98111
#
# Velocity S-wave (km/s) = 3.28951 3.87282 3.59302
# Velocity P-wave (km/s) = 4.80105 6.71738 5.83837
#
# Compressibility (1/GPa) = 0.07136259
#
# Stress axis : x y z
#
# Youngs Moduli (GPa) = 18.20564 115.68489 53.28980
#
# Poissons Ratio (x) = 0.23796 -0.17476
# Poissons Ratio (y) = 0.03745 0.35757
# Poissons Ratio (z) = -0.05970 0.77623
#
# Static dielectric constant tensor:
#      x y z
#    x 1.588370 0.000000 0.000000 
#    y 0.000000 1.577110 0.000000 
#    z 0.000000 0.000000 1.519590 
# 
# From -- ./inp_files/17046.got.cif
#   From: 2010.05.17/outbox.cif.g08.bks.cpg/sg44_9_cif.got.tgz:17046.got - 2010.06.03 19:37:08.
