data_PCOD9373397
_publ_section_title
;
Structure prediction by ZEFSAII (Michael W. Deem and Ramdas Pophale) SiO2 
 PCOD9373397
Probable space group: I M M 2
;
_chemical_formula_sum "Si O2"
_cell_formula_units_Z 64
_cell_length_a 27.624881
_cell_length_b 7.408548
_cell_length_c 13.375281
_cell_angle_alpha 90.000000
_cell_angle_beta 90.000000
_cell_angle_gamma 90.000000
_cell_volume 2737.388445
_symmetry_space_group_name_H-M "I M M 2"
_symmetry_group_IT_number 44
_symmetry_cell_setting 'orthorhombic'
loop_
_space_group_symop_operation_xyz
x,y,z
-x,-y,z
-x,y,z
x,-y,z
1/2+x,1/2+y,1/2+z
1/2-x,1/2-y,1/2+z
1/2-x,1/2+y,1/2+z
1/2+x,1/2-y,1/2+z
loop_
_atom_site_type_symbol
_atom_site_label
_atom_site_fract_x
_atom_site_fract_y
_atom_site_fract_z
Si Si1 0.053747 0.279983 0.856980
Si Si2 0.368070 0.790647 0.196801
Si Si3 0.694511 0.798376 0.489212
Si Si4 0.778194 0.220288 0.370252
Si Si5 0.624865 0.712084 0.973569
Si Si6 0.906088 0.720332 0.070651
Si Si7 0.944702 0.282520 0.286350
Si Si8 0.758734 0.718934 0.667781
O O1 0.054487 0.500000 0.854324
O O2 0.095713 0.215820 0.781098
O O3 0.000000 0.222577 0.825579
O O4 0.062756 0.229731 0.972860
O O5 0.313342 0.718499 0.188922
O O6 0.361934 0.000000 0.223659
O O7 0.388582 0.783388 0.083309
O O8 0.724724 0.711936 0.400509
O O9 0.647788 0.717056 0.540687
O O10 0.737345 0.804576 0.569324
O O11 0.679638 0.000000 0.456706
O O12 0.823596 0.287202 0.433592
O O13 0.779956 0.263779 0.253901
O O14 0.777186 0.000000 0.377047
O O15 0.631359 0.500000 0.988118
O O16 0.587051 0.736886 0.883478
O O17 0.906179 0.500000 0.076110
O O18 0.923300 0.782522 0.179713
O O19 0.945469 0.500000 0.281175
O O20 0.000000 0.219900 0.296983
O O21 0.759690 0.500000 0.656176
#
# Coordination Sequence:
#
# PCOD9373397 Si02
#       8
#     8   8   8   8   8   8   8   8
#     4   9  17  31  54  83 110 138 177 226 281 333
#     4  10  20  34  54  81 112 145 184 229 274 322
#     4  10  18  31  51  76 105 136 172 208 256 316
#     4   9  18  32  50  73 104 141 175 214 263 314
#     4  11  22  37  56  78 111 151 191 227 269 329
#     4   9  17  31  55  85 112 139 176 227 281 335
#     4  10  21  37  57  82 111 142 182 235 287 328
#     4  10  19  32  50  73 104 140 178 217 259 312
#
# _framework density 23.379946
#
# number of rings (size 3 to 8) (size 9 to 14) (size 15 to 20)
#    0.000    2.250    1.250    2.250    0.000    5.250 
#    0.000    2.500    0.000    3.000    0.000    0.000 
#    0.000    0.000    0.000    0.000    0.000    0.000 
#
# Total GULP energy -178640.344766 kJ/mol
# GULP energy per Si atom -5582.510774 kJ/mol
# Density = 2.332673 g / cm^3
# Si number density = 23.379946 Si / 1000 Ang^3
#
#
#
# Elastic Constant Matrix: (Units=GPa)
#
#
# Indices 1 2 3 4 5 6 
#
# 1 119.5478 -1.4733 37.3103 0.0000 0.0000 0.0000
# 2 -1.4733 81.8716 -3.0280 0.0000 0.0000 0.0000
# 3 37.3103 -3.0280 141.0487 0.0000 0.0000 0.0000
# 4 0.0000 0.0000 0.0000 -1.6059 0.0000 0.0000
# 5 0.0000 0.0000 0.0000 0.0000 38.5299 0.0000
# 6 0.0000 0.0000 0.0000 0.0000 0.0000 7.0344
#
#
#
# Elastic Compliance Matrix: (Units=1/GPa)
#
#
# Indices 1 2 3 4 5 6 
#
# 1 0.009118 0.000075 -0.002410 0.000000 0.000000 0.000000
# 2 0.000075 0.012225 0.000243 0.000000 0.000000 0.000000
# 3 -0.002410 0.000243 0.007733 0.000000 0.000000 0.000000
# 4 0.000000 0.000000 0.000000 -0.622715 0.000000 0.000000
# 5 0.000000 0.000000 0.000000 0.000000 0.025954 0.000000
# 6 0.000000 0.000000 0.000000 0.000000 0.000000 0.142160
#
#
# Mechanical properties :
#
#
# Convention : Reuss Voigt Hill
#
# Bulk Modulus (GPa) = 40.17736 45.34289 42.76013
# Shear Modulus (GPa) = -12.10522 29.43562 8.66520
#
# Velocity S-wave (km/s) = -2.27790 3.55210 1.92725
# Velocity P-wave (km/s) = 3.20989 6.02157 4.82507
#
# Compressibility (1/GPa) = 0.02488964
#
# Stress axis : x y z
#
# Youngs Moduli (GPa) = 109.67295 81.80245 129.32378
#
# Poissons Ratio (x) = -0.00613 0.31171
# Poissons Ratio (y) = -0.00822 -0.03138
# Poissons Ratio (z) = 0.26434 -0.01985
#
# Static dielectric constant tensor:
#      x y z
#    x 1.872390 0.000000 0.000000 
#    y 0.000000 1.924230 0.000000 
#    z 0.000000 0.000000 1.878770 
# 
# From -- ./inp_files/15047.got.cif
#   From: 2010.05.17/outbox.cif.g08.bks.cpg/sg44_8_cif.got.tgz:15047.got - 2010.06.03 19:37:08.
