data_PCOD9373336
_publ_section_title
;
Structure prediction by ZEFSAII (Michael W. Deem and Ramdas Pophale) SiO2 
 PCOD9373336
Probable space group: I M M 2
;
_chemical_formula_sum "Si O2"
_cell_formula_units_Z 64
_cell_length_a 7.434426
_cell_length_b 20.251988
_cell_length_c 21.380041
_cell_angle_alpha 90.000000
_cell_angle_beta 90.000000
_cell_angle_gamma 90.000000
_cell_volume 3219.019726
_symmetry_space_group_name_H-M "I M M 2"
_symmetry_group_IT_number 44
_symmetry_cell_setting 'orthorhombic'
loop_
_space_group_symop_operation_xyz
x,y,z
-x,-y,z
-x,y,z
x,-y,z
1/2+x,1/2+y,1/2+z
1/2-x,1/2-y,1/2+z
1/2-x,1/2+y,1/2+z
1/2+x,1/2-y,1/2+z
loop_
_atom_site_type_symbol
_atom_site_label
_atom_site_fract_x
_atom_site_fract_y
_atom_site_fract_z
Si Si1 0.291573 0.714275 0.865680
Si Si2 0.293430 0.296662 0.245309
Si Si3 0.783142 0.572987 0.819743
Si Si4 0.218208 0.073282 0.810279
Si Si5 0.718825 0.927092 0.173792
Si Si6 0.279827 0.215652 0.991157
Si Si7 0.709341 0.927812 0.957062
Si Si8 0.279854 0.214290 0.128156
O O1 0.500000 0.733606 0.861968
O O2 0.205295 0.747979 0.804986
O O3 0.278133 0.635670 0.858970
O O4 0.219949 0.742521 0.931129
O O5 0.500000 0.311189 0.228362
O O6 0.214658 0.365922 0.268916
O O7 0.214837 0.258593 0.185914
O O8 0.724099 0.500000 0.840772
O O9 0.729321 0.580507 0.746866
O O10 0.000000 0.573782 0.820288
O O11 0.281831 0.079529 0.881846
O O12 0.000000 0.076538 0.812901
O O13 0.268606 0.000000 0.787878
O O14 0.500000 0.927777 0.172005
O O15 0.777644 0.861819 0.137757
O O16 0.777866 0.000000 0.152027
O O17 0.500000 0.215336 0.989632
O O18 0.216526 0.139956 0.984099
O O19 0.227118 0.239658 0.059851
O O20 0.500000 0.929930 0.976102
O O21 0.787691 0.000000 0.972584
O O22 0.500000 0.213156 0.130774
#
# Coordination Sequence:
#
# PCOD9373336 Si02
#       8
#     8   8   8   8   8   8   8   8
#     4  11  20  30  47  71 100 127 154 192 238 288
#     4  10  18  30  50  70  89 121 162 200 236 278
#     4   9  17  31  51  74  96 119 157 201 235 273
#     4   9  17  28  44  68  93 116 149 195 239 274
#     4   8  13  22  40  67  93 115 146 189 228 265
#     4   9  18  29  41  65  98 128 155 190 234 277
#     4   9  16  27  43  64  92 124 155 183 218 272
#     4   9  16  27  44  65  92 123 156 194 233 272
#
# _framework density 19.881827999999999
#
# number of rings (size 3 to 8) (size 9 to 14) (size 15 to 20)
#    0.000    2.750    2.500    1.125    0.000    0.750 
#    0.000    2.500    0.000    3.000    0.000    3.500 
#    0.000    2.000    0.000    0.000    0.000    0.000 
#
# Total GULP energy -178504.736900 kJ/mol
# GULP energy per Si atom -5578.273028 kJ/mol
# Density = 1.983658 g / cm^3
# Si number density = 19.881828 Si / 1000 Ang^3
#
#
#
# Elastic Constant Matrix: (Units=GPa)
#
#
# Indices 1 2 3 4 5 6 
#
# 1 60.9114 -6.2027 -4.2166 0.0000 0.0000 0.0000
# 2 -6.2027 118.6465 59.9793 0.0000 0.0000 0.0000
# 3 -4.2166 59.9793 116.9937 0.0000 0.0000 0.0000
# 4 0.0000 0.0000 0.0000 23.4803 0.0000 0.0000
# 5 0.0000 0.0000 0.0000 0.0000 3.5814 0.0000
# 6 0.0000 0.0000 0.0000 0.0000 0.0000 -15.5770
#
#
#
# Elastic Compliance Matrix: (Units=1/GPa)
#
#
# Indices 1 2 3 4 5 6 
#
# 1 0.016509 0.000759 0.000206 0.000000 0.000000 0.000000
# 2 0.000759 0.011412 -0.005823 0.000000 0.000000 0.000000
# 3 0.000206 -0.005823 0.011540 0.000000 0.000000 0.000000
# 4 0.000000 0.000000 0.000000 0.042589 0.000000 0.000000
# 5 0.000000 0.000000 0.000000 0.000000 0.279220 0.000000
# 6 0.000000 0.000000 0.000000 0.000000 0.000000 -0.064197
#
#
# Mechanical properties :
#
#
# Convention : Reuss Voigt Hill
#
# Bulk Modulus (GPa) = 33.61984 43.96349 38.79167
# Shear Modulus (GPa) = 15.78759 18.76304 17.27531
#
# Velocity S-wave (km/s) = 2.82098 3.07535 2.95091
# Velocity P-wave (km/s) = 5.24949 5.89667 5.58247
#
# Compressibility (1/GPa) = 0.02974434
#
# Stress axis : x y z
#
# Youngs Moduli (GPa) = 60.57368 87.62810 86.65310
#
# Poissons Ratio (x) = -0.06651 -0.01784
# Poissons Ratio (y) = -0.04597 0.50460
# Poissons Ratio (z) = -0.01247 0.51027
#
# Static dielectric constant tensor:
#      x y z
#    x 1.792190 0.000000 0.000000 
#    y 0.000000 1.712910 0.000000 
#    z 0.000000 0.000000 1.680980 
# 
# From -- ./inp_files/20731.got.cif
#   From: 2010.05.17/outbox.cif.g08.bks.cpg/sg44_11_cif.got.tgz:20731.got - 2010.06.03 19:37:08.
