data_PCOD9373851
_publ_section_title
;
Structure prediction by ZEFSAII (Michael W. Deem and Ramdas Pophale) SiO2 
 PCOD9373851
Probable space group: I M M 2
;
_chemical_formula_sum "Si O2"
_cell_formula_units_Z 48
_cell_length_a 14.143355
_cell_length_b 8.614580
_cell_length_c 19.327261
_cell_angle_alpha 90.000000
_cell_angle_beta 90.000000
_cell_angle_gamma 90.000000
_cell_volume 2354.815373
_symmetry_space_group_name_H-M "I M M 2"
_symmetry_group_IT_number 44
_symmetry_cell_setting 'orthorhombic'
loop_
_space_group_symop_operation_xyz
x,y,z
-x,-y,z
-x,y,z
x,-y,z
1/2+x,1/2+y,1/2+z
1/2-x,1/2-y,1/2+z
1/2-x,1/2+y,1/2+z
1/2+x,1/2-y,1/2+z
loop_
_atom_site_type_symbol
_atom_site_label
_atom_site_fract_x
_atom_site_fract_y
_atom_site_fract_z
Si Si1 0.248091 0.822049 0.966040
Si Si2 0.108999 0.185539 0.360916
Si Si3 0.395400 0.812526 0.575380
Si Si4 0.312217 0.814233 0.717187
Si Si5 0.893023 0.324725 0.868179
Si Si6 0.601728 0.685501 0.217365
O O1 0.339221 0.743924 0.930579
O O2 0.170276 0.800701 0.905621
O O3 0.268087 0.000000 0.981197
O O4 0.192694 0.745337 0.030015
O O5 0.163494 0.240740 0.291344
O O6 0.000000 0.239962 0.357485
O O7 0.109775 0.000000 0.361273
O O8 0.500000 0.759040 0.552319
O O9 0.381170 0.766285 0.655360
O O10 0.394272 0.000000 0.571828
O O11 0.205917 0.780623 0.688969
O O12 0.319727 0.000000 0.726328
O O13 0.855006 0.500000 0.878685
O O14 0.898303 0.282058 0.788121
O O15 0.000000 0.323235 0.895033
O O16 0.500000 0.718276 0.181448
O O17 0.601521 0.500000 0.231942
#
# Coordination Sequence:
#
# PCOD9373851 Si02
#       6
#     8   8   8   8   8   8
#     4  12  24  38  58  85 117 155 200 251 303 359
#     4  11  24  41  63  90 119 155 201 252 305 364
#     4  10  22  40  61  87 123 165 206 250 303 362
#     4  10  20  37  62  91 124 163 203 248 300 357
#     4  10  19  31  51  80 114 150 188 236 293 348
#     4   9  17  30  51  83 119 153 192 236 287 348
#
# _framework density 20.383763999999999
#
# number of rings (size 3 to 8) (size 9 to 14) (size 15 to 20)
#    0.000    1.667    1.667    3.500    0.000    6.000 
#    0.000    0.833    0.000    3.000    0.000    0.000 
#    0.000    0.000    0.000    0.000    0.000    0.000 
#
# Total GULP energy -133797.950951 kJ/mol
# GULP energy per Si atom -5574.914623 kJ/mol
# Density = 2.033737 g / cm^3
# Si number density = 20.383764 Si / 1000 Ang^3
#
#
#
# Elastic Constant Matrix: (Units=GPa)
#
#
# Indices 1 2 3 4 5 6 
#
# 1 135.1093 24.4329 35.7340 0.0000 0.0000 0.0000
# 2 24.4329 36.7380 18.0636 0.0000 0.0000 0.0000
# 3 35.7340 18.0636 74.1497 0.0000 0.0000 0.0000
# 4 0.0000 0.0000 0.0000 20.3106 0.0000 0.0000
# 5 0.0000 0.0000 0.0000 0.0000 24.3334 0.0000
# 6 0.0000 0.0000 0.0000 0.0000 0.0000 20.6708
#
#
#
# Elastic Compliance Matrix: (Units=1/GPa)
#
#
# Indices 1 2 3 4 5 6 
#
# 1 0.009071 -0.004412 -0.003297 0.000000 0.000000 0.000000
# 2 -0.004412 0.033070 -0.005930 0.000000 0.000000 0.000000
# 3 -0.003297 -0.005930 0.016520 0.000000 0.000000 0.000000
# 4 0.000000 0.000000 0.000000 0.049235 0.000000 0.000000
# 5 0.000000 0.000000 0.000000 0.000000 0.041096 0.000000
# 6 0.000000 0.000000 0.000000 0.000000 0.000000 0.048377
#
#
# Mechanical properties :
#
#
# Convention : Reuss Voigt Hill
#
# Bulk Modulus (GPa) = 31.86418 44.71756 38.29087
# Shear Modulus (GPa) = 21.26689 24.24739 22.75714
#
# Velocity S-wave (km/s) = 3.23356 3.45272 3.34493
# Velocity P-wave (km/s) = 5.44126 6.15471 5.80895
#
# Compressibility (1/GPa) = 0.03138320
#
# Stress axis : x y z
#
# Youngs Moduli (GPa) = 110.23910 30.23926 60.53423
#
# Poissons Ratio (x) = 0.13341 0.19957
# Poissons Ratio (y) = 0.48636 0.35896
# Poissons Ratio (z) = 0.36343 0.17932
#
# Static dielectric constant tensor:
#      x y z
#    x 1.794430 0.000000 0.000000 
#    y 0.000000 1.695460 0.000000 
#    z 0.000000 0.000000 1.709560 
# 
# From -- ./inp_files/20315.got.cif
#   From: 2010.05.17/outbox.cif.g08.bks.cpg/sg44_11_cif.got.tgz:20315.got - 2010.06.03 19:37:08.
