data_PCOD9373051
_publ_section_title
;
Structure prediction by ZEFSAII (Michael W. Deem and Ramdas Pophale) SiO2 
 PCOD9373051
Probable space group: I M M 2
;
_chemical_formula_sum "Si O2"
_cell_formula_units_Z 64
_cell_length_a 8.686986
_cell_length_b 15.091084
_cell_length_c 28.668999
_cell_angle_alpha 90.000000
_cell_angle_beta 90.000000
_cell_angle_gamma 90.000000
_cell_volume 3758.392109
_symmetry_space_group_name_H-M "I M M 2"
_symmetry_group_IT_number 44
_symmetry_cell_setting 'orthorhombic'
loop_
_space_group_symop_operation_xyz
x,y,z
-x,-y,z
-x,y,z
x,-y,z
1/2+x,1/2+y,1/2+z
1/2-x,1/2-y,1/2+z
1/2-x,1/2+y,1/2+z
1/2+x,1/2-y,1/2+z
loop_
_atom_site_type_symbol
_atom_site_label
_atom_site_fract_x
_atom_site_fract_y
_atom_site_fract_z
Si Si1 0.814213 0.102002 0.215410
Si Si2 0.814484 0.600604 0.441997
Si Si3 0.312448 0.099445 0.564837
Si Si4 0.186300 0.778774 0.022613
Si Si5 0.312882 0.398928 0.608929
Si Si6 0.317840 0.276037 0.254108
Si Si7 0.685665 0.101095 0.833883
Si Si8 0.815483 0.396047 0.172397
O O1 0.765029 0.122282 0.161829
O O2 0.747781 0.177154 0.248476
O O3 0.000000 0.106028 0.216594
O O4 0.769975 0.000000 0.225611
O O5 0.765098 0.500000 0.454723
O O6 0.747320 0.671941 0.477220
O O7 0.771137 0.615856 0.387961
O O8 0.000000 0.602693 0.444242
O O9 0.500000 0.098023 0.564702
O O10 0.263131 0.177551 0.530598
O O11 0.269812 0.120165 0.618579
O O12 0.259764 0.000000 0.553414
O O13 0.238021 0.833177 0.068552
O O14 0.000000 0.780596 0.021548
O O15 0.500000 0.396982 0.609280
O O16 0.266189 0.500000 0.598477
O O17 0.500000 0.272853 0.255797
O O18 0.254684 0.327884 0.298967
O O19 0.263970 0.332410 0.209107
O O20 0.500000 0.104570 0.830917
O O21 0.731676 0.000000 0.821212
O O22 0.785502 0.500000 0.182512
O O23 0.000000 0.382558 0.175696
#
# Coordination Sequence:
#
# PCOD9373051 Si02
#       8
#     8   8   8   8   8   8   8   8
#     4   9  18  34  54  71  92 130 176 210 231 265
#     4   9  19  35  52  71  96 123 152 192 241 288
#     4   8  15  28  46  69  96 128 168 207 234 263
#     4  10  17  26  47  74  97 124 158 196 238 284
#     4   8  14  25  43  69  96 121 156 199 234 269
#     4  12  23  31  46  74 105 130 153 194 251 300
#     4   9  19  37  57  72  90 122 162 199 236 287
#     4   9  17  31  51  71  94 130 173 207 233 274
#
# _framework density 17.028558
#
# number of rings (size 3 to 8) (size 9 to 14) (size 15 to 20)
#    0.000    2.750    0.000    4.875    0.000    5.500 
#    0.000    3.750    0.000    2.625    0.000    3.500 
#    0.000    0.000    0.000    0.000    0.000    0.000 
#
# Total GULP energy -178452.162881 kJ/mol
# GULP energy per Si atom -5576.630090 kJ/mol
# Density = 1.698980 g / cm^3
# Si number density = 17.028558 Si / 1000 Ang^3
#
#
#
# Elastic Constant Matrix: (Units=GPa)
#
#
# Indices 1 2 3 4 5 6 
#
# 1 20.1748 39.0445 27.4495 0.0000 0.0000 0.0000
# 2 39.0445 142.2134 100.3764 0.0000 0.0000 0.0000
# 3 27.4495 100.3764 93.9281 0.0000 0.0000 0.0000
# 4 0.0000 0.0000 0.0000 32.5969 0.0000 0.0000
# 5 0.0000 0.0000 0.0000 0.0000 18.6354 0.0000
# 6 0.0000 0.0000 0.0000 0.0000 0.0000 14.3176
#
#
#
# Elastic Compliance Matrix: (Units=1/GPa)
#
#
# Indices 1 2 3 4 5 6 
#
# 1 0.105768 -0.029390 0.000498 0.000000 0.000000 0.000000
# 2 -0.029390 0.036782 -0.030719 0.000000 0.000000 0.000000
# 3 0.000498 -0.030719 0.043328 0.000000 0.000000 0.000000
# 4 0.000000 0.000000 0.000000 0.030678 0.000000 0.000000
# 5 0.000000 0.000000 0.000000 0.000000 0.053661 0.000000
# 6 0.000000 0.000000 0.000000 0.000000 0.000000 0.069844
#
#
# Mechanical properties :
#
#
# Convention : Reuss Voigt Hill
#
# Bulk Modulus (GPa) = 15.00206 65.56190 40.28198
# Shear Modulus (GPa) = 10.38418 19.07305 14.72862
#
# Velocity S-wave (km/s) = 2.47211 3.35036 2.94417
# Velocity P-wave (km/s) = 4.12038 7.31788 5.93838
#
# Compressibility (1/GPa) = 0.06665753
#
# Stress axis : x y z
#
# Youngs Moduli (GPa) = 9.45468 27.18695 23.07954
#
# Poissons Ratio (x) = 0.79902 -0.01150
# Poissons Ratio (y) = 0.27787 0.70897
# Poissons Ratio (z) = -0.00471 0.83515
#
# Static dielectric constant tensor:
#      x y z
#    x 1.580070 0.000000 0.000000 
#    y 0.000000 1.587540 0.000000 
#    z 0.000000 0.000000 1.559740 
# 
# From -- ./inp_files/27373.got.cif
#   From: 2010.05.17/outbox.cif.g08.bks.cpg/sg44_14_cif.got.tgz:27373.got - 2010.06.03 19:37:08.
