data_PCOD9373226
_publ_section_title
;
Structure prediction by ZEFSAII (Michael W. Deem and Ramdas Pophale) SiO2 
 PCOD9373226
Probable space group: I M M 2
;
_chemical_formula_sum "Si O2"
_cell_formula_units_Z 64
_cell_length_a 29.151858
_cell_length_b 7.491374
_cell_length_c 15.029909
_cell_angle_alpha 90.000000
_cell_angle_beta 90.000000
_cell_angle_gamma 90.000000
_cell_volume 3282.343817
_symmetry_space_group_name_H-M "I M M 2"
_symmetry_group_IT_number 44
_symmetry_cell_setting 'orthorhombic'
loop_
_space_group_symop_operation_xyz
x,y,z
-x,-y,z
-x,y,z
x,-y,z
1/2+x,1/2+y,1/2+z
1/2-x,1/2-y,1/2+z
1/2-x,1/2+y,1/2+z
1/2+x,1/2-y,1/2+z
loop_
_atom_site_type_symbol
_atom_site_label
_atom_site_fract_x
_atom_site_fract_y
_atom_site_fract_z
Si Si1 0.448401 0.712654 0.694840
Si Si2 0.864249 0.212907 0.082498
Si Si3 0.947532 0.715294 0.397908
Si Si4 0.677146 0.218691 0.201434
Si Si5 0.369748 0.792458 0.028777
Si Si6 0.216644 0.215767 0.407744
Si Si7 0.718815 0.717088 0.702515
Si Si8 0.819986 0.713646 0.902629
O O1 0.500000 0.786318 0.685735
O O2 0.451483 0.500000 0.681164
O O3 0.410720 0.783956 0.626533
O O4 0.433315 0.739421 0.797032
O O5 0.819955 0.283062 0.135863
O O6 0.864619 0.000000 0.096599
O O7 0.856063 0.243051 0.978717
O O8 0.948172 0.500000 0.402800
O O9 0.911053 0.784441 0.469727
O O10 0.000000 0.778380 0.410909
O O11 0.729480 0.273482 0.179572
O O12 0.668344 0.275956 0.302970
O O13 0.676443 0.000000 0.199905
O O14 0.642702 0.283509 0.125503
O O15 0.323045 0.784556 0.971327
O O16 0.381446 0.000000 0.042909
O O17 0.208452 0.266757 0.304684
O O18 0.268622 0.276963 0.429023
O O19 0.215389 0.000000 0.412824
O O20 0.719165 0.500000 0.700431
O O21 0.816459 0.500000 0.896898
#
# Coordination Sequence:
#
# PCOD9373226 Si02
#       8
#     8   8   8   8   8   8   8   8
#     4   9  18  32  49  69  92 119 150 181 219 272
#     4  10  18  28  46  68  88 114 149 186 220 258
#     4   9  18  31  46  68  96 119 142 181 231 272
#     4   8  15  28  43  59  83 116 149 177 209 255
#     4  10  18  28  46  67  86 115 152 185 220 264
#     4   9  17  29  44  64  91 119 146 179 218 261
#     4   8  14  25  41  61  86 115 143 171 211 262
#     4   9  18  31  45  62  88 121 151 180 218 262
#
# _framework density 19.498260999999999
#
# number of rings (size 3 to 8) (size 9 to 14) (size 15 to 20)
#    0.000    3.000    0.000    3.000    0.000    3.500 
#    0.000    1.250    0.000    2.250    0.000    1.750 
#    0.000    0.000    0.000    0.000    0.000    0.000 
#
# Total GULP energy -178525.275673 kJ/mol
# GULP energy per Si atom -5578.914865 kJ/mol
# Density = 1.945388 g / cm^3
# Si number density = 19.498261 Si / 1000 Ang^3
#
#
#
# Elastic Constant Matrix: (Units=GPa)
#
#
# Indices 1 2 3 4 5 6 
#
# 1 109.1434 2.8981 100.9762 0.0000 0.0000 0.0000
# 2 2.8981 52.9934 -2.9350 0.0000 0.0000 0.0000
# 3 100.9762 -2.9350 130.9061 0.0000 0.0000 0.0000
# 4 0.0000 0.0000 0.0000 1.0865 0.0000 0.0000
# 5 0.0000 0.0000 0.0000 0.0000 34.6874 0.0000
# 6 0.0000 0.0000 0.0000 0.0000 0.0000 7.8526
#
#
#
# Elastic Compliance Matrix: (Units=1/GPa)
#
#
# Indices 1 2 3 4 5 6 
#
# 1 0.032520 -0.003172 -0.025156 0.000000 0.000000 0.000000
# 2 -0.003172 0.019203 0.002877 0.000000 0.000000 0.000000
# 3 -0.025156 0.002877 0.027108 0.000000 0.000000 0.000000
# 4 0.000000 0.000000 0.000000 0.920365 0.000000 0.000000
# 5 0.000000 0.000000 0.000000 0.000000 0.028829 0.000000
# 6 0.000000 0.000000 0.000000 0.000000 0.000000 0.127346
#
#
# Mechanical properties :
#
#
# Convention : Reuss Voigt Hill
#
# Bulk Modulus (GPa) = 35.80381 54.99129 45.39755
# Shear Modulus (GPa) = 4.11326 21.53221 12.82274
#
# Velocity S-wave (km/s) = 1.45401 3.32673 2.56722
# Velocity P-wave (km/s) = 4.60666 6.55901 5.66753
#
# Compressibility (1/GPa) = 0.02792999
#
# Stress axis : x y z
#
# Youngs Moduli (GPa) = 30.75066 52.07504 36.88998
#
# Poissons Ratio (x) = 0.16516 0.92799
# Poissons Ratio (y) = 0.09753 -0.10613
# Poissons Ratio (z) = 0.77355 -0.14982
#
# Static dielectric constant tensor:
#      x y z
#    x 1.685330 0.000000 0.000000 
#    y 0.000000 1.742420 0.000000 
#    z 0.000000 0.000000 1.682500 
# 
# From -- ./inp_files/17165.got.cif
#   From: 2010.05.17/outbox.cif.g08.bks.cpg/sg44_9_cif.got.tgz:17165.got - 2010.06.03 19:37:08.
