data_PCOD9373464
_publ_section_title
;
Structure prediction by ZEFSAII (Michael W. Deem and Ramdas Pophale) SiO2 
 PCOD9373464
Probable space group: I M M 2
;
_chemical_formula_sum "Si O2"
_cell_formula_units_Z 64
_cell_length_a 7.528556
_cell_length_b 30.223583
_cell_length_c 12.902804
_cell_angle_alpha 90.000000
_cell_angle_beta 90.000000
_cell_angle_gamma 90.000000
_cell_volume 2935.903211
_symmetry_space_group_name_H-M "I M M 2"
_symmetry_group_IT_number 44
_symmetry_cell_setting 'orthorhombic'
loop_
_space_group_symop_operation_xyz
x,y,z
-x,-y,z
-x,y,z
x,-y,z
1/2+x,1/2+y,1/2+z
1/2-x,1/2-y,1/2+z
1/2-x,1/2+y,1/2+z
1/2+x,1/2-y,1/2+z
loop_
_atom_site_type_symbol
_atom_site_label
_atom_site_fract_x
_atom_site_fract_y
_atom_site_fract_z
Si Si1 0.787631 0.168830 0.016400
Si Si2 0.215818 0.200079 0.794652
Si Si3 0.287326 0.449300 0.022254
Si Si4 0.300182 0.926512 0.939036
Si Si5 0.206203 0.104839 0.718551
Si Si6 0.209177 0.703802 0.743569
Si Si7 0.216875 0.452781 0.654115
Si Si8 0.285874 0.113623 0.326758
O O1 0.729168 0.187309 0.126041
O O2 0.000000 0.161716 0.018003
O O3 0.746161 0.199128 0.917353
O O4 0.698055 0.122667 0.987620
O O5 0.281657 0.154123 0.742479
O O6 0.283462 0.246711 0.752212
O O7 0.000000 0.198409 0.784383
O O8 0.500000 0.453176 0.033272
O O9 0.219901 0.500000 0.009085
O O10 0.216772 0.424302 0.125263
O O11 0.255356 0.416435 0.925836
O O12 0.500000 0.942691 0.921255
O O13 0.213560 0.921685 0.827124
O O14 0.217804 0.951889 0.036033
O O15 0.000000 0.111945 0.692260
O O16 0.279695 0.664229 0.817252
O O17 0.000000 0.707828 0.767688
O O18 0.261922 0.500000 0.703235
O O19 0.279515 0.412995 0.725521
O O20 0.000000 0.450069 0.648653
O O21 0.500000 0.115596 0.320074
#
# Coordination Sequence:
#
# PCOD9373464 Si02
#       8
#     8   8   8   8   8   8   8   8
#     4  10  19  33  52  75 107 143 174 216 273 328
#     4   8  17  33  53  76 104 141 179 218 271 329
#     4  10  22  39  57  78 110 151 191 232 278 333
#     4  10  18  32  54  79 104 136 177 220 267 321
#     4   9  19  37  56  76 108 147 181 223 281 329
#     4  10  19  34  55  79 106 141 184 228 274 326
#     4   9  17  30  49  75 105 133 165 212 269 318
#     4  10  20  35  55  78 106 141 182 228 276 324
#
# _framework density 21.799085000000002
#
# number of rings (size 3 to 8) (size 9 to 14) (size 15 to 20)
#    0.000    2.500    1.250    1.875    0.000    3.250 
#    0.000    3.125    0.000    1.875    0.000    0.000 
#    0.000    0.000    0.000    0.000    0.000    0.000 
#
# Total GULP energy -178428.944216 kJ/mol
# GULP energy per Si atom -5575.904507 kJ/mol
# Density = 2.174947 g / cm^3
# Si number density = 21.799085 Si / 1000 Ang^3
#
#
#
# Elastic Constant Matrix: (Units=GPa)
#
#
# Indices 1 2 3 4 5 6 
#
# 1 51.0371 13.3723 -9.8959 0.0000 0.0000 0.0000
# 2 13.3723 114.3220 66.5024 -0.0001 0.0000 0.0000
# 3 -9.8959 66.5024 122.2163 -0.0003 0.0000 0.0000
# 4 0.0000 -0.0001 -0.0003 24.9333 0.0000 0.0000
# 5 0.0000 0.0000 0.0000 0.0000 20.4157 0.0000
# 6 0.0000 0.0000 0.0000 0.0000 0.0000 8.9542
#
#
#
# Elastic Compliance Matrix: (Units=1/GPa)
#
#
# Indices 1 2 3 4 5 6 
#
# 1 0.021866 -0.005249 0.004627 0.000000 0.000000 0.000000
# 2 -0.005249 0.014058 -0.008075 0.000000 0.000000 0.000000
# 3 0.004627 -0.008075 0.012951 0.000000 0.000000 0.000000
# 4 0.000000 0.000000 0.000000 0.040107 0.000000 0.000000
# 5 0.000000 0.000000 0.000000 0.000000 0.048982 0.000000
# 6 0.000000 0.000000 0.000000 0.000000 0.000000 0.111679
#
#
# Mechanical properties :
#
#
# Convention : Reuss Voigt Hill
#
# Bulk Modulus (GPa) = 31.76536 47.50366 39.63451
# Shear Modulus (GPa) = 18.01603 25.36708 21.69156
#
# Velocity S-wave (km/s) = 2.87794 3.41497 3.15789
# Velocity P-wave (km/s) = 5.06427 6.11459 5.61405
#
# Compressibility (1/GPa) = 0.03148083
#
# Stress axis : x y z
#
# Youngs Moduli (GPa) = 45.73307 71.13206 77.21659
#
# Poissons Ratio (x) = 0.37338 -0.35726
# Poissons Ratio (y) = 0.24006 0.62350
# Poissons Ratio (z) = -0.21159 0.57437
#
# Static dielectric constant tensor:
#      x y z
#    x 1.824290 0.000000 0.000000 
#    y 0.000000 1.835990 0.000000 
#    z 0.000000 0.000000 1.770990 
# 
# From -- ./inp_files/11566.got.cif
#   From: 2010.05.17/outbox.cif.g08.bks.cpg/sg44_6_cif.got.tgz:11566.got - 2010.06.03 19:37:08.
