data_PCOD9373607
_publ_section_title
;
Structure prediction by ZEFSAII (Michael W. Deem and Ramdas Pophale) SiO2 
 PCOD9373607
Probable space group: I M M 2
;
_chemical_formula_sum "Si O2"
_cell_formula_units_Z 56
_cell_length_a 7.628754
_cell_length_b 14.039307
_cell_length_c 33.762420
_cell_angle_alpha 90.000000
_cell_angle_beta 90.000000
_cell_angle_gamma 90.000000
_cell_volume 3616.036868
_symmetry_space_group_name_H-M "I M M 2"
_symmetry_group_IT_number 44
_symmetry_cell_setting 'orthorhombic'
loop_
_space_group_symop_operation_xyz
x,y,z
-x,-y,z
-x,y,z
x,-y,z
1/2+x,1/2+y,1/2+z
1/2-x,1/2-y,1/2+z
1/2-x,1/2+y,1/2+z
1/2+x,1/2-y,1/2+z
loop_
_atom_site_type_symbol
_atom_site_label
_atom_site_fract_x
_atom_site_fract_y
_atom_site_fract_z
Si Si1 0.500000 0.615707 0.089888
Si Si2 0.714226 0.200996 0.735303
Si Si3 0.500000 0.615607 0.999630
Si Si4 0.787903 0.393728 0.316949
Si Si5 0.705357 0.803927 0.354160
Si Si6 0.205965 0.614464 0.937718
Si Si7 0.794547 0.614448 0.151582
Si Si8 0.294987 0.394746 0.771628
O O1 0.500000 0.500000 0.088347
O O2 0.671013 0.643192 0.115224
O O3 0.500000 0.650558 0.044757
O O4 0.500000 0.201173 0.735672
O O5 0.767565 0.134643 0.772255
O O6 0.765604 0.162409 0.692583
O O7 0.778006 0.307236 0.745920
O O8 0.500000 0.500000 0.001273
O O9 0.328603 0.642745 0.974339
O O10 0.727748 0.500000 0.327154
O O11 0.729951 0.307763 0.345160
O O12 0.000000 0.393485 0.317304
O O13 0.500000 0.826847 0.353198
O O14 0.768944 0.836374 0.397123
O O15 0.786112 0.860845 0.317275
O O16 0.219827 0.500000 0.932535
O O17 0.000000 0.636484 0.944237
O O18 0.781458 0.500000 0.156468
O O19 0.000000 0.636691 0.144838
O O20 0.500000 0.400742 0.761277
O O21 0.217337 0.500000 0.766961
#
# Coordination Sequence:
#
# PCOD9373607 Si02
#       8
#     4   8   4   8   8   8   8   8
#     4   9  18  30  42  66  91 109 145 183 218 270
#     4   8  14  26  42  60  83 113 148 180 214 257
#     4   9  18  30  46  64  87 117 143 179 226 268
#     4   9  17  29  44  61  84 115 151 187 217 252
#     4  10  19  29  41  60  87 116 147 183 219 259
#     4   9  18  30  44  64  88 116 149 181 216 264
#     4   9  16  27  44  62  85 117 145 177 219 262
#     4   9  17  28  43  61  83 115 152 187 219 255
#
# _framework density 15.486568
#
# number of rings (size 3 to 8) (size 9 to 14) (size 15 to 20)
#    0.000    3.000    0.000    2.143    2.000    3.429 
#    5.143    2.857    0.000    0.000    0.000    0.000 
#    0.000    2.286    0.000    7.143    0.000    0.286 
#
# Total GULP energy -155979.648158 kJ/mol
# GULP energy per Si atom -5570.701720 kJ/mol
# Density = 1.545132 g / cm^3
# Si number density = 15.486568 Si / 1000 Ang^3
#
#
#
# Elastic Constant Matrix: (Units=GPa)
#
#
# Indices 1 2 3 4 5 6 
#
# 1 54.8038 13.9138 42.5050 0.0000 0.0000 0.0000
# 2 13.9138 56.3268 31.7626 0.0000 0.0000 0.0000
# 3 42.5050 31.7626 132.5110 0.0000 0.0000 0.0000
# 4 0.0000 0.0000 0.0000 18.8062 0.0000 0.0000
# 5 0.0000 0.0000 0.0000 0.0000 32.1574 0.0000
# 6 0.0000 0.0000 0.0000 0.0000 0.0000 8.0803
#
#
#
# Elastic Compliance Matrix: (Units=1/GPa)
#
#
# Indices 1 2 3 4 5 6 
#
# 1 0.024459 -0.001871 -0.007397 0.000000 0.000000 0.000000
# 2 -0.001871 0.020671 -0.004355 0.000000 0.000000 0.000000
# 3 -0.007397 -0.004355 0.010963 0.000000 0.000000 0.000000
# 4 0.000000 0.000000 0.000000 0.053174 0.000000 0.000000
# 5 0.000000 0.000000 0.000000 0.000000 0.031097 0.000000
# 6 0.000000 0.000000 0.000000 0.000000 0.000000 0.123757
#
#
# Mechanical properties :
#
#
# Convention : Reuss Voigt Hill
#
# Bulk Modulus (GPa) = 34.66427 46.66716 40.66571
# Shear Modulus (GPa) = 16.61223 22.17282 19.39252
#
# Velocity S-wave (km/s) = 3.27874 3.78795 3.54250
# Velocity P-wave (km/s) = 6.06346 7.02359 6.56111
#
# Compressibility (1/GPa) = 0.02884815
#
# Stress axis : x y z
#
# Youngs Moduli (GPa) = 40.88479 48.37630 91.21458
#
# Poissons Ratio (x) = 0.09049 0.67473
# Poissons Ratio (y) = 0.07648 0.39722
# Poissons Ratio (z) = 0.30243 0.21067
#
# Static dielectric constant tensor:
#      x y z
#    x 1.564400 0.000000 0.000000 
#    y 0.000000 1.517400 0.000000 
#    z 0.000000 0.000000 1.497330 
# 
# From -- ./inp_files/27248.got.cif
#   From: 2010.05.17/outbox.cif.g08.bks.cpg/sg44_14_cif.got.tgz:27248.got - 2010.06.03 19:37:08.
