data_PCOD9373678
_publ_section_title
;
Structure prediction by ZEFSAII (Michael W. Deem and Ramdas Pophale) SiO2 
 PCOD9373678
Probable space group: I M M 2
;
_chemical_formula_sum "Si O2"
_cell_formula_units_Z 56
_cell_length_a 22.385917
_cell_length_b 19.287711
_cell_length_c 7.338935
_cell_angle_alpha 90.000000
_cell_angle_beta 90.000000
_cell_angle_gamma 90.000000
_cell_volume 3168.754698
_symmetry_space_group_name_H-M "I M M 2"
_symmetry_group_IT_number 44
_symmetry_cell_setting 'orthorhombic'
loop_
_space_group_symop_operation_xyz
x,y,z
-x,-y,z
-x,y,z
x,-y,z
1/2+x,1/2+y,1/2+z
1/2-x,1/2-y,1/2+z
1/2-x,1/2+y,1/2+z
1/2+x,1/2-y,1/2+z
loop_
_atom_site_type_symbol
_atom_site_label
_atom_site_fract_x
_atom_site_fract_y
_atom_site_fract_z
Si Si1 0.816509 0.577665 0.722340
Si Si2 0.760318 0.797496 0.204070
Si Si3 0.432912 0.841915 0.291427
Si Si4 0.688384 0.330220 0.104497
Si Si5 0.206918 0.578298 0.160606
Si Si6 0.871537 0.708486 0.160870
Si Si7 0.433086 0.282264 0.002496
O O1 0.809068 0.500000 0.654408
O O2 0.771133 0.632910 0.633074
O O3 0.884189 0.604712 0.713744
O O4 0.803295 0.577300 0.940651
O O5 0.784650 0.815279 0.403872
O O6 0.817518 0.761415 0.111520
O O7 0.708593 0.739535 0.208344
O O8 0.500000 0.870654 0.309523
O O9 0.409674 0.813720 0.486130
O O10 0.434907 0.778000 0.152884
O O11 0.617849 0.334694 0.074487
O O12 0.725557 0.393869 0.185919
O O13 0.197079 0.500000 0.225533
O O14 0.162039 0.638340 0.230056
O O15 0.910051 0.745727 0.316831
O O16 0.500000 0.310517 0.979338
#
# Coordination Sequence:
#
# PCOD9373678 Si02
#       7
#     8   8   8   8   8   8   8
#     4   9  16  28  45  67  96 124 154 191 229 279
#     4   9  16  27  46  68  87 118 151 193 242 274
#     4  10  19  31  47  66  91 125 159 190 226 271
#     4   9  16  27  46  66  90 118 149 197 238 273
#     4   8  15  28  48  71  91 118 153 190 240 285
#     4   9  18  31  49  69  91 121 153 196 236 273
#     4  10  19  30  46  68  93 121 157 194 225 272
#
# _framework density 17.672556
#
# number of rings (size 3 to 8) (size 9 to 14) (size 15 to 20)
#    0.000    2.857    1.429    1.286    0.000    0.286 
#    0.000    0.714    0.000    2.571    0.000    0.000 
#    0.000    2.857    0.000    0.286    0.000    0.286 
#
# Total GULP energy -155944.919037 kJ/mol
# GULP energy per Si atom -5569.461394 kJ/mol
# Density = 1.763233 g / cm^3
# Si number density = 17.672556 Si / 1000 Ang^3
#
#
#
# Elastic Constant Matrix: (Units=GPa)
#
#
# Indices 1 2 3 4 5 6 
#
# 1 145.5978 38.7323 17.0020 0.0000 0.0000 0.0000
# 2 38.7323 68.6384 -0.5639 0.0000 0.0000 0.0000
# 3 17.0020 -0.5639 44.6214 0.0000 0.0000 0.0000
# 4 0.0000 0.0000 0.0000 8.9182 0.0000 0.0000
# 5 0.0000 0.0000 0.0000 0.0000 18.6018 0.0000
# 6 0.0000 0.0000 0.0000 0.0000 0.0000 17.2045
#
#
#
# Elastic Compliance Matrix: (Units=1/GPa)
#
#
# Indices 1 2 3 4 5 6 
#
# 1 0.008546 -0.004850 -0.003317 0.000000 0.000000 0.000000
# 2 -0.004850 0.017323 0.002067 0.000000 0.000000 0.000000
# 3 -0.003317 0.002067 0.023701 0.000000 0.000000 0.000000
# 4 0.000000 0.000000 0.000000 0.112130 0.000000 0.000000
# 5 0.000000 0.000000 0.000000 0.000000 0.053758 0.000000
# 6 0.000000 0.000000 0.000000 0.000000 0.000000 0.058124
#
#
# Mechanical properties :
#
#
# Convention : Reuss Voigt Hill
#
# Bulk Modulus (GPa) = 26.76031 41.02202 33.89117
# Shear Modulus (GPa) = 16.76511 22.52405 19.64458
#
# Velocity S-wave (km/s) = 3.08336 3.57392 3.33766
# Velocity P-wave (km/s) = 5.27744 6.34769 5.83714
#
# Compressibility (1/GPa) = 0.03736877
#
# Stress axis : x y z
#
# Youngs Moduli (GPa) = 117.01766 57.72783 42.19246
#
# Poissons Ratio (x) = 0.27995 0.13997
# Poissons Ratio (y) = 0.56748 -0.08720
# Poissons Ratio (z) = 0.38820 -0.11931
#
# Static dielectric constant tensor:
#      x y z
#    x 1.639560 0.000000 0.000000 
#    y 0.000000 1.600730 0.000000 
#    z 0.000000 0.000000 1.665970 
# 
# From -- ./inp_files/8389.got.cif
#   From: 2010.05.17/outbox.cif.g08.bks.cpg/sg44_5_cif.got.tgz:8389.got - 2010.06.03 19:37:08.
