data_PCOD9373339
_publ_section_title
;
Structure prediction by ZEFSAII (Michael W. Deem and Ramdas Pophale) SiO2 
 PCOD9373339
Probable space group: I M M 2
;
_chemical_formula_sum "Si O2"
_cell_formula_units_Z 64
_cell_length_a 8.842163
_cell_length_b 23.979085
_cell_length_c 19.651618
_cell_angle_alpha 90.000000
_cell_angle_beta 90.000000
_cell_angle_gamma 90.000000
_cell_volume 4166.673181
_symmetry_space_group_name_H-M "I M M 2"
_symmetry_group_IT_number 44
_symmetry_cell_setting 'orthorhombic'
loop_
_space_group_symop_operation_xyz
x,y,z
-x,-y,z
-x,y,z
x,-y,z
1/2+x,1/2+y,1/2+z
1/2-x,1/2-y,1/2+z
1/2-x,1/2+y,1/2+z
1/2+x,1/2-y,1/2+z
loop_
_atom_site_type_symbol
_atom_site_label
_atom_site_fract_x
_atom_site_fract_y
_atom_site_fract_z
Si Si1 0.182526 0.563838 0.198040
Si Si2 0.317700 0.232344 0.208319
Si Si3 0.318801 0.835127 0.790855
Si Si4 0.817653 0.882387 0.562356
Si Si5 0.819299 0.774671 0.915021
Si Si6 0.682360 0.563747 0.918630
Si Si7 0.681715 0.251457 0.056091
Si Si8 0.681142 0.161675 0.334887
O O1 0.231802 0.500000 0.207601
O O2 0.226227 0.605486 0.259076
O O3 0.247191 0.588567 0.128044
O O4 0.000000 0.564619 0.193899
O O5 0.500000 0.240245 0.212457
O O6 0.241647 0.287465 0.239515
O O7 0.277643 0.225970 0.129454
O O8 0.278400 0.181622 0.258730
O O9 0.500000 0.832033 0.794341
O O10 0.250092 0.820112 0.864044
O O11 0.770737 0.913015 0.492792
O O12 0.776071 0.817102 0.558537
O O13 0.000000 0.885362 0.567656
O O14 0.775781 0.714059 0.883305
O O15 0.000000 0.778285 0.913087
O O16 0.758884 0.776589 0.991416
O O17 0.500000 0.564707 0.917304
O O18 0.732747 0.500000 0.909657
O O19 0.743099 0.606055 0.862218
O O20 0.500000 0.248552 0.048018
O O21 0.500000 0.155696 0.338457
#
# Coordination Sequence:
#
# PCOD9373339 Si02
#       8
#     8   8   8   8   8   8   8   8
#     4  10  21  34  47  67  96 129 165 202 236 275
#     4   9  18  32  48  69  96 122 152 195 239 280
#     4  10  19  31  48  68  92 125 162 198 238 281
#     4  10  19  31  47  67  95 129 164 195 227 275
#     4  10  20  32  48  69  96 123 155 197 239 283
#     4  10  20  32  45  64  92 125 161 196 226 263
#     4  10  18  30  50  72  96 126 156 189 235 286
#     4   9  18  31  46  65  90 121 154 191 232 272
#
# _framework density 15.359976
#
# number of rings (size 3 to 8) (size 9 to 14) (size 15 to 20)
#    0.000    2.250    2.500    1.875    0.000    5.000 
#    0.000    0.000    0.000    0.000    0.000    0.875 
#    0.000    3.000    0.000    0.000    0.000    0.000 
#
# Total GULP energy -178471.982026 kJ/mol
# GULP energy per Si atom -5577.249438 kJ/mol
# Density = 1.532502 g / cm^3
# Si number density = 15.359976 Si / 1000 Ang^3
#
#
#
# Elastic Constant Matrix: (Units=GPa)
#
#
# Indices 1 2 3 4 5 6 
#
# 1 16.1981 26.3288 38.3226 0.0000 0.0000 0.0000
# 2 26.3288 99.5502 75.7809 0.0000 0.0000 0.0000
# 3 38.3226 75.7809 152.2071 0.0000 0.0000 0.0000
# 4 0.0000 0.0000 0.0000 19.8832 0.0000 0.0000
# 5 0.0000 0.0000 0.0000 0.0000 26.8179 0.0000
# 6 0.0000 0.0000 0.0000 0.0000 0.0000 19.1678
#
#
#
# Elastic Compliance Matrix: (Units=1/GPa)
#
#
# Indices 1 2 3 4 5 6 
#
# 1 0.175459 -0.020574 -0.033934 0.000000 0.000000 0.000000
# 2 -0.020574 0.018588 -0.004075 0.000000 0.000000 0.000000
# 3 -0.033934 -0.004075 0.017143 0.000000 0.000000 0.000000
# 4 0.000000 0.000000 0.000000 0.050294 0.000000 0.000000
# 5 0.000000 0.000000 0.000000 0.000000 0.037289 0.000000
# 6 0.000000 0.000000 0.000000 0.000000 0.000000 0.052171
#
#
# Mechanical properties :
#
#
# Convention : Reuss Voigt Hill
#
# Bulk Modulus (GPa) = 10.63541 60.98002 35.80772
# Shear Modulus (GPa) = 10.01105 21.67532 15.84318
#
# Velocity S-wave (km/s) = 2.55573 3.76061 3.21512
# Velocity P-wave (km/s) = 3.95578 7.65787 6.09472
#
# Compressibility (1/GPa) = 0.09402553
#
# Stress axis : x y z
#
# Youngs Moduli (GPa) = 5.69935 53.79739 58.33444
#
# Poissons Ratio (x) = 1.10680 1.97950
# Poissons Ratio (y) = 0.11726 0.23770
# Poissons Ratio (z) = 0.19340 0.21921
#
# Static dielectric constant tensor:
#      x y z
#    x 1.517210 0.000000 0.000000 
#    y 0.000000 1.495870 0.000000 
#    z 0.000000 0.000000 1.507300 
# 
# From -- ./inp_files/20768.got.cif
#   From: 2010.05.17/outbox.cif.g08.bks.cpg/sg44_11_cif.got.tgz:20768.got - 2010.06.03 19:37:08.
