data_PCOD9373473
_publ_section_title
;
Structure prediction by ZEFSAII (Michael W. Deem and Ramdas Pophale) SiO2 
 PCOD9373473
Probable space group: I M M 2
;
_chemical_formula_sum "Si O2"
_cell_formula_units_Z 48
_cell_length_a 8.539324
_cell_length_b 10.591116
_cell_length_c 29.144503
_cell_angle_alpha 90.000000
_cell_angle_beta 90.000000
_cell_angle_gamma 90.000000
_cell_volume 2635.857152
_symmetry_space_group_name_H-M "I M M 2"
_symmetry_group_IT_number 44
_symmetry_cell_setting 'orthorhombic'
loop_
_space_group_symop_operation_xyz
x,y,z
-x,-y,z
-x,y,z
x,-y,z
1/2+x,1/2+y,1/2+z
1/2-x,1/2-y,1/2+z
1/2-x,1/2+y,1/2+z
1/2+x,1/2-y,1/2+z
loop_
_atom_site_type_symbol
_atom_site_label
_atom_site_fract_x
_atom_site_fract_y
_atom_site_fract_z
Si Si1 0.809003 0.754089 0.234120
Si Si2 0.690715 0.646744 0.637917
Si Si3 0.311626 0.349949 0.535166
Si Si4 0.813438 0.000000 0.888989
Si Si5 0.313745 0.000000 0.395508
Si Si6 0.190209 0.500000 0.285491
Si Si7 0.189588 0.000000 0.291978
Si Si8 0.685677 0.753893 0.941528
O O1 0.756438 0.773161 0.181612
O O2 0.759696 0.625080 0.258155
O O3 0.761295 0.875146 0.264187
O O4 0.000000 0.754003 0.233411
O O5 0.500000 0.648380 0.637543
O O6 0.735548 0.500000 0.644856
O O7 0.739358 0.686287 0.586768
O O8 0.500000 0.335671 0.531856
O O9 0.278649 0.500000 0.529588
O O10 0.232606 0.273636 0.494475
O O11 0.751458 0.875021 0.914303
O O12 0.756082 0.000000 0.836667
O O13 0.000000 0.000000 0.891171
O O14 0.253915 0.874522 0.420854
O O15 0.500000 0.000000 0.395288
O O16 0.252491 0.000000 0.343357
O O17 0.000000 0.500000 0.288251
O O18 0.000000 0.000000 0.293710
O O19 0.500000 0.752145 0.936557
#
# Coordination Sequence:
#
# PCOD9373473 Si02
#       8
#     8   8   8   4   4   4   4   8
#     4   9  16  28  49  78 110 142 183 230 275 323
#     4   8  13  25  48  79 109 140 182 229 272 321
#     4   9  17  31  55  84 113 145 187 236 283 333
#     4  12  24  40  61  84 113 153 198 241 287 342
#     4  12  26  42  59  82 117 155 192 235 287 348
#     4  10  20  32  49  78 113 145 182 235 285 328
#     4  10  18  32  55  78 103 143 192 233 271 326
#     4  12  24  40  61  86 116 150 191 239 290 344
#
# _framework density 18.210394000000001
#
# number of rings (size 3 to 8) (size 9 to 14) (size 15 to 20)
#    0.000    2.000    1.667    5.000    0.000    1.333 
#    0.000    0.833    0.000    5.000    0.000    0.000 
#    0.000    0.000    0.000    0.000    0.000    0.000 
#
# Total GULP energy -133996.167546 kJ/mol
# GULP energy per Si atom -5583.173648 kJ/mol
# Density = 1.816895 g / cm^3
# Si number density = 18.210394 Si / 1000 Ang^3
#
#
#
# Elastic Constant Matrix: (Units=GPa)
#
#
# Indices 1 2 3 4 5 6 
#
# 1 53.2382 37.9636 40.2273 0.0000 0.0000 0.0000
# 2 37.9636 152.2622 100.4797 0.0000 0.0000 0.0000
# 3 40.2273 100.4797 195.5407 0.0000 0.0000 0.0000
# 4 0.0000 0.0000 0.0000 -10.4309 0.0000 0.0000
# 5 0.0000 0.0000 0.0000 0.0000 26.5857 0.0000
# 6 0.0000 0.0000 0.0000 0.0000 0.0000 16.3760
#
#
#
# Elastic Compliance Matrix: (Units=1/GPa)
#
#
# Indices 1 2 3 4 5 6 
#
# 1 0.023815 -0.004092 -0.002796 0.000000 0.000000 0.000000
# 2 -0.004092 0.010641 -0.004626 0.000000 0.000000 0.000000
# 3 -0.002796 -0.004626 0.008066 0.000000 0.000000 0.000000
# 4 0.000000 0.000000 0.000000 -0.095869 0.000000 0.000000
# 5 0.000000 0.000000 0.000000 0.000000 0.037614 0.000000
# 6 0.000000 0.000000 0.000000 0.000000 0.000000 0.061065
#
#
# Mechanical properties :
#
#
# Convention : Reuss Voigt Hill
#
# Bulk Modulus (GPa) = 51.30181 84.26469 67.78325
# Shear Modulus (GPa) = 66.79311 21.33087 44.06199
#
# Velocity S-wave (km/s) = 6.06285 3.42622 4.92429
# Velocity P-wave (km/s) = 8.78884 7.87561 8.34473
#
# Compressibility (1/GPa) = 0.01949249
#
# Stress axis : x y z
#
# Youngs Moduli (GPa) = 41.99085 93.97946 123.97233
#
# Poissons Ratio (x) = 0.38460 0.34667
# Poissons Ratio (y) = 0.17184 0.57348
# Poissons Ratio (z) = 0.11742 0.43473
#
# Static dielectric constant tensor:
#      x y z
#    x 1.624950 0.000000 0.000000 
#    y 0.000000 1.592900 0.000000 
#    z 0.000000 0.000000 1.625460 
# 
# From -- ./inp_files/27004.got.cif
#   From: 2010.05.17/outbox.cif.g08.bks.cpg/sg44_14_cif.got.tgz:27004.got - 2010.06.03 19:37:08.
