data_PCOD9373880
_publ_section_title
;
Structure prediction by ZEFSAII (Michael W. Deem and Ramdas Pophale) SiO2 
 PCOD9373880
Probable space group: I M M 2
;
_chemical_formula_sum "Si O2"
_cell_formula_units_Z 48
_cell_length_a 29.112343
_cell_length_b 10.761162
_cell_length_c 8.433889
_cell_angle_alpha 90.000000
_cell_angle_beta 90.000000
_cell_angle_gamma 90.000000
_cell_volume 2642.191005
_symmetry_space_group_name_H-M "I M M 2"
_symmetry_group_IT_number 44
_symmetry_cell_setting 'orthorhombic'
loop_
_space_group_symop_operation_xyz
x,y,z
-x,-y,z
-x,y,z
x,-y,z
1/2+x,1/2+y,1/2+z
1/2-x,1/2-y,1/2+z
1/2-x,1/2+y,1/2+z
1/2+x,1/2-y,1/2+z
loop_
_atom_site_type_symbol
_atom_site_label
_atom_site_fract_x
_atom_site_fract_y
_atom_site_fract_z
Si Si1 0.643194 0.359661 0.644430
Si Si2 0.809664 0.280711 0.711704
Si Si3 0.379991 0.358543 0.011215
Si Si4 0.239535 0.863109 0.965302
Si Si5 0.054187 0.357392 0.627445
Si Si6 0.609927 0.137346 0.434555
O O1 0.626864 0.500000 0.602888
O O2 0.639318 0.346903 0.833112
O O3 0.695445 0.351970 0.581485
O O4 0.615740 0.250476 0.555784
O O5 0.839811 0.168876 0.638339
O O6 0.785564 0.346832 0.565115
O O7 0.845590 0.356654 0.817930
O O8 0.769659 0.234395 0.827521
O O9 0.397215 0.500000 0.031561
O O10 0.417357 0.250504 0.040279
O O11 0.238708 0.000000 0.893518
O O12 0.067209 0.500000 0.581036
O O13 0.067691 0.346604 0.813372
O O14 0.000000 0.343212 0.603929
O O15 0.607836 0.000000 0.508617
#
# Coordination Sequence:
#
# PCOD9373880 Si02
#       6
#     8   8   8   8   8   8
#     4   9  19  34  51  73 103 137 171 211 253 295
#     4  10  19  32  49  73 101 134 171 214 255 297
#     4  10  20  35  54  76 104 136 170 208 253 302
#     4  10  19  32  49  70  99 135 175 213 252 297
#     4   9  19  36  57  80 104 130 163 205 252 304
#     4   9  18  33  53  75 100 131 167 207 254 306
#
# _framework density 18.166740999999998
#
# number of rings (size 3 to 8) (size 9 to 14) (size 15 to 20)
#    0.000    2.500    0.000    2.000    0.000    5.667 
#    0.000   11.667    0.000    3.000    0.000    0.000 
#    0.000    0.000    0.000    0.000    0.000    0.000 
#
# Total GULP energy -133717.368125 kJ/mol
# GULP energy per Si atom -5571.557005 kJ/mol
# Density = 1.812539 g / cm^3
# Si number density = 18.166741 Si / 1000 Ang^3
#
#
#
# Elastic Constant Matrix: (Units=GPa)
#
#
# Indices 1 2 3 4 5 6 
#
# 1 23.1490 14.2374 -1.1946 0.0000 0.0000 0.0000
# 2 14.2374 116.6494 34.2352 0.0000 0.0000 0.0000
# 3 -1.1946 34.2352 47.5119 0.0000 0.0000 0.0000
# 4 0.0000 0.0000 0.0000 26.4766 0.0000 0.0000
# 5 0.0000 0.0000 0.0000 0.0000 18.6493 0.0000
# 6 0.0000 0.0000 0.0000 0.0000 0.0000 21.0640
#
#
#
# Elastic Compliance Matrix: (Units=1/GPa)
#
#
# Indices 1 2 3 4 5 6 
#
# 1 0.048448 -0.007953 0.006948 0.000000 0.000000 0.000000
# 2 -0.007953 0.012177 -0.008974 0.000000 0.000000 0.000000
# 3 0.006948 -0.008974 0.027689 0.000000 0.000000 0.000000
# 4 0.000000 0.000000 0.000000 0.037769 0.000000 0.000000
# 5 0.000000 0.000000 0.000000 0.000000 0.053621 0.000000
# 6 0.000000 0.000000 0.000000 0.000000 0.000000 0.047474
#
#
# Mechanical properties :
#
#
# Convention : Reuss Voigt Hill
#
# Bulk Modulus (GPa) = 14.62905 31.31845 22.97375
# Shear Modulus (GPa) = 18.52391 22.57346 20.54868
#
# Velocity S-wave (km/s) = 3.19668 3.52884 3.36685
# Velocity P-wave (km/s) = 4.65780 5.82069 5.27141
#
# Compressibility (1/GPa) = 0.06835713
#
# Stress axis : x y z
#
# Youngs Moduli (GPa) = 20.64064 82.12070 36.11585
#
# Poissons Ratio (x) = 0.65307 -0.25095
# Poissons Ratio (y) = 0.16415 0.32412
# Poissons Ratio (z) = -0.14342 0.73698
#
# Static dielectric constant tensor:
#      x y z
#    x 1.610520 0.000000 0.000000 
#    y 0.000000 1.641670 0.000000 
#    z 0.000000 0.000000 1.605960 
# 
# From -- ./inp_files/4923.got.cif
#   From: 2010.05.17/outbox.cif.g08.bks.cpg/sg44_3_cif.got.tgz:4923.got - 2010.06.03 19:37:08.
