data_PCOD9373973
_publ_section_title
;
Structure prediction by ZEFSAII (Michael W. Deem and Ramdas Pophale) SiO2 
 PCOD9373973
Probable space group: I M M 2
;
_chemical_formula_sum "Si O2"
_cell_formula_units_Z 64
_cell_length_a 9.308858
_cell_length_b 16.076354
_cell_length_c 23.133738
_cell_angle_alpha 90.000000
_cell_angle_beta 90.000000
_cell_angle_gamma 90.000000
_cell_volume 3462.021646
_symmetry_space_group_name_H-M "I M M 2"
_symmetry_group_IT_number 44
_symmetry_cell_setting 'orthorhombic'
loop_
_space_group_symop_operation_xyz
x,y,z
-x,-y,z
-x,y,z
x,-y,z
1/2+x,1/2+y,1/2+z
1/2-x,1/2-y,1/2+z
1/2-x,1/2+y,1/2+z
1/2+x,1/2-y,1/2+z
loop_
_atom_site_type_symbol
_atom_site_label
_atom_site_fract_x
_atom_site_fract_y
_atom_site_fract_z
Si Si1 0.169891 0.190341 0.510010
Si Si2 0.168809 0.092698 0.096954
Si Si3 0.671051 0.094924 0.850844
Si Si4 0.172107 0.096825 0.307237
Si Si5 0.160044 0.597859 0.922649
Si Si6 0.328166 0.770991 0.751954
Si Si7 0.330544 0.745579 0.138342
Si Si8 0.170410 0.854389 0.966675
O O1 0.249796 0.115017 0.479821
O O2 0.192801 0.196307 0.578471
O O3 0.245883 0.269074 0.479729
O O4 0.000000 0.191047 0.498744
O O5 0.263803 0.163720 0.125372
O O6 0.000000 0.109372 0.108808
O O7 0.203046 0.000000 0.117611
O O8 0.186908 0.096408 0.027308
O O9 0.500000 0.104414 0.862776
O O10 0.710598 0.166450 0.804400
O O11 0.758561 0.105881 0.910223
O O12 0.693132 0.000000 0.829186
O O13 0.249488 0.123233 0.366588
O O14 0.205942 0.173463 0.264745
O O15 0.000000 0.096959 0.315474
O O16 0.211175 0.000000 0.291992
O O17 0.145055 0.500000 0.916280
O O18 0.000000 0.635390 0.924448
O O19 0.500000 0.776928 0.744669
O O20 0.248002 0.793387 0.693097
O O21 0.500000 0.752016 0.148512
O O22 0.000000 0.842571 0.957946
#
# Coordination Sequence:
#
# PCOD9373973 Si02
#       8
#     8   8   8   8   8   8   8   8
#     4  10  20  35  54  76 105 141 177 213 262 323
#     4   9  18  33  53  78 109 142 172 204 250 313
#     4  10  21  36  54  78 108 143 182 221 265 321
#     4   9  18  33  54  80 109 142 178 214 259 320
#     4  10  20  33  52  81 111 136 169 216 267 317
#     4  10  21  37  55  74 102 142 183 222 265 314
#     4  10  22  37  53  75 101 133 177 224 266 310
#     4  10  19  32  54  83 111 138 171 214 264 315
#
# _framework density 18.486308000000001
#
# number of rings (size 3 to 8) (size 9 to 14) (size 15 to 20)
#    0.000    2.250    0.000    2.625    0.000    6.250 
#    0.000    1.875    0.000    2.250    0.000    0.000 
#    0.000    0.000    0.000    0.000    0.000    0.000 
#
# Total GULP energy -178437.975582 kJ/mol
# GULP energy per Si atom -5576.186737 kJ/mol
# Density = 1.844423 g / cm^3
# Si number density = 18.486308 Si / 1000 Ang^3
#
#
#
# Elastic Constant Matrix: (Units=GPa)
#
#
# Indices 1 2 3 4 5 6 
#
# 1 41.1386 15.6866 42.8585 0.0000 0.0000 0.0000
# 2 15.6866 36.6798 25.9981 0.0000 0.0000 0.0000
# 3 42.8585 25.9981 79.1150 0.0000 0.0000 0.0000
# 4 0.0000 0.0000 0.0000 7.9256 0.0000 0.0000
# 5 0.0000 0.0000 0.0000 0.0000 32.2043 0.0000
# 6 0.0000 0.0000 0.0000 0.0000 0.0000 19.8012
#
#
#
# Elastic Compliance Matrix: (Units=1/GPa)
#
#
# Indices 1 2 3 4 5 6 
#
# 1 0.056086 -0.003195 -0.029333 0.000000 0.000000 0.000000
# 2 -0.003195 0.035723 -0.010008 0.000000 0.000000 0.000000
# 3 -0.029333 -0.010008 0.031819 0.000000 0.000000 0.000000
# 4 0.000000 0.000000 0.000000 0.126174 0.000000 0.000000
# 5 0.000000 0.000000 0.000000 0.000000 0.031052 0.000000
# 6 0.000000 0.000000 0.000000 0.000000 0.000000 0.050502
#
#
# Mechanical properties :
#
#
# Convention : Reuss Voigt Hill
#
# Bulk Modulus (GPa) = 25.93676 36.22443 31.08060
# Shear Modulus (GPa) = 11.64740 16.81221 14.22980
#
# Velocity S-wave (km/s) = 2.51281 3.01897 2.77744
# Velocity P-wave (km/s) = 4.74128 5.63826 5.20911
#
# Compressibility (1/GPa) = 0.03855531
#
# Stress axis : x y z
#
# Youngs Moduli (GPa) = 17.82981 27.99314 31.42772
#
# Poissons Ratio (x) = 0.08944 0.92187
# Poissons Ratio (y) = 0.05697 0.31453
# Poissons Ratio (z) = 0.52300 0.28016
#
# Static dielectric constant tensor:
#      x y z
#    x 1.629890 0.000000 0.000000 
#    y 0.000000 1.676210 0.000000 
#    z 0.000000 0.000000 1.627680 
# 
# From -- ./inp_files/23309.got.cif
#   From: 2010.05.17/outbox.cif.g08.bks.cpg/sg44_12_cif.got.tgz:23309.got - 2010.06.03 19:37:08.
