data_PCOD9373124
_publ_section_title
;
Structure prediction by ZEFSAII (Michael W. Deem and Ramdas Pophale) SiO2 
 PCOD9373124
Probable space group: I M M 2
;
_chemical_formula_sum "Si O2"
_cell_formula_units_Z 58
_cell_length_a 27.425967
_cell_length_b 12.655238
_cell_length_c 6.597525
_cell_angle_alpha 90.000000
_cell_angle_beta 90.000000
_cell_angle_gamma 90.000000
_cell_volume 2289.883094
_symmetry_space_group_name_H-M "I M M 2"
_symmetry_group_IT_number 44
_symmetry_cell_setting 'orthorhombic'
loop_
_space_group_symop_operation_xyz
x,y,z
-x,-y,z
-x,y,z
x,-y,z
1/2+x,1/2+y,1/2+z
1/2-x,1/2-y,1/2+z
1/2-x,1/2+y,1/2+z
1/2+x,1/2-y,1/2+z
loop_
_atom_site_type_symbol
_atom_site_label
_atom_site_fract_x
_atom_site_fract_y
_atom_site_fract_z
Si Si1 0.123080 0.122862 0.075400
Si Si2 0.444020 0.878559 0.257486
Si Si3 0.709458 0.617016 0.960837
Si Si4 0.727795 0.324679 0.416256
Si Si5 0.088921 0.656990 0.200176
Si Si6 0.000000 0.500000 0.302739
Si Si7 0.669548 0.889465 0.038360
Si Si8 0.881039 0.198482 0.637593
O O1 0.090257 0.215005 0.177597
O O2 0.117949 0.000000 0.132976
O O3 0.180421 0.160858 0.059945
O O4 0.109126 0.129351 0.833301
O O5 0.500000 0.858083 0.315520
O O6 0.412521 0.876636 0.463067
O O7 0.426262 0.780689 0.116840
O O8 0.445294 0.000000 0.177371
O O9 0.719879 0.500000 0.883902
O O10 0.716771 0.620548 0.203437
O O11 0.650194 0.639330 0.962649
O O12 0.746991 0.708532 0.893395
O O13 0.774358 0.387412 0.494943
O O14 0.042797 0.592916 0.284500
O O15 0.137115 0.626943 0.332976
O O16 0.654863 0.000000 0.130584
O O17 0.658272 0.791818 0.182952
#
# Coordination Sequence:
#
# PCOD9373124 Si02
#       8
#     8   8   8   8   8   2   8   8
#     4  10  21  40  61  88 121 168 213 263 308 376
#     4  10  17  33  54  80 110 148 195 258 312 364
#     4  10  20  38  56  79 117 157 198 251 301 364
#     4  10  20  36  58  85 121 163 212 252 310 376
#     4  11  21  37  64  89 127 166 210 259 337 364
#     4  12  20  44  62  98 132 164 204 296 312 386
#     4  11  20  34  53  89 127 166 203 256 318 388
#     4   9  20  33  53  78 118 155 198 239 304 367
#
# _framework density 25.328804999999999
#
# number of rings (size 3 to 8) (size 9 to 14) (size 15 to 20)
#    0.000    1.793    2.069    3.724    0.000    0.000 
#    2.483   15.517    0.000    1.241    0.000    0.000 
#    0.000    0.000    0.000    0.000    0.000    0.000 
#
# Total GULP energy -161451.351447 kJ/mol
# GULP energy per Si atom -5567.287981 kJ/mol
# Density = 2.527116 g / cm^3
# Si number density = 25.328805 Si / 1000 Ang^3
#
#
#
# Elastic Constant Matrix: (Units=GPa)
#
#
# Indices 1 2 3 4 5 6 
#
# 1 123.8341 50.6547 45.6820 0.0000 0.0000 0.0000
# 2 50.6547 263.5061 39.1872 0.0000 0.0000 0.0000
# 3 45.6820 39.1872 77.3084 0.0000 0.0000 0.0000
# 4 0.0000 0.0000 0.0000 27.4684 0.0000 0.0000
# 5 0.0000 0.0000 0.0000 0.0000 -27.1012 0.0000
# 6 0.0000 0.0000 0.0000 0.0000 0.0000 49.1674
#
#
#
# Elastic Compliance Matrix: (Units=1/GPa)
#
#
# Indices 1 2 3 4 5 6 
#
# 1 0.010668 -0.001204 -0.005694 0.000000 0.000000 0.000000
# 2 -0.001204 0.004240 -0.001438 0.000000 0.000000 0.000000
# 3 -0.005694 -0.001438 0.017028 0.000000 0.000000 0.000000
# 4 0.000000 0.000000 0.000000 0.036405 0.000000 0.000000
# 5 0.000000 0.000000 0.000000 0.000000 -0.036899 0.000000
# 6 0.000000 0.000000 0.000000 0.000000 0.000000 0.020339
#
#
# Mechanical properties :
#
#
# Convention : Reuss Voigt Hill
#
# Bulk Modulus (GPa) = 65.50562 81.74403 73.62482
# Shear Modulus (GPa) = 67.98844 31.84856 49.91850
#
# Velocity S-wave (km/s) = 5.18658 3.54984 4.44421
# Velocity P-wave (km/s) = 7.86039 7.01035 7.44751
#
# Compressibility (1/GPa) = 0.01526587
#
# Stress axis : x y z
#
# Youngs Moduli (GPa) = 93.73670 235.83373 58.72536
#
# Poissons Ratio (x) = 0.28396 0.33436
# Poissons Ratio (y) = 0.11287 0.08444
# Poissons Ratio (z) = 0.53369 0.33910
#
# Static dielectric constant tensor:
#      x y z
#    x 2.058830 0.000000 0.000000 
#    y 0.000000 1.988210 0.000000 
#    z 0.000000 0.000000 2.185810 
# 
# From -- ./inp_files/9751.got.cif
#   From: 2010.05.17/outbox.cif.g08.bks.cpg/sg44_5_cif.got.tgz:9751.got - 2010.06.03 19:37:08.
