data_PCOD9373070
_publ_section_title
;
Structure prediction by ZEFSAII (Michael W. Deem and Ramdas Pophale) SiO2 
 PCOD9373070
Probable space group: I M M 2
;
_chemical_formula_sum "Si O2"
_cell_formula_units_Z 64
_cell_length_a 19.339083
_cell_length_b 7.606945
_cell_length_c 22.350297
_cell_angle_alpha 90.000000
_cell_angle_beta 90.000000
_cell_angle_gamma 90.000000
_cell_volume 3287.982157
_symmetry_space_group_name_H-M "I M M 2"
_symmetry_group_IT_number 44
_symmetry_cell_setting 'orthorhombic'
loop_
_space_group_symop_operation_xyz
x,y,z
-x,-y,z
-x,y,z
x,-y,z
1/2+x,1/2+y,1/2+z
1/2-x,1/2-y,1/2+z
1/2-x,1/2+y,1/2+z
1/2+x,1/2-y,1/2+z
loop_
_atom_site_type_symbol
_atom_site_label
_atom_site_fract_x
_atom_site_fract_y
_atom_site_fract_z
Si Si1 0.123879 0.203435 0.150910
Si Si2 0.721066 0.783580 0.823467
Si Si3 0.228360 0.792536 0.693711
Si Si4 0.921611 0.215844 0.020092
Si Si5 0.575144 0.203980 0.780074
Si Si6 0.922897 0.289894 0.828157
Si Si7 0.815141 0.197058 0.923095
Si Si8 0.575517 0.211280 0.189201
O O1 0.207063 0.215765 0.157160
O O2 0.096535 0.270292 0.087625
O O3 0.091666 0.291672 0.209338
O O4 0.103521 0.000000 0.154661
O O5 0.763450 0.729172 0.763234
O O6 0.643045 0.721887 0.811838
O O7 0.751266 0.720685 0.886852
O O8 0.722986 0.000000 0.824820
O O9 0.151947 0.761932 0.667166
O O10 0.240235 0.000000 0.695637
O O11 0.000000 0.270192 0.004422
O O12 0.920573 0.000000 0.017380
O O13 0.860663 0.279152 0.975988
O O14 0.500000 0.284146 0.791403
O O15 0.572221 0.000000 0.797981
O O16 0.909268 0.500000 0.830527
O O17 0.869439 0.189853 0.868521
O O18 0.922426 0.235063 0.759047
O O19 0.000000 0.259983 0.851494
O O20 0.795098 0.000000 0.942628
O O21 0.500000 0.272980 0.165084
O O22 0.573397 0.000000 0.187289
#
# Coordination Sequence:
#
# PCOD9373070 Si02
#       8
#     8   8   8   8   8   8   8   8
#     4  10  19  31  47  65  88 120 157 197 238 276
#     4   8  15  26  41  64  88 111 144 184 227 274
#     4  10  18  30  46  67  92 118 155 196 233 279
#     4   9  18  30  44  65  91 120 159 200 230 265
#     4   9  17  30  47  67  92 118 144 184 238 288
#     4   9  17  27  38  57  88 121 150 180 214 257
#     4  10  17  28  45  63  86 119 156 191 225 265
#     4   9  17  28  42  63  93 125 153 183 225 275
#
# _framework density 19.464827
#
# number of rings (size 3 to 8) (size 9 to 14) (size 15 to 20)
#    0.000    2.750    1.250    3.000    0.000    1.750 
#    0.000    2.500    0.000    3.000    0.000    0.875 
#    0.000    5.000    0.000    0.000    0.000    0.375 
#
# Total GULP energy -178242.925748 kJ/mol
# GULP energy per Si atom -5570.091430 kJ/mol
# Density = 1.942052 g / cm^3
# Si number density = 19.464827 Si / 1000 Ang^3
#
#
#
# Elastic Constant Matrix: (Units=GPa)
#
#
# Indices 1 2 3 4 5 6 
#
# 1 145.5867 -0.4776 39.0974 0.0000 0.0000 0.0000
# 2 -0.4776 39.0242 -2.2028 0.0000 0.0000 0.0000
# 3 39.0974 -2.2028 65.3187 0.0000 0.0000 0.0000
# 4 0.0000 0.0000 0.0000 9.1251 0.0000 0.0000
# 5 0.0000 0.0000 0.0000 0.0000 23.9308 0.0000
# 6 0.0000 0.0000 0.0000 0.0000 0.0000 3.3453
#
#
#
# Elastic Compliance Matrix: (Units=1/GPa)
#
#
# Indices 1 2 3 4 5 6 
#
# 1 0.008186 -0.000177 -0.004906 0.000000 0.000000 0.000000
# 2 -0.000177 0.025678 0.000972 0.000000 0.000000 0.000000
# 3 -0.004906 0.000972 0.018279 0.000000 0.000000 0.000000
# 4 0.000000 0.000000 0.000000 0.109588 0.000000 0.000000
# 5 0.000000 0.000000 0.000000 0.000000 0.041787 0.000000
# 6 0.000000 0.000000 0.000000 0.000000 0.000000 0.298926
#
#
# Mechanical properties :
#
#
# Convention : Reuss Voigt Hill
#
# Bulk Modulus (GPa) = 22.76817 35.86261 29.31539
# Shear Modulus (GPa) = 9.51830 21.51440 15.51635
#
# Velocity S-wave (km/s) = 2.21373 3.32821 2.82644
# Velocity P-wave (km/s) = 4.27278 5.76486 5.07396
#
# Compressibility (1/GPa) = 0.04392097
#
# Stress axis : x y z
#
# Youngs Moduli (GPa) = 122.16626 38.94407 54.70877
#
# Poissons Ratio (x) = 0.00688 0.26838
# Poissons Ratio (y) = 0.02159 -0.05316
# Poissons Ratio (z) = 0.59929 -0.03784
#
# Static dielectric constant tensor:
#      x y z
#    x 1.772510 0.000000 0.000000 
#    y 0.000000 1.834620 0.000000 
#    z 0.000000 0.000000 1.666090 
# 
# From -- ./inp_files/24461.got.cif
#   From: 2010.05.17/outbox.cif.g08.bks.cpg/sg44_13_cif.got.tgz:24461.got - 2010.06.03 19:37:08.
