data_PCOD9373307
_publ_section_title
;
Structure prediction by ZEFSAII (Michael W. Deem and Ramdas Pophale) SiO2 
 PCOD9373307
Probable space group: I M M 2
;
_chemical_formula_sum "Si O2"
_cell_formula_units_Z 64
_cell_length_a 18.012005
_cell_length_b 8.727618
_cell_length_c 21.389075
_cell_angle_alpha 90.000000
_cell_angle_beta 90.000000
_cell_angle_gamma 90.000000
_cell_volume 3362.403209
_symmetry_space_group_name_H-M "I M M 2"
_symmetry_group_IT_number 44
_symmetry_cell_setting 'orthorhombic'
loop_
_space_group_symop_operation_xyz
x,y,z
-x,-y,z
-x,y,z
x,-y,z
1/2+x,1/2+y,1/2+z
1/2-x,1/2-y,1/2+z
1/2-x,1/2+y,1/2+z
1/2+x,1/2-y,1/2+z
loop_
_atom_site_type_symbol
_atom_site_label
_atom_site_fract_x
_atom_site_fract_y
_atom_site_fract_z
Si Si1 0.293830 0.185035 0.273340
Si Si2 0.303421 0.183165 0.136859
Si Si3 0.127312 0.681470 0.273611
Si Si4 0.630008 0.315217 0.903775
Si Si5 0.918754 0.815482 0.540244
Si Si6 0.082662 0.683840 0.013253
Si Si7 0.803602 0.685351 0.909264
Si Si8 0.628962 0.682917 0.643291
O O1 0.330818 0.223375 0.207183
O O2 0.213572 0.264701 0.273744
O O3 0.331277 0.225192 0.339269
O O4 0.281109 0.000000 0.273215
O O5 0.352707 0.256862 0.083432
O O6 0.216365 0.227103 0.135150
O O7 0.306881 0.000000 0.129983
O O8 0.120885 0.500000 0.273007
O O9 0.098481 0.746554 0.339580
O O10 0.098321 0.748446 0.208085
O O11 0.627475 0.500000 0.898100
O O12 0.717017 0.270018 0.912261
O O13 0.590899 0.268682 0.967945
O O14 0.000000 0.764967 0.563070
O O15 0.916316 0.000000 0.540804
O O16 0.091446 0.500000 0.020206
O O17 0.089989 0.757754 0.081180
O O18 0.000000 0.712188 0.987896
O O19 0.145349 0.742743 0.965420
O O20 0.804854 0.500000 0.913412
O O21 0.625402 0.500000 0.647672
#
# Coordination Sequence:
#
# PCOD9373307 Si02
#       8
#     8   8   8   8   8   8   8   8
#     4   8  15  30  50  74 103 132 165 204 249 301
#     4   9  18  32  52  77 102 130 167 213 256 295
#     4  10  18  29  50  79 103 123 158 210 261 301
#     4   9  17  32  52  71  97 133 169 205 248 302
#     4  10  21  35  51  73 102 137 174 209 249 301
#     4  10  20  33  50  75 105 135 171 213 252 292
#     4   8  14  28  51  74  97 129 165 203 248 294
#     4  10  20  35  54  75 101 134 171 207 249 304
#
# _framework density 19.034005000000001
#
# number of rings (size 3 to 8) (size 9 to 14) (size 15 to 20)
#    0.000    2.750    0.000    3.750    0.000    4.500 
#    0.000    5.000    0.000    4.500    0.000    0.000 
#    0.000    0.000    0.000    0.000    0.000    0.000 
#
# Total GULP energy -178356.188096 kJ/mol
# GULP energy per Si atom -5573.630878 kJ/mol
# Density = 1.899068 g / cm^3
# Si number density = 19.034005 Si / 1000 Ang^3
#
#
#
# Elastic Constant Matrix: (Units=GPa)
#
#
# Indices 1 2 3 4 5 6 
#
# 1 45.0671 14.3817 27.8906 0.0000 0.0000 0.0000
# 2 14.3817 23.2247 21.0103 0.0000 0.0000 0.0000
# 3 27.8906 21.0103 106.4790 0.0000 0.0000 0.0000
# 4 0.0000 0.0000 0.0000 29.6637 0.0000 0.0000
# 5 0.0000 0.0000 0.0000 0.0000 -15.3764 0.0000
# 6 0.0000 0.0000 0.0000 0.0000 0.0000 10.3013
#
#
#
# Elastic Compliance Matrix: (Units=1/GPa)
#
#
# Indices 1 2 3 4 5 6 
#
# 1 0.029735 -0.013837 -0.005058 0.000000 0.000000 0.000000
# 2 -0.013837 0.058853 -0.007988 0.000000 0.000000 0.000000
# 3 -0.005058 -0.007988 0.012293 0.000000 0.000000 0.000000
# 4 0.000000 0.000000 0.000000 0.033711 0.000000 0.000000
# 5 0.000000 0.000000 0.000000 0.000000 -0.065035 0.000000
# 6 0.000000 0.000000 0.000000 0.000000 0.000000 0.097075
#
#
# Mechanical properties :
#
#
# Convention : Reuss Voigt Hill
#
# Bulk Modulus (GPa) = 21.22557 33.48177 27.35367
# Shear Modulus (GPa) = 21.17709 12.35028 16.76368
#
# Velocity S-wave (km/s) = 3.33917 2.55002 2.97092
# Velocity P-wave (km/s) = 5.10317 5.12824 5.11572
#
# Compressibility (1/GPa) = 0.04711299
#
# Stress axis : x y z
#
# Youngs Moduli (GPa) = 33.63007 16.99158 81.34892
#
# Poissons Ratio (x) = 0.23512 0.41149
# Poissons Ratio (y) = 0.46535 0.64984
# Poissons Ratio (z) = 0.17011 0.13573
#
# Static dielectric constant tensor:
#      x y z
#    x 1.652700 0.000000 0.000000 
#    y 0.000000 1.639050 0.000000 
#    z 0.000000 0.000000 1.691210 
# 
# From -- ./inp_files/23245.got.cif
#   From: 2010.05.17/outbox.cif.g08.bks.cpg/sg44_12_cif.got.tgz:23245.got - 2010.06.03 19:37:08.
