data_PCOD9373269
_publ_section_title
;
Structure prediction by ZEFSAII (Michael W. Deem and Ramdas Pophale) SiO2 
 PCOD9373269
Probable space group: I M M 2
;
_chemical_formula_sum "Si O2"
_cell_formula_units_Z 56
_cell_length_a 12.906097
_cell_length_b 7.365355
_cell_length_c 28.820821
_cell_angle_alpha 90.000000
_cell_angle_beta 90.000000
_cell_angle_gamma 90.000000
_cell_volume 2739.649201
_symmetry_space_group_name_H-M "I M M 2"
_symmetry_group_IT_number 44
_symmetry_cell_setting 'orthorhombic'
loop_
_space_group_symop_operation_xyz
x,y,z
-x,-y,z
-x,y,z
x,-y,z
1/2+x,1/2+y,1/2+z
1/2-x,1/2-y,1/2+z
1/2-x,1/2+y,1/2+z
1/2+x,1/2-y,1/2+z
loop_
_atom_site_type_symbol
_atom_site_label
_atom_site_fract_x
_atom_site_fract_y
_atom_site_fract_z
Si Si1 0.724198 0.722061 0.039870
Si Si2 0.123948 0.706146 0.856437
Si Si3 0.000000 0.213416 0.569786
Si Si4 0.886992 0.720486 0.114538
Si Si5 0.613089 0.219437 0.721625
Si Si6 0.120312 0.722227 0.958292
Si Si7 0.000000 0.281192 0.680241
Si Si8 0.336145 0.208656 0.255904
O O1 0.722191 0.500000 0.039313
O O2 0.606673 0.785638 0.047568
O O3 0.791409 0.780875 0.084225
O O4 0.793787 0.777067 0.995795
O O5 0.167482 0.500000 0.855309
O O6 0.152355 0.784616 0.906575
O O7 0.146666 0.793186 0.806614
O O8 0.000000 0.694359 0.858838
O O9 0.000000 0.225663 0.626257
O O10 0.000000 0.000000 0.559362
O O11 0.886222 0.500000 0.114035
O O12 0.880043 0.775971 0.167858
O O13 0.000000 0.775860 0.095884
O O14 0.500000 0.276068 0.739633
O O15 0.714790 0.287174 0.746419
O O16 0.615942 0.000000 0.722672
O O17 0.118356 0.500000 0.957719
O O18 0.000000 0.776240 0.968175
O O19 0.901183 0.219995 0.711642
O O20 0.000000 0.500000 0.677712
O O21 0.372574 0.000000 0.260246
#
# Coordination Sequence:
#
# PCOD9373269 Si02
#       8
#     8   8   4   8   8   8   4   8
#     4   9  15  23  36  58  87 115 141 174 217 263
#     4   8  13  24  41  62  87 114 143 181 232 282
#     4  10  20  30  42  62  94 128 152 182 225 272
#     4   8  13  22  37  55  77 106 140 175 210 250
#     4   9  18  31  45  63  90 124 155 184 222 269
#     4   8  13  21  38  62  86 112 142 178 225 278
#     4  10  20  32  46  68  94 126 162 196 231 274
#     4  10  18  29  47  67  91 120 152 191 234 275
#
# _framework density 20.440572
#
# number of rings (size 3 to 8) (size 9 to 14) (size 15 to 20)
#    0.000    3.143    0.714    3.000    0.000    3.714 
#    0.000    0.000    1.571    0.000    0.000    1.000 
#    0.000    1.143    0.000    0.286    0.000    0.000 
#
# Total GULP energy -156034.144647 kJ/mol
# GULP energy per Si atom -5572.648023 kJ/mol
# Density = 2.039405 g / cm^3
# Si number density = 20.440572 Si / 1000 Ang^3
#
#
#
# Elastic Constant Matrix: (Units=GPa)
#
#
# Indices 1 2 3 4 5 6 
#
# 1 152.4529 3.2067 72.8316 0.0000 0.0000 0.0000
# 2 3.2067 72.0820 -0.2122 0.0000 0.0000 0.0000
# 3 72.8316 -0.2122 118.4101 0.0000 0.0000 0.0000
# 4 0.0000 0.0000 0.0000 -2.4725 0.0000 0.0000
# 5 0.0000 0.0000 0.0000 0.0000 25.7438 0.0000
# 6 0.0000 0.0000 0.0000 0.0000 0.0000 27.8128
#
#
#
# Elastic Compliance Matrix: (Units=1/GPa)
#
#
# Indices 1 2 3 4 5 6 
#
# 1 0.009302 -0.000431 -0.005722 0.000000 0.000000 0.000000
# 2 -0.000431 0.013893 0.000290 0.000000 0.000000 0.000000
# 3 -0.005722 0.000290 0.011965 0.000000 0.000000 0.000000
# 4 0.000000 0.000000 0.000000 -0.404454 0.000000 0.000000
# 5 0.000000 0.000000 0.000000 0.000000 0.038844 0.000000
# 6 0.000000 0.000000 0.000000 0.000000 0.000000 0.035955
#
#
# Mechanical properties :
#
#
# Convention : Reuss Voigt Hill
#
# Bulk Modulus (GPa) = 42.67252 54.95522 48.81387
# Shear Modulus (GPa) = -18.18468 28.02476 4.92004
#
# Velocity S-wave (km/s) = -2.98591 3.70677 1.55313
# Velocity P-wave (km/s) = 3.00568 6.72784 5.21047
#
# Compressibility (1/GPa) = 0.02343429
#
# Stress axis : x y z
#
# Youngs Moduli (GPa) = 107.50120 71.97818 83.57389
#
# Poissons Ratio (x) = 0.03100 0.47824
# Poissons Ratio (y) = 0.04630 -0.02422
# Poissons Ratio (z) = 0.61516 -0.02086
#
# Static dielectric constant tensor:
#      x y z
#    x 1.720730 0.000000 0.000000 
#    y 0.000000 1.873210 0.000000 
#    z 0.000000 0.000000 1.735740 
# 
# From -- ./inp_files/25480.got.cif
#   From: 2010.05.17/outbox.cif.g08.bks.cpg/sg44_13_cif.got.tgz:25480.got - 2010.06.03 19:37:08.
