data_PCOD9373760
_publ_section_title
;
Structure prediction by ZEFSAII (Michael W. Deem and Ramdas Pophale) SiO2 
 PCOD9373760
Probable space group: I M M 2
;
_chemical_formula_sum "Si O2"
_cell_formula_units_Z 64
_cell_length_a 31.196892
_cell_length_b 8.738605
_cell_length_c 14.776070
_cell_angle_alpha 90.000000
_cell_angle_beta 90.000000
_cell_angle_gamma 90.000000
_cell_volume 4028.212551
_symmetry_space_group_name_H-M "I M M 2"
_symmetry_group_IT_number 44
_symmetry_cell_setting 'orthorhombic'
loop_
_space_group_symop_operation_xyz
x,y,z
-x,-y,z
-x,y,z
x,-y,z
1/2+x,1/2+y,1/2+z
1/2-x,1/2-y,1/2+z
1/2-x,1/2+y,1/2+z
1/2+x,1/2-y,1/2+z
loop_
_atom_site_type_symbol
_atom_site_label
_atom_site_fract_x
_atom_site_fract_y
_atom_site_fract_z
Si Si1 0.951480 0.186416 0.594400
Si Si2 0.275912 0.677971 0.489987
Si Si3 0.548716 0.684113 0.885731
Si Si4 0.364875 0.680091 0.178016
Si Si5 0.368537 0.182184 0.810553
Si Si6 0.790249 0.681881 0.793837
Si Si7 0.791265 0.315818 0.183672
Si Si8 0.173369 0.676035 0.504763
O O1 0.942643 0.234935 0.490159
O O2 0.913743 0.234816 0.661857
O O3 0.000000 0.233859 0.617570
O O4 0.950802 0.000000 0.593595
O O5 0.288958 0.500000 0.488393
O O6 0.288386 0.757507 0.396243
O O7 0.292175 0.758939 0.580775
O O8 0.224343 0.682845 0.496589
O O9 0.500000 0.731324 0.863647
O O10 0.549997 0.500000 0.886305
O O11 0.584788 0.744354 0.818401
O O12 0.364796 0.500000 0.199489
O O13 0.334901 0.767526 0.248341
O O14 0.343075 0.709365 0.080557
O O15 0.334490 0.234901 0.735635
O O16 0.373410 0.000000 0.800445
O O17 0.346472 0.211155 0.907602
O O18 0.786044 0.500000 0.791243
O O19 0.750669 0.752071 0.735914
O O20 0.788833 0.500000 0.187350
O O21 0.161791 0.500000 0.529933
#
# Coordination Sequence:
#
# PCOD9373760 Si02
#       8
#     8   8   8   8   8   8   8   8
#     4   8  15  28  46  71 101 131 165 207 253 299
#     4  11  22  38  54  73 101 134 173 218 256 300
#     4   9  17  30  48  72 102 133 169 210 247 294
#     4  11  20  31  51  75 100 137 176 211 250 302
#     4  10  20  33  49  71 103 137 169 207 250 300
#     4  12  24  36  51  73 103 139 174 212 252 300
#     4  11  22  37  53  74 102 135 174 215 256 302
#     4  10  19  31  47  71 104 135 167 210 251 293
#
# _framework density 15.88794
#
# number of rings (size 3 to 8) (size 9 to 14) (size 15 to 20)
#    0.000    1.750    3.750    3.000    0.000    1.750 
#    0.000    0.000    0.000    1.500    0.000    0.875 
#    0.000    5.000    0.000    0.000    0.000    0.000 
#
# Total GULP energy -178517.685883 kJ/mol
# GULP energy per Si atom -5578.677684 kJ/mol
# Density = 1.585178 g / cm^3
# Si number density = 15.887940 Si / 1000 Ang^3
#
#
#
# Elastic Constant Matrix: (Units=GPa)
#
#
# Indices 1 2 3 4 5 6 
#
# 1 118.5132 32.7753 58.6996 0.0000 0.0000 0.0000
# 2 32.7753 55.0402 36.5600 0.0000 0.0000 0.0000
# 3 58.6996 36.5600 89.8355 0.0000 0.0000 0.0000
# 4 0.0000 0.0000 0.0000 24.1212 0.0000 0.0000
# 5 0.0000 0.0000 0.0000 0.0000 22.2881 0.0000
# 6 0.0000 0.0000 0.0000 0.0000 0.0000 14.3111
#
#
#
# Elastic Compliance Matrix: (Units=1/GPa)
#
#
# Indices 1 2 3 4 5 6 
#
# 1 0.012789 -0.002830 -0.007205 0.000000 0.000000 0.000000
# 2 -0.002830 0.025526 -0.008539 0.000000 0.000000 0.000000
# 3 -0.007205 -0.008539 0.019314 0.000000 0.000000 0.000000
# 4 0.000000 0.000000 0.000000 0.041457 0.000000 0.000000
# 5 0.000000 0.000000 0.000000 0.000000 0.044867 0.000000
# 6 0.000000 0.000000 0.000000 0.000000 0.000000 0.069876
#
#
# Mechanical properties :
#
#
# Convention : Reuss Voigt Hill
#
# Bulk Modulus (GPa) = 48.82449 57.71762 53.27106
# Shear Modulus (GPa) = 19.39460 21.16768 20.28114
#
# Velocity S-wave (km/s) = 3.49766 3.65404 3.57671
# Velocity P-wave (km/s) = 6.86358 7.36271 7.11752
#
# Compressibility (1/GPa) = 0.02048153
#
# Stress axis : x y z
#
# Youngs Moduli (GPa) = 78.19180 39.17636 51.77512
#
# Poissons Ratio (x) = 0.11086 0.37303
# Poissons Ratio (y) = 0.22127 0.44211
# Poissons Ratio (z) = 0.56336 0.33453
#
# Static dielectric constant tensor:
#      x y z
#    x 1.547040 0.000000 0.000000 
#    y 0.000000 1.546080 0.000000 
#    z 0.000000 0.000000 1.511130 
# 
# From -- ./inp_files/17131.got.cif
#   From: 2010.05.17/outbox.cif.g08.bks.cpg/sg44_9_cif.got.tgz:17131.got - 2010.06.03 19:37:08.
