data_PCOD9373340
_publ_section_title
;
Structure prediction by ZEFSAII (Michael W. Deem and Ramdas Pophale) SiO2 
 PCOD9373340
Probable space group: I M M 2
;
_chemical_formula_sum "Si O2"
_cell_formula_units_Z 64
_cell_length_a 23.951559
_cell_length_b 8.467027
_cell_length_c 19.866816
_cell_angle_alpha 90.000000
_cell_angle_beta 90.000000
_cell_angle_gamma 90.000000
_cell_volume 4028.960420
_symmetry_space_group_name_H-M "I M M 2"
_symmetry_group_IT_number 44
_symmetry_cell_setting 'orthorhombic'
loop_
_space_group_symop_operation_xyz
x,y,z
-x,-y,z
-x,y,z
x,-y,z
1/2+x,1/2+y,1/2+z
1/2-x,1/2-y,1/2+z
1/2-x,1/2+y,1/2+z
1/2+x,1/2-y,1/2+z
loop_
_atom_site_type_symbol
_atom_site_label
_atom_site_fract_x
_atom_site_fract_y
_atom_site_fract_z
Si Si1 0.563698 0.811135 0.801060
Si Si2 0.436054 0.690953 0.522947
Si Si3 0.838197 0.188748 0.389421
Si Si4 0.119215 0.190894 0.163926
Si Si5 0.772668 0.307943 0.808363
Si Si6 0.164598 0.689554 0.938313
Si Si7 0.749316 0.307286 0.661499
Si Si8 0.274167 0.189375 0.014221
O O1 0.500000 0.754134 0.808466
O O2 0.604504 0.753991 0.860112
O O3 0.589129 0.752254 0.730497
O O4 0.563395 0.000000 0.800532
O O5 0.500000 0.742323 0.514739
O O6 0.434731 0.500000 0.521919
O O7 0.412081 0.741367 0.595811
O O8 0.394223 0.752981 0.466250
O O9 0.787094 0.239987 0.340198
O O10 0.820400 0.243852 0.463553
O O11 0.839687 0.000000 0.387705
O O12 0.184075 0.239926 0.161749
O O13 0.118392 0.000000 0.166272
O O14 0.772632 0.500000 0.807107
O O15 0.819498 0.259783 0.862251
O O16 0.776533 0.253203 0.731544
O O17 0.167419 0.500000 0.941326
O O18 0.214047 0.757326 0.985199
O O19 0.749908 0.500000 0.661392
O O20 0.777290 0.256477 0.591669
O O21 0.276349 0.000000 0.012408
#
# Coordination Sequence:
#
# PCOD9373340 Si02
#       8
#     8   8   8   8   8   8   8   8
#     4  11  23  35  47  69 100 131 166 207 247 285
#     4  10  20  33  48  66  92 129 170 204 238 287
#     4  10  19  33  51  70  95 128 165 201 239 288
#     4  10  18  32  50  68  93 130 171 200 231 286
#     4   8  15  28  46  68  91 118 155 194 233 278
#     4  10  19  30  46  68  95 126 161 203 242 284
#     4   9  15  27  49  72  94 125 159 192 234 288
#     4  10  18  30  50  72  97 125 158 201 246 289
#
# _framework density 15.884992
#
# number of rings (size 3 to 8) (size 9 to 14) (size 15 to 20)
#    0.000    2.250    2.500    2.625    0.000    2.250 
#    0.000    0.000    0.000    0.000    0.000    0.875 
#    0.000    3.000    0.000    0.000    0.000    0.000 
#
# Total GULP energy -178456.479460 kJ/mol
# GULP energy per Si atom -5576.764983 kJ/mol
# Density = 1.584884 g / cm^3
# Si number density = 15.884992 Si / 1000 Ang^3
#
#
#
# Elastic Constant Matrix: (Units=GPa)
#
#
# Indices 1 2 3 4 5 6 
#
# 1 93.9446 14.6632 72.4225 0.0000 0.0000 0.0000
# 2 14.6632 16.6782 15.4282 0.0000 0.0000 0.0000
# 3 72.4225 15.4282 156.6636 0.0000 0.0000 0.0000
# 4 0.0000 0.0000 0.0000 22.5816 0.0000 0.0000
# 5 0.0000 0.0000 0.0000 0.0000 19.5509 0.0000
# 6 0.0000 0.0000 0.0000 0.0000 0.0000 20.1876
#
#
#
# Elastic Compliance Matrix: (Units=1/GPa)
#
#
# Indices 1 2 3 4 5 6 
#
# 1 0.017629 -0.008758 -0.007287 0.000000 0.000000 0.000000
# 2 -0.008758 0.070319 -0.002876 0.000000 0.000000 0.000000
# 3 -0.007287 -0.002876 0.010035 0.000000 0.000000 0.000000
# 4 0.000000 0.000000 0.000000 0.044284 0.000000 0.000000
# 5 0.000000 0.000000 0.000000 0.000000 0.051148 0.000000
# 6 0.000000 0.000000 0.000000 0.000000 0.000000 0.049535
#
#
# Mechanical properties :
#
#
# Convention : Reuss Voigt Hill
#
# Bulk Modulus (GPa) = 16.62778 52.47937 34.55357
# Shear Modulus (GPa) = 16.62002 23.44886 20.03444
#
# Velocity S-wave (km/s) = 3.23812 3.84626 3.55522
# Velocity P-wave (km/s) = 4.94681 7.26868 6.21710
#
# Compressibility (1/GPa) = 0.06014031
#
# Stress axis : x y z
#
# Youngs Moduli (GPa) = 56.72360 14.22081 99.65054
#
# Poissons Ratio (x) = 0.12455 0.72617
# Poissons Ratio (y) = 0.49681 0.28661
# Poissons Ratio (z) = 0.41335 0.04090
#
# Static dielectric constant tensor:
#      x y z
#    x 1.510070 0.000000 0.000000 
#    y 0.000000 1.546920 0.000000 
#    z 0.000000 0.000000 1.544990 
# 
# From -- ./inp_files/20846.got.cif
#   From: 2010.05.17/outbox.cif.g08.bks.cpg/sg44_11_cif.got.tgz:20846.got - 2010.06.03 19:37:08.
