data_PCOD9373312
_publ_section_title
;
Structure prediction by ZEFSAII (Michael W. Deem and Ramdas Pophale) SiO2 
 PCOD9373312
Probable space group: I M M 2
;
_chemical_formula_sum "Si O2"
_cell_formula_units_Z 64
_cell_length_a 19.550547
_cell_length_b 7.355960
_cell_length_c 22.125604
_cell_angle_alpha 90.000000
_cell_angle_beta 90.000000
_cell_angle_gamma 90.000000
_cell_volume 3181.950411
_symmetry_space_group_name_H-M "I M M 2"
_symmetry_group_IT_number 44
_symmetry_cell_setting 'orthorhombic'
loop_
_space_group_symop_operation_xyz
x,y,z
-x,-y,z
-x,y,z
x,-y,z
1/2+x,1/2+y,1/2+z
1/2-x,1/2-y,1/2+z
1/2-x,1/2+y,1/2+z
1/2+x,1/2-y,1/2+z
loop_
_atom_site_type_symbol
_atom_site_label
_atom_site_fract_x
_atom_site_fract_y
_atom_site_fract_z
Si Si1 0.424937 0.278668 0.430640
Si Si2 0.630708 0.280711 0.560009
Si Si3 0.924688 0.217835 0.379245
Si Si4 0.718605 0.722281 0.380858
Si Si5 0.223817 0.721894 0.511461
Si Si6 0.925070 0.710391 0.521191
Si Si7 0.423662 0.788110 0.691649
Si Si8 0.814741 0.296737 0.282564
O O1 0.500000 0.218243 0.411369
O O2 0.424578 0.500000 0.430201
O O3 0.409733 0.223965 0.499834
O O4 0.359508 0.222104 0.391843
O O5 0.630196 0.500000 0.560935
O O6 0.709740 0.224289 0.550189
O O7 0.595995 0.219270 0.621439
O O8 0.923307 0.282476 0.448111
O O9 0.868007 0.305209 0.338090
O O10 0.000000 0.259425 0.354360
O O11 0.915954 0.000000 0.379195
O O12 0.721270 0.500000 0.379883
O O13 0.760357 0.777110 0.441704
O O14 0.750426 0.787213 0.317714
O O15 0.221676 0.500000 0.510735
O O16 0.150288 0.786348 0.536098
O O17 0.925806 0.500000 0.540498
O O18 0.000000 0.788786 0.538668
O O19 0.500000 0.711138 0.701084
O O20 0.360445 0.708268 0.730081
O O21 0.426772 0.000000 0.709858
O O22 0.794808 0.500000 0.262134
#
# Coordination Sequence:
#
# PCOD9373312 Si02
#       8
#     8   8   8   8   8   8   8   8
#     4   8  13  22  40  67  91 107 129 168 218 262
#     4   9  17  29  47  65  84 113 146 177 213 256
#     4  10  19  27  36  56  86 115 142 173 206 244
#     4   8  13  22  39  61  83 106 135 173 211 250
#     4   8  13  24  42  65  86 105 139 181 212 248
#     4   9  15  24  41  62  84 112 142 171 207 251
#     4  10  21  33  43  60  86 114 149 187 214 248
#     4  10  18  30  46  59  78 114 152 180 211 251
#
# _framework density 20.113448000000002
#
# number of rings (size 3 to 8) (size 9 to 14) (size 15 to 20)
#    0.000    3.000    1.250    2.625    0.000    2.500 
#    0.000    0.625    0.000    0.000    0.000    0.875 
#    0.000    1.000    0.000    0.000    0.000    0.000 
#
# Total GULP energy -178325.865033 kJ/mol
# GULP energy per Si atom -5572.683282 kJ/mol
# Density = 2.006767 g / cm^3
# Si number density = 20.113448 Si / 1000 Ang^3
#
#
#
# Elastic Constant Matrix: (Units=GPa)
#
#
# Indices 1 2 3 4 5 6 
#
# 1 174.0517 5.9590 41.5919 0.0000 0.0000 0.0000
# 2 5.9590 77.0658 -1.4042 0.0000 0.0000 0.0000
# 3 41.5919 -1.4042 67.0137 0.0000 0.0000 0.0000
# 4 0.0000 0.0000 0.0000 -0.0078 0.0000 0.0000
# 5 0.0000 0.0000 0.0000 0.0000 24.8880 0.0000
# 6 0.0000 0.0000 0.0000 0.0000 0.0000 7.6745
#
#
#
# Elastic Compliance Matrix: (Units=1/GPa)
#
#
# Indices 1 2 3 4 5 6 
#
# 1 0.006774 -0.000601 -0.004217 0.000000 0.000000 0.000000
# 2 -0.000601 0.013034 0.000646 0.000000 0.000000 0.000000
# 3 -0.004217 0.000646 0.017553 0.000000 0.000000 0.000000
# 4 0.000000 0.000000 0.000000********** 0.000000 0.000000
# 5 0.000000 0.000000 0.000000 0.000000 0.040180 0.000000
# 6 0.000000 0.000000 0.000000 0.000000 0.000000 0.130301
#
#
# Mechanical properties :
#
#
# Convention : Reuss Voigt Hill
#
# Bulk Modulus (GPa) = 34.46141 45.60275 40.03208
# Shear Modulus (GPa) = -0.03908 24.64323 12.30207
#
# Velocity S-wave (km/s) = -0.13955 3.50410 2.47581
# Velocity P-wave (km/s) = 4.14062 6.25249 5.30275
#
# Compressibility (1/GPa) = 0.02901797
#
# Stress axis : x y z
#
# Youngs Moduli (GPa) = 147.63212 76.72161 56.97074
#
# Poissons Ratio (x) = 0.04608 0.24022
# Poissons Ratio (y) = 0.08867 -0.03680
# Poissons Ratio (z) = 0.62251 -0.04955
#
# Static dielectric constant tensor:
#      x y z
#    x 1.790890 0.000000 0.000000 
#    y 0.000000 1.794610 0.000000 
#    z 0.000000 0.000000 1.671580 
# 
# From -- ./inp_files/24460.got.cif
#   From: 2010.05.17/outbox.cif.g08.bks.cpg/sg44_13_cif.got.tgz:24460.got - 2010.06.03 19:37:08.
