data_PCOD9373130
_publ_section_title
;
Structure prediction by ZEFSAII (Michael W. Deem and Ramdas Pophale) SiO2 
 PCOD9373130
Probable space group: I M M 2
;
_chemical_formula_sum "Si O2"
_cell_formula_units_Z 42
_cell_length_a 8.597224
_cell_length_b 27.694658
_cell_length_c 7.246487
_cell_angle_alpha 90.000000
_cell_angle_beta 90.000000
_cell_angle_gamma 90.000000
_cell_volume 1725.368108
_symmetry_space_group_name_H-M "I M M 2"
_symmetry_group_IT_number 44
_symmetry_cell_setting 'orthorhombic'
loop_
_space_group_symop_operation_xyz
x,y,z
-x,-y,z
-x,y,z
x,-y,z
1/2+x,1/2+y,1/2+z
1/2-x,1/2-y,1/2+z
1/2-x,1/2+y,1/2+z
1/2+x,1/2-y,1/2+z
loop_
_atom_site_type_symbol
_atom_site_label
_atom_site_fract_x
_atom_site_fract_y
_atom_site_fract_z
Si Si1 0.829784 0.000000 0.951730
Si Si2 0.828209 0.297664 0.025766
Si Si3 0.828745 0.894524 0.934708
Si Si4 0.330663 0.801555 0.964339
Si Si5 0.679368 0.394229 0.986489
Si Si6 0.500000 0.944732 0.410756
Si Si7 0.500000 0.000000 0.761555
O O1 0.829505 0.053659 0.034159
O O2 0.661666 0.000000 0.861705
O O3 0.000000 0.000000 0.848138
O O4 0.834568 0.305631 0.243936
O O5 0.705472 0.336823 0.953532
O O6 0.000000 0.308127 0.950377
O O7 0.784701 0.242020 0.003396
O O8 0.713345 0.855665 0.019461
O O9 0.808478 0.902548 0.711896
O O10 0.000000 0.872308 0.952578
O O11 0.500000 0.787306 0.034506
O O12 0.500000 0.407842 0.937006
O O13 0.830535 0.419569 0.891990
O O14 0.500000 0.000000 0.329003
O O15 0.500000 0.954031 0.630410
#
# Coordination Sequence:
#
# PCOD9373130 Si02
#       7
#     4   8   8   8   8   4   2
#     4  10  18  26  40  64  94 129 166 200 256 309
#     4  10  20  35  53  73 104 139 174 216 262 308
#     4   9  17  28  43  65  95 130 164 204 254 305
#     4  10  21  33  51  75 103 135 175 215 258 311
#     4  10  18  29  45  65  96 134 166 205 255 306
#     4  10  18  26  40  66  96 127 171 205 249 304
#     4  10  18  22  42  58  98 126 166 202 248 300
#
# _framework density 24.34263
#
# number of rings (size 3 to 8) (size 9 to 14) (size 15 to 20)
#    0.286    1.905    2.857    1.143    2.667    2.667 
#    0.000    0.000    0.000    0.000    0.000    0.000 
#    2.857    0.000    2.857    1.619    0.000    1.143 
#
# Total GULP energy -116986.548552 kJ/mol
# GULP energy per Si atom -5570.788026 kJ/mol
# Density = 2.428723 g / cm^3
# Si number density = 24.342630 Si / 1000 Ang^3
#
#
#
# Elastic Constant Matrix: (Units=GPa)
#
#
# Indices 1 2 3 4 5 6 
#
# 1 175.3854 61.5633 23.0338 0.0029 0.0037 0.0001
# 2 61.5633 147.3519 1.6942 0.0012 0.0014 -0.0002
# 3 23.0338 1.6942 69.5030 -0.0118 -0.0092 -0.0010
# 4 0.0029 0.0012 -0.0118 10.6703 -0.0031 -0.0004
# 5 0.0037 0.0014 -0.0092 -0.0031 15.6908 -0.0008
# 6 0.0001 -0.0002 -0.0010 -0.0004 -0.0008 48.5675
#
#
#
# Elastic Compliance Matrix: (Units=1/GPa)
#
#
# Indices 1 2 3 4 5 6 
#
# 1 0.007018 -0.002906 -0.002255 -0.000004 -0.000003 0.000000
# 2 -0.002906 0.007992 0.000768 0.000001 0.000000 0.000000
# 3 -0.002255 0.000768 0.015116 0.000017 0.000009 0.000000
# 4 -0.000004 0.000001 0.000017 0.093718 0.000019 0.000001
# 5 -0.000003 0.000000 0.000009 0.000019 0.063731 0.000001
# 6 0.000000 0.000000 0.000000 0.000001 0.000001 0.020590
#
#
# Mechanical properties :
#
#
# Convention : Reuss Voigt Hill
#
# Bulk Modulus (GPa) = 46.85897 62.75811 54.80854
# Shear Modulus (GPa) = 22.31500 35.38235 28.84867
#
# Velocity S-wave (km/s) = 3.03100 3.81663 3.44628
# Velocity P-wave (km/s) = 5.61612 6.72751 6.19678
#
# Compressibility (1/GPa) = 0.02134063
#
# Stress axis : x y z
#
# Youngs Moduli (GPa) = 142.49075 125.12772 66.15303
#
# Poissons Ratio (x) = 0.36364 0.14917
# Poissons Ratio (y) = 0.41410 -0.05083
# Poissons Ratio (z) = 0.32131 -0.09614
#
# Static dielectric constant tensor:
#      x y z
#    x 1.913880 0.000010 -0.000020 
#    y 0.000010 1.947630 -0.000010 
#    z -0.000020 -0.000010 2.007610 
# 
# From -- ./inp_files/11116.got.cif
#   From: 2010.05.17/outbox.cif.g08.bks.cpg/sg44_6_cif.got.tgz:11116.got - 2010.06.03 19:37:08.
