data_PCOD9373349
_publ_section_title
;
Structure prediction by ZEFSAII (Michael W. Deem and Ramdas Pophale) SiO2 
 PCOD9373349
Probable space group: I M M 2
;
_chemical_formula_sum "Si O2"
_cell_formula_units_Z 58
_cell_length_a 15.782758
_cell_length_b 8.001191
_cell_length_c 19.939603
_cell_angle_alpha 90.000000
_cell_angle_beta 90.000000
_cell_angle_gamma 90.000000
_cell_volume 2517.990240
_symmetry_space_group_name_H-M "I M M 2"
_symmetry_group_IT_number 44
_symmetry_cell_setting 'orthorhombic'
loop_
_space_group_symop_operation_xyz
x,y,z
-x,-y,z
-x,y,z
x,-y,z
1/2+x,1/2+y,1/2+z
1/2-x,1/2-y,1/2+z
1/2-x,1/2+y,1/2+z
1/2+x,1/2-y,1/2+z
loop_
_atom_site_type_symbol
_atom_site_label
_atom_site_fract_x
_atom_site_fract_y
_atom_site_fract_z
Si Si1 0.775841 0.303497 0.496590
Si Si2 0.853930 0.816891 0.236133
Si Si3 0.906955 0.808399 0.011728
Si Si4 0.500000 0.500000 0.667656
Si Si5 0.095405 0.297460 0.383669
Si Si6 0.179318 0.190506 0.741939
Si Si7 0.092918 0.689655 0.866321
Si Si8 0.596180 0.702611 0.108747
O O1 0.758611 0.500000 0.483754
O O2 0.685877 0.231278 0.522957
O O3 0.827030 0.237255 0.431163
O O4 0.841958 0.283755 0.555855
O O5 0.925545 0.854847 0.181306
O O6 0.893514 0.761758 0.307128
O O7 0.776408 0.699019 0.218852
O O8 0.813614 0.000000 0.247251
O O9 0.905061 0.807529 0.930514
O O10 0.000000 0.735261 0.030027
O O11 0.910141 0.000000 0.038413
O O12 0.098028 0.500000 0.384821
O O13 0.000000 0.246335 0.406585
O O14 0.164388 0.278669 0.812366
O O15 0.121567 0.259937 0.682915
O O16 0.153917 0.000000 0.753933
O O17 0.098302 0.500000 0.892109
O O18 0.000000 0.710288 0.833633
O O19 0.500000 0.744007 0.093091
O O20 0.605974 0.500000 0.106495
#
# Coordination Sequence:
#
# PCOD9373349 Si02
#       8
#     8   8   8   2   8   8   8   8
#     4  10  21  35  55  81 109 143 188 229 270 321
#     4  10  19  35  54  80 112 145 179 223 274 327
#     4   9  18  34  56  81 115 150 183 223 273 328
#     4   8  20  36  54  80 118 144 178 224 284 322
#     4  10  18  30  50  80 115 148 181 223 273 330
#     4  11  22  36  57  80 108 146 189 228 273 330
#     4  10  20  33  52  85 118 146 180 223 277 332
#     4  10  23  42  59  79 107 142 181 226 276 330
#
# _framework density 23.034244000000001
#
# number of rings (size 3 to 8) (size 9 to 14) (size 15 to 20)
#    0.414    1.655    0.690    2.897    0.000    5.517 
#    0.000    0.000    1.517    0.000    0.000    0.000 
#    0.000    0.000    0.000    0.000    0.000    0.000 
#
# Total GULP energy -161481.342685 kJ/mol
# GULP energy per Si atom -5568.322162 kJ/mol
# Density = 2.298182 g / cm^3
# Si number density = 23.034244 Si / 1000 Ang^3
#
#
#
# Elastic Constant Matrix: (Units=GPa)
#
#
# Indices 1 2 3 4 5 6 
#
# 1 149.7342 5.0851 18.6480 0.0000 0.0000 0.0000
# 2 5.0851 30.9459 4.4266 0.0000 0.0000 0.0000
# 3 18.6480 4.4266 46.4675 0.0000 0.0000 0.0000
# 4 0.0000 0.0000 0.0000 22.8065 0.0000 0.0000
# 5 0.0000 0.0000 0.0000 0.0000 19.4742 0.0000
# 6 0.0000 0.0000 0.0000 0.0000 0.0000 15.0774
#
#
#
# Elastic Compliance Matrix: (Units=1/GPa)
#
#
# Indices 1 2 3 4 5 6 
#
# 1 0.007048 -0.000764 -0.002756 0.000000 0.000000 0.000000
# 2 -0.000764 0.032844 -0.002822 0.000000 0.000000 0.000000
# 3 -0.002756 -0.002822 0.022895 0.000000 0.000000 0.000000
# 4 0.000000 0.000000 0.000000 0.043847 0.000000 0.000000
# 5 0.000000 0.000000 0.000000 0.000000 0.051350 0.000000
# 6 0.000000 0.000000 0.000000 0.000000 0.000000 0.066324
#
#
# Mechanical properties :
#
#
# Convention : Reuss Voigt Hill
#
# Bulk Modulus (GPa) = 19.95884 31.49633 25.72759
# Shear Modulus (GPa) = 19.70893 24.73749 22.22321
#
# Velocity S-wave (km/s) = 2.92830 3.28066 3.10948
# Velocity P-wave (km/s) = 4.48519 5.29658 4.90768
#
# Compressibility (1/GPa) = 0.05010311
#
# Stress axis : x y z
#
# Youngs Moduli (GPa) = 141.89193 30.44731 43.67754
#
# Poissons Ratio (x) = 0.02326 0.12035
# Poissons Ratio (y) = 0.10839 0.12326
# Poissons Ratio (z) = 0.39099 0.08593
#
# Static dielectric constant tensor:
#      x y z
#    x 1.918290 0.000000 0.000000 
#    y 0.000000 1.884530 0.000000 
#    z 0.000000 0.000000 1.861380 
# 
# From -- ./inp_files/25702.got.cif
#   From: 2010.05.17/outbox.cif.g08.bks.cpg/sg44_13_cif.got.tgz:25702.got - 2010.06.03 19:37:08.
