data_PCOD9373968
_publ_section_title
;
Structure prediction by ZEFSAII (Michael W. Deem and Ramdas Pophale) SiO2 
 PCOD9373968
Probable space group: I M M 2
;
_chemical_formula_sum "Si O2"
_cell_formula_units_Z 56
_cell_length_a 19.769350
_cell_length_b 8.555803
_cell_length_c 17.898186
_cell_angle_alpha 90.000000
_cell_angle_beta 90.000000
_cell_angle_gamma 90.000000
_cell_volume 3027.346861
_symmetry_space_group_name_H-M "I M M 2"
_symmetry_group_IT_number 44
_symmetry_cell_setting 'orthorhombic'
loop_
_space_group_symop_operation_xyz
x,y,z
-x,-y,z
-x,y,z
x,-y,z
1/2+x,1/2+y,1/2+z
1/2-x,1/2-y,1/2+z
1/2-x,1/2+y,1/2+z
1/2+x,1/2-y,1/2+z
loop_
_atom_site_type_symbol
_atom_site_label
_atom_site_fract_x
_atom_site_fract_y
_atom_site_fract_z
Si Si1 0.927607 0.316234 0.771960
Si Si2 0.686740 0.816369 0.003785
Si Si3 0.291324 0.185284 0.608913
Si Si4 0.214487 0.318353 0.748164
Si Si5 0.577427 0.188966 0.702007
Si Si6 0.349374 0.679574 0.844988
Si Si7 0.925753 0.819924 0.609896
O O1 0.929264 0.500000 0.790349
O O2 0.852499 0.257120 0.790543
O O3 0.926065 0.288890 0.682659
O O4 0.000000 0.247794 0.798261
O O5 0.665121 0.775007 0.919821
O O6 0.681327 0.000000 0.016240
O O7 0.760328 0.761826 0.034283
O O8 0.632550 0.726611 0.054442
O O9 0.237901 0.223823 0.675393
O O10 0.364274 0.239425 0.642361
O O11 0.294763 0.000000 0.597646
O O12 0.202399 0.500000 0.725420
O O13 0.277895 0.319182 0.802368
O O14 0.500000 0.234843 0.683888
O O15 0.598644 0.251804 0.783880
O O16 0.580346 0.000000 0.704346
O O17 0.367560 0.500000 0.863136
O O18 0.000000 0.805790 0.573834
O O19 0.917992 0.000000 0.634839
#
# Coordination Sequence:
#
# PCOD9373968 Si02
#       7
#     8   8   8   8   8   8   8
#     4   9  16  27  46  72 100 129 159 194 239 291
#     4  12  23  35  51  73 104 142 181 219 265 316
#     4  10  19  32  54  79 103 135 174 219 265 312
#     4   9  17  31  50  73 100 131 167 209 252 304
#     4   9  19  37  59  83 110 140 177 221 273 331
#     4  10  21  35  52  75 104 138 177 218 264 315
#     4  10  20  32  47  71 101 131 164 202 245 295
#
# _framework density 18.498045000000001
#
# number of rings (size 3 to 8) (size 9 to 14) (size 15 to 20)
#    0.000    2.143    1.429    2.571    0.000    2.857 
#    0.000    0.000    0.000    0.857    0.000    4.000 
#    0.000    0.000    0.000    0.000    0.000    0.000 
#
# Total GULP energy -155916.790087 kJ/mol
# GULP energy per Si atom -5568.456789 kJ/mol
# Density = 1.845594 g / cm^3
# Si number density = 18.498045 Si / 1000 Ang^3
#
#
#
# Elastic Constant Matrix: (Units=GPa)
#
#
# Indices 1 2 3 4 5 6 
#
# 1 119.6716 12.6740 4.0707 0.0000 0.0000 0.0000
# 2 12.6740 24.3695 2.4291 0.0000 0.0000 0.0000
# 3 4.0707 2.4291 26.6796 0.0000 0.0000 0.0000
# 4 0.0000 0.0000 0.0000 23.0613 0.0000 0.0000
# 5 0.0000 0.0000 0.0000 0.0000 12.2609 0.0000
# 6 0.0000 0.0000 0.0000 0.0000 0.0000 21.2148
#
#
#
# Elastic Compliance Matrix: (Units=1/GPa)
#
#
# Indices 1 2 3 4 5 6 
#
# 1 0.008867 -0.004517 -0.000942 0.000000 0.000000 0.000000
# 2 -0.004517 0.043712 -0.003291 0.000000 0.000000 0.000000
# 3 -0.000942 -0.003291 0.037925 0.000000 0.000000 0.000000
# 4 0.000000 0.000000 0.000000 0.043363 0.000000 0.000000
# 5 0.000000 0.000000 0.000000 0.000000 0.081560 0.000000
# 6 0.000000 0.000000 0.000000 0.000000 0.000000 0.047137
#
#
# Mechanical properties :
#
#
# Convention : Reuss Voigt Hill
#
# Bulk Modulus (GPa) = 13.69773 23.22981 18.46377
# Shear Modulus (GPa) = 16.42589 21.41054 18.91822
#
# Velocity S-wave (km/s) = 2.98313 3.40582 3.20146
# Velocity P-wave (km/s) = 4.39164 5.29636 4.86507
#
# Compressibility (1/GPa) = 0.07300480
#
# Stress axis : x y z
#
# Youngs Moduli (GPa) = 112.78201 22.87686 26.36779
#
# Poissons Ratio (x) = 0.10335 0.02483
# Poissons Ratio (y) = 0.50949 0.08676
# Poissons Ratio (z) = 0.10619 0.07528
#
# Static dielectric constant tensor:
#      x y z
#    x 1.724160 0.000000 0.000000 
#    y 0.000000 1.655320 0.000000 
#    z 0.000000 0.000000 1.613250 
# 
# From -- ./inp_files/19187.got.cif
#   From: 2010.05.17/outbox.cif.g08.bks.cpg/sg44_10_cif.got.tgz:19187.got - 2010.06.03 19:37:08.
