data_PCOD9373098
_publ_section_title
;
Structure prediction by ZEFSAII (Michael W. Deem and Ramdas Pophale) SiO2 
 PCOD9373098
Probable space group: I M M 2
;
_chemical_formula_sum "Si O2"
_cell_formula_units_Z 64
_cell_length_a 8.108147
_cell_length_b 24.143136
_cell_length_c 19.875206
_cell_angle_alpha 90.000000
_cell_angle_beta 90.000000
_cell_angle_gamma 90.000000
_cell_volume 3890.692728
_symmetry_space_group_name_H-M "I M M 2"
_symmetry_group_IT_number 44
_symmetry_cell_setting 'orthorhombic'
loop_
_space_group_symop_operation_xyz
x,y,z
-x,-y,z
-x,y,z
x,-y,z
1/2+x,1/2+y,1/2+z
1/2-x,1/2-y,1/2+z
1/2-x,1/2+y,1/2+z
1/2+x,1/2-y,1/2+z
loop_
_atom_site_type_symbol
_atom_site_label
_atom_site_fract_x
_atom_site_fract_y
_atom_site_fract_z
Si Si1 0.699091 0.274772 0.852760
Si Si2 0.698838 0.729128 0.558795
Si Si3 0.303698 0.562482 0.068216
Si Si4 0.297931 0.062927 0.846005
Si Si5 0.198417 0.665138 0.433338
Si Si6 0.198244 0.618863 0.207155
Si Si7 0.298124 0.246989 0.706371
Si Si8 0.696240 0.161663 0.478631
O O1 0.500000 0.274283 0.852998
O O2 0.755176 0.216582 0.886468
O O3 0.755185 0.275903 0.775531
O O4 0.755771 0.323003 0.902664
O O5 0.500000 0.731166 0.559245
O O6 0.750574 0.680304 0.508814
O O7 0.755858 0.726597 0.635823
O O8 0.758668 0.786905 0.524926
O O9 0.500000 0.559781 0.072002
O O10 0.238249 0.500000 0.059695
O O11 0.242331 0.588761 0.138098
O O12 0.258562 0.604236 0.008389
O O13 0.500000 0.062645 0.845880
O O14 0.244011 0.107338 0.901934
O O15 0.244250 0.085770 0.773024
O O16 0.243355 0.000000 0.856865
O O17 0.000000 0.665079 0.430375
O O18 0.255218 0.682612 0.207561
O O19 0.000000 0.621105 0.211277
O O20 0.500000 0.246971 0.706452
O O21 0.500000 0.161553 0.484191
#
# Coordination Sequence:
#
# PCOD9373098 Si02
#       8
#     8   8   8   8   8   8   8   8
#     4   9  16  28  47  67  92 120 148 185 235 283
#     4   9  17  29  45  65  91 119 152 189 228 271
#     4  11  23  35  46  65  95 128 161 195 233 276
#     4   9  16  26  44  68  91 120 159 195 223 261
#     4   9  16  27  43  64  89 117 151 188 227 272
#     4  10  17  30  48  68  93 124 163 195 222 265
#     4   9  15  27  47  69  93 123 152 184 227 278
#     4  10  19  32  49  68  91 120 157 196 231 273
#
# _framework density 16.449513
#
# number of rings (size 3 to 8) (size 9 to 14) (size 15 to 20)
#    0.000    2.500    2.500    1.125    0.000    2.000 
#    0.000    1.875    0.000    1.125    0.000    0.875 
#    0.000    5.000    0.000    0.000    0.000    0.000 
#
# Total GULP energy -178403.538895 kJ/mol
# GULP energy per Si atom -5575.110590 kJ/mol
# Density = 1.641207 g / cm^3
# Si number density = 16.449513 Si / 1000 Ang^3
#
#
#
# Elastic Constant Matrix: (Units=GPa)
#
#
# Indices 1 2 3 4 5 6 
#
# 1 3.4099 1.6986 3.4360 0.0000 0.0000 0.0000
# 2 1.6986 99.3030 73.1915 0.0000 0.0000 0.0000
# 3 3.4360 73.1915 144.5421 0.0000 0.0000 0.0000
# 4 0.0000 0.0000 0.0000 15.3116 0.0000 0.0000
# 5 0.0000 0.0000 0.0000 0.0000 21.6997 0.0000
# 6 0.0000 0.0000 0.0000 0.0000 0.0000 11.6769
#
#
#
# Elastic Compliance Matrix: (Units=1/GPa)
#
#
# Indices 1 2 3 4 5 6 
#
# 1 0.300467 0.000199 -0.007243 0.000000 0.000000 0.000000
# 2 0.000199 0.016067 -0.008140 0.000000 0.000000 0.000000
# 3 -0.007243 -0.008140 0.011213 0.000000 0.000000 0.000000
# 4 0.000000 0.000000 0.000000 0.065310 0.000000 0.000000
# 5 0.000000 0.000000 0.000000 0.000000 0.046084 0.000000
# 6 0.000000 0.000000 0.000000 0.000000 0.000000 0.085639
#
#
# Mechanical properties :
#
#
# Convention : Reuss Voigt Hill
#
# Bulk Modulus (GPa) = 3.36273 44.87856 24.12065
# Shear Modulus (GPa) = 7.64206 20.99956 14.32081
#
# Velocity S-wave (km/s) = 2.15774 3.57684 2.95378
# Velocity P-wave (km/s) = 2.87342 6.66335 5.13112
#
# Compressibility (1/GPa) = 0.29737713
#
# Stress axis : x y z
#
# Youngs Moduli (GPa) = 3.32815 62.24061 89.18526
#
# Poissons Ratio (x) = -0.01241 0.64601
# Poissons Ratio (y) = -0.00066 0.72600
# Poissons Ratio (z) = 0.02411 0.50666
#
# Static dielectric constant tensor:
#      x y z
#    x 1.586630 0.000000 0.000000 
#    y 0.000000 1.542870 0.000000 
#    z 0.000000 0.000000 1.558480 
# 
# From -- ./inp_files/20805.got.cif
#   From: 2010.05.17/outbox.cif.g08.bks.cpg/sg44_11_cif.got.tgz:20805.got - 2010.06.03 19:37:08.
