data_PCOD9373970
_publ_section_title
;
Structure prediction by ZEFSAII (Michael W. Deem and Ramdas Pophale) SiO2 
 PCOD9373970
Probable space group: I M M 2
;
_chemical_formula_sum "Si O2"
_cell_formula_units_Z 64
_cell_length_a 20.780139
_cell_length_b 9.210779
_cell_length_c 19.932568
_cell_angle_alpha 90.000000
_cell_angle_beta 90.000000
_cell_angle_gamma 90.000000
_cell_volume 3815.118788
_symmetry_space_group_name_H-M "I M M 2"
_symmetry_group_IT_number 44
_symmetry_cell_setting 'orthorhombic'
loop_
_space_group_symop_operation_xyz
x,y,z
-x,-y,z
-x,y,z
x,-y,z
1/2+x,1/2+y,1/2+z
1/2-x,1/2-y,1/2+z
1/2-x,1/2+y,1/2+z
1/2+x,1/2-y,1/2+z
loop_
_atom_site_type_symbol
_atom_site_label
_atom_site_fract_x
_atom_site_fract_y
_atom_site_fract_z
Si Si1 0.767874 0.328999 0.804160
Si Si2 0.073803 0.326624 0.589762
Si Si3 0.731406 0.670887 0.441869
Si Si4 0.612570 0.330221 0.804926
Si Si5 0.072327 0.673230 0.170260
Si Si6 0.186149 0.827125 0.670644
Si Si7 0.190102 0.326700 0.075663
Si Si8 0.386271 0.829664 0.940973
O O1 0.782675 0.500000 0.804527
O O2 0.787185 0.253845 0.873904
O O3 0.690207 0.313656 0.798836
O O4 0.799668 0.249922 0.741107
O O5 0.087396 0.500000 0.593966
O O6 0.124065 0.240020 0.634709
O O7 0.082739 0.285514 0.511490
O O8 0.000000 0.302290 0.609679
O O9 0.717596 0.500000 0.436767
O O10 0.699008 0.741131 0.506805
O O11 0.809007 0.686695 0.449031
O O12 0.597089 0.500000 0.804246
O O13 0.582543 0.250802 0.741215
O O14 0.593236 0.259625 0.875760
O O15 0.079773 0.500000 0.180640
O O16 0.127131 0.717813 0.117639
O O17 0.000000 0.701065 0.145626
O O18 0.247629 0.800768 0.622395
O O19 0.179863 0.000000 0.679476
O O20 0.186754 0.500000 0.062468
O O21 0.400072 0.000000 0.929555
#
# Coordination Sequence:
#
# PCOD9373970 Si02
#       8
#     8   8   8   8   8   8   8   8
#     4  10  20  34  54  80 111 142 176 220 271 322
#     4  10  21  37  55  77 108 146 185 222 267 324
#     4  10  19  32  54  81 109 139 175 221 270 317
#     4  10  20  32  50  77 109 142 178 221 266 313
#     4  10  21  37  55  75 105 146 185 219 261 318
#     4  11  21  34  56  82 109 140 180 228 273 316
#     4  10  20  34  54  80 107 138 178 223 270 318
#     4   9  18  32  50  74 106 143 183 217 254 315
#
# _framework density 16.775362000000001
#
# number of rings (size 3 to 8) (size 9 to 14) (size 15 to 20)
#    0.000    2.000    2.500    1.500    0.000    4.000 
#    0.000    1.250    0.000    0.750    0.000    1.750 
#    0.000    0.000    0.000    0.000    0.000    0.000 
#
# Total GULP energy -178666.522490 kJ/mol
# GULP energy per Si atom -5583.328828 kJ/mol
# Density = 1.673718 g / cm^3
# Si number density = 16.775362 Si / 1000 Ang^3
#
#
#
# Elastic Constant Matrix: (Units=GPa)
#
#
# Indices 1 2 3 4 5 6 
#
# 1 78.8952 59.4388 58.9629 0.0000 0.0000 0.0000
# 2 59.4388 78.8488 77.3275 0.0000 0.0000 0.0000
# 3 58.9629 77.3275 133.7593 0.0000 0.0000 0.0000
# 4 0.0000 0.0000 0.0000 35.8720 0.0000 0.0000
# 5 0.0000 0.0000 0.0000 0.0000 17.8411 0.0000
# 6 0.0000 0.0000 0.0000 0.0000 0.0000 20.0886
#
#
#
# Elastic Compliance Matrix: (Units=1/GPa)
#
#
# Indices 1 2 3 4 5 6 
#
# 1 0.029342 -0.021786 -0.000340 0.000000 0.000000 0.000000
# 2 -0.021786 0.045462 -0.016679 0.000000 0.000000 0.000000
# 3 -0.000340 -0.016679 0.017268 0.000000 0.000000 0.000000
# 4 0.000000 0.000000 0.000000 0.027877 0.000000 0.000000
# 5 0.000000 0.000000 0.000000 0.000000 0.056050 0.000000
# 6 0.000000 0.000000 0.000000 0.000000 0.000000 0.049780
#
#
# Mechanical properties :
#
#
# Convention : Reuss Voigt Hill
#
# Bulk Modulus (GPa) = 69.13817 75.88466 72.51141
# Shear Modulus (GPa) = 16.22273 21.14528 18.68400
#
# Velocity S-wave (km/s) = 3.11313 3.55420 3.34095
# Velocity P-wave (km/s) = 7.36381 7.88524 7.62898
#
# Compressibility (1/GPa) = 0.01446379
#
# Stress axis : x y z
#
# Youngs Moduli (GPa) = 34.08043 21.99623 57.91055
#
# Poissons Ratio (x) = 0.47921 0.01968
# Poissons Ratio (y) = 0.74247 0.96587
# Poissons Ratio (z) = 0.01158 0.36687
#
# Static dielectric constant tensor:
#      x y z
#    x 1.564300 0.000000 0.000000 
#    y 0.000000 1.555890 0.000000 
#    z 0.000000 0.000000 1.532550 
# 
# From -- ./inp_files/20717.got.cif
#   From: 2010.05.17/outbox.cif.g08.bks.cpg/sg44_11_cif.got.tgz:20717.got - 2010.06.03 19:37:08.
