data_PCOD9373400
_publ_section_title
;
Structure prediction by ZEFSAII (Michael W. Deem and Ramdas Pophale) SiO2 
 PCOD9373400
Probable space group: I M M 2
;
_chemical_formula_sum "Si O2"
_cell_formula_units_Z 64
_cell_length_a 7.668649
_cell_length_b 20.317027
_cell_length_c 21.546930
_cell_angle_alpha 90.000000
_cell_angle_beta 90.000000
_cell_angle_gamma 90.000000
_cell_volume 3357.101088
_symmetry_space_group_name_H-M "I M M 2"
_symmetry_group_IT_number 44
_symmetry_cell_setting 'orthorhombic'
loop_
_space_group_symop_operation_xyz
x,y,z
-x,-y,z
-x,y,z
x,-y,z
1/2+x,1/2+y,1/2+z
1/2-x,1/2-y,1/2+z
1/2-x,1/2+y,1/2+z
1/2+x,1/2-y,1/2+z
loop_
_atom_site_type_symbol
_atom_site_label
_atom_site_fract_x
_atom_site_fract_y
_atom_site_fract_z
Si Si1 0.709831 0.072985 0.245970
Si Si2 0.212642 0.427395 0.368405
Si Si3 0.789590 0.426604 0.603275
Si Si4 0.788005 0.572889 0.222955
Si Si5 0.792282 0.210579 0.297023
Si Si6 0.292446 0.210526 0.915145
Si Si7 0.785678 0.711787 0.174639
Si Si8 0.704517 0.713531 0.552901
O O1 0.500000 0.071807 0.243852
O O2 0.769751 0.084226 0.174699
O O3 0.761704 0.133308 0.288802
O O4 0.769740 0.000000 0.264986
O O5 0.272613 0.500000 0.388638
O O6 0.257985 0.418421 0.295659
O O7 0.275933 0.363901 0.405506
O O8 0.000000 0.428636 0.371543
O O9 0.731187 0.500000 0.583792
O O10 0.736586 0.364086 0.563404
O O11 0.000000 0.427796 0.603369
O O12 0.728572 0.500000 0.203224
O O13 0.731041 0.636108 0.184071
O O14 0.000000 0.572466 0.221266
O O15 0.723099 0.242880 0.360255
O O16 0.726291 0.247458 0.235205
O O17 0.000000 0.220719 0.296733
O O18 0.500000 0.206281 0.906165
O O19 0.265796 0.233846 0.984977
O O20 0.722087 0.746582 0.111857
O O21 0.000000 0.713130 0.174516
O O22 0.500000 0.724612 0.554088
#
# Coordination Sequence:
#
# PCOD9373400 Si02
#       8
#     8   8   8   8   8   8   8   8
#     4   9  18  32  51  76 103 128 159 206 259 306
#     4   8  13  23  42  68  94 120 151 189 233 279
#     4   9  18  33  51  71  98 132 169 206 246 300
#     4   8  12  21  42  70  95 117 148 194 243 286
#     4  10  18  31  52  75  98 129 168 211 251 291
#     4  10  20  33  49  70 100 134 169 206 245 295
#     4   9  16  28  45  69  98 126 159 203 250 287
#     4  11  22  33  47  69 102 137 167 207 255 298
#
# _framework density 19.064067999999999
#
# number of rings (size 3 to 8) (size 9 to 14) (size 15 to 20)
#    0.000    2.750    2.500    1.875    0.000    1.500 
#    0.000    2.500    0.000    0.750    0.000    1.750 
#    0.000    4.000    0.000    0.000    0.000    0.000 
#
# Total GULP energy -178439.776799 kJ/mol
# GULP energy per Si atom -5576.243025 kJ/mol
# Density = 1.902068 g / cm^3
# Si number density = 19.064068 Si / 1000 Ang^3
#
#
#
# Elastic Constant Matrix: (Units=GPa)
#
#
# Indices 1 2 3 4 5 6 
#
# 1 29.7660 1.3381 5.7666 0.0000 0.0000 0.0000
# 2 1.3381 130.8282 82.4203 0.0000 0.0000 0.0000
# 3 5.7666 82.4203 125.6639 0.0000 0.0000 0.0000
# 4 0.0000 0.0000 0.0000 22.7354 0.0000 0.0000
# 5 0.0000 0.0000 0.0000 0.0000 14.8024 0.0000
# 6 0.0000 0.0000 0.0000 0.0000 0.0000 -0.3319
#
#
#
# Elastic Compliance Matrix: (Units=1/GPa)
#
#
# Indices 1 2 3 4 5 6 
#
# 1 0.033986 0.001082 -0.002269 0.000000 0.000000 0.000000
# 2 0.001082 0.013060 -0.008616 0.000000 0.000000 0.000000
# 3 -0.002269 -0.008616 0.013713 0.000000 0.000000 0.000000
# 4 0.000000 0.000000 0.000000 0.043984 0.000000 0.000000
# 5 0.000000 0.000000 0.000000 0.000000 0.067557 0.000000
# 6 0.000000 0.000000 0.000000 0.000000 0.000000 -3.012739
#
#
# Mechanical properties :
#
#
# Convention : Reuss Voigt Hill
#
# Bulk Modulus (GPa) = 24.29924 51.70089 38.00006
# Shear Modulus (GPa) = -1.78119 20.55671 9.38776
#
# Velocity S-wave (km/s) = -0.96765 3.28730 2.22149
# Velocity P-wave (km/s) = 3.39489 6.44879 5.15326
#
# Compressibility (1/GPa) = 0.04115356
#
# Stress axis : x y z
#
# Youngs Moduli (GPa) = 29.42358 76.56793 72.92522
#
# Poissons Ratio (x) = -0.08285 0.16549
# Poissons Ratio (y) = -0.03184 0.62830
# Poissons Ratio (z) = 0.06677 0.65968
#
# Static dielectric constant tensor:
#      x y z
#    x 1.730910 0.000000 0.000000 
#    y 0.000000 1.684220 0.000000 
#    z 0.000000 0.000000 1.662350 
# 
# From -- ./inp_files/23427.got.cif
#   From: 2010.05.17/outbox.cif.g08.bks.cpg/sg44_12_cif.got.tgz:23427.got - 2010.06.03 19:37:08.
