data_PCOD9373020
_publ_section_title
;
Structure prediction by ZEFSAII (Michael W. Deem and Ramdas Pophale) SiO2 
 PCOD9373020
Probable space group: I M M 2
;
_chemical_formula_sum "Si O2"
_cell_formula_units_Z 48
_cell_length_a 33.916038
_cell_length_b 8.036886
_cell_length_c 7.265582
_cell_angle_alpha 90.000000
_cell_angle_beta 90.000000
_cell_angle_gamma 90.000000
_cell_volume 1980.447481
_symmetry_space_group_name_H-M "I M M 2"
_symmetry_group_IT_number 44
_symmetry_cell_setting 'orthorhombic'
loop_
_space_group_symop_operation_xyz
x,y,z
-x,-y,z
-x,y,z
x,-y,z
1/2+x,1/2+y,1/2+z
1/2-x,1/2-y,1/2+z
1/2-x,1/2+y,1/2+z
1/2+x,1/2-y,1/2+z
loop_
_atom_site_type_symbol
_atom_site_label
_atom_site_fract_x
_atom_site_fract_y
_atom_site_fract_z
Si Si1 0.876367 0.311647 0.771690
Si Si2 0.542260 0.697584 0.288225
Si Si3 0.701823 0.310803 0.364488
Si Si4 0.789188 0.699106 0.458363
Si Si5 0.129348 0.192067 0.360460
Si Si6 0.456787 0.299846 0.845229
O O1 0.872366 0.500000 0.705527
O O2 0.918640 0.282592 0.861000
O O3 0.839830 0.274626 0.905328
O O4 0.875673 0.202469 0.584827
O O5 0.500000 0.757295 0.358018
O O6 0.544979 0.500000 0.322204
O O7 0.541805 0.722378 0.067135
O O8 0.700039 0.500000 0.428994
O O9 0.745102 0.241977 0.409325
O O10 0.702218 0.296775 0.144231
O O11 0.787361 0.500000 0.488408
O O12 0.827076 0.730892 0.328669
O O13 0.087100 0.263254 0.290398
O O14 0.131490 0.000000 0.304531
O O15 0.500000 0.238133 0.778531
O O16 0.456251 0.500000 0.811101
#
# Coordination Sequence:
#
# PCOD9373020 Si02
#       6
#     8   8   8   8   8   8
#     4  10  17  24  37  57  82 110 141 179 218 258
#     4   8  13  22  35  50  73 107 142 173 209 257
#     4  10  20  33  48  65  88 119 151 183 224 272
#     4  10  20  32  47  67  89 115 149 188 225 264
#     4   9  15  24  39  56  78 111 144 174 214 261
#     4   7  10  17  30  49  72 100 135 168 198 241
#
# _framework density 24.236948000000002
#
# number of rings (size 3 to 8) (size 9 to 14) (size 15 to 20)
#    0.000    3.000    0.000    7.000    0.000    3.000 
#    0.000    0.000    0.000    1.500    0.000    0.000 
#    0.000    1.333    0.000    7.333    0.000   16.000 
#
# Total GULP energy -133679.689158 kJ/mol
# GULP energy per Si atom -5569.987048 kJ/mol
# Density = 2.418178 g / cm^3
# Si number density = 24.236948 Si / 1000 Ang^3
#
#
#
# Elastic Constant Matrix: (Units=GPa)
#
#
# Indices 1 2 3 4 5 6 
#
# 1 266.2355 19.9448 -21.6947 0.0000 0.0000 0.0000
# 2 19.9448 37.8712 -13.0350 0.0000 0.0000 0.0000
# 3 -21.6947 -13.0350 43.6498 0.0000 0.0000 0.0000
# 4 0.0000 0.0000 0.0000 -27.4560 0.0000 0.0000
# 5 0.0000 0.0000 0.0000 0.0000 -1.8284 0.0000
# 6 0.0000 0.0000 0.0000 0.0000 0.0000 33.5036
#
#
#
# Elastic Compliance Matrix: (Units=1/GPa)
#
#
# Indices 1 2 3 4 5 6 
#
# 1 0.003998 -0.001585 0.001514 0.000000 0.000000 0.000000
# 2 -0.001585 0.030058 0.008189 0.000000 0.000000 0.000000
# 3 0.001514 0.008189 0.026107 0.000000 0.000000 0.000000
# 4 0.000000 0.000000 0.000000 -0.036422 0.000000 0.000000
# 5 0.000000 0.000000 0.000000 0.000000 -0.546925 0.000000
# 6 0.000000 0.000000 0.000000 0.000000 0.000000 0.029848
#
#
# Mechanical properties :
#
#
# Convention : Reuss Voigt Hill
#
# Bulk Modulus (GPa) = 13.08900 35.35408 24.22154
# Shear Modulus (GPa) = -10.32835 25.01327 7.34246
#
# Velocity S-wave (km/s) = -2.06656 3.21601 1.74242
# Velocity P-wave (km/s) = 0.53108 5.32999 3.75012
#
# Compressibility (1/GPa) = 0.07640001
#
# Stress axis : x y z
#
# Youngs Moduli (GPa) = 250.11605 33.26873 38.30329
#
# Poissons Ratio (x) = 0.05271 -0.05799
# Poissons Ratio (y) = 0.39631 -0.31365
# Poissons Ratio (z) = -0.37867 -0.27243
#
# Static dielectric constant tensor:
#      x y z
#    x 2.122830 0.000000 0.000000 
#    y 0.000000 1.867080 0.000000 
#    z 0.000000 0.000000 2.013680 
# 
# From -- ./inp_files/14952.got.cif
#   From: 2010.05.17/outbox.cif.g08.bks.cpg/sg44_8_cif.got.tgz:14952.got - 2010.06.03 19:37:08.
