data_PCOD9373555
_publ_section_title
;
Structure prediction by ZEFSAII (Michael W. Deem and Ramdas Pophale) SiO2 
 PCOD9373555
Probable space group: I M M 2
;
_chemical_formula_sum "Si O2"
_cell_formula_units_Z 64
_cell_length_a 8.571194
_cell_length_b 15.923084
_cell_length_c 24.447389
_cell_angle_alpha 90.000000
_cell_angle_beta 90.000000
_cell_angle_gamma 90.000000
_cell_volume 3336.575789
_symmetry_space_group_name_H-M "I M M 2"
_symmetry_group_IT_number 44
_symmetry_cell_setting 'orthorhombic'
loop_
_space_group_symop_operation_xyz
x,y,z
-x,-y,z
-x,y,z
x,-y,z
1/2+x,1/2+y,1/2+z
1/2-x,1/2-y,1/2+z
1/2-x,1/2+y,1/2+z
1/2+x,1/2-y,1/2+z
loop_
_atom_site_type_symbol
_atom_site_label
_atom_site_fract_x
_atom_site_fract_y
_atom_site_fract_z
Si Si1 0.190221 0.906621 0.228560
Si Si2 0.186421 0.850197 0.107853
Si Si3 0.814081 0.594298 0.492479
Si Si4 0.686782 0.246843 0.798493
Si Si5 0.313579 0.149800 0.611538
Si Si6 0.809779 0.406621 0.990831
Si Si7 0.313218 0.746842 0.420898
Si Si8 0.814081 0.905702 0.726913
O O1 0.236513 0.888466 0.165869
O O2 0.243469 0.831094 0.267360
O O3 0.000000 0.905082 0.228937
O O4 0.240424 0.000000 0.245311
O O5 0.269808 0.888653 0.055472
O O6 0.212135 0.749998 0.109697
O O7 0.000000 0.863896 0.101770
O O8 0.762413 0.500000 0.477456
O O9 0.737851 0.666097 0.455652
O O10 0.000000 0.599093 0.486278
O O11 0.500000 0.249439 0.799807
O O12 0.750000 0.243017 0.859696
O O13 0.737848 0.166098 0.763739
O O14 0.500000 0.136100 0.617620
O O15 0.263484 0.111534 0.553522
O O16 0.230195 0.111341 0.663919
O O17 0.759577 0.500000 0.974080
O O18 0.756533 0.331094 0.952031
O O19 0.000000 0.405082 0.990455
O O20 0.500000 0.749436 0.419584
O O21 0.000000 0.900903 0.733113
O O22 0.762419 0.000000 0.741940
#
# Coordination Sequence:
#
# PCOD9373555 Si02
#       8
#     8   8   8   8   8   8   8   8
#     4   9  18  34  58  87 119 154 192 234 283 345
#     4  10  18  34  61  91 119 154 195 234 286 346
#     4  11  24  40  59  87 121 156 194 239 293 348
#     4  11  23  41  62  85 114 152 199 245 294 346
#     4  10  18  34  61  91 119 154 195 234 286 346
#     4   9  18  34  58  87 119 154 192 234 283 345
#     4  11  23  41  62  85 114 152 199 245 294 346
#     4  11  24  40  59  87 121 156 194 239 293 348
#
# _framework density 19.181342000000001
#
# number of rings (size 3 to 8) (size 9 to 14) (size 15 to 20)
#    0.000    1.750    2.500    2.250    0.000    4.500 
#    0.000    0.000    0.000    3.750    0.000    0.000 
#    0.000    0.000    0.000    0.000    0.000    0.000 
#
# Total GULP energy -178793.242821 kJ/mol
# GULP energy per Si atom -5587.288838 kJ/mol
# Density = 1.913768 g / cm^3
# Si number density = 19.181342 Si / 1000 Ang^3
#
#
#
# Elastic Constant Matrix: (Units=GPa)
#
#
# Indices 1 2 3 4 5 6 
#
# 1 27.9173 39.3831 25.3166 0.0000 0.0000 0.0000
# 2 39.3831 168.1643 82.2098 0.0000 0.0000 0.0000
# 3 25.3166 82.2098 138.9949 0.0000 0.0000 0.0000
# 4 0.0000 0.0000 0.0000 -1.9199 0.0000 0.0000
# 5 0.0000 0.0000 0.0000 0.0000 32.1995 0.0000
# 6 0.0000 0.0000 0.0000 0.0000 0.0000 3.7187
#
#
#
# Elastic Compliance Matrix: (Units=1/GPa)
#
#
# Indices 1 2 3 4 5 6 
#
# 1 0.054579 -0.011145 -0.003349 0.000000 0.000000 0.000000
# 2 -0.011145 0.010641 -0.004264 0.000000 0.000000 0.000000
# 3 -0.003349 -0.004264 0.010326 0.000000 0.000000 0.000000
# 4 0.000000 0.000000 0.000000 -0.520850 0.000000 0.000000
# 5 0.000000 0.000000 0.000000 0.000000 0.031056 0.000000
# 6 0.000000 0.000000 0.000000 0.000000 0.000000 0.268909
#
#
# Mechanical properties :
#
#
# Convention : Reuss Voigt Hill
#
# Bulk Modulus (GPa) = 26.29446 69.87727 48.08586
# Shear Modulus (GPa) = -52.55143 19.34413 -16.60365
#
# Velocity S-wave (km/s) = -5.23991 3.17911 -2.94532
# Velocity P-wave (km/s) = 4.78234 7.06998 3.68197
#
# Compressibility (1/GPa) = 0.03803083
#
# Stress axis : x y z
#
# Youngs Moduli (GPa) = 18.32194 93.97583 96.83852
#
# Poissons Ratio (x) = 1.04733 0.32436
# Poissons Ratio (y) = 0.20419 0.41290
# Poissons Ratio (z) = 0.06137 0.40070
#
# Static dielectric constant tensor:
#      x y z
#    x 1.658020 0.000000 0.000000 
#    y 0.000000 1.676440 0.000000 
#    z 0.000000 0.000000 1.627230 
# 
# From -- ./inp_files/25128.got.cif
#   From: 2010.05.17/outbox.cif.g08.bks.cpg/sg44_13_cif.got.tgz:25128.got - 2010.06.03 19:37:08.
