data_PCOD9373489
_publ_section_title
;
Structure prediction by ZEFSAII (Michael W. Deem and Ramdas Pophale) SiO2 
 PCOD9373489
Probable space group: I M M 2
;
_chemical_formula_sum "Si O2"
_cell_formula_units_Z 56
_cell_length_a 7.658860
_cell_length_b 22.201546
_cell_length_c 14.218448
_cell_angle_alpha 90.000000
_cell_angle_beta 90.000000
_cell_angle_gamma 90.000000
_cell_volume 2417.684034
_symmetry_space_group_name_H-M "I M M 2"
_symmetry_group_IT_number 44
_symmetry_cell_setting 'orthorhombic'
loop_
_space_group_symop_operation_xyz
x,y,z
-x,-y,z
-x,y,z
x,-y,z
1/2+x,1/2+y,1/2+z
1/2-x,1/2-y,1/2+z
1/2-x,1/2+y,1/2+z
1/2+x,1/2-y,1/2+z
loop_
_atom_site_type_symbol
_atom_site_label
_atom_site_fract_x
_atom_site_fract_y
_atom_site_fract_z
Si Si1 0.791900 0.862222 0.929600
Si Si2 0.211701 0.000000 0.171233
Si Si3 0.787380 0.121153 0.274933
Si Si4 0.197553 0.710926 0.615961
Si Si5 0.699972 0.933876 0.675940
Si Si6 0.208002 0.931421 0.462969
Si Si7 0.287187 0.500000 0.453182
Si Si8 0.801672 0.809791 0.744969
O O1 0.720428 0.816571 0.849138
O O2 0.000000 0.865836 0.915097
O O3 0.728237 0.932335 0.920491
O O4 0.769571 0.831079 0.032040
O O5 0.267182 0.940360 0.224210
O O6 0.263177 0.000000 0.063153
O O7 0.000000 0.000000 0.172733
O O8 0.708288 0.172694 0.211836
O O9 0.735393 0.115250 0.383482
O O10 0.000000 0.125713 0.271588
O O11 0.279867 0.772878 0.657241
O O12 0.000000 0.724275 0.585695
O O13 0.500000 0.929718 0.707927
O O14 0.703127 0.928440 0.563216
O O15 0.806239 0.879121 0.715317
O O16 0.769494 0.000000 0.701125
O O17 0.000000 0.923994 0.478008
O O18 0.231899 0.000000 0.426412
O O19 0.500000 0.500000 0.445616
O O20 0.000000 0.786683 0.754816
#
# Coordination Sequence:
#
# PCOD9373489 Si02
#       8
#     8   4   8   8   8   8   4   8
#     4  10  21  40  66  92 116 155 207 256 303 358
#     4   9  14  26  52  85 114 139 189 252 292 342
#     4  10  18  32  56  84 115 156 202 248 294 348
#     4  11  24  40  56  85 126 159 195 248 302 361
#     4  10  22  39  59  86 120 152 188 242 308 368
#     4   9  17  31  55  85 116 153 198 240 279 336
#     4   9  16  30  60  93 116 141 195 262 304 346
#     4  10  24  43  63  86 115 155 206 250 291 356
#
# _framework density 23.162662000000001
#
# number of rings (size 3 to 8) (size 9 to 14) (size 15 to 20)
#    0.000    2.143    2.143    0.857    1.000    4.286 
#    0.000    4.286    0.000    0.000    0.000    0.000 
#    0.000    0.000    0.000    0.000    0.000    0.000 
#
# Total GULP energy -156133.551231 kJ/mol
# GULP energy per Si atom -5576.198258 kJ/mol
# Density = 2.310994 g / cm^3
# Si number density = 23.162662 Si / 1000 Ang^3
#
#
#
# Elastic Constant Matrix: (Units=GPa)
#
#
# Indices 1 2 3 4 5 6 
#
# 1 45.7695 13.1499 14.9278 0.0000 0.0000 0.0000
# 2 13.1499 110.1479 38.9744 -0.0001 0.0000 0.0000
# 3 14.9278 38.9744 78.5799 -0.0002 0.0000 0.0000
# 4 0.0000 -0.0001 -0.0002 26.0478 0.0000 0.0000
# 5 0.0000 0.0000 0.0000 0.0000 13.5977 0.0000
# 6 0.0000 0.0000 0.0000 0.0000 0.0000 15.1997
#
#
#
# Elastic Compliance Matrix: (Units=1/GPa)
#
#
# Indices 1 2 3 4 5 6 
#
# 1 0.023491 -0.001486 -0.003725 0.000000 0.000000 0.000000
# 2 -0.001486 0.011105 -0.005226 0.000000 0.000000 0.000000
# 3 -0.003725 -0.005226 0.016025 0.000000 0.000000 0.000000
# 4 0.000000 0.000000 0.000000 0.038391 0.000000 0.000000
# 5 0.000000 0.000000 0.000000 0.000000 0.073542 0.000000
# 6 0.000000 0.000000 0.000000 0.000000 0.000000 0.065791
#
#
# Mechanical properties :
#
#
# Convention : Reuss Voigt Hill
#
# Bulk Modulus (GPa) = 33.61709 40.95572 37.28640
# Shear Modulus (GPa) = 19.29497 22.13205 20.71351
#
# Velocity S-wave (km/s) = 2.88934 3.09448 2.99367
# Velocity P-wave (km/s) = 5.06715 5.52159 5.29924
#
# Compressibility (1/GPa) = 0.02974678
#
# Stress axis : x y z
#
# Youngs Moduli (GPa) = 42.57010 90.04824 62.40080
#
# Poissons Ratio (x) = 0.13383 0.23247
# Poissons Ratio (y) = 0.06327 0.32608
# Poissons Ratio (z) = 0.15859 0.47056
#
# Static dielectric constant tensor:
#      x y z
#    x 1.946430 0.000000 0.000000 
#    y 0.000000 1.915980 0.000000 
#    z 0.000000 0.000000 1.901220 
# 
# From -- ./inp_files/16539.got.cif
#   From: 2010.05.17/outbox.cif.g08.bks.cpg/sg44_9_cif.got.tgz:16539.got - 2010.06.03 19:37:08.
