data_PCOD9373967
_publ_section_title
;
Structure prediction by ZEFSAII (Michael W. Deem and Ramdas Pophale) SiO2 
 PCOD9373967
Probable space group: I M M 2
;
_chemical_formula_sum "Si O2"
_cell_formula_units_Z 64
_cell_length_a 14.457271
_cell_length_b 7.612151
_cell_length_c 24.950766
_cell_angle_alpha 90.000000
_cell_angle_beta 90.000000
_cell_angle_gamma 90.000000
_cell_volume 2745.855000
_symmetry_space_group_name_H-M "I M M 2"
_symmetry_group_IT_number 44
_symmetry_cell_setting 'orthorhombic'
loop_
_space_group_symop_operation_xyz
x,y,z
-x,-y,z
-x,y,z
x,-y,z
1/2+x,1/2+y,1/2+z
1/2-x,1/2-y,1/2+z
1/2-x,1/2+y,1/2+z
1/2+x,1/2-y,1/2+z
loop_
_atom_site_type_symbol
_atom_site_label
_atom_site_fract_x
_atom_site_fract_y
_atom_site_fract_z
Si Si1 0.610238 0.804024 0.468390
Si Si2 0.607594 0.704194 0.585212
Si Si3 0.897064 0.800817 0.849934
Si Si4 0.253371 0.803573 0.671368
Si Si5 0.391993 0.286099 0.089342
Si Si6 0.898181 0.715092 0.254978
Si Si7 0.799932 0.710753 0.358200
Si Si8 0.894139 0.789376 0.469320
O O1 0.500000 0.820001 0.475346
O O2 0.642256 0.726643 0.524315
O O3 0.617290 0.694796 0.414421
O O4 0.648974 0.000000 0.460217
O O5 0.500000 0.756112 0.588626
O O6 0.614291 0.500000 0.599765
O O7 0.669702 0.813389 0.624833
O O8 0.798492 0.716861 0.835920
O O9 0.000000 0.721775 0.840369
O O10 0.900844 0.000000 0.828974
O O11 0.168395 0.718745 0.639172
O O12 0.311807 0.721348 0.719603
O O13 0.224475 0.000000 0.688992
O O14 0.500000 0.246269 0.095987
O O15 0.381740 0.500000 0.089993
O O16 0.365551 0.226688 0.028977
O O17 0.897936 0.500000 0.251100
O O18 0.879212 0.764084 0.316521
O O19 0.000000 0.774044 0.236951
O O20 0.791631 0.500000 0.354737
O O21 0.828407 0.749049 0.419231
O O22 0.000000 0.726667 0.459037
O O23 0.898357 0.000000 0.472967
#
# Coordination Sequence:
#
# PCOD9373967 Si02
#       8
#     8   8   8   8   8   8   8   8
#     4   9  17  29  46  68  95 130 171 209 247 301
#     4  10  20  32  46  69 104 139 168 206 257 308
#     4   9  18  32  47  67 101 139 172 213 263 307
#     4  10  19  32  54  78  99 134 179 216 259 314
#     4   8  16  32  52  76 106 133 162 212 271 315
#     4   9  18  33  52  76 107 136 170 224 273 307
#     4  10  20  33  52  76 102 140 182 216 260 315
#     4   9  18  33  52  75 104 135 167 212 269 318
#
# _framework density 23.307860000000002
#
# number of rings (size 3 to 8) (size 9 to 14) (size 15 to 20)
#    0.000    2.750    0.000    2.250    1.750    4.000 
#    0.000    1.250    0.000    7.125    0.000    0.000 
#    0.000    2.000    0.000    0.000    0.000    0.000 
#
# Total GULP energy -178398.120059 kJ/mol
# GULP energy per Si atom -5574.941252 kJ/mol
# Density = 2.325481 g / cm^3
# Si number density = 23.307860 Si / 1000 Ang^3
#
#
#
# Elastic Constant Matrix: (Units=GPa)
#
#
# Indices 1 2 3 4 5 6 
#
# 1 149.8081 2.1651 48.5654 0.0000 0.0000 0.0000
# 2 2.1651 53.2063 -3.6490 0.0000 0.0000 0.0000
# 3 48.5654 -3.6490 87.8708 0.0000 0.0000 0.0000
# 4 0.0000 0.0000 0.0000 5.5861 0.0000 0.0000
# 5 0.0000 0.0000 0.0000 0.0000 31.6904 0.0000
# 6 0.0000 0.0000 0.0000 0.0000 0.0000 3.9740
#
#
#
# Elastic Compliance Matrix: (Units=1/GPa)
#
#
# Indices 1 2 3 4 5 6 
#
# 1 0.008154 -0.000643 -0.004533 0.000000 0.000000 0.000000
# 2 -0.000643 0.018899 0.001140 0.000000 0.000000 0.000000
# 3 -0.004533 0.001140 0.013933 0.000000 0.000000 0.000000
# 4 0.000000 0.000000 0.000000 0.179015 0.000000 0.000000
# 5 0.000000 0.000000 0.000000 0.000000 0.031555 0.000000
# 6 0.000000 0.000000 0.000000 0.000000 0.000000 0.251638
#
#
# Mechanical properties :
#
#
# Convention : Reuss Voigt Hill
#
# Bulk Modulus (GPa) = 30.38190 42.78314 36.58252
# Shear Modulus (GPa) = 9.57418 24.50369 17.03893
#
# Velocity S-wave (km/s) = 2.02895 3.24590 2.70670
# Velocity P-wave (km/s) = 4.30722 5.69591 5.04953
#
# Compressibility (1/GPa) = 0.03291434
#
# Stress axis : x y z
#
# Youngs Moduli (GPa) = 122.63687 52.91256 71.77072
#
# Poissons Ratio (x) = 0.03401 0.32537
# Poissons Ratio (y) = 0.07882 -0.08182
# Poissons Ratio (z) = 0.55596 -0.06032
#
# Static dielectric constant tensor:
#      x y z
#    x 1.956550 0.000000 0.000000 
#    y 0.000000 1.924190 0.000000 
#    z 0.000000 0.000000 1.868980 
# 
# From -- ./inp_files/25138.got.cif
#   From: 2010.05.17/outbox.cif.g08.bks.cpg/sg44_13_cif.got.tgz:25138.got - 2010.06.03 19:37:08.
