data_PCOD9373816
_publ_section_title
;
Structure prediction by ZEFSAII (Michael W. Deem and Ramdas Pophale) SiO2 
 PCOD9373816
Probable space group: I M M 2
;
_chemical_formula_sum "Si O2"
_cell_formula_units_Z 64
_cell_length_a 21.386669
_cell_length_b 8.515848
_cell_length_c 20.276150
_cell_angle_alpha 90.000000
_cell_angle_beta 90.000000
_cell_angle_gamma 90.000000
_cell_volume 3692.806439
_symmetry_space_group_name_H-M "I M M 2"
_symmetry_group_IT_number 44
_symmetry_cell_setting 'orthorhombic'
loop_
_space_group_symop_operation_xyz
x,y,z
-x,-y,z
-x,y,z
x,-y,z
1/2+x,1/2+y,1/2+z
1/2-x,1/2-y,1/2+z
1/2-x,1/2+y,1/2+z
1/2+x,1/2-y,1/2+z
loop_
_atom_site_type_symbol
_atom_site_label
_atom_site_fract_x
_atom_site_fract_y
_atom_site_fract_z
Si Si1 0.266033 0.811296 0.872380
Si Si2 0.569417 0.810395 0.087660
Si Si3 0.761481 0.690060 0.225569
Si Si4 0.189225 0.691519 0.086559
Si Si5 0.069012 0.689324 0.005862
Si Si6 0.120152 0.687763 0.728281
Si Si7 0.619050 0.312577 0.370359
Si Si8 0.687028 0.312818 0.007311
O O1 0.285841 0.765709 0.798173
O O2 0.192508 0.766918 0.878088
O O3 0.269657 0.000000 0.877824
O O4 0.304270 0.736992 0.931717
O O5 0.500000 0.758194 0.067564
O O6 0.583028 0.760832 0.163195
O O7 0.624930 0.751748 0.041368
O O8 0.570688 0.000000 0.086941
O O9 0.755260 0.500000 0.224952
O O10 0.802460 0.737507 0.162791
O O11 0.691999 0.759248 0.218412
O O12 0.188630 0.500000 0.084566
O O13 0.126293 0.747530 0.050973
O O14 0.250973 0.743770 0.046699
O O15 0.069703 0.500000 0.008896
O O16 0.000000 0.743901 0.026438
O O17 0.081965 0.738720 0.930763
O O18 0.117227 0.500000 0.732851
O O19 0.098328 0.757929 0.797894
O O20 0.615364 0.500000 0.373830
O O21 0.686056 0.500000 0.012069
#
# Coordination Sequence:
#
# PCOD9373816 Si02
#       8
#     8   8   8   8   8   8   8   8
#     4   9  18  31  50  75 103 135 169 210 260 310
#     4  10  22  38  53  73 105 140 173 212 260 313
#     4   9  17  32  52  75 104 135 169 214 264 306
#     4   9  17  31  52  77 103 133 172 218 261 299
#     4  10  20  34  52  75 105 141 177 214 258 307
#     4  10  19  31  50  75 103 135 174 212 254 306
#     4  10  20  33  50  73 105 142 178 212 251 302
#     4  11  20  32  55  79 103 134 173 218 260 304
#
# _framework density 17.330991999999998
#
# number of rings (size 3 to 8) (size 9 to 14) (size 15 to 20)
#    0.000    2.250    2.500    1.875    0.000    3.500 
#    0.000    1.875    0.000    0.750    0.000    3.500 
#    0.000    0.000    0.000    0.000    0.000    0.000 
#
# Total GULP energy -178512.632513 kJ/mol
# GULP energy per Si atom -5578.519766 kJ/mol
# Density = 1.729155 g / cm^3
# Si number density = 17.330992 Si / 1000 Ang^3
#
#
#
# Elastic Constant Matrix: (Units=GPa)
#
#
# Indices 1 2 3 4 5 6 
#
# 1 125.3970 21.0530 77.6442 0.0000 0.0000 0.0000
# 2 21.0530 8.2829 15.5749 0.0000 0.0000 0.0000
# 3 77.6442 15.5749 123.4726 0.0000 0.0000 0.0000
# 4 0.0000 0.0000 0.0000 22.4343 0.0000 0.0000
# 5 0.0000 0.0000 0.0000 0.0000 21.7088 0.0000
# 6 0.0000 0.0000 0.0000 0.0000 0.0000 18.0916
#
#
#
# Elastic Compliance Matrix: (Units=1/GPa)
#
#
# Indices 1 2 3 4 5 6 
#
# 1 0.017696 -0.031535 -0.007150 0.000000 0.000000 0.000000
# 2 -0.031535 0.214465 -0.007223 0.000000 0.000000 0.000000
# 3 -0.007150 -0.007223 0.013506 0.000000 0.000000 0.000000
# 4 0.000000 0.000000 0.000000 0.044575 0.000000 0.000000
# 5 0.000000 0.000000 0.000000 0.000000 0.046064 0.000000
# 6 0.000000 0.000000 0.000000 0.000000 0.000000 0.055274
#
#
# Mechanical properties :
#
#
# Convention : Reuss Voigt Hill
#
# Bulk Modulus (GPa) = 6.49972 53.96632 30.23302
# Shear Modulus (GPa) = 9.35137 21.97229 15.66183
#
# Velocity S-wave (km/s) = 2.32540 3.56449 3.00940
# Velocity P-wave (km/s) = 3.31186 6.93880 5.43670
#
# Compressibility (1/GPa) = 0.15385269
#
# Stress axis : x y z
#
# Youngs Moduli (GPa) = 56.50836 4.66277 74.03843
#
# Poissons Ratio (x) = 0.14704 0.52941
# Poissons Ratio (y) = 1.78197 0.53476
# Poissons Ratio (z) = 0.40406 0.03368
#
# Static dielectric constant tensor:
#      x y z
#    x 1.582950 0.000000 0.000000 
#    y 0.000000 1.586560 0.000000 
#    z 0.000000 0.000000 1.591710 
# 
# From -- ./inp_files/20746.got.cif
#   From: 2010.05.17/outbox.cif.g08.bks.cpg/sg44_11_cif.got.tgz:20746.got - 2010.06.03 19:37:08.
