data_PCOD9373071
_publ_section_title
;
Structure prediction by ZEFSAII (Michael W. Deem and Ramdas Pophale) SiO2 
 PCOD9373071
Probable space group: I M M 2
;
_chemical_formula_sum "Si O2"
_cell_formula_units_Z 56
_cell_length_a 27.419698
_cell_length_b 19.725466
_cell_length_c 5.265894
_cell_angle_alpha 90.000000
_cell_angle_beta 90.000000
_cell_angle_gamma 90.000000
_cell_volume 2848.144713
_symmetry_space_group_name_H-M "I M M 2"
_symmetry_group_IT_number 44
_symmetry_cell_setting 'orthorhombic'
loop_
_space_group_symop_operation_xyz
x,y,z
-x,-y,z
-x,y,z
x,-y,z
1/2+x,1/2+y,1/2+z
1/2-x,1/2-y,1/2+z
1/2-x,1/2+y,1/2+z
1/2+x,1/2-y,1/2+z
loop_
_atom_site_type_symbol
_atom_site_label
_atom_site_fract_x
_atom_site_fract_y
_atom_site_fract_z
Si Si1 0.745651 0.578735 0.968230
Si Si2 0.404538 0.885621 0.173989
Si Si3 0.195282 0.422435 0.468476
Si Si4 0.054538 0.390157 0.173110
Si Si5 0.557289 0.725566 0.712206
Si Si6 0.893083 0.766582 0.713697
Si Si7 0.279171 0.723965 0.135160
O O1 0.727801 0.500000 0.988864
O O2 0.762804 0.590426 0.678434
O O3 0.789206 0.583903 0.177090
O O4 0.716086 0.644476 0.057405
O O5 0.409093 0.915620 0.454573
O O6 0.418473 0.807542 0.216057
O O7 0.351413 0.881693 0.051223
O O8 0.436477 0.918430 0.953464
O O9 0.180956 0.500000 0.512220
O O10 0.060116 0.308490 0.210298
O O11 0.000000 0.403693 0.082929
O O12 0.500000 0.708532 0.708359
O O13 0.587016 0.699924 0.468568
O O14 0.585492 0.700426 0.960985
O O15 0.834762 0.757284 0.705449
O O16 0.244886 0.739363 0.384303
#
# Coordination Sequence:
#
# PCOD9373071 Si02
#       7
#     8   8   8   8   8   8   8
#     4  10  21  37  54  73 102 139 175 208 248 304
#     4  10  17  28  45  63  88 116 153 202 248 292
#     4  10  20  34  52  70  89 124 174 215 247 290
#     4   9  17  27  42  62  85 118 153 190 246 309
#     4   9  17  30  46  67  96 127 162 205 252 305
#     4  10  19  29  46  72  98 128 163 202 256 313
#     4  12  23  35  53  80 115 145 175 218 267 313
#
# _framework density 19.661923000000002
#
# number of rings (size 3 to 8) (size 9 to 14) (size 15 to 20)
#    0.000    2.000    0.000    5.143    0.000    5.714 
#    0.000    0.000    0.000    2.571    0.000    0.000 
#    0.000    3.429    0.000    0.000    0.000    0.000 
#
# Total GULP energy -155873.588023 kJ/mol
# GULP energy per Si atom -5566.913858 kJ/mol
# Density = 1.961717 g / cm^3
# Si number density = 19.661923 Si / 1000 Ang^3
#
#
#
# Elastic Constant Matrix: (Units=GPa)
#
#
# Indices 1 2 3 4 5 6 
#
# 1 69.7019 -5.6288 42.5429 0.0000 0.0000 0.0000
# 2 -5.6288 39.3539 -1.0127 0.0000 0.0000 0.0000
# 3 42.5429 -1.0127 119.6564 0.0000 0.0000 0.0000
# 4 0.0000 0.0000 0.0000 11.3465 0.0000 0.0000
# 5 0.0000 0.0000 0.0000 0.0000 26.4337 0.0000
# 6 0.0000 0.0000 0.0000 0.0000 0.0000 -18.7889
#
#
#
# Elastic Compliance Matrix: (Units=1/GPa)
#
#
# Indices 1 2 3 4 5 6 
#
# 1 0.018563 0.002486 -0.006579 0.000000 0.000000 0.000000
# 2 0.002486 0.025749 -0.000666 0.000000 0.000000 0.000000
# 3 -0.006579 -0.000666 0.010691 0.000000 0.000000 0.000000
# 4 0.000000 0.000000 0.000000 0.088133 0.000000 0.000000
# 5 0.000000 0.000000 0.000000 0.000000 0.037830 0.000000
# 6 0.000000 0.000000 0.000000 0.000000 0.000000 -0.053223
#
#
# Mechanical properties :
#
#
# Convention : Reuss Voigt Hill
#
# Bulk Modulus (GPa) = 21.98546 33.39055 27.68800
# Shear Modulus (GPa) = 32.80352 16.65231 24.72792
#
# Velocity S-wave (km/s) = 4.08901 2.91337 3.55019
# Velocity P-wave (km/s) = 5.78786 5.32317 5.56037
#
# Compressibility (1/GPa) = 0.04548461
#
# Stress axis : x y z
#
# Youngs Moduli (GPa) = 53.87060 38.83665 93.53925
#
# Poissons Ratio (x) = -0.09654 0.61538
# Poissons Ratio (y) = -0.13391 0.06229
# Poissons Ratio (z) = 0.35441 0.02586
#
# Static dielectric constant tensor:
#      x y z
#    x 1.711720 0.000000 0.000000 
#    y 0.000000 1.728920 0.000000 
#    z 0.000000 0.000000 1.778170 
# 
# From -- ./inp_files/2463.got.cif
#   From: 2010.05.17/outbox.cif.g08.bks.cpg/sg44_2_cif.got.tgz:2463.got - 2010.06.03 19:37:08.
