data_PCOD9373487
_publ_section_title
;
Structure prediction by ZEFSAII (Michael W. Deem and Ramdas Pophale) SiO2 
 PCOD9373487
Probable space group: I M M 2
;
_chemical_formula_sum "Si O2"
_cell_formula_units_Z 64
_cell_length_a 16.231386
_cell_length_b 24.162477
_cell_length_c 7.667810
_cell_angle_alpha 90.000000
_cell_angle_beta 90.000000
_cell_angle_gamma 90.000000
_cell_volume 3007.242168
_symmetry_space_group_name_H-M "I M M 2"
_symmetry_group_IT_number 44
_symmetry_cell_setting 'orthorhombic'
loop_
_space_group_symop_operation_xyz
x,y,z
-x,-y,z
-x,y,z
x,-y,z
1/2+x,1/2+y,1/2+z
1/2-x,1/2-y,1/2+z
1/2-x,1/2+y,1/2+z
1/2+x,1/2-y,1/2+z
loop_
_atom_site_type_symbol
_atom_site_label
_atom_site_fract_x
_atom_site_fract_y
_atom_site_fract_z
Si Si1 0.316287 0.253009 0.808260
Si Si2 0.644862 0.712496 0.410216
Si Si3 0.088382 0.331495 0.859607
Si Si4 0.589094 0.411233 0.350366
Si Si5 0.270337 0.936043 0.718110
Si Si6 0.907457 0.647637 0.282089
Si Si7 0.910298 0.937600 0.247970
Si Si8 0.258837 0.631812 0.874499
O O1 0.337017 0.277226 0.616463
O O2 0.232957 0.216872 0.815003
O O3 0.385246 0.208325 0.858222
O O4 0.294782 0.307300 0.921909
O O5 0.594330 0.765418 0.345542
O O6 0.601273 0.654682 0.376549
O O7 0.172447 0.355389 0.777698
O O8 0.000000 0.352074 0.795283
O O9 0.092637 0.343124 0.069704
O O10 0.500000 0.421776 0.261915
O O11 0.674755 0.431950 0.272771
O O12 0.584493 0.438117 0.540094
O O13 0.336502 0.897563 0.819992
O O14 0.267081 0.908797 0.528233
O O15 0.295925 0.000000 0.720244
O O16 0.000000 0.630754 0.330693
O O17 0.833800 0.898861 0.285026
O O18 0.000000 0.917189 0.312393
O O19 0.897375 0.000000 0.314404
#
# Coordination Sequence:
#
# PCOD9373487 Si02
#       8
#     8   8   8   8   8   8   8   8
#     4  10  19  33  58  86 120 147 186 230 294 347
#     4  10  18  32  56  84 114 149 182 229 279 347
#     4   8  16  30  52  82 114 143 175 220 277 336
#     4  11  22  37  58  80 108 148 194 237 286 345
#     4  11  23  39  58  82 117 156 198 247 296 348
#     4   9  18  34  56  83 112 146 188 236 285 340
#     4  10  21  37  56  80 108 142 189 236 283 347
#     4  10  20  35  58  86 113 151 187 236 292 350
#
# _framework density 21.281959000000001
#
# number of rings (size 3 to 8) (size 9 to 14) (size 15 to 20)
#    0.000    2.125    2.500    1.875    0.000    2.500 
#    0.000    0.000    0.000    5.625    0.000    0.000 
#    0.000    0.000    0.000    0.000    0.000    0.000 
#
# Total GULP energy -178375.451237 kJ/mol
# GULP energy per Si atom -5574.232851 kJ/mol
# Density = 2.123352 g / cm^3
# Si number density = 21.281959 Si / 1000 Ang^3
#
#
#
# Elastic Constant Matrix: (Units=GPa)
#
#
# Indices 1 2 3 4 5 6 
#
# 1 163.4612 70.8176 -7.5207 -0.0001 0.0000 0.0000
# 2 70.8176 127.2382 12.1917 0.0000 0.0000 0.0000
# 3 -7.5207 12.1917 8.6922 0.0000 0.0000 0.0002
# 4 -0.0001 0.0000 0.0000 49.0539 -0.0001 0.0002
# 5 0.0000 0.0000 0.0000 -0.0001 0.5496 0.0002
# 6 0.0000 0.0000 0.0002 0.0002 0.0002 -98.2542
#
#
#
# Elastic Compliance Matrix: (Units=1/GPa)
#
#
# Indices 1 2 3 4 5 6 
#
# 1 0.010326 -0.007628 0.019634 0.000000 0.000000 0.000000
# 2 -0.007628 0.014715 -0.027240 0.000000 0.000000 0.000000
# 3 0.019634 -0.027240 0.170241 0.000000 -0.000001 0.000000
# 4 0.000000 0.000000 0.000000 0.020386 0.000005 0.000000
# 5 0.000000 0.000000 -0.000001 0.000005 1.819354 0.000004
# 6 0.000000 0.000000 0.000000 0.000000 0.000004 -0.010178
#
#
# Mechanical properties :
#
#
# Convention : Reuss Voigt Hill
#
# Bulk Modulus (GPa) = 6.06748 50.04100 28.05424
# Shear Modulus (GPa) = 2.36939 5.19671 3.78305
#
# Velocity S-wave (km/s) = 1.05629 1.56433 1.33471
# Velocity P-wave (km/s) = 2.08443 5.17950 3.94792
#
# Compressibility (1/GPa) = 0.16481313
#
# Stress axis : x y z
#
# Youngs Moduli (GPa) = 96.84348 67.95706 5.87403
#
# Poissons Ratio (x) = 0.51841 -0.11533
# Poissons Ratio (y) = 0.73877 0.16001
# Poissons Ratio (z) = -1.90143 1.85115
#
# Static dielectric constant tensor:
#      x y z
#    x 1.843570 0.000000 0.000000 
#    y 0.000000 0.991890 0.000000 
#    z 0.000000 0.000000 1.842330 
# 
# From -- ./inp_files/7556.got.cif
#   From: 2010.05.17/outbox.cif.g08.bks.cpg/sg44_4_cif.got.tgz:7556.got - 2010.06.03 19:37:08.
