data_PCOD9373544
_publ_section_title
;
Structure prediction by ZEFSAII (Michael W. Deem and Ramdas Pophale) SiO2 
 PCOD9373544
Probable space group: I M M 2
;
_chemical_formula_sum "Si O2"
_cell_formula_units_Z 58
_cell_length_a 22.591593
_cell_length_b 7.435016
_cell_length_c 15.448198
_cell_angle_alpha 90.000000
_cell_angle_beta 90.000000
_cell_angle_gamma 90.000000
_cell_volume 2594.816136
_symmetry_space_group_name_H-M "I M M 2"
_symmetry_group_IT_number 44
_symmetry_cell_setting 'orthorhombic'
loop_
_space_group_symop_operation_xyz
x,y,z
-x,-y,z
-x,y,z
x,-y,z
1/2+x,1/2+y,1/2+z
1/2-x,1/2-y,1/2+z
1/2-x,1/2+y,1/2+z
1/2+x,1/2-y,1/2+z
loop_
_atom_site_type_symbol
_atom_site_label
_atom_site_fract_x
_atom_site_fract_y
_atom_site_fract_z
Si Si1 0.319854 0.287235 0.684800
Si Si2 0.500000 0.500000 0.381099
Si Si3 0.124598 0.297998 0.638710
Si Si4 0.570048 0.703515 0.967337
Si Si5 0.067911 0.779134 0.281036
Si Si6 0.237987 0.279140 0.538605
Si Si7 0.265876 0.715350 0.347710
Si Si8 0.595448 0.789636 0.324311
O O1 0.327206 0.500000 0.673783
O O2 0.383605 0.216308 0.713194
O O3 0.294766 0.220998 0.593662
O O4 0.272630 0.265964 0.763379
O O5 0.552432 0.658416 0.376323
O O6 0.141158 0.500000 0.666009
O O7 0.083206 0.303070 0.555289
O O8 0.183596 0.214919 0.598123
O O9 0.093577 0.222300 0.723393
O O10 0.500000 0.694301 0.955674
O O11 0.592578 0.500000 0.977384
O O12 0.590957 0.780419 0.875983
O O13 0.000000 0.723510 0.265952
O O14 0.067467 0.000000 0.284082
O O15 0.234789 0.500000 0.537028
O O16 0.237959 0.221225 0.439064
O O17 0.267065 0.500000 0.348961
O O18 0.334322 0.776377 0.345030
O O19 0.577582 0.000000 0.330379
#
# Coordination Sequence:
#
# PCOD9373544 Si02
#       8
#     8   2   8   8   8   8   8   8
#     4  10  18  34  59  83 116 157 203 258 322 388
#     4  12  26  44  68  94 124 180 214 276 332 386
#     4  10  20  34  51  79 117 156 198 252 308 377
#     4   9  18  29  45  71 107 144 185 239 294 363
#     4   8  15  29  50  79 111 147 196 254 312 375
#     4   9  19  34  55  82 117 155 197 256 323 380
#     4  11  21  37  60  87 124 164 211 273 331 385
#     4  11  24  42  65  92 127 169 221 268 325 394
#
# _framework density 22.352257000000002
#
# number of rings (size 3 to 8) (size 9 to 14) (size 15 to 20)
#    0.000    2.207    2.069    2.276    1.931    0.276 
#    0.000    2.069    1.517    1.241    0.000    0.000 
#    0.000    0.000    0.000    0.000    0.000    0.000 
#
# Total GULP energy -161533.390491 kJ/mol
# GULP energy per Si atom -5570.116913 kJ/mol
# Density = 2.230138 g / cm^3
# Si number density = 22.352257 Si / 1000 Ang^3
#
#
#
# Elastic Constant Matrix: (Units=GPa)
#
#
# Indices 1 2 3 4 5 6 
#
# 1 75.5665 -0.0402 -3.5474 0.0000 0.0000 0.0000
# 2 -0.0402 95.9051 -8.1724 0.0000 0.0000 0.0000
# 3 -3.5474 -8.1724 52.0894 0.0000 0.0000 0.0000
# 4 0.0000 0.0000 0.0000 57.8317 0.0000 0.0000
# 5 0.0000 0.0000 0.0000 0.0000 28.9469 0.0000
# 6 0.0000 0.0000 0.0000 0.0000 0.0000 24.0694
#
#
#
# Elastic Compliance Matrix: (Units=1/GPa)
#
#
# Indices 1 2 3 4 5 6 
#
# 1 0.013276 0.000084 0.000917 0.000000 0.000000 0.000000
# 2 0.000084 0.010569 0.001664 0.000000 0.000000 0.000000
# 3 0.000917 0.001664 0.019521 0.000000 0.000000 0.000000
# 4 0.000000 0.000000 0.000000 0.017292 0.000000 0.000000
# 5 0.000000 0.000000 0.000000 0.000000 0.034546 0.000000
# 6 0.000000 0.000000 0.000000 0.000000 0.000000 0.041546
#
#
# Mechanical properties :
#
#
# Convention : Reuss Voigt Hill
#
# Bulk Modulus (GPa) = 20.53543 22.22677 21.38110
# Shear Modulus (GPa) = 33.86319 37.85767 35.86043
#
# Velocity S-wave (km/s) = 3.89650 4.11990 4.00976
# Velocity P-wave (km/s) = 5.42685 5.70937 5.56990
#
# Compressibility (1/GPa) = 0.04869633
#
# Stress axis : x y z
#
# Youngs Moduli (GPa) = 75.32116 94.61819 51.22617
#
# Poissons Ratio (x) = -0.00792 -0.04699
# Poissons Ratio (y) = -0.00631 -0.08523
# Poissons Ratio (z) = -0.06909 -0.15743
#
# Static dielectric constant tensor:
#      x y z
#    x 1.862530 0.000000 0.000000 
#    y 0.000000 1.656480 0.000000 
#    z 0.000000 0.000000 1.843270 
# 
# From -- ./inp_files/19426.got.cif
#   From: 2010.05.17/outbox.cif.g08.bks.cpg/sg44_10_cif.got.tgz:19426.got - 2010.06.03 19:37:08.
