data_PCOD9373004
_publ_section_title
;
Structure prediction by ZEFSAII (Michael W. Deem and Ramdas Pophale) SiO2 
 PCOD9373004
Probable space group: I M M 2
;
_chemical_formula_sum "Si O2"
_cell_formula_units_Z 58
_cell_length_a 18.397669
_cell_length_b 17.862159
_cell_length_c 9.332858
_cell_angle_alpha 90.000000
_cell_angle_beta 90.000000
_cell_angle_gamma 90.000000
_cell_volume 3066.983291
_symmetry_space_group_name_H-M "I M M 2"
_symmetry_group_IT_number 44
_symmetry_cell_setting 'orthorhombic'
loop_
_space_group_symop_operation_xyz
x,y,z
-x,-y,z
-x,y,z
x,-y,z
1/2+x,1/2+y,1/2+z
1/2-x,1/2-y,1/2+z
1/2-x,1/2+y,1/2+z
1/2+x,1/2-y,1/2+z
loop_
_atom_site_type_symbol
_atom_site_label
_atom_site_fract_x
_atom_site_fract_y
_atom_site_fract_z
Si Si1 0.500000 0.000000 0.069391
Si Si2 0.295616 0.913659 0.458532
Si Si3 0.582718 0.090586 0.668649
Si Si4 0.413559 0.284517 0.005208
Si Si5 0.790507 0.085540 0.018358
Si Si6 0.792277 0.801438 0.261248
Si Si7 0.622229 0.882022 0.992742
Si Si8 0.200441 0.852351 0.705730
O O1 0.436880 0.063493 0.056112
O O2 0.372967 0.890935 0.526092
O O3 0.264465 0.855211 0.345402
O O4 0.243948 0.906194 0.597593
O O5 0.297378 0.000000 0.407849
O O6 0.500000 0.116124 0.660235
O O7 0.583510 0.000000 0.680186
O O8 0.614592 0.118356 0.819040
O O9 0.500000 0.296387 0.984453
O O10 0.362299 0.293225 0.864251
O O11 0.397006 0.199457 0.048879
O O12 0.375198 0.333550 0.127798
O O13 0.816675 0.151269 0.123370
O O14 0.703012 0.091963 0.026343
O O15 0.812201 0.000000 0.053010
O O16 0.810031 0.108296 0.857088
O O17 0.750285 0.723580 0.225445
#
# Coordination Sequence:
#
# PCOD9373004 Si02
#       8
#     2   8   8   8   8   8   8   8
#     4  12  20  28  52 100 142 152 196 236 298 392
#     4  10  20  34  56  80 115 156 205 252 304 354
#     4  10  16  27  48  79 119 158 200 238 285 354
#     4  11  23  40  63  88 123 165 206 250 311 362
#     4  12  22  36  63  92 123 159 207 260 314 356
#     4  11  22  39  59  90 123 159 207 254 303 375
#     4  12  18  30  56  91 124 162 195 239 292 377
#     4  11  21  38  61  88 118 159 213 252 291 369
#
# _framework density 18.911090999999999
#
# number of rings (size 3 to 8) (size 9 to 14) (size 15 to 20)
#    0.000    0.966    6.897    1.655    0.000    0.000 
#    0.000    1.379    1.517   15.724    0.000    0.000 
#    0.000    0.000    0.000    0.000    0.000    0.000 
#
# Total GULP energy -161612.156551 kJ/mol
# GULP energy per Si atom -5572.832985 kJ/mol
# Density = 1.886805 g / cm^3
# Si number density = 18.911091 Si / 1000 Ang^3
#
#
#
# Elastic Constant Matrix: (Units=GPa)
#
#
# Indices 1 2 3 4 5 6 
#
# 1 82.9958 11.8650 4.0270 0.0000 0.0000 0.0000
# 2 11.8650 58.7549 -4.2464 0.0000 0.0000 0.0000
# 3 4.0270 -4.2464 38.2142 0.0000 0.0000 0.0000
# 4 0.0000 0.0000 0.0000 25.2180 0.0000 0.0000
# 5 0.0000 0.0000 0.0000 0.0000 738.4475 0.0000
# 6 0.0000 0.0000 0.0000 0.0000 0.0000 28.3881
#
#
#
# Elastic Compliance Matrix: (Units=1/GPa)
#
#
# Indices 1 2 3 4 5 6 
#
# 1 0.012505 -0.002642 -0.001611 0.000000 0.000000 0.000000
# 2 -0.002642 0.017716 0.002247 0.000000 0.000000 0.000000
# 3 -0.001611 0.002247 0.026588 0.000000 0.000000 0.000000
# 4 0.000000 0.000000 0.000000 0.039654 0.000000 0.000000
# 5 0.000000 0.000000 0.000000 0.000000 0.001354 0.000000
# 6 0.000000 0.000000 0.000000 0.000000 0.000000 0.035226
#
#
# Mechanical properties :
#
#
# Convention : Reuss Voigt Hill
#
# Bulk Modulus (GPa) = 18.94075 22.58400 20.76238
# Shear Modulus (GPa) = 32.33041 169.63201 100.98121
#
# Velocity S-wave (km/s) = 4.13922 9.48127 7.31531
# Velocity P-wave (km/s) = 5.73425 11.48161 9.07494
#
# Compressibility (1/GPa) = 0.05279622
#
# Stress axis : x y z
#
# Youngs Moduli (GPa) = 79.97040 56.44710 37.61125
#
# Poissons Ratio (x) = 0.14911 0.06060
# Poissons Ratio (y) = 0.21125 -0.08451
# Poissons Ratio (z) = 0.12885 -0.12683
#
# Static dielectric constant tensor:
#      x y z
#    x 0.079870 0.000000 0.000000 
#    y 0.000000 1.663960 0.000000 
#    z 0.000000 0.000000 1.705050 
# 
# From -- ./inp_files/8330.got.cif
#   From: 2010.05.17/outbox.cif.g08.bks.cpg/sg44_5_cif.got.tgz:8330.got - 2010.06.03 19:37:08.
