data_PCOD9373141
_publ_section_title
;
Structure prediction by ZEFSAII (Michael W. Deem and Ramdas Pophale) SiO2 
 PCOD9373141
Probable space group: I M M 2
;
_chemical_formula_sum "Si O2"
_cell_formula_units_Z 64
_cell_length_a 7.850513
_cell_length_b 27.644888
_cell_length_c 19.116090
_cell_angle_alpha 90.000000
_cell_angle_beta 90.000000
_cell_angle_gamma 90.000000
_cell_volume 4148.699112
_symmetry_space_group_name_H-M "I M M 2"
_symmetry_group_IT_number 44
_symmetry_cell_setting 'orthorhombic'
loop_
_space_group_symop_operation_xyz
x,y,z
-x,-y,z
-x,y,z
x,-y,z
1/2+x,1/2+y,1/2+z
1/2-x,1/2-y,1/2+z
1/2-x,1/2+y,1/2+z
1/2+x,1/2-y,1/2+z
loop_
_atom_site_type_symbol
_atom_site_label
_atom_site_fract_x
_atom_site_fract_y
_atom_site_fract_z
Si Si1 0.702873 0.756471 0.961580
Si Si2 0.290730 0.853407 0.042114
Si Si3 0.794794 0.755954 0.800296
Si Si4 0.803997 0.288191 0.096841
Si Si5 0.305592 0.195322 0.176945
Si Si6 0.205848 0.148616 0.716894
Si Si7 0.294940 0.554386 0.295731
Si Si8 0.294479 0.945550 0.956573
O O1 0.500000 0.755832 0.966370
O O2 0.751961 0.751330 0.881186
O O3 0.762251 0.808285 0.993031
O O4 0.771541 0.715633 0.014441
O O5 0.500000 0.853124 0.043571
O O6 0.230132 0.842293 0.121146
O O7 0.233771 0.903554 0.008209
O O8 0.728160 0.712539 0.750499
O O9 0.735922 0.807233 0.767481
O O10 0.000000 0.755681 0.793518
O O11 0.694078 0.245585 0.132655
O O12 0.761261 0.336659 0.138914
O O13 0.000000 0.275982 0.110230
O O14 0.500000 0.179859 0.190253
O O15 0.268378 0.097447 0.746290
O O16 0.000000 0.148069 0.718551
O O17 0.500000 0.553101 0.289641
O O18 0.230304 0.500000 0.280831
O O19 0.253208 0.565754 0.376471
O O20 0.500000 0.946176 0.960329
O O21 0.232569 0.000000 0.972196
#
# Coordination Sequence:
#
# PCOD9373141 Si02
#       8
#     8   8   8   8   8   8   8   8
#     4  10  18  27  39  54  76 104 130 158 193 233
#     4   8  14  25  39  53  72 103 135 156 186 230
#     4   9  16  25  38  56  76  99 128 161 194 228
#     4  10  18  27  40  57  76  98 129 164 194 230
#     4   8  15  28  41  53  75 104 130 159 196 234
#     4   9  17  29  42  56  79 108 134 161 195 231
#     4   9  17  28  41  57  78 105 135 164 193 226
#     4   9  16  25  38  57  80 104 133 169 199 223
#
# _framework density 15.426522
#
# number of rings (size 3 to 8) (size 9 to 14) (size 15 to 20)
#    0.000    3.000    0.000    3.750    0.000    2.500 
#    0.000    2.500    0.000    0.000    0.000    0.000 
#    0.000    1.000    0.000    4.000    0.000    2.125 
#
# Total GULP energy -178149.349170 kJ/mol
# GULP energy per Si atom -5567.167162 kJ/mol
# Density = 1.539141 g / cm^3
# Si number density = 15.426522 Si / 1000 Ang^3
#
#
#
# Elastic Constant Matrix: (Units=GPa)
#
#
# Indices 1 2 3 4 5 6 
#
# 1 24.9628 8.5001 6.7225 0.0000 0.0000 0.0000
# 2 8.5001 99.9972 68.7081 0.0000 0.0000 0.0000
# 3 6.7225 68.7081 124.7232 0.0000 0.0000 0.0000
# 4 0.0000 0.0000 0.0000 29.8419 0.0000 0.0000
# 5 0.0000 0.0000 0.0000 0.0000 18.5931 0.0000
# 6 0.0000 0.0000 0.0000 0.0000 0.0000 3.2410
#
#
#
# Elastic Compliance Matrix: (Units=1/GPa)
#
#
# Indices 1 2 3 4 5 6 
#
# 1 0.041271 -0.003185 -0.000470 0.000000 0.000000 0.000000
# 2 -0.003185 0.016337 -0.008828 0.000000 0.000000 0.000000
# 3 -0.000470 -0.008828 0.012906 0.000000 0.000000 0.000000
# 4 0.000000 0.000000 0.000000 0.033510 0.000000 0.000000
# 5 0.000000 0.000000 0.000000 0.000000 0.053783 0.000000
# 6 0.000000 0.000000 0.000000 0.000000 0.000000 0.308547
#
#
# Mechanical properties :
#
#
# Convention : Reuss Voigt Hill
#
# Bulk Modulus (GPa) = 21.95504 46.39385 34.17444
# Shear Modulus (GPa) = 9.87162 21.38536 15.62849
#
# Velocity S-wave (km/s) = 2.53239 3.72731 3.18636
# Velocity P-wave (km/s) = 4.77636 6.97590 5.97816
#
# Compressibility (1/GPa) = 0.04554764
#
# Stress axis : x y z
#
# Youngs Moduli (GPa) = 24.23021 61.21155 77.48167
#
# Poissons Ratio (x) = 0.19499 0.03639
# Poissons Ratio (y) = 0.07718 0.68401
# Poissons Ratio (z) = 0.01138 0.54038
#
# Static dielectric constant tensor:
#      x y z
#    x 1.560990 0.000000 0.000000 
#    y 0.000000 1.521690 0.000000 
#    z 0.000000 0.000000 1.528130 
# 
# From -- ./inp_files/20904.got.cif
#   From: 2010.05.17/outbox.cif.g08.bks.cpg/sg44_11_cif.got.tgz:20904.got - 2010.06.03 19:37:08.
