data_PCOD9373912
_publ_section_title
;
Structure prediction by ZEFSAII (Michael W. Deem and Ramdas Pophale) SiO2 
 PCOD9373912
Probable space group: I M M 2
;
_chemical_formula_sum "Si O2"
_cell_formula_units_Z 64
_cell_length_a 23.566586
_cell_length_b 8.912048
_cell_length_c 19.544108
_cell_angle_alpha 90.000000
_cell_angle_beta 90.000000
_cell_angle_gamma 90.000000
_cell_volume 4104.781491
_symmetry_space_group_name_H-M "I M M 2"
_symmetry_group_IT_number 44
_symmetry_cell_setting 'orthorhombic'
loop_
_space_group_symop_operation_xyz
x,y,z
-x,-y,z
-x,y,z
x,-y,z
1/2+x,1/2+y,1/2+z
1/2-x,1/2-y,1/2+z
1/2-x,1/2+y,1/2+z
1/2+x,1/2-y,1/2+z
loop_
_atom_site_type_symbol
_atom_site_label
_atom_site_fract_x
_atom_site_fract_y
_atom_site_fract_z
Si Si1 0.566069 0.178547 0.197790
Si Si2 0.336599 0.321147 0.558506
Si Si3 0.341653 0.321891 0.107135
Si Si4 0.117237 0.179552 0.834835
Si Si5 0.751864 0.320203 0.336781
Si Si6 0.776782 0.679554 0.183741
Si Si7 0.066610 0.679228 0.972440
Si Si8 0.230886 0.820909 0.478191
O O1 0.500000 0.215260 0.187389
O O2 0.605226 0.231773 0.135301
O O3 0.589129 0.259836 0.265683
O O4 0.571190 0.000000 0.207124
O O5 0.337492 0.500000 0.554678
O O6 0.319537 0.265112 0.633957
O O7 0.395033 0.252935 0.531085
O O8 0.286852 0.258311 0.508942
O O9 0.353172 0.500000 0.111865
O O10 0.286837 0.291197 0.155262
O O11 0.320180 0.286583 0.030708
O O12 0.184472 0.213684 0.834489
O O13 0.088394 0.254974 0.900417
O O14 0.110986 0.000000 0.838649
O O15 0.757269 0.500000 0.345395
O O16 0.778197 0.279495 0.263377
O O17 0.777779 0.236618 0.401718
O O18 0.785680 0.500000 0.176883
O O19 0.074714 0.500000 0.972569
O O20 0.000000 0.711254 0.980599
O O21 0.239902 0.000000 0.479973
#
# Coordination Sequence:
#
# PCOD9373912 Si02
#       8
#     8   8   8   8   8   8   8   8
#     4  11  23  35  48  70 100 135 174 212 250 294
#     4  11  21  33  50  74 100 129 168 207 248 296
#     4   9  18  34  51  70  96 130 169 208 249 293
#     4  11  21  34  50  72 101 135 174 208 242 290
#     4  10  19  32  51  76 103 133 167 203 246 298
#     4   9  18  34  52  71 100 130 162 204 249 295
#     4  11  23  37  52  71  98 135 175 210 248 292
#     4  10  20  33  51  73 101 131 163 205 253 301
#
# _framework density 15.591573
#
# number of rings (size 3 to 8) (size 9 to 14) (size 15 to 20)
#    0.000    1.750    2.500    3.750    0.000    7.000 
#    0.000    0.000    0.000    0.000    0.000    0.875 
#    0.000    5.000    0.000    0.000    0.000    0.000 
#
# Total GULP energy -178672.149907 kJ/mol
# GULP energy per Si atom -5583.504685 kJ/mol
# Density = 1.555609 g / cm^3
# Si number density = 15.591573 Si / 1000 Ang^3
#
#
#
# Elastic Constant Matrix: (Units=GPa)
#
#
# Indices 1 2 3 4 5 6 
#
# 1 81.1259 51.0520 61.9134 0.0000 0.0000 0.0000
# 2 51.0520 63.0013 58.9036 0.0000 0.0000 0.0000
# 3 61.9134 58.9036 139.2384 0.0000 0.0000 0.0000
# 4 0.0000 0.0000 0.0000 30.3569 0.0000 0.0000
# 5 0.0000 0.0000 0.0000 0.0000 17.3359 0.0000
# 6 0.0000 0.0000 0.0000 0.0000 0.0000 22.6382
#
#
#
# Elastic Compliance Matrix: (Units=1/GPa)
#
#
# Indices 1 2 3 4 5 6 
#
# 1 0.026761 -0.017470 -0.004509 0.000000 0.000000 0.000000
# 2 -0.017470 0.037663 -0.008165 0.000000 0.000000 0.000000
# 3 -0.004509 -0.008165 0.012641 0.000000 0.000000 0.000000
# 4 0.000000 0.000000 0.000000 0.032941 0.000000 0.000000
# 5 0.000000 0.000000 0.000000 0.000000 0.057684 0.000000
# 6 0.000000 0.000000 0.000000 0.000000 0.000000 0.044173
#
#
# Mechanical properties :
#
#
# Convention : Reuss Voigt Hill
#
# Bulk Modulus (GPa) = 59.60323 69.67819 64.64071
# Shear Modulus (GPa) = 18.00221 21.49931 19.75076
#
# Velocity S-wave (km/s) = 3.40164 3.71739 3.56302
# Velocity P-wave (km/s) = 7.33069 7.95060 7.64693
#
# Compressibility (1/GPa) = 0.01677761
#
# Stress axis : x y z
#
# Youngs Moduli (GPa) = 37.36715 26.55145 79.10706
#
# Poissons Ratio (x) = 0.46385 0.35672
# Poissons Ratio (y) = 0.65279 0.64590
# Poissons Ratio (z) = 0.16850 0.21679
#
# Static dielectric constant tensor:
#      x y z
#    x 1.496390 0.000000 0.000000 
#    y 0.000000 1.518600 0.000000 
#    z 0.000000 0.000000 1.521130 
# 
# From -- ./inp_files/20857.got.cif
#   From: 2010.05.17/outbox.cif.g08.bks.cpg/sg44_11_cif.got.tgz:20857.got - 2010.06.03 19:37:08.
