data_PCOD9373850
_publ_section_title
;
Structure prediction by ZEFSAII (Michael W. Deem and Ramdas Pophale) SiO2 
 PCOD9373850
Probable space group: I M M 2
;
_chemical_formula_sum "Si O2"
_cell_formula_units_Z 40
_cell_length_a 9.457331
_cell_length_b 7.661852
_cell_length_c 30.244516
_cell_angle_alpha 90.000000
_cell_angle_beta 90.000000
_cell_angle_gamma 90.000000
_cell_volume 2191.537906
_symmetry_space_group_name_H-M "I M M 2"
_symmetry_group_IT_number 44
_symmetry_cell_setting 'orthorhombic'
loop_
_space_group_symop_operation_xyz
x,y,z
-x,-y,z
-x,y,z
x,-y,z
1/2+x,1/2+y,1/2+z
1/2-x,1/2-y,1/2+z
1/2-x,1/2+y,1/2+z
1/2+x,1/2-y,1/2+z
loop_
_atom_site_type_symbol
_atom_site_label
_atom_site_fract_x
_atom_site_fract_y
_atom_site_fract_z
Si Si1 0.828866 0.500000 0.381130
Si Si2 0.828023 0.199775 0.313299
Si Si3 0.837522 0.711767 0.630017
Si Si4 0.665111 0.199592 0.542566
Si Si5 0.669511 0.500000 0.473625
Si Si6 0.162621 0.786997 0.215190
O O1 0.787908 0.331222 0.351957
O O2 0.753632 0.500000 0.428138
O O3 0.000000 0.500000 0.386123
O O4 0.785162 0.262381 0.264186
O O5 0.000000 0.196963 0.311729
O O6 0.780695 0.000000 0.320337
O O7 0.834676 0.500000 0.629907
O O8 0.756630 0.772234 0.586320
O O9 0.757633 0.770782 0.674373
O O10 0.000000 0.768173 0.629697
O O11 0.500000 0.233861 0.553698
O O12 0.704917 0.332730 0.503896
O O13 0.678029 0.000000 0.527747
O O14 0.500000 0.500000 0.465676
O O15 0.000000 0.729732 0.209316
O O16 0.161033 0.000000 0.215439
#
# Coordination Sequence:
#
# PCOD9373850 Si02
#       6
#     4   8   8   8   4   8
#     4  10  20  34  56  82 104 134 180 224 267 320
#     4   8  15  30  51  76 106 138 176 222 261 302
#     4  10  19  31  51  80 114 147 177 216 270 324
#     4  10  21  38  59  79 101 138 185 226 267 320
#     4  10  22  40  58  78 108 138 172 226 279 326
#     4   8  14  27  49  73 102 144 185 218 258 308
#
# _framework density 18.252023000000001
#
# number of rings (size 3 to 8) (size 9 to 14) (size 15 to 20)
#    0.000    2.800    1.000    1.800    0.000    2.800 
#    1.800    1.000    0.000    1.200    0.000    0.000 
#    0.000    0.000    0.000    0.000    0.000    0.000 
#
# Total GULP energy -111570.740407 kJ/mol
# GULP energy per Si atom -5578.537020 kJ/mol
# Density = 1.821048 g / cm^3
# Si number density = 18.252023 Si / 1000 Ang^3
#
#
#
# Elastic Constant Matrix: (Units=GPa)
#
#
# Indices 1 2 3 4 5 6 
#
# 1 66.0213 41.9044 83.8647 0.0000 0.0000 0.0000
# 2 41.9044 86.0453 77.6109 0.0000 0.0000 0.0000
# 3 83.8647 77.6109 203.7093 0.0000 0.0000 0.0000
# 4 0.0000 0.0000 0.0000 -27.4183 0.0000 0.0000
# 5 0.0000 0.0000 0.0000 0.0000 35.6628 0.0000
# 6 0.0000 0.0000 0.0000 0.0000 0.0000 9.7298
#
#
#
# Elastic Compliance Matrix: (Units=1/GPa)
#
#
# Indices 1 2 3 4 5 6 
#
# 1 0.033623 -0.005926 -0.011585 0.000000 0.000000 0.000000
# 2 -0.005926 0.018751 -0.004704 0.000000 0.000000 0.000000
# 3 -0.011585 -0.004704 0.011471 0.000000 0.000000 0.000000
# 4 0.000000 0.000000 0.000000 -0.036472 0.000000 0.000000
# 5 0.000000 0.000000 0.000000 0.000000 0.028040 0.000000
# 6 0.000000 0.000000 0.000000 0.000000 0.000000 0.102777
#
#
# Mechanical properties :
#
#
# Convention : Reuss Voigt Hill
#
# Bulk Modulus (GPa) = 51.50543 84.72621 68.11582
# Shear Modulus (GPa) = 23.91294 13.75457 18.83376
#
# Velocity S-wave (km/s) = 3.62353 2.74814 3.21576
# Velocity P-wave (km/s) = 6.76660 7.52268 7.15463
#
# Compressibility (1/GPa) = 0.01941543
#
# Stress axis : x y z
#
# Youngs Moduli (GPa) = 29.74111 53.33114 87.17933
#
# Poissons Ratio (x) = 0.31601 1.00996
# Poissons Ratio (y) = 0.17623 0.41012
# Poissons Ratio (z) = 0.34455 0.25089
#
# Static dielectric constant tensor:
#      x y z
#    x 1.610120 0.000000 0.000000 
#    y 0.000000 1.664690 0.000000 
#    z 0.000000 0.000000 1.592810 
# 
# From -- ./inp_files/25929.got.cif
#   From: 2010.05.17/outbox.cif.g08.bks.cpg/sg44_13_cif.got.tgz:25929.got - 2010.06.03 19:37:08.
