data_PCOD9373273
_publ_section_title
;
Structure prediction by ZEFSAII (Michael W. Deem and Ramdas Pophale) SiO2 
 PCOD9373273
Probable space group: I M M 2
;
_chemical_formula_sum "Si O2"
_cell_formula_units_Z 64
_cell_length_a 8.073911
_cell_length_b 23.969083
_cell_length_c 19.795371
_cell_angle_alpha 90.000000
_cell_angle_beta 90.000000
_cell_angle_gamma 90.000000
_cell_volume 3830.884186
_symmetry_space_group_name_H-M "I M M 2"
_symmetry_group_IT_number 44
_symmetry_cell_setting 'orthorhombic'
loop_
_space_group_symop_operation_xyz
x,y,z
-x,-y,z
-x,y,z
x,-y,z
1/2+x,1/2+y,1/2+z
1/2-x,1/2-y,1/2+z
1/2-x,1/2+y,1/2+z
1/2+x,1/2-y,1/2+z
loop_
_atom_site_type_symbol
_atom_site_label
_atom_site_fract_x
_atom_site_fract_y
_atom_site_fract_z
Si Si1 0.195160 0.063636 0.182450
Si Si2 0.202001 0.770104 0.665231
Si Si3 0.701110 0.667689 0.035097
Si Si4 0.302951 0.437643 0.953179
Si Si5 0.195746 0.657471 0.588835
Si Si6 0.802431 0.219487 0.959635
Si Si7 0.202666 0.750123 0.814235
Si Si8 0.805355 0.621348 0.818844
O O1 0.224317 0.101375 0.116653
O O2 0.279794 0.093727 0.245995
O O3 0.000000 0.062458 0.196963
O O4 0.254001 0.000000 0.174782
O O5 0.253563 0.816924 0.611332
O O6 0.254741 0.710364 0.634020
O O7 0.257391 0.774762 0.742397
O O8 0.000000 0.769563 0.665399
O O9 0.500000 0.667755 0.033540
O O10 0.762622 0.609671 0.004181
O O11 0.758407 0.719308 0.988809
O O12 0.500000 0.440868 0.964728
O O13 0.233380 0.500000 0.960530
O O14 0.277086 0.414745 0.877598
O O15 0.229253 0.674892 0.511831
O O16 0.000000 0.652681 0.599318
O O17 0.743833 0.218489 0.882136
O O18 0.000000 0.213400 0.960710
O O19 0.255749 0.685274 0.818061
O O20 0.000000 0.749901 0.814084
O O21 0.000000 0.623146 0.834171
#
# Coordination Sequence:
#
# PCOD9373273 Si02
#       8
#     8   8   8   8   8   8   8   8
#     4  11  23  36  49  69  98 130 164 202 243 283
#     4   8  14  27  46  66  87 113 152 195 236 277
#     4   9  17  29  46  65  86 120 161 201 241 285
#     4  10  20  32  44  63  94 128 162 202 245 284
#     4  10  19  33  51  70  94 125 162 199 235 284
#     4  10  18  29  47  69  95 122 152 195 246 290
#     4   9  16  27  45  69  94 122 153 192 238 283
#     4  11  20  32  47  67  95 129 169 202 230 278
#
# _framework density 16.706327000000002
#
# number of rings (size 3 to 8) (size 9 to 14) (size 15 to 20)
#    0.000    2.250    2.500    2.625    0.000    2.750 
#    0.000    0.000    0.000    0.000    0.000    0.875 
#    0.000    5.000    0.000    0.000    0.000    0.250 
#
# Total GULP energy -178454.857042 kJ/mol
# GULP energy per Si atom -5576.714283 kJ/mol
# Density = 1.666830 g / cm^3
# Si number density = 16.706327 Si / 1000 Ang^3
#
#
#
# Elastic Constant Matrix: (Units=GPa)
#
#
# Indices 1 2 3 4 5 6 
#
# 1 12.5716 -3.7704 -7.6855 0.0000 0.0000 0.0000
# 2 -3.7704 68.7134 40.4331 0.0000 0.0000 0.0000
# 3 -7.6855 40.4331 122.1790 0.0000 0.0000 0.0000
# 4 0.0000 0.0000 0.0000 15.0256 0.0000 0.0000
# 5 0.0000 0.0000 0.0000 0.0000 16.4738 0.0000
# 6 0.0000 0.0000 0.0000 0.0000 0.0000 13.2450
#
#
#
# Elastic Compliance Matrix: (Units=1/GPa)
#
#
# Indices 1 2 3 4 5 6 
#
# 1 0.082912 0.001839 0.004607 0.000000 0.000000 0.000000
# 2 0.001839 0.018113 -0.005879 0.000000 0.000000 0.000000
# 3 0.004607 -0.005879 0.010420 0.000000 0.000000 0.000000
# 4 0.000000 0.000000 0.000000 0.066553 0.000000 0.000000
# 5 0.000000 0.000000 0.000000 0.000000 0.060702 0.000000
# 6 0.000000 0.000000 0.000000 0.000000 0.000000 0.075500
#
#
# Mechanical properties :
#
#
# Convention : Reuss Voigt Hill
#
# Bulk Modulus (GPa) = 8.88263 29.04649 18.96456
# Shear Modulus (GPa) = 14.26152 20.58133 17.42143
#
# Velocity S-wave (km/s) = 2.92492 3.51372 3.23275
# Velocity P-wave (km/s) = 4.09088 5.82116 5.03096
#
# Compressibility (1/GPa) = 0.11257921
#
# Stress axis : x y z
#
# Youngs Moduli (GPa) = 12.06097 55.20816 95.96972
#
# Poissons Ratio (x) = -0.10150 -0.44214
# Poissons Ratio (y) = -0.02217 0.56417
# Poissons Ratio (z) = -0.05557 0.32455
#
# Static dielectric constant tensor:
#      x y z
#    x 1.588820 0.000000 0.000000 
#    y 0.000000 1.554710 0.000000 
#    z 0.000000 0.000000 1.575950 
# 
# From -- ./inp_files/20893.got.cif
#   From: 2010.05.17/outbox.cif.g08.bks.cpg/sg44_11_cif.got.tgz:20893.got - 2010.06.03 19:37:08.
