data_PCOD9373143
_publ_section_title
;
Structure prediction by ZEFSAII (Michael W. Deem and Ramdas Pophale) SiO2 
 PCOD9373143
Probable space group: I M M 2
;
_chemical_formula_sum "Si O2"
_cell_formula_units_Z 64
_cell_length_a 19.539363
_cell_length_b 7.406574
_cell_length_c 22.171498
_cell_angle_alpha 90.000000
_cell_angle_beta 90.000000
_cell_angle_gamma 90.000000
_cell_volume 3208.653381
_symmetry_space_group_name_H-M "I M M 2"
_symmetry_group_IT_number 44
_symmetry_cell_setting 'orthorhombic'
loop_
_space_group_symop_operation_xyz
x,y,z
-x,-y,z
-x,y,z
x,-y,z
1/2+x,1/2+y,1/2+z
1/2-x,1/2-y,1/2+z
1/2-x,1/2+y,1/2+z
1/2+x,1/2-y,1/2+z
loop_
_atom_site_type_symbol
_atom_site_label
_atom_site_fract_x
_atom_site_fract_y
_atom_site_fract_z
Si Si1 0.280060 0.218849 0.611910
Si Si2 0.574923 0.216483 0.118673
Si Si3 0.925747 0.712080 0.068936
Si Si4 0.422769 0.278988 0.307237
Si Si5 0.128543 0.218214 0.938148
Si Si6 0.814202 0.201084 0.711882
Si Si7 0.724222 0.785848 0.979189
Si Si8 0.925224 0.719140 0.476773
O O1 0.356888 0.285723 0.599329
O O2 0.248951 0.285766 0.675246
O O3 0.236471 0.263642 0.551462
O O4 0.280310 0.000000 0.614850
O O5 0.500000 0.262720 0.142826
O O6 0.631925 0.310521 0.157139
O O7 0.584369 0.000000 0.123364
O O8 0.575336 0.260289 0.048192
O O9 0.927224 0.500000 0.083811
O O10 0.000000 0.789436 0.084500
O O11 0.913368 0.727337 0.997244
O O12 0.500000 0.220835 0.291049
O O13 0.422532 0.500000 0.303701
O O14 0.405354 0.225972 0.375649
O O15 0.360741 0.215183 0.264382
O O16 0.206706 0.284322 0.947720
O O17 0.130294 0.000000 0.937925
O O18 0.793598 0.000000 0.732691
O O19 0.650221 0.715876 0.957093
O O20 0.722715 0.000000 0.968480
O O21 0.925552 0.500000 0.471131
O O22 0.000000 0.781062 0.452939
#
# Coordination Sequence:
#
# PCOD9373143 Si02
#       8
#     8   8   8   8   8   8   8   8
#     4   9  17  27  39  58  80 101 129 163 198 238
#     4   9  16  25  37  53  76 106 134 160 191 227
#     4   9  17  29  44  61  82 105 127 159 206 250
#     4   9  17  28  40  56  81 110 137 165 196 230
#     4   9  17  28  44  63  80 103 137 172 200 230
#     4  10  18  27  40  56  77 107 138 165 195 230
#     4   9  15  25  42  60  77 101 133 164 199 240
#     4   8  13  21  34  53  77 102 125 151 189 235
#
# _framework density 19.946064
#
# number of rings (size 3 to 8) (size 9 to 14) (size 15 to 20)
#    0.000    3.000    1.250    1.500    0.000    1.500 
#    0.000    0.625    0.000    2.625    0.000    0.875 
#    0.000    7.000    0.000    0.000    0.000   14.125 
#
# Total GULP energy -178250.424687 kJ/mol
# GULP energy per Si atom -5570.325771 kJ/mol
# Density = 1.990067 g / cm^3
# Si number density = 19.946064 Si / 1000 Ang^3
#
#
#
# Elastic Constant Matrix: (Units=GPa)
#
#
# Indices 1 2 3 4 5 6 
#
# 1 163.7435 2.0766 34.4366 0.0000 0.0000 0.0000
# 2 2.0766 62.6752 -4.4982 0.0000 0.0000 0.0000
# 3 34.4366 -4.4982 60.3295 0.0000 0.0000 0.0000
# 4 0.0000 0.0000 0.0000 10.9306 0.0000 0.0000
# 5 0.0000 0.0000 0.0000 0.0000 23.9852 0.0000
# 6 0.0000 0.0000 0.0000 0.0000 0.0000 2.9664
#
#
#
# Elastic Compliance Matrix: (Units=1/GPa)
#
#
# Indices 1 2 3 4 5 6 
#
# 1 0.006957 -0.000518 -0.004010 0.000000 0.000000 0.000000
# 2 -0.000518 0.016080 0.001495 0.000000 0.000000 0.000000
# 3 -0.004010 0.001495 0.018976 0.000000 0.000000 0.000000
# 4 0.000000 0.000000 0.000000 0.091486 0.000000 0.000000
# 5 0.000000 0.000000 0.000000 0.000000 0.041692 0.000000
# 6 0.000000 0.000000 0.000000 0.000000 0.000000 0.337107
#
#
# Mechanical properties :
#
#
# Convention : Reuss Voigt Hill
#
# Bulk Modulus (GPa) = 27.81950 38.97538 33.39744
# Shear Modulus (GPa) = 9.42779 24.55865 16.99322
#
# Velocity S-wave (km/s) = 2.17644 3.51273 2.92200
# Velocity P-wave (km/s) = 4.50483 6.00293 5.30701
#
# Compressibility (1/GPa) = 0.03594600
#
# Stress axis : x y z
#
# Youngs Moduli (GPa) = 143.74076 62.19017 52.69843
#
# Poissons Ratio (x) = 0.03223 0.21131
# Poissons Ratio (y) = 0.07450 -0.07877
# Poissons Ratio (z) = 0.57636 -0.09296
#
# Static dielectric constant tensor:
#      x y z
#    x 1.796920 0.000000 0.000000 
#    y 0.000000 1.716830 0.000000 
#    z 0.000000 0.000000 1.671400 
# 
# From -- ./inp_files/23402.got.cif
#   From: 2010.05.17/outbox.cif.g08.bks.cpg/sg44_12_cif.got.tgz:23402.got - 2010.06.03 19:37:08.
