data_PCOD9373876
_publ_section_title
;
Structure prediction by ZEFSAII (Michael W. Deem and Ramdas Pophale) SiO2 
 PCOD9373876
Probable space group: I M M 2
;
_chemical_formula_sum "Si O2"
_cell_formula_units_Z 64
_cell_length_a 7.698049
_cell_length_b 29.900499
_cell_length_c 13.535478
_cell_angle_alpha 90.000000
_cell_angle_beta 90.000000
_cell_angle_gamma 90.000000
_cell_volume 3115.535503
_symmetry_space_group_name_H-M "I M M 2"
_symmetry_group_IT_number 44
_symmetry_cell_setting 'orthorhombic'
loop_
_space_group_symop_operation_xyz
x,y,z
-x,-y,z
-x,y,z
x,-y,z
1/2+x,1/2+y,1/2+z
1/2-x,1/2-y,1/2+z
1/2-x,1/2+y,1/2+z
1/2+x,1/2-y,1/2+z
loop_
_atom_site_type_symbol
_atom_site_label
_atom_site_fract_x
_atom_site_fract_y
_atom_site_fract_z
Si Si1 0.198600 0.259790 0.779450
Si Si2 0.791340 0.115694 0.039744
Si Si3 0.288174 0.447990 0.363680
Si Si4 0.300308 0.290967 0.459333
Si Si5 0.290518 0.448416 0.143274
Si Si6 0.301535 0.206791 0.600709
Si Si7 0.207058 0.377149 0.976622
Si Si8 0.290943 0.139118 0.256302
O O1 0.289085 0.234205 0.868918
O O2 0.197388 0.222674 0.695020
O O3 0.270036 0.308623 0.750145
O O4 0.000000 0.270025 0.811188
O O5 0.756043 0.112576 0.156725
O O6 0.000000 0.115370 0.033062
O O7 0.727591 0.079784 0.959001
O O8 0.723125 0.164019 0.003351
O O9 0.500000 0.446457 0.363766
O O10 0.238401 0.500000 0.371941
O O11 0.233342 0.432101 0.253207
O O12 0.500000 0.302874 0.429461
O O13 0.310604 0.252388 0.539564
O O14 0.500000 0.448571 0.145120
O O15 0.232704 0.500000 0.132268
O O16 0.237963 0.418248 0.050541
O O17 0.500000 0.194615 0.629529
O O18 0.227632 0.167157 0.533623
O O19 0.000000 0.371107 0.967778
O O20 0.271298 0.379372 0.863161
O O21 0.500000 0.138914 0.256641
#
# Coordination Sequence:
#
# PCOD9373876 Si02
#       8
#     8   8   8   8   8   8   8   8
#     4  10  19  32  49  69  98 138 176 212 256 303
#     4  10  19  32  54  78 100 135 176 212 257 311
#     4   8  16  33  56  81 106 130 162 210 265 313
#     4   9  17  30  48  70  98 133 173 210 248 300
#     4   9  19  37  60  84 107 130 165 218 267 307
#     4  10  19  33  49  70 102 136 172 215 254 295
#     4  10  21  36  54  76 106 145 178 208 259 319
#     4  10  20  35  51  71 105 143 176 213 256 302
#
# _framework density 20.542214999999999
#
# number of rings (size 3 to 8) (size 9 to 14) (size 15 to 20)
#    0.000    2.500    2.500    0.750    1.750    1.250 
#    0.000    2.500    0.000    3.375    0.000    0.000 
#    0.000    0.000    0.000    0.000    0.000    0.000 
#
# Total GULP energy -178225.233879 kJ/mol
# GULP energy per Si atom -5569.538559 kJ/mol
# Density = 2.049546 g / cm^3
# Si number density = 20.542215 Si / 1000 Ang^3
#
#
#
# Elastic Constant Matrix: (Units=GPa)
#
#
# Indices 1 2 3 4 5 6 
#
# 1 33.1983 -0.6178 2.2779 0.0000 0.0000 0.0000
# 2 -0.6178 82.3082 63.0152 -0.0002 0.0000 0.0000
# 3 2.2779 63.0152 151.0296 -0.0004 0.0000 0.0000
# 4 0.0000 -0.0002 -0.0004 36.6259 0.0000 0.0000
# 5 0.0000 0.0000 0.0000 0.0000 17.7981 0.0000
# 6 0.0000 0.0000 0.0000 0.0000 0.0000 9.0863
#
#
#
# Elastic Compliance Matrix: (Units=1/GPa)
#
#
# Indices 1 2 3 4 5 6 
#
# 1 0.030193 0.000845 -0.000808 0.000000 0.000000 0.000000
# 2 0.000845 0.017876 -0.007471 0.000000 0.000000 0.000000
# 3 -0.000808 -0.007471 0.009751 0.000000 0.000000 0.000000
# 4 0.000000 0.000000 0.000000 0.027303 0.000000 0.000000
# 5 0.000000 0.000000 0.000000 0.000000 0.056186 0.000000
# 6 0.000000 0.000000 0.000000 0.000000 0.000000 0.110055
#
#
# Mechanical properties :
#
#
# Convention : Reuss Voigt Hill
#
# Bulk Modulus (GPa) = 23.28201 43.98742 33.63471
# Shear Modulus (GPa) = 17.82220 26.15945 21.99082
#
# Velocity S-wave (km/s) = 2.94868 3.57241 3.27543
# Velocity P-wave (km/s) = 4.79075 6.20289 5.54198
#
# Compressibility (1/GPa) = 0.04295163
#
# Stress axis : x y z
#
# Youngs Moduli (GPa) = 33.12007 55.94176 102.55721
#
# Poissons Ratio (x) = -0.04729 0.08287
# Poissons Ratio (y) = -0.02800 0.76622
# Poissons Ratio (z) = 0.02676 0.41795
#
# Static dielectric constant tensor:
#      x y z
#    x 1.792690 0.000000 0.000000 
#    y 0.000000 1.723410 0.000000 
#    z 0.000000 0.000000 1.813570 
# 
# From -- ./inp_files/11491.got.cif
#   From: 2010.05.17/outbox.cif.g08.bks.cpg/sg44_6_cif.got.tgz:11491.got - 2010.06.03 19:37:08.
