data_PCOD9373892
_publ_section_title
;
Structure prediction by ZEFSAII (Michael W. Deem and Ramdas Pophale) SiO2 
 PCOD9373892
Probable space group: I M M 2
;
_chemical_formula_sum "Si O2"
_cell_formula_units_Z 48
_cell_length_a 7.997212
_cell_length_b 9.127826
_cell_length_c 35.284669
_cell_angle_alpha 90.000000
_cell_angle_beta 90.000000
_cell_angle_gamma 90.000000
_cell_volume 2575.680615
_symmetry_space_group_name_H-M "I M M 2"
_symmetry_group_IT_number 44
_symmetry_cell_setting 'orthorhombic'
loop_
_space_group_symop_operation_xyz
x,y,z
-x,-y,z
-x,y,z
x,-y,z
1/2+x,1/2+y,1/2+z
1/2-x,1/2-y,1/2+z
1/2-x,1/2+y,1/2+z
1/2+x,1/2-y,1/2+z
loop_
_atom_site_type_symbol
_atom_site_label
_atom_site_fract_x
_atom_site_fract_y
_atom_site_fract_z
Si Si1 0.688172 0.176267 0.173150
Si Si2 0.000000 0.821561 0.121609
Si Si3 0.698138 0.331035 0.402886
Si Si4 0.297612 0.828636 0.749932
Si Si5 0.684940 0.178572 0.984718
Si Si6 0.000000 0.179236 0.034507
Si Si7 0.702269 0.331736 0.826775
O O1 0.500000 0.210847 0.159970
O O2 0.720473 0.247828 0.213903
O O3 0.834102 0.224213 0.144430
O O4 0.700607 0.000000 0.177037
O O5 0.000000 0.772859 0.078091
O O6 0.000000 0.000000 0.121156
O O7 0.500000 0.331425 0.410367
O O8 0.751320 0.500000 0.396338
O O9 0.784920 0.275564 0.441223
O O10 0.735788 0.239605 0.365553
O O11 0.500000 0.813947 0.747382
O O12 0.243259 0.756929 0.789567
O O13 0.256399 0.000000 0.749443
O O14 0.500000 0.222488 0.997497
O O15 0.834858 0.226999 0.011799
O O16 0.690982 0.000000 0.984123
O O17 0.000000 0.000000 0.034422
O O18 0.500000 0.327919 0.827469
O O19 0.756032 0.500000 0.823855
#
# Coordination Sequence:
#
# PCOD9373892 Si02
#       7
#     8   4   8   8   8   4   8
#     4  10  20  34  54  79 108 146 184 219 270 328
#     4   9  18  32  51  75 111 147 179 227 273 321
#     4  10  19  32  50  73 104 141 183 227 269 317
#     4  10  20  35  56  79 104 139 182 226 274 324
#     4   9  16  27  46  72 105 143 179 221 270 317
#     4   9  16  28  46  75 109 141 179 221 271 327
#     4  10  21  35  52  76 106 141 180 224 272 323
#
# _framework density 18.635850000000001
#
# number of rings (size 3 to 8) (size 9 to 14) (size 15 to 20)
#    0.000    2.333    1.667    1.500    0.000    4.333 
#    0.000    3.333    0.000    0.000    0.000    2.333 
#    0.000    0.000    0.000    0.000    0.000    0.000 
#
# Total GULP energy -133944.205698 kJ/mol
# GULP energy per Si atom -5581.008571 kJ/mol
# Density = 1.859343 g / cm^3
# Si number density = 18.635850 Si / 1000 Ang^3
#
#
#
# Elastic Constant Matrix: (Units=GPa)
#
#
# Indices 1 2 3 4 5 6 
#
# 1 121.2754 32.3952 84.3026 0.0000 0.0000 0.0000
# 2 32.3952 30.7450 29.2243 0.0000 0.0000 0.0000
# 3 84.3026 29.2243 155.4581 0.0000 0.0000 0.0000
# 4 0.0000 0.0000 0.0000 17.9141 0.0000 0.0000
# 5 0.0000 0.0000 0.0000 0.0000 20.8882 0.0000
# 6 0.0000 0.0000 0.0000 0.0000 0.0000 14.0013
#
#
#
# Elastic Compliance Matrix: (Units=1/GPa)
#
#
# Indices 1 2 3 4 5 6 
#
# 1 0.015452 -0.010126 -0.006476 0.000000 0.000000 0.000000
# 2 -0.010126 0.046238 -0.003201 0.000000 0.000000 0.000000
# 3 -0.006476 -0.003201 0.010546 0.000000 0.000000 0.000000
# 4 0.000000 0.000000 0.000000 0.055822 0.000000 0.000000
# 5 0.000000 0.000000 0.000000 0.000000 0.047874 0.000000
# 6 0.000000 0.000000 0.000000 0.000000 0.000000 0.071422
#
#
# Mechanical properties :
#
#
# Convention : Reuss Voigt Hill
#
# Bulk Modulus (GPa) = 30.64635 66.59140 48.61888
# Shear Modulus (GPa) = 16.78773 21.33113 19.05943
#
# Velocity S-wave (km/s) = 3.00464 3.38691 3.20148
# Velocity P-wave (km/s) = 5.34019 7.14880 6.30964
#
# Compressibility (1/GPa) = 0.03263031
#
# Stress axis : x y z
#
# Youngs Moduli (GPa) = 64.71579 21.62737 94.82132
#
# Poissons Ratio (x) = 0.21900 0.61406
# Poissons Ratio (y) = 0.65531 0.30352
# Poissons Ratio (z) = 0.41909 0.06923
#
# Static dielectric constant tensor:
#      x y z
#    x 1.668430 0.000000 0.000000 
#    y 0.000000 1.627700 0.000000 
#    z 0.000000 0.000000 1.606260 
# 
# From -- ./inp_files/26972.got.cif
#   From: 2010.05.17/outbox.cif.g08.bks.cpg/sg44_14_cif.got.tgz:26972.got - 2010.06.03 19:37:08.
