data_PCOD9373431
_publ_section_title
;
Structure prediction by ZEFSAII (Michael W. Deem and Ramdas Pophale) SiO2 
 PCOD9373431
Probable space group: I M M 2
;
_chemical_formula_sum "Si O2"
_cell_formula_units_Z 64
_cell_length_a 8.689651
_cell_length_b 25.906504
_cell_length_c 15.333010
_cell_angle_alpha 90.000000
_cell_angle_beta 90.000000
_cell_angle_gamma 90.000000
_cell_volume 3451.743880
_symmetry_space_group_name_H-M "I M M 2"
_symmetry_group_IT_number 44
_symmetry_cell_setting 'orthorhombic'
loop_
_space_group_symop_operation_xyz
x,y,z
-x,-y,z
-x,y,z
x,-y,z
1/2+x,1/2+y,1/2+z
1/2-x,1/2-y,1/2+z
1/2-x,1/2+y,1/2+z
1/2+x,1/2-y,1/2+z
loop_
_atom_site_type_symbol
_atom_site_label
_atom_site_fract_x
_atom_site_fract_y
_atom_site_fract_z
Si Si1 0.812233 0.940648 0.072410
Si Si2 0.316969 0.361983 0.422965
Si Si3 0.685981 0.388844 0.754496
Si Si4 0.186186 0.848701 0.555907
Si Si5 0.319874 0.778177 0.228838
Si Si6 0.818898 0.734649 0.520175
Si Si7 0.812389 0.941944 0.433689
Si Si8 0.318234 0.831918 0.746552
O O1 0.763746 0.914152 0.163116
O O2 0.000000 0.940572 0.072924
O O3 0.762004 0.000000 0.067360
O O4 0.763114 0.905933 0.990617
O O5 0.500000 0.365826 0.413762
O O6 0.274215 0.307072 0.465990
O O7 0.241126 0.364406 0.328385
O O8 0.500000 0.385249 0.753317
O O9 0.752781 0.331610 0.763189
O O10 0.730581 0.423949 0.836515
O O11 0.232602 0.794187 0.511750
O O12 0.238431 0.898247 0.501628
O O13 0.244567 0.848608 0.654817
O O14 0.000000 0.847800 0.558123
O O15 0.500000 0.773100 0.249264
O O16 0.304175 0.778031 0.123261
O O17 0.232551 0.727511 0.261596
O O18 0.000000 0.730861 0.496923
O O19 0.000000 0.942378 0.436309
O O20 0.759333 0.000000 0.452409
O O21 0.500000 0.834633 0.739836
#
# Coordination Sequence:
#
# PCOD9373431 Si02
#       8
#     8   8   8   8   8   8   8   8
#     4   9  18  33  54  82 116 150 188 232 273 323
#     4  11  21  34  55  84 114 147 189 233 279 332
#     4  10  18  31  55  87 117 150 188 225 273 331
#     4   9  19  37  57  81 113 148 187 234 284 331
#     4  10  20  35  54  81 116 150 184 225 275 330
#     4   9  18  32  51  77 112 148 180 224 277 332
#     4   9  18  33  57  87 115 146 189 236 279 327
#     4  11  23  38  57  79 109 148 190 236 289 340
#
# _framework density 18.541352
#
# number of rings (size 3 to 8) (size 9 to 14) (size 15 to 20)
#    0.000    2.250    1.250    3.000    1.750    3.500 
#    0.000    1.250    0.000    9.375    0.000    0.000 
#    0.000    0.000    0.000    0.000    0.000    0.000 
#
# Total GULP energy -178662.792586 kJ/mol
# GULP energy per Si atom -5583.212268 kJ/mol
# Density = 1.849915 g / cm^3
# Si number density = 18.541352 Si / 1000 Ang^3
#
#
#
# Elastic Constant Matrix: (Units=GPa)
#
#
# Indices 1 2 3 4 5 6 
#
# 1 20.6121 11.2565 10.6364 0.0000 0.0000 0.0000
# 2 11.2565 132.4722 59.8260 0.0000 0.0000 0.0000
# 3 10.6364 59.8260 80.8257 0.0001 0.0000 0.0000
# 4 0.0000 0.0000 0.0001 27.6724 0.0000 0.0000
# 5 0.0000 0.0000 0.0000 0.0000 19.0026 0.0000
# 6 0.0000 0.0000 0.0000 0.0000 0.0000 18.8986
#
#
#
# Elastic Compliance Matrix: (Units=1/GPa)
#
#
# Indices 1 2 3 4 5 6 
#
# 1 0.052404 -0.002011 -0.005408 0.000000 0.000000 0.000000
# 2 -0.002011 0.011416 -0.008186 0.000000 0.000000 0.000000
# 3 -0.005408 -0.008186 0.019143 0.000000 0.000000 0.000000
# 4 0.000000 0.000000 0.000000 0.036137 0.000000 0.000000
# 5 0.000000 0.000000 0.000000 0.000000 0.052624 0.000000
# 6 0.000000 0.000000 0.000000 0.000000 0.000000 0.052914
#
#
# Mechanical properties :
#
#
# Convention : Reuss Voigt Hill
#
# Bulk Modulus (GPa) = 19.32189 44.14975 31.73582
# Shear Modulus (GPa) = 18.30841 23.26078 20.78460
#
# Velocity S-wave (km/s) = 3.14576 3.54578 3.35175
# Velocity P-wave (km/s) = 4.86189 6.37390 5.66854
#
# Compressibility (1/GPa) = 0.05175476
#
# Stress axis : x y z
#
# Youngs Moduli (GPa) = 19.08252 87.59404 52.23884
#
# Poissons Ratio (x) = 0.17611 0.28251
# Poissons Ratio (y) = 0.03837 0.42761
# Poissons Ratio (z) = 0.10320 0.71701
#
# Static dielectric constant tensor:
#      x y z
#    x 1.630590 0.000000 0.000000 
#    y 0.000000 1.627470 0.000000 
#    z 0.000000 0.000000 1.639360 
# 
# From -- ./inp_files/16893.got.cif
#   From: 2010.05.17/outbox.cif.g08.bks.cpg/sg44_9_cif.got.tgz:16893.got - 2010.06.03 19:37:08.
