data_PCOD9373225
_publ_section_title
;
Structure prediction by ZEFSAII (Michael W. Deem and Ramdas Pophale) SiO2 
 PCOD9373225
Probable space group: I M M 2
;
_chemical_formula_sum "Si O2"
_cell_formula_units_Z 56
_cell_length_a 8.650269
_cell_length_b 14.089188
_cell_length_c 30.299028
_cell_angle_alpha 90.000000
_cell_angle_beta 90.000000
_cell_angle_gamma 90.000000
_cell_volume 3692.702103
_symmetry_space_group_name_H-M "I M M 2"
_symmetry_group_IT_number 44
_symmetry_cell_setting 'orthorhombic'
loop_
_space_group_symop_operation_xyz
x,y,z
-x,-y,z
-x,y,z
x,-y,z
1/2+x,1/2+y,1/2+z
1/2-x,1/2-y,1/2+z
1/2-x,1/2+y,1/2+z
1/2+x,1/2-y,1/2+z
loop_
_atom_site_type_symbol
_atom_site_label
_atom_site_fract_x
_atom_site_fract_y
_atom_site_fract_z
Si Si1 0.813907 0.714335 0.130930
Si Si2 0.814540 0.390630 0.679295
Si Si3 0.321015 0.615274 0.950013
Si Si4 0.314008 0.714392 0.764684
Si Si5 0.814353 0.390731 0.042902
Si Si6 0.685441 0.390552 0.216361
Si Si7 0.188773 0.890114 0.353302
O O1 0.749723 0.817968 0.142901
O O2 0.762157 0.673488 0.083763
O O3 0.754157 0.645593 0.169870
O O4 0.000000 0.716314 0.132415
O O5 0.772371 0.500000 0.671553
O O6 0.746795 0.354333 0.725881
O O7 0.000000 0.382797 0.680933
O O8 0.500000 0.643806 0.953477
O O9 0.316452 0.500000 0.948736
O O10 0.259042 0.644256 0.901806
O O11 0.236079 0.644274 0.994643
O O12 0.500000 0.715973 0.762919
O O13 0.249759 0.818049 0.752816
O O14 0.264388 0.673861 0.812069
O O15 0.758800 0.500000 0.048487
O O16 0.000000 0.393263 0.044134
O O17 0.500000 0.382312 0.214512
O O18 0.726841 0.500000 0.224155
O O19 0.000000 0.890724 0.354756
O O20 0.236507 0.000000 0.346582
#
# Coordination Sequence:
#
# PCOD9373225 Si02
#       7
#     8   8   8   8   8   8   8
#     4  10  19  30  46  65  85 112 145 178 211 250
#     4  10  20  32  44  61  88 116 142 176 213 250
#     4   8  14  25  41  60  83 112 142 169 201 246
#     4  10  18  28  46  67  86 112 145 178 211 249
#     4   9  17  28  41  61  89 114 137 170 210 249
#     4  10  20  32  44  60  86 116 144 177 214 252
#     4   8  14  25  41  63  89 113 139 171 205 244
#
# _framework density 15.165046999999999
#
# number of rings (size 3 to 8) (size 9 to 14) (size 15 to 20)
#    0.000    2.714    0.000    5.143    0.000    4.571 
#    0.000    2.857    0.000    3.429    0.000    1.000 
#    0.000    1.143    0.000    0.000    0.000    0.000 
#
# Total GULP energy -155999.848631 kJ/mol
# GULP energy per Si atom -5571.423165 kJ/mol
# Density = 1.513053 g / cm^3
# Si number density = 15.165047 Si / 1000 Ang^3
#
#
#
# Elastic Constant Matrix: (Units=GPa)
#
#
# Indices 1 2 3 4 5 6 
#
# 1 33.3382 31.4857 28.0826 0.0000 0.0000 0.0000
# 2 31.4857 111.6980 75.8998 0.0000 0.0000 0.0000
# 3 28.0826 75.8998 150.9794 0.0000 0.0000 0.0000
# 4 0.0000 0.0000 0.0000 24.4112 0.0000 0.0000
# 5 0.0000 0.0000 0.0000 0.0000 20.8954 0.0000
# 6 0.0000 0.0000 0.0000 0.0000 0.0000 18.6258
#
#
#
# Elastic Compliance Matrix: (Units=1/GPa)
#
#
# Indices 1 2 3 4 5 6 
#
# 1 0.041644 -0.009835 -0.002802 0.000000 0.000000 0.000000
# 2 -0.009835 0.015920 -0.006174 0.000000 0.000000 0.000000
# 3 -0.002802 -0.006174 0.010248 0.000000 0.000000 0.000000
# 4 0.000000 0.000000 0.000000 0.040965 0.000000 0.000000
# 5 0.000000 0.000000 0.000000 0.000000 0.047857 0.000000
# 6 0.000000 0.000000 0.000000 0.000000 0.000000 0.053689
#
#
# Mechanical properties :
#
#
# Convention : Reuss Voigt Hill
#
# Bulk Modulus (GPa) = 33.12213 62.99466 48.05839
# Shear Modulus (GPa) = 19.37915 23.48966 21.43441
#
# Velocity S-wave (km/s) = 3.57863 3.93992 3.76361
# Velocity P-wave (km/s) = 6.24211 7.89473 7.11656
#
# Compressibility (1/GPa) = 0.03019129
#
# Stress axis : x y z
#
# Youngs Moduli (GPa) = 24.01301 62.81266 97.57641
#
# Poissons Ratio (x) = 0.61776 0.27339
# Poissons Ratio (y) = 0.23617 0.60245
# Poissons Ratio (z) = 0.06728 0.38781
#
# Static dielectric constant tensor:
#      x y z
#    x 1.518570 0.000000 0.000000 
#    y 0.000000 1.490470 0.000000 
#    z 0.000000 0.000000 1.510610 
# 
# From -- ./inp_files/27228.got.cif
#   From: 2010.05.17/outbox.cif.g08.bks.cpg/sg44_14_cif.got.tgz:27228.got - 2010.06.03 19:37:08.
