data_PCOD9373540
_publ_section_title
;
Structure prediction by ZEFSAII (Michael W. Deem and Ramdas Pophale) SiO2 
 PCOD9373540
Probable space group: I M M 2
;
_chemical_formula_sum "Si O2"
_cell_formula_units_Z 64
_cell_length_a 23.705489
_cell_length_b 13.795712
_cell_length_c 11.287634
_cell_angle_alpha 90.000000
_cell_angle_beta 90.000000
_cell_angle_gamma 90.000000
_cell_volume 3691.441216
_symmetry_space_group_name_H-M "I M M 2"
_symmetry_group_IT_number 44
_symmetry_cell_setting 'orthorhombic'
loop_
_space_group_symop_operation_xyz
x,y,z
-x,-y,z
-x,y,z
x,-y,z
1/2+x,1/2+y,1/2+z
1/2-x,1/2-y,1/2+z
1/2-x,1/2+y,1/2+z
1/2+x,1/2-y,1/2+z
loop_
_atom_site_type_symbol
_atom_site_label
_atom_site_fract_x
_atom_site_fract_y
_atom_site_fract_z
Si Si1 0.565676 0.790552 0.817550
Si Si2 0.325396 0.799182 0.454881
Si Si3 0.565669 0.885000 0.563465
Si Si4 0.281909 0.389681 0.062768
Si Si5 0.218091 0.110319 0.072332
Si Si6 0.149222 0.890272 0.317550
Si Si7 0.325396 0.200818 0.180219
Si Si8 0.565669 0.115000 0.071634
O O1 0.500000 0.761756 0.817550
O O2 0.575356 0.853346 0.699604
O O3 0.604115 0.695460 0.817550
O O4 0.575356 0.853346 0.935496
O O5 0.389168 0.826867 0.486402
O O6 0.282824 0.861038 0.537004
O O7 0.310005 0.688404 0.485877
O O8 0.314275 0.819733 0.317550
O O9 0.500000 0.863974 0.534762
O O10 0.574359 0.000000 0.549594
O O11 0.286413 0.500000 0.104103
O O12 0.313166 0.381102 0.935682
O O13 0.310005 0.311596 0.149223
O O14 0.186834 0.118898 0.199418
O O15 0.282824 0.138961 0.098096
O O16 0.213587 0.000000 0.030997
O O17 0.125105 0.000000 0.317550
O O18 0.389168 0.173133 0.148698
O O19 0.500000 0.136026 0.100338
O O20 0.574358 0.000000 0.085505
#
# Coordination Sequence:
#
# PCOD9373540 Si02
#       8
#     8   8   8   8   8   8   8   8
#     4  10  19  35  56  81 111 143 182 226 271 316
#     4  11  22  36  57  81 110 145 181 221 268 324
#     4  10  21  36  55  80 110 145 183 224 270 320
#     4  10  21  37  56  81 111 141 176 221 273 326
#     4  10  21  37  56  81 111 141 176 221 273 326
#     4  10  18  34  59  82 107 139 177 224 274 321
#     4  11  22  36  57  81 110 145 181 221 268 324
#     4  10  21  36  55  80 110 145 183 224 270 320
#
# _framework density 17.337402000000001
#
# number of rings (size 3 to 8) (size 9 to 14) (size 15 to 20)
#    0.000    1.750    3.750    1.125    0.000    4.250 
#    0.000    1.250    0.000    0.750    0.000    1.750 
#    0.000    0.000    0.000    0.000    0.000    0.000 
#
# Total GULP energy -178596.996503 kJ/mol
# GULP energy per Si atom -5581.156141 kJ/mol
# Density = 1.729794 g / cm^3
# Si number density = 17.337402 Si / 1000 Ang^3
#
#
#
# Elastic Constant Matrix: (Units=GPa)
#
#
# Indices 1 2 3 4 5 6 
#
# 1 87.7174 56.4852 25.7186 0.0000 0.0000 0.0000
# 2 56.4852 86.6478 3.1941 0.0000 0.0000 0.0000
# 3 25.7186 3.1941 26.0637 0.0000 0.0000 0.0000
# 4 0.0000 0.0000 0.0000 19.3929 0.0000 0.0000
# 5 0.0000 0.0000 0.0000 0.0000 19.3834 0.0000
# 6 0.0000 0.0000 0.0000 0.0000 0.0000 25.5131
#
#
#
# Elastic Compliance Matrix: (Units=1/GPa)
#
#
# Indices 1 2 3 4 5 6 
#
# 1 0.034057 -0.021058 -0.031025 0.000000 0.000000 0.000000
# 2 -0.021058 0.024614 0.017763 0.000000 0.000000 0.000000
# 3 -0.031025 0.017763 0.066805 0.000000 0.000000 0.000000
# 4 0.000000 0.000000 0.000000 0.051565 0.000000 0.000000
# 5 0.000000 0.000000 0.000000 0.000000 0.051591 0.000000
# 6 0.000000 0.000000 0.000000 0.000000 0.000000 0.039196
#
#
# Mechanical properties :
#
#
# Convention : Reuss Voigt Hill
#
# Bulk Modulus (GPa) = 17.59484 41.24719 29.42102
# Shear Modulus (GPa) = 14.06811 20.52661 17.29736
#
# Velocity S-wave (km/s) = 2.85165 3.44459 3.16205
# Velocity P-wave (km/s) = 4.58400 6.29784 5.50799
#
# Compressibility (1/GPa) = 0.05683483
#
# Stress axis : x y z
#
# Youngs Moduli (GPa) = 29.36258 40.62784 14.96883
#
# Poissons Ratio (x) = 0.85553 0.46441
# Poissons Ratio (y) = 0.61831 -0.26589
# Poissons Ratio (z) = 0.91099 -0.72166
#
# Static dielectric constant tensor:
#      x y z
#    x 1.577430 0.000000 0.000000 
#    y 0.000000 1.572910 0.000000 
#    z 0.000000 0.000000 1.562780 
# 
# From -- ./inp_files/14695.got.cif
#   From: 2010.05.17/outbox.cif.g08.bks.cpg/sg44_8_cif.got.tgz:14695.got - 2010.06.03 19:37:08.
