data_PCOD9373104
_publ_section_title
;
Structure prediction by ZEFSAII (Michael W. Deem and Ramdas Pophale) SiO2 
 PCOD9373104
Probable space group: I M M 2
;
_chemical_formula_sum "Si O2"
_cell_formula_units_Z 36
_cell_length_a 13.494120
_cell_length_b 14.921318
_cell_length_c 8.117691
_cell_angle_alpha 90.000000
_cell_angle_beta 90.000000
_cell_angle_gamma 90.000000
_cell_volume 1634.497535
_symmetry_space_group_name_H-M "I M M 2"
_symmetry_group_IT_number 44
_symmetry_cell_setting 'orthorhombic'
loop_
_space_group_symop_operation_xyz
x,y,z
-x,-y,z
-x,y,z
x,-y,z
1/2+x,1/2+y,1/2+z
1/2-x,1/2-y,1/2+z
1/2-x,1/2+y,1/2+z
1/2+x,1/2-y,1/2+z
loop_
_atom_site_type_symbol
_atom_site_label
_atom_site_fract_x
_atom_site_fract_y
_atom_site_fract_z
Si Si1 0.380190 0.000000 0.122491
Si Si2 0.379860 0.193698 0.260540
Si Si3 0.879980 0.194164 0.440970
Si Si4 0.117768 0.000000 0.549583
Si Si5 0.701394 0.000000 0.755815
Si Si6 0.120057 0.688785 0.130326
O O1 0.355047 0.090903 0.218001
O O2 0.500000 0.000000 0.094112
O O3 0.327061 0.000000 0.946585
O O4 0.500000 0.198572 0.262074
O O5 0.348505 0.257383 0.110333
O O6 0.347870 0.215815 0.446170
O O7 0.847854 0.244322 0.275680
O O8 0.000000 0.199600 0.439788
O O9 0.855636 0.089672 0.451048
O O10 0.182045 0.000000 0.715690
O O11 0.000000 0.000000 0.582421
O O12 0.656216 0.910725 0.674597
O O13 0.000000 0.686745 0.131028
#
# Coordination Sequence:
#
# PCOD9373104 Si02
#       6
#     4   8   8   4   4   8
#     4  10  17  30  57  99 145 169 190 249 336 405
#     4   9  17  31  57  93 131 166 194 244 322 392
#     4   9  18  38  63  84 119 169 215 257 305 369
#     4  10  24  45  64  84 123 181 230 265 307 363
#     4  12  21  35  61  97 124 168 212 260 327 378
#     4  10  19  34  63 101 133 158 197 259 332 396
#
# _framework density 22.025117000000002
#
# number of rings (size 3 to 8) (size 9 to 14) (size 15 to 20)
#    0.000    2.222    2.222    1.667    0.000    1.778 
#    4.000    1.111    4.889    6.667    0.000    0.000 
#    0.000    0.000    0.000    0.000    0.000    0.000 
#
# Total GULP energy -100715.086613 kJ/mol
# GULP energy per Si atom -5595.282590 kJ/mol
# Density = 2.197499 g / cm^3
# Si number density = 22.025117 Si / 1000 Ang^3
#
#
#
# Elastic Constant Matrix: (Units=GPa)
#
#
# Indices 1 2 3 4 5 6 
#
# 1 98.8859 30.6553 56.2092 0.0000 0.0000 0.0000
# 2 30.6553 188.3797 114.0381 0.0000 0.0000 0.0000
# 3 56.2092 114.0381 226.5564 0.0000 0.0000 0.0000
# 4 0.0000 0.0000 0.0000 26.1256 0.0000 0.0000
# 5 0.0000 0.0000 0.0000 0.0000 44.9567 0.0000
# 6 0.0000 0.0000 0.0000 0.0000 0.0000 2.8317
#
#
#
# Elastic Compliance Matrix: (Units=1/GPa)
#
#
# Indices 1 2 3 4 5 6 
#
# 1 0.011779 -0.000212 -0.002815 0.000000 0.000000 0.000000
# 2 -0.000212 0.007639 -0.003792 0.000000 0.000000 0.000000
# 3 -0.002815 -0.003792 0.007021 0.000000 0.000000 0.000000
# 4 0.000000 0.000000 0.000000 0.038277 0.000000 0.000000
# 5 0.000000 0.000000 0.000000 0.000000 0.022244 0.000000
# 6 0.000000 0.000000 0.000000 0.000000 0.000000 0.353149
#
#
# Mechanical properties :
#
#
# Convention : Reuss Voigt Hill
#
# Bulk Modulus (GPa) = 78.13363 101.73638 89.93500
# Shear Modulus (GPa) = 10.91669 35.64407 23.28038
#
# Velocity S-wave (km/s) = 2.22873 4.02722 3.25467
# Velocity P-wave (km/s) = 6.49421 8.24112 7.41926
#
# Compressibility (1/GPa) = 0.01279859
#
# Stress axis : x y z
#
# Youngs Moduli (GPa) = 84.89767 130.91239 142.42406
#
# Poissons Ratio (x) = 0.02781 0.40099
# Poissons Ratio (y) = 0.01803 0.54011
# Poissons Ratio (z) = 0.23902 0.49645
#
# Static dielectric constant tensor:
#      x y z
#    x 1.847400 0.000000 0.000000 
#    y 0.000000 1.752450 0.000000 
#    z 0.000000 0.000000 1.765640 
# 
# From -- ./inp_files/6786.got.cif
#   From: 2010.05.17/outbox.cif.g08.bks.cpg/sg44_4_cif.got.tgz:6786.got - 2010.06.03 19:37:08.
