data_PCOD9373097
_publ_section_title
;
Structure prediction by ZEFSAII (Michael W. Deem and Ramdas Pophale) SiO2 
 PCOD9373097
Probable space group: I M M 2
;
_chemical_formula_sum "Si O2"
_cell_formula_units_Z 64
_cell_length_a 14.181635
_cell_length_b 24.012945
_cell_length_c 9.570740
_cell_angle_alpha 90.000000
_cell_angle_beta 90.000000
_cell_angle_gamma 90.000000
_cell_volume 3259.246801
_symmetry_space_group_name_H-M "I M M 2"
_symmetry_group_IT_number 44
_symmetry_cell_setting 'orthorhombic'
loop_
_space_group_symop_operation_xyz
x,y,z
-x,-y,z
-x,y,z
x,-y,z
1/2+x,1/2+y,1/2+z
1/2-x,1/2-y,1/2+z
1/2-x,1/2+y,1/2+z
1/2+x,1/2-y,1/2+z
loop_
_atom_site_type_symbol
_atom_site_label
_atom_site_fract_x
_atom_site_fract_y
_atom_site_fract_z
Si Si1 0.609654 0.934918 0.824040
Si Si2 0.102049 0.565972 0.661079
Si Si3 0.607452 0.560061 0.057869
Si Si4 0.609826 0.344564 0.584557
Si Si5 0.894809 0.180340 0.630547
Si Si6 0.255448 0.165279 0.832166
Si Si7 0.609136 0.735877 0.837651
Si Si8 0.199348 0.935219 0.263871
O O1 0.500000 0.923818 0.780976
O O2 0.686962 0.889235 0.778072
O O3 0.630572 0.000000 0.788201
O O4 0.611049 0.930536 0.993453
O O5 0.099118 0.500000 0.695176
O O6 0.196427 0.588372 0.731458
O O7 0.000000 0.590297 0.701548
O O8 0.500000 0.560026 0.000442
O O9 0.623095 0.500000 0.126738
O O10 0.676289 0.566139 0.927314
O O11 0.610921 0.613735 0.153574
O O12 0.500000 0.339320 0.541694
O O13 0.682429 0.347442 0.456611
O O14 0.633864 0.294519 0.692530
O O15 0.624982 0.399771 0.676918
O O16 0.806453 0.199303 0.718748
O O17 0.883198 0.193046 0.467044
O O18 0.000000 0.199856 0.670696
O O19 0.333541 0.209613 0.877630
O O20 0.500000 0.751569 0.825885
O O21 0.196343 0.000000 0.219910
#
# Coordination Sequence:
#
# PCOD9373097 Si02
#       8
#     8   8   8   8   8   8   8   8
#     4   9  18  33  52  76 108 143 179 219 266 324
#     4   8  14  26  45  72 107 140 172 216 264 308
#     4   9  17  31  53  78 105 145 189 216 250 324
#     4  11  22  36  55  83 115 142 176 226 276 318
#     4  10  21  38  56  79 113 145 177 222 273 323
#     4  12  22  35  58  85 109 139 179 227 281 324
#     4  10  22  41  60  77 103 144 190 225 260 324
#     4  10  17  29  53  82 109 144 185 219 260 318
#
# _framework density 19.636437000000001
#
# number of rings (size 3 to 8) (size 9 to 14) (size 15 to 20)
#    0.000    2.125    2.500    2.625    0.000    1.250 
#    0.000    0.000    0.000    4.500    0.000    1.750 
#    0.000    0.000    0.000    0.000    0.000    0.000 
#
# Total GULP energy -178261.876317 kJ/mol
# GULP energy per Si atom -5570.683635 kJ/mol
# Density = 1.959174 g / cm^3
# Si number density = 19.636437 Si / 1000 Ang^3
#
#
#
# Elastic Constant Matrix: (Units=GPa)
#
#
# Indices 1 2 3 4 5 6 
#
# 1 92.5076 24.7050 17.0887 0.0000 0.0000 0.0000
# 2 24.7050 57.0720 -6.3932 -0.0001 -0.0001 0.0000
# 3 17.0887 -6.3932 24.5077 0.0008 -0.0001 0.0000
# 4 0.0000 -0.0001 0.0008 11.2672 0.0000 0.0000
# 5 0.0000 -0.0001 -0.0001 0.0000 19.2259 0.0000
# 6 0.0000 0.0000 0.0000 0.0000 0.0000 28.3619
#
#
#
# Elastic Compliance Matrix: (Units=1/GPa)
#
#
# Indices 1 2 3 4 5 6 
#
# 1 0.015328 -0.008068 -0.012792 0.000001 0.000000 0.000000
# 2 -0.008068 0.022296 0.011442 -0.000001 0.000000 0.000000
# 3 -0.012792 0.011442 0.052708 -0.000003 0.000000 0.000000
# 4 0.000001 -0.000001 -0.000003 0.088753 0.000000 0.000000
# 5 0.000000 0.000000 0.000000 0.000000 0.052013 0.000000
# 6 0.000000 0.000000 0.000000 0.000000 0.000000 0.035259
#
#
# Mechanical properties :
#
#
# Convention : Reuss Voigt Hill
#
# Bulk Modulus (GPa) = 13.98704 27.20981 20.59843
# Shear Modulus (GPa) = 16.17994 21.01681 18.59837
#
# Velocity S-wave (km/s) = 2.87361 3.27509 3.08090
# Velocity P-wave (km/s) = 4.26012 5.30928 4.81337
#
# Compressibility (1/GPa) = 0.07149478
#
# Stress axis : x y z
#
# Youngs Moduli (GPa) = 65.24174 44.85141 18.97244
#
# Poissons Ratio (x) = 0.36186 0.24270
# Poissons Ratio (y) = 0.52637 -0.21708
# Poissons Ratio (z) = 0.83459 -0.51318
#
# Static dielectric constant tensor:
#      x y z
#    x 1.738090 0.000000 0.000000 
#    y 0.000000 1.721570 0.000000 
#    z 0.000000 0.000000 1.675160 
# 
# From -- ./inp_files/7571.got.cif
#   From: 2010.05.17/outbox.cif.g08.bks.cpg/sg44_4_cif.got.tgz:7571.got - 2010.06.03 19:37:08.
