data_PCOD9373188
_publ_section_title
;
Structure prediction by ZEFSAII (Michael W. Deem and Ramdas Pophale) SiO2 
 PCOD9373188
Probable space group: I M M 2
;
_chemical_formula_sum "Si O2"
_cell_formula_units_Z 64
_cell_length_a 24.163086
_cell_length_b 16.477943
_cell_length_c 9.663261
_cell_angle_alpha 90.000000
_cell_angle_beta 90.000000
_cell_angle_gamma 90.000000
_cell_volume 3847.504227
_symmetry_space_group_name_H-M "I M M 2"
_symmetry_group_IT_number 44
_symmetry_cell_setting 'orthorhombic'
loop_
_space_group_symop_operation_xyz
x,y,z
-x,-y,z
-x,y,z
x,-y,z
1/2+x,1/2+y,1/2+z
1/2-x,1/2-y,1/2+z
1/2-x,1/2+y,1/2+z
1/2+x,1/2-y,1/2+z
loop_
_atom_site_type_symbol
_atom_site_label
_atom_site_fract_x
_atom_site_fract_y
_atom_site_fract_z
Si Si1 0.273415 0.285916 0.054260
Si Si2 0.937982 0.402835 0.597223
Si Si3 0.873464 0.403307 0.873219
Si Si4 0.245108 0.909726 0.317370
Si Si5 0.730327 0.588827 0.292993
Si Si6 0.356216 0.766690 0.602163
Si Si7 0.659381 0.590390 0.568207
Si Si8 0.843177 0.658450 0.401279
O O1 0.283975 0.338143 0.190610
O O2 0.209405 0.260771 0.066692
O O3 0.277430 0.344217 0.922530
O O4 0.314215 0.214006 0.018086
O O5 0.940274 0.500000 0.599190
O O6 0.914544 0.380445 0.748896
O O7 0.895598 0.379859 0.476161
O O8 0.000000 0.370589 0.575604
O O9 0.881135 0.500000 0.911837
O O10 0.811151 0.397820 0.810174
O O11 0.877336 0.338871 0.999956
O O12 0.210233 0.905352 0.177624
O O13 0.237191 0.000000 0.374790
O O14 0.727802 0.500000 0.225058
O O15 0.687782 0.590790 0.418628
O O16 0.792800 0.601288 0.349561
O O17 0.375848 0.673321 0.583763
O O18 0.360853 0.794237 0.761602
O O19 0.633425 0.500000 0.588349
#
# Coordination Sequence:
#
# PCOD9373188 Si02
#       8
#     8   8   8   8   8   8   8   8
#     4  10  19  28  45  70 106 136 171 202 248 299
#     4  10  22  39  56  74  97 130 177 229 273 312
#     4   9  19  33  53  73  98 137 177 215 260 309
#     4   9  16  28  45  67 100 139 171 196 237 301
#     4  10  20  30  44  69 105 141 175 204 243 302
#     4  10  20  31  48  75 109 138 173 210 252 311
#     4  10  18  28  42  66 104 141 169 200 235 288
#     4  11  20  31  51  74 102 140 176 213 260 306
#
# _framework density 16.634159
#
# number of rings (size 3 to 8) (size 9 to 14) (size 15 to 20)
#    0.000    2.125    2.500    1.500    1.750    5.500 
#    0.000    0.625    0.000    1.500    0.000    0.000 
#    0.000    9.000    0.000    0.000    0.000    0.000 
#
# Total GULP energy -178261.997349 kJ/mol
# GULP energy per Si atom -5570.687417 kJ/mol
# Density = 1.659630 g / cm^3
# Si number density = 16.634159 Si / 1000 Ang^3
#
#
#
# Elastic Constant Matrix: (Units=GPa)
#
#
# Indices 1 2 3 4 5 6 
#
# 1 38.1534 6.0732 22.1403 0.0000 0.0000 0.0000
# 2 6.0732 87.6385 38.6120 0.0000 0.0000 0.0000
# 3 22.1403 38.6120 84.0797 0.0000 0.0000 0.0000
# 4 0.0000 0.0000 0.0000 22.8924 0.0000 0.0000
# 5 0.0000 0.0000 0.0000 0.0000 9.0431 0.0000
# 6 0.0000 0.0000 0.0000 0.0000 0.0000 13.5248
#
#
#
# Elastic Compliance Matrix: (Units=1/GPa)
#
#
# Indices 1 2 3 4 5 6 
#
# 1 0.031169 0.001825 -0.009046 0.000000 0.000000 0.000000
# 2 0.001825 0.014412 -0.007099 0.000000 0.000000 0.000000
# 3 -0.009046 -0.007099 0.017536 0.000000 0.000000 0.000000
# 4 0.000000 0.000000 0.000000 0.043683 0.000000 0.000000
# 5 0.000000 0.000000 0.000000 0.000000 0.110582 0.000000
# 6 0.000000 0.000000 0.000000 0.000000 0.000000 0.073938
#
#
# Mechanical properties :
#
#
# Convention : Reuss Voigt Hill
#
# Bulk Modulus (GPa) = 29.00460 38.16917 33.58688
# Shear Modulus (GPa) = 15.08524 18.62846 16.85685
#
# Velocity S-wave (km/s) = 3.01472 3.35011 3.18683
# Velocity P-wave (km/s) = 5.43991 6.16120 5.81176
#
# Compressibility (1/GPa) = 0.03447730
#
# Stress axis : x y z
#
# Youngs Moduli (GPa) = 32.08349 69.38804 57.02705
#
# Poissons Ratio (x) = -0.12667 0.51586
# Poissons Ratio (y) = -0.05857 0.40483
# Poissons Ratio (z) = 0.29022 0.49259
#
# Static dielectric constant tensor:
#      x y z
#    x 1.523900 0.000000 0.000000 
#    y 0.000000 1.606960 0.000000 
#    z 0.000000 0.000000 1.571000 
# 
# From -- ./inp_files/9518.got.cif
#   From: 2010.05.17/outbox.cif.g08.bks.cpg/sg44_5_cif.got.tgz:9518.got - 2010.06.03 19:37:08.
