data_PCOD9373393
_publ_section_title
;
Structure prediction by ZEFSAII (Michael W. Deem and Ramdas Pophale) SiO2 
 PCOD9373393
Probable space group: I M M 2
;
_chemical_formula_sum "Si O2"
_cell_formula_units_Z 40
_cell_length_a 8.360888
_cell_length_b 19.124157
_cell_length_c 14.045806
_cell_angle_alpha 90.000000
_cell_angle_beta 90.000000
_cell_angle_gamma 90.000000
_cell_volume 2245.853234
_symmetry_space_group_name_H-M "I M M 2"
_symmetry_group_IT_number 44
_symmetry_cell_setting 'orthorhombic'
loop_
_space_group_symop_operation_xyz
x,y,z
-x,-y,z
-x,y,z
x,-y,z
1/2+x,1/2+y,1/2+z
1/2-x,1/2-y,1/2+z
1/2-x,1/2+y,1/2+z
1/2+x,1/2-y,1/2+z
loop_
_atom_site_type_symbol
_atom_site_label
_atom_site_fract_x
_atom_site_fract_y
_atom_site_fract_z
Si Si1 0.309248 0.500000 0.335011
Si Si2 0.690948 0.857517 0.742321
Si Si3 0.691614 0.712322 0.054345
Si Si4 0.194822 0.785845 0.340485
Si Si5 0.693813 0.645114 0.647410
Si Si6 0.304431 0.500000 0.553879
O O1 0.500000 0.500000 0.338362
O O2 0.254354 0.430270 0.281547
O O3 0.250057 0.500000 0.444315
O O4 0.500000 0.858433 0.746081
O O5 0.742614 0.839332 0.635004
O O6 0.746706 0.791676 0.806926
O O7 0.500000 0.708668 0.055984
O O8 0.743762 0.790407 0.084554
O O9 0.749108 0.697699 0.947020
O O10 0.243217 0.838480 0.256212
O O11 0.000000 0.785464 0.341996
O O12 0.500000 0.647257 0.644346
O O13 0.747057 0.570680 0.606979
O O14 0.500000 0.500000 0.554105
#
# Coordination Sequence:
#
# PCOD9373393 Si02
#       6
#     4   8   8   8   8   4
#     4  11  21  33  50  77 104 128 161 207 252 291
#     4  10  20  35  52  73 100 134 168 201 244 301
#     4  10  18  31  50  74  99 127 165 212 251 287
#     4   8  16  30  50  72  97 128 166 203 243 292
#     4   9  17  32  50  72 100 133 168 202 243 300
#     4   9  18  31  52  77 102 130 165 205 248 293
#
# _framework density 17.810601999999999
#
# number of rings (size 3 to 8) (size 9 to 14) (size 15 to 20)
#    0.000    2.600    0.000    3.900    0.000    0.000 
#    0.000   11.500    0.000    3.600    0.000    0.000 
#    0.000    0.000    0.000    0.000    0.000    0.000 
#
# Total GULP energy -111551.411081 kJ/mol
# GULP energy per Si atom -5577.570554 kJ/mol
# Density = 1.777006 g / cm^3
# Si number density = 17.810602 Si / 1000 Ang^3
#
#
#
# Elastic Constant Matrix: (Units=GPa)
#
#
# Indices 1 2 3 4 5 6 
#
# 1 27.8290 22.0190 21.6016 0.0000 0.0000 0.0000
# 2 22.0190 153.2116 99.1182 0.0000 0.0000 0.0000
# 3 21.6016 99.1182 178.0832 0.0000 0.0000 0.0000
# 4 0.0000 0.0000 0.0000 9.4880 0.0000 0.0000
# 5 0.0000 0.0000 0.0000 0.0000 17.5034 0.0000
# 6 0.0000 0.0000 0.0000 0.0000 0.0000 22.6906
#
#
#
# Elastic Compliance Matrix: (Units=1/GPa)
#
#
# Indices 1 2 3 4 5 6 
#
# 1 0.041340 -0.004215 -0.002669 0.000000 0.000000 0.000000
# 2 -0.004215 0.010629 -0.005405 0.000000 0.000000 0.000000
# 3 -0.002669 -0.005405 0.008947 0.000000 0.000000 0.000000
# 4 0.000000 0.000000 0.000000 0.105397 0.000000 0.000000
# 5 0.000000 0.000000 0.000000 0.000000 0.057132 0.000000
# 6 0.000000 0.000000 0.000000 0.000000 0.000000 0.044071
#
#
# Mechanical properties :
#
#
# Convention : Reuss Voigt Hill
#
# Bulk Modulus (GPa) = 27.51789 71.62240 49.57014
# Shear Modulus (GPa) = 16.43624 24.36206 20.39915
#
# Velocity S-wave (km/s) = 3.04111 3.70244 3.38795
# Velocity P-wave (km/s) = 5.27399 7.65363 6.57241
#
# Compressibility (1/GPa) = 0.03634000
#
# Stress axis : x y z
#
# Youngs Moduli (GPa) = 24.18963 94.08044 111.76571
#
# Poissons Ratio (x) = 0.39653 0.29827
# Poissons Ratio (y) = 0.10195 0.60407
# Poissons Ratio (z) = 0.06456 0.50848
#
# Static dielectric constant tensor:
#      x y z
#    x 1.611910 0.000000 0.000000 
#    y 0.000000 1.588770 0.000000 
#    z 0.000000 0.000000 1.619850 
# 
# From -- ./inp_files/16275.got.cif
#   From: 2010.05.17/outbox.cif.g08.bks.cpg/sg44_9_cif.got.tgz:16275.got - 2010.06.03 19:37:08.
