data_PCOD9373481
_publ_section_title
;
Structure prediction by ZEFSAII (Michael W. Deem and Ramdas Pophale) SiO2 
 PCOD9373481
Probable space group: I M M 2
;
_chemical_formula_sum "Si O2"
_cell_formula_units_Z 48
_cell_length_a 8.296548
_cell_length_b 10.277846
_cell_length_c 28.702796
_cell_angle_alpha 90.000000
_cell_angle_beta 90.000000
_cell_angle_gamma 90.000000
_cell_volume 2447.505862
_symmetry_space_group_name_H-M "I M M 2"
_symmetry_group_IT_number 44
_symmetry_cell_setting 'orthorhombic'
loop_
_space_group_symop_operation_xyz
x,y,z
-x,-y,z
-x,y,z
x,-y,z
1/2+x,1/2+y,1/2+z
1/2-x,1/2-y,1/2+z
1/2-x,1/2+y,1/2+z
1/2+x,1/2-y,1/2+z
loop_
_atom_site_type_symbol
_atom_site_label
_atom_site_fract_x
_atom_site_fract_y
_atom_site_fract_z
Si Si1 0.697474 0.848377 0.936830
Si Si2 0.193752 0.848990 0.517922
Si Si3 0.305160 0.244392 0.835074
Si Si4 0.686876 0.500000 0.168401
Si Si5 0.192255 0.500000 0.269889
Si Si6 0.304799 0.500000 0.781291
Si Si7 0.310661 0.748620 0.617072
Si Si8 0.690195 0.000000 0.174267
O O1 0.500000 0.850019 0.936935
O O2 0.751602 0.792414 0.886774
O O3 0.747060 0.000000 0.943066
O O4 0.750228 0.747577 0.976843
O O5 0.236481 0.782104 0.566872
O O6 0.000000 0.856004 0.514397
O O7 0.253143 0.000000 0.515907
O O8 0.500000 0.256637 0.838915
O O9 0.245768 0.374150 0.809760
O O10 0.273134 0.125137 0.800921
O O11 0.500000 0.500000 0.153762
O O12 0.705351 0.500000 0.223494
O O13 0.773027 0.373655 0.148391
O O14 0.000000 0.500000 0.258300
O O15 0.500000 0.500000 0.782543
O O16 0.260275 0.500000 0.726742
O O17 0.500000 0.730185 0.611281
O O18 0.241726 0.625084 0.644306
O O19 0.500000 0.000000 0.179354
#
# Coordination Sequence:
#
# PCOD9373481 Si02
#       8
#     8   8   8   4   4   4   8   4
#     4   9  17  31  53  86 122 157 200 250 303 359
#     4  10  21  36  58  89 123 158 202 255 310 366
#     4   9  17  30  52  83 119 154 197 250 298 353
#     4  12  24  40  63  92 123 161 206 255 311 372
#     4  10  18  32  55  82 113 155 200 247 299 356
#     4  10  20  34  55  86 121 157 202 251 301 360
#     4  12  25  43  65  90 123 163 207 256 311 375
#     4  12  26  44  65  90 125 165 208 259 313 372
#
# _framework density 19.611802999999998
#
# number of rings (size 3 to 8) (size 9 to 14) (size 15 to 20)
#    0.000    1.667    1.667    4.000    2.333    1.333 
#    0.000    0.000    0.000    2.000    0.000    0.000 
#    0.000    0.000    0.000    0.000    0.000    0.000 
#
# Total GULP energy -134029.103265 kJ/mol
# GULP energy per Si atom -5584.545969 kJ/mol
# Density = 1.956717 g / cm^3
# Si number density = 19.611803 Si / 1000 Ang^3
#
#
#
# Elastic Constant Matrix: (Units=GPa)
#
#
# Indices 1 2 3 4 5 6 
#
# 1 15.0834 12.6465 6.8254 0.0000 0.0000 0.0000
# 2 12.6465 196.7081 93.3568 0.0000 0.0000 0.0000
# 3 6.8254 93.3568 162.8041 0.0000 0.0000 0.0000
# 4 0.0000 0.0000 0.0000 29.0996 0.0000 0.0000
# 5 0.0000 0.0000 0.0000 0.0000 24.1522 0.0000
# 6 0.0000 0.0000 0.0000 0.0000 0.0000 12.4426
#
#
#
# Elastic Compliance Matrix: (Units=1/GPa)
#
#
# Indices 1 2 3 4 5 6 
#
# 1 0.070104 -0.004276 -0.000487 0.000000 0.000000 0.000000
# 2 -0.004276 0.007245 -0.003975 0.000000 0.000000 0.000000
# 3 -0.000487 -0.003975 0.008442 0.000000 0.000000 0.000000
# 4 0.000000 0.000000 0.000000 0.034365 0.000000 0.000000
# 5 0.000000 0.000000 0.000000 0.000000 0.041404 0.000000
# 6 0.000000 0.000000 0.000000 0.000000 0.000000 0.080369
#
#
# Mechanical properties :
#
#
# Convention : Reuss Voigt Hill
#
# Bulk Modulus (GPa) = 14.63816 66.69478 40.66647
# Shear Modulus (GPa) = 17.71935 30.59001 24.15468
#
# Velocity S-wave (km/s) = 3.00910 3.95368 3.51328
# Velocity P-wave (km/s) = 4.42188 7.41104 6.10231
#
# Compressibility (1/GPa) = 0.06831458
#
# Stress axis : x y z
#
# Youngs Moduli (GPa) = 14.26460 138.02092 118.44991
#
# Poissons Ratio (x) = 0.59016 0.05770
# Poissons Ratio (y) = 0.06099 0.47089
# Poissons Ratio (z) = 0.00695 0.54869
#
# Static dielectric constant tensor:
#      x y z
#    x 1.687740 0.000000 0.000000 
#    y 0.000000 1.690630 0.000000 
#    z 0.000000 0.000000 1.672390 
# 
# From -- ./inp_files/27056.got.cif
#   From: 2010.05.17/outbox.cif.g08.bks.cpg/sg44_14_cif.got.tgz:27056.got - 2010.06.03 19:37:08.
