data_PCOD9373565
_publ_section_title
;
Structure prediction by ZEFSAII (Michael W. Deem and Ramdas Pophale) SiO2 
 PCOD9373565
Probable space group: I M M 2
;
_chemical_formula_sum "Si O2"
_cell_formula_units_Z 38
_cell_length_a 12.384857
_cell_length_b 15.291198
_cell_length_c 10.799198
_cell_angle_alpha 90.000000
_cell_angle_beta 90.000000
_cell_angle_gamma 90.000000
_cell_volume 2045.144564
_symmetry_space_group_name_H-M "I M M 2"
_symmetry_group_IT_number 44
_symmetry_cell_setting 'orthorhombic'
loop_
_space_group_symop_operation_xyz
x,y,z
-x,-y,z
-x,y,z
x,-y,z
1/2+x,1/2+y,1/2+z
1/2-x,1/2-y,1/2+z
1/2-x,1/2+y,1/2+z
1/2+x,1/2-y,1/2+z
loop_
_atom_site_type_symbol
_atom_site_label
_atom_site_fract_x
_atom_site_fract_y
_atom_site_fract_z
Si Si1 0.273460 0.500000 0.417940
Si Si2 0.627943 0.500000 0.149698
Si Si3 0.373132 0.139148 0.053151
Si Si4 0.677720 0.334212 0.975952
Si Si5 0.126877 0.601498 0.841500
Si Si6 0.500000 0.600107 0.800269
Si Si7 0.000000 0.000000 0.060423
O O1 0.299468 0.500000 0.272816
O O2 0.203735 0.417289 0.464750
O O3 0.390200 0.500000 0.484082
O O4 0.500000 0.500000 0.180345
O O5 0.653219 0.413055 0.070401
O O6 0.500000 0.119074 0.030925
O O7 0.349819 0.115817 0.196229
O O8 0.353278 0.241501 0.032267
O O9 0.799829 0.339511 0.928581
O O10 0.603725 0.352667 0.855497
O O11 0.152036 0.500000 0.869856
O O12 0.000000 0.616367 0.859838
O O13 0.500000 0.500000 0.851464
O O14 0.500000 0.583152 0.654246
#
# Coordination Sequence:
#
# PCOD9373565 Si02
#       7
#     4   4   8   8   8   4   2
#     4  12  25  43  62  92 134 167 207 262 317 386
#     4  12  23  43  64  92 132 171 204 260 326 375
#     4  11  24  43  66  92 126 169 210 257 322 378
#     4  12  21  41  67  95 123 166 217 258 314 377
#     4  10  21  41  69  92 122 165 216 265 310 372
#     4  10  18  35  68  94 117 157 210 270 298 358
#     4  10  22  42  66  94 122 164 214 274 314 352
#
# _framework density 18.580593
#
# number of rings (size 3 to 8) (size 9 to 14) (size 15 to 20)
#    0.316    0.632    5.789    1.579    2.947    0.000 
#    1.895    2.105    0.000    0.000    0.000    0.000 
#    0.000    0.000    0.000    0.000    0.000    0.000 
#
# Total GULP energy -106131.599343 kJ/mol
# GULP energy per Si atom -5585.873650 kJ/mol
# Density = 1.853830 g / cm^3
# Si number density = 18.580593 Si / 1000 Ang^3
#
#
#
# Elastic Constant Matrix: (Units=GPa)
#
#
# Indices 1 2 3 4 5 6 
#
# 1 95.4626 32.5384 47.8495 0.0000 0.0000 0.0000
# 2 32.5384 85.2025 17.8424 0.0000 0.0000 0.0000
# 3 47.8495 17.8424 72.3916 0.0000 0.0000 0.0000
# 4 0.0000 0.0000 0.0000 5.4449 0.0000 0.0000
# 5 0.0000 0.0000 0.0000 0.0000 39.2678 0.0000
# 6 0.0000 0.0000 0.0000 0.0000 0.0000 19.1522
#
#
#
# Elastic Compliance Matrix: (Units=1/GPa)
#
#
# Indices 1 2 3 4 5 6 
#
# 1 0.017091 -0.004388 -0.010216 0.000000 0.000000 0.000000
# 2 -0.004388 0.013502 -0.000428 0.000000 0.000000 0.000000
# 3 -0.010216 -0.000428 0.020671 0.000000 0.000000 0.000000
# 4 0.000000 0.000000 0.000000 0.183657 0.000000 0.000000
# 5 0.000000 0.000000 0.000000 0.000000 0.025466 0.000000
# 6 0.000000 0.000000 0.000000 0.000000 0.000000 0.052213
#
#
# Mechanical properties :
#
#
# Convention : Reuss Voigt Hill
#
# Bulk Modulus (GPa) = 47.16357 49.94636 48.55497
# Shear Modulus (GPa) = 14.29669 23.09473 18.69571
#
# Velocity S-wave (km/s) = 2.77689 3.52937 3.17550
# Velocity P-wave (km/s) = 5.97661 6.59908 6.29554
#
# Compressibility (1/GPa) = 0.02120280
#
# Stress axis : x y z
#
# Youngs Moduli (GPa) = 58.50915 74.06327 48.37588
#
# Poissons Ratio (x) = 0.32498 0.49419
# Poissons Ratio (y) = 0.25673 0.02068
# Poissons Ratio (z) = 0.59771 0.03167
#
# Static dielectric constant tensor:
#      x y z
#    x 1.657900 0.000000 0.000000 
#    y 0.000000 1.619850 0.000000 
#    z 0.000000 0.000000 1.615450 
# 
# From -- ./inp_files/12094.got.cif
#   From: 2010.05.17/outbox.cif.g08.bks.cpg/sg44_7_cif.got.tgz:12094.got - 2010.06.03 19:37:08.
