data_PCOD9373173
_publ_section_title
;
Structure prediction by ZEFSAII (Michael W. Deem and Ramdas Pophale) SiO2 
 PCOD9373173
Probable space group: I M M 2
;
_chemical_formula_sum "Si O2"
_cell_formula_units_Z 64
_cell_length_a 28.766221
_cell_length_b 7.839952
_cell_length_c 15.145778
_cell_angle_alpha 90.000000
_cell_angle_beta 90.000000
_cell_angle_gamma 90.000000
_cell_volume 3415.763577
_symmetry_space_group_name_H-M "I M M 2"
_symmetry_group_IT_number 44
_symmetry_cell_setting 'orthorhombic'
loop_
_space_group_symop_operation_xyz
x,y,z
-x,-y,z
-x,y,z
x,-y,z
1/2+x,1/2+y,1/2+z
1/2-x,1/2-y,1/2+z
1/2-x,1/2+y,1/2+z
1/2+x,1/2-y,1/2+z
loop_
_atom_site_type_symbol
_atom_site_label
_atom_site_fract_x
_atom_site_fract_y
_atom_site_fract_z
Si Si1 0.131673 0.798783 0.430410
Si Si2 0.052699 0.203067 0.303218
Si Si3 0.284863 0.793954 0.804585
Si Si4 0.714663 0.793826 0.600739
Si Si5 0.947626 0.299270 0.108961
Si Si6 0.178495 0.791229 0.803252
Si Si7 0.369129 0.698570 0.475310
Si Si8 0.821130 0.791317 0.602758
O O1 0.088660 0.725091 0.374732
O O2 0.177527 0.780152 0.370528
O O3 0.144420 0.728513 0.526807
O O4 0.122562 0.000000 0.442325
O O5 0.069719 0.227421 0.202684
O O6 0.000000 0.272334 0.308825
O O7 0.050002 0.000000 0.316906
O O8 0.295058 0.747222 0.702755
O O9 0.231787 0.740935 0.824059
O O10 0.286825 0.000000 0.810181
O O11 0.676837 0.719418 0.535186
O O12 0.767822 0.741495 0.581510
O O13 0.712231 0.000000 0.594884
O O14 0.950953 0.500000 0.122601
O O15 0.912279 0.270822 0.029525
O O16 0.000000 0.231098 0.092693
O O17 0.167967 0.738125 0.702924
O O18 0.178165 0.000000 0.804209
O O19 0.144000 0.728831 0.879236
O O20 0.379041 0.500000 0.463640
O O21 0.821340 0.000000 0.602352
#
# Coordination Sequence:
#
# PCOD9373173 Si02
#       8
#     8   8   8   8   8   8   8   8
#     4  10  18  27  45  69  89 116 153 190 228 266
#     4   9  18  32  48  69  97 121 143 181 232 277
#     4   9  17  29  44  63  91 124 153 182 219 266
#     4   9  17  29  45  65  92 126 158 186 220 265
#     4  10  21  36  52  69  90 118 150 182 221 273
#     4   8  16  30  45  63  90 124 155 182 219 265
#     4  11  20  29  47  71  93 119 151 189 230 268
#     4   8  15  29  46  64  90 124 159 191 221 259
#
# _framework density 18.736660000000001
#
# number of rings (size 3 to 8) (size 9 to 14) (size 15 to 20)
#    0.000    2.750    0.000    3.750    0.000    3.750 
#    0.000    0.625    0.000    4.500    0.000    3.500 
#    0.000    2.000    0.000    0.000    0.000    0.000 
#
# Total GULP energy -178486.966097 kJ/mol
# GULP energy per Si atom -5577.717691 kJ/mol
# Density = 1.869401 g / cm^3
# Si number density = 18.736660 Si / 1000 Ang^3
#
#
#
# Elastic Constant Matrix: (Units=GPa)
#
#
# Indices 1 2 3 4 5 6 
#
# 1 86.1621 2.1516 78.5815 0.0000 0.0000 0.0000
# 2 2.1516 19.8840 -1.5004 0.0000 0.0000 0.0000
# 3 78.5815 -1.5004 110.4412 0.0000 0.0000 0.0000
# 4 0.0000 0.0000 0.0000 3.6891 0.0000 0.0000
# 5 0.0000 0.0000 0.0000 0.0000 29.7808 0.0000
# 6 0.0000 0.0000 0.0000 0.0000 0.0000 11.7361
#
#
#
# Elastic Compliance Matrix: (Units=1/GPa)
#
#
# Indices 1 2 3 4 5 6 
#
# 1 0.033639 -0.005452 -0.024009 0.000000 0.000000 0.000000
# 2 -0.005452 0.051227 0.004575 0.000000 0.000000 0.000000
# 3 -0.024009 0.004575 0.026199 0.000000 0.000000 0.000000
# 4 0.000000 0.000000 0.000000 0.271072 0.000000 0.000000
# 5 0.000000 0.000000 0.000000 0.000000 0.033579 0.000000
# 6 0.000000 0.000000 0.000000 0.000000 0.000000 0.085207
#
#
# Mechanical properties :
#
#
# Convention : Reuss Voigt Hill
#
# Bulk Modulus (GPa) = 16.31478 41.66140 28.98809
# Shear Modulus (GPa) = 8.75466 18.19151 13.47309
#
# Velocity S-wave (km/s) = 2.16394 3.11931 2.68447
# Velocity P-wave (km/s) = 3.86908 5.93776 5.01133
#
# Compressibility (1/GPa) = 0.06129410
#
# Stress axis : x y z
#
# Youngs Moduli (GPa) = 29.72783 19.52102 38.16874
#
# Poissons Ratio (x) = 0.10642 0.91638
# Poissons Ratio (y) = 0.16206 -0.17462
# Poissons Ratio (z) = 0.71372 -0.08931
#
# Static dielectric constant tensor:
#      x y z
#    x 1.650480 0.000000 0.000000 
#    y 0.000000 1.684870 0.000000 
#    z 0.000000 0.000000 1.664930 
# 
# From -- ./inp_files/19703.got.cif
#   From: 2010.05.17/outbox.cif.g08.bks.cpg/sg44_10_cif.got.tgz:19703.got - 2010.06.03 19:37:08.
