data_PCOD9373891
_publ_section_title
;
Structure prediction by ZEFSAII (Michael W. Deem and Ramdas Pophale) SiO2 
 PCOD9373891
Probable space group: I M M 2
;
_chemical_formula_sum "Si O2"
_cell_formula_units_Z 64
_cell_length_a 9.348293
_cell_length_b 21.969433
_cell_length_c 13.526194
_cell_angle_alpha 90.000000
_cell_angle_beta 90.000000
_cell_angle_gamma 90.000000
_cell_volume 2777.965043
_symmetry_space_group_name_H-M "I M M 2"
_symmetry_group_IT_number 44
_symmetry_cell_setting 'orthorhombic'
loop_
_space_group_symop_operation_xyz
x,y,z
-x,-y,z
-x,y,z
x,-y,z
1/2+x,1/2+y,1/2+z
1/2-x,1/2-y,1/2+z
1/2-x,1/2+y,1/2+z
1/2+x,1/2-y,1/2+z
loop_
_atom_site_type_symbol
_atom_site_label
_atom_site_fract_x
_atom_site_fract_y
_atom_site_fract_z
Si Si1 0.161537 0.908555 0.877570
Si Si2 0.158548 0.738475 0.535421
Si Si3 0.154755 0.246597 0.204944
Si Si4 0.833157 0.426002 0.957529
Si Si5 0.335511 0.573230 0.153332
Si Si6 0.162480 0.896221 0.257801
Si Si7 0.845219 0.767142 0.870037
Si Si8 0.837811 0.591251 0.565280
O O1 0.218252 0.914141 0.765225
O O2 0.145293 0.837106 0.900883
O O3 0.000000 0.933938 0.878674
O O4 0.261461 0.931523 0.965374
O O5 0.303097 0.756705 0.592150
O O6 0.203507 0.756310 0.424663
O O7 0.151759 0.665392 0.553967
O O8 0.000000 0.762060 0.558471
O O9 0.150999 0.175187 0.230227
O O10 0.298140 0.269170 0.257277
O O11 0.000000 0.273761 0.229674
O O12 0.827986 0.500000 0.956661
O O13 0.749623 0.404624 0.859292
O O14 0.000000 0.408242 0.955217
O O15 0.756945 0.404987 0.059706
O O16 0.500000 0.595507 0.147358
O O17 0.339469 0.500000 0.145623
O O18 0.246857 0.923144 0.163361
O O19 0.000000 0.919853 0.267462
O O20 0.000000 0.737606 0.882826
O O21 0.000000 0.569717 0.574577
#
# Coordination Sequence:
#
# PCOD9373891 Si02
#       8
#     8   8   8   8   8   8   8   8
#     4   9  18  33  53  78 106 138 178 221 265 319
#     4   9  17  31  50  70  95 131 171 211 256 310
#     4  10  20  34  51  74 102 135 175 218 262 314
#     4  10  21  37  57  81 109 140 176 221 272 324
#     4   9  18  35  58  80 105 141 182 221 265 318
#     4  10  20  35  56  79 104 138 179 221 265 320
#     4  10  19  32  50  73 102 137 173 215 265 316
#     4   9  17  30  52  78 104 136 171 212 261 313
#
# _framework density 23.038447000000001
#
# number of rings (size 3 to 8) (size 9 to 14) (size 15 to 20)
#    0.000    2.500    0.000    2.250    0.000    6.250 
#    2.250    0.625    0.000    2.250    0.000    0.000 
#    0.000    0.000    0.000    0.000    0.000    0.000 
#
# Total GULP energy -178423.779683 kJ/mol
# GULP energy per Si atom -5575.743115 kJ/mol
# Density = 2.298601 g / cm^3
# Si number density = 23.038447 Si / 1000 Ang^3
#
#
#
# Elastic Constant Matrix: (Units=GPa)
#
#
# Indices 1 2 3 4 5 6 
#
# 1 192.9887 5.6396 102.4799 0.0000 0.0000 0.0000
# 2 5.6396 48.6379 -7.2138 0.0000 0.0000 0.0000
# 3 102.4799 -7.2138 172.3882 -0.0001 0.0000 0.0001
# 4 0.0000 0.0000 -0.0001 -61.9919 0.0000 0.0002
# 5 0.0000 0.0000 0.0000 0.0000 37.1143 0.0000
# 6 0.0000 0.0000 0.0001 0.0002 0.0000 -33.8590
#
#
#
# Elastic Compliance Matrix: (Units=1/GPa)
#
#
# Indices 1 2 3 4 5 6 
#
# 1 0.007691 -0.001580 -0.004638 0.000000 0.000000 0.000000
# 2 -0.001580 0.021013 0.001818 0.000000 0.000000 0.000000
# 3 -0.004638 0.001818 0.008634 0.000000 0.000000 0.000000
# 4 0.000000 0.000000 0.000000 -0.016131 0.000000 0.000000
# 5 0.000000 0.000000 0.000000 0.000000 0.026944 0.000000
# 6 0.000000 0.000000 0.000000 0.000000 0.000000 -0.029534
#
#
# Mechanical properties :
#
#
# Convention : Reuss Voigt Hill
#
# Bulk Modulus (GPa) = 35.03950 68.42513 51.73231
# Shear Modulus (GPa) = 135.39960 9.12659 72.26309
#
# Velocity S-wave (km/s) = 7.67455 1.99250 5.60664
# Velocity P-wave (km/s) = 9.68369 5.92100 8.02596
#
# Compressibility (1/GPa) = 0.02853922
#
# Stress axis : x y z
#
# Youngs Moduli (GPa) = 130.02809 47.58968 115.81989
#
# Poissons Ratio (x) = 0.07517 0.53717
# Poissons Ratio (y) = 0.20539 -0.21060
# Poissons Ratio (z) = 0.60307 -0.08653
#
# Static dielectric constant tensor:
#      x y z
#    x 1.830720 0.000000 0.000000 
#    y 0.000000 1.984580 0.000000 
#    z 0.000000 0.000000 1.823690 
# 
# From -- ./inp_files/11468.got.cif
#   From: 2010.05.17/outbox.cif.g08.bks.cpg/sg44_6_cif.got.tgz:11468.got - 2010.06.03 19:37:08.
