data_PCOD9373728
_publ_section_title
;
Structure prediction by ZEFSAII (Michael W. Deem and Ramdas Pophale) SiO2 
 PCOD9373728
Probable space group: I M M 2
;
_chemical_formula_sum "Si O2"
_cell_formula_units_Z 64
_cell_length_a 25.902244
_cell_length_b 7.733692
_cell_length_c 15.670348
_cell_angle_alpha 90.000000
_cell_angle_beta 90.000000
_cell_angle_gamma 90.000000
_cell_volume 3139.083754
_symmetry_space_group_name_H-M "I M M 2"
_symmetry_group_IT_number 44
_symmetry_cell_setting 'orthorhombic'
loop_
_space_group_symop_operation_xyz
x,y,z
-x,-y,z
-x,y,z
x,-y,z
1/2+x,1/2+y,1/2+z
1/2-x,1/2-y,1/2+z
1/2-x,1/2+y,1/2+z
1/2+x,1/2-y,1/2+z
loop_
_atom_site_type_symbol
_atom_site_label
_atom_site_fract_x
_atom_site_fract_y
_atom_site_fract_z
Si Si1 0.218716 0.705810 0.696420
Si Si2 0.236959 0.791945 0.500237
Si Si3 0.442850 0.293504 0.402895
Si Si4 0.059822 0.788245 0.548758
Si Si5 0.105124 0.203940 0.728873
Si Si6 0.863030 0.211713 0.400726
Si Si7 0.834043 0.791057 0.220286
Si Si8 0.350655 0.796139 0.525882
O O1 0.217482 0.500000 0.706771
O O2 0.218491 0.751074 0.596104
O O3 0.166620 0.776273 0.737154
O O4 0.274345 0.768668 0.729455
O O5 0.192878 0.731248 0.436165
O O6 0.295414 0.723101 0.492945
O O7 0.239013 0.000000 0.491772
O O8 0.500000 0.226829 0.424044
O O9 0.446618 0.500000 0.393211
O O10 0.423100 0.222266 0.311905
O O11 0.399953 0.265667 0.474501
O O12 0.085544 0.727141 0.637575
O O13 0.093316 0.731244 0.467235
O O14 0.000000 0.737153 0.544481
O O15 0.061345 0.000000 0.548736
O O16 0.093577 0.000000 0.726032
O O17 0.866605 0.266112 0.302265
O O18 0.863550 0.000000 0.401992
O O19 0.853171 0.737488 0.127097
O O20 0.832936 0.000000 0.220304
O O21 0.348112 0.000000 0.513065
#
# Coordination Sequence:
#
# PCOD9373728 Si02
#       8
#     8   8   8   8   8   8   8   8
#     4  10  19  30  48  76 110 144 179 215 262 319
#     4   9  17  32  53  76 105 142 181 218 266 323
#     4  10  22  39  58  80 107 142 186 231 275 326
#     4   9  16  28  51  80 105 132 173 220 260 306
#     4  10  19  33  53  78 109 141 174 217 271 325
#     4   9  16  29  51  77 105 140 179 221 264 310
#     4   9  19  34  53  76 110 147 179 220 268 322
#     4  10  21  36  57  80 107 141 181 229 279 328
#
# _framework density 20.388116
#
# number of rings (size 3 to 8) (size 9 to 14) (size 15 to 20)
#    0.000    2.500    1.250    1.125    1.750    3.250 
#    0.000    1.250    0.000    3.375    0.000    0.000 
#    0.000    0.000    0.000    0.000    0.000    0.000 
#
# Total GULP energy -178562.237482 kJ/mol
# GULP energy per Si atom -5580.069921 kJ/mol
# Density = 2.034171 g / cm^3
# Si number density = 20.388116 Si / 1000 Ang^3
#
#
#
# Elastic Constant Matrix: (Units=GPa)
#
#
# Indices 1 2 3 4 5 6 
#
# 1 151.4977 6.8511 90.6606 0.0000 0.0000 0.0000
# 2 6.8511 28.3921 4.0577 0.0000 0.0000 0.0000
# 3 90.6606 4.0577 106.3720 0.0000 0.0000 0.0000
# 4 0.0000 0.0000 0.0000 5.1845 0.0000 0.0000
# 5 0.0000 0.0000 0.0000 0.0000 26.8792 0.0000
# 6 0.0000 0.0000 0.0000 0.0000 0.0000 14.1659
#
#
#
# Elastic Compliance Matrix: (Units=1/GPa)
#
#
# Indices 1 2 3 4 5 6 
#
# 1 0.013546 -0.001628 -0.011484 0.000000 0.000000 0.000000
# 2 -0.001628 0.035610 0.000029 0.000000 0.000000 0.000000
# 3 -0.011484 0.000029 0.019187 0.000000 0.000000 0.000000
# 4 0.000000 0.000000 0.000000 0.192882 0.000000 0.000000
# 5 0.000000 0.000000 0.000000 0.000000 0.037203 0.000000
# 6 0.000000 0.000000 0.000000 0.000000 0.000000 0.070592
#
#
# Mechanical properties :
#
#
# Convention : Reuss Voigt Hill
#
# Bulk Modulus (GPa) = 23.70862 54.37785 39.04324
# Shear Modulus (GPa) = 12.21760 21.55873 16.88817
#
# Velocity S-wave (km/s) = 2.45062 3.25532 2.88120
# Velocity P-wave (km/s) = 4.43410 6.39208 5.50091
#
# Compressibility (1/GPa) = 0.04217876
#
# Stress axis : x y z
#
# Youngs Moduli (GPa) = 73.82017 28.08226 52.11793
#
# Poissons Ratio (x) = 0.04571 0.59850
# Poissons Ratio (y) = 0.12015 -0.00150
# Poissons Ratio (z) = 0.84771 -0.00081
#
# Static dielectric constant tensor:
#      x y z
#    x 1.724190 0.000000 0.000000 
#    y 0.000000 1.751420 0.000000 
#    z 0.000000 0.000000 1.714470 
# 
# From -- ./inp_files/19498.got.cif
#   From: 2010.05.17/outbox.cif.g08.bks.cpg/sg44_10_cif.got.tgz:19498.got - 2010.06.03 19:37:08.
