data_PCOD9373137
_publ_section_title
;
Structure prediction by ZEFSAII (Michael W. Deem and Ramdas Pophale) SiO2 
 PCOD9373137
Probable space group: I M M 2
;
_chemical_formula_sum "Si O2"
_cell_formula_units_Z 56
_cell_length_a 8.694038
_cell_length_b 30.223113
_cell_length_c 14.147358
_cell_angle_alpha 90.000000
_cell_angle_beta 90.000000
_cell_angle_gamma 90.000000
_cell_volume 3717.372420
_symmetry_space_group_name_H-M "I M M 2"
_symmetry_group_IT_number 44
_symmetry_cell_setting 'orthorhombic'
loop_
_space_group_symop_operation_xyz
x,y,z
-x,-y,z
-x,y,z
x,-y,z
1/2+x,1/2+y,1/2+z
1/2-x,1/2-y,1/2+z
1/2-x,1/2+y,1/2+z
1/2+x,1/2-y,1/2+z
loop_
_atom_site_type_symbol
_atom_site_label
_atom_site_fract_x
_atom_site_fract_y
_atom_site_fract_z
Si Si1 0.815576 0.500000 0.978060
Si Si2 0.684148 0.683602 0.871180
Si Si3 0.184152 0.402567 0.965159
Si Si4 0.185242 0.592824 0.187369
Si Si5 0.184861 0.770468 0.967969
Si Si6 0.314011 0.182327 0.789003
Si Si7 0.681239 0.500000 0.188108
Si Si8 0.186509 0.229021 0.181196
O O1 0.781446 0.547232 0.931087
O O2 0.000000 0.500000 0.999027
O O3 0.727920 0.500000 0.077434
O O4 0.500000 0.687920 0.876314
O O5 0.735152 0.635883 0.907196
O O6 0.732840 0.694880 0.763385
O O7 0.757916 0.722014 0.935609
O O8 0.000000 0.396002 0.960163
O O9 0.228039 0.400591 0.076629
O O10 0.235330 0.635223 0.247617
O O11 0.249815 0.546240 0.224192
O O12 0.000000 0.590423 0.189154
O O13 0.239361 0.779553 0.074853
O O14 0.000000 0.770988 0.965690
O O15 0.248719 0.804760 0.890976
O O16 0.500000 0.182689 0.793823
O O17 0.267850 0.222235 0.718349
O O18 0.500000 0.500000 0.199588
O O19 0.000000 0.228750 0.178415
#
# Coordination Sequence:
#
# PCOD9373137 Si02
#       8
#     4   8   8   8   8   8   4   8
#     4   8  16  30  44  58  85 120 145 166 211 272
#     4  10  19  30  43  62  87 114 143 175 211 252
#     4   9  16  28  45  64  84 112 146 174 204 251
#     4   9  17  30  46  61  87 123 147 166 211 271
#     4  10  18  30  46  62  83 113 146 178 209 248
#     4   9  17  30  46  64  85 112 145 177 209 251
#     4  10  18  26  40  64  91 112 143 186 213 238
#     4   8  16  30  44  58  83 116 142 166 207 256
#
# _framework density 15.064404
#
# number of rings (size 3 to 8) (size 9 to 14) (size 15 to 20)
#    0.000    2.857    0.000    4.071    0.000    5.143 
#    0.000   10.000    0.000    0.000    0.000    1.000 
#    0.000    4.571    0.000    0.000    0.000    0.000 
#
# Total GULP energy -155938.676088 kJ/mol
# GULP energy per Si atom -5569.238432 kJ/mol
# Density = 1.503012 g / cm^3
# Si number density = 15.064404 Si / 1000 Ang^3
#
#
#
# Elastic Constant Matrix: (Units=GPa)
#
#
# Indices 1 2 3 4 5 6 
#
# 1 22.1985 32.9473 20.1316 0.0000 0.0000 0.0000
# 2 32.9473 143.2148 65.3744 0.0000 0.0000 0.0000
# 3 20.1316 65.3744 99.2280 0.0001 0.0000 0.0000
# 4 0.0000 0.0000 0.0001 23.0152 0.0000 0.0000
# 5 0.0000 0.0000 0.0000 0.0000 20.0233 0.0000
# 6 0.0000 0.0000 0.0000 0.0000 0.0000 24.8490
#
#
#
# Elastic Compliance Matrix: (Units=1/GPa)
#
#
# Indices 1 2 3 4 5 6 
#
# 1 0.070199 -0.013798 -0.005152 0.000000 0.000000 0.000000
# 2 -0.013798 0.012698 -0.005566 0.000000 0.000000 0.000000
# 3 -0.005152 -0.005566 0.014790 0.000000 0.000000 0.000000
# 4 0.000000 0.000000 0.000000 0.043450 0.000000 0.000000
# 5 0.000000 0.000000 0.000000 0.000000 0.049942 0.000000
# 6 0.000000 0.000000 0.000000 0.000000 0.000000 0.040243
#
#
# Mechanical properties :
#
#
# Convention : Reuss Voigt Hill
#
# Bulk Modulus (GPa) = 20.55276 55.72757 38.14017
# Shear Modulus (GPa) = 16.85932 23.32337 20.09134
#
# Velocity S-wave (km/s) = 3.34900 3.93904 3.65594
# Velocity P-wave (km/s) = 5.35045 7.60008 6.57223
#
# Compressibility (1/GPa) = 0.04865526
#
# Stress axis : x y z
#
# Youngs Moduli (GPa) = 14.24516 78.75433 67.61249
#
# Poissons Ratio (x) = 1.08666 0.34831
# Poissons Ratio (y) = 0.19656 0.37635
# Poissons Ratio (z) = 0.07339 0.43837
#
# Static dielectric constant tensor:
#      x y z
#    x 1.512020 0.000000 0.000000 
#    y 0.000000 1.508650 0.000000 
#    z 0.000000 0.000000 1.490880 
# 
# From -- ./inp_files/17063.got.cif
#   From: 2010.05.17/outbox.cif.g08.bks.cpg/sg44_9_cif.got.tgz:17063.got - 2010.06.03 19:37:08.
