data_PCOD9373975
_publ_section_title
;
Structure prediction by ZEFSAII (Michael W. Deem and Ramdas Pophale) SiO2 
 PCOD9373975
Probable space group: I M M 2
;
_chemical_formula_sum "Si O2"
_cell_formula_units_Z 64
_cell_length_a 16.851531
_cell_length_b 8.137332
_cell_length_c 22.907136
_cell_angle_alpha 90.000000
_cell_angle_beta 90.000000
_cell_angle_gamma 90.000000
_cell_volume 3141.175441
_symmetry_space_group_name_H-M "I M M 2"
_symmetry_group_IT_number 44
_symmetry_cell_setting 'orthorhombic'
loop_
_space_group_symop_operation_xyz
x,y,z
-x,-y,z
-x,y,z
x,-y,z
1/2+x,1/2+y,1/2+z
1/2-x,1/2-y,1/2+z
1/2-x,1/2+y,1/2+z
1/2+x,1/2-y,1/2+z
loop_
_atom_site_type_symbol
_atom_site_label
_atom_site_fract_x
_atom_site_fract_y
_atom_site_fract_z
Si Si1 0.083857 0.299527 0.805560
Si Si2 0.265126 0.193326 0.643973
Si Si3 0.412373 0.306696 0.565067
Si Si4 0.286870 0.196475 0.895719
Si Si5 0.743542 0.303030 0.768580
Si Si6 0.381268 0.191305 0.435497
Si Si7 0.408782 0.187971 0.993475
Si Si8 0.410527 0.309442 0.120740
O O1 0.086489 0.500000 0.805656
O O2 0.164618 0.243177 0.775577
O O3 0.084781 0.247558 0.873530
O O4 0.000000 0.247662 0.778637
O O5 0.333301 0.245874 0.598397
O O6 0.292467 0.232043 0.709672
O O7 0.174535 0.266138 0.640548
O O8 0.255411 0.000000 0.635315
O O9 0.500000 0.237631 0.582631
O O10 0.414581 0.500000 0.575771
O O11 0.403942 0.276943 0.495557
O O12 0.296765 0.249683 0.828931
O O13 0.211766 0.287578 0.923529
O O14 0.358622 0.237914 0.938015
O O15 0.272937 0.000000 0.897249
O O16 0.743665 0.500000 0.765231
O O17 0.402357 0.000000 0.441479
O O18 0.500000 0.184920 0.976617
O O19 0.385263 0.000000 0.010161
O O20 0.401684 0.297945 0.050650
O O21 0.500000 0.237931 0.133691
O O22 0.413234 0.500000 0.139396
#
# Coordination Sequence:
#
# PCOD9373975 Si02
#       8
#     8   8   8   8   8   8   8   8
#     4   8  15  29  50  77 107 138 172 211 258 315
#     4  11  23  39  59  80 107 147 190 231 277 331
#     4  11  24  40  58  82 112 145 184 233 285 334
#     4  10  19  33  54  78 107 142 180 224 274 328
#     4  10  21  36  54  76 104 139 182 230 275 324
#     4  10  19  32  54  83 114 145 177 217 267 327
#     4   9  18  32  51  77 106 135 171 216 265 318
#     4   9  19  35  55  82 115 147 179 218 267 324
#
# _framework density 20.374538000000001
#
# number of rings (size 3 to 8) (size 9 to 14) (size 15 to 20)
#    0.000    2.250    0.000    3.750    0.000    6.000 
#    0.000    0.625    0.000    9.375    0.000    0.000 
#    0.000    0.000    0.000    0.000    0.000    0.000 
#
# Total GULP energy -178385.909823 kJ/mol
# GULP energy per Si atom -5574.559682 kJ/mol
# Density = 2.032816 g / cm^3
# Si number density = 20.374538 Si / 1000 Ang^3
#
#
#
# Elastic Constant Matrix: (Units=GPa)
#
#
# Indices 1 2 3 4 5 6 
#
# 1 64.8768 13.1584 48.6360 0.0000 0.0000 0.0000
# 2 13.1584 24.0524 -0.9498 0.0000 0.0000 0.0000
# 3 48.6360 -0.9498 89.4758 0.0000 0.0000 0.0000
# 4 0.0000 0.0000 0.0000 24.1246 0.0000 0.0000
# 5 0.0000 0.0000 0.0000 0.0000 -2.1904 0.0000
# 6 0.0000 0.0000 0.0000 0.0000 0.0000 9.1668
#
#
#
# Elastic Compliance Matrix: (Units=1/GPa)
#
#
# Indices 1 2 3 4 5 6 
#
# 1 0.032614 -0.018550 -0.017925 0.000000 0.000000 0.000000
# 2 -0.018550 0.052144 0.010637 0.000000 0.000000 0.000000
# 3 -0.017925 0.010637 0.021032 0.000000 0.000000 0.000000
# 4 0.000000 0.000000 0.000000 0.041451 0.000000 0.000000
# 5 0.000000 0.000000 0.000000 0.000000 -0.456534 0.000000
# 6 0.000000 0.000000 0.000000 0.000000 0.000000 0.109090
#
#
# Mechanical properties :
#
#
# Convention : Reuss Voigt Hill
#
# Bulk Modulus (GPa) = 18.47940 33.34381 25.91160
# Shear Modulus (GPa) = -38.31723 14.05755 -12.12984
#
# Velocity S-wave (km/s) = -4.34134 2.62955 -2.44261
# Velocity P-wave (km/s) = 4.00501 5.06166 2.18863
#
# Compressibility (1/GPa) = 0.05411432
#
# Stress axis : x y z
#
# Youngs Moduli (GPa) = 30.66210 19.17765 47.54595
#
# Poissons Ratio (x) = 0.35574 0.85224
# Poissons Ratio (y) = 0.56877 -0.50572
# Poissons Ratio (z) = 0.54960 -0.20398
#
# Static dielectric constant tensor:
#      x y z
#    x 1.805380 0.000000 0.000000 
#    y 0.000000 1.742220 0.000000 
#    z 0.000000 0.000000 1.700420 
# 
# From -- ./inp_files/25773.got.cif
#   From: 2010.05.17/outbox.cif.g08.bks.cpg/sg44_13_cif.got.tgz:25773.got - 2010.06.03 19:37:08.
