data_PCOD9373445
_publ_section_title
;
Structure prediction by ZEFSAII (Michael W. Deem and Ramdas Pophale) SiO2 
 PCOD9373445
Probable space group: I M M 2
;
_chemical_formula_sum "Si O2"
_cell_formula_units_Z 64
_cell_length_a 23.505404
_cell_length_b 8.079302
_cell_length_c 19.927043
_cell_angle_alpha 90.000000
_cell_angle_beta 90.000000
_cell_angle_gamma 90.000000
_cell_volume 3784.290087
_symmetry_space_group_name_H-M "I M M 2"
_symmetry_group_IT_number 44
_symmetry_cell_setting 'orthorhombic'
loop_
_space_group_symop_operation_xyz
x,y,z
-x,-y,z
-x,y,z
x,-y,z
1/2+x,1/2+y,1/2+z
1/2-x,1/2-y,1/2+z
1/2-x,1/2+y,1/2+z
1/2+x,1/2-y,1/2+z
loop_
_atom_site_type_symbol
_atom_site_label
_atom_site_fract_x
_atom_site_fract_y
_atom_site_fract_z
Si Si1 0.241008 0.307029 0.679130
Si Si2 0.666868 0.299949 0.451623
Si Si3 0.720629 0.202533 0.033595
Si Si4 0.435156 0.700495 0.543081
Si Si5 0.653521 0.804630 0.906518
Si Si6 0.367544 0.190660 0.674175
Si Si7 0.765541 0.302670 0.827324
Si Si8 0.434709 0.694394 0.802990
O O1 0.224584 0.500000 0.680120
O O2 0.216442 0.236024 0.609742
O O3 0.309475 0.294491 0.674062
O O4 0.224890 0.237395 0.752000
O O5 0.667554 0.500000 0.448130
O O6 0.718257 0.250093 0.501873
O O7 0.607468 0.246044 0.483836
O O8 0.683647 0.232740 0.378895
O O9 0.720184 0.000000 0.034485
O O10 0.672952 0.255474 0.980149
O O11 0.500000 0.757741 0.535834
O O12 0.435271 0.500000 0.543661
O O13 0.407945 0.758121 0.612983
O O14 0.708906 0.776251 0.859524
O O15 0.600212 0.720262 0.871284
O O16 0.642496 0.000000 0.909980
O O17 0.401095 0.215577 0.743478
O O18 0.350892 0.000000 0.666939
O O19 0.755437 0.500000 0.823963
O O20 0.500000 0.750478 0.807776
O O21 0.434525 0.500000 0.786167
#
# Coordination Sequence:
#
# PCOD9373445 Si02
#       8
#     8   8   8   8   8   8   8   8
#     4  10  18  32  51  70  96 131 165 193 233 292
#     4   9  17  31  49  68  94 126 160 202 245 285
#     4   8  15  29  49  69  92 123 155 192 240 288
#     4  10  20  35  53  69  91 131 174 204 239 290
#     4  10  19  32  50  72  96 123 159 205 247 283
#     4  12  23  32  46  71 101 130 164 203 241 280
#     4  10  19  29  48  72  97 128 161 197 240 291
#     4  11  23  37  51  67  93 133 172 201 237 289
#
# _framework density 16.912022
#
# number of rings (size 3 to 8) (size 9 to 14) (size 15 to 20)
#    0.000    2.000    2.500    3.375    0.000    3.750 
#    0.000    0.625    0.000    0.000    0.000    0.875 
#    0.000    5.000    0.000    0.000    0.000    0.000 
#
# Total GULP energy -178524.303038 kJ/mol
# GULP energy per Si atom -5578.884470 kJ/mol
# Density = 1.687353 g / cm^3
# Si number density = 16.912022 Si / 1000 Ang^3
#
#
#
# Elastic Constant Matrix: (Units=GPa)
#
#
# Indices 1 2 3 4 5 6 
#
# 1 47.8994 -8.5699 35.5450 0.0000 0.0000 0.0000
# 2 -8.5699 14.9332 -5.8694 0.0000 0.0000 0.0000
# 3 35.5450 -5.8694 138.7783 0.0000 0.0000 0.0000
# 4 0.0000 0.0000 0.0000 19.7750 0.0000 0.0000
# 5 0.0000 0.0000 0.0000 0.0000 18.3179 0.0000
# 6 0.0000 0.0000 0.0000 0.0000 0.0000 15.9908
#
#
#
# Elastic Compliance Matrix: (Units=1/GPa)
#
#
# Indices 1 2 3 4 5 6 
#
# 1 0.028253 0.013596 -0.006661 0.000000 0.000000 0.000000
# 2 0.013596 0.074639 -0.000325 0.000000 0.000000 0.000000
# 3 -0.006661 -0.000325 0.008898 0.000000 0.000000 0.000000
# 4 0.000000 0.000000 0.000000 0.050569 0.000000 0.000000
# 5 0.000000 0.000000 0.000000 0.000000 0.054591 0.000000
# 6 0.000000 0.000000 0.000000 0.000000 0.000000 0.062536
#
#
# Mechanical properties :
#
#
# Convention : Reuss Voigt Hill
#
# Bulk Modulus (GPa) = 7.99950 27.09138 17.54544
# Shear Modulus (GPa) = 16.23702 22.85041 19.54371
#
# Velocity S-wave (km/s) = 3.10189 3.67977 3.40312
# Velocity P-wave (km/s) = 4.19157 5.84021 5.08317
#
# Compressibility (1/GPa) = 0.12500775
#
# Stress axis : x y z
#
# Youngs Moduli (GPa) = 35.39482 13.39776 112.38329
#
# Poissons Ratio (x) = -0.18215 0.74862
# Poissons Ratio (y) = -0.48121 0.03658
# Poissons Ratio (z) = 0.23578 0.00436
#
# Static dielectric constant tensor:
#      x y z
#    x 1.546700 0.000000 0.000000 
#    y 0.000000 1.603920 0.000000 
#    z 0.000000 0.000000 1.598240 
# 
# From -- ./inp_files/20848.got.cif
#   From: 2010.05.17/outbox.cif.g08.bks.cpg/sg44_11_cif.got.tgz:20848.got - 2010.06.03 19:37:08.
