data_PCOD9373984
_publ_section_title
;
Structure prediction by ZEFSAII (Michael W. Deem and Ramdas Pophale) SiO2 
 PCOD9373984
Probable space group: I M M 2
;
_chemical_formula_sum "Si O2"
_cell_formula_units_Z 64
_cell_length_a 8.923196
_cell_length_b 29.334139
_cell_length_c 12.853816
_cell_angle_alpha 90.000000
_cell_angle_beta 90.000000
_cell_angle_gamma 90.000000
_cell_volume 3364.541247
_symmetry_space_group_name_H-M "I M M 2"
_symmetry_group_IT_number 44
_symmetry_cell_setting 'orthorhombic'
loop_
_space_group_symop_operation_xyz
x,y,z
-x,-y,z
-x,y,z
x,-y,z
1/2+x,1/2+y,1/2+z
1/2-x,1/2-y,1/2+z
1/2-x,1/2+y,1/2+z
1/2+x,1/2-y,1/2+z
loop_
_atom_site_type_symbol
_atom_site_label
_atom_site_fract_x
_atom_site_fract_y
_atom_site_fract_z
Si Si1 0.179079 0.047943 0.063570
Si Si2 0.674641 0.925918 0.270317
Si Si3 0.680760 0.097239 0.495547
Si Si4 0.318778 0.053107 0.716358
Si Si5 0.327230 0.305486 0.948988
Si Si6 0.827769 0.165469 0.218568
Si Si7 0.177919 0.789863 0.994547
Si Si8 0.318028 0.618383 0.391664
O O1 0.237261 0.048752 0.180436
O O2 0.000000 0.049415 0.064971
O O3 0.226887 0.000000 0.013236
O O4 0.229029 0.090481 0.995176
O O5 0.500000 0.937397 0.265113
O O6 0.726908 0.929196 0.389765
O O7 0.707286 0.873645 0.238919
O O8 0.500000 0.101025 0.491719
O O9 0.720973 0.070398 0.600108
O O10 0.747378 0.148251 0.488307
O O11 0.500000 0.054583 0.725647
O O12 0.248629 0.089392 0.796768
O O13 0.272579 0.000000 0.732186
O O14 0.500000 0.308178 0.981092
O O15 0.322163 0.304905 0.822982
O O16 0.255388 0.258647 0.985670
O O17 0.000000 0.146314 0.212875
O O18 0.800512 0.190833 0.111019
O O19 0.228032 0.829212 0.912750
O O20 0.000000 0.783933 0.979307
O O21 0.500000 0.617641 0.384764
#
# Coordination Sequence:
#
# PCOD9373984 Si02
#       8
#     8   8   8   8   8   8   8   8
#     4  10  20  35  55  79 111 148 181 219 277 343
#     4  10  19  32  55  83 108 137 179 233 281 327
#     4   9  20  39  59  80 113 155 192 230 288 351
#     4  10  22  40  61  84 115 157 200 245 296 350
#     4  10  21  35  56  86 114 144 190 245 289 335
#     4   9  18  36  56  73 104 148 183 219 278 345
#     4  10  20  36  58  80 110 152 192 231 287 354
#     4  10  21  38  59  82 111 150 194 238 285 343
#
# _framework density 19.021909999999998
#
# number of rings (size 3 to 8) (size 9 to 14) (size 15 to 20)
#    0.000    2.250    1.250    1.125    0.000    5.500 
#    0.000    5.000    0.000    0.000    0.000    0.000 
#    0.000    0.000    0.000    0.000    0.000    0.000 
#
# Total GULP energy -178388.666832 kJ/mol
# GULP energy per Si atom -5574.645838 kJ/mol
# Density = 1.897862 g / cm^3
# Si number density = 19.021910 Si / 1000 Ang^3
#
#
#
# Elastic Constant Matrix: (Units=GPa)
#
#
# Indices 1 2 3 4 5 6 
#
# 1 9.5307 8.3670 14.6198 0.0000 -0.0001 -0.0002
# 2 8.3670 58.5787 18.6938 -0.0001 -0.0001 0.0001
# 3 14.6198 18.6938 86.5718 0.0004 -0.0002 -0.0010
# 4 0.0000 -0.0001 0.0004 18.8030 0.0001 -0.0001
# 5 -0.0001 -0.0001 -0.0002 0.0001 29.1153 -0.0001
# 6 -0.0002 0.0001 -0.0010 -0.0001 -0.0001 0.2789
#
#
#
# Elastic Compliance Matrix: (Units=1/GPa)
#
#
# Indices 1 2 3 4 5 6 
#
# 1 0.152344 -0.014553 -0.022585 0.000000 0.000000 0.000042
# 2 -0.014553 0.019725 -0.001802 0.000000 0.000000 -0.000025
# 3 -0.022585 -0.001802 0.015754 0.000000 0.000000 0.000039
# 4 0.000000 0.000000 0.000000 0.053183 0.000000 0.000014
# 5 0.000000 0.000000 0.000000 0.000000 0.034346 0.000012
# 6 0.000042 -0.000025 0.000039 0.000014 0.000012 3.585425
#
#
# Mechanical properties :
#
#
# Convention : Reuss Voigt Hill
#
# Bulk Modulus (GPa) = 9.09546 26.44915 17.77231
# Shear Modulus (GPa) = 1.25777 17.17281 9.21529
#
# Velocity S-wave (km/s) = 0.81404 3.00791 2.20343
# Velocity P-wave (km/s) = 2.38233 5.09883 3.97955
#
# Compressibility (1/GPa) = 0.10994493
#
# Stress axis : x y z
#
# Youngs Moduli (GPa) = 6.56409 50.69814 63.47534
#
# Poissons Ratio (x) = 0.73778 1.43357
# Poissons Ratio (y) = 0.09552 0.11436
# Poissons Ratio (z) = 0.14825 0.09134
#
# Static dielectric constant tensor:
#      x y z
#    x 1.650780 0.000000 0.000000 
#    y 0.000000 1.671000 0.000000 
#    z 0.000000 0.000000 1.669740 
# 
# From -- ./inp_files/11441.got.cif
#   From: 2010.05.17/outbox.cif.g08.bks.cpg/sg44_6_cif.got.tgz:11441.got - 2010.06.03 19:37:08.
