data_PCOD9373612
_publ_section_title
;
Structure prediction by ZEFSAII (Michael W. Deem and Ramdas Pophale) SiO2 
 PCOD9373612
Probable space group: I M M 2
;
_chemical_formula_sum "Si O2"
_cell_formula_units_Z 64
_cell_length_a 20.553780
_cell_length_b 7.292959
_cell_length_c 21.253784
_cell_angle_alpha 90.000000
_cell_angle_beta 90.000000
_cell_angle_gamma 90.000000
_cell_volume 3185.897054
_symmetry_space_group_name_H-M "I M M 2"
_symmetry_group_IT_number 44
_symmetry_cell_setting 'orthorhombic'
loop_
_space_group_symop_operation_xyz
x,y,z
-x,-y,z
-x,y,z
x,-y,z
1/2+x,1/2+y,1/2+z
1/2-x,1/2-y,1/2+z
1/2-x,1/2+y,1/2+z
1/2+x,1/2-y,1/2+z
loop_
_atom_site_type_symbol
_atom_site_label
_atom_site_fract_x
_atom_site_fract_y
_atom_site_fract_z
Si Si1 0.928203 0.277372 0.917390
Si Si2 0.707888 0.276354 0.988732
Si Si3 0.571636 0.777330 0.564884
Si Si4 0.789913 0.281923 0.107543
Si Si5 0.928363 0.222670 0.290610
Si Si6 0.710087 0.281922 0.747950
Si Si7 0.571797 0.722628 0.938103
Si Si8 0.707888 0.776354 0.366762
O O1 0.927984 0.500000 0.916187
O O2 0.866154 0.215817 0.877837
O O3 0.000000 0.217415 0.896468
O O4 0.920685 0.228279 0.991081
O O5 0.707153 0.500000 0.989722
O O6 0.743409 0.213191 0.052029
O O7 0.633846 0.215817 0.977657
O O8 0.750000 0.223915 0.927747
O O9 0.500000 0.714977 0.586550
O O10 0.635968 0.711847 0.600329
O O11 0.570578 0.000000 0.567704
O O12 0.793921 0.500000 0.098203
O O13 0.765514 0.250002 0.177747
O O14 0.864032 0.288152 0.255164
O O15 0.920685 0.271721 0.364412
O O16 0.000000 0.285023 0.268943
O O17 0.929421 0.000000 0.287789
O O18 0.706080 0.500000 0.757288
O O19 0.756591 0.213191 0.803465
O O20 0.500000 0.782585 0.959025
O O21 0.572017 0.500000 0.939306
O O22 0.707154 0.000000 0.365771
#
# Coordination Sequence:
#
# PCOD9373612 Si02
#       8
#     8   8   8   8   8   8   8   8
#     4   8  12  19  35  60  84 101 127 174 220 246
#     4   9  14  23  40  61  81 105 139 176 210 241
#     4   8  13  22  37  59  85 109 134 167 206 244
#     4  10  19  29  42  61  87 115 140 169 206 248
#     4   8  13  22  37  59  85 109 134 167 206 244
#     4  10  19  29  42  61  87 115 140 169 206 248
#     4   8  12  19  35  60  84 101 127 174 220 246
#     4   9  14  23  40  61  81 105 139 176 210 241
#
# _framework density 20.088533999999999
#
# number of rings (size 3 to 8) (size 9 to 14) (size 15 to 20)
#    0.000    3.250    2.500    1.500    0.000    0.500 
#    0.000    0.000    0.000    1.500    0.000    0.000 
#    0.000    0.000    0.000    0.000    0.000    0.000 
#
# Total GULP energy -178530.893818 kJ/mol
# GULP energy per Si atom -5579.090432 kJ/mol
# Density = 2.004281 g / cm^3
# Si number density = 20.088534 Si / 1000 Ang^3
#
#
#
# Elastic Constant Matrix: (Units=GPa)
#
#
# Indices 1 2 3 4 5 6 
#
# 1 159.5330 2.4545 83.3573 0.0000 0.0000 0.0000
# 2 2.4545 83.0565 -2.8009 0.0000 0.0000 0.0000
# 3 83.3573 -2.8009 126.6142 0.0000 0.0000 0.0000
# 4 0.0000 0.0000 0.0000 -2.4683 0.0000 0.0000
# 5 0.0000 0.0000 0.0000 0.0000 23.2030 0.0000
# 6 0.0000 0.0000 0.0000 0.0000 0.0000 2.1610
#
#
#
# Elastic Compliance Matrix: (Units=1/GPa)
#
#
# Indices 1 2 3 4 5 6 
#
# 1 0.009576 -0.000496 -0.006315 0.000000 0.000000 0.000000
# 2 -0.000496 0.012075 0.000594 0.000000 0.000000 0.000000
# 3 -0.006315 0.000594 0.012069 0.000000 0.000000 0.000000
# 4 0.000000 0.000000 0.000000 -0.405129 0.000000 0.000000
# 5 0.000000 0.000000 0.000000 0.000000 0.043098 0.000000
# 6 0.000000 0.000000 0.000000 0.000000 0.000000 0.462748
#
#
# Mechanical properties :
#
#
# Convention : Reuss Voigt Hill
#
# Bulk Modulus (GPa) = 46.98341 59.46950 53.22646
# Shear Modulus (GPa) = 32.47485 23.65865 28.06675
#
# Velocity S-wave (km/s) = 4.02504 3.43551 3.74191
# Velocity P-wave (km/s) = 6.71120 6.73832 6.72478
#
# Compressibility (1/GPa) = 0.02128411
#
# Stress axis : x y z
#
# Youngs Moduli (GPa) = 104.43148 82.81802 82.85844
#
# Poissons Ratio (x) = 0.04107 0.52327
# Poissons Ratio (y) = 0.05179 -0.04919
# Poissons Ratio (z) = 0.65950 -0.04916
#
# Static dielectric constant tensor:
#      x y z
#    x 1.726980 0.000000 0.000000 
#    y 0.000000 1.804480 0.000000 
#    z 0.000000 0.000000 1.671910 
# 
# From -- ./inp_files/22311.got.cif
#   From: 2010.05.17/outbox.cif.g08.bks.cpg/sg44_12_cif.got.tgz:22311.got - 2010.06.03 19:37:08.
