data_PCOD9373085
_publ_section_title
;
Structure prediction by ZEFSAII (Michael W. Deem and Ramdas Pophale) SiO2 
 PCOD9373085
Probable space group: I M M 2
;
_chemical_formula_sum "Si O2"
_cell_formula_units_Z 64
_cell_length_a 31.795514
_cell_length_b 7.654506
_cell_length_c 14.720868
_cell_angle_alpha 90.000000
_cell_angle_beta 90.000000
_cell_angle_gamma 90.000000
_cell_volume 3582.749436
_symmetry_space_group_name_H-M "I M M 2"
_symmetry_group_IT_number 44
_symmetry_cell_setting 'orthorhombic'
loop_
_space_group_symop_operation_xyz
x,y,z
-x,-y,z
-x,y,z
x,-y,z
1/2+x,1/2+y,1/2+z
1/2-x,1/2-y,1/2+z
1/2-x,1/2+y,1/2+z
1/2+x,1/2-y,1/2+z
loop_
_atom_site_type_symbol
_atom_site_label
_atom_site_fract_x
_atom_site_fract_y
_atom_site_fract_z
Si Si1 0.365471 0.205114 0.564070
Si Si2 0.785663 0.285426 0.518965
Si Si3 0.200359 0.207214 0.917046
Si Si4 0.729124 0.790758 0.224358
Si Si5 0.677413 0.298588 0.746573
Si Si6 0.047356 0.713646 0.344740
Si Si7 0.131371 0.301446 0.418665
Si Si8 0.453151 0.212684 0.633872
O O1 0.340445 0.228814 0.471007
O O2 0.338780 0.293072 0.644050
O O3 0.413588 0.268304 0.573068
O O4 0.365810 0.000000 0.585634
O O5 0.785601 0.500000 0.514853
O O6 0.743784 0.226323 0.464556
O O7 0.783381 0.230049 0.624075
O O8 0.829357 0.224453 0.473990
O O9 0.200474 0.250440 0.810603
O O10 0.201231 0.000000 0.927172
O O11 0.775676 0.723752 0.248589
O O12 0.732845 0.000000 0.217091
O O13 0.677779 0.500000 0.777236
O O14 0.647614 0.196909 0.814790
O O15 0.048835 0.500000 0.345564
O O16 0.084950 0.778354 0.409030
O O17 0.054048 0.765559 0.239173
O O18 0.000000 0.765455 0.370438
O O19 0.126268 0.500000 0.452364
O O20 0.500000 0.272279 0.606964
O O21 0.454247 0.000000 0.633064
#
# Coordination Sequence:
#
# PCOD9373085 Si02
#       8
#     8   8   8   8   8   8   8   8
#     4  11  20  31  49  71  94 128 165 191 230 290
#     4   9  18  31  47  66  91 120 157 197 233 271
#     4  11  21  34  49  70  96 122 155 199 237 273
#     4  10  20  35  47  63  92 127 160 194 232 274
#     4  11  20  29  44  67  98 128 158 200 235 265
#     4   8  13  22  40  68  96 118 149 194 234 273
#     4  10  17  29  48  68  90 126 164 190 230 286
#     4   8  14  25  43  68  95 121 154 196 232 271
#
# _framework density 17.863375999999999
#
# number of rings (size 3 to 8) (size 9 to 14) (size 15 to 20)
#    0.000    2.250    3.750    1.875    0.000    0.500 
#    0.000    0.625    0.000    2.625    0.000    0.875 
#    0.000    5.000    0.000    0.000    0.000    0.000 
#
# Total GULP energy -178430.678258 kJ/mol
# GULP energy per Si atom -5575.958696 kJ/mol
# Density = 1.782272 g / cm^3
# Si number density = 17.863376 Si / 1000 Ang^3
#
#
#
# Elastic Constant Matrix: (Units=GPa)
#
#
# Indices 1 2 3 4 5 6 
#
# 1 126.9023 4.0614 32.4462 0.0000 0.0000 0.0000
# 2 4.0614 37.6003 0.9660 0.0000 0.0000 0.0000
# 3 32.4462 0.9660 66.1764 0.0000 0.0000 0.0000
# 4 0.0000 0.0000 0.0000 14.0328 0.0000 0.0000
# 5 0.0000 0.0000 0.0000 0.0000 26.0445 0.0000
# 6 0.0000 0.0000 0.0000 0.0000 0.0000 1.7254
#
#
#
# Elastic Compliance Matrix: (Units=1/GPa)
#
#
# Indices 1 2 3 4 5 6 
#
# 1 0.009037 -0.000863 -0.004418 0.000000 0.000000 0.000000
# 2 -0.000863 0.026688 0.000033 0.000000 0.000000 0.000000
# 3 -0.004418 0.000033 0.017277 0.000000 0.000000 0.000000
# 4 0.000000 0.000000 0.000000 0.071261 0.000000 0.000000
# 5 0.000000 0.000000 0.000000 0.000000 0.038396 0.000000
# 6 0.000000 0.000000 0.000000 0.000000 0.000000 0.579567
#
#
# Mechanical properties :
#
#
# Convention : Reuss Voigt Hill
#
# Bulk Modulus (GPa) = 23.52559 33.95846 28.74203
# Shear Modulus (GPa) = 6.51983 21.24091 13.88037
#
# Velocity S-wave (km/s) = 1.91253 3.45204 2.79055
# Velocity P-wave (km/s) = 4.25151 5.91102 5.14857
#
# Compressibility (1/GPa) = 0.04250690
#
# Stress axis : x y z
#
# Youngs Moduli (GPa) = 110.65146 37.47019 57.88040
#
# Poissons Ratio (x) = 0.03232 0.25574
# Poissons Ratio (y) = 0.09546 -0.00193
# Poissons Ratio (z) = 0.48891 -0.00125
#
# Static dielectric constant tensor:
#      x y z
#    x 1.655220 0.000000 0.000000 
#    y 0.000000 1.688220 0.000000 
#    z 0.000000 0.000000 1.590390 
# 
# From -- ./inp_files/19686.got.cif
#   From: 2010.05.17/outbox.cif.g08.bks.cpg/sg44_10_cif.got.tgz:19686.got - 2010.06.03 19:37:08.
