data_PCOD9373518
_publ_section_title
;
Structure prediction by ZEFSAII (Michael W. Deem and Ramdas Pophale) SiO2 
 PCOD9373518
Probable space group: I M M 2
;
_chemical_formula_sum "Si O2"
_cell_formula_units_Z 64
_cell_length_a 19.155977
_cell_length_b 18.723168
_cell_length_c 9.873754
_cell_angle_alpha 90.000000
_cell_angle_beta 90.000000
_cell_angle_gamma 90.000000
_cell_volume 3541.326293
_symmetry_space_group_name_H-M "I M M 2"
_symmetry_group_IT_number 44
_symmetry_cell_setting 'orthorhombic'
loop_
_space_group_symop_operation_xyz
x,y,z
-x,-y,z
-x,y,z
x,-y,z
1/2+x,1/2+y,1/2+z
1/2-x,1/2-y,1/2+z
1/2-x,1/2+y,1/2+z
1/2+x,1/2-y,1/2+z
loop_
_atom_site_type_symbol
_atom_site_label
_atom_site_fract_x
_atom_site_fract_y
_atom_site_fract_z
Si Si1 0.336426 0.329688 0.679530
Si Si2 0.161085 0.827050 0.642105
Si Si3 0.580766 0.707639 0.419119
Si Si4 0.418333 0.919644 0.232145
Si Si5 0.916730 0.085782 0.415178
Si Si6 0.186521 0.331894 0.555957
Si Si7 0.186257 0.338805 0.241846
Si Si8 0.919354 0.627738 0.018660
O O1 0.383941 0.332022 0.545270
O O2 0.372650 0.377072 0.794579
O O3 0.258645 0.350629 0.632270
O O4 0.328868 0.246700 0.726382
O O5 0.122444 0.806619 0.781655
O O6 0.115008 0.880111 0.552136
O O7 0.175693 0.753504 0.561394
O O8 0.237753 0.855191 0.680501
O O9 0.500000 0.688193 0.402341
O O10 0.584179 0.790968 0.461681
O O11 0.500000 0.899563 0.233238
O O12 0.375324 0.866922 0.140002
O O13 0.395170 0.916836 0.388788
O O14 0.411422 0.000000 0.180732
O O15 0.000000 0.101902 0.403570
O O16 0.908763 0.000000 0.413006
O O17 0.186151 0.355750 0.400437
O O18 0.128294 0.377019 0.150302
O O19 0.000000 0.611038 0.049962
#
# Coordination Sequence:
#
# PCOD9373518 Si02
#       8
#     8   8   8   8   8   8   8   8
#     4  10  21  37  59  88 120 154 193 247 298 349
#     4  11  21  37  60  90 121 153 195 249 302 353
#     4  10  18  33  58  86 114 148 194 241 292 344
#     4  10  22  39  58  84 118 155 195 239 293 358
#     4  11  25  43  61  87 124 165 208 251 302 363
#     4  11  21  36  61  90 120 155 195 245 304 358
#     4  10  21  36  59  90 121 149 191 250 299 348
#     4   9  19  35  56  84 116 151 193 238 288 354
#
# _framework density 18.072324999999999
#
# number of rings (size 3 to 8) (size 9 to 14) (size 15 to 20)
#    0.000    1.750    3.750    0.750    1.750    2.000 
#    0.000    1.875    0.000    3.750    0.000    0.000 
#    0.000    0.000    0.000    0.000    0.000    0.000 
#
# Total GULP energy -178577.099351 kJ/mol
# GULP energy per Si atom -5580.534355 kJ/mol
# Density = 1.803119 g / cm^3
# Si number density = 18.072325 Si / 1000 Ang^3
#
#
#
# Elastic Constant Matrix: (Units=GPa)
#
#
# Indices 1 2 3 4 5 6 
#
# 1 77.8997 25.1089 39.6464 0.0000 0.0000 0.0000
# 2 25.1089 34.8175 15.0132 0.0000 0.0000 0.0000
# 3 39.6464 15.0132 106.4288 0.0000 0.0000 0.0000
# 4 0.0000 0.0000 0.0000 15.2549 0.0000 0.0000
# 5 0.0000 0.0000 0.0000 0.0000 35.7133 0.0000
# 6 0.0000 0.0000 0.0000 0.0000 0.0000 17.1045
#
#
#
# Elastic Compliance Matrix: (Units=1/GPa)
#
#
# Indices 1 2 3 4 5 6 
#
# 1 0.019424 -0.011593 -0.005600 0.000000 0.000000 0.000000
# 2 -0.011593 0.037500 -0.000971 0.000000 0.000000 0.000000
# 3 -0.005600 -0.000971 0.011619 0.000000 0.000000 0.000000
# 4 0.000000 0.000000 0.000000 0.065553 0.000000 0.000000
# 5 0.000000 0.000000 0.000000 0.000000 0.028001 0.000000
# 6 0.000000 0.000000 0.000000 0.000000 0.000000 0.058464
#
#
# Mechanical properties :
#
#
# Convention : Reuss Voigt Hill
#
# Bulk Modulus (GPa) = 31.04220 42.07589 36.55904
# Shear Modulus (GPa) = 18.68259 22.90635 20.79447
#
# Velocity S-wave (km/s) = 3.21871 3.56403 3.39577
# Velocity P-wave (km/s) = 5.57023 6.34578 5.97061
#
# Compressibility (1/GPa) = 0.03221421
#
# Stress axis : x y z
#
# Youngs Moduli (GPa) = 51.48285 26.66643 86.06428
#
# Poissons Ratio (x) = 0.30914 0.48200
# Poissons Ratio (y) = 0.59683 0.08360
# Poissons Ratio (z) = 0.28832 0.02590
#
# Static dielectric constant tensor:
#      x y z
#    x 1.612220 0.000000 0.000000 
#    y 0.000000 1.616740 0.000000 
#    z 0.000000 0.000000 1.604080 
# 
# From -- ./inp_files/8438.got.cif
#   From: 2010.05.17/outbox.cif.g08.bks.cpg/sg44_5_cif.got.tgz:8438.got - 2010.06.03 19:37:08.
