data_PCOD9373093
_publ_section_title
;
Structure prediction by ZEFSAII (Michael W. Deem and Ramdas Pophale) SiO2 
 PCOD9373093
Probable space group: I M M 2
;
_chemical_formula_sum "Si O2"
_cell_formula_units_Z 64
_cell_length_a 23.989293
_cell_length_b 8.625698
_cell_length_c 19.707349
_cell_angle_alpha 90.000000
_cell_angle_beta 90.000000
_cell_angle_gamma 90.000000
_cell_volume 4077.931301
_symmetry_space_group_name_H-M "I M M 2"
_symmetry_group_IT_number 44
_symmetry_cell_setting 'orthorhombic'
loop_
_space_group_symop_operation_xyz
x,y,z
-x,-y,z
-x,y,z
x,-y,z
1/2+x,1/2+y,1/2+z
1/2-x,1/2-y,1/2+z
1/2-x,1/2+y,1/2+z
1/2+x,1/2-y,1/2+z
loop_
_atom_site_type_symbol
_atom_site_label
_atom_site_fract_x
_atom_site_fract_y
_atom_site_fract_z
Si Si1 0.267982 0.312660 0.670350
Si Si2 0.724545 0.185286 0.376741
Si Si3 0.249428 0.312826 0.519290
Si Si4 0.162176 0.815716 0.751222
Si Si5 0.436534 0.812849 0.881993
Si Si6 0.380435 0.188636 0.022591
Si Si7 0.935568 0.312397 0.664636
Si Si8 0.336962 0.313646 0.797638
O O1 0.262990 0.500000 0.672735
O O2 0.274533 0.267294 0.592174
O O3 0.210680 0.246707 0.701008
O O4 0.317064 0.267785 0.722173
O O5 0.721466 0.242217 0.453607
O O6 0.679303 0.255351 0.325551
O O7 0.785397 0.232688 0.346760
O O8 0.721522 0.000000 0.373129
O O9 0.250938 0.500000 0.514112
O O10 0.184231 0.264330 0.519947
O O11 0.103952 0.752326 0.723260
O O12 0.162496 0.000000 0.750528
O O13 0.500000 0.759866 0.872206
O O14 0.393650 0.757579 0.824974
O O15 0.436611 0.000000 0.882912
O O16 0.412762 0.759981 0.955136
O O17 0.410169 0.238558 0.091968
O O18 0.381080 0.000000 0.022871
O O19 0.933131 0.500000 0.666158
O O20 0.000000 0.265918 0.670424
O O21 0.341223 0.500000 0.799846
#
# Coordination Sequence:
#
# PCOD9373093 Si02
#       8
#     8   8   8   8   8   8   8   8
#     4   9  18  33  50  69  96 127 159 198 244 294
#     4  10  20  33  49  69  97 126 160 200 245 295
#     4  10  17  29  51  73  96 127 160 195 241 292
#     4  11  21  32  48  70  97 128 165 206 247 286
#     4  10  19  30  45  66  93 126 164 200 229 267
#     4   9  16  28  46  68  96 129 165 196 227 277
#     4  10  19  33  52  70  94 134 175 204 240 290
#     4   9  18  31  46  65  91 124 158 195 235 277
#
# _framework density 15.694232
#
# number of rings (size 3 to 8) (size 9 to 14) (size 15 to 20)
#    0.000    2.250    2.500    2.625    0.000    4.500 
#    0.000    0.625    0.000    1.500    0.000    0.875 
#    0.000    5.000    0.000    0.000    0.000    0.000 
#
# Total GULP energy -178485.435749 kJ/mol
# GULP energy per Si atom -5577.669867 kJ/mol
# Density = 1.565851 g / cm^3
# Si number density = 15.694232 Si / 1000 Ang^3
#
#
#
# Elastic Constant Matrix: (Units=GPa)
#
#
# Indices 1 2 3 4 5 6 
#
# 1 97.5452 21.2990 72.9431 0.0000 0.0000 0.0000
# 2 21.2990 16.2255 31.7018 0.0000 0.0000 0.0000
# 3 72.9431 31.7018 150.2013 0.0000 0.0000 0.0000
# 4 0.0000 0.0000 0.0000 22.8790 0.0000 0.0000
# 5 0.0000 0.0000 0.0000 0.0000 21.3740 0.0000
# 6 0.0000 0.0000 0.0000 0.0000 0.0000 19.3843
#
#
#
# Elastic Compliance Matrix: (Units=1/GPa)
#
#
# Indices 1 2 3 4 5 6 
#
# 1 0.017104 -0.010590 -0.006071 0.000000 0.000000 0.000000
# 2 -0.010590 0.111440 -0.018378 0.000000 0.000000 0.000000
# 3 -0.006071 -0.018378 0.013485 0.000000 0.000000 0.000000
# 4 0.000000 0.000000 0.000000 0.043708 0.000000 0.000000
# 5 0.000000 0.000000 0.000000 0.000000 0.046786 0.000000
# 6 0.000000 0.000000 0.000000 0.000000 0.000000 0.051588
#
#
# Mechanical properties :
#
#
# Convention : Reuss Voigt Hill
#
# Bulk Modulus (GPa) = 13.89842 57.31775 35.60808
# Shear Modulus (GPa) = 13.22148 21.92934 17.57541
#
# Velocity S-wave (km/s) = 2.90563 3.74208 3.35007
# Velocity P-wave (km/s) = 4.48686 7.43450 6.14018
#
# Compressibility (1/GPa) = 0.07195064
#
# Stress axis : x y z
#
# Youngs Moduli (GPa) = 58.46620 8.97344 74.15714
#
# Poissons Ratio (x) = 0.09503 0.45021
# Poissons Ratio (y) = 0.61918 1.36284
# Poissons Ratio (z) = 0.35495 0.16491
#
# Static dielectric constant tensor:
#      x y z
#    x 1.501680 0.000000 0.000000 
#    y 0.000000 1.535450 0.000000 
#    z 0.000000 0.000000 1.527700 
# 
# From -- ./inp_files/20859.got.cif
#   From: 2010.05.17/outbox.cif.g08.bks.cpg/sg44_11_cif.got.tgz:20859.got - 2010.06.03 19:37:08.
