data_PCOD9373981
_publ_section_title
;
Structure prediction by ZEFSAII (Michael W. Deem and Ramdas Pophale) SiO2 
 PCOD9373981
Probable space group: I M M 2
;
_chemical_formula_sum "Si O2"
_cell_formula_units_Z 56
_cell_length_a 20.452306
_cell_length_b 14.568708
_cell_length_c 9.149144
_cell_angle_alpha 90.000000
_cell_angle_beta 90.000000
_cell_angle_gamma 90.000000
_cell_volume 2726.112561
_symmetry_space_group_name_H-M "I M M 2"
_symmetry_group_IT_number 44
_symmetry_cell_setting 'orthorhombic'
loop_
_space_group_symop_operation_xyz
x,y,z
-x,-y,z
-x,y,z
x,-y,z
1/2+x,1/2+y,1/2+z
1/2-x,1/2-y,1/2+z
1/2-x,1/2+y,1/2+z
1/2+x,1/2-y,1/2+z
loop_
_atom_site_type_symbol
_atom_site_label
_atom_site_fract_x
_atom_site_fract_y
_atom_site_fract_z
Si Si1 0.779320 0.608062 0.995740
Si Si2 0.925218 0.391012 0.563314
Si Si3 0.137274 0.106094 0.357432
Si Si4 0.119235 0.266360 0.825721
Si Si5 0.637788 0.108487 0.769990
Si Si6 0.070741 0.768964 0.138114
Si Si7 0.424917 0.607587 0.153812
O O1 0.796868 0.500000 0.969658
O O2 0.705132 0.618748 0.943969
O O3 0.820921 0.677705 0.896138
O O4 0.798884 0.625896 0.166309
O O5 0.918748 0.500000 0.590841
O O6 0.914552 0.334562 0.710637
O O7 0.871356 0.364097 0.440070
O O8 0.000000 0.374783 0.510595
O O9 0.125533 0.172251 0.221431
O O10 0.082874 0.123357 0.480886
O O11 0.133919 0.000000 0.310094
O O12 0.126338 0.172428 0.735635
O O13 0.078147 0.234615 0.965575
O O14 0.581306 0.165011 0.690054
O O15 0.626375 0.000000 0.767519
O O16 0.000000 0.805498 0.179733
O O17 0.500000 0.628274 0.196326
O O18 0.412109 0.500000 0.180500
#
# Coordination Sequence:
#
# PCOD9373981 Si02
#       7
#     8   8   8   8   8   8   8
#     4   9  20  40  62  87 120 156 196 245 304 364
#     4  10  19  32  54  86 123 163 204 245 295 357
#     4  10  22  41  63  85 114 155 205 258 306 357
#     4  11  22  36  57  85 122 160 199 246 300 357
#     4   9  19  36  59  87 119 154 195 245 299 359
#     4  11  22  35  56  87 121 161 206 250 300 355
#     4  10  21  38  60  84 111 149 198 252 308 358
#
# _framework density 20.542072000000001
#
# number of rings (size 3 to 8) (size 9 to 14) (size 15 to 20)
#    0.000    2.000    0.000    3.429    0.000    5.143 
#    0.000    1.429    0.000    3.429    0.000    0.000 
#    0.000    0.000    0.000    0.000    0.000    0.000 
#
# Total GULP energy -156077.772060 kJ/mol
# GULP energy per Si atom -5574.206145 kJ/mol
# Density = 2.049532 g / cm^3
# Si number density = 20.542072 Si / 1000 Ang^3
#
#
#
# Elastic Constant Matrix: (Units=GPa)
#
#
# Indices 1 2 3 4 5 6 
#
# 1 68.2561 36.4658 41.5992 0.0000 0.0000 0.0000
# 2 36.4658 59.0776 54.6147 0.0000 0.0000 0.0000
# 3 41.5992 54.6147 131.1635 0.0000 0.0000 0.0000
# 4 0.0000 0.0000 0.0000 35.6009 0.0000 0.0000
# 5 0.0000 0.0000 0.0000 0.0000 21.7931 0.0000
# 6 0.0000 0.0000 0.0000 0.0000 0.0000 15.2543
#
#
#
# Elastic Compliance Matrix: (Units=1/GPa)
#
#
# Indices 1 2 3 4 5 6 
#
# 1 0.022234 -0.011714 -0.002174 0.000000 0.000000 0.000000
# 2 -0.011714 0.033692 -0.010314 0.000000 0.000000 0.000000
# 3 -0.002174 -0.010314 0.012608 0.000000 0.000000 0.000000
# 4 0.000000 0.000000 0.000000 0.028089 0.000000 0.000000
# 5 0.000000 0.000000 0.000000 0.000000 0.045886 0.000000
# 6 0.000000 0.000000 0.000000 0.000000 0.000000 0.065555
#
#
# Mechanical properties :
#
#
# Convention : Reuss Voigt Hill
#
# Bulk Modulus (GPa) = 49.67636 58.20630 53.94133
# Shear Modulus (GPa) = 18.99852 22.91749 20.95800
#
# Velocity S-wave (km/s) = 3.04445 3.34374 3.19760
# Velocity P-wave (km/s) = 6.04925 6.58059 6.32051
#
# Compressibility (1/GPa) = 0.02013030
#
# Stress axis : x y z
#
# Youngs Moduli (GPa) = 44.97619 29.68060 79.31444
#
# Poissons Ratio (x) = 0.34768 0.17243
# Poissons Ratio (y) = 0.52686 0.81802
# Poissons Ratio (z) = 0.09778 0.30612
#
# Static dielectric constant tensor:
#      x y z
#    x 1.740480 0.000000 0.000000 
#    y 0.000000 1.745000 0.000000 
#    z 0.000000 0.000000 1.741620 
# 
# From -- ./inp_files/8919.got.cif
#   From: 2010.05.17/outbox.cif.g08.bks.cpg/sg44_5_cif.got.tgz:8919.got - 2010.06.03 19:37:08.
