data_PCOD9373246
_publ_section_title
;
Structure prediction by ZEFSAII (Michael W. Deem and Ramdas Pophale) SiO2 
 PCOD9373246
Probable space group: I M M 2
;
_chemical_formula_sum "Si O2"
_cell_formula_units_Z 42
_cell_length_a 12.043108
_cell_length_b 7.810568
_cell_length_c 23.497184
_cell_angle_alpha 90.000000
_cell_angle_beta 90.000000
_cell_angle_gamma 90.000000
_cell_volume 2210.227695
_symmetry_space_group_name_H-M "I M M 2"
_symmetry_group_IT_number 44
_symmetry_cell_setting 'orthorhombic'
loop_
_space_group_symop_operation_xyz
x,y,z
-x,-y,z
-x,y,z
x,-y,z
1/2+x,1/2+y,1/2+z
1/2-x,1/2-y,1/2+z
1/2-x,1/2+y,1/2+z
1/2+x,1/2-y,1/2+z
loop_
_atom_site_type_symbol
_atom_site_label
_atom_site_fract_x
_atom_site_fract_y
_atom_site_fract_z
Si Si1 0.205634 0.803918 0.363440
Si Si2 0.251613 0.000000 0.060163
Si Si3 0.000000 0.741697 0.161719
Si Si4 0.000000 0.000000 0.059411
Si Si5 0.871124 0.793527 0.768086
Si Si6 0.500000 0.206517 0.784339
Si Si7 0.366244 0.000000 0.942583
Si Si8 0.255346 0.690966 0.149530
O O1 0.314329 0.781562 0.324392
O O2 0.106692 0.755719 0.320349
O O3 0.189722 0.666404 0.413436
O O4 0.195747 0.000000 0.382855
O O5 0.124619 0.000000 0.033769
O O6 0.267029 0.833547 0.100573
O O7 0.337942 0.000000 0.008927
O O8 0.876019 0.668480 0.159910
O O9 0.000000 0.845150 0.103615
O O10 0.000000 0.809826 0.225868
O O11 0.809623 0.747732 0.709002
O O12 0.000000 0.747065 0.764355
O O13 0.861309 0.000000 0.772606
O O14 0.500000 0.000000 0.772643
O O15 0.500000 0.000000 0.931997
O O16 0.300764 0.500000 0.135607
#
# Coordination Sequence:
#
# PCOD9373246 Si02
#       8
#     8   4   4   2   8   4   4   8
#     4  12  24  39  63  92 123 161 205 256 311 370
#     4  10  24  42  64  86 118 170 207 257 303 358
#     4  10  18  28  59  93 127 158 189 247 318 363
#     4   8  20  40  56  94 122 152 212 248 302 374
#     4  10  21  38  60  91 133 168 198 248 313 377
#     4  12  19  33  60  95 132 159 187 247 317 372
#     4  12  26  48  64  88 124 162 216 263 309 367
#     4  10  20  36  59  92 124 157 203 252 306 368
#
# _framework density 19.002566000000002
#
# number of rings (size 3 to 8) (size 9 to 14) (size 15 to 20)
#    0.000    1.333    4.762    1.143    2.667    1.905 
#    1.714    0.000    0.000    0.000    0.000    0.000 
#    0.000    0.000    0.000    0.000    0.000    0.000 
#
# Total GULP energy -116989.143444 kJ/mol
# GULP energy per Si atom -5570.911593 kJ/mol
# Density = 1.895932 g / cm^3
# Si number density = 19.002566 Si / 1000 Ang^3
#
#
#
# Elastic Constant Matrix: (Units=GPa)
#
#
# Indices 1 2 3 4 5 6 
#
# 1 96.4731 30.2724 31.8713 0.0000 0.0000 0.0000
# 2 30.2724 125.8755 56.2091 0.0000 0.0000 0.0000
# 3 31.8713 56.2091 98.2949 0.0000 0.0000 0.0000
# 4 0.0000 0.0000 0.0000 -59.4286 0.0000 0.0000
# 5 0.0000 0.0000 0.0000 0.0000 32.5355 0.0000
# 6 0.0000 0.0000 0.0000 0.0000 0.0000 13.4879
#
#
#
# Elastic Compliance Matrix: (Units=1/GPa)
#
#
# Indices 1 2 3 4 5 6 
#
# 1 0.011822 -0.001519 -0.002964 0.000000 0.000000 0.000000
# 2 -0.001519 0.010864 -0.005720 0.000000 0.000000 0.000000
# 3 -0.002964 -0.005720 0.014405 0.000000 0.000000 0.000000
# 4 0.000000 0.000000 0.000000 -0.016827 0.000000 0.000000
# 5 0.000000 0.000000 0.000000 0.000000 0.030736 0.000000
# 6 0.000000 0.000000 0.000000 0.000000 0.000000 0.074141
#
#
# Mechanical properties :
#
#
# Convention : Reuss Voigt Hill
#
# Bulk Modulus (GPa) = 59.93707 61.92767 60.93237
# Shear Modulus (GPa) = 33.08882 10.80500 21.94691
#
# Velocity S-wave (km/s) = 4.17739 2.38714 3.40213
# Velocity P-wave (km/s) = 7.40794 6.34490 6.89693
#
# Compressibility (1/GPa) = 0.01668417
#
# Stress axis : x y z
#
# Youngs Moduli (GPa) = 84.59068 92.04798 69.41841
#
# Poissons Ratio (x) = 0.13986 0.20577
# Poissons Ratio (y) = 0.12853 0.39706
# Poissons Ratio (z) = 0.25075 0.52649
#
# Static dielectric constant tensor:
#      x y z
#    x 1.742490 0.000000 0.000000 
#    y 0.000000 1.735740 0.000000 
#    z 0.000000 0.000000 1.610900 
# 
# From -- ./inp_files/25342.got.cif
#   From: 2010.05.17/outbox.cif.g08.bks.cpg/sg44_13_cif.got.tgz:25342.got - 2010.06.03 19:37:08.
