data_PCOD9373016
_publ_section_title
;
Structure prediction by ZEFSAII (Michael W. Deem and Ramdas Pophale) SiO2 
 PCOD9373016
Probable space group: I M M 2
;
_chemical_formula_sum "Si O2"
_cell_formula_units_Z 28
_cell_length_a 18.727025
_cell_length_b 9.682762
_cell_length_c 8.678206
_cell_angle_alpha 90.000000
_cell_angle_beta 90.000000
_cell_angle_gamma 90.000000
_cell_volume 1573.613245
_symmetry_space_group_name_H-M "I M M 2"
_symmetry_group_IT_number 44
_symmetry_cell_setting 'orthorhombic'
loop_
_space_group_symop_operation_xyz
x,y,z
-x,-y,z
-x,y,z
x,-y,z
1/2+x,1/2+y,1/2+z
1/2-x,1/2-y,1/2+z
1/2-x,1/2+y,1/2+z
1/2+x,1/2-y,1/2+z
loop_
_atom_site_type_symbol
_atom_site_label
_atom_site_fract_x
_atom_site_fract_y
_atom_site_fract_z
Si Si1 0.000000 0.000000 0.465441
Si Si2 0.841754 0.337796 0.176189
Si Si3 0.777679 0.841447 0.899315
Si Si4 0.000000 0.000000 0.965732
Si Si5 0.121947 0.000000 0.714948
Si Si6 0.500000 0.262629 0.714806
O O1 0.000000 0.136576 0.361676
O O2 0.071766 0.000000 0.568157
O O3 0.826108 0.500000 0.153300
O O4 0.796660 0.291249 0.326954
O O5 0.925880 0.319068 0.204963
O O6 0.814306 0.251783 0.028313
O O7 0.828148 0.867374 0.748234
O O8 0.769007 0.000000 0.960024
O O9 0.931397 0.000000 0.859206
O O10 0.000000 0.865949 0.070345
#
# Coordination Sequence:
#
# PCOD9373016 Si02
#       6
#     2   8   8   2   4   4
#     4  10  24  32  66  90 116 150 204 246 290 350
#     4  11  23  38  60  88 120 155 194 244 300 347
#     4   9  21  38  61  83 116 152 198 243 284 352
#     4  10  16  36  64  80 110 152 198 234 288 352
#     4   9  18  40  58  87 110 148 202 248 277 347
#     4  11  21  36  57  89 117 157 191 241 296 356
#
# _framework density 17.793443
#
# number of rings (size 3 to 8) (size 9 to 14) (size 15 to 20)
#    0.857    1.143    2.857    0.429    6.000    1.143 
#    0.000    0.000    0.000    0.000    0.000    0.000 
#    0.000    0.000    0.000    0.000    0.000    0.000 
#
# Total GULP energy -77939.076457 kJ/mol
# GULP energy per Si atom -5567.076890 kJ/mol
# Density = 1.775294 g / cm^3
# Si number density = 17.793443 Si / 1000 Ang^3
#
#
#
# Elastic Constant Matrix: (Units=GPa)
#
#
# Indices 1 2 3 4 5 6 
#
# 1 142.4714 27.4227 46.2737 0.0000 0.0000 0.0000
# 2 27.4227 64.6237 38.3861 0.0000 0.0000 0.0000
# 3 46.2737 38.3861 83.8812 0.0000 0.0000 0.0000
# 4 0.0000 0.0000 0.0000 61.0464 0.0000 0.0000
# 5 0.0000 0.0000 0.0000 0.0000 -24.2559 0.0000
# 6 0.0000 0.0000 0.0000 0.0000 0.0000 -64.1906
#
#
#
# Elastic Compliance Matrix: (Units=1/GPa)
#
#
# Indices 1 2 3 4 5 6 
#
# 1 0.008612 -0.001143 -0.004228 0.000000 0.000000 0.000000
# 2 -0.001143 0.021402 -0.009164 0.000000 0.000000 0.000000
# 3 -0.004228 -0.009164 0.018447 0.000000 0.000000 0.000000
# 4 0.000000 0.000000 0.000000 0.016381 0.000000 0.000000
# 5 0.000000 0.000000 0.000000 0.000000 -0.041227 0.000000
# 6 0.000000 0.000000 0.000000 0.000000 0.000000 -0.015579
#
#
# Mechanical properties :
#
#
# Convention : Reuss Voigt Hill
#
# Bulk Modulus (GPa) = 51.56566 57.23790 54.40178
# Shear Modulus (GPa) = 114.75532 6.44622 60.60077
#
# Velocity S-wave (km/s) = 8.03947 1.90543 5.84225
# Velocity P-wave (km/s) = 10.73408 6.08923 8.72637
#
# Compressibility (1/GPa) = 0.01939275
#
# Stress axis : x y z
#
# Youngs Moduli (GPa) = 116.11495 46.72357 54.20813
#
# Poissons Ratio (x) = 0.05342 0.22918
# Poissons Ratio (y) = 0.13275 0.49674
# Poissons Ratio (z) = 0.49091 0.42816
#
# Static dielectric constant tensor:
#      x y z
#    x 1.725450 0.000000 0.000000 
#    y 0.000000 1.584990 0.000000 
#    z 0.000000 0.000000 1.596430 
# 
# From -- ./inp_files/4206.got.cif
#   From: 2010.05.17/outbox.cif.g08.bks.cpg/sg44_3_cif.got.tgz:4206.got - 2010.06.03 19:37:08.
