data_PCOD9373645
_publ_section_title
;
Structure prediction by ZEFSAII (Michael W. Deem and Ramdas Pophale) SiO2 
 PCOD9373645
Probable space group: I M M 2
;
_chemical_formula_sum "Si O2"
_cell_formula_units_Z 48
_cell_length_a 7.328311
_cell_length_b 14.321577
_cell_length_c 18.981712
_cell_angle_alpha 90.000000
_cell_angle_beta 90.000000
_cell_angle_gamma 90.000000
_cell_volume 1992.187055
_symmetry_space_group_name_H-M "I M M 2"
_symmetry_group_IT_number 44
_symmetry_cell_setting 'orthorhombic'
loop_
_space_group_symop_operation_xyz
x,y,z
-x,-y,z
-x,y,z
x,-y,z
1/2+x,1/2+y,1/2+z
1/2-x,1/2-y,1/2+z
1/2-x,1/2+y,1/2+z
1/2+x,1/2-y,1/2+z
loop_
_atom_site_type_symbol
_atom_site_label
_atom_site_fract_x
_atom_site_fract_y
_atom_site_fract_z
Si Si1 0.280932 0.302598 0.120980
Si Si2 0.219311 0.897697 0.972433
Si Si3 0.276672 0.607826 0.974829
Si Si4 0.790175 0.398418 0.637786
Si Si5 0.204222 0.243356 0.361870
Si Si6 0.784013 0.602047 0.261014
O O1 0.500000 0.292811 0.115826
O O2 0.208912 0.203765 0.151782
O O3 0.239366 0.380896 0.178274
O O4 0.216214 0.333184 0.043505
O O5 0.303248 0.817077 0.926251
O O6 0.000000 0.887729 0.973003
O O7 0.264710 0.000000 0.943073
O O8 0.285997 0.896837 0.052522
O O9 0.500000 0.611504 0.974129
O O10 0.224431 0.500000 0.981883
O O11 0.213853 0.653876 0.901230
O O12 0.710776 0.500000 0.658804
O O13 0.000000 0.398652 0.662392
O O14 0.293093 0.307504 0.301727
O O15 0.000000 0.217113 0.338094
O O16 0.709488 0.500000 0.280040
O O17 0.000000 0.601114 0.277159
#
# Coordination Sequence:
#
# PCOD9373645 Si02
#       6
#     8   8   8   8   8   8
#     4  10  19  34  56  81 108 140 177 220 268 317
#     4  10  19  29  46  76 109 135 164 212 269 313
#     4   9  17  31  54  82 105 130 175 227 267 310
#     4   9  17  31  52  77 104 137 177 214 255 312
#     4  10  19  35  55  75 103 141 182 221 262 314
#     4  10  22  37  53  77 109 145 181 220 269 322
#
# _framework density 24.094121999999999
#
# number of rings (size 3 to 8) (size 9 to 14) (size 15 to 20)
#    0.000    2.333    1.667    1.500    0.000    4.000 
#    0.000    0.833    0.000    1.500    0.000    0.000 
#    0.000    0.000    0.000    0.000    0.000    0.000 
#
# Total GULP energy -133932.989366 kJ/mol
# GULP energy per Si atom -5580.541224 kJ/mol
# Density = 2.403928 g / cm^3
# Si number density = 24.094122 Si / 1000 Ang^3
#
#
#
# Elastic Constant Matrix: (Units=GPa)
#
#
# Indices 1 2 3 4 5 6 
#
# 1 108.0798 6.4930 -7.7355 0.0000 0.0000 0.0000
# 2 6.4930 158.2156 29.4872 0.0000 0.0000 0.0000
# 3 -7.7355 29.4872 78.5736 0.0000 0.0000 0.0000
# 4 0.0000 0.0000 0.0000 25.7306 0.0000 0.0000
# 5 0.0000 0.0000 0.0000 0.0000 5.6993 0.0000
# 6 0.0000 0.0000 0.0000 0.0000 0.0000 20.6290
#
#
#
# Elastic Compliance Matrix: (Units=1/GPa)
#
#
# Indices 1 2 3 4 5 6 
#
# 1 0.009370 -0.000598 0.001147 0.000000 0.000000 0.000000
# 2 -0.000598 0.006834 -0.002624 0.000000 0.000000 0.000000
# 3 0.001147 -0.002624 0.013824 0.000000 0.000000 0.000000
# 4 0.000000 0.000000 0.000000 0.038864 0.000000 0.000000
# 5 0.000000 0.000000 0.000000 0.000000 0.175461 0.000000
# 6 0.000000 0.000000 0.000000 0.000000 0.000000 0.048476
#
#
# Mechanical properties :
#
#
# Convention : Reuss Voigt Hill
#
# Bulk Modulus (GPa) = 38.64109 44.59539 41.61824
# Shear Modulus (GPa) = 16.36094 31.52006 23.94050
#
# Velocity S-wave (km/s) = 2.60867 3.62084 3.15560
# Velocity P-wave (km/s) = 5.01457 6.00247 5.53062
#
# Compressibility (1/GPa) = 0.02587919
#
# Stress axis : x y z
#
# Youngs Moduli (GPa) = 106.71831 146.32694 72.33568
#
# Poissons Ratio (x) = 0.08755 -0.08297
# Poissons Ratio (y) = 0.06385 0.18978
# Poissons Ratio (z) = -0.12241 0.38390
#
# Static dielectric constant tensor:
#      x y z
#    x 1.920700 0.000000 0.000000 
#    y 0.000000 1.989540 0.000000 
#    z 0.000000 0.000000 1.879440 
# 
# From -- ./inp_files/20304.got.cif
#   From: 2010.05.17/outbox.cif.g08.bks.cpg/sg44_11_cif.got.tgz:20304.got - 2010.06.03 19:37:08.
