data_PCOD9373918
_publ_section_title
;
Structure prediction by ZEFSAII (Michael W. Deem and Ramdas Pophale) SiO2 
 PCOD9373918
Probable space group: I M M 2
;
_chemical_formula_sum "Si O2"
_cell_formula_units_Z 64
_cell_length_a 17.382019
_cell_length_b 19.683477
_cell_length_c 9.725424
_cell_angle_alpha 90.000000
_cell_angle_beta 90.000000
_cell_angle_gamma 90.000000
_cell_volume 3327.442672
_symmetry_space_group_name_H-M "I M M 2"
_symmetry_group_IT_number 44
_symmetry_cell_setting 'orthorhombic'
loop_
_space_group_symop_operation_xyz
x,y,z
-x,-y,z
-x,y,z
x,-y,z
1/2+x,1/2+y,1/2+z
1/2-x,1/2-y,1/2+z
1/2-x,1/2+y,1/2+z
1/2+x,1/2-y,1/2+z
loop_
_atom_site_type_symbol
_atom_site_label
_atom_site_fract_x
_atom_site_fract_y
_atom_site_fract_z
Si Si1 0.680383 0.200618 0.257420
Si Si2 0.343219 0.623349 0.036274
Si Si3 0.689194 0.773579 0.944234
Si Si4 0.588995 0.327658 0.294975
Si Si5 0.329048 0.920115 0.469006
Si Si6 0.092888 0.663527 0.205931
Si Si7 0.410168 0.428677 0.783073
Si Si8 0.092961 0.189861 0.102383
O O1 0.740850 0.246168 0.347842
O O2 0.605212 0.248640 0.261556
O O3 0.662410 0.130655 0.337566
O O4 0.706712 0.195964 0.096978
O O5 0.361181 0.626516 0.195392
O O6 0.259414 0.593752 0.009842
O O7 0.350482 0.701472 0.983798
O O8 0.401260 0.580686 0.944678
O O9 0.636847 0.824058 0.851446
O O10 0.500000 0.342819 0.273659
O O11 0.609853 0.337346 0.452668
O O12 0.378800 0.894664 0.600940
O O13 0.341888 0.000000 0.440806
O O14 0.116693 0.733211 0.126741
O O15 0.000000 0.660558 0.224246
O O16 0.500000 0.430123 0.747519
O O17 0.374399 0.500000 0.739637
O O18 0.374594 0.363220 0.711323
O O19 0.000000 0.192666 0.115871
#
# Coordination Sequence:
#
# PCOD9373918 Si02
#       8
#     8   8   8   8   8   8   8   8
#     4  10  21  36  58  89 123 156 200 251 309 368
#     4  10  20  35  56  83 118 150 192 239 294 357
#     4  10  20  35  59  89 117 152 193 256 312 363
#     4  10  19  32  56  87 116 146 189 245 298 350
#     4  11  24  42  60  84 122 168 211 254 309 369
#     4  11  21  38  62  89 117 156 208 261 310 363
#     4  10  19  32  51  78 115 157 196 236 290 359
#     4   9  18  32  52  82 117 148 191 243 294 351
#
# _framework density 19.233989999999999
#
# number of rings (size 3 to 8) (size 9 to 14) (size 15 to 20)
#    0.000    1.875    2.500    3.000    0.000    2.250 
#    0.000    1.875    0.000    3.000    0.000    0.000 
#    0.000    0.000    0.000    0.000    0.000    0.000 
#
# Total GULP energy -178268.871410 kJ/mol
# GULP energy per Si atom -5570.902232 kJ/mol
# Density = 1.919021 g / cm^3
# Si number density = 19.233990 Si / 1000 Ang^3
#
#
#
# Elastic Constant Matrix: (Units=GPa)
#
#
# Indices 1 2 3 4 5 6 
#
# 1 30.6125 11.2736 18.4563 0.0000 0.0000 0.0000
# 2 11.2736 93.0645 35.0456 0.0000 0.0000 0.0000
# 3 18.4563 35.0456 108.1024 0.0000 0.0000 0.0000
# 4 0.0000 0.0000 0.0000 8.6810 0.0000 0.0000
# 5 0.0000 0.0000 0.0000 0.0000 27.0844 0.0000
# 6 0.0000 0.0000 0.0000 0.0000 0.0000 8.7765
#
#
#
# Elastic Compliance Matrix: (Units=1/GPa)
#
#
# Indices 1 2 3 4 5 6 
#
# 1 0.036875 -0.002388 -0.005522 0.000000 0.000000 0.000000
# 2 -0.002388 0.012394 -0.003610 0.000000 0.000000 0.000000
# 3 -0.005522 -0.003610 0.011364 0.000000 0.000000 0.000000
# 4 0.000000 0.000000 0.000000 0.115194 0.000000 0.000000
# 5 0.000000 0.000000 0.000000 0.000000 0.036922 0.000000
# 6 0.000000 0.000000 0.000000 0.000000 0.000000 0.113941
#
#
# Mechanical properties :
#
#
# Convention : Reuss Voigt Hill
#
# Bulk Modulus (GPa) = 26.60056 40.14782 33.37419
# Shear Modulus (GPa) = 13.80228 20.04196 16.92212
#
# Velocity S-wave (km/s) = 2.68171 3.23152 2.96937
# Velocity P-wave (km/s) = 4.84239 5.90274 5.39866
#
# Compressibility (1/GPa) = 0.03759319
#
# Stress axis : x y z
#
# Youngs Moduli (GPa) = 27.11891 80.68395 88.00005
#
# Poissons Ratio (x) = 0.19264 0.48590
# Poissons Ratio (y) = 0.06475 0.31771
# Poissons Ratio (z) = 0.14974 0.29130
#
# Static dielectric constant tensor:
#      x y z
#    x 1.724570 0.000000 0.000000 
#    y 0.000000 1.691740 0.000000 
#    z 0.000000 0.000000 1.701980 
# 
# From -- ./inp_files/8453.got.cif
#   From: 2010.05.17/outbox.cif.g08.bks.cpg/sg44_5_cif.got.tgz:8453.got - 2010.06.03 19:37:08.
