data_PCOD9373120
_publ_section_title
;
Structure prediction by ZEFSAII (Michael W. Deem and Ramdas Pophale) SiO2 
 PCOD9373120
Probable space group: I M M 2
;
_chemical_formula_sum "Si O2"
_cell_formula_units_Z 64
_cell_length_a 7.624960
_cell_length_b 16.095834
_cell_length_c 24.458681
_cell_angle_alpha 90.000000
_cell_angle_beta 90.000000
_cell_angle_gamma 90.000000
_cell_volume 3001.816131
_symmetry_space_group_name_H-M "I M M 2"
_symmetry_group_IT_number 44
_symmetry_cell_setting 'orthorhombic'
loop_
_space_group_symop_operation_xyz
x,y,z
-x,-y,z
-x,y,z
x,-y,z
1/2+x,1/2+y,1/2+z
1/2-x,1/2-y,1/2+z
1/2-x,1/2+y,1/2+z
1/2+x,1/2-y,1/2+z
loop_
_atom_site_type_symbol
_atom_site_label
_atom_site_fract_x
_atom_site_fract_y
_atom_site_fract_z
Si Si1 0.707242 0.091548 0.352000
Si Si2 0.789797 0.159142 0.470723
Si Si3 0.292586 0.251228 0.662623
Si Si4 0.285180 0.592609 0.591440
Si Si5 0.711783 0.407011 0.088032
Si Si6 0.794083 0.250220 0.788493
Si Si7 0.715202 0.591268 0.353666
Si Si8 0.208337 0.145500 0.972387
O O1 0.500000 0.086431 0.339767
O O2 0.724757 0.116279 0.415515
O O3 0.782315 0.166226 0.315374
O O4 0.783540 0.000000 0.342571
O O5 0.727035 0.116713 0.526836
O O6 0.737282 0.255689 0.471259
O O7 0.000000 0.154370 0.470051
O O8 0.500000 0.261996 0.667819
O O9 0.224409 0.331048 0.628928
O O10 0.261040 0.166690 0.629078
O O11 0.220134 0.247933 0.723604
O O12 0.500000 0.595056 0.591012
O O13 0.233776 0.500000 0.609472
O O14 0.224089 0.608822 0.529288
O O15 0.500000 0.408633 0.086680
O O16 0.772105 0.500000 0.102978
O O17 0.721883 0.166858 0.816243
O O18 0.000000 0.250686 0.803095
O O19 0.500000 0.591954 0.353633
O O20 0.769696 0.500000 0.334881
O O21 0.774632 0.607048 0.415933
O O22 0.000000 0.129986 0.972648
#
# Coordination Sequence:
#
# PCOD9373120 Si02
#       8
#     8   8   8   8   8   8   8   8
#     4  10  21  38  60  85 113 149 193 235 275 329
#     4  11  21  34  57  87 120 150 181 227 287 345
#     4  11  23  38  58  84 113 146 191 241 285 329
#     4   9  18  33  56  85 114 144 180 227 280 335
#     4  10  22  40  60  82 112 152 192 230 282 348
#     4  10  21  38  57  79 111 149 191 232 276 331
#     4   9  17  31  56  85 107 136 181 227 271 326
#     4  10  17  32  58  85 112 142 181 227 278 338
#
# _framework density 21.320425
#
# number of rings (size 3 to 8) (size 9 to 14) (size 15 to 20)
#    0.000    2.000    2.500    1.500    0.000    4.500 
#    0.000    1.250    0.000    4.875    0.000    0.000 
#    0.000    0.000    0.000    0.000    0.000    0.000 
#
# Total GULP energy -178769.544547 kJ/mol
# GULP energy per Si atom -5586.548267 kJ/mol
# Density = 2.127190 g / cm^3
# Si number density = 21.320425 Si / 1000 Ang^3
#
#
#
# Elastic Constant Matrix: (Units=GPa)
#
#
# Indices 1 2 3 4 5 6 
#
# 1 42.2356 2.0509 -16.2811 0.0000 0.0000 0.0000
# 2 2.0509 228.1254 83.2676 0.0000 0.0000 0.0000
# 3 -16.2811 83.2676 142.6822 0.0000 0.0000 0.0000
# 4 0.0000 0.0000 0.0000 2.2591 0.0000 0.0000
# 5 0.0000 0.0000 0.0000 0.0000 18.5003 0.0000
# 6 0.0000 0.0000 0.0000 0.0000 0.0000 3.3880
#
#
#
# Elastic Compliance Matrix: (Units=1/GPa)
#
#
# Indices 1 2 3 4 5 6 
#
# 1 0.025231 -0.001624 0.003826 0.000000 0.000000 0.000000
# 2 -0.001624 0.005675 -0.003497 0.000000 0.000000 0.000000
# 3 0.003826 -0.003497 0.009486 0.000000 0.000000 0.000000
# 4 0.000000 0.000000 0.000000 0.442652 0.000000 0.000000
# 5 0.000000 0.000000 0.000000 0.000000 0.054053 0.000000
# 6 0.000000 0.000000 0.000000 0.000000 0.000000 0.295158
#
#
# Mechanical properties :
#
#
# Convention : Reuss Voigt Hill
#
# Bulk Modulus (GPa) = 26.45276 61.23533 43.84405
# Shear Modulus (GPa) = 5.90010 27.76319 16.83165
#
# Velocity S-wave (km/s) = 1.66534 3.61250 2.81278
# Velocity P-wave (km/s) = 4.01646 6.79588 5.58193
#
# Compressibility (1/GPa) = 0.03780323
#
# Stress axis : x y z
#
# Youngs Moduli (GPa) = 39.63445 176.22620 105.41933
#
# Poissons Ratio (x) = 0.28611 -0.40338
# Poissons Ratio (y) = 0.06435 0.36863
# Poissons Ratio (z) = -0.15166 0.61623
#
# Static dielectric constant tensor:
#      x y z
#    x 1.807990 0.000000 0.000000 
#    y 0.000000 1.771560 0.000000 
#    z 0.000000 0.000000 1.724840 
# 
# From -- ./inp_files/25112.got.cif
#   From: 2010.05.17/outbox.cif.g08.bks.cpg/sg44_13_cif.got.tgz:25112.got - 2010.06.03 19:37:08.
