data_PCOD9373497
_publ_section_title
;
Structure prediction by ZEFSAII (Michael W. Deem and Ramdas Pophale) SiO2 
 PCOD9373497
Probable space group: I M M 2
;
_chemical_formula_sum "Si O2"
_cell_formula_units_Z 64
_cell_length_a 8.403816
_cell_length_b 15.985392
_cell_length_c 24.542285
_cell_angle_alpha 90.000000
_cell_angle_beta 90.000000
_cell_angle_gamma 90.000000
_cell_volume 3296.968675
_symmetry_space_group_name_H-M "I M M 2"
_symmetry_group_IT_number 44
_symmetry_cell_setting 'orthorhombic'
loop_
_space_group_symop_operation_xyz
x,y,z
-x,-y,z
-x,y,z
x,-y,z
1/2+x,1/2+y,1/2+z
1/2-x,1/2-y,1/2+z
1/2-x,1/2+y,1/2+z
1/2+x,1/2-y,1/2+z
loop_
_atom_site_type_symbol
_atom_site_label
_atom_site_fract_x
_atom_site_fract_y
_atom_site_fract_z
Si Si1 0.689628 0.592623 0.018910
Si Si2 0.190000 0.250023 0.950122
Si Si3 0.192359 0.593584 0.255492
Si Si4 0.192018 0.407108 0.518797
Si Si5 0.807346 0.338565 0.636099
Si Si6 0.193964 0.406874 0.753693
Si Si7 0.192422 0.750044 0.825501
Si Si8 0.689676 0.851353 0.635049
O O1 0.500000 0.594924 0.013498
O O2 0.747598 0.500000 0.002569
O O3 0.732656 0.607880 0.082042
O O4 0.758424 0.667857 0.983218
O O5 0.248796 0.251403 0.887834
O O6 0.000000 0.248226 0.949154
O O7 0.248708 0.167299 0.980885
O O8 0.242424 0.500000 0.271883
O O9 0.255496 0.666721 0.293934
O O10 0.242288 0.610778 0.192939
O O11 0.000000 0.596692 0.256433
O O12 0.247683 0.500000 0.503098
O O13 0.238155 0.386904 0.581189
O O14 0.000000 0.406799 0.517070
O O15 0.761449 0.385422 0.691520
O O16 0.733186 0.246526 0.635303
O O17 0.000000 0.329962 0.636177
O O18 0.248004 0.500000 0.768953
O O19 0.248687 0.332006 0.792640
O O20 0.000000 0.407111 0.755370
O O21 0.000000 0.748113 0.825609
O O22 0.500000 0.861896 0.630680
#
# Coordination Sequence:
#
# PCOD9373497 Si02
#       8
#     8   8   8   8   8   8   8   8
#     4  11  24  41  62  88 117 153 197 242 291 352
#     4  11  24  40  59  85 118 155 196 247 298 340
#     4  10  22  39  59  85 118 155 192 233 288 350
#     4  10  21  37  59  87 117 152 194 239 290 349
#     4  10  18  32  58  87 116 147 185 234 287 348
#     4   9  17  32  57  86 114 145 183 229 281 339
#     4  10  22  39  59  85 114 149 196 243 286 334
#     4  11  21  35  59  89 122 155 187 233 295 354
#
# _framework density 19.411770000000001
#
# number of rings (size 3 to 8) (size 9 to 14) (size 15 to 20)
#    0.000    1.750    2.500    1.875    0.000    6.000 
#    0.000    3.750    0.000    2.250    0.000    0.000 
#    0.000    0.000    0.000    0.000    0.000    0.000 
#
# Total GULP energy -178771.402438 kJ/mol
# GULP energy per Si atom -5586.606326 kJ/mol
# Density = 1.936759 g / cm^3
# Si number density = 19.411770 Si / 1000 Ang^3
#
#
#
# Elastic Constant Matrix: (Units=GPa)
#
#
# Indices 1 2 3 4 5 6 
#
# 1 10.2548 20.3140 19.9309 0.0000 0.0000 0.0000
# 2 20.3140 205.3640 96.8336 0.0000 0.0000 0.0000
# 3 19.9309 96.8336 163.4020 0.0000 0.0000 0.0000
# 4 0.0000 0.0000 0.0000 -2.0055 0.0000 0.0000
# 5 0.0000 0.0000 0.0000 0.0000 24.7979 0.0000
# 6 0.0000 0.0000 0.0000 0.0000 0.0000 2.0437
#
#
#
# Elastic Compliance Matrix: (Units=1/GPa)
#
#
# Indices 1 2 3 4 5 6 
#
# 1 0.136329 -0.007833 -0.011987 0.000000 0.000000 0.000000
# 2 -0.007833 0.007208 -0.003316 0.000000 0.000000 0.000000
# 3 -0.011987 -0.003316 0.009547 0.000000 0.000000 0.000000
# 4 0.000000 0.000000 0.000000 -0.498618 0.000000 0.000000
# 5 0.000000 0.000000 0.000000 0.000000 0.040326 0.000000
# 6 0.000000 0.000000 0.000000 0.000000 0.000000 0.489317
#
#
# Mechanical properties :
#
#
# Convention : Reuss Voigt Hill
#
# Bulk Modulus (GPa) = 9.36224 72.57532 40.96878
# Shear Modulus (GPa) = 18.79808 21.09669 19.94739
#
# Velocity S-wave (km/s) = 3.11527 3.30024 3.20909
# Velocity P-wave (km/s) = 4.21584 7.21045 5.90609
#
# Compressibility (1/GPa) = 0.10681210
#
# Stress axis : x y z
#
# Youngs Moduli (GPa) = 7.33520 138.73876 104.74518
#
# Poissons Ratio (x) = 1.08679 1.25553
# Poissons Ratio (y) = 0.05746 0.34733
# Poissons Ratio (z) = 0.08792 0.46005
#
# Static dielectric constant tensor:
#      x y z
#    x 1.671940 0.000000 0.000000 
#    y 0.000000 1.670510 0.000000 
#    z 0.000000 0.000000 1.661900 
# 
# From -- ./inp_files/25110.got.cif
#   From: 2010.05.17/outbox.cif.g08.bks.cpg/sg44_13_cif.got.tgz:25110.got - 2010.06.03 19:37:08.
