data_PCOD9373791
_publ_section_title
;
Structure prediction by ZEFSAII (Michael W. Deem and Ramdas Pophale) SiO2 
 PCOD9373791
Probable space group: I M M 2
;
_chemical_formula_sum "Si O2"
_cell_formula_units_Z 56
_cell_length_a 8.364671
_cell_length_b 19.567242
_cell_length_c 18.673055
_cell_angle_alpha 90.000000
_cell_angle_beta 90.000000
_cell_angle_gamma 90.000000
_cell_volume 3056.285046
_symmetry_space_group_name_H-M "I M M 2"
_symmetry_group_IT_number 44
_symmetry_cell_setting 'orthorhombic'
loop_
_space_group_symop_operation_xyz
x,y,z
-x,-y,z
-x,y,z
x,-y,z
1/2+x,1/2+y,1/2+z
1/2-x,1/2-y,1/2+z
1/2-x,1/2+y,1/2+z
1/2+x,1/2-y,1/2+z
loop_
_atom_site_type_symbol
_atom_site_label
_atom_site_fract_x
_atom_site_fract_y
_atom_site_fract_z
Si Si1 0.306967 0.288948 0.791170
Si Si2 0.183632 0.781402 0.927742
Si Si3 0.185602 0.575676 0.426386
Si Si4 0.194936 0.078071 0.379350
Si Si5 0.816166 0.837618 0.515189
Si Si6 0.181958 0.924100 0.771958
Si Si7 0.311373 0.808847 0.671234
O O1 0.500000 0.285352 0.799895
O O2 0.225850 0.234376 0.844964
O O3 0.257597 0.364108 0.820571
O O4 0.269438 0.263303 0.710604
O O5 0.214762 0.859018 0.950195
O O6 0.000000 0.762387 0.941011
O O7 0.301521 0.731797 0.969925
O O8 0.241309 0.500000 0.449067
O O9 0.202852 0.577801 0.340186
O O10 0.000000 0.583408 0.445789
O O11 0.245348 0.105598 0.458262
O O12 0.000000 0.078021 0.379930
O O13 0.247461 0.000000 0.366151
O O14 0.727170 0.821248 0.588580
O O15 0.000000 0.854001 0.531877
O O16 0.221223 0.867240 0.714983
O O17 0.000000 0.915740 0.799458
O O18 0.193754 0.000000 0.739607
O O19 0.500000 0.817758 0.681759
#
# Coordination Sequence:
#
# PCOD9373791 Si02
#       7
#     8   8   8   8   8   8   8
#     4   9  18  32  52  76 102 134 172 217 267 319
#     4  11  20  32  52  75 101 132 173 218 260 312
#     4  10  19  31  49  73 101 132 165 205 255 305
#     4   8  15  31  55  79 100 128 171 220 268 318
#     4  10  21  35  52  74 104 139 176 217 268 322
#     4  10  20  32  47  71 102 136 173 208 245 297
#     4  11  21  33  50  74 106 141 178 218 265 319
#
# _framework density 18.322899
#
# number of rings (size 3 to 8) (size 9 to 14) (size 15 to 20)
#    0.000    2.143    1.429    3.857    0.000    2.857 
#    0.000    1.429    0.000   11.143    0.000    2.000 
#    0.000    0.000    0.000    0.000    0.000    0.000 
#
# Total GULP energy -155961.515771 kJ/mol
# GULP energy per Si atom -5570.054135 kJ/mol
# Density = 1.828119 g / cm^3
# Si number density = 18.322899 Si / 1000 Ang^3
#
#
#
# Elastic Constant Matrix: (Units=GPa)
#
#
# Indices 1 2 3 4 5 6 
#
# 1 31.3991 10.5598 3.0979 0.0000 0.0000 0.0000
# 2 10.5598 119.7490 20.8572 0.0000 0.0000 0.0000
# 3 3.0979 20.8572 42.8228 0.0000 0.0000 0.0000
# 4 0.0000 0.0000 0.0000 12.9979 0.0000 0.0000
# 5 0.0000 0.0000 0.0000 0.0000 23.3659 0.0000
# 6 0.0000 0.0000 0.0000 0.0000 0.0000 17.1922
#
#
#
# Elastic Compliance Matrix: (Units=1/GPa)
#
#
# Indices 1 2 3 4 5 6 
#
# 1 0.032865 -0.002714 -0.001056 0.000000 0.000000 0.000000
# 2 -0.002714 0.009349 -0.004357 0.000000 0.000000 0.000000
# 3 -0.001056 -0.004357 0.025551 0.000000 0.000000 0.000000
# 4 0.000000 0.000000 0.000000 0.076936 0.000000 0.000000
# 5 0.000000 0.000000 0.000000 0.000000 0.042797 0.000000
# 6 0.000000 0.000000 0.000000 0.000000 0.000000 0.058166
#
#
# Mechanical properties :
#
#
# Convention : Reuss Voigt Hill
#
# Bulk Modulus (GPa) = 19.41346 29.22231 24.31789
# Shear Modulus (GPa) = 17.91553 21.34161 19.62857
#
# Velocity S-wave (km/s) = 3.13032 3.41655 3.27656
# Velocity P-wave (km/s) = 4.86656 5.61666 5.25501
#
# Compressibility (1/GPa) = 0.05151066
#
# Stress axis : x y z
#
# Youngs Moduli (GPa) = 30.42752 106.96260 39.13806
#
# Poissons Ratio (x) = 0.29033 0.04131
# Poissons Ratio (y) = 0.08259 0.17053
# Poissons Ratio (z) = 0.03212 0.46605
#
# Static dielectric constant tensor:
#      x y z
#    x 1.621310 0.000000 0.000000 
#    y 0.000000 1.664900 0.000000 
#    z 0.000000 0.000000 1.633650 
# 
# From -- ./inp_files/20681.got.cif
#   From: 2010.05.17/outbox.cif.g08.bks.cpg/sg44_11_cif.got.tgz:20681.got - 2010.06.03 19:37:08.
