data_PCOD9373168
_publ_section_title
;
Structure prediction by ZEFSAII (Michael W. Deem and Ramdas Pophale) SiO2 
 PCOD9373168
Probable space group: I M M 2
;
_chemical_formula_sum "Si O2"
_cell_formula_units_Z 56
_cell_length_a 9.125201
_cell_length_b 29.923089
_cell_length_c 13.989075
_cell_angle_alpha 90.000000
_cell_angle_beta 90.000000
_cell_angle_gamma 90.000000
_cell_volume 3819.775706
_symmetry_space_group_name_H-M "I M M 2"
_symmetry_group_IT_number 44
_symmetry_cell_setting 'orthorhombic'
loop_
_space_group_symop_operation_xyz
x,y,z
-x,-y,z
-x,y,z
x,-y,z
1/2+x,1/2+y,1/2+z
1/2-x,1/2-y,1/2+z
1/2-x,1/2+y,1/2+z
1/2+x,1/2-y,1/2+z
loop_
_atom_site_type_symbol
_atom_site_label
_atom_site_fract_x
_atom_site_fract_y
_atom_site_fract_z
Si Si1 0.830547 0.500000 0.033450
Si Si2 0.674832 0.592105 0.035677
Si Si3 0.676186 0.772102 0.253597
Si Si4 0.824472 0.091010 0.762693
Si Si5 0.823722 0.771239 0.052642
Si Si6 0.821777 0.817931 0.859772
Si Si7 0.168221 0.500000 0.265765
Si Si8 0.175917 0.678614 0.948390
O O1 0.748563 0.545435 0.004308
O O2 0.828298 0.500000 0.149579
O O3 0.000000 0.500000 0.002973
O O4 0.500000 0.589838 0.023566
O O5 0.704894 0.597683 0.149532
O O6 0.741928 0.634374 0.981386
O O7 0.500000 0.771914 0.243137
O O8 0.750535 0.781767 0.153125
O O9 0.722046 0.722775 0.290418
O O10 0.711485 0.805807 0.340349
O O11 0.772667 0.134393 0.820665
O O12 0.000000 0.086733 0.772888
O O13 0.749139 0.045296 0.795314
O O14 0.000000 0.773387 0.060762
O O15 0.777531 0.804371 0.966866
O O16 0.787186 0.721041 0.016159
O O17 0.000000 0.818178 0.858977
O O18 0.000000 0.500000 0.296335
O O19 0.000000 0.672155 0.954032
#
# Coordination Sequence:
#
# PCOD9373168 Si02
#       8
#     4   8   8   8   8   8   4   8
#     4   9  17  29  43  59  86 119 142 167 213 264
#     4  10  18  27  43  66  88 111 145 183 209 240
#     4   9  17  30  45  61  85 115 144 174 210 253
#     4   9  16  27  43  61  83 113 144 171 204 249
#     4   9  17  29  44  62  85 112 143 178 211 247
#     4   8  15  28  44  61  83 113 144 171 206 251
#     4   9  17  27  39  59  86 111 136 171 211 248
#     4   9  18  30  43  61  87 118 145 169 210 264
#
# _framework density 14.660546999999999
#
# number of rings (size 3 to 8) (size 9 to 14) (size 15 to 20)
#    0.000    3.000    0.000    3.429    0.000    4.571 
#    0.000    3.571    0.000    0.000    0.000    1.000 
#    0.000    3.429    0.000    0.000    0.000    0.000 
#
# Total GULP energy -155969.453289 kJ/mol
# GULP energy per Si atom -5570.337617 kJ/mol
# Density = 1.462718 g / cm^3
# Si number density = 14.660547 Si / 1000 Ang^3
#
#
#
# Elastic Constant Matrix: (Units=GPa)
#
#
# Indices 1 2 3 4 5 6 
#
# 1 39.6679 57.0758 38.2705 0.0000 0.0000 0.0000
# 2 57.0758 153.5823 61.2390 0.0000 0.0000 0.0000
# 3 38.2705 61.2390 82.4640 0.0003 0.0000 0.0000
# 4 0.0000 0.0000 0.0003 22.3763 0.0000 0.0000
# 5 0.0000 0.0000 0.0000 0.0000 23.1336 0.0000
# 6 0.0000 0.0000 0.0000 0.0000 0.0000 22.6528
#
#
#
# Elastic Compliance Matrix: (Units=1/GPa)
#
#
# Indices 1 2 3 4 5 6 
#
# 1 0.069875 -0.018522 -0.018673 0.000000 0.000000 0.000000
# 2 -0.018522 0.014160 -0.001920 0.000000 0.000000 0.000000
# 3 -0.018673 -0.001920 0.022218 0.000000 0.000000 0.000000
# 4 0.000000 0.000000 0.000000 0.044690 0.000000 0.000000
# 5 0.000000 0.000000 0.000000 0.000000 0.043227 0.000000
# 6 0.000000 0.000000 0.000000 0.000000 0.000000 0.044145
#
#
# Mechanical properties :
#
#
# Convention : Reuss Voigt Hill
#
# Bulk Modulus (GPa) = 35.68486 65.43167 50.55827
# Shear Modulus (GPa) = 15.34283 21.57447 18.45865
#
# Velocity S-wave (km/s) = 3.23853 3.84031 3.55219
# Velocity P-wave (km/s) = 6.19498 8.02446 7.16832
#
# Compressibility (1/GPa) = 0.02802309
#
# Stress axis : x y z
#
# Youngs Moduli (GPa) = 14.31133 70.62246 45.00824
#
# Poissons Ratio (x) = 1.30805 0.84046
# Poissons Ratio (y) = 0.26507 0.08640
# Poissons Ratio (z) = 0.26724 0.13557
#
# Static dielectric constant tensor:
#      x y z
#    x 1.487200 0.000000 0.000000 
#    y 0.000000 1.477220 0.000000 
#    z 0.000000 0.000000 1.466300 
# 
# From -- ./inp_files/17059.got.cif
#   From: 2010.05.17/outbox.cif.g08.bks.cpg/sg44_9_cif.got.tgz:17059.got - 2010.06.03 19:37:08.
