data_PCOD9373584
_publ_section_title
;
Structure prediction by ZEFSAII (Michael W. Deem and Ramdas Pophale) SiO2 
 PCOD9373584
Probable space group: I M M 2
;
_chemical_formula_sum "Si O2"
_cell_formula_units_Z 64
_cell_length_a 13.914937
_cell_length_b 9.264249
_cell_length_c 34.880186
_cell_angle_alpha 90.000000
_cell_angle_beta 90.000000
_cell_angle_gamma 90.000000
_cell_volume 4496.455046
_symmetry_space_group_name_H-M "I M M 2"
_symmetry_group_IT_number 44
_symmetry_cell_setting 'orthorhombic'
loop_
_space_group_symop_operation_xyz
x,y,z
-x,-y,z
-x,y,z
x,-y,z
1/2+x,1/2+y,1/2+z
1/2-x,1/2-y,1/2+z
1/2-x,1/2+y,1/2+z
1/2+x,1/2-y,1/2+z
loop_
_atom_site_type_symbol
_atom_site_label
_atom_site_fract_x
_atom_site_fract_y
_atom_site_fract_z
Si Si1 0.614594 0.827126 0.512880
Si Si2 0.883210 0.666077 0.925981
Si Si3 0.610809 0.829115 0.653946
Si Si4 0.111839 0.171555 0.619824
Si Si5 0.116965 0.165306 0.850960
Si Si6 0.289033 0.327311 0.583823
Si Si7 0.614079 0.171524 0.273503
Si Si8 0.295027 0.670159 0.202066
O O1 0.500000 0.800367 0.517097
O O2 0.643691 0.789924 0.469162
O O3 0.672238 0.738181 0.544243
O O4 0.628487 0.000000 0.517904
O O5 0.853774 0.500000 0.919791
O O6 0.850053 0.764094 0.890860
O O7 0.000000 0.667023 0.925718
O O8 0.500000 0.803968 0.663866
O O9 0.642763 0.735213 0.617586
O O10 0.686388 0.800327 0.687911
O O11 0.622017 0.000000 0.644015
O O12 0.184093 0.264242 0.594175
O O13 0.140199 0.198423 0.664273
O O14 0.000000 0.202707 0.613509
O O15 0.128492 0.000000 0.613178
O O16 0.144701 0.256065 0.813557
O O17 0.000000 0.166951 0.851910
O O18 0.147937 0.000000 0.847559
O O19 0.289502 0.500000 0.583658
O O20 0.500000 0.202162 0.268231
O O21 0.670637 0.237651 0.237812
O O22 0.625840 0.000000 0.275592
O O23 0.303749 0.500000 0.211177
#
# Coordination Sequence:
#
# PCOD9373584 Si02
#       8
#     8   8   8   8   8   8   8   8
#     4   9  17  29  44  60  82 115 149 177 206 245
#     4   8  14  25  40  57  78 106 139 172 206 244
#     4   9  18  33  49  61  79 111 146 177 211 253
#     4   9  18  33  50  63  79 109 145 177 211 254
#     4   9  16  25  38  56  79 108 139 170 204 242
#     4  11  21  29  41  64  90 112 138 176 216 251
#     4  10  19  28  39  57  83 114 143 170 202 243
#     4   9  17  29  45  64  82 102 135 176 212 246
#
# _framework density 14.233435999999999
#
# number of rings (size 3 to 8) (size 9 to 14) (size 15 to 20)
#    0.000    2.750    0.000    4.125    0.000    7.500 
#    0.000    1.250    0.000    0.000    0.000    0.000 
#    0.000    1.000    0.000    6.500    0.000    3.875 
#
# Total GULP energy -178311.497276 kJ/mol
# GULP energy per Si atom -5572.234290 kJ/mol
# Density = 1.420104 g / cm^3
# Si number density = 14.233436 Si / 1000 Ang^3
#
#
#
# Elastic Constant Matrix: (Units=GPa)
#
#
# Indices 1 2 3 4 5 6 
#
# 1 72.2105 48.5579 51.7826 0.0000 0.0000 0.0000
# 2 48.5579 84.3381 84.4204 0.0000 0.0000 0.0000
# 3 51.7826 84.4204 130.8771 0.0000 0.0000 0.0000
# 4 0.0000 0.0000 0.0000 27.6016 0.0000 0.0000
# 5 0.0000 0.0000 0.0000 0.0000 18.5605 0.0000
# 6 0.0000 0.0000 0.0000 0.0000 0.0000 13.5644
#
#
#
# Elastic Compliance Matrix: (Units=1/GPa)
#
#
# Indices 1 2 3 4 5 6 
#
# 1 0.022709 -0.011517 -0.001556 0.000000 0.000000 0.000000
# 2 -0.011517 0.039304 -0.020796 0.000000 0.000000 0.000000
# 3 -0.001556 -0.020796 0.021670 0.000000 0.000000 0.000000
# 4 0.000000 0.000000 0.000000 0.036230 0.000000 0.000000
# 5 0.000000 0.000000 0.000000 0.000000 0.053878 0.000000
# 6 0.000000 0.000000 0.000000 0.000000 0.000000 0.073723
#
#
# Mechanical properties :
#
#
# Convention : Reuss Voigt Hill
#
# Bulk Modulus (GPa) = 62.71310 72.99417 67.85364
# Shear Modulus (GPa) = 15.59740 18.78962 17.19351
#
# Velocity S-wave (km/s) = 3.31392 3.63727 3.47935
# Velocity P-wave (km/s) = 7.66804 8.30870 7.99479
#
# Compressibility (1/GPa) = 0.01594563
#
# Stress axis : x y z
#
# Youngs Moduli (GPa) = 44.03549 25.44264 46.14615
#
# Poissons Ratio (x) = 0.29303 0.07180
# Poissons Ratio (y) = 0.50717 0.95964
# Poissons Ratio (z) = 0.06851 0.52910
#
# Static dielectric constant tensor:
#      x y z
#    x 1.453800 0.000000 0.000000 
#    y 0.000000 1.473700 0.000000 
#    z 0.000000 0.000000 1.460060 
# 
# From -- ./inp_files/27528.got.cif
#   From: 2010.05.17/outbox.cif.g08.bks.cpg/sg44_14_cif.got.tgz:27528.got - 2010.06.03 19:37:08.
