data_PCOD9373798
_publ_section_title
;
Structure prediction by ZEFSAII (Michael W. Deem and Ramdas Pophale) SiO2 
 PCOD9373798
Probable space group: I M M 2
;
_chemical_formula_sum "Si O2"
_cell_formula_units_Z 64
_cell_length_a 28.235425
_cell_length_b 9.000025
_cell_length_c 14.723415
_cell_angle_alpha 90.000000
_cell_angle_beta 90.000000
_cell_angle_gamma 90.000000
_cell_volume 3741.507313
_symmetry_space_group_name_H-M "I M M 2"
_symmetry_group_IT_number 44
_symmetry_cell_setting 'orthorhombic'
loop_
_space_group_symop_operation_xyz
x,y,z
-x,-y,z
-x,y,z
x,-y,z
1/2+x,1/2+y,1/2+z
1/2-x,1/2-y,1/2+z
1/2-x,1/2+y,1/2+z
1/2+x,1/2-y,1/2+z
loop_
_atom_site_type_symbol
_atom_site_label
_atom_site_fract_x
_atom_site_fract_y
_atom_site_fract_z
Si Si1 0.865788 0.323075 0.386190
Si Si2 0.943702 0.175994 0.508037
Si Si3 0.628911 0.322830 0.329930
Si Si4 0.277083 0.325761 0.215101
Si Si5 0.322670 0.676400 0.717165
Si Si6 0.281880 0.674943 0.000032
Si Si7 0.944060 0.675319 0.699883
Si Si8 0.681215 0.677786 0.506410
O O1 0.866571 0.500000 0.386807
O O2 0.912621 0.257422 0.432768
O O3 0.857119 0.260849 0.285398
O O4 0.821539 0.263005 0.445343
O O5 0.930626 0.239344 0.607317
O O6 0.000000 0.200463 0.495725
O O7 0.934385 0.000000 0.505661
O O8 0.620270 0.500000 0.322400
O O9 0.677236 0.290198 0.274706
O O10 0.586695 0.235763 0.282720
O O11 0.640498 0.286055 0.434251
O O12 0.265068 0.500000 0.229705
O O13 0.231112 0.228732 0.237138
O O14 0.289001 0.306980 0.108567
O O15 0.326745 0.500000 0.729939
O O16 0.330926 0.711794 0.610880
O O17 0.284764 0.500000 0.978498
O O18 0.229561 0.738054 0.981292
O O19 0.936342 0.500000 0.686818
O O20 0.000000 0.700243 0.715091
O O21 0.690226 0.500000 0.500110
#
# Coordination Sequence:
#
# PCOD9373798 Si02
#       8
#     8   8   8   8   8   8   8   8
#     4  12  23  34  52  76 104 137 173 213 256 305
#     4  10  21  38  59  81 105 132 163 203 253 309
#     4  10  19  32  52  75 101 136 175 213 254 302
#     4   9  18  31  48  74 107 137 166 205 253 303
#     4  10  20  34  51  72 102 139 178 216 254 299
#     4  10  19  31  49  75 107 140 173 208 251 306
#     4  10  21  36  54  79 109 136 164 203 252 306
#     4   9  19  34  51  74 105 139 176 219 261 300
#
# _framework density 17.105405999999999
#
# number of rings (size 3 to 8) (size 9 to 14) (size 15 to 20)
#    0.000    2.000    0.000    4.125    0.000    5.500 
#    0.000    0.000    0.000    0.750    0.000    1.750 
#    0.000    0.000    0.000    0.000    0.000    0.000 
#
# Total GULP energy -178755.228197 kJ/mol
# GULP energy per Si atom -5586.100881 kJ/mol
# Density = 1.706647 g / cm^3
# Si number density = 17.105406 Si / 1000 Ang^3
#
#
#
# Elastic Constant Matrix: (Units=GPa)
#
#
# Indices 1 2 3 4 5 6 
#
# 1 60.1403 57.5009 56.1845 0.0000 0.0000 0.0000
# 2 57.5009 91.0575 61.3480 0.0000 0.0000 0.0000
# 3 56.1845 61.3480 85.3621 0.0000 0.0000 0.0000
# 4 0.0000 0.0000 0.0000 24.6485 0.0000 0.0000
# 5 0.0000 0.0000 0.0000 0.0000 31.5738 0.0000
# 6 0.0000 0.0000 0.0000 0.0000 0.0000 30.8498
#
#
#
# Elastic Compliance Matrix: (Units=1/GPa)
#
#
# Indices 1 2 3 4 5 6 
#
# 1 0.059107 -0.021548 -0.023418 0.000000 0.000000 0.000000
# 2 -0.021548 0.029146 -0.006764 0.000000 0.000000 0.000000
# 3 -0.023418 -0.006764 0.031990 0.000000 0.000000 0.000000
# 4 0.000000 0.000000 0.000000 0.040570 0.000000 0.000000
# 5 0.000000 0.000000 0.000000 0.000000 0.031672 0.000000
# 6 0.000000 0.000000 0.000000 0.000000 0.000000 0.032415
#
#
# Mechanical properties :
#
#
# Convention : Reuss Voigt Hill
#
# Bulk Modulus (GPa) = 59.58314 65.18072 62.38193
# Shear Modulus (GPa) = 14.97204 21.51617 18.24410
#
# Velocity S-wave (km/s) = 2.96172 3.55048 3.26938
# Velocity P-wave (km/s) = 6.82673 7.41592 7.12742
#
# Compressibility (1/GPa) = 0.01678327
#
# Stress axis : x y z
#
# Youngs Moduli (GPa) = 16.91835 34.30957 31.25997
#
# Poissons Ratio (x) = 0.73929 0.73205
# Poissons Ratio (y) = 0.36455 0.21146
# Poissons Ratio (z) = 0.39619 0.23209
#
# Static dielectric constant tensor:
#      x y z
#    x 1.550900 0.000000 0.000000 
#    y 0.000000 1.571240 0.000000 
#    z 0.000000 0.000000 1.592810 
# 
# From -- ./inp_files/16844.got.cif
#   From: 2010.05.17/outbox.cif.g08.bks.cpg/sg44_9_cif.got.tgz:16844.got - 2010.06.03 19:37:08.
