data_PCOD9373126
_publ_section_title
;
Structure prediction by ZEFSAII (Michael W. Deem and Ramdas Pophale) SiO2 
 PCOD9373126
Probable space group: I M M 2
;
_chemical_formula_sum "Si O2"
_cell_formula_units_Z 64
_cell_length_a 7.783688
_cell_length_b 32.021997
_cell_length_c 12.256692
_cell_angle_alpha 90.000000
_cell_angle_beta 90.000000
_cell_angle_gamma 90.000000
_cell_volume 3054.971090
_symmetry_space_group_name_H-M "I M M 2"
_symmetry_group_IT_number 44
_symmetry_cell_setting 'orthorhombic'
loop_
_space_group_symop_operation_xyz
x,y,z
-x,-y,z
-x,y,z
x,-y,z
1/2+x,1/2+y,1/2+z
1/2-x,1/2-y,1/2+z
1/2-x,1/2+y,1/2+z
1/2+x,1/2-y,1/2+z
loop_
_atom_site_type_symbol
_atom_site_label
_atom_site_fract_x
_atom_site_fract_y
_atom_site_fract_z
Si Si1 0.798704 0.123550 0.009530
Si Si2 0.702659 0.198263 0.855649
Si Si3 0.791661 0.293689 0.896223
Si Si4 0.710407 0.045447 0.383121
Si Si5 0.290397 0.833432 0.623115
Si Si6 0.702035 0.872178 0.258985
Si Si7 0.707267 0.070188 0.623317
Si Si8 0.794933 0.954383 0.867005
O O1 0.719749 0.125927 0.129399
O O2 0.000000 0.116021 0.026100
O O3 0.778810 0.166953 0.944929
O O4 0.727685 0.085453 0.934972
O O5 0.500000 0.189735 0.856556
O O6 0.731216 0.246940 0.875524
O O7 0.770354 0.186388 0.735873
O O8 0.730114 0.328907 0.810338
O O9 0.000000 0.292498 0.893584
O O10 0.735514 0.309061 0.015627
O O11 0.500000 0.046058 0.380914
O O12 0.772254 0.085842 0.316264
O O13 0.762540 0.049440 0.509992
O O14 0.764587 0.000000 0.340162
O O15 0.500000 0.832872 0.622538
O O16 0.237706 0.881564 0.618735
O O17 0.500000 0.871980 0.286608
O O18 0.500000 0.068788 0.624260
O O19 0.765035 0.051435 0.737962
O O20 0.000000 0.954840 0.882774
O O21 0.726272 0.000000 0.900634
#
# Coordination Sequence:
#
# PCOD9373126 Si02
#       8
#     8   8   8   8   8   8   8   8
#     4  11  24  41  59  80 112 154 196 237 286 337
#     4  11  23  39  60  88 117 147 190 238 283 336
#     4  10  21  39  60  85 118 154 187 228 288 344
#     4   9  17  31  56  89 119 148 186 233 285 337
#     4   9  18  35  60  85 115 148 180 229 284 335
#     4  10  21  38  59  83 116 153 192 237 284 335
#     4  10  17  33  60  89 116 146 184 228 282 340
#     4  10  22  39  57  81 115 152 188 231 285 340
#
# _framework density 20.949462
#
# number of rings (size 3 to 8) (size 9 to 14) (size 15 to 20)
#    0.000    2.000    2.500    1.125    1.750    2.250 
#    0.000    1.875    0.000    0.750    0.000    0.000 
#    0.000    0.000    0.000    0.000    0.000    0.000 
#
# Total GULP energy -178710.583087 kJ/mol
# GULP energy per Si atom -5584.705721 kJ/mol
# Density = 2.090178 g / cm^3
# Si number density = 20.949462 Si / 1000 Ang^3
#
#
#
# Elastic Constant Matrix: (Units=GPa)
#
#
# Indices 1 2 3 4 5 6 
#
# 1 22.6275 -10.3091 -15.8314 -0.0001 0.0000 -0.0001
# 2 -10.3091 169.0609 58.7745 -0.0006 0.0002 -0.0002
# 3 -15.8314 58.7745 109.8910 -0.0003 0.0002 -0.0002
# 4 -0.0001 -0.0006 -0.0003 74.4227 0.0001 0.0007
# 5 0.0000 0.0002 0.0002 0.0001 -13.0090 0.0000
# 6 -0.0001 -0.0002 -0.0002 0.0007 0.0000 -4.5701
#
#
#
# Elastic Compliance Matrix: (Units=1/GPa)
#
#
# Indices 1 2 3 4 5 6 
#
# 1 0.049207 0.000658 0.006737 0.000000 0.000000 -0.000001
# 2 0.000658 0.007275 -0.003796 0.000000 0.000000 0.000000
# 3 0.006737 -0.003796 0.012101 0.000000 0.000000 -0.000001
# 4 0.000000 0.000000 0.000000 0.013437 0.000000 0.000002
# 5 0.000000 0.000000 0.000000 0.000000 -0.076870 0.000000
# 6 -0.000001 0.000000 -0.000001 0.000002 0.000000 -0.218815
#
#
# Mechanical properties :
#
#
# Convention : Reuss Voigt Hill
#
# Bulk Modulus (GPa) = 13.19579 40.76084 26.97831
# Shear Modulus (GPa) = -25.56200 29.29842 1.86821
#
# Velocity S-wave (km/s) = -3.49689 3.74375 0.94536
# Velocity P-wave (km/s) = 3.16098 6.17952 3.75465
#
# Compressibility (1/GPa) = 0.07578177
#
# Stress axis : x y z
#
# Youngs Moduli (GPa) = 20.32211 137.45900 82.63931
#
# Poissons Ratio (x) = -0.09052 -0.55673
# Poissons Ratio (y) = -0.01338 0.31370
# Poissons Ratio (z) = -0.13691 0.52180
#
# Static dielectric constant tensor:
#      x y z
#    x 1.776200 0.000000 0.000000 
#    y 0.000000 1.751640 0.000000 
#    z 0.000000 0.000000 1.717510 
# 
# From -- ./inp_files/11461.got.cif
#   From: 2010.05.17/outbox.cif.g08.bks.cpg/sg44_6_cif.got.tgz:11461.got - 2010.06.03 19:37:08.
