data_PCOD9373462
_publ_section_title
;
Structure prediction by ZEFSAII (Michael W. Deem and Ramdas Pophale) SiO2 
 PCOD9373462
Probable space group: I M M 2
;
_chemical_formula_sum "Si O2"
_cell_formula_units_Z 64
_cell_length_a 7.567361
_cell_length_b 20.526729
_cell_length_c 20.966780
_cell_angle_alpha 90.000000
_cell_angle_beta 90.000000
_cell_angle_gamma 90.000000
_cell_volume 3256.836370
_symmetry_space_group_name_H-M "I M M 2"
_symmetry_group_IT_number 44
_symmetry_cell_setting 'orthorhombic'
loop_
_space_group_symop_operation_xyz
x,y,z
-x,-y,z
-x,y,z
x,-y,z
1/2+x,1/2+y,1/2+z
1/2-x,1/2-y,1/2+z
1/2-x,1/2+y,1/2+z
1/2+x,1/2-y,1/2+z
loop_
_atom_site_type_symbol
_atom_site_label
_atom_site_fract_x
_atom_site_fract_y
_atom_site_fract_z
Si Si1 0.213494 0.928154 0.193150
Si Si2 0.290441 0.928901 0.042731
Si Si3 0.215069 0.071552 0.826440
Si Si4 0.207659 0.209975 0.238591
Si Si5 0.795519 0.797225 0.619635
Si Si6 0.284390 0.428480 0.176944
Si Si7 0.210647 0.709911 0.505839
Si Si8 0.210529 0.212223 0.865720
O O1 0.266342 0.920702 0.118982
O O2 0.273600 0.864381 0.231566
O O3 0.000000 0.929361 0.195515
O O4 0.276249 0.000000 0.214338
O O5 0.500000 0.931502 0.029754
O O6 0.215261 0.000000 0.024939
O O7 0.216043 0.863797 0.010797
O O8 0.263163 0.077309 0.751592
O O9 0.279672 0.137775 0.858887
O O10 0.000000 0.071002 0.829870
O O11 0.275244 0.000000 0.849774
O O12 0.292624 0.254469 0.183931
O O13 0.230415 0.242874 0.307248
O O14 0.000000 0.209302 0.223673
O O15 0.716723 0.867240 0.637310
O O16 0.716542 0.755439 0.561988
O O17 0.000000 0.809387 0.602356
O O18 0.500000 0.426650 0.176198
O O19 0.229399 0.500000 0.154266
O O20 0.239685 0.736955 0.435475
O O21 0.000000 0.704232 0.516895
O O22 0.000000 0.208917 0.861281
#
# Coordination Sequence:
#
# PCOD9373462 Si02
#       8
#     8   8   8   8   8   8   8   8
#     4   9  18  32  51  76 103 130 164 208 254 301
#     4   9  17  30  49  73 103 138 170 202 247 304
#     4   8  14  26  46  72  98 125 163 208 244 283
#     4  11  21  33  53  78 104 131 165 213 260 299
#     4  10  18  32  54  77 101 133 169 206 250 302
#     4   8  13  24  47  76 100 122 158 207 249 289
#     4  10  21  34  48  71 105 138 170 210 254 296
#     4  11  22  35  52  72 100 138 178 211 250 304
#
# _framework density 19.650973
#
# number of rings (size 3 to 8) (size 9 to 14) (size 15 to 20)
#    0.000    2.500    2.500    1.500    0.000    2.000 
#    0.000    0.000    0.000    3.000    0.000    3.500 
#    0.000    0.000    0.000    0.000    0.000    0.000 
#
# Total GULP energy -178507.029624 kJ/mol
# GULP energy per Si atom -5578.344676 kJ/mol
# Density = 1.960625 g / cm^3
# Si number density = 19.650973 Si / 1000 Ang^3
#
#
#
# Elastic Constant Matrix: (Units=GPa)
#
#
# Indices 1 2 3 4 5 6 
#
# 1 46.2147 -2.5663 -14.2616 0.0000 0.0000 0.0000
# 2 -2.5663 138.2605 59.0694 0.0000 0.0000 0.0000
# 3 -14.2616 59.0694 95.0020 0.0000 0.0000 0.0000
# 4 0.0000 0.0000 0.0000 20.2516 0.0000 0.0000
# 5 0.0000 0.0000 0.0000 0.0000 11.8541 0.0000
# 6 0.0000 0.0000 0.0000 0.0000 0.0000 22.7348
#
#
#
# Elastic Compliance Matrix: (Units=1/GPa)
#
#
# Indices 1 2 3 4 5 6 
#
# 1 0.022892 -0.001421 0.004320 0.000000 0.000000 0.000000
# 2 -0.001421 0.009937 -0.006392 0.000000 0.000000 0.000000
# 3 0.004320 -0.006392 0.015149 0.000000 0.000000 0.000000
# 4 0.000000 0.000000 0.000000 0.049379 0.000000 0.000000
# 5 0.000000 0.000000 0.000000 0.000000 0.084359 0.000000
# 6 0.000000 0.000000 0.000000 0.000000 0.000000 0.043985
#
#
# Mechanical properties :
#
#
# Convention : Reuss Voigt Hill
#
# Bulk Modulus (GPa) = 24.39439 40.44003 32.41721
# Shear Modulus (GPa) = 20.29621 26.78382 23.54001
#
# Velocity S-wave (km/s) = 3.21726 3.69586 3.46483
# Velocity P-wave (km/s) = 5.12268 6.23188 5.70430
#
# Compressibility (1/GPa) = 0.04099303
#
# Stress axis : x y z
#
# Youngs Moduli (GPa) = 43.68275 100.63200 66.01137
#
# Poissons Ratio (x) = 0.14297 -0.28516
# Poissons Ratio (y) = 0.06206 0.42194
# Poissons Ratio (z) = -0.18871 0.64323
#
# Static dielectric constant tensor:
#      x y z
#    x 1.739760 0.000000 0.000000 
#    y 0.000000 1.741590 0.000000 
#    z 0.000000 0.000000 1.661050 
# 
# From -- ./inp_files/23419.got.cif
#   From: 2010.05.17/outbox.cif.g08.bks.cpg/sg44_12_cif.got.tgz:23419.got - 2010.06.03 19:37:08.
