data_PCOD9373044
_publ_section_title
;
Structure prediction by ZEFSAII (Michael W. Deem and Ramdas Pophale) SiO2 
 PCOD9373044
Probable space group: I M M 2
;
_chemical_formula_sum "Si O2"
_cell_formula_units_Z 48
_cell_length_a 12.410348
_cell_length_b 7.351246
_cell_length_c 26.323300
_cell_angle_alpha 90.000000
_cell_angle_beta 90.000000
_cell_angle_gamma 90.000000
_cell_volume 2401.514699
_symmetry_space_group_name_H-M "I M M 2"
_symmetry_group_IT_number 44
_symmetry_cell_setting 'orthorhombic'
loop_
_space_group_symop_operation_xyz
x,y,z
-x,-y,z
-x,y,z
x,-y,z
1/2+x,1/2+y,1/2+z
1/2-x,1/2-y,1/2+z
1/2-x,1/2+y,1/2+z
1/2+x,1/2-y,1/2+z
loop_
_atom_site_type_symbol
_atom_site_label
_atom_site_fract_x
_atom_site_fract_y
_atom_site_fract_z
Si Si1 0.778017 0.715439 0.074670
Si Si2 0.622693 0.282290 0.677755
Si Si3 0.623813 0.722132 0.986889
Si Si4 0.876439 0.778613 0.292140
Si Si5 0.000000 0.279187 0.909380
Si Si6 0.738201 0.222294 0.387854
Si Si7 0.500000 0.221813 0.527268
O O1 0.778847 0.500000 0.065910
O O2 0.789532 0.739712 0.134924
O O3 0.891102 0.788463 0.053122
O O4 0.680061 0.782117 0.039699
O O5 0.500000 0.216221 0.664988
O O6 0.615646 0.500000 0.679681
O O7 0.650136 0.219382 0.734719
O O8 0.500000 0.781847 0.982091
O O9 0.621569 0.500000 0.986188
O O10 0.698271 0.777117 0.939093
O O11 0.800392 0.717699 0.337496
O O12 0.000000 0.726614 0.302384
O O13 0.873241 0.000000 0.292141
O O14 0.885924 0.218228 0.887307
O O15 0.000000 0.500000 0.906486
O O16 0.000000 0.230389 0.968538
O O17 0.738399 0.000000 0.388619
O O18 0.500000 0.000000 0.530359
#
# Coordination Sequence:
#
# PCOD9373044 Si02
#       7
#     8   8   8   8   4   8   4
#     4  10  17  26  43  64  87 111 136 171 211 249
#     4   9  17  28  42  61  85 112 142 175 208 243
#     4   9  16  24  37  60  86 110 137 170 209 252
#     4   8  14  24  37  53  75 105 137 168 203 241
#     4   9  14  20  32  55  85 111 129 156 209 258
#     4   9  14  21  35  55  81 108 133 165 207 253
#     4   9  14  22  35  59  89 109 125 158 211 252
#
# _framework density 19.987386000000001
#
# number of rings (size 3 to 8) (size 9 to 14) (size 15 to 20)
#    0.000    3.000    2.500    1.500    0.000    2.000 
#    0.000    0.000    1.833    0.500    0.000    1.167 
#    0.000    2.667    0.000    0.000    0.000    0.000 
#
# Total GULP energy -133849.288402 kJ/mol
# GULP energy per Si atom -5577.053683 kJ/mol
# Density = 1.994189 g / cm^3
# Si number density = 19.987386 Si / 1000 Ang^3
#
#
#
# Elastic Constant Matrix: (Units=GPa)
#
#
# Indices 1 2 3 4 5 6 
#
# 1 167.0158 5.3320 110.4467 0.0000 0.0000 0.0000
# 2 5.3320 72.9964 -1.2827 0.0000 0.0000 0.0000
# 3 110.4467 -1.2827 165.7861 0.0000 0.0000 0.0000
# 4 0.0000 0.0000 0.0000 7.2110 0.0000 0.0000
# 5 0.0000 0.0000 0.0000 0.0000 31.3216 0.0000
# 6 0.0000 0.0000 0.0000 0.0000 0.0000 -8.4299
#
#
#
# Elastic Compliance Matrix: (Units=1/GPa)
#
#
# Indices 1 2 3 4 5 6 
#
# 1 0.010763 -0.000912 -0.007177 0.000000 0.000000 0.000000
# 2 -0.000912 0.013778 0.000714 0.000000 0.000000 0.000000
# 3 -0.007177 0.000714 0.010819 0.000000 0.000000 0.000000
# 4 0.000000 0.000000 0.000000 0.138677 0.000000 0.000000
# 5 0.000000 0.000000 0.000000 0.000000 0.031927 0.000000
# 6 0.000000 0.000000 0.000000 0.000000 0.000000 -0.118626
#
#
# Mechanical properties :
#
#
# Convention : Reuss Voigt Hill
#
# Bulk Modulus (GPa) = 48.52046 70.53226 59.52636
# Shear Modulus (GPa) = 45.88869 25.44069 35.66469
#
# Velocity S-wave (km/s) = 4.79674 3.57155 4.22875
# Velocity P-wave (km/s) = 7.41663 7.23692 7.32733
#
# Compressibility (1/GPa) = 0.02060986
#
# Stress axis : x y z
#
# Youngs Moduli (GPa) = 92.91186 72.57689 92.43076
#
# Poissons Ratio (x) = 0.06621 0.66340
# Poissons Ratio (y) = 0.08476 -0.06603
# Poissons Ratio (z) = 0.66686 -0.05185
#
# Static dielectric constant tensor:
#      x y z
#    x 1.682720 0.000000 0.000000 
#    y 0.000000 1.811460 0.000000 
#    z 0.000000 0.000000 1.704690 
# 
# From -- ./inp_files/23722.got.cif
#   From: 2010.05.17/outbox.cif.g08.bks.cpg/sg44_12_cif.got.tgz:23722.got - 2010.06.03 19:37:08.
