data_PCOD9373854
_publ_section_title
;
Structure prediction by ZEFSAII (Michael W. Deem and Ramdas Pophale) SiO2 
 PCOD9373854
Probable space group: I M M 2
;
_chemical_formula_sum "Si O2"
_cell_formula_units_Z 56
_cell_length_a 23.504140
_cell_length_b 8.677035
_cell_length_c 14.684661
_cell_angle_alpha 90.000000
_cell_angle_beta 90.000000
_cell_angle_gamma 90.000000
_cell_volume 2994.881476
_symmetry_space_group_name_H-M "I M M 2"
_symmetry_group_IT_number 44
_symmetry_cell_setting 'orthorhombic'
loop_
_space_group_symop_operation_xyz
x,y,z
-x,-y,z
-x,y,z
x,-y,z
1/2+x,1/2+y,1/2+z
1/2-x,1/2-y,1/2+z
1/2-x,1/2+y,1/2+z
1/2+x,1/2-y,1/2+z
loop_
_atom_site_type_symbol
_atom_site_label
_atom_site_fract_x
_atom_site_fract_y
_atom_site_fract_z
Si Si1 0.223274 0.317771 0.435840
Si Si2 0.652851 0.183619 0.434188
Si Si3 0.112183 0.184108 0.115066
Si Si4 0.000000 0.186531 0.225207
Si Si5 0.344448 0.185854 0.227973
Si Si6 0.110493 0.687795 0.541464
Si Si7 0.500000 0.812882 0.929390
Si Si8 0.719963 0.818936 0.720354
O O1 0.232922 0.500000 0.454061
O O2 0.281664 0.229359 0.454729
O O3 0.169211 0.264152 0.493304
O O4 0.209430 0.301436 0.328731
O O5 0.614027 0.256833 0.511692
O O6 0.641686 0.238920 0.330515
O O7 0.647241 0.000000 0.437025
O O8 0.056463 0.235570 0.170530
O O9 0.168681 0.245265 0.164832
O O10 0.113407 0.000000 0.114945
O O11 0.000000 0.251757 0.326940
O O12 0.000000 0.000000 0.229758
O O13 0.386332 0.235137 0.147041
O O14 0.280999 0.241634 0.203279
O O15 0.343526 0.000000 0.230164
O O16 0.109926 0.500000 0.539436
O O17 0.055972 0.738718 0.484528
O O18 0.500000 0.000000 0.926408
O O19 0.723325 0.000000 0.699547
#
# Coordination Sequence:
#
# PCOD9373854 Si02
#       8
#     8   8   8   4   8   8   4   8
#     4   9  17  30  50  77 109 141 169 204 256 316
#     4  10  20  33  51  78 107 135 173 219 261 306
#     4  11  22  37  55  73 100 140 179 218 267 316
#     4  10  24  42  57  76 102 134 173 214 261 318
#     4   9  18  33  52  77 111 145 174 209 257 312
#     4   9  17  31  52  76 102 136 174 208 251 307
#     4  10  20  36  59  82 104 134 173 216 257 302
#     4  10  19  31  51  82 112 137 173 217 260 311
#
# _framework density 18.698571000000001
#
# number of rings (size 3 to 8) (size 9 to 14) (size 15 to 20)
#    0.000    2.286    0.000    3.000    0.000    4.571 
#    0.000    2.143    0.000    1.714    0.000    0.000 
#    0.000    0.000    0.000    0.000    0.000    0.000 
#
# Total GULP energy -156309.135558 kJ/mol
# GULP energy per Si atom -5582.469127 kJ/mol
# Density = 1.865601 g / cm^3
# Si number density = 18.698571 Si / 1000 Ang^3
#
#
#
# Elastic Constant Matrix: (Units=GPa)
#
#
# Indices 1 2 3 4 5 6 
#
# 1 78.9011 15.0041 98.9533 0.0000 0.0000 0.0000
# 2 15.0041 17.9972 29.4310 0.0000 0.0000 0.0000
# 3 98.9533 29.4310 152.4281 0.0000 0.0000 0.0000
# 4 0.0000 0.0000 0.0000 24.5201 0.0000 0.0000
# 5 0.0000 0.0000 0.0000 0.0000 33.8772 0.0000
# 6 0.0000 0.0000 0.0000 0.0000 0.0000 15.5287
#
#
#
# Elastic Compliance Matrix: (Units=1/GPa)
#
#
# Indices 1 2 3 4 5 6 
#
# 1 0.075209 0.025052 -0.053661 0.000000 0.000000 0.000000
# 2 0.025052 0.089549 -0.033553 0.000000 0.000000 0.000000
# 3 -0.053661 -0.033553 0.047875 0.000000 0.000000 0.000000
# 4 0.000000 0.000000 0.000000 0.040783 0.000000 0.000000
# 5 0.000000 0.000000 0.000000 0.000000 0.029518 0.000000
# 6 0.000000 0.000000 0.000000 0.000000 0.000000 0.064397
#
#
# Mechanical properties :
#
#
# Convention : Reuss Voigt Hill
#
# Bulk Modulus (GPa) = 11.32412 59.56703 35.44558
# Shear Modulus (GPa) = 9.97819 21.84773 15.91296
#
# Velocity S-wave (km/s) = 2.31256 3.42192 2.92040
# Velocity P-wave (km/s) = 3.63316 6.89480 5.51082
#
# Compressibility (1/GPa) = 0.08830710
#
# Stress axis : x y z
#
# Youngs Moduli (GPa) = 13.29622 11.16709 20.88777
#
# Poissons Ratio (x) = -0.27975 1.12087
# Poissons Ratio (y) = -0.33309 0.70085
# Poissons Ratio (z) = 0.71349 0.37469
#
# Static dielectric constant tensor:
#      x y z
#    x 1.615790 0.000000 0.000000 
#    y 0.000000 1.635750 0.000000 
#    z 0.000000 0.000000 1.671700 
# 
# From -- ./inp_files/19223.got.cif
#   From: 2010.05.17/outbox.cif.g08.bks.cpg/sg44_10_cif.got.tgz:19223.got - 2010.06.03 19:37:08.
