data_PCOD9373127
_publ_section_title
;
Structure prediction by ZEFSAII (Michael W. Deem and Ramdas Pophale) SiO2 
 PCOD9373127
Probable space group: I M M 2
;
_chemical_formula_sum "Si O2"
_cell_formula_units_Z 48
_cell_length_a 14.945223
_cell_length_b 8.133023
_cell_length_c 21.086683
_cell_angle_alpha 90.000000
_cell_angle_beta 90.000000
_cell_angle_gamma 90.000000
_cell_volume 2563.082995
_symmetry_space_group_name_H-M "I M M 2"
_symmetry_group_IT_number 44
_symmetry_cell_setting 'orthorhombic'
loop_
_space_group_symop_operation_xyz
x,y,z
-x,-y,z
-x,y,z
x,-y,z
1/2+x,1/2+y,1/2+z
1/2-x,1/2-y,1/2+z
1/2-x,1/2+y,1/2+z
1/2+x,1/2-y,1/2+z
loop_
_atom_site_type_symbol
_atom_site_label
_atom_site_fract_x
_atom_site_fract_y
_atom_site_fract_z
Si Si1 0.693156 0.302010 0.708000
Si Si2 0.689473 0.803613 0.328196
Si Si3 0.000000 0.694432 0.638643
Si Si4 0.500000 0.691568 0.281965
Si Si5 0.691206 0.201686 0.089197
Si Si6 0.692444 0.198925 0.946191
Si Si7 0.500000 0.799344 0.894137
Si Si8 0.000000 0.303926 0.248157
O O1 0.697891 0.500000 0.708601
O O2 0.749337 0.242614 0.769263
O O3 0.740087 0.244143 0.643464
O O4 0.590593 0.252677 0.714915
O O5 0.589965 0.734892 0.319735
O O6 0.738303 0.757791 0.393275
O O7 0.683822 0.000000 0.323464
O O8 0.091903 0.759395 0.608997
O O9 0.000000 0.500000 0.625075
O O10 0.000000 0.716389 0.714333
O O11 0.500000 0.500000 0.267011
O O12 0.690469 0.000000 0.090005
O O13 0.713376 0.252674 0.017763
O O14 0.591857 0.253320 0.927434
O O15 0.692636 0.000000 0.945017
O O16 0.500000 0.743084 0.821121
O O17 0.500000 0.000000 0.894740
O O18 0.000000 0.500000 0.250691
#
# Coordination Sequence:
#
# PCOD9373127 Si02
#       8
#     8   8   4   4   8   8   4   4
#     4  10  20  36  57  82 110 148 190 228 270 329
#     4  11  22  38  59  82 113 151 189 232 283 340
#     4  10  17  34  59  87 119 151 188 227 280 345
#     4  12  24  37  58  88 115 145 189 240 287 335
#     4   9  18  33  58  85 113 151 190 228 274 335
#     4  10  19  35  57  85 117 150 190 233 280 333
#     4   9  17  29  51  84 116 140 173 227 281 327
#     4  11  21  34  54  83 112 144 182 228 280 327
#
# _framework density 18.727447999999999
#
# number of rings (size 3 to 8) (size 9 to 14) (size 15 to 20)
#    0.000    1.833    3.333    2.000    0.000    2.667 
#    0.000    2.917    0.000    2.000    0.000    0.000 
#    0.000    0.000    0.000    0.000    0.000    0.000 
#
# Total GULP energy -134028.796197 kJ/mol
# GULP energy per Si atom -5584.533175 kJ/mol
# Density = 1.868482 g / cm^3
# Si number density = 18.727448 Si / 1000 Ang^3
#
#
#
# Elastic Constant Matrix: (Units=GPa)
#
#
# Indices 1 2 3 4 5 6 
#
# 1 165.7591 7.2797 90.2821 0.0000 0.0000 0.0000
# 2 7.2797 8.9863 1.6439 0.0000 0.0000 0.0000
# 3 90.2821 1.6439 159.4389 0.0000 0.0000 0.0000
# 4 0.0000 0.0000 0.0000 21.9305 0.0000 0.0000
# 5 0.0000 0.0000 0.0000 0.0000 21.4769 0.0000
# 6 0.0000 0.0000 0.0000 0.0000 0.0000 7.7244
#
#
#
# Elastic Compliance Matrix: (Units=1/GPa)
#
#
# Indices 1 2 3 4 5 6 
#
# 1 0.009079 -0.006426 -0.005075 0.000000 0.000000 0.000000
# 2 -0.006426 0.116039 0.002443 0.000000 0.000000 0.000000
# 3 -0.005075 0.002443 0.009120 0.000000 0.000000 0.000000
# 4 0.000000 0.000000 0.000000 0.045599 0.000000 0.000000
# 5 0.000000 0.000000 0.000000 0.000000 0.046562 0.000000
# 6 0.000000 0.000000 0.000000 0.000000 0.000000 0.129460
#
#
# Mechanical properties :
#
#
# Convention : Reuss Voigt Hill
#
# Bulk Modulus (GPa) = 8.61168 59.17730 33.89449
# Shear Modulus (GPa) = 12.11583 25.89161 19.00372
#
# Velocity S-wave (km/s) = 2.54629 3.72230 3.18897
# Velocity P-wave (km/s) = 3.64050 7.08109 5.63006
#
# Compressibility (1/GPa) = 0.11612143
#
# Stress axis : x y z
#
# Youngs Moduli (GPa) = 110.14303 8.61777 109.64437
#
# Poissons Ratio (x) = 0.05538 0.55642
# Poissons Ratio (y) = 0.70783 -0.26781
# Poissons Ratio (z) = 0.55895 -0.02105
#
# Static dielectric constant tensor:
#      x y z
#    x 1.623890 0.000000 0.000000 
#    y 0.000000 1.666110 0.000000 
#    z 0.000000 0.000000 1.633970 
# 
# From -- ./inp_files/21755.got.cif
#   From: 2010.05.17/outbox.cif.g08.bks.cpg/sg44_11_cif.got.tgz:21755.got - 2010.06.03 19:37:08.
