data_PCOD9373582
_publ_section_title
;
Structure prediction by ZEFSAII (Michael W. Deem and Ramdas Pophale) SiO2 
 PCOD9373582
Probable space group: I M M 2
;
_chemical_formula_sum "Si O2"
_cell_formula_units_Z 58
_cell_length_a 12.484404
_cell_length_b 28.926953
_cell_length_c 7.026470
_cell_angle_alpha 90.000000
_cell_angle_beta 90.000000
_cell_angle_gamma 90.000000
_cell_volume 2537.509638
_symmetry_space_group_name_H-M "I M M 2"
_symmetry_group_IT_number 44
_symmetry_cell_setting 'orthorhombic'
loop_
_space_group_symop_operation_xyz
x,y,z
-x,-y,z
-x,y,z
x,-y,z
1/2+x,1/2+y,1/2+z
1/2-x,1/2-y,1/2+z
1/2-x,1/2+y,1/2+z
1/2+x,1/2-y,1/2+z
loop_
_atom_site_type_symbol
_atom_site_label
_atom_site_fract_x
_atom_site_fract_y
_atom_site_fract_z
Si Si1 0.874384 0.625044 0.187340
Si Si2 0.125944 0.798400 0.384853
Si Si3 0.699559 0.449943 0.249947
Si Si4 0.500000 0.500000 0.409799
Si Si5 0.373963 0.788385 0.141315
Si Si6 0.379432 0.445935 0.812152
Si Si7 0.127278 0.725637 0.090412
Si Si8 0.782861 0.375199 0.785954
O O1 0.786581 0.590415 0.275166
O O2 0.837681 0.679109 0.200459
O O3 0.000000 0.619836 0.244019
O O4 0.866618 0.615892 0.956144
O O5 0.160549 0.758090 0.531056
O O6 0.152552 0.774794 0.182308
O O7 0.188025 0.845907 0.390057
O O8 0.000000 0.805941 0.407147
O O9 0.758007 0.500000 0.248402
O O10 0.595773 0.459737 0.381278
O O11 0.647821 0.444326 0.037922
O O12 0.500000 0.791484 0.097649
O O13 0.359294 0.778159 0.365700
O O14 0.329686 0.840609 0.128558
O O15 0.500000 0.427451 0.780622
O O16 0.384803 0.500000 0.758891
O O17 0.279946 0.419958 0.716664
O O18 0.000000 0.722864 0.119495
#
# Coordination Sequence:
#
# PCOD9373582 Si02
#       8
#     8   8   8   2   8   8   8   8
#     4   9  17  28  42  64  94 136 170 203 263 315
#     4  10  20  33  50  73 100 135 179 219 262 319
#     4   8  13  23  41  63  95 129 163 210 263 312
#     4   8  12  24  38  68  96 132 162 210 284 302
#     4   9  19  34  49  69 103 140 167 210 272 317
#     4   9  14  26  43  66 100 132 167 219 273 312
#     4   8  16  32  49  67  99 136 172 217 262 313
#     4  10  19  27  47  71  97 134 179 219 258 322
#
# _framework density 22.857054999999999
#
# number of rings (size 3 to 8) (size 9 to 14) (size 15 to 20)
#    0.414    2.621    0.690    1.655    3.862    0.276 
#    0.000    0.000    0.000    1.241    0.000    0.966 
#    0.000    9.103    0.000   24.897    0.000    0.000 
#
# Total GULP energy -161447.634060 kJ/mol
# GULP energy per Si atom -5567.159795 kJ/mol
# Density = 2.280503 g / cm^3
# Si number density = 22.857055 Si / 1000 Ang^3
#
#
#
# Elastic Constant Matrix: (Units=GPa)
#
#
# Indices 1 2 3 4 5 6 
#
# 1 93.2328 28.2445 -1.1116 -0.0027 0.0017 0.0005
# 2 28.2445 89.8923 -3.3509 -0.0115 0.0063 0.0026
# 3 -1.1116 -3.3509 51.9388 -0.0159 0.0132 0.0075
# 4 -0.0027 -0.0115 -0.0159 28.8747 0.0049 0.0033
# 5 0.0017 0.0063 0.0132 0.0049 10.8441 -0.0010
# 6 0.0005 0.0026 0.0075 0.0033 -0.0010 49.8105
#
#
#
# Elastic Compliance Matrix: (Units=1/GPa)
#
#
# Indices 1 2 3 4 5 6 
#
# 1 0.011854 -0.003724 0.000013 0.000000 0.000000 0.000000
# 2 -0.003724 0.012321 0.000715 0.000005 -0.000007 -0.000001
# 3 0.000013 0.000715 0.019300 0.000011 -0.000024 -0.000003
# 4 0.000000 0.000005 0.000011 0.034632 -0.000016 -0.000002
# 5 0.000000 -0.000007 -0.000024 -0.000016 0.092216 0.000002
# 6 0.000000 -0.000001 -0.000003 -0.000002 0.000002 0.020076
#
#
# Mechanical properties :
#
#
# Convention : Reuss Voigt Hill
#
# Bulk Modulus (GPa) = 26.67779 31.40310 29.04045
# Shear Modulus (GPa) = 23.93651 31.99131 27.96391
#
# Velocity S-wave (km/s) = 3.23960 3.74522 3.50155
# Velocity P-wave (km/s) = 5.06855 5.69833 5.39264
#
# Compressibility (1/GPa) = 0.03748436
#
# Stress axis : x y z
#
# Youngs Moduli (GPa) = 84.35822 81.16071 51.81380
#
# Poissons Ratio (x) = 0.30225 -0.00070
# Poissons Ratio (y) = 0.31416 -0.03706
# Poissons Ratio (z) = -0.00113 -0.05805
#
# Static dielectric constant tensor:
#      x y z
#    x 1.948450 0.000000 0.000000 
#    y 0.000000 1.864080 0.000000 
#    z 0.000000 0.000000 1.941200 
# 
# From -- ./inp_files/7644.got.cif
#   From: 2010.05.17/outbox.cif.g08.bks.cpg/sg44_4_cif.got.tgz:7644.got - 2010.06.03 19:37:08.
