data_PCOD9373786
_publ_section_title
;
Structure prediction by ZEFSAII (Michael W. Deem and Ramdas Pophale) SiO2 
 PCOD9373786
Probable space group: I M M 2
;
_chemical_formula_sum "Si O2"
_cell_formula_units_Z 64
_cell_length_a 8.796354
_cell_length_b 23.912966
_cell_length_c 19.633932
_cell_angle_alpha 90.000000
_cell_angle_beta 90.000000
_cell_angle_gamma 90.000000
_cell_volume 4129.937008
_symmetry_space_group_name_H-M "I M M 2"
_symmetry_group_IT_number 44
_symmetry_cell_setting 'orthorhombic'
loop_
_space_group_symop_operation_xyz
x,y,z
-x,-y,z
-x,y,z
x,-y,z
1/2+x,1/2+y,1/2+z
1/2-x,1/2-y,1/2+z
1/2-x,1/2+y,1/2+z
1/2+x,1/2-y,1/2+z
loop_
_atom_site_type_symbol
_atom_site_label
_atom_site_fract_x
_atom_site_fract_y
_atom_site_fract_z
Si Si1 0.317675 0.228385 0.694360
Si Si2 0.317617 0.246758 0.335051
Si Si3 0.682687 0.621883 0.835418
Si Si4 0.316908 0.064237 0.201994
Si Si5 0.817189 0.226261 0.986326
Si Si6 0.683085 0.563893 0.977653
Si Si7 0.817826 0.659923 0.064800
Si Si8 0.318243 0.832326 0.111356
O O1 0.500000 0.231961 0.697852
O O2 0.248235 0.222769 0.768925
O O3 0.276724 0.179498 0.640970
O O4 0.255548 0.285647 0.660712
O O5 0.500000 0.244148 0.331101
O O6 0.253355 0.183687 0.334471
O O7 0.275406 0.274803 0.407093
O O8 0.500000 0.626179 0.833427
O O9 0.740629 0.587556 0.770426
O O10 0.728541 0.590463 0.904966
O O11 0.500000 0.066470 0.210772
O O12 0.278254 0.106945 0.141096
O O13 0.273497 0.000000 0.189428
O O14 0.000000 0.221465 0.992481
O O15 0.775092 0.287514 0.016325
O O16 0.741121 0.181338 0.035938
O O17 0.500000 0.563737 0.979234
O O18 0.736450 0.500000 0.983353
O O19 0.743025 0.604225 0.036605
O O20 0.000000 0.654385 0.061374
O O21 0.500000 0.825856 0.113593
#
# Coordination Sequence:
#
# PCOD9373786 Si02
#       8
#     8   8   8   8   8   8   8   8
#     4  10  20  33  49  71  99 126 157 202 248 291
#     4  11  20  32  50  73  99 130 164 198 244 296
#     4  11  21  32  47  69  99 133 168 203 238 281
#     4  10  21  35  49  68  97 133 170 205 238 281
#     4   9  19  33  49  69  98 126 157 202 245 288
#     4  10  21  34  47  68  98 130 167 206 240 279
#     4   9  18  33  49  68  94 126 161 198 242 287
#     4  10  19  31  49  71  95 127 165 201 240 288
#
# _framework density 15.496605000000001
#
# number of rings (size 3 to 8) (size 9 to 14) (size 15 to 20)
#    0.000    2.000    2.500    2.625    0.000    5.500 
#    0.000    0.000    0.000    0.000    0.000    0.875 
#    0.000    3.000    0.000    0.000    0.000    0.000 
#
# Total GULP energy -178552.027027 kJ/mol
# GULP energy per Si atom -5579.750845 kJ/mol
# Density = 1.546133 g / cm^3
# Si number density = 15.496605 Si / 1000 Ang^3
#
#
#
# Elastic Constant Matrix: (Units=GPa)
#
#
# Indices 1 2 3 4 5 6 
#
# 1 30.4762 30.9496 43.6285 0.0000 0.0000 0.0000
# 2 30.9496 93.0592 72.5536 0.0000 0.0000 0.0000
# 3 43.6285 72.5536 152.0650 0.0000 0.0000 0.0000
# 4 0.0000 0.0000 0.0000 18.3341 0.0000 0.0000
# 5 0.0000 0.0000 0.0000 0.0000 28.2222 0.0000
# 6 0.0000 0.0000 0.0000 0.0000 0.0000 20.5828
#
#
#
# Elastic Compliance Matrix: (Units=1/GPa)
#
#
# Indices 1 2 3 4 5 6 
#
# 1 0.061722 -0.010702 -0.012602 0.000000 0.000000 0.000000
# 2 -0.010702 0.018967 -0.005979 0.000000 0.000000 0.000000
# 3 -0.012602 -0.005979 0.013044 0.000000 0.000000 0.000000
# 4 0.000000 0.000000 0.000000 0.054543 0.000000 0.000000
# 5 0.000000 0.000000 0.000000 0.000000 0.035433 0.000000
# 6 0.000000 0.000000 0.000000 0.000000 0.000000 0.048584
#
#
# Mechanical properties :
#
#
# Convention : Reuss Voigt Hill
#
# Bulk Modulus (GPa) = 28.43621 63.31821 45.87721
# Shear Modulus (GPa) = 16.52446 21.99239 19.25843
#
# Velocity S-wave (km/s) = 3.26901 3.77128 3.52909
# Velocity P-wave (km/s) = 5.71300 7.74025 6.80257
#
# Compressibility (1/GPa) = 0.03516643
#
# Stress axis : x y z
#
# Youngs Moduli (GPa) = 16.20176 52.72441 76.66092
#
# Poissons Ratio (x) = 0.56426 0.96610
# Poissons Ratio (y) = 0.17339 0.45835
# Poissons Ratio (z) = 0.20418 0.31523
#
# Static dielectric constant tensor:
#      x y z
#    x 1.522200 0.000000 0.000000 
#    y 0.000000 1.493850 0.000000 
#    z 0.000000 0.000000 1.520010 
# 
# From -- ./inp_files/20778.got.cif
#   From: 2010.05.17/outbox.cif.g08.bks.cpg/sg44_11_cif.got.tgz:20778.got - 2010.06.03 19:37:08.
