data_PCOD9373752
_publ_section_title
;
Structure prediction by ZEFSAII (Michael W. Deem and Ramdas Pophale) SiO2 
 PCOD9373752
Probable space group: I M M 2
;
_chemical_formula_sum "Si O2"
_cell_formula_units_Z 56
_cell_length_a 19.169708
_cell_length_b 8.389156
_cell_length_c 21.354723
_cell_angle_alpha 90.000000
_cell_angle_beta 90.000000
_cell_angle_gamma 90.000000
_cell_volume 3434.216815
_symmetry_space_group_name_H-M "I M M 2"
_symmetry_group_IT_number 44
_symmetry_cell_setting 'orthorhombic'
loop_
_space_group_symop_operation_xyz
x,y,z
-x,-y,z
-x,y,z
x,-y,z
1/2+x,1/2+y,1/2+z
1/2-x,1/2-y,1/2+z
1/2-x,1/2+y,1/2+z
1/2+x,1/2-y,1/2+z
loop_
_atom_site_type_symbol
_atom_site_label
_atom_site_fract_x
_atom_site_fract_y
_atom_site_fract_z
Si Si1 0.714018 0.687596 0.127230
Si Si2 0.419770 0.189843 0.810890
Si Si3 0.781849 0.190108 0.000168
Si Si4 0.843989 0.189957 0.434432
Si Si5 0.848689 0.189262 0.185583
Si Si6 0.920704 0.194622 0.562567
Si Si7 0.578316 0.693573 0.555295
O O1 0.713580 0.500000 0.141015
O O2 0.747901 0.718146 0.058901
O O3 0.767237 0.771779 0.174278
O O4 0.634668 0.744673 0.115953
O O5 0.500000 0.246657 0.807485
O O6 0.381355 0.263950 0.870540
O O7 0.380232 0.232495 0.747052
O O8 0.420252 0.000000 0.818550
O O9 0.863487 0.234020 0.003195
O O10 0.776733 0.000000 0.011705
O O11 0.732827 0.234630 0.942389
O O12 0.890605 0.243610 0.494434
O O13 0.837243 0.000000 0.438424
O O14 0.890668 0.243113 0.123013
O O15 0.857194 0.000000 0.190320
O O16 0.000000 0.248592 0.571139
O O17 0.920625 0.000000 0.562713
O O18 0.500000 0.753745 0.545561
O O19 0.575167 0.500000 0.556829
#
# Coordination Sequence:
#
# PCOD9373752 Si02
#       7
#     8   8   8   8   8   8   8
#     4   9  16  27  44  65  90 119 152 191 231 272
#     4  11  23  35  47  67  94 121 152 191 229 266
#     4   9  16  27  44  65  90 119 152 191 231 272
#     4  10  19  31  47  65  90 125 159 188 221 269
#     4  10  19  31  47  65  90 125 159 188 221 269
#     4   8  14  25  43  67  91 116 148 185 224 266
#     4   8  14  25  43  67  91 116 148 185 224 266
#
# _framework density 16.306484000000001
#
# number of rings (size 3 to 8) (size 9 to 14) (size 15 to 20)
#    0.000    2.714    0.000    4.714    0.000    2.286 
#    0.000    0.000    0.000   17.143    0.000    1.000 
#    0.000    8.000    0.000    0.000    0.000    0.000 
#
# Total GULP energy -155926.783743 kJ/mol
# GULP energy per Si atom -5568.813705 kJ/mol
# Density = 1.626937 g / cm^3
# Si number density = 16.306484 Si / 1000 Ang^3
#
#
#
# Elastic Constant Matrix: (Units=GPa)
#
#
# Indices 1 2 3 4 5 6 
#
# 1 160.0718 10.4698 50.1850 0.0000 0.0000 0.0000
# 2 10.4698 19.1573 2.3997 0.0000 0.0000 0.0000
# 3 50.1850 2.3997 52.9617 0.0000 0.0000 0.0000
# 4 0.0000 0.0000 0.0000 19.2416 0.0000 0.0000
# 5 0.0000 0.0000 0.0000 0.0000 24.1883 0.0000
# 6 0.0000 0.0000 0.0000 0.0000 0.0000 17.4299
#
#
#
# Elastic Compliance Matrix: (Units=1/GPa)
#
#
# Indices 1 2 3 4 5 6 
#
# 1 0.009175 -0.003948 -0.008515 0.000000 0.000000 0.000000
# 2 -0.003948 0.054196 0.001285 0.000000 0.000000 0.000000
# 3 -0.008515 0.001285 0.026892 0.000000 0.000000 0.000000
# 4 0.000000 0.000000 0.000000 0.051971 0.000000 0.000000
# 5 0.000000 0.000000 0.000000 0.000000 0.041342 0.000000
# 6 0.000000 0.000000 0.000000 0.000000 0.000000 0.057373
#
#
# Mechanical properties :
#
#
# Convention : Reuss Voigt Hill
#
# Bulk Modulus (GPa) = 14.72589 39.81110 27.26849
# Shear Modulus (GPa) = 17.48617 23.44769 20.46693
#
# Velocity S-wave (km/s) = 3.27822 3.79613 3.54664
# Velocity P-wave (km/s) = 4.83521 6.60919 5.79054
#
# Compressibility (1/GPa) = 0.06790763
#
# Stress axis : x y z
#
# Youngs Moduli (GPa) = 108.99142 18.45157 37.18575
#
# Poissons Ratio (x) = 0.07284 0.31664
# Poissons Ratio (y) = 0.43027 -0.04779
# Poissons Ratio (z) = 0.92808 -0.02371
#
# Static dielectric constant tensor:
#      x y z
#    x 1.593270 0.000000 0.000000 
#    y 0.000000 1.555570 0.000000 
#    z 0.000000 0.000000 1.522200 
# 
# From -- ./inp_files/22258.got.cif
#   From: 2010.05.17/outbox.cif.g08.bks.cpg/sg44_12_cif.got.tgz:22258.got - 2010.06.03 19:37:08.
