data_PCOD9373263
_publ_section_title
;
Structure prediction by ZEFSAII (Michael W. Deem and Ramdas Pophale) SiO2 
 PCOD9373263
Probable space group: I M M 2
;
_chemical_formula_sum "Si O2"
_cell_formula_units_Z 32
_cell_length_a 12.371974
_cell_length_b 31.305413
_cell_length_c 5.292534
_cell_angle_alpha 90.000000
_cell_angle_beta 90.000000
_cell_angle_gamma 90.000000
_cell_volume 2049.850051
_symmetry_space_group_name_H-M "I M M 2"
_symmetry_group_IT_number 44
_symmetry_cell_setting 'orthorhombic'
loop_
_space_group_symop_operation_xyz
x,y,z
-x,-y,z
-x,y,z
x,-y,z
1/2+x,1/2+y,1/2+z
1/2-x,1/2-y,1/2+z
1/2-x,1/2+y,1/2+z
1/2+x,1/2-y,1/2+z
loop_
_atom_site_type_symbol
_atom_site_label
_atom_site_fract_x
_atom_site_fract_y
_atom_site_fract_z
Si Si1 0.369221 0.601182 0.101670
Si Si2 0.371675 0.218072 0.101647
Si Si3 0.131221 0.048994 0.101670
Si Si4 0.253860 0.692238 0.101646
O O1 0.500000 0.605614 0.101681
O O2 0.337458 0.574583 0.350550
O O3 0.315497 0.647493 0.101685
O O4 0.337459 0.574591 0.852764
O O5 0.500000 0.213652 0.101681
O O6 0.337609 0.268068 0.101658
O O7 0.318667 0.197759 0.351553
O O8 0.318692 0.197764 0.851698
O O9 0.000000 0.047450 0.101670
O O10 0.169468 0.000000 0.101702
#
# Coordination Sequence:
#
# PCOD9373263 Si02
#       4
#     8   8   8   8
#     4  10  18  29  46  68  97 126 155 189 223 272
#     4  10  20  34  49  67  96 126 155 194 233 267
#     4   9  17  28  43  65  95 128 153 181 228 279
#     4  10  20  32  49  71  93 124 161 190 225 276
#
# _framework density 15.610899
#
# number of rings (size 3 to 8) (size 9 to 14) (size 15 to 20)
#    0.000    2.250    0.000    3.750    0.000    3.000 
#    0.000    7.500    0.000    0.000    0.000    0.000 
#    0.000   70.000    0.000    0.000    0.000    0.000 
#
# Total GULP energy -89258.830492 kJ/mol
# GULP energy per Si atom -5578.676906 kJ/mol
# Density = 1.557537 g / cm^3
# Si number density = 15.610899 Si / 1000 Ang^3
#
#
#
# Elastic Constant Matrix: (Units=GPa)
#
#
# Indices 1 2 3 4 5 6 
#
# 1 64.6280 51.9147 48.4998 0.0018 0.0016 0.0003
# 2 51.9147 165.9068 96.8713 0.0000 -0.0005 -0.0001
# 3 48.4998 96.8713 182.9827 -0.0085 0.0364 0.0005
# 4 0.0018 0.0000 -0.0085 13.9590 0.0067 0.0029
# 5 0.0016 -0.0005 0.0364 0.0067 7.3356 -0.0007
# 6 0.0003 -0.0001 0.0005 0.0029 -0.0007 25.3154
#
#
#
# Elastic Compliance Matrix: (Units=1/GPa)
#
#
# Indices 1 2 3 4 5 6 
#
# 1 0.021850 -0.005002 -0.003143 -0.000005 0.000011 0.000000
# 2 -0.005002 0.009869 -0.003899 -0.000002 0.000021 0.000000
# 3 -0.003143 -0.003899 0.008362 0.000006 -0.000041 0.000000
# 4 -0.000005 -0.000002 0.000006 0.071638 -0.000065 -0.000008
# 5 0.000011 0.000021 -0.000041 -0.000065 0.136323 0.000004
# 6 0.000000 0.000000 0.000000 -0.000008 0.000004 0.039502
#
#
# Mechanical properties :
#
#
# Convention : Reuss Voigt Hill
#
# Bulk Modulus (GPa) = 62.52720 89.78768 76.15744
# Shear Modulus (GPa) = 15.77469 23.73745 19.75607
#
# Velocity S-wave (km/s) = 3.18227 3.90368 3.56129
# Velocity P-wave (km/s) = 7.32414 8.82945 8.11179
#
# Compressibility (1/GPa) = 0.01599304
#
# Stress axis : x y z
#
# Youngs Moduli (GPa) = 45.76665 101.32504 119.58367
#
# Poissons Ratio (x) = 0.50680 0.37590
# Poissons Ratio (y) = 0.22891 0.46626
# Poissons Ratio (z) = 0.14386 0.39507
#
# Static dielectric constant tensor:
#      x y z
#    x 1.480120 0.000000 0.000000 
#    y 0.000000 1.499420 0.000000 
#    z 0.000000 0.000000 1.523570 
# 
# From -- ./inp_files/419.got.cif
#   From: 2010.05.17/outbox.cif.g08.bks.cpg/sg44_1_cif.got.tgz:419.got - 2010.06.03 19:37:08.
