data_PCOD9373559
_publ_section_title
;
Structure prediction by ZEFSAII (Michael W. Deem and Ramdas Pophale) SiO2 
 PCOD9373559
Probable space group: I M M 2
;
_chemical_formula_sum "Si O2"
_cell_formula_units_Z 52
_cell_length_a 19.883506
_cell_length_b 13.117180
_cell_length_c 10.451278
_cell_angle_alpha 90.000000
_cell_angle_beta 90.000000
_cell_angle_gamma 90.000000
_cell_volume 2725.855582
_symmetry_space_group_name_H-M "I M M 2"
_symmetry_group_IT_number 44
_symmetry_cell_setting 'orthorhombic'
loop_
_space_group_symop_operation_xyz
x,y,z
-x,-y,z
-x,y,z
x,-y,z
1/2+x,1/2+y,1/2+z
1/2-x,1/2-y,1/2+z
1/2-x,1/2+y,1/2+z
1/2+x,1/2-y,1/2+z
loop_
_atom_site_type_symbol
_atom_site_label
_atom_site_fract_x
_atom_site_fract_y
_atom_site_fract_z
Si Si1 0.762977 0.116084 0.034070
Si Si2 0.000000 0.613814 0.155274
Si Si3 0.291748 0.674520 0.048085
Si Si4 0.500000 0.624237 0.425489
Si Si5 0.639269 0.379229 0.309270
Si Si6 0.500000 0.670618 0.727047
Si Si7 0.647857 0.334217 0.777470
Si Si8 0.850999 0.383784 0.154773
O O1 0.813772 0.120609 0.154708
O O2 0.740034 0.000000 0.016541
O O3 0.708363 0.202541 0.056870
O O4 0.803590 0.154164 0.909015
O O5 0.000000 0.500000 0.211794
O O6 0.074175 0.622578 0.090175
O O7 0.000000 0.707731 0.252450
O O8 0.317731 0.640724 0.910677
O O9 0.337379 0.638504 0.165560
O O10 0.215192 0.636176 0.070218
O O11 0.500000 0.500000 0.427480
O O12 0.433052 0.661137 0.353292
O O13 0.500000 0.658818 0.572847
O O14 0.635598 0.500000 0.329276
O O15 0.429425 0.630152 0.776536
O O16 0.650137 0.210985 0.753485
O O17 0.844908 0.500000 0.205824
#
# Coordination Sequence:
#
# PCOD9373559 Si02
#       8
#     8   4   8   4   8   4   8   8
#     4  10  20  36  56  77 108 149 188 223 269 332
#     4   8  16  32  55  82 104 138 188 228 268 322
#     4  11  22  34  52  84 120 143 179 232 286 326
#     4  10  20  37  62  81 102 146 194 226 264 333
#     4  10  21  38  59  81 108 149 190 223 271 336
#     4  10  18  35  59  81 108 142 184 236 274 323
#     4  10  21  34  56  86 111 140 186 233 282 324
#     4   9  18  35  56  78 111 148 183 226 273 328
#
# _framework density 19.076578999999999
#
# number of rings (size 3 to 8) (size 9 to 14) (size 15 to 20)
#    0.000    2.154    1.538    2.308    0.000    3.692 
#    0.000    0.000    0.000    0.000    0.000    1.077 
#    0.000    0.000    0.000    0.000    0.000    0.000 
#
# Total GULP energy -144843.460631 kJ/mol
# GULP energy per Si atom -5570.902332 kJ/mol
# Density = 1.903316 g / cm^3
# Si number density = 19.076579 Si / 1000 Ang^3
#
#
#
# Elastic Constant Matrix: (Units=GPa)
#
#
# Indices 1 2 3 4 5 6 
#
# 1 103.3255 -13.1642 38.1815 0.0000 0.0000 0.0000
# 2 -13.1642 48.5902 -19.9393 0.0000 0.0000 0.0000
# 3 38.1815 -19.9393 87.4053 0.0000 0.0000 0.0000
# 4 0.0000 0.0000 0.0000 12.4619 0.0000 0.0000
# 5 0.0000 0.0000 0.0000 0.0000 10.9189 0.0000
# 6 0.0000 0.0000 0.0000 0.0000 0.0000 1.4321
#
#
#
# Elastic Compliance Matrix: (Units=1/GPa)
#
#
# Indices 1 2 3 4 5 6 
#
# 1 0.011601 0.001173 -0.004800 0.000000 0.000000 0.000000
# 2 0.001173 0.022825 0.004694 0.000000 0.000000 0.000000
# 3 -0.004800 0.004694 0.014609 0.000000 0.000000 0.000000
# 4 0.000000 0.000000 0.000000 0.080245 0.000000 0.000000
# 5 0.000000 0.000000 0.000000 0.000000 0.091584 0.000000
# 6 0.000000 0.000000 0.000000 0.000000 0.000000 0.698256
#
#
# Mechanical properties :
#
#
# Convention : Reuss Voigt Hill
#
# Bulk Modulus (GPa) = 19.54292 27.71966 23.63129
# Shear Modulus (GPa) = 5.35308 20.57879 12.96594
#
# Velocity S-wave (km/s) = 1.67696 3.28799 2.60989
# Velocity P-wave (km/s) = 3.74383 5.38301 4.63644
#
# Compressibility (1/GPa) = 0.05116942
#
# Stress axis : x y z
#
# Youngs Moduli (GPa) = 86.19613 43.81257 68.45220
#
# Poissons Ratio (x) = -0.05141 0.32859
# Poissons Ratio (y) = -0.10113 -0.32134
# Poissons Ratio (z) = 0.41376 -0.20567
#
# Static dielectric constant tensor:
#      x y z
#    x 1.719240 0.000000 0.000000 
#    y 0.000000 1.712610 0.000000 
#    z 0.000000 0.000000 1.623630 
# 
# From -- ./inp_files/7351.got.cif
#   From: 2010.05.17/outbox.cif.g08.bks.cpg/sg44_4_cif.got.tgz:7351.got - 2010.06.03 19:37:08.
