data_PCOD9373725
_publ_section_title
;
Structure prediction by ZEFSAII (Michael W. Deem and Ramdas Pophale) SiO2 
 PCOD9373725
Probable space group: I M M 2
;
_chemical_formula_sum "Si O2"
_cell_formula_units_Z 56
_cell_length_a 8.581308
_cell_length_b 19.419013
_cell_length_c 18.216064
_cell_angle_alpha 90.000000
_cell_angle_beta 90.000000
_cell_angle_gamma 90.000000
_cell_volume 3035.534589
_symmetry_space_group_name_H-M "I M M 2"
_symmetry_group_IT_number 44
_symmetry_cell_setting 'orthorhombic'
loop_
_space_group_symop_operation_xyz
x,y,z
-x,-y,z
-x,y,z
x,-y,z
1/2+x,1/2+y,1/2+z
1/2-x,1/2-y,1/2+z
1/2-x,1/2+y,1/2+z
1/2+x,1/2-y,1/2+z
loop_
_atom_site_type_symbol
_atom_site_label
_atom_site_fract_x
_atom_site_fract_y
_atom_site_fract_z
Si Si1 0.182481 0.689957 0.920760
Si Si2 0.819829 0.839123 0.577957
Si Si3 0.188522 0.920602 0.720370
Si Si4 0.820507 0.218819 0.162233
Si Si5 0.316980 0.793334 0.813695
Si Si6 0.822460 0.923584 0.318328
Si Si7 0.181929 0.423500 0.661635
O O1 0.233664 0.763353 0.885948
O O2 0.279216 0.633536 0.875976
O O3 0.000000 0.681336 0.907581
O O4 0.221890 0.674504 0.005072
O O5 0.766091 0.896204 0.637619
O O6 0.800607 0.768618 0.622992
O O7 0.000000 0.852529 0.558779
O O8 0.254076 0.864280 0.777860
O O9 0.000000 0.916732 0.723152
O O10 0.234960 0.000000 0.733840
O O11 0.799688 0.235707 0.248839
O O12 0.784017 0.141350 0.138355
O O13 0.000000 0.237070 0.144883
O O14 0.500000 0.800777 0.828486
O O15 0.707026 0.922965 0.249521
O O16 0.000000 0.913448 0.290422
O O17 0.815430 0.000000 0.351817
O O18 0.229978 0.500000 0.636020
O O19 0.000000 0.413548 0.644513
#
# Coordination Sequence:
#
# PCOD9373725 Si02
#       7
#     8   8   8   8   8   8   8
#     4  12  23  35  53  78 111 147 186 228 275 330
#     4  10  21  36  55  78 109 145 183 225 275 332
#     4   9  19  37  60  85 112 145 186 231 281 336
#     4  10  19  33  53  76 104 137 179 225 268 319
#     4  10  20  34  55  81 108 142 184 229 276 325
#     4  10  20  33  49  72 104 140 176 214 258 309
#     4  10  19  30  48  75 104 135 172 213 258 308
#
# _framework density 18.448150999999999
#
# number of rings (size 3 to 8) (size 9 to 14) (size 15 to 20)
#    0.000    1.857    1.429    3.429    0.000    4.286 
#    0.000    1.429    0.000    0.857    0.000    0.000 
#    0.000    0.000    0.000    0.000    0.000    0.000 
#
# Total GULP energy -156083.531866 kJ/mol
# GULP energy per Si atom -5574.411852 kJ/mol
# Density = 1.840616 g / cm^3
# Si number density = 18.448151 Si / 1000 Ang^3
#
#
#
# Elastic Constant Matrix: (Units=GPa)
#
#
# Indices 1 2 3 4 5 6 
#
# 1 47.7202 15.9899 3.0686 0.0000 0.0000 0.0000
# 2 15.9899 107.5656 9.7936 0.0000 0.0000 0.0000
# 3 3.0686 9.7936 31.1137 0.0000 0.0000 0.0000
# 4 0.0000 0.0000 0.0000 12.0906 0.0000 0.0000
# 5 0.0000 0.0000 0.0000 0.0000 25.0711 0.0000
# 6 0.0000 0.0000 0.0000 0.0000 0.0000 25.5260
#
#
#
# Elastic Compliance Matrix: (Units=1/GPa)
#
#
# Indices 1 2 3 4 5 6 
#
# 1 0.022096 -0.003177 -0.001179 0.000000 0.000000 0.000000
# 2 -0.003177 0.010028 -0.002843 0.000000 0.000000 0.000000
# 3 -0.001179 -0.002843 0.033151 0.000000 0.000000 0.000000
# 4 0.000000 0.000000 0.000000 0.082709 0.000000 0.000000
# 5 0.000000 0.000000 0.000000 0.000000 0.039887 0.000000
# 6 0.000000 0.000000 0.000000 0.000000 0.000000 0.039176
#
#
# Mechanical properties :
#
#
# Convention : Reuss Voigt Hill
#
# Bulk Modulus (GPa) = 19.65556 27.12263 23.38909
# Shear Modulus (GPa) = 19.34953 23.04069 21.19511
#
# Velocity S-wave (km/s) = 3.24212 3.53787 3.39322
# Velocity P-wave (km/s) = 4.96918 5.60560 5.29696
#
# Compressibility (1/GPa) = 0.05087620
#
# Stress axis : x y z
#
# Youngs Moduli (GPa) = 45.25717 99.72268 30.16467
#
# Poissons Ratio (x) = 0.31684 0.03557
# Poissons Ratio (y) = 0.14379 0.08576
# Poissons Ratio (z) = 0.05336 0.28352
#
# Static dielectric constant tensor:
#      x y z
#    x 1.608020 0.000000 0.000000 
#    y 0.000000 1.667740 0.000000 
#    z 0.000000 0.000000 1.636940 
# 
# From -- ./inp_files/20683.got.cif
#   From: 2010.05.17/outbox.cif.g08.bks.cpg/sg44_11_cif.got.tgz:20683.got - 2010.06.03 19:37:08.
