data_PCOD9373586
_publ_section_title
;
Structure prediction by ZEFSAII (Michael W. Deem and Ramdas Pophale) SiO2 
 PCOD9373586
Probable space group: I M M 2
;
_chemical_formula_sum "Si O2"
_cell_formula_units_Z 64
_cell_length_a 9.263941
_cell_length_b 13.966231
_cell_length_c 34.898030
_cell_angle_alpha 90.000000
_cell_angle_beta 90.000000
_cell_angle_gamma 90.000000
_cell_volume 4515.188782
_symmetry_space_group_name_H-M "I M M 2"
_symmetry_group_IT_number 44
_symmetry_cell_setting 'orthorhombic'
loop_
_space_group_symop_operation_xyz
x,y,z
-x,-y,z
-x,y,z
x,-y,z
1/2+x,1/2+y,1/2+z
1/2-x,1/2-y,1/2+z
1/2-x,1/2+y,1/2+z
1/2+x,1/2-y,1/2+z
loop_
_atom_site_type_symbol
_atom_site_label
_atom_site_fract_x
_atom_site_fract_y
_atom_site_fract_z
Si Si1 0.333645 0.616575 0.463520
Si Si2 0.828055 0.613052 0.386138
Si Si3 0.172080 0.610788 0.771337
Si Si4 0.666230 0.116493 0.039700
Si Si5 0.170994 0.294943 0.689288
Si Si6 0.171993 0.109936 0.736264
Si Si7 0.827007 0.288414 0.306021
Si Si8 0.328737 0.385748 0.617587
O O1 0.500000 0.646896 0.465002
O O2 0.331764 0.500000 0.464040
O O3 0.257359 0.644742 0.423908
O O4 0.246547 0.648633 0.501081
O O5 0.798057 0.500000 0.379439
O O6 0.791025 0.671835 0.348084
O O7 0.000000 0.621550 0.393049
O O8 0.208478 0.500000 0.777482
O O9 0.199261 0.640604 0.727087
O O10 0.259871 0.684586 0.797375
O O11 0.000000 0.623760 0.777557
O O12 0.500000 0.147751 0.040640
O O13 0.751019 0.143886 0.078133
O O14 0.666253 0.000000 0.038877
O O15 0.203998 0.186763 0.703004
O O16 0.261992 0.330767 0.653557
O O17 0.000000 0.302109 0.680629
O O18 0.258957 0.142398 0.773775
O O19 0.000000 0.119284 0.744308
O O20 0.202206 0.000000 0.726363
O O21 0.000000 0.286639 0.302150
O O22 0.500000 0.371113 0.614695
O O23 0.303370 0.500000 0.622795
#
# Coordination Sequence:
#
# PCOD9373586 Si02
#       8
#     8   8   8   8   8   8   8   8
#     4   9  16  25  38  57  80 106 137 171 204 239
#     4   9  17  28  40  56  82 114 143 170 203 245
#     4   9  18  32  47  61  81 111 144 177 213 254
#     4   9  16  26  40  56  77 108 140 167 200 243
#     4   9  17  29  44  61  80 105 139 174 208 248
#     4   9  18  32  47  61  81 111 144 177 213 253
#     4  10  19  29  43  64  87 110 140 178 215 251
#     4  10  19  28  39  58  84 111 139 172 206 241
#
# _framework density 14.174379999999999
#
# number of rings (size 3 to 8) (size 9 to 14) (size 15 to 20)
#    0.000    2.750    0.000    3.000    0.000    8.250 
#    0.000    1.250    0.000    0.000    0.000    0.000 
#    0.000    1.000    0.000    5.250    0.000    4.250 
#
# Total GULP energy -178319.647743 kJ/mol
# GULP energy per Si atom -5572.488992 kJ/mol
# Density = 1.414212 g / cm^3
# Si number density = 14.174380 Si / 1000 Ang^3
#
#
#
# Elastic Constant Matrix: (Units=GPa)
#
#
# Indices 1 2 3 4 5 6 
#
# 1 82.9715 45.2550 85.5946 0.0000 0.0000 0.0000
# 2 45.2550 71.6908 54.2403 0.0000 0.0000 0.0000
# 3 85.5946 54.2403 141.8021 0.0000 0.0000 0.0000
# 4 0.0000 0.0000 0.0000 18.8641 0.0000 0.0000
# 5 0.0000 0.0000 0.0000 0.0000 29.1379 0.0000
# 6 0.0000 0.0000 0.0000 0.0000 0.0000 16.8932
#
#
#
# Elastic Compliance Matrix: (Units=1/GPa)
#
#
# Indices 1 2 3 4 5 6 
#
# 1 0.035422 -0.008702 -0.018053 0.000000 0.000000 0.000000
# 2 -0.008702 0.021767 -0.003074 0.000000 0.000000 0.000000
# 3 -0.018053 -0.003074 0.019125 0.000000 0.000000 0.000000
# 4 0.000000 0.000000 0.000000 0.053011 0.000000 0.000000
# 5 0.000000 0.000000 0.000000 0.000000 0.034320 0.000000
# 6 0.000000 0.000000 0.000000 0.000000 0.000000 0.059195
#
#
# Mechanical properties :
#
#
# Convention : Reuss Voigt Hill
#
# Bulk Modulus (GPa) = 60.03244 74.07158 67.05201
# Shear Modulus (GPa) = 17.35808 20.40400 18.88104
#
# Velocity S-wave (km/s) = 3.50324 3.79819 3.65369
# Velocity P-wave (km/s) = 7.66866 8.46202 8.07509
#
# Compressibility (1/GPa) = 0.01665766
#
# Stress axis : x y z
#
# Youngs Moduli (GPa) = 28.23065 45.94062 52.28738
#
# Poissons Ratio (x) = 0.39976 0.94396
# Poissons Ratio (y) = 0.24565 0.16071
# Poissons Ratio (z) = 0.50966 0.14120
#
# Static dielectric constant tensor:
#      x y z
#    x 1.473490 0.000000 0.000000 
#    y 0.000000 1.450820 0.000000 
#    z 0.000000 0.000000 1.448230 
# 
# From -- ./inp_files/27281.got.cif
#   From: 2010.05.17/outbox.cif.g08.bks.cpg/sg44_14_cif.got.tgz:27281.got - 2010.06.03 19:37:08.
