data_PCOD9373570
_publ_section_title
;
Structure prediction by ZEFSAII (Michael W. Deem and Ramdas Pophale) SiO2 
 PCOD9373570
Probable space group: I M M 2
;
_chemical_formula_sum "Si O2"
_cell_formula_units_Z 40
_cell_length_a 23.547214
_cell_length_b 7.640965
_cell_length_c 10.675908
_cell_angle_alpha 90.000000
_cell_angle_beta 90.000000
_cell_angle_gamma 90.000000
_cell_volume 1920.846071
_symmetry_space_group_name_H-M "I M M 2"
_symmetry_group_IT_number 44
_symmetry_cell_setting 'orthorhombic'
loop_
_space_group_symop_operation_xyz
x,y,z
-x,-y,z
-x,y,z
x,-y,z
1/2+x,1/2+y,1/2+z
1/2-x,1/2-y,1/2+z
1/2-x,1/2+y,1/2+z
1/2+x,1/2-y,1/2+z
loop_
_atom_site_type_symbol
_atom_site_label
_atom_site_fract_x
_atom_site_fract_y
_atom_site_fract_z
Si Si1 0.329245 0.291862 0.352650
Si Si2 0.877427 0.789361 0.115223
Si Si3 0.196451 0.211429 0.351610
Si Si4 0.377573 0.715307 0.088707
Si Si5 0.000000 0.202236 0.506127
Si Si6 0.000000 0.704619 0.219652
O O1 0.339751 0.500000 0.352723
O O2 0.356226 0.221278 0.481121
O O3 0.261847 0.264174 0.350726
O O4 0.356460 0.224174 0.224086
O O5 0.837901 0.725172 0.229485
O O6 0.942764 0.749641 0.145470
O O7 0.871713 0.000000 0.113750
O O8 0.164671 0.270572 0.477624
O O9 0.194381 0.000000 0.350383
O O10 0.377444 0.500000 0.087182
O O11 0.440980 0.777218 0.056225
O O12 0.000000 0.205274 0.355443
O O13 0.000000 0.000000 0.546823
O O14 0.000000 0.500000 0.246163
#
# Coordination Sequence:
#
# PCOD9373570 Si02
#       6
#     8   8   8   8   4   4
#     4  10  21  35  54  85 115 144 185 228 268 321
#     4  10  21  38  59  82 112 151 188 223 273 335
#     4  10  19  34  56  80 111 153 187 219 270 326
#     4   9  18  33  57  83 107 139 183 227 269 318
#     4  10  18  37  62  78 104 144 184 226 275 335
#     4  12  24  37  58  86 110 138 186 240 283 323
#
# _framework density 20.824158000000001
#
# number of rings (size 3 to 8) (size 9 to 14) (size 15 to 20)
#    0.000    2.000    2.000    2.100    0.000    2.400 
#    0.000    4.000    0.000    1.200    0.000    0.000 
#    0.000    0.000    0.000    0.000    0.000    0.000 
#
# Total GULP energy -111753.551168 kJ/mol
# GULP energy per Si atom -5587.677558 kJ/mol
# Density = 2.077676 g / cm^3
# Si number density = 20.824158 Si / 1000 Ang^3
#
#
#
# Elastic Constant Matrix: (Units=GPa)
#
#
# Indices 1 2 3 4 5 6 
#
# 1 201.5548 -16.3912 131.3814 0.0000 0.0000 0.0000
# 2 -16.3912 37.6299 4.2450 0.0000 0.0000 0.0000
# 3 131.3814 4.2450 215.6540 0.0000 0.0000 0.0000
# 4 0.0000 0.0000 0.0000 -3.7224 0.0000 0.0000
# 5 0.0000 0.0000 0.0000 0.0000 -55.3827 0.0000
# 6 0.0000 0.0000 0.0000 0.0000 0.0000 243.5589
#
#
#
# Elastic Compliance Matrix: (Units=1/GPa)
#
#
# Indices 1 2 3 4 5 6 
#
# 1 0.008935 0.004516 -0.005532 0.000000 0.000000 0.000000
# 2 0.004516 0.028916 -0.003320 0.000000 0.000000 0.000000
# 3 -0.005532 -0.003320 0.008073 0.000000 0.000000 0.000000
# 4 0.000000 0.000000 0.000000 -0.268647 0.000000 0.000000
# 5 0.000000 0.000000 0.000000 0.000000 -0.018056 0.000000
# 6 0.000000 0.000000 0.000000 0.000000 0.000000 0.004106
#
#
# Mechanical properties :
#
#
# Convention : Reuss Voigt Hill
#
# Bulk Modulus (GPa) = 26.84524 77.03435 51.93979
# Shear Modulus (GPa) = -23.19292 59.26435 18.03571
#
# Velocity S-wave (km/s) = -3.34091 5.34052 2.94614
# Velocity P-wave (km/s) = 1.40102 8.66610 6.04725
#
# Compressibility (1/GPa) = 0.03725055
#
# Stress axis : x y z
#
# Youngs Moduli (GPa) = 111.92227 34.58258 123.87368
#
# Poissons Ratio (x) = -0.15617 0.68529
# Poissons Ratio (y) = -0.50544 0.41132
# Poissons Ratio (z) = 0.61917 0.11483
#
# Static dielectric constant tensor:
#      x y z
#    x 1.694960 0.000000 0.000000 
#    y 0.000000 1.779280 0.000000 
#    z 0.000000 0.000000 1.732890 
# 
# From -- ./inp_files/9613.got.cif
#   From: 2010.05.17/outbox.cif.g08.bks.cpg/sg44_5_cif.got.tgz:9613.got - 2010.06.03 19:37:08.
