data_PCOD9373268
_publ_section_title
;
Structure prediction by ZEFSAII (Michael W. Deem and Ramdas Pophale) SiO2 
 PCOD9373268
Probable space group: I M M 2
;
_chemical_formula_sum "Si O2"
_cell_formula_units_Z 64
_cell_length_a 7.301971
_cell_length_b 28.950406
_cell_length_c 13.275896
_cell_angle_alpha 90.000000
_cell_angle_beta 90.000000
_cell_angle_gamma 90.000000
_cell_volume 2806.458367
_symmetry_space_group_name_H-M "I M M 2"
_symmetry_group_IT_number 44
_symmetry_cell_setting 'orthorhombic'
loop_
_space_group_symop_operation_xyz
x,y,z
-x,-y,z
-x,y,z
x,-y,z
1/2+x,1/2+y,1/2+z
1/2-x,1/2-y,1/2+z
1/2-x,1/2+y,1/2+z
1/2+x,1/2-y,1/2+z
loop_
_atom_site_type_symbol
_atom_site_label
_atom_site_fract_x
_atom_site_fract_y
_atom_site_fract_z
Si Si1 0.276523 0.052806 0.719330
Si Si2 0.276000 0.908577 0.502976
Si Si3 0.788462 0.320033 0.736360
Si Si4 0.722797 0.120360 0.897518
Si Si5 0.722448 0.950269 0.068635
Si Si6 0.719674 0.805375 0.451135
Si Si7 0.283302 0.795897 0.018881
Si Si8 0.710650 0.071119 0.286059
O O1 0.500000 0.052756 0.721158
O O2 0.220771 0.067425 0.606467
O O3 0.215717 0.091644 0.799734
O O4 0.220406 0.000000 0.742488
O O5 0.500000 0.909227 0.500368
O O6 0.218901 0.854511 0.496547
O O7 0.213876 0.932990 0.398916
O O8 0.707469 0.298502 0.837450
O O9 0.706954 0.311414 0.627120
O O10 0.790735 0.374237 0.762022
O O11 0.000000 0.304160 0.730171
O O12 0.500000 0.120089 0.890197
O O13 0.783304 0.172437 0.925457
O O14 0.777998 0.090618 0.995645
O O15 0.500000 0.946843 0.074856
O O16 0.791171 0.948718 0.183283
O O17 0.767057 0.000000 0.023101
O O18 0.500000 0.809835 0.443880
O O19 0.758385 0.758588 0.509185
O O20 0.500000 0.805568 0.021770
O O21 0.500000 0.054841 0.291563
#
# Coordination Sequence:
#
# PCOD9373268 Si02
#       8
#     8   8   8   8   8   8   8   8
#     4   9  16  25  37  56  88 125 151 177 227 289
#     4   8  15  26  39  54  79 115 148 177 217 270
#     4   8  14  27  43  57  81 117 146 175 224 277
#     4   9  16  25  36  54  82 114 144 178 221 268
#     4   9  14  19  31  52  76 101 131 169 211 253
#     4   9  18  31  46  65  90 121 155 191 234 277
#     4  10  18  29  47  67  88 119 159 194 228 273
#     4   8  12  21  35  50  70 102 141 173 205 252
#
# _framework density 22.804542999999999
#
# number of rings (size 3 to 8) (size 9 to 14) (size 15 to 20)
#    0.000    3.250    1.250    1.875    0.000    3.000 
#    0.000    4.375    0.000    0.000    0.000    0.000 
#    0.000    3.500    0.000    0.250    0.000    0.000 
#
# Total GULP energy -178388.607718 kJ/mol
# GULP energy per Si atom -5574.643991 kJ/mol
# Density = 2.275264 g / cm^3
# Si number density = 22.804543 Si / 1000 Ang^3
#
#
#
# Elastic Constant Matrix: (Units=GPa)
#
#
# Indices 1 2 3 4 5 6 
#
# 1 91.8801 -5.6538 3.1837 0.0000 0.0000 0.0000
# 2 -5.6538 52.2733 16.9951 -0.0003 0.0002 0.0001
# 3 3.1837 16.9951 112.8803 -0.0007 0.0004 0.0002
# 4 0.0000 -0.0003 -0.0007 21.6161 -0.0002 -0.0001
# 5 0.0000 0.0002 0.0004 -0.0002 -5.7685 0.0000
# 6 0.0000 0.0001 0.0002 -0.0001 0.0000 -10.2940
#
#
#
# Elastic Compliance Matrix: (Units=1/GPa)
#
#
# Indices 1 2 3 4 5 6 
#
# 1 0.010985 0.001355 -0.000514 0.000000 0.000000 0.000000
# 2 0.001355 0.020282 -0.003092 0.000000 0.000000 0.000000
# 3 -0.000514 -0.003092 0.009339 0.000000 0.000001 0.000000
# 4 0.000000 0.000000 0.000000 0.046262 -0.000001 0.000000
# 5 0.000000 0.000000 0.000001 -0.000001 -0.173356 0.000000
# 6 0.000000 0.000000 0.000000 0.000000 0.000000 -0.097144
#
#
# Mechanical properties :
#
#
# Convention : Reuss Voigt Hill
#
# Bulk Modulus (GPa) = 27.69711 31.78708 29.74209
# Shear Modulus (GPa) = -29.92286 17.27797 -6.32244
#
# Velocity S-wave (km/s) = -3.62628 2.75554 -1.66687
# Velocity P-wave (km/s) = 2.31548 4.90848 3.06037
#
# Compressibility (1/GPa) = 0.03610485
#
# Stress axis : x y z
#
# Youngs Moduli (GPa) = 91.03369 49.30475 107.07856
#
# Poissons Ratio (x) = -0.06682 0.05502
# Poissons Ratio (y) = -0.12337 0.33107
# Poissons Ratio (z) = 0.04678 0.15244
#
# Static dielectric constant tensor:
#      x y z
#    x 1.791590 0.000000 0.000000 
#    y 0.000000 1.889300 0.000000 
#    z 0.000000 0.000000 1.852150 
# 
# From -- ./inp_files/12648.got.cif
#   From: 2010.05.17/outbox.cif.g08.bks.cpg/sg44_7_cif.got.tgz:12648.got - 2010.06.03 19:37:08.
