data_PCOD9373347
_publ_section_title
;
Structure prediction by ZEFSAII (Michael W. Deem and Ramdas Pophale) SiO2 
 PCOD9373347
Probable space group: I M M 2
;
_chemical_formula_sum "Si O2"
_cell_formula_units_Z 64
_cell_length_a 7.764349
_cell_length_b 30.102705
_cell_length_c 12.606546
_cell_angle_alpha 90.000000
_cell_angle_beta 90.000000
_cell_angle_gamma 90.000000
_cell_volume 2946.501617
_symmetry_space_group_name_H-M "I M M 2"
_symmetry_group_IT_number 44
_symmetry_cell_setting 'orthorhombic'
loop_
_space_group_symop_operation_xyz
x,y,z
-x,-y,z
-x,y,z
x,-y,z
1/2+x,1/2+y,1/2+z
1/2-x,1/2-y,1/2+z
1/2-x,1/2+y,1/2+z
1/2+x,1/2-y,1/2+z
loop_
_atom_site_type_symbol
_atom_site_label
_atom_site_fract_x
_atom_site_fract_y
_atom_site_fract_z
Si Si1 0.798278 0.049885 0.258790
Si Si2 0.196970 0.639659 0.208150
Si Si3 0.208431 0.336318 0.433042
Si Si4 0.297154 0.547023 0.287176
Si Si5 0.292990 0.068843 0.021296
Si Si6 0.205765 0.849057 0.310353
Si Si7 0.304009 0.309403 0.028057
Si Si8 0.292910 0.220855 0.124787
O O1 0.782220 0.052057 0.130962
O O2 0.728772 0.099538 0.294047
O O3 0.000000 0.049494 0.287894
O O4 0.728620 0.000000 0.290415
O O5 0.273432 0.663326 0.313257
O O6 0.198781 0.588525 0.241313
O O7 0.301055 0.647621 0.102219
O O8 0.000000 0.653279 0.190001
O O9 0.257909 0.380166 0.498340
O O10 0.256305 0.296319 0.507563
O O11 0.000000 0.337797 0.424051
O O12 0.500000 0.553063 0.268593
O O13 0.241032 0.500000 0.241777
O O14 0.267197 0.546251 0.413448
O O15 0.500000 0.065701 0.028574
O O16 0.275629 0.823922 0.415852
O O17 0.230476 0.814520 0.212429
O O18 0.000000 0.853834 0.323821
O O19 0.500000 0.294904 0.003944
O O20 0.234689 0.271914 0.110835
O O21 0.500000 0.219749 0.137497
#
# Coordination Sequence:
#
# PCOD9373347 Si02
#       8
#     8   8   8   8   8   8   8   8
#     4  10  20  34  53  79 112 151 195 244 298 353
#     4  10  21  37  59  84 115 152 193 240 286 341
#     4   8  16  31  52  79 110 145 179 222 280 334
#     4  10  20  34  54  81 115 154 195 241 292 346
#     4  10  18  30  50  79 116 153 188 232 288 349
#     4  10  22  40  60  84 116 153 197 248 296 354
#     4  10  23  40  59  83 115 154 193 240 297 352
#     4  10  20  37  60  84 113 149 187 234 294 355
#
# _framework density 21.720675
#
# number of rings (size 3 to 8) (size 9 to 14) (size 15 to 20)
#    0.000    2.250    1.250    2.250    1.750    3.750 
#    0.000    1.250    0.000    2.250    0.000    0.000 
#    0.000    0.000    0.000    0.000    0.000    0.000 
#
# Total GULP energy -178193.585655 kJ/mol
# GULP energy per Si atom -5568.549552 kJ/mol
# Density = 2.167124 g / cm^3
# Si number density = 21.720675 Si / 1000 Ang^3
#
#
#
# Elastic Constant Matrix: (Units=GPa)
#
#
# Indices 1 2 3 4 5 6 
#
# 1 39.1127 11.8334 0.7121 0.0000 0.0000 0.0000
# 2 11.8334 112.3440 44.4840 0.0000 0.0000 0.0000
# 3 0.7121 44.4840 92.0896 0.0000 0.0000 0.0000
# 4 0.0000 0.0000 0.0000 -5.7883 0.0000 0.0000
# 5 0.0000 0.0000 0.0000 0.0000 13.0704 0.0000
# 6 0.0000 0.0000 0.0000 0.0000 0.0000 16.5821
#
#
#
# Elastic Compliance Matrix: (Units=1/GPa)
#
#
# Indices 1 2 3 4 5 6 
#
# 1 0.026557 -0.003358 0.001417 0.000000 0.000000 0.000000
# 2 -0.003358 0.011431 -0.005496 0.000000 0.000000 0.000000
# 3 0.001417 -0.005496 0.013503 0.000000 0.000000 0.000000
# 4 0.000000 0.000000 0.000000 -0.172762 0.000000 0.000000
# 5 0.000000 0.000000 0.000000 0.000000 0.076509 0.000000
# 6 0.000000 0.000000 0.000000 0.000000 0.000000 0.060306
#
#
# Mechanical properties :
#
#
# Convention : Reuss Voigt Hill
#
# Bulk Modulus (GPa) = 27.30994 39.73392 33.52193
# Shear Modulus (GPa) = 117.30305 17.20729 67.25517
#
# Velocity S-wave (km/s) = 7.35680 2.81767 5.57054
# Velocity P-wave (km/s) = 9.20673 5.37760 7.53931
#
# Compressibility (1/GPa) = 0.03661670
#
# Stress axis : x y z
#
# Youngs Moduli (GPa) = 37.65430 87.48039 74.05859
#
# Poissons Ratio (x) = 0.29379 -0.10494
# Poissons Ratio (y) = 0.12646 0.40702
# Poissons Ratio (z) = -0.05335 0.48078
#
# Static dielectric constant tensor:
#      x y z
#    x 1.825450 0.000000 0.000000 
#    y 0.000000 1.867400 0.000000 
#    z 0.000000 0.000000 1.765440 
# 
# From -- ./inp_files/11472.got.cif
#   From: 2010.05.17/outbox.cif.g08.bks.cpg/sg44_6_cif.got.tgz:11472.got - 2010.06.03 19:37:08.
