data_PCOD9373659
_publ_section_title
;
Structure prediction by ZEFSAII (Michael W. Deem and Ramdas Pophale) SiO2 
 PCOD9373659
Probable space group: I M M 2
;
_chemical_formula_sum "Si O2"
_cell_formula_units_Z 64
_cell_length_a 26.851143
_cell_length_b 8.713296
_cell_length_c 18.814702
_cell_angle_alpha 90.000000
_cell_angle_beta 90.000000
_cell_angle_gamma 90.000000
_cell_volume 4401.924498
_symmetry_space_group_name_H-M "I M M 2"
_symmetry_group_IT_number 44
_symmetry_cell_setting 'orthorhombic'
loop_
_space_group_symop_operation_xyz
x,y,z
-x,-y,z
-x,y,z
x,-y,z
1/2+x,1/2+y,1/2+z
1/2-x,1/2-y,1/2+z
1/2-x,1/2+y,1/2+z
1/2+x,1/2-y,1/2+z
loop_
_atom_site_type_symbol
_atom_site_label
_atom_site_fract_x
_atom_site_fract_y
_atom_site_fract_z
Si Si1 0.854468 0.317077 0.872730
Si Si2 0.941476 0.816712 0.781173
Si Si3 0.441647 0.183163 0.125908
Si Si4 0.854304 0.184145 0.537186
Si Si5 0.705000 0.683003 0.490949
Si Si6 0.738143 0.318212 0.283314
Si Si7 0.261891 0.182713 0.127156
Si Si8 0.202923 0.182048 0.403057
O O1 0.852563 0.500000 0.877438
O O2 0.905736 0.260683 0.838447
O O3 0.843397 0.242722 0.949854
O O4 0.810056 0.259645 0.820399
O O5 0.928420 0.753350 0.702857
O O6 0.000000 0.783196 0.793165
O O7 0.934580 0.000000 0.782039
O O8 0.500000 0.215999 0.113254
O O9 0.406231 0.255290 0.066807
O O10 0.434899 0.000000 0.128516
O O11 0.810935 0.257407 0.586021
O O12 0.842774 0.224130 0.454787
O O13 0.851227 0.000000 0.543407
O O14 0.710410 0.500000 0.478971
O O15 0.715226 0.711291 0.574026
O O16 0.749506 0.772320 0.451206
O O17 0.731639 0.500000 0.287218
O O18 0.742496 0.263361 0.202678
O O19 0.786117 0.267919 0.329726
O O20 0.266504 0.000000 0.137131
O O21 0.202480 0.000000 0.390500
#
# Coordination Sequence:
#
# PCOD9373659 Si02
#       8
#     8   8   8   8   8   8   8   8
#     4  11  20  30  45  62  85 114 143 176 212 252
#     4  10  20  33  47  62  83 111 144 181 215 248
#     4  10  20  32  45  62  85 112 143 179 215 250
#     4  10  19  30  45  63  84 112 144 177 212 252
#     4   9  17  29  44  61  82 109 141 174 208 248
#     4  11  20  29  43  62  86 114 145 177 208 249
#     4  10  19  30  44  62  86 114 143 176 211 249
#     4   9  17  29  43  60  83 109 139 174 211 249
#
# _framework density 14.539095
#
# number of rings (size 3 to 8) (size 9 to 14) (size 15 to 20)
#    0.000    2.000    0.000    6.750    0.000    4.500 
#    0.000    0.000    0.000    0.000    0.000    0.000 
#    0.000    1.000    0.000    5.500    0.000    4.125 
#
# Total GULP energy -178430.865681 kJ/mol
# GULP energy per Si atom -5575.964553 kJ/mol
# Density = 1.450600 g / cm^3
# Si number density = 14.539095 Si / 1000 Ang^3
#
#
#
# Elastic Constant Matrix: (Units=GPa)
#
#
# Indices 1 2 3 4 5 6 
#
# 1 46.7909 20.4381 25.1518 0.0000 0.0000 0.0000
# 2 20.4381 57.2891 24.5702 0.0000 0.0000 0.0000
# 3 25.1518 24.5702 73.5797 0.0000 0.0000 0.0000
# 4 0.0000 0.0000 0.0000 23.6904 0.0000 0.0000
# 5 0.0000 0.0000 0.0000 0.0000 26.1355 0.0000
# 6 0.0000 0.0000 0.0000 0.0000 0.0000 22.6725
#
#
#
# Elastic Compliance Matrix: (Units=1/GPa)
#
#
# Indices 1 2 3 4 5 6 
#
# 1 0.028377 -0.006960 -0.007376 0.000000 0.000000 0.000000
# 2 -0.006960 0.022080 -0.004994 0.000000 0.000000 0.000000
# 3 -0.007376 -0.004994 0.017780 0.000000 0.000000 0.000000
# 4 0.000000 0.000000 0.000000 0.042211 0.000000 0.000000
# 5 0.000000 0.000000 0.000000 0.000000 0.038262 0.000000
# 6 0.000000 0.000000 0.000000 0.000000 0.000000 0.044106
#
#
# Mechanical properties :
#
#
# Convention : Reuss Voigt Hill
#
# Bulk Modulus (GPa) = 33.81053 35.33109 34.57081
# Shear Modulus (GPa) = 20.71813 21.66634 21.19224
#
# Velocity S-wave (km/s) = 3.77901 3.86451 3.82200
# Velocity P-wave (km/s) = 6.50742 6.65328 6.58076
#
# Compressibility (1/GPa) = 0.02957658
#
# Stress axis : x y z
#
# Youngs Moduli (GPa) = 35.24032 45.28949 56.24427
#
# Poissons Ratio (x) = 0.31522 0.41485
# Poissons Ratio (y) = 0.24528 0.28088
# Poissons Ratio (z) = 0.25993 0.22617
#
# Static dielectric constant tensor:
#      x y z
#    x 1.479820 0.000000 0.000000 
#    y 0.000000 1.483840 0.000000 
#    z 0.000000 0.000000 1.491350 
# 
# From -- ./inp_files/20921.got.cif
#   From: 2010.05.17/outbox.cif.g08.bks.cpg/sg44_11_cif.got.tgz:20921.got - 2010.06.03 19:37:08.
