data_PCOD9373095
_publ_section_title
;
Structure prediction by ZEFSAII (Michael W. Deem and Ramdas Pophale) SiO2 
 PCOD9373095
Probable space group: I M M 2
;
_chemical_formula_sum "Si O2"
_cell_formula_units_Z 48
_cell_length_a 7.438966
_cell_length_b 18.923853
_cell_length_c 15.735724
_cell_angle_alpha 90.000000
_cell_angle_beta 90.000000
_cell_angle_gamma 90.000000
_cell_volume 2215.179222
_symmetry_space_group_name_H-M "I M M 2"
_symmetry_group_IT_number 44
_symmetry_cell_setting 'orthorhombic'
loop_
_space_group_symop_operation_xyz
x,y,z
-x,-y,z
-x,y,z
x,-y,z
1/2+x,1/2+y,1/2+z
1/2-x,1/2-y,1/2+z
1/2-x,1/2+y,1/2+z
1/2+x,1/2-y,1/2+z
loop_
_atom_site_type_symbol
_atom_site_label
_atom_site_fract_x
_atom_site_fract_y
_atom_site_fract_z
Si Si1 0.717505 0.115958 0.635060
Si Si2 0.794206 0.270194 0.686634
Si Si3 0.714769 0.152590 0.023241
Si Si4 0.281482 0.923304 0.446290
Si Si5 0.720241 0.000000 0.960550
Si Si6 0.216773 0.729058 0.878547
Si Si7 0.781072 0.500000 0.266482
O O1 0.500000 0.120843 0.636479
O O2 0.792594 0.193692 0.643587
O O3 0.766359 0.081539 0.545630
O O4 0.776121 0.068232 0.713621
O O5 0.711912 0.319970 0.613845
O O6 0.717486 0.260485 0.781565
O O7 0.000000 0.294148 0.699815
O O8 0.500000 0.147722 0.032764
O O9 0.780113 0.074104 0.000751
O O10 0.739659 0.209627 0.946913
O O11 0.500000 0.922969 0.440889
O O12 0.220827 0.849363 0.406086
O O13 0.221597 0.000000 0.412061
O O14 0.500000 0.000000 0.962031
O O15 0.777756 0.000000 0.862620
O O16 0.000000 0.728527 0.878078
O O17 0.000000 0.500000 0.266058
#
# Coordination Sequence:
#
# PCOD9373095 Si02
#       7
#     8   8   8   8   4   8   4
#     4  10  17  29  52  76  98 129 168 206 249 303
#     4  10  21  34  49  75 107 134 164 209 259 302
#     4  10  20  36  55  75 103 137 172 212 255 302
#     4   9  16  29  50  76 102 129 166 211 251 294
#     4   9  18  32  49  72 102 133 168 211 255 296
#     4  10  20  35  54  77 104 135 171 211 255 304
#     4   9  16  26  47  78 100 119 164 221 253 284
#
# _framework density 21.668676000000001
#
# number of rings (size 3 to 8) (size 9 to 14) (size 15 to 20)
#    0.000    2.333    2.500    1.000    0.000    2.000 
#    1.500    0.833    0.000    4.500    0.000    0.000 
#    0.000    0.000    0.000    0.000    0.000    0.000 
#
# Total GULP energy -133917.835311 kJ/mol
# GULP energy per Si atom -5579.909805 kJ/mol
# Density = 2.161936 g / cm^3
# Si number density = 21.668676 Si / 1000 Ang^3
#
#
#
# Elastic Constant Matrix: (Units=GPa)
#
#
# Indices 1 2 3 4 5 6 
#
# 1 66.9201 -1.6608 3.9305 0.0000 0.0000 0.0000
# 2 -1.6608 157.7053 47.6441 0.0000 0.0000 0.0000
# 3 3.9305 47.6441 99.5431 0.0000 0.0000 0.0000
# 4 0.0000 0.0000 0.0000 10.0540 0.0000 0.0000
# 5 0.0000 0.0000 0.0000 0.0000 8.1365 0.0000
# 6 0.0000 0.0000 0.0000 0.0000 0.0000 8.0660
#
#
#
# Elastic Compliance Matrix: (Units=1/GPa)
#
#
# Indices 1 2 3 4 5 6 
#
# 1 0.014999 0.000394 -0.000781 0.000000 0.000000 0.000000
# 2 0.000394 0.007423 -0.003568 0.000000 0.000000 0.000000
# 3 -0.000781 -0.003568 0.011785 0.000000 0.000000 0.000000
# 4 0.000000 0.000000 0.000000 0.099463 0.000000 0.000000
# 5 0.000000 0.000000 0.000000 0.000000 0.122903 0.000000
# 6 0.000000 0.000000 0.000000 0.000000 0.000000 0.123977
#
#
# Mechanical properties :
#
#
# Convention : Reuss Voigt Hill
#
# Bulk Modulus (GPa) = 38.02875 47.11067 42.56971
# Shear Modulus (GPa) = 12.58731 23.53496 18.06114
#
# Velocity S-wave (km/s) = 2.41280 3.29922 2.89020
# Velocity P-wave (km/s) = 5.03491 6.02509 5.55212
#
# Compressibility (1/GPa) = 0.02629590
#
# Stress axis : x y z
#
# Youngs Moduli (GPa) = 66.67194 134.71360 84.85583
#
# Poissons Ratio (x) = -0.05305 0.06625
# Poissons Ratio (y) = -0.02626 0.30281
# Poissons Ratio (z) = 0.05205 0.48072
#
# Static dielectric constant tensor:
#      x y z
#    x 1.855170 0.000000 0.000000 
#    y 0.000000 1.787160 0.000000 
#    z 0.000000 0.000000 1.774900 
# 
# From -- ./inp_files/16149.got.cif
#   From: 2010.05.17/outbox.cif.g08.bks.cpg/sg44_9_cif.got.tgz:16149.got - 2010.06.03 19:37:08.
