data_PCOD9373096
_publ_section_title
;
Structure prediction by ZEFSAII (Michael W. Deem and Ramdas Pophale) SiO2 
 PCOD9373096
Probable space group: I M M 2
;
_chemical_formula_sum "Si O2"
_cell_formula_units_Z 64
_cell_length_a 7.397240
_cell_length_b 16.107700
_cell_length_c 24.602257
_cell_angle_alpha 90.000000
_cell_angle_beta 90.000000
_cell_angle_gamma 90.000000
_cell_volume 2931.420987
_symmetry_space_group_name_H-M "I M M 2"
_symmetry_group_IT_number 44
_symmetry_cell_setting 'orthorhombic'
loop_
_space_group_symop_operation_xyz
x,y,z
-x,-y,z
-x,y,z
x,-y,z
1/2+x,1/2+y,1/2+z
1/2-x,1/2-y,1/2+z
1/2-x,1/2+y,1/2+z
1/2+x,1/2-y,1/2+z
loop_
_atom_site_type_symbol
_atom_site_label
_atom_site_fract_x
_atom_site_fract_y
_atom_site_fract_z
Si Si1 0.278719 0.749212 0.628390
Si Si2 0.282770 0.408681 0.322239
Si Si3 0.779373 0.407857 0.058657
Si Si4 0.786458 0.909015 0.321399
Si Si5 0.279561 0.592331 0.556642
Si Si6 0.720591 0.344963 0.438963
Si Si7 0.282339 0.846911 0.441082
Si Si8 0.785273 0.754069 0.252022
O O1 0.500000 0.749686 0.627950
O O2 0.221292 0.832438 0.596997
O O3 0.221843 0.667265 0.595473
O O4 0.216220 0.747781 0.690531
O O5 0.500000 0.411701 0.324764
O O6 0.218232 0.500000 0.305068
O O7 0.219081 0.387718 0.383316
O O8 0.239234 0.332884 0.282736
O O9 0.722314 0.500000 0.075685
O O10 0.000000 0.407073 0.058754
O O11 0.721369 0.389613 0.996732
O O12 0.768244 0.891747 0.385508
O O13 0.711991 0.830457 0.288061
O O14 0.000000 0.912203 0.309877
O O15 0.710641 0.000000 0.308133
O O16 0.500000 0.593107 0.556957
O O17 0.222208 0.500000 0.573190
O O18 0.223498 0.611373 0.494709
O O19 0.500000 0.345843 0.438741
O O20 0.777858 0.248858 0.439357
O O21 0.500000 0.845782 0.442942
O O22 0.000000 0.766506 0.247760
#
# Coordination Sequence:
#
# PCOD9373096 Si02
#       8
#     8   8   8   8   8   8   8   8
#     4   9  17  29  43  65  95 126 161 198 238 284
#     4  10  20  34  53  76 102 131 162 201 250 299
#     4   9  16  26  43  69  97 120 147 193 248 290
#     4  10  21  35  49  69 101 137 168 202 247 294
#     4   9  15  24  42  69 100 128 153 191 246 299
#     4   9  15  26  46  73 102 126 152 195 249 298
#     4  10  17  29  52  77  99 124 159 203 248 297
#     4  10  21  35  51  71  99 134 172 209 242 284
#
# _framework density 21.832415999999998
#
# number of rings (size 3 to 8) (size 9 to 14) (size 15 to 20)
#    0.000    2.500    2.500    0.750    0.000    3.500 
#    0.000    3.750    0.000    0.750    0.000    1.750 
#    0.000    2.000    0.000    0.000    0.000    0.000 
#
# Total GULP energy -178780.360241 kJ/mol
# GULP energy per Si atom -5586.886258 kJ/mol
# Density = 2.178272 g / cm^3
# Si number density = 21.832416 Si / 1000 Ang^3
#
#
#
# Elastic Constant Matrix: (Units=GPa)
#
#
# Indices 1 2 3 4 5 6 
#
# 1 73.4662 5.0212 2.0225 0.0000 0.0000 0.0000
# 2 5.0212 237.9886 117.5217 0.0000 0.0000 0.0000
# 3 2.0225 117.5217 184.8176 0.0000 0.0000 0.0000
# 4 0.0000 0.0000 0.0000 -2.7098 0.0000 0.0000
# 5 0.0000 0.0000 0.0000 0.0000 8.4850 0.0000
# 6 0.0000 0.0000 0.0000 0.0000 0.0000 4.0795
#
#
#
# Elastic Compliance Matrix: (Units=1/GPa)
#
#
# Indices 1 2 3 4 5 6 
#
# 1 0.013632 -0.000312 0.000049 0.000000 0.000000 0.000000
# 2 -0.000312 0.006132 -0.003896 0.000000 0.000000 0.000000
# 3 0.000049 -0.003896 0.007888 0.000000 0.000000 0.000000
# 4 0.000000 0.000000 0.000000 -0.369025 0.000000 0.000000
# 5 0.000000 0.000000 0.000000 0.000000 0.117855 0.000000
# 6 0.000000 0.000000 0.000000 0.000000 0.000000 0.245131
#
#
# Mechanical properties :
#
#
# Convention : Reuss Voigt Hill
#
# Bulk Modulus (GPa) = 51.72208 82.82259 67.27233
# Shear Modulus (GPa) = 137.45918 26.75139 82.10529
#
# Velocity S-wave (km/s) = 7.94341 3.50423 6.13911
# Velocity P-wave (km/s) = 10.38616 7.37501 9.00730
#
# Compressibility (1/GPa) = 0.01933410
#
# Stress axis : x y z
#
# Youngs Moduli (GPa) = 73.35863 163.06904 126.78108
#
# Poissons Ratio (x) = 0.05086 -0.00623
# Poissons Ratio (y) = 0.02288 0.49394
# Poissons Ratio (z) = -0.00360 0.63532
#
# Static dielectric constant tensor:
#      x y z
#    x 1.887730 0.000000 0.000000 
#    y 0.000000 1.785570 0.000000 
#    z 0.000000 0.000000 1.742680 
# 
# From -- ./inp_files/25154.got.cif
#   From: 2010.05.17/outbox.cif.g08.bks.cpg/sg44_13_cif.got.tgz:25154.got - 2010.06.03 19:37:08.
