data_PCOD9373965
_publ_section_title
;
Structure prediction by ZEFSAII (Michael W. Deem and Ramdas Pophale) SiO2 
 PCOD9373965
Probable space group: I M M 2
;
_chemical_formula_sum "Si O2"
_cell_formula_units_Z 64
_cell_length_a 15.727652
_cell_length_b 19.378250
_cell_length_c 11.726872
_cell_angle_alpha 90.000000
_cell_angle_beta 90.000000
_cell_angle_gamma 90.000000
_cell_volume 3574.050054
_symmetry_space_group_name_H-M "I M M 2"
_symmetry_group_IT_number 44
_symmetry_cell_setting 'orthorhombic'
loop_
_space_group_symop_operation_xyz
x,y,z
-x,-y,z
-x,y,z
x,-y,z
1/2+x,1/2+y,1/2+z
1/2-x,1/2-y,1/2+z
1/2-x,1/2+y,1/2+z
1/2+x,1/2-y,1/2+z
loop_
_atom_site_type_symbol
_atom_site_label
_atom_site_fract_x
_atom_site_fract_y
_atom_site_fract_z
Si Si1 0.898274 0.418842 0.904390
Si Si2 0.100181 0.074488 0.937153
Si Si3 0.792792 0.675569 0.076498
Si Si4 0.825761 0.713246 0.460575
Si Si5 0.896384 0.922755 0.196743
Si Si6 0.102098 0.312932 0.704169
Si Si7 0.597776 0.726935 0.744811
Si Si8 0.809928 0.171852 0.785034
O O1 0.875782 0.500000 0.900301
O O2 0.882562 0.378967 0.784816
O O3 0.000000 0.413997 0.926215
O O4 0.848090 0.376683 0.001958
O O5 0.115558 0.128936 0.839837
O O6 0.000000 0.069259 0.952645
O O7 0.135415 0.000000 0.902660
O O8 0.131087 0.089287 0.065335
O O9 0.849830 0.729067 0.151840
O O10 0.731922 0.641553 0.171333
O O11 0.731252 0.721679 0.999012
O O12 0.865313 0.680404 0.574058
O O13 0.894278 0.738062 0.368051
O O14 0.760849 0.669326 0.384328
O O15 0.869408 0.851953 0.256994
O O16 0.000000 0.925006 0.203987
O O17 0.867269 0.000000 0.231833
O O18 0.155125 0.248288 0.756311
O O19 0.000000 0.298956 0.704863
O O20 0.500000 0.724713 0.706994
#
# Coordination Sequence:
#
# PCOD9373965 Si02
#       8
#     8   8   8   8   8   8   8   8
#     4  10  21  38  59  81 106 141 188 236 276 322
#     4   9  17  30  48  74 106 139 180 221 256 311
#     4  10  20  34  52  77 108 138 177 226 274 328
#     4  10  20  34  51  78 113 134 174 223 274 320
#     4   8  15  27  45  72 104 135 171 216 255 299
#     4  10  20  35  57  80 105 142 187 229 271 321
#     4  10  19  32  55  78 104 142 182 220 266 320
#     4  10  19  32  54  76 109 144 173 220 272 328
#
# _framework density 17.906855
#
# number of rings (size 3 to 8) (size 9 to 14) (size 15 to 20)
#    0.000    2.375    1.250    2.625    0.000    0.500 
#    0.000    1.250    0.000    1.500    0.000   14.000 
#    0.000    0.000    0.000    0.000    0.000    0.000 
#
# Total GULP energy -178150.988245 kJ/mol
# GULP energy per Si atom -5567.218383 kJ/mol
# Density = 1.786610 g / cm^3
# Si number density = 17.906855 Si / 1000 Ang^3
#
#
#
# Elastic Constant Matrix: (Units=GPa)
#
#
# Indices 1 2 3 4 5 6 
#
# 1 45.0181 14.3500 23.1516 0.0000 0.0000 0.0000
# 2 14.3500 71.4580 46.3951 0.0000 0.0000 0.0000
# 3 23.1516 46.3951 86.8277 0.0000 0.0000 0.0000
# 4 0.0000 0.0000 0.0000 10.0735 0.0000 0.0000
# 5 0.0000 0.0000 0.0000 0.0000 28.7386 0.0000
# 6 0.0000 0.0000 0.0000 0.0000 0.0000 7.6755
#
#
#
# Elastic Compliance Matrix: (Units=1/GPa)
#
#
# Indices 1 2 3 4 5 6 
#
# 1 0.025799 -0.001094 -0.006294 0.000000 0.000000 0.000000
# 2 -0.001094 0.021475 -0.011183 0.000000 0.000000 0.000000
# 3 -0.006294 -0.011183 0.019171 0.000000 0.000000 0.000000
# 4 0.000000 0.000000 0.000000 0.099271 0.000000 0.000000
# 5 0.000000 0.000000 0.000000 0.000000 0.034796 0.000000
# 6 0.000000 0.000000 0.000000 0.000000 0.000000 0.130285
#
#
# Mechanical properties :
#
#
# Convention : Reuss Voigt Hill
#
# Bulk Modulus (GPa) = 34.12785 41.23302 37.68043
# Shear Modulus (GPa) = 13.23780 17.25799 15.24789
#
# Velocity S-wave (km/s) = 2.72188 3.10782 2.92123
# Velocity P-wave (km/s) = 5.38313 5.99620 5.69792
#
# Compressibility (1/GPa) = 0.02930159
#
# Stress axis : x y z
#
# Youngs Moduli (GPa) = 38.76111 46.56666 52.16272
#
# Poissons Ratio (x) = 0.05095 0.32833
# Poissons Ratio (y) = 0.04241 0.58333
# Poissons Ratio (z) = 0.24398 0.52075
#
# Static dielectric constant tensor:
#      x y z
#    x 1.665520 0.000000 0.000000 
#    y 0.000000 1.647590 0.000000 
#    z 0.000000 0.000000 1.611320 
# 
# From -- ./inp_files/13469.got.cif
#   From: 2010.05.17/outbox.cif.g08.bks.cpg/sg44_7_cif.got.tgz:13469.got - 2010.06.03 19:37:08.
