data_PCOD9373930
_publ_section_title
;
Structure prediction by ZEFSAII (Michael W. Deem and Ramdas Pophale) SiO2 
 PCOD9373930
Probable space group: I M M 2
;
_chemical_formula_sum "Si O2"
_cell_formula_units_Z 48
_cell_length_a 7.471413
_cell_length_b 31.935836
_cell_length_c 9.345224
_cell_angle_alpha 90.000000
_cell_angle_beta 90.000000
_cell_angle_gamma 90.000000
_cell_volume 2229.824838
_symmetry_space_group_name_H-M "I M M 2"
_symmetry_group_IT_number 44
_symmetry_cell_setting 'orthorhombic'
loop_
_space_group_symop_operation_xyz
x,y,z
-x,-y,z
-x,y,z
x,-y,z
1/2+x,1/2+y,1/2+z
1/2-x,1/2-y,1/2+z
1/2-x,1/2+y,1/2+z
1/2+x,1/2-y,1/2+z
loop_
_atom_site_type_symbol
_atom_site_label
_atom_site_fract_x
_atom_site_fract_y
_atom_site_fract_z
Si Si1 0.788629 0.206883 0.391900
Si Si2 0.784513 0.710703 0.228432
Si Si3 0.718618 0.952975 0.411240
Si Si4 0.717962 0.046886 0.741589
Si Si5 0.719338 0.129834 0.904937
Si Si6 0.207846 0.623642 0.726179
O O1 0.717699 0.247610 0.308289
O O2 0.758620 0.210621 0.560995
O O3 0.714415 0.164076 0.327008
O O4 0.000000 0.205068 0.366570
O O5 0.720453 0.668842 0.308459
O O6 0.000000 0.710786 0.240334
O O7 0.500000 0.951939 0.411694
O O8 0.772053 0.946249 0.576416
O O9 0.785399 0.916378 0.308516
O O10 0.771352 0.000000 0.368304
O O11 0.500000 0.046787 0.743730
O O12 0.776067 0.085446 0.838748
O O13 0.775039 0.000000 0.785166
O O14 0.500000 0.130825 0.901726
O O15 0.780857 0.133486 0.068874
O O16 0.000000 0.613120 0.701438
#
# Coordination Sequence:
#
# PCOD9373930 Si02
#       6
#     8   8   8   8   8   8
#     4  11  23  37  55  79 104 131 169 213 256 308
#     4  10  21  37  55  74 100 134 170 209 254 305
#     4   8  14  25  44  72 103 136 175 215 254 298
#     4   8  13  22  38  64  99 132 162 204 255 300
#     4   9  17  29  47  72 100 133 171 206 248 303
#     4  10  19  32  52  76 106 141 173 210 257 307
#
# _framework density 21.526353
#
# number of rings (size 3 to 8) (size 9 to 14) (size 15 to 20)
#    0.000    2.667    0.000    3.500    0.000    6.000 
#    0.000    4.167    0.000    0.500    0.000    0.000 
#    0.000    1.333    0.000    0.000    0.000    0.000 
#
# Total GULP energy -134039.202239 kJ/mol
# GULP energy per Si atom -5584.966760 kJ/mol
# Density = 2.147736 g / cm^3
# Si number density = 21.526353 Si / 1000 Ang^3
#
#
#
# Elastic Constant Matrix: (Units=GPa)
#
#
# Indices 1 2 3 4 5 6 
#
# 1 58.2942 -10.5602 -13.5698 0.0000 0.0000 0.0000
# 2 -10.5602 166.1666 100.9404 0.0000 0.0000 0.0000
# 3 -13.5698 100.9404 159.8730 0.0000 -0.0003 0.0000
# 4 0.0000 0.0000 0.0000 40.9857 0.0000 0.0000
# 5 0.0000 0.0000 -0.0003 0.0000 5.2740 0.0000
# 6 0.0000 0.0000 0.0000 0.0000 0.0000 2.8545
#
#
#
# Elastic Compliance Matrix: (Units=1/GPa)
#
#
# Indices 1 2 3 4 5 6 
#
# 1 0.017512 0.000341 0.001271 0.000000 0.000000 0.000000
# 2 0.000341 0.009769 -0.006139 0.000000 0.000000 0.000000
# 3 0.001271 -0.006139 0.010239 0.000000 0.000001 0.000000
# 4 0.000000 0.000000 0.000000 0.024399 0.000000 0.000000
# 5 0.000000 0.000000 0.000001 0.000000 0.189609 0.000003
# 6 0.000000 0.000000 0.000000 0.000000 0.000003 0.350321
#
#
# Mechanical properties :
#
#
# Convention : Reuss Voigt Hill
#
# Bulk Modulus (GPa) = 35.12985 59.77272 47.45129
# Shear Modulus (GPa) = 8.05943 30.32440 19.19191
#
# Velocity S-wave (km/s) = 1.93704 3.75735 2.98913
# Velocity P-wave (km/s) = 4.62144 6.83016 5.83133
#
# Compressibility (1/GPa) = 0.02846582
#
# Stress axis : x y z
#
# Youngs Moduli (GPa) = 57.10362 102.36540 97.66676
#
# Poissons Ratio (x) = -0.03487 -0.12417
# Poissons Ratio (y) = -0.01945 0.59957
# Poissons Ratio (z) = -0.07260 0.62842
#
# Static dielectric constant tensor:
#      x y z
#    x 1.860440 0.000000 0.000000 
#    y 0.000000 1.755660 0.000000 
#    z 0.000000 0.000000 1.734110 
# 
# From -- ./inp_files/4893.got.cif
#   From: 2010.05.17/outbox.cif.g08.bks.cpg/sg44_3_cif.got.tgz:4893.got - 2010.06.03 19:37:08.
