data_PCOD9373898
_publ_section_title
;
Structure prediction by ZEFSAII (Michael W. Deem and Ramdas Pophale) SiO2 
 PCOD9373898
Probable space group: I M M 2
;
_chemical_formula_sum "Si O2"
_cell_formula_units_Z 56
_cell_length_a 28.202511
_cell_length_b 8.081956
_cell_length_c 14.964734
_cell_angle_alpha 90.000000
_cell_angle_beta 90.000000
_cell_angle_gamma 90.000000
_cell_volume 3410.933564
_symmetry_space_group_name_H-M "I M M 2"
_symmetry_group_IT_number 44
_symmetry_cell_setting 'orthorhombic'
loop_
_space_group_symop_operation_xyz
x,y,z
-x,-y,z
-x,y,z
x,-y,z
1/2+x,1/2+y,1/2+z
1/2-x,1/2-y,1/2+z
1/2-x,1/2+y,1/2+z
1/2+x,1/2-y,1/2+z
loop_
_atom_site_type_symbol
_atom_site_label
_atom_site_fract_x
_atom_site_fract_y
_atom_site_fract_z
Si Si1 0.443619 0.000000 0.615738
Si Si2 0.215526 0.811206 0.471904
Si Si3 0.214033 0.199201 0.270603
Si Si4 0.555796 0.000000 0.400584
Si Si5 0.863015 0.315712 0.821923
Si Si6 0.308315 0.302367 0.161977
Si Si7 0.620622 0.305436 0.655769
Si Si8 0.186061 0.182683 0.986884
O O1 0.435429 0.000000 0.507432
O O2 0.419627 0.834442 0.656344
O O3 0.500000 0.000000 0.629504
O O4 0.212914 0.735802 0.372652
O O5 0.191807 0.735935 0.560382
O O6 0.271229 0.808828 0.495850
O O7 0.198295 0.000000 0.463328
O O8 0.259103 0.260872 0.213661
O O9 0.163943 0.233703 0.223020
O O10 0.219199 0.000000 0.273348
O O11 0.583178 0.154558 0.354239
O O12 0.500000 0.000000 0.385380
O O13 0.841504 0.500000 0.835731
O O14 0.851264 0.264554 0.722045
O O15 0.836317 0.196387 0.889393
O O16 0.311169 0.500000 0.157398
O O17 0.606376 0.500000 0.668255
O O18 0.645114 0.292000 0.558540
O O19 0.206438 0.000000 0.002652
#
# Coordination Sequence:
#
# PCOD9373898 Si02
#       8
#     4   8   8   4   8   8   8   8
#     4  11  22  38  60  81 109 139 181 230 275 325
#     4  10  21  32  46  68 106 145 180 210 246 303
#     4  10  20  33  48  69 103 145 181 212 251 311
#     4   9  20  36  56  77  97 137 181 220 273 329
#     4  10  19  32  51  68  98 138 170 213 257 318
#     4  11  21  30  46  75 104 139 179 212 253 311
#     4  10  21  35  54  77 106 147 182 218 266 321
#     4  11  19  28  45  74 106 138 175 214 253 307
#
# _framework density 16.417791999999999
#
# number of rings (size 3 to 8) (size 9 to 14) (size 15 to 20)
#    0.429    1.286    4.286    1.286    2.000    0.857 
#    0.000    0.000    0.000    1.714    0.000    2.000 
#    0.000    3.429    0.000    0.000    0.000    0.000 
#
# Total GULP energy -155913.527663 kJ/mol
# GULP energy per Si atom -5568.340274 kJ/mol
# Density = 1.638042 g / cm^3
# Si number density = 16.417792 Si / 1000 Ang^3
#
#
#
# Elastic Constant Matrix: (Units=GPa)
#
#
# Indices 1 2 3 4 5 6 
#
# 1 69.6590 29.0401 15.7432 0.0000 0.0000 0.0000
# 2 29.0401 55.1991 10.3144 0.0000 0.0000 0.0000
# 3 15.7432 10.3144 77.1836 0.0000 0.0000 0.0000
# 4 0.0000 0.0000 0.0000 18.3245 0.0000 0.0000
# 5 0.0000 0.0000 0.0000 0.0000 20.8912 0.0000
# 6 0.0000 0.0000 0.0000 0.0000 0.0000 14.7572
#
#
#
# Elastic Compliance Matrix: (Units=1/GPa)
#
#
# Indices 1 2 3 4 5 6 
#
# 1 0.018880 -0.009449 -0.002588 0.000000 0.000000 0.000000
# 2 -0.009449 0.023309 -0.001188 0.000000 0.000000 0.000000
# 3 -0.002588 -0.001188 0.013643 0.000000 0.000000 0.000000
# 4 0.000000 0.000000 0.000000 0.054572 0.000000 0.000000
# 5 0.000000 0.000000 0.000000 0.000000 0.047867 0.000000
# 6 0.000000 0.000000 0.000000 0.000000 0.000000 0.067763
#
#
# Mechanical properties :
#
#
# Convention : Reuss Voigt Hill
#
# Bulk Modulus (GPa) = 34.03424 34.69300 34.36362
# Shear Modulus (GPa) = 19.06378 20.59086 19.82732
#
# Velocity S-wave (km/s) = 3.41129 3.54528 3.47893
# Velocity P-wave (km/s) = 6.02419 6.15921 6.09208
#
# Compressibility (1/GPa) = 0.02938218
#
# Stress axis : x y z
#
# Youngs Moduli (GPa) = 52.96671 42.90143 73.29900
#
# Poissons Ratio (x) = 0.40537 0.18971
# Poissons Ratio (y) = 0.50048 0.08705
# Poissons Ratio (z) = 0.13709 0.05095
#
# Static dielectric constant tensor:
#      x y z
#    x 1.523250 0.000000 0.000000 
#    y 0.000000 1.599710 0.000000 
#    z 0.000000 0.000000 1.596060 
# 
# From -- ./inp_files/19672.got.cif
#   From: 2010.05.17/outbox.cif.g08.bks.cpg/sg44_10_cif.got.tgz:19672.got - 2010.06.03 19:37:08.
