data_PCOD9373482
_publ_section_title
;
Structure prediction by ZEFSAII (Michael W. Deem and Ramdas Pophale) SiO2 
 PCOD9373482
Probable space group: I M M 2
;
_chemical_formula_sum "Si O2"
_cell_formula_units_Z 64
_cell_length_a 16.079459
_cell_length_b 19.041763
_cell_length_c 11.428551
_cell_angle_alpha 90.000000
_cell_angle_beta 90.000000
_cell_angle_gamma 90.000000
_cell_volume 3499.208002
_symmetry_space_group_name_H-M "I M M 2"
_symmetry_group_IT_number 44
_symmetry_cell_setting 'orthorhombic'
loop_
_space_group_symop_operation_xyz
x,y,z
-x,-y,z
-x,y,z
x,-y,z
1/2+x,1/2+y,1/2+z
1/2-x,1/2-y,1/2+z
1/2-x,1/2+y,1/2+z
1/2+x,1/2-y,1/2+z
loop_
_atom_site_type_symbol
_atom_site_label
_atom_site_fract_x
_atom_site_fract_y
_atom_site_fract_z
Si Si1 0.903750 0.284537 0.428040
Si Si2 0.701895 0.289289 0.131912
Si Si3 0.098358 0.579379 0.767847
Si Si4 0.333092 0.080658 0.018068
Si Si5 0.097140 0.197458 0.862767
Si Si6 0.634820 0.418976 0.547085
Si Si7 0.169479 0.816485 0.247894
Si Si8 0.303793 0.834969 0.439905
O O1 0.855604 0.242614 0.529942
O O2 0.864187 0.362241 0.425254
O O3 0.890374 0.239537 0.310646
O O4 0.000000 0.290835 0.456671
O O5 0.643980 0.313649 0.238755
O O6 0.763865 0.228587 0.175040
O O7 0.764267 0.343488 0.067486
O O8 0.129407 0.500000 0.773807
O O9 0.134694 0.607123 0.645303
O O10 0.125442 0.616743 0.886043
O O11 0.000000 0.581019 0.756553
O O12 0.233924 0.079220 0.023248
O O13 0.362964 0.000000 0.000605
O O14 0.155332 0.257053 0.924756
O O15 0.000000 0.219893 0.847378
O O16 0.097855 0.128257 0.943144
O O17 0.606029 0.500000 0.553462
O O18 0.626256 0.374688 0.667426
O O19 0.227184 0.847775 0.350499
#
# Coordination Sequence:
#
# PCOD9373482 Si02
#       8
#     8   8   8   8   8   8   8   8
#     4  11  21  33  54  85 118 148 181 231 285 333
#     4  10  19  36  57  78 109 146 194 229 271 338
#     4  10  19  30  50  85 120 147 182 230 281 338
#     4  10  18  32  55  84 116 151 187 225 276 339
#     4  11  22  36  56  85 112 144 190 242 289 330
#     4  11  21  38  61  83 111 149 192 240 285 334
#     4  10  19  35  54  82 113 142 187 233 274 337
#     4  10  18  33  58  79 110 151 184 224 279 340
#
# _framework density 18.289853000000001
#
# number of rings (size 3 to 8) (size 9 to 14) (size 15 to 20)
#    0.000    1.625    3.750    3.375    0.000    1.500 
#    0.000    0.625    0.000    1.500    0.000    0.000 
#    0.000    0.000    0.000    0.000    0.000    0.000 
#
# Total GULP energy -178342.759449 kJ/mol
# GULP energy per Si atom -5573.211233 kJ/mol
# Density = 1.824822 g / cm^3
# Si number density = 18.289853 Si / 1000 Ang^3
#
#
#
# Elastic Constant Matrix: (Units=GPa)
#
#
# Indices 1 2 3 4 5 6 
#
# 1 56.7004 6.8134 24.6511 0.0000 0.0000 0.0000
# 2 6.8134 88.9097 42.7952 0.0000 0.0000 0.0000
# 3 24.6511 42.7952 81.5110 0.0000 0.0000 0.0000
# 4 0.0000 0.0000 0.0000 26.1268 0.0000 0.0000
# 5 0.0000 0.0000 0.0000 0.0000 26.3532 0.0000
# 6 0.0000 0.0000 0.0000 0.0000 0.0000 20.2274
#
#
#
# Elastic Compliance Matrix: (Units=1/GPa)
#
#
# Indices 1 2 3 4 5 6 
#
# 1 0.020542 0.001895 -0.007207 0.000000 0.000000 0.000000
# 2 0.001895 0.015226 -0.008567 0.000000 0.000000 0.000000
# 3 -0.007207 -0.008567 0.018946 0.000000 0.000000 0.000000
# 4 0.000000 0.000000 0.000000 0.038275 0.000000 0.000000
# 5 0.000000 0.000000 0.000000 0.000000 0.037946 0.000000
# 6 0.000000 0.000000 0.000000 0.000000 0.000000 0.049438
#
#
# Mechanical properties :
#
#
# Convention : Reuss Voigt Hill
#
# Bulk Modulus (GPa) = 37.09878 41.73784 39.41831
# Shear Modulus (GPa) = 23.02909 24.73224 23.88066
#
# Velocity S-wave (km/s) = 3.55225 3.68127 3.61734
# Velocity P-wave (km/s) = 6.09529 6.39834 6.24865
#
# Compressibility (1/GPa) = 0.02695506
#
# Stress axis : x y z
#
# Youngs Moduli (GPa) = 48.67992 65.67835 52.78196
#
# Poissons Ratio (x) = -0.12446 0.38042
# Poissons Ratio (y) = -0.09225 0.45218
# Poissons Ratio (z) = 0.35086 0.56266
#
# Static dielectric constant tensor:
#      x y z
#    x 1.648330 0.000000 0.000000 
#    y 0.000000 1.679750 0.000000 
#    z 0.000000 0.000000 1.658680 
# 
# From -- ./inp_files/13474.got.cif
#   From: 2010.05.17/outbox.cif.g08.bks.cpg/sg44_7_cif.got.tgz:13474.got - 2010.06.03 19:37:08.
