data_PCOD9373579
_publ_section_title
;
Structure prediction by ZEFSAII (Michael W. Deem and Ramdas Pophale) SiO2 
 PCOD9373579
Probable space group: I M M 2
;
_chemical_formula_sum "Si O2"
_cell_formula_units_Z 64
_cell_length_a 19.439888
_cell_length_b 7.606496
_cell_length_c 22.097276
_cell_angle_alpha 90.000000
_cell_angle_beta 90.000000
_cell_angle_gamma 90.000000
_cell_volume 3267.511614
_symmetry_space_group_name_H-M "I M M 2"
_symmetry_group_IT_number 44
_symmetry_cell_setting 'orthorhombic'
loop_
_space_group_symop_operation_xyz
x,y,z
-x,-y,z
-x,y,z
x,-y,z
1/2+x,1/2+y,1/2+z
1/2-x,1/2-y,1/2+z
1/2-x,1/2+y,1/2+z
1/2+x,1/2-y,1/2+z
loop_
_atom_site_type_symbol
_atom_site_label
_atom_site_fract_x
_atom_site_fract_y
_atom_site_fract_z
Si Si1 0.720815 0.291496 0.430690
Si Si2 0.075525 0.710220 0.981589
Si Si3 0.423714 0.795224 0.741339
Si Si4 0.424942 0.206226 0.068703
Si Si5 0.423512 0.710015 0.927220
Si Si6 0.313708 0.198048 0.831397
Si Si7 0.274908 0.784102 0.061492
Si Si8 0.368930 0.707191 0.613482
O O1 0.734702 0.500000 0.428881
O O2 0.640048 0.268951 0.441746
O O3 0.749353 0.218322 0.367165
O O4 0.758705 0.225010 0.492143
O O5 0.075022 0.500000 0.980247
O O6 0.000000 0.775386 0.963466
O O7 0.091415 0.765102 0.050548
O O8 0.500000 0.718472 0.751890
O O9 0.358821 0.716555 0.777972
O O10 0.406337 0.789899 0.670510
O O11 0.426651 0.000000 0.760201
O O12 0.500000 0.281159 0.087654
O O13 0.349240 0.276483 0.085674
O O14 0.425881 0.000000 0.084689
O O15 0.422791 0.223822 0.995861
O O16 0.500000 0.742010 0.902703
O O17 0.411460 0.500000 0.927296
O O18 0.368522 0.804126 0.886153
O O19 0.294287 0.000000 0.811607
O O20 0.209148 0.729613 0.101087
O O21 0.275460 0.000000 0.060098
O O22 0.365875 0.500000 0.625457
#
# Coordination Sequence:
#
# PCOD9373579 Si02
#       8
#     8   8   8   8   8   8   8   8
#     4   9  17  30  48  70  95 122 156 198 239 288
#     4  10  20  33  50  73 100 127 156 195 244 296
#     4  10  21  35  50  70  96 127 166 206 239 279
#     4   9  15  25  43  63  86 119 155 189 228 278
#     4  10  19  27  37  60  93 124 155 191 227 268
#     4  10  19  33  50  66  90 126 164 198 235 284
#     4   8  14  27  44  66  91 116 153 197 235 277
#     4  10  20  33  50  69  95 129 165 206 245 284
#
# _framework density 19.586770000000001
#
# number of rings (size 3 to 8) (size 9 to 14) (size 15 to 20)
#    0.000    2.500    1.250    2.625    0.000    5.000 
#    0.000    0.625    0.000    0.000    0.000    0.875 
#    0.000    3.000    0.000    0.000    0.000    0.125 
#
# Total GULP energy -178312.189929 kJ/mol
# GULP energy per Si atom -5572.255935 kJ/mol
# Density = 1.954219 g / cm^3
# Si number density = 19.586770 Si / 1000 Ang^3
#
#
#
# Elastic Constant Matrix: (Units=GPa)
#
#
# Indices 1 2 3 4 5 6 
#
# 1 154.9770 3.3367 35.2787 0.0000 0.0000 0.0000
# 2 3.3367 47.7565 -2.3598 0.0000 0.0000 0.0000
# 3 35.2787 -2.3598 60.1329 0.0000 0.0000 0.0000
# 4 0.0000 0.0000 0.0000 6.7268 0.0000 0.0000
# 5 0.0000 0.0000 0.0000 0.0000 24.0669 0.0000
# 6 0.0000 0.0000 0.0000 0.0000 0.0000 0.0168
#
#
#
# Elastic Compliance Matrix: (Units=1/GPa)
#
#
# Indices 1 2 3 4 5 6 
#
# 1 0.007473 -0.000740 -0.004413 0.000000 0.000000 0.000000
# 2 -0.000740 0.021054 0.001260 0.000000 0.000000 0.000000
# 3 -0.004413 0.001260 0.019269 0.000000 0.000000 0.000000
# 4 0.000000 0.000000 0.000000 0.148660 0.000000 0.000000
# 5 0.000000 0.000000 0.000000 0.000000 0.041551 0.000000
# 6 0.000000 0.000000 0.000000 0.000000 0.000000 59.499404
#
#
# Mechanical properties :
#
#
# Convention : Reuss Voigt Hill
#
# Bulk Modulus (GPa) = 24.99436 37.26416 31.12926
# Shear Modulus (GPa) = 0.08367 21.26947 10.67657
#
# Velocity S-wave (km/s) = 0.20691 3.29889 2.33725
# Velocity P-wave (km/s) = 3.58408 5.79454 4.81780
#
# Compressibility (1/GPa) = 0.04000902
#
# Stress axis : x y z
#
# Youngs Moduli (GPa) = 133.81202 47.49791 51.89801
#
# Poissons Ratio (x) = 0.03516 0.22905
# Poissons Ratio (y) = 0.09905 -0.06542
# Poissons Ratio (z) = 0.59057 -0.05987
#
# Static dielectric constant tensor:
#      x y z
#    x 1.762670 0.000000 0.000000 
#    y 0.000000 1.751120 0.000000 
#    z 0.000000 0.000000 1.684240 
# 
# From -- ./inp_files/24472.got.cif
#   From: 2010.05.17/outbox.cif.g08.bks.cpg/sg44_13_cif.got.tgz:24472.got - 2010.06.03 19:37:08.
