data_PCOD9373996
_publ_section_title
;
Structure prediction by ZEFSAII (Michael W. Deem and Ramdas Pophale) SiO2 
 PCOD9373996
Probable space group: I M M 2
;
_chemical_formula_sum "Si O2"
_cell_formula_units_Z 56
_cell_length_a 7.462259
_cell_length_b 19.729139
_cell_length_c 18.025569
_cell_angle_alpha 90.000000
_cell_angle_beta 90.000000
_cell_angle_gamma 90.000000
_cell_volume 2653.795380
_symmetry_space_group_name_H-M "I M M 2"
_symmetry_group_IT_number 44
_symmetry_cell_setting 'orthorhombic'
loop_
_space_group_symop_operation_xyz
x,y,z
-x,-y,z
-x,y,z
x,-y,z
1/2+x,1/2+y,1/2+z
1/2-x,1/2-y,1/2+z
1/2-x,1/2+y,1/2+z
1/2+x,1/2-y,1/2+z
loop_
_atom_site_type_symbol
_atom_site_label
_atom_site_fract_x
_atom_site_fract_y
_atom_site_fract_z
Si Si1 0.209318 0.575433 0.357360
Si Si2 0.785291 0.425202 0.778528
Si Si3 0.780694 0.285676 0.283797
Si Si4 0.792838 0.073182 0.451722
Si Si5 0.294921 0.311788 0.663730
Si Si6 0.781497 0.218464 0.436015
Si Si7 0.296539 0.358867 0.510982
O O1 0.286225 0.500000 0.346029
O O2 0.281346 0.639622 0.310025
O O3 0.218091 0.596112 0.444427
O O4 0.000000 0.572014 0.337971
O O5 0.747497 0.500000 0.747328
O O6 0.712421 0.424580 0.862059
O O7 0.704737 0.367891 0.727668
O O8 0.000000 0.416801 0.782693
O O9 0.718823 0.254717 0.205304
O O10 0.730522 0.234135 0.350616
O O11 0.000000 0.286463 0.282100
O O12 0.716676 0.147194 0.469462
O O13 0.000000 0.072603 0.475828
O O14 0.712909 0.000000 0.473729
O O15 0.500000 0.295109 0.642309
O O16 0.210943 0.348144 0.591961
O O17 0.710318 0.282608 0.479759
O O18 0.000000 0.219030 0.438719
O O19 0.500000 0.383538 0.520159
#
# Coordination Sequence:
#
# PCOD9373996 Si02
#       7
#     8   8   8   8   8   8   8
#     4   9  18  34  55  75  95 123 162 209 255 298
#     4  10  20  30  42  67 100 127 153 190 233 276
#     4   8  14  28  50  71  88 115 159 203 238 277
#     4   9  16  28  48  70  91 121 159 193 229 277
#     4  10  19  33  49  67  95 131 167 201 237 287
#     4   9  16  30  50  69  92 123 161 202 238 280
#     4  10  21  32  47  71  99 130 161 198 247 296
#
# _framework density 21.101853999999999
#
# number of rings (size 3 to 8) (size 9 to 14) (size 15 to 20)
#    0.000    2.714    1.429    1.714    0.000    3.429 
#    0.000    2.857    0.000    0.857    0.000    2.000 
#    0.000    0.000    0.000    0.000    0.000    0.000 
#
# Total GULP energy -155920.419004 kJ/mol
# GULP energy per Si atom -5568.586393 kJ/mol
# Density = 2.105383 g / cm^3
# Si number density = 21.101854 Si / 1000 Ang^3
#
#
#
# Elastic Constant Matrix: (Units=GPa)
#
#
# Indices 1 2 3 4 5 6 
#
# 1 66.2571 1.6768 -3.9303 0.0000 0.0000 0.0000
# 2 1.6768 123.7625 -9.4875 0.0000 0.0000 0.0000
# 3 -3.9303 -9.4875 28.8220 0.0000 0.0000 0.0000
# 4 0.0000 0.0000 0.0000 10.1579 0.0000 0.0000
# 5 0.0000 0.0000 0.0000 0.0000 7.4024 0.0000
# 6 0.0000 0.0000 0.0000 0.0000 0.0000 7.0189
#
#
#
# Elastic Compliance Matrix: (Units=1/GPa)
#
#
# Indices 1 2 3 4 5 6 
#
# 1 0.015216 -0.000048 0.002059 0.000000 0.000000 0.000000
# 2 -0.000048 0.008289 0.002722 0.000000 0.000000 0.000000
# 3 0.002059 0.002722 0.035872 0.000000 0.000000 0.000000
# 4 0.000000 0.000000 0.000000 0.098445 0.000000 0.000000
# 5 0.000000 0.000000 0.000000 0.000000 0.135091 0.000000
# 6 0.000000 0.000000 0.000000 0.000000 0.000000 0.142473
#
#
# Mechanical properties :
#
#
# Convention : Reuss Voigt Hill
#
# Bulk Modulus (GPa) = 14.52571 21.70661 18.11616
# Shear Modulus (GPa) = 11.13908 20.28802 15.71355
#
# Velocity S-wave (km/s) = 2.30004 3.10406 2.73179
# Velocity P-wave (km/s) = 3.73526 4.81205 4.30743
#
# Compressibility (1/GPa) = 0.06884346
#
# Stress axis : x y z
#
# Youngs Moduli (GPa) = 65.71995 120.63719 27.87652
#
# Poissons Ratio (x) = 0.00583 -0.05740
# Poissons Ratio (y) = 0.00317 -0.07588
# Poissons Ratio (z) = -0.13532 -0.32838
#
# Static dielectric constant tensor:
#      x y z
#    x 1.797540 0.000000 0.000000 
#    y 0.000000 1.816330 0.000000 
#    z 0.000000 0.000000 1.762260 
# 
# From -- ./inp_files/19189.got.cif
#   From: 2010.05.17/outbox.cif.g08.bks.cpg/sg44_10_cif.got.tgz:19189.got - 2010.06.03 19:37:08.
