data_PCOD9373594
_publ_section_title
;
Structure prediction by ZEFSAII (Michael W. Deem and Ramdas Pophale) SiO2 
 PCOD9373594
Probable space group: I M M 2
;
_chemical_formula_sum "Si O2"
_cell_formula_units_Z 56
_cell_length_a 14.034050
_cell_length_b 9.122183
_cell_length_c 30.117446
_cell_angle_alpha 90.000000
_cell_angle_beta 90.000000
_cell_angle_gamma 90.000000
_cell_volume 3855.670745
_symmetry_space_group_name_H-M "I M M 2"
_symmetry_group_IT_number 44
_symmetry_cell_setting 'orthorhombic'
loop_
_space_group_symop_operation_xyz
x,y,z
-x,-y,z
-x,y,z
x,-y,z
1/2+x,1/2+y,1/2+z
1/2-x,1/2-y,1/2+z
1/2-x,1/2+y,1/2+z
1/2+x,1/2-y,1/2+z
loop_
_atom_site_type_symbol
_atom_site_label
_atom_site_fract_x
_atom_site_fract_y
_atom_site_fract_z
Si Si1 0.384300 0.669317 0.125000
Si Si2 0.888427 0.323999 0.535103
Si Si3 0.202972 0.323741 0.443237
Si Si4 0.387455 0.322952 0.223951
Si Si5 0.703026 0.175505 0.308589
Si Si6 0.607655 0.324182 0.859402
Si Si7 0.608341 0.324640 0.392672
O O1 0.500000 0.672504 0.125690
O O2 0.355485 0.500000 0.120199
O O3 0.354156 0.758688 0.081822
O O4 0.355952 0.721919 0.174163
O O5 0.884470 0.500000 0.537644
O O6 0.828896 0.275624 0.492140
O O7 0.000000 0.282926 0.528744
O O8 0.191454 0.500000 0.441123
O O9 0.137686 0.251804 0.405381
O O10 0.311743 0.289307 0.429462
O O11 0.500000 0.287432 0.229367
O O12 0.379797 0.500000 0.226553
O O13 0.328319 0.247267 0.262603
O O14 0.811124 0.212924 0.323458
O O15 0.637410 0.240242 0.347961
O O16 0.693598 0.000000 0.306692
O O17 0.500000 0.283327 0.846896
O O18 0.611246 0.500000 0.865556
O O19 0.500000 0.290516 0.405586
O O20 0.614253 0.500000 0.384107
#
# Coordination Sequence:
#
# PCOD9373594 Si02
#       7
#     8   8   8   8   8   8   8
#     4   8  15  27  41  57  78 105 134 160 190 235
#     4   9  16  25  38  58  83 106 128 161 203 238
#     4   9  17  28  42  61  83 107 137 169 199 234
#     4   9  17  29  43  59  82 110 136 163 197 238
#     4  10  19  28  41  62  83 105 135 168 202 238
#     4   9  18  31  43  57  81 110 137 166 199 236
#     4   9  17  29  43  58  80 111 141 167 197 234
#
# _framework density 14.524061
#
# number of rings (size 3 to 8) (size 9 to 14) (size 15 to 20)
#    0.000    3.000    0.000    2.143    0.000    4.857 
#    0.000    2.857    0.000    0.000    0.000    1.000 
#    0.000    5.714    0.000    0.000    0.000    0.000 
#
# Total GULP energy -155908.589298 kJ/mol
# GULP energy per Si atom -5568.163903 kJ/mol
# Density = 1.449100 g / cm^3
# Si number density = 14.524061 Si / 1000 Ang^3
#
#
#
# Elastic Constant Matrix: (Units=GPa)
#
#
# Indices 1 2 3 4 5 6 
#
# 1 86.9212 28.3030 63.6988 0.0000 0.0000 0.0000
# 2 28.3030 17.0179 42.4464 0.0000 0.0000 0.0000
# 3 63.6988 42.4464 155.6647 0.0000 0.0000 0.0000
# 4 0.0000 0.0000 0.0000 26.4042 0.0000 0.0000
# 5 0.0000 0.0000 0.0000 0.0000 21.0354 0.0000
# 6 0.0000 0.0000 0.0000 0.0000 0.0000 15.9946
#
#
#
# Elastic Compliance Matrix: (Units=1/GPa)
#
#
# Indices 1 2 3 4 5 6 
#
# 1 0.025710 -0.051639 0.003560 0.000000 0.000000 0.000000
# 2 -0.051639 0.287415 -0.057241 0.000000 0.000000 0.000000
# 3 0.003560 -0.057241 0.020576 0.000000 0.000000 0.000000
# 4 0.000000 0.000000 0.000000 0.037873 0.000000 0.000000
# 5 0.000000 0.000000 0.000000 0.000000 0.047539 0.000000
# 6 0.000000 0.000000 0.000000 0.000000 0.000000 0.062521
#
#
# Mechanical properties :
#
#
# Convention : Reuss Voigt Hill
#
# Bulk Modulus (GPa) = 8.12604 58.72226 33.42415
# Shear Modulus (GPa) = 6.81855 21.03057 13.92456
#
# Velocity S-wave (km/s) = 2.16907 3.80936 3.09969
# Velocity P-wave (km/s) = 3.44676 7.73738 5.98946
#
# Compressibility (1/GPa) = 0.12306111
#
# Stress axis : x y z
#
# Youngs Moduli (GPa) = 38.89496 3.47929 48.60122
#
# Poissons Ratio (x) = 0.17967 -0.17303
# Poissons Ratio (y) = 2.00850 2.78198
# Poissons Ratio (z) = -0.13847 0.19916
#
# Static dielectric constant tensor:
#      x y z
#    x 1.478220 0.000000 0.000000 
#    y 0.000000 1.485010 0.000000 
#    z 0.000000 0.000000 1.470850 
# 
# From -- ./inp_files/27211.got.cif
#   From: 2010.05.17/outbox.cif.g08.bks.cpg/sg44_14_cif.got.tgz:27211.got - 2010.06.03 19:37:08.
