data_PCOD9373183
_publ_section_title
;
Structure prediction by ZEFSAII (Michael W. Deem and Ramdas Pophale) SiO2 
 PCOD9373183
Probable space group: I M M 2
;
_chemical_formula_sum "Si O2"
_cell_formula_units_Z 46
_cell_length_a 9.985745
_cell_length_b 8.367171
_cell_length_c 28.366955
_cell_angle_alpha 90.000000
_cell_angle_beta 90.000000
_cell_angle_gamma 90.000000
_cell_volume 2370.128192
_symmetry_space_group_name_H-M "I M M 2"
_symmetry_group_IT_number 44
_symmetry_cell_setting 'orthorhombic'
loop_
_space_group_symop_operation_xyz
x,y,z
-x,-y,z
-x,y,z
x,-y,z
1/2+x,1/2+y,1/2+z
1/2-x,1/2-y,1/2+z
1/2-x,1/2+y,1/2+z
1/2+x,1/2-y,1/2+z
loop_
_atom_site_type_symbol
_atom_site_label
_atom_site_fract_x
_atom_site_fract_y
_atom_site_fract_z
Si Si1 0.663213 0.185000 0.683210
Si Si2 0.000000 0.166997 0.508417
Si Si3 0.765752 0.000000 0.945223
Si Si4 0.838575 0.818407 0.082878
Si Si5 0.162862 0.178926 0.282998
Si Si6 0.000000 0.500000 0.511286
Si Si7 0.662541 0.000000 0.839408
Si Si8 0.208098 0.674377 0.983090
O O1 0.500000 0.187260 0.682320
O O2 0.709500 0.254881 0.633246
O O3 0.703105 0.286596 0.728833
O O4 0.702860 0.000000 0.688612
O O5 0.000000 0.331001 0.537513
O O6 0.868499 0.168034 0.476146
O O7 0.000000 0.000000 0.535748
O O8 0.721409 0.000000 0.891543
O O9 0.631660 0.000000 0.978107
O O10 0.840620 0.835401 0.958258
O O11 0.805606 0.705194 0.039062
O O12 0.000000 0.823729 0.085041
O O13 0.791658 0.000000 0.073746
O O14 0.203290 0.335401 0.312965
O O15 0.000000 0.177777 0.284262
O O16 0.206896 0.000000 0.297914
O O17 0.500000 0.000000 0.841364
O O18 0.153447 0.500000 0.970495
#
# Coordination Sequence:
#
# PCOD9373183 Si02
#       8
#     8   4   4   8   8   2   4   8
#     4   9  15  25  41  61  86 119 152 185 226 278
#     4   8  16  28  44  62  82 114 154 190 224 268
#     4  10  18  30  43  60  85 118 158 195 231 265
#     4  10  19  30  45  68  95 124 160 194 233 281
#     4   9  16  26  39  58  85 115 148 189 229 270
#     4   8  14  26  42  56  74 110 150 186 224 256
#     4  10  18  28  42  61  85 118 160 194 228 274
#     4  10  19  32  47  65  90 123 160 197 234 274
#
# _framework density 19.408232999999999
#
# number of rings (size 3 to 8) (size 9 to 14) (size 15 to 20)
#    0.000    2.609    2.174    1.043    0.000    3.826 
#    0.000    0.000    0.000    0.000    0.000    0.000 
#    0.000    0.000    5.913    0.000    8.696    0.174 
#
# Total GULP energy -128057.307052 kJ/mol
# GULP energy per Si atom -5567.709002 kJ/mol
# Density = 1.936406 g / cm^3
# Si number density = 19.408233 Si / 1000 Ang^3
#
#
#
# Elastic Constant Matrix: (Units=GPa)
#
#
# Indices 1 2 3 4 5 6 
#
# 1 31.7478 7.1603 1.4074 0.0000 0.0000 0.0000
# 2 7.1603 225.9368 59.1878 0.0000 0.0000 0.0000
# 3 1.4074 59.1878 103.5242 0.0000 0.0000 0.0000
# 4 0.0000 0.0000 0.0000 22.1539 0.0000 0.0000
# 5 0.0000 0.0000 0.0000 0.0000 10.7994 0.0000
# 6 0.0000 0.0000 0.0000 0.0000 0.0000 2.3654
#
#
#
# Elastic Compliance Matrix: (Units=1/GPa)
#
#
# Indices 1 2 3 4 5 6 
#
# 1 0.031728 -0.001050 0.000169 0.000000 0.000000 0.000000
# 2 -0.001050 0.005240 -0.002982 0.000000 0.000000 0.000000
# 3 0.000169 -0.002982 0.011362 0.000000 0.000000 0.000000
# 4 0.000000 0.000000 0.000000 0.045139 0.000000 0.000000
# 5 0.000000 0.000000 0.000000 0.000000 0.092597 0.000000
# 6 0.000000 0.000000 0.000000 0.000000 0.000000 0.422760
#
#
# Mechanical properties :
#
#
# Convention : Reuss Voigt Hill
#
# Bulk Modulus (GPa) = 24.62778 55.19109 39.90944
# Shear Modulus (GPa) = 7.93541 26.62730 17.28135
#
# Velocity S-wave (km/s) = 2.02424 3.70801 2.98722
# Velocity P-wave (km/s) = 4.26384 6.84333 5.70138
#
# Compressibility (1/GPa) = 0.04060455
#
# Stress axis : x y z
#
# Youngs Moduli (GPa) = 31.51838 190.82426 88.01201
#
# Poissons Ratio (x) = 0.20031 -0.01486
# Poissons Ratio (y) = 0.03309 0.26244
# Poissons Ratio (z) = -0.00532 0.56901
#
# Static dielectric constant tensor:
#      x y z
#    x 1.711510 0.000000 0.000000 
#    y 0.000000 1.773490 0.000000 
#    z 0.000000 0.000000 1.650510 
# 
# From -- ./inp_files/24894.got.cif
#   From: 2010.05.17/outbox.cif.g08.bks.cpg/sg44_13_cif.got.tgz:24894.got - 2010.06.03 19:37:08.
