data_PCOD9373033
_publ_section_title
;
Structure prediction by ZEFSAII (Michael W. Deem and Ramdas Pophale) SiO2 
 PCOD9373033
Probable space group: I M M 2
;
_chemical_formula_sum "Si O2"
_cell_formula_units_Z 64
_cell_length_a 14.628089
_cell_length_b 14.316311
_cell_length_c 14.635836
_cell_angle_alpha 90.000000
_cell_angle_beta 90.000000
_cell_angle_gamma 90.000000
_cell_volume 3065.040748
_symmetry_space_group_name_H-M "I M M 2"
_symmetry_group_IT_number 44
_symmetry_cell_setting 'orthorhombic'
loop_
_space_group_symop_operation_xyz
x,y,z
-x,-y,z
-x,y,z
x,-y,z
1/2+x,1/2+y,1/2+z
1/2-x,1/2-y,1/2+z
1/2-x,1/2+y,1/2+z
1/2+x,1/2-y,1/2+z
loop_
_atom_site_type_symbol
_atom_site_label
_atom_site_fract_x
_atom_site_fract_y
_atom_site_fract_z
Si Si1 0.603118 0.392645 0.671380
Si Si2 0.602725 0.106492 0.743591
Si Si3 0.105209 0.894291 0.672612
Si Si4 0.396248 0.394028 0.394266
Si Si5 0.249836 0.750216 0.209290
Si Si6 0.598214 0.892691 0.523563
Si Si7 0.769717 0.274385 0.905345
Si Si8 0.603756 0.604836 0.892957
O O1 0.500000 0.363713 0.642111
O O2 0.618599 0.500000 0.642063
O O3 0.684550 0.319637 0.652432
O O4 0.601179 0.394286 0.782229
O O5 0.500000 0.133534 0.773246
O O6 0.682126 0.178526 0.763864
O O7 0.603170 0.107464 0.633220
O O8 0.620778 0.000000 0.773327
O O9 0.104250 0.895898 0.783483
O O10 0.178171 0.812482 0.653450
O O11 0.000000 0.877728 0.643725
O O12 0.132586 0.000000 0.643140
O O13 0.500000 0.365031 0.420765
O O14 0.382981 0.500000 0.425857
O O15 0.314131 0.326785 0.422609
O O16 0.294036 0.799567 0.298353
O O17 0.500000 0.851969 0.497673
O O18 0.676212 0.839030 0.474403
O O19 0.600824 0.000000 0.495456
O O20 0.666199 0.308478 0.920462
O O21 0.500000 0.613518 0.925548
O O22 0.637422 0.500000 0.919023
#
# Coordination Sequence:
#
# PCOD9373033 Si02
#       8
#     8   8   8   8   8   8   8   8
#     4   8  14  24  37  56  84 114 143 182 236 289
#     4   9  18  32  49  71 101 133 161 195 248 312
#     4   8  14  24  37  56  84 114 143 182 236 289
#     4   8  14  24  37  56  84 114 143 182 236 289
#     4  10  17  25  44  68  89 118 162 209 244 281
#     4   9  18  32  49  71 101 133 161 195 248 312
#     4  10  17  25  44  68  89 118 162 209 244 281
#     4   8  14  24  37  56  84 114 143 182 236 289
#
# _framework density 20.880635999999999
#
# number of rings (size 3 to 8) (size 9 to 14) (size 15 to 20)
#    0.000    3.250    0.000    3.750    0.000    2.000 
#    0.000    0.000    0.000    2.250    0.000    7.000 
#    0.000    0.000    0.000    5.000    0.000    0.500 
#
# Total GULP energy -178346.698563 kJ/mol
# GULP energy per Si atom -5573.334330 kJ/mol
# Density = 2.083311 g / cm^3
# Si number density = 20.880636 Si / 1000 Ang^3
#
#
#
# Elastic Constant Matrix: (Units=GPa)
#
#
# Indices 1 2 3 4 5 6 
#
# 1 120.9065 84.5526 8.2245 0.0000 0.0000 0.0000
# 2 84.5526 118.2766 6.5690 0.0000 0.0000 0.0000
# 3 8.2245 6.5690 49.7775 0.0000 0.0000 0.0000
# 4 0.0000 0.0000 0.0000 1.9776 0.0000 0.0000
# 5 0.0000 0.0000 0.0000 0.0000 1.0423 0.0000
# 6 0.0000 0.0000 0.0000 0.0000 0.0000 45.5277
#
#
#
# Elastic Compliance Matrix: (Units=1/GPa)
#
#
# Indices 1 2 3 4 5 6 
#
# 1 0.016608 -0.011807 -0.001186 0.000000 0.000000 0.000000
# 2 -0.011807 0.016911 -0.000281 0.000000 0.000000 0.000000
# 3 -0.001186 -0.000281 0.020322 0.000000 0.000000 0.000000
# 4 0.000000 0.000000 0.000000 0.505662 0.000000 0.000000
# 5 0.000000 0.000000 0.000000 0.000000 0.959436 0.000000
# 6 0.000000 0.000000 0.000000 0.000000 0.000000 0.021965
#
#
# Mechanical properties :
#
#
# Convention : Reuss Voigt Hill
#
# Bulk Modulus (GPa) = 36.63812 54.18364 45.41088
# Shear Modulus (GPa) = 3.17148 22.35049 12.76098
#
# Velocity S-wave (km/s) = 1.23376 3.27524 2.47481
# Velocity P-wave (km/s) = 4.42878 6.34889 5.47369
#
# Compressibility (1/GPa) = 0.02729397
#
# Stress axis : x y z
#
# Youngs Moduli (GPa) = 60.21026 59.13348 49.20670
#
# Poissons Ratio (x) = 0.69819 0.05836
# Poissons Ratio (y) = 0.71091 0.01382
# Poissons Ratio (z) = 0.07141 0.01661
#
# Static dielectric constant tensor:
#      x y z
#    x 1.802140 0.000000 0.000000 
#    y 0.000000 1.783800 0.000000 
#    z 0.000000 0.000000 1.760460 
# 
# From -- ./inp_files/18598.got.cif
#   From: 2010.05.17/outbox.cif.g08.bks.cpg/sg44_10_cif.got.tgz:18598.got - 2010.06.03 19:37:08.
