data_PCOD9373714
_publ_section_title
;
Structure prediction by ZEFSAII (Michael W. Deem and Ramdas Pophale) SiO2 
 PCOD9373714
Probable space group: I M M 2
;
_chemical_formula_sum "Si O2"
_cell_formula_units_Z 64
_cell_length_a 14.946076
_cell_length_b 7.833984
_cell_length_c 24.899565
_cell_angle_alpha 90.000000
_cell_angle_beta 90.000000
_cell_angle_gamma 90.000000
_cell_volume 2915.423341
_symmetry_space_group_name_H-M "I M M 2"
_symmetry_group_IT_number 44
_symmetry_cell_setting 'orthorhombic'
loop_
_space_group_symop_operation_xyz
x,y,z
-x,-y,z
-x,y,z
x,-y,z
1/2+x,1/2+y,1/2+z
1/2-x,1/2-y,1/2+z
1/2-x,1/2+y,1/2+z
1/2+x,1/2-y,1/2+z
loop_
_atom_site_type_symbol
_atom_site_label
_atom_site_fract_x
_atom_site_fract_y
_atom_site_fract_z
Si Si1 0.254500 0.806734 0.490480
Si Si2 0.303122 0.701688 0.303597
Si Si3 0.901456 0.304264 0.301188
Si Si4 0.099921 0.795080 0.565619
Si Si5 0.838061 0.693454 0.684396
Si Si6 0.904019 0.205535 0.065729
Si Si7 0.125195 0.803729 0.184867
Si Si8 0.399089 0.798913 0.408728
O O1 0.168605 0.726602 0.520278
O O2 0.325875 0.807572 0.538544
O O3 0.316211 0.724111 0.443887
O O4 0.230785 0.000000 0.472945
O O5 0.297562 0.500000 0.312885
O O6 0.199537 0.770186 0.310975
O O7 0.344090 0.725459 0.243771
O O8 0.367819 0.781871 0.347499
O O9 0.900350 0.500000 0.320518
O O10 0.901569 0.301976 0.236384
O O11 0.000000 0.230590 0.317975
O O12 0.123836 0.763803 0.628354
O O13 0.000000 0.731023 0.556104
O O14 0.101670 0.000000 0.559472
O O15 0.870896 0.500000 0.689066
O O16 0.731369 0.695985 0.677349
O O17 0.909591 0.252400 0.127782
O O18 0.000000 0.238731 0.039568
O O19 0.886866 0.000000 0.063297
O O20 0.098453 0.000000 0.195220
O O21 0.500000 0.728144 0.415585
O O22 0.403087 0.000000 0.422983
#
# Coordination Sequence:
#
# PCOD9373714 Si02
#       8
#     8   8   8   8   8   8   8   8
#     4  10  21  38  59  80 109 146 186 233 282 336
#     4  10  21  37  59  86 116 151 193 240 287 338
#     4   9  18  32  50  75 109 147 184 223 270 326
#     4  10  21  37  58  85 117 152 189 232 283 341
#     4  10  19  34  57  83 115 154 192 232 280 334
#     4  10  19  30  47  75 110 144 179 223 274 327
#     4   9  17  29  46  72 108 146 181 220 266 321
#     4  10  22  41  62  84 112 146 188 239 292 345
#
# _framework density 21.952216
#
# number of rings (size 3 to 8) (size 9 to 14) (size 15 to 20)
#    0.000    2.250    1.250    1.500    0.000    4.500 
#    0.000    0.625    0.000    0.750    0.000    0.000 
#    0.000    0.000    0.000    0.000    0.000    0.000 
#
# Total GULP energy -178205.068390 kJ/mol
# GULP energy per Si atom -5568.908387 kJ/mol
# Density = 2.190225 g / cm^3
# Si number density = 21.952216 Si / 1000 Ang^3
#
#
#
# Elastic Constant Matrix: (Units=GPa)
#
#
# Indices 1 2 3 4 5 6 
#
# 1 139.9663 7.6275 56.3844 0.0000 0.0000 0.0000
# 2 7.6275 30.5744 -2.0826 0.0000 0.0000 0.0000
# 3 56.3844 -2.0826 93.6604 0.0000 0.0000 0.0000
# 4 0.0000 0.0000 0.0000 16.9989 0.0000 0.0000
# 5 0.0000 0.0000 0.0000 0.0000 10.7812 0.0000
# 6 0.0000 0.0000 0.0000 0.0000 0.0000 -375.3773
#
#
#
# Elastic Compliance Matrix: (Units=1/GPa)
#
#
# Indices 1 2 3 4 5 6 
#
# 1 0.009668 -0.002812 -0.005882 0.000000 0.000000 0.000000
# 2 -0.002812 0.033575 0.002440 0.000000 0.000000 0.000000
# 3 -0.005882 0.002440 0.014272 0.000000 0.000000 0.000000
# 4 0.000000 0.000000 0.000000 0.058827 0.000000 0.000000
# 5 0.000000 0.000000 0.000000 0.000000 0.092754 0.000000
# 6 0.000000 0.000000 0.000000 0.000000 0.000000 -0.002664
#
#
# Mechanical properties :
#
#
# Convention : Reuss Voigt Hill
#
# Bulk Modulus (GPa) = 22.22008 43.11774 32.66891
# Shear Modulus (GPa) = 21.37255 -56.03467 -17.33106
#
# Velocity S-wave (km/s) = 3.12363 -5.05778 -2.81284
# Velocity P-wave (km/s) = 4.81180 3.79789 2.08920
#
# Compressibility (1/GPa) = 0.04500434
#
# Stress axis : x y z
#
# Youngs Moduli (GPa) = 103.43867 29.78413 70.06515
#
# Poissons Ratio (x) = 0.08377 0.41216
# Poissons Ratio (y) = 0.29092 -0.17094
# Poissons Ratio (z) = 0.60848 -0.07266
#
# Static dielectric constant tensor:
#      x y z
#    x 1.870070 0.000000 0.000000 
#    y 0.000000 1.836370 0.000000 
#    z 0.000000 0.000000 1.809490 
# 
# From -- ./inp_files/25776.got.cif
#   From: 2010.05.17/outbox.cif.g08.bks.cpg/sg44_13_cif.got.tgz:25776.got - 2010.06.03 19:37:08.
