data_PCOD9373755
_publ_section_title
;
Structure prediction by ZEFSAII (Michael W. Deem and Ramdas Pophale) SiO2 
 PCOD9373755
Probable space group: I M M 2
;
_chemical_formula_sum "Si O2"
_cell_formula_units_Z 64
_cell_length_a 8.824809
_cell_length_b 23.835069
_cell_length_c 19.597916
_cell_angle_alpha 90.000000
_cell_angle_beta 90.000000
_cell_angle_gamma 90.000000
_cell_volume 4122.224308
_symmetry_space_group_name_H-M "I M M 2"
_symmetry_group_IT_number 44
_symmetry_cell_setting 'orthorhombic'
loop_
_space_group_symop_operation_xyz
x,y,z
-x,-y,z
-x,y,z
x,-y,z
1/2+x,1/2+y,1/2+z
1/2-x,1/2-y,1/2+z
1/2-x,1/2+y,1/2+z
1/2+x,1/2-y,1/2+z
loop_
_atom_site_type_symbol
_atom_site_label
_atom_site_fract_x
_atom_site_fract_y
_atom_site_fract_z
Si Si1 0.818807 0.839312 0.438420
Si Si2 0.180389 0.164560 0.986489
Si Si3 0.682183 0.775639 0.861065
Si Si4 0.681700 0.730415 0.067893
Si Si5 0.182732 0.375800 0.711519
Si Si6 0.817544 0.434804 0.568299
Si Si7 0.182551 0.563979 0.852288
Si Si8 0.181481 0.248870 0.209441
O O1 0.778715 0.786551 0.389551
O O2 0.778478 0.818690 0.514416
O O3 0.741439 0.894882 0.410826
O O4 0.000000 0.846058 0.435122
O O5 0.251579 0.212221 0.036023
O O6 0.239714 0.105023 0.012966
O O7 0.000000 0.167586 0.990240
O O8 0.237508 0.180586 0.910945
O O9 0.500000 0.781665 0.868278
O O10 0.722601 0.777307 0.781560
O O11 0.500000 0.735828 0.069605
O O12 0.746431 0.722759 0.143123
O O13 0.220467 0.410179 0.643157
O O14 0.228006 0.409810 0.779207
O O15 0.259681 0.315140 0.710796
O O16 0.000000 0.368283 0.712685
O O17 0.774878 0.500000 0.563303
O O18 0.000000 0.430803 0.560983
O O19 0.235965 0.500000 0.858951
O O20 0.000000 0.563598 0.853478
O O21 0.000000 0.248543 0.203928
#
# Coordination Sequence:
#
# PCOD9373755 Si02
#       8
#     8   8   8   8   8   8   8   8
#     4   9  18  33  49  67  93 128 165 201 242 288
#     4  11  21  32  49  73  98 127 167 209 246 287
#     4   9  19  34  50  69  99 129 159 201 250 299
#     4  10  20  34  50  69  98 131 162 201 251 300
#     4  10  19  31  47  68  99 136 170 201 236 284
#     4  10  20  34  51  69  96 138 176 203 242 293
#     4  10  20  32  47  70  99 131 169 207 240 281
#     4  11  20  31  50  76 101 128 163 203 247 294
#
# _framework density 15.525598
#
# number of rings (size 3 to 8) (size 9 to 14) (size 15 to 20)
#    0.000    2.000    2.500    3.000    0.000    5.500 
#    0.000    0.000    0.000    2.250    0.000    0.875 
#    0.000    5.000    0.000    0.000    0.000    0.000 
#
# Total GULP energy -178573.874964 kJ/mol
# GULP energy per Si atom -5580.433593 kJ/mol
# Density = 1.549026 g / cm^3
# Si number density = 15.525598 Si / 1000 Ang^3
#
#
#
# Elastic Constant Matrix: (Units=GPa)
#
#
# Indices 1 2 3 4 5 6 
#
# 1 37.8174 34.8626 49.2180 0.0000 0.0000 0.0000
# 2 34.8626 90.8243 68.7984 0.0000 0.0000 0.0000
# 3 49.2180 68.7984 148.9247 0.0000 0.0000 0.0000
# 4 0.0000 0.0000 0.0000 19.6754 0.0000 0.0000
# 5 0.0000 0.0000 0.0000 0.0000 24.4560 0.0000
# 6 0.0000 0.0000 0.0000 0.0000 0.0000 22.4230
#
#
#
# Elastic Compliance Matrix: (Units=1/GPa)
#
#
# Indices 1 2 3 4 5 6 
#
# 1 0.052463 -0.010774 -0.012361 0.000000 0.000000 0.000000
# 2 -0.010774 0.019150 -0.005286 0.000000 0.000000 0.000000
# 3 -0.012361 -0.005286 0.013242 0.000000 0.000000 0.000000
# 4 0.000000 0.000000 0.000000 0.050825 0.000000 0.000000
# 5 0.000000 0.000000 0.000000 0.000000 0.040890 0.000000
# 6 0.000000 0.000000 0.000000 0.000000 0.000000 0.044597
#
#
# Mechanical properties :
#
#
# Convention : Reuss Voigt Hill
#
# Bulk Modulus (GPa) = 35.69876 64.81383 50.25629
# Shear Modulus (GPa) = 17.40062 21.62337 19.51200
#
# Velocity S-wave (km/s) = 3.35142 3.73601 3.54893
# Velocity P-wave (km/s) = 6.16599 7.77480 7.01665
#
# Compressibility (1/GPa) = 0.02801218
#
# Stress axis : x y z
#
# Youngs Moduli (GPa) = 19.06115 52.21947 75.51814
#
# Poissons Ratio (x) = 0.56263 0.93348
# Poissons Ratio (y) = 0.20537 0.39918
# Poissons Ratio (z) = 0.23561 0.27602
#
# Static dielectric constant tensor:
#      x y z
#    x 1.520240 0.000000 0.000000 
#    y 0.000000 1.489140 0.000000 
#    z 0.000000 0.000000 1.525000 
# 
# From -- ./inp_files/20871.got.cif
#   From: 2010.05.17/outbox.cif.g08.bks.cpg/sg44_11_cif.got.tgz:20871.got - 2010.06.03 19:37:08.
