data_PCOD9373979
_publ_section_title
;
Structure prediction by ZEFSAII (Michael W. Deem and Ramdas Pophale) SiO2 
 PCOD9373979
Probable space group: I M M 2
;
_chemical_formula_sum "Si O2"
_cell_formula_units_Z 40
_cell_length_a 7.547812
_cell_length_b 9.109471
_cell_length_c 30.006913
_cell_angle_alpha 90.000000
_cell_angle_beta 90.000000
_cell_angle_gamma 90.000000
_cell_volume 2063.172550
_symmetry_space_group_name_H-M "I M M 2"
_symmetry_group_IT_number 44
_symmetry_cell_setting 'orthorhombic'
loop_
_space_group_symop_operation_xyz
x,y,z
-x,-y,z
-x,y,z
x,-y,z
1/2+x,1/2+y,1/2+z
1/2-x,1/2-y,1/2+z
1/2-x,1/2+y,1/2+z
1/2+x,1/2-y,1/2+z
loop_
_atom_site_type_symbol
_atom_site_label
_atom_site_fract_x
_atom_site_fract_y
_atom_site_fract_z
Si Si1 0.284363 0.332289 0.476580
Si Si2 0.288383 0.174310 0.568196
Si Si3 0.785424 0.331840 0.887761
Si Si4 0.000000 0.823439 0.725546
Si Si5 0.702736 0.170306 0.796473
Si Si6 0.500000 0.175783 0.129630
O O1 0.500000 0.334069 0.475172
O O2 0.224405 0.500000 0.481642
O O3 0.237417 0.235304 0.519383
O O4 0.223731 0.262115 0.430144
O O5 0.500000 0.198673 0.574216
O O6 0.171135 0.259482 0.604071
O O7 0.256066 0.000000 0.570832
O O8 0.727662 0.500000 0.892001
O O9 0.728231 0.263913 0.840939
O O10 0.000000 0.329985 0.888218
O O11 0.831976 0.786950 0.756555
O O12 0.000000 0.736423 0.679778
O O13 0.000000 0.000000 0.716978
O O14 0.500000 0.179343 0.781898
O O15 0.743917 0.000000 0.807796
O O16 0.500000 0.000000 0.128226
#
# Coordination Sequence:
#
# PCOD9373979 Si02
#       6
#     8   8   8   4   8   4
#     4   9  17  31  55  86 121 161 202 245 299 358
#     4  10  21  40  65  91 123 161 204 255 307 362
#     4  10  19  32  54  84 120 161 202 243 294 355
#     4  10  22  42  64  86 118 156 200 254 309 364
#     4  10  21  38  61  87 115 151 197 248 301 357
#     4  12  26  42  64  94 126 160 204 254 311 374
#
# _framework density 19.387618
#
# number of rings (size 3 to 8) (size 9 to 14) (size 15 to 20)
#    0.000    2.000    1.000    2.700    0.000    6.400 
#    1.800    2.000    0.000    0.000    0.000    0.000 
#    0.000    0.000    0.000    0.000    0.000    0.000 
#
# Total GULP energy -111774.570763 kJ/mol
# GULP energy per Si atom -5588.728538 kJ/mol
# Density = 1.934349 g / cm^3
# Si number density = 19.387618 Si / 1000 Ang^3
#
#
#
# Elastic Constant Matrix: (Units=GPa)
#
#
# Indices 1 2 3 4 5 6 
#
# 1 78.5004 55.2746 58.5564 0.0000 0.0000 0.0000
# 2 55.2746 143.4668 97.1710 0.0000 0.0000 0.0000
# 3 58.5564 97.1710 171.3953 0.0000 0.0000 0.0000
# 4 0.0000 0.0000 0.0000 40.9320 0.0000 0.0000
# 5 0.0000 0.0000 0.0000 0.0000 -286.0621 0.0000
# 6 0.0000 0.0000 0.0000 0.0000 0.0000 18.6585
#
#
#
# Elastic Compliance Matrix: (Units=1/GPa)
#
#
# Indices 1 2 3 4 5 6 
#
# 1 0.018875 -0.004715 -0.003775 0.000000 0.000000 0.000000
# 2 -0.004715 0.012493 -0.005472 0.000000 0.000000 0.000000
# 3 -0.003775 -0.005472 0.010227 0.000000 0.000000 0.000000
# 4 0.000000 0.000000 0.000000 0.024431 0.000000 0.000000
# 5 0.000000 0.000000 0.000000 0.000000 -0.003496 0.000000
# 6 0.000000 0.000000 0.000000 0.000000 0.000000 0.053595
#
#
# Mechanical properties :
#
#
# Convention : Reuss Voigt Hill
#
# Bulk Modulus (GPa) = 73.15361 90.59627 81.87494
# Shear Modulus (GPa) = 33.64607 -33.13695 0.25456
#
# Velocity S-wave (km/s) = 4.17038 -4.13871 0.36274
# Velocity P-wave (km/s) = 7.81047 4.89814 6.51902
#
# Compressibility (1/GPa) = 0.01366986
#
# Stress axis : x y z
#
# Youngs Moduli (GPa) = 52.98017 80.04469 97.78422
#
# Poissons Ratio (x) = 0.37741 0.36918
# Poissons Ratio (y) = 0.24980 0.53507
# Poissons Ratio (z) = 0.20002 0.43800
#
# Static dielectric constant tensor:
#      x y z
#    x 1.710480 0.000000 0.000000 
#    y 0.000000 1.657190 0.000000 
#    z 0.000000 0.000000 1.621980 
# 
# From -- ./inp_files/25939.got.cif
#   From: 2010.05.17/outbox.cif.g08.bks.cpg/sg44_13_cif.got.tgz:25939.got - 2010.06.03 19:37:08.
