data_PCOD9373861
_publ_section_title
;
Structure prediction by ZEFSAII (Michael W. Deem and Ramdas Pophale) SiO2 
 PCOD9373861
Probable space group: I M M 2
;
_chemical_formula_sum "Si O2"
_cell_formula_units_Z 56
_cell_length_a 23.331116
_cell_length_b 8.956612
_cell_length_c 14.337633
_cell_angle_alpha 90.000000
_cell_angle_beta 90.000000
_cell_angle_gamma 90.000000
_cell_volume 2996.102959
_symmetry_space_group_name_H-M "I M M 2"
_symmetry_group_IT_number 44
_symmetry_cell_setting 'orthorhombic'
loop_
_space_group_symop_operation_xyz
x,y,z
-x,-y,z
-x,y,z
x,-y,z
1/2+x,1/2+y,1/2+z
1/2-x,1/2-y,1/2+z
1/2-x,1/2+y,1/2+z
1/2+x,1/2-y,1/2+z
loop_
_atom_site_type_symbol
_atom_site_label
_atom_site_fract_x
_atom_site_fract_y
_atom_site_fract_z
Si Si1 0.500000 0.680988 0.846320
Si Si2 0.770769 0.830969 0.593724
Si Si3 0.650854 0.823093 0.359951
Si Si4 0.733271 0.168413 0.810220
Si Si5 0.345974 0.677617 0.544748
Si Si6 0.000000 0.180130 0.564132
Si Si7 0.613965 0.179450 0.150048
Si Si8 0.618923 0.680297 0.754215
O O1 0.500000 0.500000 0.842391
O O2 0.558053 0.729404 0.795077
O O3 0.500000 0.722177 0.954786
O O4 0.767429 0.500000 0.348984
O O5 0.751573 0.841911 0.701747
O O6 0.718978 0.738979 0.549438
O O7 0.831418 0.747352 0.595303
O O8 0.716513 0.768134 0.352412
O O9 0.625818 0.746556 0.452374
O O10 0.622240 0.784549 0.260407
O O11 0.648900 0.000000 0.370723
O O12 0.671235 0.244355 0.809874
O O13 0.775293 0.000000 0.556222
O O14 0.345468 0.500000 0.537410
O O15 0.374501 0.717871 0.644242
O O16 0.056344 0.247752 0.611803
O O17 0.000000 0.000000 0.571310
O O18 0.613464 0.000000 0.141003
O O19 0.624207 0.500000 0.761961
#
# Coordination Sequence:
#
# PCOD9373861 Si02
#       8
#     4   8   8   8   8   4   8   8
#     4   9  20  39  60  79 100 134 179 221 264 319
#     4   9  17  31  52  77 107 142 178 217 263 316
#     4  10  20  34  54  79 110 147 181 217 268 327
#     4   9  17  30  50  77 108 139 175 218 261 309
#     4  10  19  31  52  82 113 144 179 221 268 321
#     4  11  23  39  60  81 102 136 183 231 276 325
#     4  10  21  38  57  78 109 146 183 226 275 324
#     4   9  18  35  56  77 107 144 180 219 266 319
#
# _framework density 18.690947000000001
#
# number of rings (size 3 to 8) (size 9 to 14) (size 15 to 20)
#    0.000    2.429    0.000    2.357    0.000    6.857 
#    0.000    6.786    0.000    0.857    0.000    0.000 
#    0.000    0.000    0.000    0.000    0.000    0.000 
#
# Total GULP energy -156210.547171 kJ/mol
# GULP energy per Si atom -5578.948113 kJ/mol
# Density = 1.864841 g / cm^3
# Si number density = 18.690947 Si / 1000 Ang^3
#
#
#
# Elastic Constant Matrix: (Units=GPa)
#
#
# Indices 1 2 3 4 5 6 
#
# 1 146.4093 45.1614 60.8967 0.0000 0.0000 0.0000
# 2 45.1614 68.5987 46.9496 0.0000 0.0000 0.0000
# 3 60.8967 46.9496 113.3601 0.0000 0.0000 0.0000
# 4 0.0000 0.0000 0.0000 25.0757 0.0000 0.0000
# 5 0.0000 0.0000 0.0000 0.0000 16.7172 0.0000
# 6 0.0000 0.0000 0.0000 0.0000 0.0000 26.8291
#
#
#
# Elastic Compliance Matrix: (Units=1/GPa)
#
#
# Indices 1 2 3 4 5 6 
#
# 1 0.009469 -0.003841 -0.003496 0.000000 0.000000 0.000000
# 2 -0.003841 0.021903 -0.007008 0.000000 0.000000 0.000000
# 3 -0.003496 -0.007008 0.013602 0.000000 0.000000 0.000000
# 4 0.000000 0.000000 0.000000 0.039879 0.000000 0.000000
# 5 0.000000 0.000000 0.000000 0.000000 0.059819 0.000000
# 6 0.000000 0.000000 0.000000 0.000000 0.000000 0.037273
#
#
# Mechanical properties :
#
#
# Convention : Reuss Voigt Hill
#
# Bulk Modulus (GPa) = 61.41113 70.48705 65.94909
# Shear Modulus (GPa) = 23.14151 25.41509 24.27830
#
# Velocity S-wave (km/s) = 3.52250 3.69148 3.60798
# Velocity P-wave (km/s) = 7.03359 7.48085 7.26067
#
# Compressibility (1/GPa) = 0.01628369
#
# Stress axis : x y z
#
# Youngs Moduli (GPa) = 105.60663 45.65680 73.52012
#
# Poissons Ratio (x) = 0.17538 0.25701
# Poissons Ratio (y) = 0.40567 0.51521
# Poissons Ratio (z) = 0.36918 0.31995
#
# Static dielectric constant tensor:
#      x y z
#    x 1.607480 0.000000 0.000000 
#    y 0.000000 1.640140 0.000000 
#    z 0.000000 0.000000 1.693890 
# 
# From -- ./inp_files/19261.got.cif
#   From: 2010.05.17/outbox.cif.g08.bks.cpg/sg44_10_cif.got.tgz:19261.got - 2010.06.03 19:37:08.
