data_PCOD9373059
_publ_section_title
;
Structure prediction by ZEFSAII (Michael W. Deem and Ramdas Pophale) SiO2 
 PCOD9373059
Probable space group: I M M 2
;
_chemical_formula_sum "Si O2"
_cell_formula_units_Z 40
_cell_length_a 7.475849
_cell_length_b 11.158015
_cell_length_c 23.422827
_cell_angle_alpha 90.000000
_cell_angle_beta 90.000000
_cell_angle_gamma 90.000000
_cell_volume 1953.829994
_symmetry_space_group_name_H-M "I M M 2"
_symmetry_group_IT_number 44
_symmetry_cell_setting 'orthorhombic'
loop_
_space_group_symop_operation_xyz
x,y,z
-x,-y,z
-x,y,z
x,-y,z
1/2+x,1/2+y,1/2+z
1/2-x,1/2-y,1/2+z
1/2-x,1/2+y,1/2+z
1/2+x,1/2-y,1/2+z
loop_
_atom_site_type_symbol
_atom_site_label
_atom_site_fract_x
_atom_site_fract_y
_atom_site_fract_z
Si Si1 0.200930 0.798621 0.372530
Si Si2 0.780987 0.261759 0.586246
Si Si3 0.780857 0.362656 0.465549
Si Si4 0.705892 0.000000 0.282193
Si Si5 0.705609 0.500000 0.095118
Si Si6 0.216977 0.500000 0.962292
Si Si7 0.780625 0.500000 0.654717
O O1 0.285761 0.684107 0.403846
O O2 0.209993 0.888720 0.426355
O O3 0.000000 0.765657 0.356977
O O4 0.263948 0.881433 0.320495
O O5 0.723108 0.286333 0.520858
O O6 0.727115 0.377608 0.622793
O O7 0.000000 0.257255 0.585816
O O8 0.718240 0.131914 0.609274
O O9 0.731540 0.500000 0.475349
O O10 0.000000 0.357061 0.464424
O O11 0.790063 0.000000 0.219629
O O12 0.500000 0.000000 0.269347
O O13 0.500000 0.500000 0.115083
O O14 0.713465 0.500000 0.026152
O O15 0.000000 0.500000 0.960876
O O16 0.000000 0.500000 0.652133
#
# Coordination Sequence:
#
# PCOD9373059 Si02
#       7
#     8   8   8   4   4   4   4
#     4  10  18  30  49  72  94 122 165 209 245 283
#     4   9  15  25  45  73 100 124 156 201 247 290
#     4   9  15  24  44  75 102 120 151 202 256 298
#     4  10  20  33  50  71  97 132 171 204 243 294
#     4  10  17  27  46  74  98 122 162 206 244 287
#     4  11  19  26  41  67 101 130 152 186 242 299
#     4   9  17  30  49  72 100 132 165 204 249 296
#
# _framework density 20.47261
#
# number of rings (size 3 to 8) (size 9 to 14) (size 15 to 20)
#    0.000    2.400    3.000    3.000    0.000    0.000 
#    0.000    0.000    2.200    4.800    0.000    0.000 
#    0.000    0.000    0.000    0.000    0.000    0.000 
#
# Total GULP energy -111355.604647 kJ/mol
# GULP energy per Si atom -5567.780232 kJ/mol
# Density = 2.042601 g / cm^3
# Si number density = 20.472610 Si / 1000 Ang^3
#
#
#
# Elastic Constant Matrix: (Units=GPa)
#
#
# Indices 1 2 3 4 5 6 
#
# 1 64.4175 0.4021 0.7052 0.0000 0.0000 0.0000
# 2 0.4021 167.9122 53.4426 0.0000 0.0000 0.0000
# 3 0.7052 53.4426 109.8015 0.0000 0.0000 0.0000
# 4 0.0000 0.0000 0.0000 -5.5750 0.0000 0.0000
# 5 0.0000 0.0000 0.0000 0.0000 9.5999 0.0000
# 6 0.0000 0.0000 0.0000 0.0000 0.0000 -76.0951
#
#
#
# Elastic Compliance Matrix: (Units=1/GPa)
#
#
# Indices 1 2 3 4 5 6 
#
# 1 0.015525 -0.000006 -0.000097 0.000000 0.000000 0.000000
# 2 -0.000006 0.007047 -0.003430 0.000000 0.000000 0.000000
# 3 -0.000097 -0.003430 0.010777 0.000000 0.000000 0.000000
# 4 0.000000 0.000000 0.000000 -0.179374 0.000000 0.000000
# 5 0.000000 0.000000 0.000000 0.000000 0.104168 0.000000
# 6 0.000000 0.000000 0.000000 0.000000 0.000000 -0.013141
#
#
# Mechanical properties :
#
#
# Convention : Reuss Voigt Hill
#
# Bulk Modulus (GPa) = 38.04678 50.13680 44.09179
# Shear Modulus (GPa) = -127.64803 4.75805 -61.44499
#
# Velocity S-wave (km/s) = -7.90481 1.52616 -5.48438
# Velocity P-wave (km/s) = 8.04301 5.25817 4.30359
#
# Compressibility (1/GPa) = 0.02628343
#
# Stress axis : x y z
#
# Youngs Moduli (GPa) = 64.41299 141.90058 92.78682
#
# Poissons Ratio (x) = 0.00091 0.00896
# Poissons Ratio (y) = 0.00041 0.31826
# Poissons Ratio (z) = 0.00622 0.48671
#
# Static dielectric constant tensor:
#      x y z
#    x 1.775260 0.000000 0.000000 
#    y 0.000000 1.873760 0.000000 
#    z 0.000000 0.000000 1.711800 
# 
# From -- ./inp_files/22842.got.cif
#   From: 2010.05.17/outbox.cif.g08.bks.cpg/sg44_12_cif.got.tgz:22842.got - 2010.06.03 19:37:08.
