data_PCOD9373390
_publ_section_title
;
Structure prediction by ZEFSAII (Michael W. Deem and Ramdas Pophale) SiO2 
 PCOD9373390
Probable space group: I M M 2
;
_chemical_formula_sum "Si O2"
_cell_formula_units_Z 48
_cell_length_a 8.649792
_cell_length_b 24.176300
_cell_length_c 14.260531
_cell_angle_alpha 90.000000
_cell_angle_beta 90.000000
_cell_angle_gamma 90.000000
_cell_volume 2982.161763
_symmetry_space_group_name_H-M "I M M 2"
_symmetry_group_IT_number 44
_symmetry_cell_setting 'orthorhombic'
loop_
_space_group_symop_operation_xyz
x,y,z
-x,-y,z
-x,y,z
x,-y,z
1/2+x,1/2+y,1/2+z
1/2-x,1/2-y,1/2+z
1/2-x,1/2+y,1/2+z
1/2+x,1/2-y,1/2+z
loop_
_atom_site_type_symbol
_atom_site_label
_atom_site_fract_x
_atom_site_fract_y
_atom_site_fract_z
Si Si1 0.185084 0.064061 0.776920
Si Si2 0.186231 0.227797 0.064246
Si Si3 0.814188 0.835022 0.460145
Si Si4 0.185570 0.336238 0.391763
Si Si5 0.687421 0.727454 0.777407
Si Si6 0.814906 0.436014 0.070589
O O1 0.252243 0.106312 0.852333
O O2 0.251288 0.078083 0.674042
O O3 0.000000 0.068264 0.774395
O O4 0.226912 0.000000 0.796184
O O5 0.239719 0.219074 0.171198
O O6 0.000000 0.228400 0.061684
O O7 0.248243 0.286551 0.026570
O O8 0.248509 0.181975 0.992205
O O9 0.765802 0.818011 0.354532
O O10 0.753062 0.893366 0.496128
O O11 0.000000 0.833680 0.464825
O O12 0.233446 0.287066 0.319731
O O13 0.000000 0.336828 0.395758
O O14 0.500000 0.727326 0.775328
O O15 0.772422 0.500000 0.051504
O O16 0.000000 0.431719 0.072132
#
# Coordination Sequence:
#
# PCOD9373390 Si02
#       6
#     8   8   8   8   8   8
#     4  10  20  33  50  73  98 126 162 200 238 285
#     4  10  18  31  50  71  97 129 164 199 239 285
#     4  10  19  32  49  71  98 127 162 201 242 287
#     4  10  19  32  49  72 101 129 159 196 241 289
#     4   8  17  31  47  68  95 126 158 195 235 280
#     4  10  20  33  49  71  99 129 159 195 243 294
#
# _framework density 16.095706
#
# number of rings (size 3 to 8) (size 9 to 14) (size 15 to 20)
#    0.000    2.333    0.000    4.500    0.000    3.333 
#    0.000    9.167    0.000    1.000    0.000    2.333 
#    0.000    0.000    0.000    0.000    0.000    0.000 
#
# Total GULP energy -133884.913568 kJ/mol
# GULP energy per Si atom -5578.538065 kJ/mol
# Density = 1.605907 g / cm^3
# Si number density = 16.095706 Si / 1000 Ang^3
#
#
#
# Elastic Constant Matrix: (Units=GPa)
#
#
# Indices 1 2 3 4 5 6 
#
# 1 51.4091 32.0194 37.3151 0.0000 0.0000 0.0000
# 2 32.0194 89.1965 77.3364 0.0000 0.0000 0.0000
# 3 37.3151 77.3364 157.3668 0.0000 0.0000 0.0000
# 4 0.0000 0.0000 0.0000 24.6563 0.0000 0.0000
# 5 0.0000 0.0000 0.0000 0.0000 23.3215 0.0000
# 6 0.0000 0.0000 0.0000 0.0000 0.0000 28.2100
#
#
#
# Elastic Compliance Matrix: (Units=1/GPa)
#
#
# Indices 1 2 3 4 5 6 
#
# 1 0.025704 -0.006870 -0.002719 0.000000 0.000000 0.000000
# 2 -0.006870 0.021371 -0.008874 0.000000 0.000000 0.000000
# 3 -0.002719 -0.008874 0.011360 0.000000 0.000000 0.000000
# 4 0.000000 0.000000 0.000000 0.040558 0.000000 0.000000
# 5 0.000000 0.000000 0.000000 0.000000 0.042879 0.000000
# 6 0.000000 0.000000 0.000000 0.000000 0.000000 0.035448
#
#
# Mechanical properties :
#
#
# Convention : Reuss Voigt Hill
#
# Bulk Modulus (GPa) = 46.48860 65.70156 56.09508
# Shear Modulus (GPa) = 22.58206 25.32433 23.95319
#
# Velocity S-wave (km/s) = 3.74971 3.97086 3.86187
# Velocity P-wave (km/s) = 6.90597 7.86966 7.40351
#
# Compressibility (1/GPa) = 0.02151065
#
# Stress axis : x y z
#
# Youngs Moduli (GPa) = 38.90446 46.79244 88.02703
#
# Poissons Ratio (x) = 0.32145 0.23934
# Poissons Ratio (y) = 0.26726 0.78112
# Poissons Ratio (z) = 0.10578 0.41522
#
# Static dielectric constant tensor:
#      x y z
#    x 1.542110 0.000000 0.000000 
#    y 0.000000 1.525910 0.000000 
#    z 0.000000 0.000000 1.531150 
# 
# From -- ./inp_files/11159.got.cif
#   From: 2010.05.17/outbox.cif.g08.bks.cpg/sg44_6_cif.got.tgz:11159.got - 2010.06.03 19:37:08.
