data_PCOD9373604
_publ_section_title
;
Structure prediction by ZEFSAII (Michael W. Deem and Ramdas Pophale) SiO2 
 PCOD9373604
Probable space group: I M M 2
;
_chemical_formula_sum "Si O2"
_cell_formula_units_Z 64
_cell_length_a 27.106094
_cell_length_b 9.001643
_cell_length_c 18.530135
_cell_angle_alpha 90.000000
_cell_angle_beta 90.000000
_cell_angle_gamma 90.000000
_cell_volume 4521.341476
_symmetry_space_group_name_H-M "I M M 2"
_symmetry_group_IT_number 44
_symmetry_cell_setting 'orthorhombic'
loop_
_space_group_symop_operation_xyz
x,y,z
-x,-y,z
-x,y,z
x,-y,z
1/2+x,1/2+y,1/2+z
1/2-x,1/2-y,1/2+z
1/2-x,1/2+y,1/2+z
1/2+x,1/2-y,1/2+z
loop_
_atom_site_type_symbol
_atom_site_label
_atom_site_fract_x
_atom_site_fract_y
_atom_site_fract_z
Si Si1 0.199392 0.171384 0.737450
Si Si2 0.759218 0.324189 0.960360
Si Si3 0.556641 0.822506 0.606710
Si Si4 0.643770 0.822906 0.363393
Si Si5 0.297359 0.170620 0.838445
Si Si6 0.241013 0.822690 0.116090
Si Si7 0.350296 0.820924 0.700116
Si Si8 0.557751 0.322850 0.452366
O O1 0.158944 0.250615 0.787244
O O2 0.249015 0.171966 0.786744
O O3 0.214836 0.257172 0.665225
O O4 0.186909 0.000000 0.722728
O O5 0.756989 0.500000 0.973896
O O6 0.811040 0.292399 0.919297
O O7 0.716324 0.272913 0.905549
O O8 0.756234 0.236096 0.034763
O O9 0.500000 0.787777 0.626276
O O10 0.596154 0.786541 0.668251
O O11 0.568791 0.738837 0.532475
O O12 0.559756 0.000000 0.593038
O O13 0.594529 0.753940 0.396595
O O14 0.639847 0.000000 0.356341
O O15 0.340643 0.218126 0.783794
O O16 0.305083 0.000000 0.861947
O O17 0.190697 0.759506 0.151531
O O18 0.241133 0.000000 0.118862
O O19 0.342281 0.000000 0.694693
O O20 0.500000 0.289608 0.437934
O O21 0.564378 0.500000 0.450908
#
# Coordination Sequence:
#
# PCOD9373604 Si02
#       8
#     8   8   8   8   8   8   8   8
#     4   9  17  30  45  60  82 109 136 169 208 248
#     4  10  19  29  41  59  83 109 138 171 206 246
#     4   9  17  29  44  61  82 110 144 180 215 250
#     4  10  19  30  45  63  83 110 144 177 210 250
#     4   8  15  27  41  57  78 105 135 167 203 243
#     4  11  20  28  41  61  84 110 141 172 203 245
#     4   9  17  29  43  59  82 111 141 173 210 249
#     4  10  20  31  42  59  84 113 145 180 215 248
#
# _framework density 14.155091000000001
#
# number of rings (size 3 to 8) (size 9 to 14) (size 15 to 20)
#    0.000    2.500    0.000    4.125    0.000    8.750 
#    0.000    0.000    0.000    0.000    0.000    0.000 
#    0.000    1.000    0.000    5.000    0.000    3.375 
#
# Total GULP energy -178366.000741 kJ/mol
# GULP energy per Si atom -5573.937523 kJ/mol
# Density = 1.412287 g / cm^3
# Si number density = 14.155091 Si / 1000 Ang^3
#
#
#
# Elastic Constant Matrix: (Units=GPa)
#
#
# Indices 1 2 3 4 5 6 
#
# 1 65.8785 35.2756 38.5042 0.0000 0.0000 0.0000
# 2 35.2756 67.6407 49.5366 0.0000 0.0000 0.0000
# 3 38.5042 49.5366 76.7684 0.0000 0.0000 0.0000
# 4 0.0000 0.0000 0.0000 25.0965 0.0000 0.0000
# 5 0.0000 0.0000 0.0000 0.0000 27.9589 0.0000
# 6 0.0000 0.0000 0.0000 0.0000 0.0000 16.9510
#
#
#
# Elastic Compliance Matrix: (Units=1/GPa)
#
#
# Indices 1 2 3 4 5 6 
#
# 1 0.022980 -0.006718 -0.007191 0.000000 0.000000 0.000000
# 2 -0.006718 0.029994 -0.015985 0.000000 0.000000 0.000000
# 3 -0.007191 -0.015985 0.026947 0.000000 0.000000 0.000000
# 4 0.000000 0.000000 0.000000 0.039846 0.000000 0.000000
# 5 0.000000 0.000000 0.000000 0.000000 0.035767 0.000000
# 6 0.000000 0.000000 0.000000 0.000000 0.000000 0.058993
#
#
# Mechanical properties :
#
#
# Convention : Reuss Voigt Hill
#
# Bulk Modulus (GPa) = 49.66781 50.76893 50.21837
# Shear Modulus (GPa) = 17.79197 19.79936 18.79566
#
# Velocity S-wave (km/s) = 3.54917 3.74404 3.64790
# Velocity P-wave (km/s) = 7.20832 7.39151 7.30049
#
# Compressibility (1/GPa) = 0.02013376
#
# Stress axis : x y z
#
# Youngs Moduli (GPa) = 43.51701 33.33997 37.10943
#
# Poissons Ratio (x) = 0.22398 0.26684
# Poissons Ratio (y) = 0.29235 0.59319
# Poissons Ratio (z) = 0.31292 0.53293
#
# Static dielectric constant tensor:
#      x y z
#    x 1.460630 0.000000 0.000000 
#    y 0.000000 1.473010 0.000000 
#    z 0.000000 0.000000 1.455030 
# 
# From -- ./inp_files/19692.got.cif
#   From: 2010.05.17/outbox.cif.g08.bks.cpg/sg44_10_cif.got.tgz:19692.got - 2010.06.03 19:37:08.
