data_PCOD9373369
_publ_section_title
;
Structure prediction by ZEFSAII (Michael W. Deem and Ramdas Pophale) SiO2 
 PCOD9373369
Probable space group: I M M 2
;
_chemical_formula_sum "Si O2"
_cell_formula_units_Z 64
_cell_length_a 15.851628
_cell_length_b 21.844116
_cell_length_c 9.553371
_cell_angle_alpha 90.000000
_cell_angle_beta 90.000000
_cell_angle_gamma 90.000000
_cell_volume 3307.996106
_symmetry_space_group_name_H-M "I M M 2"
_symmetry_group_IT_number 44
_symmetry_cell_setting 'orthorhombic'
loop_
_space_group_symop_operation_xyz
x,y,z
-x,-y,z
-x,y,z
x,-y,z
1/2+x,1/2+y,1/2+z
1/2-x,1/2-y,1/2+z
1/2-x,1/2+y,1/2+z
1/2+x,1/2-y,1/2+z
loop_
_atom_site_type_symbol
_atom_site_label
_atom_site_fract_x
_atom_site_fract_y
_atom_site_fract_z
Si Si1 0.596572 0.930731 0.351300
Si Si2 0.093650 0.748386 0.021337
Si Si3 0.171657 0.309916 0.758678
Si Si4 0.864628 0.837516 0.258898
Si Si5 0.593557 0.426600 0.977284
Si Si6 0.405433 0.237838 0.996105
Si Si7 0.769371 0.428982 0.106103
Si Si8 0.594317 0.857839 0.757339
O O1 0.500000 0.927677 0.405337
O O2 0.611253 0.869857 0.259598
O O3 0.666515 0.925302 0.473365
O O4 0.606330 0.000000 0.290090
O O5 0.105637 0.810111 0.111101
O O6 0.097037 0.694852 0.137934
O O7 0.000000 0.748137 0.958507
O O8 0.156817 0.729789 0.898671
O O9 0.264621 0.336438 0.754774
O O10 0.156895 0.267145 0.625200
O O11 0.897339 0.901289 0.319256
O O12 0.891479 0.790805 0.382784
O O13 0.500000 0.408396 0.030509
O O14 0.597426 0.500000 0.976982
O O15 0.676725 0.404286 0.062736
O O16 0.500000 0.243846 0.052654
O O17 0.399703 0.175991 0.905186
O O18 0.758013 0.500000 0.140201
O O19 0.823495 0.397743 0.227631
O O20 0.500000 0.886822 0.747456
#
# Coordination Sequence:
#
# PCOD9373369 Si02
#       8
#     8   8   8   8   8   8   8   8
#     4  10  19  31  51  80 112 145 182 226 272 321
#     4  10  19  32  52  75 103 140 181 222 269 326
#     4  12  21  34  55  82 113 148 188 231 279 336
#     4  11  21  36  54  79 111 144 185 231 283 338
#     4  10  20  35  56  82 112 146 187 238 291 336
#     4  10  22  37  54  79 115 152 183 225 288 342
#     4  10  18  30  52  82 111 144 189 233 269 320
#     4   9  17  32  51  76 111 147 178 220 275 331
#
# _framework density 19.347059999999999
#
# number of rings (size 3 to 8) (size 9 to 14) (size 15 to 20)
#    0.000    1.750    2.500    4.125    0.000    1.750 
#    0.000    0.625    0.000    0.750    0.000    2.625 
#    0.000   10.000    0.000    0.000    0.000    0.000 
#
# Total GULP energy -178384.391127 kJ/mol
# GULP energy per Si atom -5574.512223 kJ/mol
# Density = 1.930303 g / cm^3
# Si number density = 19.347060 Si / 1000 Ang^3
#
#
#
# Elastic Constant Matrix: (Units=GPa)
#
#
# Indices 1 2 3 4 5 6 
#
# 1 126.9797 11.1656 9.1407 0.0000 0.0000 0.0000
# 2 11.1656 36.8222 5.1639 0.0000 0.0000 0.0000
# 3 9.1407 5.1639 54.1261 0.0000 0.0000 0.0000
# 4 0.0000 0.0000 0.0000 16.9706 0.0000 0.0000
# 5 0.0000 0.0000 0.0000 0.0000 12.1206 0.0000
# 6 0.0000 0.0000 0.0000 0.0000 0.0000 25.2158
#
#
#
# Elastic Compliance Matrix: (Units=1/GPa)
#
#
# Indices 1 2 3 4 5 6 
#
# 1 0.008162 -0.002313 -0.001158 0.000000 0.000000 0.000000
# 2 -0.002313 0.028181 -0.002298 0.000000 0.000000 0.000000
# 3 -0.001158 -0.002298 0.018890 0.000000 0.000000 0.000000
# 4 0.000000 0.000000 0.000000 0.058925 0.000000 0.000000
# 5 0.000000 0.000000 0.000000 0.000000 0.082504 0.000000
# 6 0.000000 0.000000 0.000000 0.000000 0.000000 0.039658
#
#
# Mechanical properties :
#
#
# Convention : Reuss Voigt Hill
#
# Bulk Modulus (GPa) = 22.88520 29.87426 26.37973
# Shear Modulus (GPa) = 19.05327 23.69195 21.37261
#
# Velocity S-wave (km/s) = 3.14158 3.50319 3.32730
# Velocity P-wave (km/s) = 5.00138 5.64251 5.33159
#
# Compressibility (1/GPa) = 0.04369636
#
# Stress axis : x y z
#
# Youngs Moduli (GPa) = 122.51954 35.48488 52.93765
#
# Poissons Ratio (x) = 0.08206 0.06129
# Poissons Ratio (y) = 0.28334 0.12165
# Poissons Ratio (z) = 0.14185 0.08155
#
# Static dielectric constant tensor:
#      x y z
#    x 1.730800 0.000000 0.000000 
#    y 0.000000 1.725190 0.000000 
#    z 0.000000 0.000000 1.652510 
# 
# From -- ./inp_files/7578.got.cif
#   From: 2010.05.17/outbox.cif.g08.bks.cpg/sg44_4_cif.got.tgz:7578.got - 2010.06.03 19:37:08.
