data_PCOD9373580
_publ_section_title
;
Structure prediction by ZEFSAII (Michael W. Deem and Ramdas Pophale) SiO2 
 PCOD9373580
Probable space group: I M M 2
;
_chemical_formula_sum "Si O2"
_cell_formula_units_Z 64
_cell_length_a 8.222995
_cell_length_b 19.367736
_cell_length_c 22.256133
_cell_angle_alpha 90.000000
_cell_angle_beta 90.000000
_cell_angle_gamma 90.000000
_cell_volume 3544.529464
_symmetry_space_group_name_H-M "I M M 2"
_symmetry_group_IT_number 44
_symmetry_cell_setting 'orthorhombic'
loop_
_space_group_symop_operation_xyz
x,y,z
-x,-y,z
-x,y,z
x,-y,z
1/2+x,1/2+y,1/2+z
1/2-x,1/2-y,1/2+z
1/2-x,1/2+y,1/2+z
1/2+x,1/2-y,1/2+z
loop_
_atom_site_type_symbol
_atom_site_label
_atom_site_fract_x
_atom_site_fract_y
_atom_site_fract_z
Si Si1 0.309839 0.684799 0.319620
Si Si2 0.694331 0.130043 0.041315
Si Si3 0.682364 0.424043 0.212884
Si Si4 0.303573 0.782314 0.222256
Si Si5 0.695052 0.423177 0.669419
Si Si6 0.694579 0.725532 0.092679
Si Si7 0.305667 0.422503 0.414688
Si Si8 0.813547 0.423740 0.084516
O O1 0.500000 0.699449 0.334490
O O2 0.303387 0.630963 0.264458
O O3 0.240221 0.751907 0.285550
O O4 0.237948 0.641263 0.374880
O O5 0.500000 0.129544 0.032840
O O6 0.736237 0.090708 0.102795
O O7 0.750370 0.209304 0.052853
O O8 0.775119 0.095169 0.983984
O O9 0.500000 0.416275 0.185969
O O10 0.692391 0.500000 0.240626
O O11 0.802024 0.420960 0.157190
O O12 0.500000 0.775587 0.223427
O O13 0.258296 0.861202 0.210588
O O14 0.248061 0.740622 0.161752
O O15 0.500000 0.419234 0.666435
O O16 0.742185 0.500000 0.689357
O O17 0.500000 0.729791 0.095290
O O18 0.738867 0.650232 0.067717
O O19 0.500000 0.424498 0.403128
O O20 0.242405 0.500000 0.401079
O O21 0.742298 0.500000 0.068118
O O22 0.000000 0.423822 0.065296
#
# Coordination Sequence:
#
# PCOD9373580 Si02
#       8
#     8   8   8   8   8   8   8   8
#     4   9  16  29  47  68  95 127 164 199 229 272
#     4  10  21  35  51  70  95 127 166 209 249 290
#     4   9  15  25  42  60  84 123 162 189 216 258
#     4   9  17  30  48  71  97 125 160 199 240 289
#     4  10  20  33  50  73  99 126 158 199 249 301
#     4   9  17  31  48  66  88 121 163 200 238 288
#     4  10  20  33  50  73 100 132 170 205 237 280
#     4  10  19  27  38  63  96 123 149 187 235 282
#
# _framework density 18.055993000000001
#
# number of rings (size 3 to 8) (size 9 to 14) (size 15 to 20)
#    0.000    2.500    1.250    2.625    0.000    7.500 
#    0.000    1.250    0.000    1.500    0.000    0.875 
#    0.000    1.000    0.000    0.000    0.000    0.125 
#
# Total GULP energy -178154.052551 kJ/mol
# GULP energy per Si atom -5567.314142 kJ/mol
# Density = 1.801490 g / cm^3
# Si number density = 18.055993 Si / 1000 Ang^3
#
#
#
# Elastic Constant Matrix: (Units=GPa)
#
#
# Indices 1 2 3 4 5 6 
#
# 1 8.2531 6.3316 -0.3383 0.0000 0.0000 0.0000
# 2 6.3316 136.7798 32.2131 0.0000 0.0000 0.0000
# 3 -0.3383 32.2131 53.6597 0.0000 0.0000 0.0000
# 4 0.0000 0.0000 0.0000 18.6993 0.0000 0.0000
# 5 0.0000 0.0000 0.0000 0.0000 11.0141 0.0000
# 6 0.0000 0.0000 0.0000 0.0000 0.0000 21.5843
#
#
#
# Elastic Compliance Matrix: (Units=1/GPa)
#
#
# Indices 1 2 3 4 5 6 
#
# 1 0.126786 -0.007055 0.005034 0.000000 0.000000 0.000000
# 2 -0.007055 0.008907 -0.005392 0.000000 0.000000 0.000000
# 3 0.005034 -0.005392 0.021905 0.000000 0.000000 0.000000
# 4 0.000000 0.000000 0.000000 0.053478 0.000000 0.000000
# 5 0.000000 0.000000 0.000000 0.000000 0.090792 0.000000
# 6 0.000000 0.000000 0.000000 0.000000 0.000000 0.046330
#
#
# Mechanical properties :
#
#
# Convention : Reuss Voigt Hill
#
# Bulk Modulus (GPa) = 7.00410 30.56728 18.78569
# Shear Modulus (GPa) = 12.17691 20.95862 16.56777
#
# Velocity S-wave (km/s) = 2.59973 3.41068 3.03244
# Velocity P-wave (km/s) = 3.59152 5.69880 4.76315
#
# Compressibility (1/GPa) = 0.14277347
#
# Stress axis : x y z
#
# Youngs Moduli (GPa) = 7.88733 112.26611 45.65268
#
# Poissons Ratio (x) = 0.79200 -0.22983
# Poissons Ratio (y) = 0.05564 0.24615
# Poissons Ratio (z) = -0.03971 0.60532
#
# Static dielectric constant tensor:
#      x y z
#    x 1.642400 0.000000 0.000000 
#    y 0.000000 1.704260 0.000000 
#    z 0.000000 0.000000 1.597320 
# 
# From -- ./inp_files/25208.got.cif
#   From: 2010.05.17/outbox.cif.g08.bks.cpg/sg44_13_cif.got.tgz:25208.got - 2010.06.03 19:37:08.
