data_PCOD9373856
_publ_section_title
;
Structure prediction by ZEFSAII (Michael W. Deem and Ramdas Pophale) SiO2 
 PCOD9373856
Probable space group: I M M 2
;
_chemical_formula_sum "Si O2"
_cell_formula_units_Z 56
_cell_length_a 23.575843
_cell_length_b 8.940857
_cell_length_c 14.467067
_cell_angle_alpha 90.000000
_cell_angle_beta 90.000000
_cell_angle_gamma 90.000000
_cell_volume 3049.487604
_symmetry_space_group_name_H-M "I M M 2"
_symmetry_group_IT_number 44
_symmetry_cell_setting 'orthorhombic'
loop_
_space_group_symop_operation_xyz
x,y,z
-x,-y,z
-x,y,z
x,-y,z
1/2+x,1/2+y,1/2+z
1/2-x,1/2-y,1/2+z
1/2-x,1/2+y,1/2+z
1/2+x,1/2-y,1/2+z
loop_
_atom_site_type_symbol
_atom_site_label
_atom_site_fract_x
_atom_site_fract_y
_atom_site_fract_z
Si Si1 0.000000 0.679287 0.372610
Si Si2 0.500000 0.181944 0.086358
Si Si3 0.343121 0.321939 0.372101
Si Si4 0.887172 0.679182 0.695162
Si Si5 0.218433 0.825549 0.591819
Si Si6 0.777010 0.825565 0.371369
Si Si7 0.160544 0.820329 0.084509
Si Si8 0.606316 0.679462 0.769620
O O1 0.944705 0.739475 0.320322
O O2 0.000000 0.500000 0.372217
O O3 0.000000 0.731062 0.479669
O O4 0.443379 0.229036 0.140340
O O5 0.500000 0.000000 0.085536
O O6 0.347785 0.500000 0.364116
O O7 0.383484 0.243063 0.298522
O O8 0.278530 0.271175 0.350622
O O9 0.353788 0.278260 0.479069
O O10 0.885986 0.500000 0.697442
O O11 0.831847 0.739353 0.642131
O O12 0.211068 0.814479 0.480882
O O13 0.279927 0.755424 0.611112
O O14 0.217215 0.000000 0.617832
O O15 0.833590 0.782334 0.317288
O O16 0.764189 0.000000 0.349882
O O17 0.113880 0.783166 0.161420
O O18 0.168855 0.000000 0.086635
O O19 0.598734 0.500000 0.778267
#
# Coordination Sequence:
#
# PCOD9373856 Si02
#       8
#     4   4   8   8   8   8   8   8
#     4  11  23  39  58  81 106 132 171 221 268 313
#     4   9  22  41  58  77 102 136 177 219 264 319
#     4  10  20  34  53  81 112 140 176 221 266 312
#     4  11  21  36  56  75 102 143 185 222 267 318
#     4  10  19  31  51  83 116 141 173 219 267 315
#     4   9  18  32  53  82 113 144 176 213 262 320
#     4   9  19  35  55  79 110 146 178 212 260 318
#     4  10  20  36  56  77 105 143 181 213 256 315
#
# _framework density 18.36374
#
# number of rings (size 3 to 8) (size 9 to 14) (size 15 to 20)
#    0.000    2.143    0.000    3.214    0.000    3.429 
#    0.000    4.286    0.000    2.571    0.000    0.000 
#    0.000    0.000    0.000    0.000    0.000    0.000 
#
# Total GULP energy -156371.194113 kJ/mol
# GULP energy per Si atom -5584.685504 kJ/mol
# Density = 1.832194 g / cm^3
# Si number density = 18.363740 Si / 1000 Ang^3
#
#
#
# Elastic Constant Matrix: (Units=GPa)
#
#
# Indices 1 2 3 4 5 6 
#
# 1 96.5247 43.5069 100.5663 0.0000 0.0000 0.0000
# 2 43.5069 47.8006 53.0979 0.0000 0.0000 0.0000
# 3 100.5663 53.0979 137.1750 0.0000 0.0000 0.0000
# 4 0.0000 0.0000 0.0000 29.1998 0.0000 0.0000
# 5 0.0000 0.0000 0.0000 0.0000 32.6231 0.0000
# 6 0.0000 0.0000 0.0000 0.0000 0.0000 25.8903
#
#
#
# Elastic Compliance Matrix: (Units=1/GPa)
#
#
# Indices 1 2 3 4 5 6 
#
# 1 0.045398 -0.007630 -0.030329 0.000000 0.000000 0.000000
# 2 -0.007630 0.037983 -0.009109 0.000000 0.000000 0.000000
# 3 -0.030329 -0.009109 0.033051 0.000000 0.000000 0.000000
# 4 0.000000 0.000000 0.000000 0.034247 0.000000 0.000000
# 5 0.000000 0.000000 0.000000 0.000000 0.030653 0.000000
# 6 0.000000 0.000000 0.000000 0.000000 0.000000 0.038625
#
#
# Mechanical properties :
#
#
# Convention : Reuss Voigt Hill
#
# Bulk Modulus (GPa) = 44.85058 75.09361 59.97210
# Shear Modulus (GPa) = 15.55095 23.16459 19.35777
#
# Velocity S-wave (km/s) = 2.91319 3.55552 3.25026
# Velocity P-wave (km/s) = 5.98264 7.60504 6.84210
#
# Compressibility (1/GPa) = 0.02229625
#
# Stress axis : x y z
#
# Youngs Moduli (GPa) = 22.02741 26.32749 30.25662
#
# Poissons Ratio (x) = 0.20088 0.91765
# Poissons Ratio (y) = 0.16807 0.27560
# Poissons Ratio (z) = 0.66807 0.23981
#
# Static dielectric constant tensor:
#      x y z
#    x 1.588690 0.000000 0.000000 
#    y 0.000000 1.619620 0.000000 
#    z 0.000000 0.000000 1.663390 
# 
# From -- ./inp_files/19219.got.cif
#   From: 2010.05.17/outbox.cif.g08.bks.cpg/sg44_10_cif.got.tgz:19219.got - 2010.06.03 19:37:08.
