data_PCOD9373447
_publ_section_title
;
Structure prediction by ZEFSAII (Michael W. Deem and Ramdas Pophale) SiO2 
 PCOD9373447
Probable space group: I M M 2
;
_chemical_formula_sum "Si O2"
_cell_formula_units_Z 48
_cell_length_a 12.194730
_cell_length_b 7.450635
_cell_length_c 26.570907
_cell_angle_alpha 90.000000
_cell_angle_beta 90.000000
_cell_angle_gamma 90.000000
_cell_volume 2414.192279
_symmetry_space_group_name_H-M "I M M 2"
_symmetry_group_IT_number 44
_symmetry_cell_setting 'orthorhombic'
loop_
_space_group_symop_operation_xyz
x,y,z
-x,-y,z
-x,y,z
x,-y,z
1/2+x,1/2+y,1/2+z
1/2-x,1/2-y,1/2+z
1/2-x,1/2+y,1/2+z
1/2+x,1/2-y,1/2+z
loop_
_atom_site_type_symbol
_atom_site_label
_atom_site_fract_x
_atom_site_fract_y
_atom_site_fract_z
Si Si1 0.260257 0.219492 0.436310
Si Si2 0.872985 0.219585 0.536011
Si Si3 0.000000 0.717142 0.963695
Si Si4 0.500000 0.708447 0.581502
Si Si5 0.230715 0.294831 0.128373
Si Si6 0.375224 0.284713 0.840354
Si Si7 0.625907 0.785570 0.726552
O O1 0.194922 0.275348 0.486587
O O2 0.386357 0.277393 0.439194
O O3 0.199650 0.280696 0.385831
O O4 0.259412 0.000000 0.436425
O O5 0.813334 0.283716 0.587033
O O6 0.000000 0.272441 0.533169
O O7 0.869564 0.000000 0.536368
O O8 0.000000 0.500000 0.963145
O O9 0.000000 0.774049 0.021681
O O10 0.500000 0.500000 0.595929
O O11 0.610532 0.794165 0.602793
O O12 0.267888 0.500000 0.136126
O O13 0.206260 0.213732 0.183268
O O14 0.500000 0.216288 0.845042
O O15 0.379862 0.500000 0.844865
O O16 0.337373 0.245303 0.783681
O O17 0.500000 0.716815 0.721470
O O18 0.619761 0.000000 0.718892
#
# Coordination Sequence:
#
# PCOD9373447 Si02
#       7
#     8   8   4   4   8   8   8
#     4   9  16  27  48  73  96 121 157 201 240 282
#     4   9  16  26  47  77  99 119 157 204 241 278
#     4  10  18  32  52  72  94 128 168 201 240 289
#     4  12  22  30  46  76 106 128 156 197 252 301
#     4  10  18  32  52  72  98 130 163 200 242 289
#     4   9  17  29  46  70  97 121 152 198 245 283
#     4   9  17  29  47  69  93 123 160 196 235 286
#
# _framework density 19.882425000000001
#
# number of rings (size 3 to 8) (size 9 to 14) (size 15 to 20)
#    0.000    2.500    2.500    1.250    0.000    2.667 
#    0.000    0.833    1.833    0.500    0.000    0.000 
#    0.000    0.000    0.000    0.000    0.000    0.000 
#
# Total GULP energy -133924.812300 kJ/mol
# GULP energy per Si atom -5580.200512 kJ/mol
# Density = 1.983717 g / cm^3
# Si number density = 19.882425 Si / 1000 Ang^3
#
#
#
# Elastic Constant Matrix: (Units=GPa)
#
#
# Indices 1 2 3 4 5 6 
#
# 1 140.3099 1.6499 101.2563 0.0000 0.0000 0.0000
# 2 1.6499 64.8717 2.5875 0.0000 0.0000 0.0000
# 3 101.2563 2.5875 205.7734 0.0000 0.0000 0.0000
# 4 0.0000 0.0000 0.0000 16.8129 0.0000 0.0000
# 5 0.0000 0.0000 0.0000 0.0000 29.7352 0.0000
# 6 0.0000 0.0000 0.0000 0.0000 0.0000 13.9461
#
#
#
# Elastic Compliance Matrix: (Units=1/GPa)
#
#
# Indices 1 2 3 4 5 6 
#
# 1 0.011052 -0.000064 -0.005438 0.000000 0.000000 0.000000
# 2 -0.000064 0.015423 -0.000162 0.000000 0.000000 0.000000
# 3 -0.005438 -0.000162 0.007537 0.000000 0.000000 0.000000
# 4 0.000000 0.000000 0.000000 0.059478 0.000000 0.000000
# 5 0.000000 0.000000 0.000000 0.000000 0.033630 0.000000
# 6 0.000000 0.000000 0.000000 0.000000 0.000000 0.071705
#
#
# Mechanical properties :
#
#
# Convention : Reuss Voigt Hill
#
# Bulk Modulus (GPa) = 44.08341 69.10472 56.59406
# Shear Modulus (GPa) = 22.96574 32.46290 27.71432
#
# Velocity S-wave (km/s) = 3.40233 4.04511 3.73756
# Velocity P-wave (km/s) = 6.13634 7.52657 6.86673
#
# Compressibility (1/GPa) = 0.02268427
#
# Stress axis : x y z
#
# Youngs Moduli (GPa) = 90.48186 64.83756 132.67051
#
# Poissons Ratio (x) = 0.00416 0.72141
# Poissons Ratio (y) = 0.00581 0.02154
# Poissons Ratio (z) = 0.49200 0.01053
#
# Static dielectric constant tensor:
#      x y z
#    x 1.672920 0.000000 0.000000 
#    y 0.000000 1.794920 0.000000 
#    z 0.000000 0.000000 1.699340 
# 
# From -- ./inp_files/23729.got.cif
#   From: 2010.05.17/outbox.cif.g08.bks.cpg/sg44_12_cif.got.tgz:23729.got - 2010.06.03 19:37:08.
