data_PCOD9373453
_publ_section_title
;
Structure prediction by ZEFSAII (Michael W. Deem and Ramdas Pophale) SiO2 
 PCOD9373453
Probable space group: I M M 2
;
_chemical_formula_sum "Si O2"
_cell_formula_units_Z 58
_cell_length_a 26.685248
_cell_length_b 7.509059
_cell_length_c 13.600265
_cell_angle_alpha 90.000000
_cell_angle_beta 90.000000
_cell_angle_gamma 90.000000
_cell_volume 2725.236084
_symmetry_space_group_name_H-M "I M M 2"
_symmetry_group_IT_number 44
_symmetry_cell_setting 'orthorhombic'
loop_
_space_group_symop_operation_xyz
x,y,z
-x,-y,z
-x,y,z
x,-y,z
1/2+x,1/2+y,1/2+z
1/2-x,1/2-y,1/2+z
1/2-x,1/2+y,1/2+z
1/2+x,1/2-y,1/2+z
loop_
_atom_site_type_symbol
_atom_site_label
_atom_site_fract_x
_atom_site_fract_y
_atom_site_fract_z
Si Si1 0.500000 0.000000 0.674930
Si Si2 0.904363 0.715565 0.708691
Si Si3 0.191813 0.797079 0.210485
Si Si4 0.944526 0.791882 0.493851
Si Si5 0.441944 0.784096 0.421035
Si Si6 0.335049 0.793534 0.924286
Si Si7 0.586576 0.292544 0.633311
Si Si8 0.797641 0.717948 0.635522
O O1 0.543637 0.157906 0.668403
O O2 0.906487 0.500000 0.707471
O O3 0.934161 0.772898 0.610947
O O4 0.925604 0.775520 0.812972
O O5 0.846667 0.772053 0.696767
O O6 0.185135 0.798110 0.327411
O O7 0.140166 0.721292 0.169647
O O8 0.244698 0.718239 0.176664
O O9 0.192499 0.000000 0.173266
O O10 0.895302 0.717391 0.439891
O O11 0.000000 0.716956 0.470435
O O12 0.945365 0.000000 0.470046
O O13 0.500000 0.739055 0.435951
O O14 0.413219 0.710102 0.514584
O O15 0.438034 0.000000 0.424523
O O16 0.322146 0.000000 0.914061
O O17 0.309550 0.725544 0.024167
O O18 0.579152 0.500000 0.665984
O O19 0.798069 0.500000 0.636861
#
# Coordination Sequence:
#
# PCOD9373453 Si02
#       8
#     2   8   8   8   8   8   8   8
#     4  12  22  44  64  82 128 154 206 256 294 362
#     4   9  18  32  57  85 117 156 198 241 296 351
#     4  10  22  40  61  86 119 153 193 241 295 357
#     4  10  20  35  53  79 116 154 196 246 293 348
#     4  10  18  32  52  82 122 162 200 249 294 353
#     4  10  21  38  62  85 113 150 195 240 295 356
#     4  11  23  39  62  88 120 165 201 246 308 358
#     4   8  17  37  59  84 117 153 189 242 296 351
#
# _framework density 21.282561000000001
#
# number of rings (size 3 to 8) (size 9 to 14) (size 15 to 20)
#    0.000    2.207    1.379    2.276    0.966    3.310 
#    1.241    3.448    0.000    0.000    0.000    0.000 
#    0.000    0.000    0.000    0.000    0.000    0.000 
#
# Total GULP energy -161634.408039 kJ/mol
# GULP energy per Si atom -5573.600277 kJ/mol
# Density = 2.123412 g / cm^3
# Si number density = 21.282561 Si / 1000 Ang^3
#
#
#
# Elastic Constant Matrix: (Units=GPa)
#
#
# Indices 1 2 3 4 5 6 
#
# 1 126.3891 5.4974 42.6726 0.0000 0.0000 0.0000
# 2 5.4974 77.8028 -8.2619 0.0000 0.0000 0.0000
# 3 42.6726 -8.2619 61.3896 0.0000 0.0000 0.0000
# 4 0.0000 0.0000 0.0000 20.6216 0.0000 0.0000
# 5 0.0000 0.0000 0.0000 0.0000 13.9364 0.0000
# 6 0.0000 0.0000 0.0000 0.0000 0.0000 -9.5935
#
#
#
# Elastic Compliance Matrix: (Units=1/GPa)
#
#
# Indices 1 2 3 4 5 6 
#
# 1 0.010518 -0.001542 -0.007518 0.000000 0.000000 0.000000
# 2 -0.001542 0.013265 0.002857 0.000000 0.000000 0.000000
# 3 -0.007518 0.002857 0.021900 0.000000 0.000000 0.000000
# 4 0.000000 0.000000 0.000000 0.048493 0.000000 0.000000
# 5 0.000000 0.000000 0.000000 0.000000 0.071755 0.000000
# 6 0.000000 0.000000 0.000000 0.000000 0.000000 -0.104238
#
#
# Mechanical properties :
#
#
# Convention : Reuss Voigt Hill
#
# Bulk Modulus (GPa) = 30.05111 38.37754 34.21433
# Shear Modulus (GPa) = 58.69168 20.03779 39.36474
#
# Velocity S-wave (km/s) = 5.25711 3.07174 4.30539
# Velocity P-wave (km/s) = 7.14145 5.53645 6.38955
#
# Compressibility (1/GPa) = 0.03327664
#
# Stress axis : x y z
#
# Youngs Moduli (GPa) = 95.07944 75.38473 45.66227
#
# Poissons Ratio (x) = 0.11621 0.34330
# Poissons Ratio (y) = 0.14657 -0.13045
# Poissons Ratio (z) = 0.71484 -0.21536
#
# Static dielectric constant tensor:
#      x y z
#    x 1.760960 0.000000 0.000000 
#    y 0.000000 1.824380 0.000000 
#    z 0.000000 0.000000 1.753390 
# 
# From -- ./inp_files/19438.got.cif
#   From: 2010.05.17/outbox.cif.g08.bks.cpg/sg44_10_cif.got.tgz:19438.got - 2010.06.03 19:37:08.
