data_PCOD9373772
_publ_section_title
;
Structure prediction by ZEFSAII (Michael W. Deem and Ramdas Pophale) SiO2 
 PCOD9373772
Probable space group: I M M 2
;
_chemical_formula_sum "Si O2"
_cell_formula_units_Z 48
_cell_length_a 24.133072
_cell_length_b 8.943526
_cell_length_c 14.206029
_cell_angle_alpha 90.000000
_cell_angle_beta 90.000000
_cell_angle_gamma 90.000000
_cell_volume 3066.154816
_symmetry_space_group_name_H-M "I M M 2"
_symmetry_group_IT_number 44
_symmetry_cell_setting 'orthorhombic'
loop_
_space_group_symop_operation_xyz
x,y,z
-x,-y,z
-x,y,z
x,-y,z
1/2+x,1/2+y,1/2+z
1/2-x,1/2-y,1/2+z
1/2-x,1/2+y,1/2+z
1/2+x,1/2-y,1/2+z
loop_
_atom_site_type_symbol
_atom_site_label
_atom_site_fract_x
_atom_site_fract_y
_atom_site_fract_z
Si Si1 0.564511 0.178586 0.779580
Si Si2 0.436017 0.320229 0.576239
Si Si3 0.837519 0.179109 0.393136
Si Si4 0.776248 0.320160 0.563547
Si Si5 0.726624 0.179832 0.279994
Si Si6 0.165072 0.821007 0.948723
O O1 0.500000 0.214339 0.799815
O O2 0.576839 0.243299 0.675735
O O3 0.606467 0.251225 0.853113
O O4 0.570699 0.000000 0.779148
O O5 0.500000 0.287061 0.552047
O O6 0.430881 0.500000 0.588572
O O7 0.392337 0.273925 0.496759
O O8 0.819891 0.241879 0.494680
O O9 0.786703 0.221717 0.322930
O O10 0.841186 0.000000 0.395188
O O11 0.783526 0.500000 0.559109
O O12 0.779451 0.272172 0.671991
O O13 0.715392 0.286909 0.520884
O O14 0.681074 0.245857 0.350471
O O15 0.723659 0.000000 0.282312
O O16 0.163905 0.000000 0.935981
#
# Coordination Sequence:
#
# PCOD9373772 Si02
#       6
#     8   8   8   8   8   8
#     4  10  20  32  47  69  95 122 152 186 226 273
#     4   9  17  30  48  69  94 124 155 188 227 269
#     4  10  19  31  48  70  94 120 153 190 228 271
#     4   9  17  30  46  65  92 122 151 187 231 275
#     4   9  18  31  47  68  94 123 154 189 228 271
#     4   9  17  29  46  68  93 120 151 189 232 275
#
# _framework density 15.654787000000001
#
# number of rings (size 3 to 8) (size 9 to 14) (size 15 to 20)
#    0.000    2.667    0.000    2.000    0.000    5.667 
#    0.000    3.333    0.000    1.000    0.000    4.667 
#    0.000    0.000    0.000    0.000    0.000    0.000 
#
# Total GULP energy -133815.251620 kJ/mol
# GULP energy per Si atom -5575.635484 kJ/mol
# Density = 1.561916 g / cm^3
# Si number density = 15.654787 Si / 1000 Ang^3
#
#
#
# Elastic Constant Matrix: (Units=GPa)
#
#
# Indices 1 2 3 4 5 6 
#
# 1 83.7609 33.2808 71.9186 0.0000 0.0000 0.0000
# 2 33.2808 22.6815 41.4721 0.0000 0.0000 0.0000
# 3 71.9186 41.4721 152.9244 0.0000 0.0000 0.0000
# 4 0.0000 0.0000 0.0000 29.5256 0.0000 0.0000
# 5 0.0000 0.0000 0.0000 0.0000 27.0632 0.0000
# 6 0.0000 0.0000 0.0000 0.0000 0.0000 20.6058
#
#
#
# Elastic Compliance Matrix: (Units=1/GPa)
#
#
# Indices 1 2 3 4 5 6 
#
# 1 0.029995 -0.036139 -0.004305 0.000000 0.000000 0.000000
# 2 -0.036139 0.130998 -0.018530 0.000000 0.000000 0.000000
# 3 -0.004305 -0.018530 0.013589 0.000000 0.000000 0.000000
# 4 0.000000 0.000000 0.000000 0.033869 0.000000 0.000000
# 5 0.000000 0.000000 0.000000 0.000000 0.036951 0.000000
# 6 0.000000 0.000000 0.000000 0.000000 0.000000 0.048530
#
#
# Mechanical properties :
#
#
# Convention : Reuss Voigt Hill
#
# Bulk Modulus (GPa) = 17.65775 61.41220 39.53497
# Shear Modulus (GPa) = 11.60745 22.95195 17.27970
#
# Velocity S-wave (km/s) = 2.72594 3.83316 3.32595
# Velocity P-wave (km/s) = 4.60560 7.67496 6.32916
#
# Compressibility (1/GPa) = 0.05663237
#
# Stress axis : x y z
#
# Youngs Moduli (GPa) = 33.33920 7.63372 73.58829
#
# Poissons Ratio (x) = 0.27588 0.31683
# Poissons Ratio (y) = 1.20486 1.36358
# Poissons Ratio (z) = 0.14354 0.14145
#
# Static dielectric constant tensor:
#      x y z
#    x 1.515340 0.000000 0.000000 
#    y 0.000000 1.523520 0.000000 
#    z 0.000000 0.000000 1.499600 
# 
# From -- ./inp_files/11134.got.cif
#   From: 2010.05.17/outbox.cif.g08.bks.cpg/sg44_6_cif.got.tgz:11134.got - 2010.06.03 19:37:08.
