data_PCOD9373732
_publ_section_title
;
Structure prediction by ZEFSAII (Michael W. Deem and Ramdas Pophale) SiO2 
 PCOD9373732
Probable space group: I M M 2
;
_chemical_formula_sum "Si O2"
_cell_formula_units_Z 42
_cell_length_a 7.870887
_cell_length_b 24.848627
_cell_length_c 12.806775
_cell_angle_alpha 90.000000
_cell_angle_beta 90.000000
_cell_angle_gamma 90.000000
_cell_volume 2504.758470
_symmetry_space_group_name_H-M "I M M 2"
_symmetry_group_IT_number 44
_symmetry_cell_setting 'orthorhombic'
loop_
_space_group_symop_operation_xyz
x,y,z
-x,-y,z
-x,y,z
x,-y,z
1/2+x,1/2+y,1/2+z
1/2-x,1/2-y,1/2+z
1/2-x,1/2+y,1/2+z
1/2+x,1/2-y,1/2+z
loop_
_atom_site_type_symbol
_atom_site_label
_atom_site_fract_x
_atom_site_fract_y
_atom_site_fract_z
Si Si1 0.798946 0.701817 0.637910
Si Si2 0.195397 0.323590 0.192991
Si Si3 0.293719 0.829392 0.363579
Si Si4 0.000000 0.500000 0.043860
Si Si5 0.802013 0.792680 0.909841
Si Si6 0.691238 0.587730 0.037806
O O1 0.762064 0.764688 0.660520
O O2 0.741732 0.670371 0.741815
O O3 0.719810 0.686864 0.527115
O O4 0.000000 0.694918 0.628840
O O5 0.209102 0.324859 0.318385
O O6 0.292521 0.370885 0.134868
O O7 0.000000 0.326669 0.159288
O O8 0.500000 0.833019 0.368872
O O9 0.244793 0.769919 0.405730
O O10 0.216156 0.875365 0.434758
O O11 0.847684 0.546566 0.043225
O O12 0.000000 0.792652 0.880982
O O13 0.500000 0.564845 0.037253
#
# Coordination Sequence:
#
# PCOD9373732 Si02
#       6
#     8   8   8   2   8   8
#     4  10  19  30  49  79 113 153 189 216 271 353
#     4  11  20  33  51  75 113 151 184 232 282 330
#     4   9  18  33  50  75 115 151 183 231 280 330
#     4  12  26  44  60  82 110 148 202 248 292 330
#     4  10  19  30  48  78 114 152 189 217 267 352
#     4  12  23  39  61  83 110 147 191 243 292 335
#
# _framework density 16.768084000000002
#
# number of rings (size 3 to 8) (size 9 to 14) (size 15 to 20)
#    0.000    1.524    3.810    4.286    0.000    3.810 
#    0.000    0.000    0.000    0.000    0.000    2.667 
#    0.000    3.048    0.000    0.000    0.000    0.000 
#
# Total GULP energy -116904.784027 kJ/mol
# GULP energy per Si atom -5566.894477 kJ/mol
# Density = 1.672992 g / cm^3
# Si number density = 16.768084 Si / 1000 Ang^3
#
#
#
# Elastic Constant Matrix: (Units=GPa)
#
#
# Indices 1 2 3 4 5 6 
#
# 1 92.2603 32.2063 11.1917 0.0000 0.0000 0.0000
# 2 32.2063 73.4790 32.2152 0.0000 0.0000 0.0000
# 3 11.1917 32.2152 112.4682 0.0001 0.0000 0.0000
# 4 0.0000 0.0000 0.0001 -1.8151 0.0000 0.0000
# 5 0.0000 0.0000 0.0000 0.0000 25.2977 0.0000
# 6 0.0000 0.0000 0.0000 0.0000 0.0000 22.2234
#
#
#
# Elastic Compliance Matrix: (Units=1/GPa)
#
#
# Indices 1 2 3 4 5 6 
#
# 1 0.012811 -0.005782 0.000381 0.000000 0.000000 0.000000
# 2 -0.005782 0.018174 -0.004630 0.000000 0.000000 0.000000
# 3 0.000381 -0.004630 0.010180 0.000000 0.000000 0.000000
# 4 0.000000 0.000000 0.000000 -0.550938 0.000000 0.000000
# 5 0.000000 0.000000 0.000000 0.000000 0.039529 0.000000
# 6 0.000000 0.000000 0.000000 0.000000 0.000000 0.044998
#
#
# Mechanical properties :
#
#
# Convention : Reuss Voigt Hill
#
# Bulk Modulus (GPa) = 47.38832 47.71485 47.55159
# Shear Modulus (GPa) = -12.55810 22.64750 5.04470
#
# Velocity S-wave (km/s) = -2.73962 3.67908 1.73639
# Velocity P-wave (km/s) = 4.27960 6.82386 5.69561
#
# Compressibility (1/GPa) = 0.02110225
#
# Stress axis : x y z
#
# Youngs Moduli (GPa) = 78.05686 55.02409 98.23450
#
# Poissons Ratio (x) = 0.31817 -0.03747
# Poissons Ratio (y) = 0.45136 0.45485
# Poissons Ratio (z) = -0.02978 0.25478
#
# Static dielectric constant tensor:
#      x y z
#    x 1.591590 0.000000 0.000000 
#    y 0.000000 1.525620 0.000000 
#    z 0.000000 0.000000 1.599150 
# 
# From -- ./inp_files/11085.got.cif
#   From: 2010.05.17/outbox.cif.g08.bks.cpg/sg44_6_cif.got.tgz:11085.got - 2010.06.03 19:37:08.
