data_PCOD9373710
_publ_section_title
;
Structure prediction by ZEFSAII (Michael W. Deem and Ramdas Pophale) SiO2 
 PCOD9373710
Probable space group: I M M 2
;
_chemical_formula_sum "Si O2"
_cell_formula_units_Z 64
_cell_length_a 22.556795
_cell_length_b 9.056311
_cell_length_c 15.917792
_cell_angle_alpha 90.000000
_cell_angle_beta 90.000000
_cell_angle_gamma 90.000000
_cell_volume 3251.708050
_symmetry_space_group_name_H-M "I M M 2"
_symmetry_group_IT_number 44
_symmetry_cell_setting 'orthorhombic'
loop_
_space_group_symop_operation_xyz
x,y,z
-x,-y,z
-x,y,z
x,-y,z
1/2+x,1/2+y,1/2+z
1/2-x,1/2-y,1/2+z
1/2-x,1/2+y,1/2+z
1/2+x,1/2-y,1/2+z
loop_
_atom_site_type_symbol
_atom_site_label
_atom_site_fract_x
_atom_site_fract_y
_atom_site_fract_z
Si Si1 0.434199 0.675013 0.210310
Si Si2 0.071419 0.331989 0.362824
Si Si3 0.572032 0.332340 0.695979
Si Si4 0.811141 0.321543 0.763861
Si Si5 0.312650 0.823798 0.448055
Si Si6 0.114358 0.826643 0.528422
Si Si7 0.765583 0.323874 0.587439
Si Si8 0.933217 0.676296 0.020937
O O1 0.500000 0.726500 0.236743
O O2 0.429309 0.500000 0.229076
O O3 0.376936 0.757554 0.247006
O O4 0.428354 0.689961 0.108989
O O5 0.092992 0.500000 0.372559
O O6 0.093397 0.258965 0.276330
O O7 0.087750 0.233276 0.442422
O O8 0.000000 0.337412 0.357714
O O9 0.500000 0.337745 0.701401
O O10 0.594483 0.500000 0.697351
O O11 0.584393 0.254172 0.607886
O O12 0.815458 0.500000 0.763569
O O13 0.789914 0.275496 0.856528
O O14 0.769131 0.278287 0.685741
O O15 0.283147 0.747506 0.527718
O O16 0.383030 0.793438 0.452799
O O17 0.303644 0.000000 0.455552
O O18 0.172257 0.732158 0.549877
O O19 0.129376 0.000000 0.521276
O O20 0.760958 0.500000 0.584073
O O21 0.934026 0.500000 0.035300
O O22 0.000000 0.722805 0.997888
#
# Coordination Sequence:
#
# PCOD9373710 Si02
#       8
#     8   8   8   8   8   8   8   8
#     4   9  18  32  52  81 116 151 186 226 278 338
#     4  10  19  30  47  74 109 147 189 237 286 337
#     4   9  17  30  48  71 103 143 183 224 274 330
#     4   9  20  38  59  83 113 148 190 238 284 335
#     4  10  21  39  62  86 112 147 190 234 285 345
#     4  10  19  33  53  76 107 148 191 237 284 335
#     4  10  21  39  59  81 111 147 188 239 289 336
#     4   9  18  34  56  81 110 143 180 227 282 341
#
# _framework density 19.681964000000001
#
# number of rings (size 3 to 8) (size 9 to 14) (size 15 to 20)
#    0.000    2.500    0.000    1.875    0.000    5.500 
#    2.250    1.250    0.000    1.500    0.000    0.000 
#    0.000    0.000    0.000    0.000    0.000    0.000 
#
# Total GULP energy -178493.561553 kJ/mol
# GULP energy per Si atom -5577.923799 kJ/mol
# Density = 1.963717 g / cm^3
# Si number density = 19.681964 Si / 1000 Ang^3
#
#
#
# Elastic Constant Matrix: (Units=GPa)
#
#
# Indices 1 2 3 4 5 6 
#
# 1 52.6954 14.8661 35.1754 0.0000 0.0000 0.0000
# 2 14.8661 27.4478 43.6896 0.0000 0.0000 0.0000
# 3 35.1754 43.6896 124.5414 0.0000 0.0000 0.0000
# 4 0.0000 0.0000 0.0000 22.7574 0.0000 0.0000
# 5 0.0000 0.0000 0.0000 0.0000 18.0937 0.0000
# 6 0.0000 0.0000 0.0000 0.0000 0.0000 24.9829
#
#
#
# Elastic Compliance Matrix: (Units=1/GPa)
#
#
# Indices 1 2 3 4 5 6 
#
# 1 0.023678 -0.004935 -0.004956 0.000000 0.000000 0.000000
# 2 -0.004935 0.083528 -0.027908 0.000000 0.000000 0.000000
# 3 -0.004956 -0.027908 0.019220 0.000000 0.000000 0.000000
# 4 0.000000 0.000000 0.000000 0.043942 0.000000 0.000000
# 5 0.000000 0.000000 0.000000 0.000000 0.055268 0.000000
# 6 0.000000 0.000000 0.000000 0.000000 0.000000 0.040027
#
#
# Mechanical properties :
#
#
# Convention : Reuss Voigt Hill
#
# Bulk Modulus (GPa) = 19.67481 43.57187 31.62334
# Shear Modulus (GPa) = 13.95854 20.56369 17.26112
#
# Velocity S-wave (km/s) = 2.66598 3.23584 2.96463
# Velocity P-wave (km/s) = 4.41528 6.01223 5.27454
#
# Compressibility (1/GPa) = 0.05082642
#
# Stress axis : x y z
#
# Youngs Moduli (GPa) = 42.23391 11.97200 52.03023
#
# Poissons Ratio (x) = 0.05908 0.25787
# Poissons Ratio (y) = 0.20843 1.45207
# Poissons Ratio (z) = 0.20932 0.33412
#
# Static dielectric constant tensor:
#      x y z
#    x 1.705940 0.000000 0.000000 
#    y 0.000000 1.664790 0.000000 
#    z 0.000000 0.000000 1.684550 
# 
# From -- ./inp_files/16874.got.cif
#   From: 2010.05.17/outbox.cif.g08.bks.cpg/sg44_9_cif.got.tgz:16874.got - 2010.06.03 19:37:08.
