data_PCOD9373614
_publ_section_title
;
Structure prediction by ZEFSAII (Michael W. Deem and Ramdas Pophale) SiO2 
 PCOD9373614
Probable space group: I M M 2
;
_chemical_formula_sum "Si O2"
_cell_formula_units_Z 40
_cell_length_a 14.176423
_cell_length_b 7.393909
_cell_length_c 19.141028
_cell_angle_alpha 90.000000
_cell_angle_beta 90.000000
_cell_angle_gamma 90.000000
_cell_volume 2006.346890
_symmetry_space_group_name_H-M "I M M 2"
_symmetry_group_IT_number 44
_symmetry_cell_setting 'orthorhombic'
loop_
_space_group_symop_operation_xyz
x,y,z
-x,-y,z
-x,y,z
x,-y,z
1/2+x,1/2+y,1/2+z
1/2-x,1/2-y,1/2+z
1/2-x,1/2+y,1/2+z
1/2+x,1/2-y,1/2+z
loop_
_atom_site_type_symbol
_atom_site_label
_atom_site_fract_x
_atom_site_fract_y
_atom_site_fract_z
Si Si1 0.795680 0.279593 0.906390
Si Si2 0.105781 0.720378 0.050452
Si Si3 0.394275 0.279358 0.976950
Si Si4 0.295578 0.716866 0.119015
Si Si5 0.893282 0.285327 0.765807
O O1 0.794533 0.500000 0.905488
O O2 0.689084 0.222491 0.924740
O O3 0.837564 0.214506 0.833352
O O4 0.860894 0.228379 0.972359
O O5 0.104349 0.500000 0.051856
O O6 0.189207 0.780010 0.102378
O O7 0.000000 0.782499 0.065683
O O8 0.500000 0.218685 0.960948
O O9 0.395129 0.500000 0.976629
O O10 0.361783 0.222355 0.054745
O O11 0.293361 0.500000 0.114432
O O12 0.337363 0.761499 0.193919
O O13 0.901184 0.500000 0.776837
O O14 0.000000 0.213039 0.760527
#
# Coordination Sequence:
#
# PCOD9373614 Si02
#       5
#     8   8   8   8   8
#     4   8  14  24  39  60  83 107 139 175 207 243
#     4   8  13  24  44  66  84 106 141 181 212 238
#     4   8  13  23  41  63  83 104 136 178 213 238
#     4   9  17  28  44  66  88 110 139 174 209 248
#     4  10  19  29  42  62  88 114 138 170 213 255
#
# _framework density 19.936731999999999
#
# number of rings (size 3 to 8) (size 9 to 14) (size 15 to 20)
#    0.000    3.400    0.000    3.600    0.000    3.600 
#    0.000    1.000    0.000    6.600    0.000    0.000 
#    0.000    0.000    0.000    0.000    0.000    0.000 
#
# Total GULP energy -111535.359740 kJ/mol
# GULP energy per Si atom -5576.767987 kJ/mol
# Density = 1.989136 g / cm^3
# Si number density = 19.936732 Si / 1000 Ang^3
#
#
#
# Elastic Constant Matrix: (Units=GPa)
#
#
# Indices 1 2 3 4 5 6 
#
# 1 226.9620 7.0025 118.5989 0.0000 0.0000 0.0000
# 2 7.0025 65.6728 0.8850 0.0000 0.0000 0.0000
# 3 118.5989 0.8850 166.0698 0.0000 0.0000 0.0000
# 4 0.0000 0.0000 0.0000 16.8337 0.0000 0.0000
# 5 0.0000 0.0000 0.0000 0.0000 16.3618 0.0000
# 6 0.0000 0.0000 0.0000 0.0000 0.0000 -1.4910
#
#
#
# Elastic Compliance Matrix: (Units=1/GPa)
#
#
# Indices 1 2 3 4 5 6 
#
# 1 0.007060 -0.000685 -0.005038 0.000000 0.000000 0.000000
# 2 -0.000685 0.015295 0.000408 0.000000 0.000000 0.000000
# 3 -0.005038 0.000408 0.009617 0.000000 0.000000 0.000000
# 4 0.000000 0.000000 0.000000 0.059405 0.000000 0.000000
# 5 0.000000 0.000000 0.000000 0.000000 0.061118 0.000000
# 6 0.000000 0.000000 0.000000 0.000000 0.000000 -0.670699
#
#
# Mechanical properties :
#
#
# Convention : Reuss Voigt Hill
#
# Bulk Modulus (GPa) = 46.85835 79.07525 62.96680
# Shear Modulus (GPa) = -9.99080 28.48879 9.24899
#
# Velocity S-wave (km/s) = -2.24101 3.78426 2.15621
# Velocity P-wave (km/s) = 4.10589 7.67094 6.15231
#
# Compressibility (1/GPa) = 0.02134092
#
# Stress axis : x y z
#
# Youngs Moduli (GPa) = 141.64646 65.38287 103.97840
#
# Poissons Ratio (x) = 0.04478 0.52386
# Poissons Ratio (y) = 0.09701 -0.04238
# Poissons Ratio (z) = 0.71363 -0.02665
#
# Static dielectric constant tensor:
#      x y z
#    x 1.705150 0.000000 0.000000 
#    y 0.000000 1.786490 0.000000 
#    z 0.000000 0.000000 1.661640 
# 
# From -- ./inp_files/15798.got.cif
#   From: 2010.05.17/outbox.cif.g08.bks.cpg/sg44_8_cif.got.tgz:15798.got - 2010.06.03 19:37:08.
