data_PCOD9373271
_publ_section_title
;
Structure prediction by ZEFSAII (Michael W. Deem and Ramdas Pophale) SiO2 
 PCOD9373271
Probable space group: I M M 2
;
_chemical_formula_sum "Si O2"
_cell_formula_units_Z 64
_cell_length_a 7.419806
_cell_length_b 20.354566
_cell_length_c 21.625430
_cell_angle_alpha 90.000000
_cell_angle_beta 90.000000
_cell_angle_gamma 90.000000
_cell_volume 3266.022323
_symmetry_space_group_name_H-M "I M M 2"
_symmetry_group_IT_number 44
_symmetry_cell_setting 'orthorhombic'
loop_
_space_group_symop_operation_xyz
x,y,z
-x,-y,z
-x,y,z
x,-y,z
1/2+x,1/2+y,1/2+z
1/2-x,1/2-y,1/2+z
1/2-x,1/2+y,1/2+z
1/2+x,1/2-y,1/2+z
loop_
_atom_site_type_symbol
_atom_site_label
_atom_site_fract_x
_atom_site_fract_y
_atom_site_fract_z
Si Si1 0.220517 0.211663 0.437580
Si Si2 0.281082 0.572554 0.987813
Si Si3 0.711527 0.213590 0.058417
Si Si4 0.280025 0.426998 0.745976
Si Si5 0.783169 0.789356 0.679878
Si Si6 0.283151 0.572520 0.602552
Si Si7 0.719327 0.427241 0.132103
Si Si8 0.714097 0.292220 0.802414
O O1 0.274987 0.136141 0.449914
O O2 0.284637 0.255358 0.495265
O O3 0.281336 0.231430 0.369067
O O4 0.000000 0.214101 0.438695
O O5 0.500000 0.571896 0.986231
O O6 0.220902 0.500000 0.967282
O O7 0.230390 0.581338 0.059920
O O8 0.500000 0.230030 0.058620
O O9 0.785066 0.246234 0.121556
O O10 0.727991 0.135404 0.063468
O O11 0.500000 0.426600 0.746820
O O12 0.224405 0.500000 0.766649
O O13 0.225676 0.418569 0.674111
O O14 0.215266 0.364529 0.784207
O O15 0.719780 0.864166 0.670461
O O16 0.740188 0.756020 0.744848
O O17 0.000000 0.790305 0.676366
O O18 0.500000 0.571763 0.603075
O O19 0.221879 0.500000 0.582004
O O20 0.500000 0.427562 0.133285
O O21 0.778742 0.500000 0.152173
O O22 0.500000 0.300323 0.809249
#
# Coordination Sequence:
#
# PCOD9373271 Si02
#       8
#     8   8   8   8   8   8   8   8
#     4   9  17  28  41  64  96 125 151 185 229 271
#     4   8  12  20  37  63  93 119 145 179 219 263
#     4  10  18  29  47  70  95 121 152 191 233 274
#     4   8  14  25  41  63  91 120 149 181 217 261
#     4  10  18  29  47  69  93 120 152 192 229 266
#     4   9  17  30  48  69  93 119 152 194 232 269
#     4   8  13  23  42  67  92 116 143 181 228 267
#     4  10  19  30  46  66  93 126 156 185 223 275
#
# _framework density 19.595701999999999
#
# number of rings (size 3 to 8) (size 9 to 14) (size 15 to 20)
#    0.000    3.000    2.500    1.500    0.000    0.750 
#    0.000    3.125    0.000    1.500    0.000    3.500 
#    0.000    1.500    0.000    0.000    0.000    0.000 
#
# Total GULP energy -178453.939232 kJ/mol
# GULP energy per Si atom -5576.685601 kJ/mol
# Density = 1.955110 g / cm^3
# Si number density = 19.595702 Si / 1000 Ang^3
#
#
#
# Elastic Constant Matrix: (Units=GPa)
#
#
# Indices 1 2 3 4 5 6 
#
# 1 58.9310 -3.5391 5.9126 0.0000 0.0000 0.0000
# 2 -3.5391 137.9490 94.7635 0.0000 0.0000 0.0000
# 3 5.9126 94.7635 145.2491 0.0000 0.0000 0.0000
# 4 0.0000 0.0000 0.0000 21.1362 0.0000 0.0000
# 5 0.0000 0.0000 0.0000 0.0000 7.9793 0.0000
# 6 0.0000 0.0000 0.0000 0.0000 0.0000 -5.5288
#
#
#
# Elastic Compliance Matrix: (Units=1/GPa)
#
#
# Indices 1 2 3 4 5 6 
#
# 1 0.017250 0.001676 -0.001796 0.000000 0.000000 0.000000
# 2 0.001676 0.013299 -0.008745 0.000000 0.000000 0.000000
# 3 -0.001796 -0.008745 0.012663 0.000000 0.000000 0.000000
# 4 0.000000 0.000000 0.000000 0.047312 0.000000 0.000000
# 5 0.000000 0.000000 0.000000 0.000000 0.125324 0.000000
# 6 0.000000 0.000000 0.000000 0.000000 0.000000 -0.180870
#
#
# Mechanical properties :
#
#
# Convention : Reuss Voigt Hill
#
# Bulk Modulus (GPa) = 39.24153 59.60036 49.42094
# Shear Modulus (GPa) = 81.69647 21.05014 51.37331
#
# Velocity S-wave (km/s) = 6.46386 3.28109 5.12577
# Velocity P-wave (km/s) = 8.70504 6.69590 7.76572
#
# Compressibility (1/GPa) = 0.02548321
#
# Stress axis : x y z
#
# Youngs Moduli (GPa) = 57.97159 75.19106 78.96840
#
# Poissons Ratio (x) = -0.12603 0.14180
# Poissons Ratio (y) = -0.09717 0.69058
# Poissons Ratio (z) = 0.10410 0.65755
#
# Static dielectric constant tensor:
#      x y z
#    x 1.792420 0.000000 0.000000 
#    y 0.000000 1.694350 0.000000 
#    z 0.000000 0.000000 1.670840 
# 
# From -- ./inp_files/20796.got.cif
#   From: 2010.05.17/outbox.cif.g08.bks.cpg/sg44_11_cif.got.tgz:20796.got - 2010.06.03 19:37:08.
