data_PCOD9373297
_publ_section_title
;
Structure prediction by ZEFSAII (Michael W. Deem and Ramdas Pophale) SiO2 
 PCOD9373297
Probable space group: I M M 2
;
_chemical_formula_sum "Si O2"
_cell_formula_units_Z 48
_cell_length_a 8.632244
_cell_length_b 14.138507
_cell_length_c 24.491779
_cell_angle_alpha 90.000000
_cell_angle_beta 90.000000
_cell_angle_gamma 90.000000
_cell_volume 2989.149186
_symmetry_space_group_name_H-M "I M M 2"
_symmetry_group_IT_number 44
_symmetry_cell_setting 'orthorhombic'
loop_
_space_group_symop_operation_xyz
x,y,z
-x,-y,z
-x,y,z
x,-y,z
1/2+x,1/2+y,1/2+z
1/2-x,1/2-y,1/2+z
1/2-x,1/2+y,1/2+z
1/2+x,1/2-y,1/2+z
loop_
_atom_site_type_symbol
_atom_site_label
_atom_site_fract_x
_atom_site_fract_y
_atom_site_fract_z
Si Si1 0.684263 0.784041 0.289710
Si Si2 0.686704 0.611064 0.686211
Si Si3 0.314096 0.109178 0.850073
Si Si4 0.688548 0.391616 0.562277
Si Si5 0.185913 0.891270 0.394489
Si Si6 0.313650 0.283668 0.455131
O O1 0.500000 0.781685 0.294034
O O2 0.736622 0.823873 0.231575
O O3 0.751254 0.680902 0.304379
O O4 0.750453 0.853261 0.336737
O O5 0.500000 0.619958 0.689869
O O6 0.723440 0.500000 0.695839
O O7 0.734952 0.633984 0.623979
O O8 0.500000 0.116638 0.852228
O O9 0.245990 0.146943 0.907330
O O10 0.271508 0.000000 0.841124
O O11 0.500000 0.392068 0.562173
O O12 0.737635 0.500000 0.551367
O O13 0.738623 0.323089 0.513739
O O14 0.250295 0.819437 0.439717
O O15 0.000000 0.885078 0.393235
O O16 0.230961 0.000000 0.403171
O O17 0.500000 0.282203 0.453453
#
# Coordination Sequence:
#
# PCOD9373297 Si02
#       6
#     8   8   8   8   8   8
#     4  11  21  31  47  71  97 122 151 193 238 277
#     4   9  17  31  50  69  93 126 159 190 226 273
#     4  10  20  33  49  69  94 125 158 189 225 275
#     4   8  15  28  47  71  96 123 154 186 225 274
#     4  10  20  33  48  66  92 127 161 191 228 277
#     4  10  18  29  49  74  98 122 151 192 234 272
#
# _framework density 16.05808
#
# number of rings (size 3 to 8) (size 9 to 14) (size 15 to 20)
#    0.000    2.333    0.000    7.000    0.000    5.667 
#    0.000    1.667    0.000    3.000    0.000    2.333 
#    0.000    0.000    0.000    0.000    0.000    0.000 
#
# Total GULP energy -133879.059780 kJ/mol
# GULP energy per Si atom -5578.294157 kJ/mol
# Density = 1.602153 g / cm^3
# Si number density = 16.058080 Si / 1000 Ang^3
#
#
#
# Elastic Constant Matrix: (Units=GPa)
#
#
# Indices 1 2 3 4 5 6 
#
# 1 54.8526 49.2645 35.4536 0.0000 0.0000 0.0000
# 2 49.2645 153.7274 94.6632 0.0000 0.0000 0.0000
# 3 35.4536 94.6632 127.1113 0.0000 0.0000 0.0000
# 4 0.0000 0.0000 0.0000 21.9679 0.0000 0.0000
# 5 0.0000 0.0000 0.0000 0.0000 23.3619 0.0000
# 6 0.0000 0.0000 0.0000 0.0000 0.0000 14.6862
#
#
#
# Elastic Compliance Matrix: (Units=1/GPa)
#
#
# Indices 1 2 3 4 5 6 
#
# 1 0.025850 -0.007100 -0.001922 0.000000 0.000000 0.000000
# 2 -0.007100 0.013965 -0.008420 0.000000 0.000000 0.000000
# 3 -0.001922 -0.008420 0.014674 0.000000 0.000000 0.000000
# 4 0.000000 0.000000 0.000000 0.045521 0.000000 0.000000
# 5 0.000000 0.000000 0.000000 0.000000 0.042805 0.000000
# 6 0.000000 0.000000 0.000000 0.000000 0.000000 0.068091
#
#
# Mechanical properties :
#
#
# Convention : Reuss Voigt Hill
#
# Bulk Modulus (GPa) = 51.00948 77.16152 64.08550
# Shear Modulus (GPa) = 19.81563 22.42386 21.11974
#
# Velocity S-wave (km/s) = 3.51664 3.74093 3.63052
# Velocity P-wave (km/s) = 6.95152 8.17406 7.58745
#
# Compressibility (1/GPa) = 0.01960420
#
# Stress axis : x y z
#
# Youngs Moduli (GPa) = 38.68446 71.60577 68.14870
#
# Poissons Ratio (x) = 0.50843 0.13099
# Poissons Ratio (y) = 0.27468 0.57381
# Poissons Ratio (z) = 0.07436 0.60292
#
# Static dielectric constant tensor:
#      x y z
#    x 1.544500 0.000000 0.000000 
#    y 0.000000 1.528750 0.000000 
#    z 0.000000 0.000000 1.527530 
# 
# From -- ./inp_files/22903.got.cif
#   From: 2010.05.17/outbox.cif.g08.bks.cpg/sg44_12_cif.got.tgz:22903.got - 2010.06.03 19:37:08.
