data_PCOD9373807
_publ_section_title
;
Structure prediction by ZEFSAII (Michael W. Deem and Ramdas Pophale) SiO2 
 PCOD9373807
Probable space group: I M M 2
;
_chemical_formula_sum "Si O2"
_cell_formula_units_Z 64
_cell_length_a 14.555907
_cell_length_b 8.939491
_cell_length_c 28.876395
_cell_angle_alpha 90.000000
_cell_angle_beta 90.000000
_cell_angle_gamma 90.000000
_cell_volume 3757.465810
_symmetry_space_group_name_H-M "I M M 2"
_symmetry_group_IT_number 44
_symmetry_cell_setting 'orthorhombic'
loop_
_space_group_symop_operation_xyz
x,y,z
-x,-y,z
-x,y,z
x,-y,z
1/2+x,1/2+y,1/2+z
1/2-x,1/2-y,1/2+z
1/2-x,1/2+y,1/2+z
1/2+x,1/2-y,1/2+z
loop_
_atom_site_type_symbol
_atom_site_label
_atom_site_fract_x
_atom_site_fract_y
_atom_site_fract_z
Si Si1 0.784542 0.320573 0.703760
Si Si2 0.892580 0.321163 0.887585
Si Si3 0.890510 0.674386 0.609746
Si Si4 0.893041 0.821859 0.787622
Si Si5 0.607412 0.322124 0.012366
Si Si6 0.779028 0.177980 0.970424
Si Si7 0.105666 0.821037 0.152885
Si Si8 0.890065 0.675514 0.053971
O O1 0.793384 0.500000 0.710313
O O2 0.839045 0.281716 0.656548
O O3 0.828275 0.238233 0.747164
O O4 0.678695 0.284090 0.692564
O O5 0.881887 0.500000 0.888284
O O6 0.873632 0.257792 0.836450
O O7 0.827682 0.246698 0.925493
O O8 0.000000 0.287240 0.898275
O O9 0.867885 0.500000 0.599862
O O10 0.868018 0.771050 0.564656
O O11 0.000000 0.684553 0.617435
O O12 0.000000 0.788953 0.775666
O O13 0.883968 0.000000 0.792895
O O14 0.500000 0.283200 0.005242
O O15 0.617553 0.500000 0.008246
O O16 0.676404 0.239676 0.978006
O O17 0.779399 0.000000 0.968340
O O18 0.836501 0.234581 0.014879
O O19 0.129882 0.738522 0.105082
O O20 0.000000 0.785525 0.164531
O O21 0.112131 0.000000 0.144608
O O22 0.866818 0.500000 0.050870
O O23 0.000000 0.690914 0.046845
#
# Coordination Sequence:
#
# PCOD9373807 Si02
#       8
#     8   8   8   8   8   8   8   8
#     4  10  19  31  50  74 100 135 175 211 251 302
#     4  10  21  38  59  81 106 134 164 203 253 309
#     4   9  17  29  46  71 103 136 172 213 256 305
#     4  10  21  36  54  78 106 132 161 203 256 311
#     4  10  21  36  53  74 103 139 178 219 260 302
#     4  12  23  34  53  78 105 138 174 212 255 306
#     4   9  18  32  49  72 104 140 177 216 257 300
#     4  10  20  33  50  75 107 140 175 215 258 306
#
# _framework density 17.032757
#
# number of rings (size 3 to 8) (size 9 to 14) (size 15 to 20)
#    0.000    2.000    0.000    4.125    0.000    7.000 
#    0.000    1.250    0.000    0.750    0.000    1.750 
#    0.000    0.000    0.000    0.000    0.000    0.000 
#
# Total GULP energy -178741.866667 kJ/mol
# GULP energy per Si atom -5585.683333 kJ/mol
# Density = 1.699399 g / cm^3
# Si number density = 17.032757 Si / 1000 Ang^3
#
#
#
# Elastic Constant Matrix: (Units=GPa)
#
#
# Indices 1 2 3 4 5 6 
#
# 1 99.5973 64.7146 88.0318 0.0000 0.0000 0.0000
# 2 64.7146 85.2236 67.7718 0.0000 0.0000 0.0000
# 3 88.0318 67.7718 113.9895 0.0000 0.0000 0.0000
# 4 0.0000 0.0000 0.0000 34.2068 0.0000 0.0000
# 5 0.0000 0.0000 0.0000 0.0000 32.6118 0.0000
# 6 0.0000 0.0000 0.0000 0.0000 0.0000 23.5482
#
#
#
# Elastic Compliance Matrix: (Units=1/GPa)
#
#
# Indices 1 2 3 4 5 6 
#
# 1 0.035457 -0.009766 -0.021576 0.000000 0.000000 0.000000
# 2 -0.009766 0.024947 -0.007290 0.000000 0.000000 0.000000
# 3 -0.021576 -0.007290 0.029769 0.000000 0.000000 0.000000
# 4 0.000000 0.000000 0.000000 0.029234 0.000000 0.000000
# 5 0.000000 0.000000 0.000000 0.000000 0.030664 0.000000
# 6 0.000000 0.000000 0.000000 0.000000 0.000000 0.042466
#
#
# Mechanical properties :
#
#
# Convention : Reuss Voigt Hill
#
# Bulk Modulus (GPa) = 77.46505 82.20519 79.83512
# Shear Modulus (GPa) = 18.24125 23.29284 20.76704
#
# Velocity S-wave (km/s) = 3.27609 3.70203 3.49555
# Velocity P-wave (km/s) = 7.73881 8.16340 7.95394
#
# Compressibility (1/GPa) = 0.01290905
#
# Stress axis : x y z
#
# Youngs Moduli (GPa) = 28.20327 40.08522 33.59156
#
# Poissons Ratio (x) = 0.39149 0.72477
# Poissons Ratio (y) = 0.27545 0.24487
# Poissons Ratio (z) = 0.60851 0.29220
#
# Static dielectric constant tensor:
#      x y z
#    x 1.597750 0.000000 0.000000 
#    y 0.000000 1.570060 0.000000 
#    z 0.000000 0.000000 1.533760 
# 
# From -- ./inp_files/25133.got.cif
#   From: 2010.05.17/outbox.cif.g08.bks.cpg/sg44_13_cif.got.tgz:25133.got - 2010.06.03 19:37:08.
