data_PCOD9373943
_publ_section_title
;
Structure prediction by ZEFSAII (Michael W. Deem and Ramdas Pophale) SiO2 
 PCOD9373943
Probable space group: I M M 2
;
_chemical_formula_sum "Si O2"
_cell_formula_units_Z 40
_cell_length_a 28.991771
_cell_length_b 8.893918
_cell_length_c 9.649934
_cell_angle_alpha 90.000000
_cell_angle_beta 90.000000
_cell_angle_gamma 90.000000
_cell_volume 2488.239669
_symmetry_space_group_name_H-M "I M M 2"
_symmetry_group_IT_number 44
_symmetry_cell_setting 'orthorhombic'
loop_
_space_group_symop_operation_xyz
x,y,z
-x,-y,z
-x,y,z
x,-y,z
1/2+x,1/2+y,1/2+z
1/2-x,1/2-y,1/2+z
1/2-x,1/2+y,1/2+z
1/2+x,1/2-y,1/2+z
loop_
_atom_site_type_symbol
_atom_site_label
_atom_site_fract_x
_atom_site_fract_y
_atom_site_fract_z
Si Si1 0.293409 0.179387 0.191740
Si Si2 0.947038 0.178480 0.322609
Si Si3 0.292990 0.679781 0.493316
Si Si4 0.360849 0.322482 0.984512
Si Si5 0.136838 0.678761 0.198815
O O1 0.287252 0.255005 0.340325
O O2 0.295636 0.000000 0.206998
O O3 0.250929 0.216645 0.089717
O O4 0.338752 0.241209 0.114432
O O5 0.916006 0.197704 0.461668
O O6 0.916495 0.268685 0.211027
O O7 0.000000 0.224377 0.334028
O O8 0.945273 0.000000 0.290463
O O9 0.297632 0.500000 0.487892
O O10 0.337046 0.752022 0.568950
O O11 0.350784 0.500000 0.987824
O O12 0.342007 0.250245 0.840721
O O13 0.140769 0.500000 0.202057
#
# Coordination Sequence:
#
# PCOD9373943 Si02
#       5
#     8   8   8   8   8
#     4  11  23  36  53  77 105 139 180 225 268 313
#     4   8  16  32  55  81 108 140 178 218 264 319
#     4  11  23  37  53  74 105 144 180 217 268 323
#     4   9  18  33  53  77 106 139 175 215 262 316
#     4  10  19  32  52  79 108 136 175 222 264 307
#
# _framework density 16.075623
#
# number of rings (size 3 to 8) (size 9 to 14) (size 15 to 20)
#    1.200    1.000    0.000    4.200    0.000    6.800 
#    0.000    0.000    0.000    1.200    0.000    2.800 
#    0.000    0.000    0.000    0.000    0.000    0.000 
#
# Total GULP energy -111357.414124 kJ/mol
# GULP energy per Si atom -5567.870706 kJ/mol
# Density = 1.603903 g / cm^3
# Si number density = 16.075623 Si / 1000 Ang^3
#
#
#
# Elastic Constant Matrix: (Units=GPa)
#
#
# Indices 1 2 3 4 5 6 
#
# 1 107.1236 54.9462 57.2383 0.0000 0.0000 0.0000
# 2 54.9462 74.7187 55.1107 0.0000 0.0000 0.0000
# 3 57.2383 55.1107 121.6299 0.0000 0.0000 0.0000
# 4 0.0000 0.0000 0.0000 31.2479 0.0000 0.0000
# 5 0.0000 0.0000 0.0000 0.0000 20.8144 0.0000
# 6 0.0000 0.0000 0.0000 0.0000 0.0000 -46.4981
#
#
#
# Elastic Compliance Matrix: (Units=1/GPa)
#
#
# Indices 1 2 3 4 5 6 
#
# 1 0.015806 -0.009217 -0.003262 0.000000 0.000000 0.000000
# 2 -0.009217 0.025477 -0.007206 0.000000 0.000000 0.000000
# 3 -0.003262 -0.007206 0.013022 0.000000 0.000000 0.000000
# 4 0.000000 0.000000 0.000000 0.032002 0.000000 0.000000
# 5 0.000000 0.000000 0.000000 0.000000 0.048044 0.000000
# 6 0.000000 0.000000 0.000000 0.000000 0.000000 -0.021506
#
#
# Mechanical properties :
#
#
# Convention : Reuss Voigt Hill
#
# Bulk Modulus (GPa) = 66.96090 70.89585 68.92837
# Shear Modulus (GPa) = 31.80850 10.19131 20.99991
#
# Velocity S-wave (km/s) = 4.45306 2.52059 3.61823
# Velocity P-wave (km/s) = 8.25735 7.25730 7.77342
#
# Compressibility (1/GPa) = 0.01493409
#
# Stress axis : x y z
#
# Youngs Moduli (GPa) = 63.26911 39.25185 76.79571
#
# Poissons Ratio (x) = 0.36179 0.25048
# Poissons Ratio (y) = 0.58317 0.55338
# Poissons Ratio (z) = 0.20636 0.28284
#
# Static dielectric constant tensor:
#      x y z
#    x 1.556820 0.000000 0.000000 
#    y 0.000000 1.531300 0.000000 
#    z 0.000000 0.000000 1.519140 
# 
# From -- ./inp_files/4731.got.cif
#   From: 2010.05.17/outbox.cif.g08.bks.cpg/sg44_3_cif.got.tgz:4731.got - 2010.06.03 19:37:08.
