data_PCOD9373385
_publ_section_title
;
Structure prediction by ZEFSAII (Michael W. Deem and Ramdas Pophale) SiO2 
 PCOD9373385
Probable space group: I M M 2
;
_chemical_formula_sum "Si O2"
_cell_formula_units_Z 64
_cell_length_a 8.888511
_cell_length_b 19.115425
_cell_length_c 21.989721
_cell_angle_alpha 90.000000
_cell_angle_beta 90.000000
_cell_angle_gamma 90.000000
_cell_volume 3736.222158
_symmetry_space_group_name_H-M "I M M 2"
_symmetry_group_IT_number 44
_symmetry_cell_setting 'orthorhombic'
loop_
_space_group_symop_operation_xyz
x,y,z
-x,-y,z
-x,y,z
x,-y,z
1/2+x,1/2+y,1/2+z
1/2-x,1/2-y,1/2+z
1/2-x,1/2+y,1/2+z
1/2+x,1/2-y,1/2+z
loop_
_atom_site_type_symbol
_atom_site_label
_atom_site_fract_x
_atom_site_fract_y
_atom_site_fract_z
Si Si1 0.820037 0.079671 0.931190
Si Si2 0.318743 0.717543 0.734499
Si Si3 0.319811 0.223915 0.602128
Si Si4 0.679888 0.864170 0.054228
Si Si5 0.175338 0.922024 0.595891
Si Si6 0.174600 0.326157 0.329011
Si Si7 0.319515 0.921411 0.187804
Si Si8 0.833788 0.920238 0.742001
O O1 0.761959 0.137795 0.883942
O O2 0.000000 0.081477 0.932894
O O3 0.773644 0.000000 0.914326
O O4 0.753499 0.098330 0.996911
O O5 0.500000 0.717170 0.734806
O O6 0.273106 0.760284 0.672912
O O7 0.269475 0.754812 0.797019
O O8 0.256614 0.639936 0.726016
O O9 0.500000 0.228523 0.599373
O O10 0.245702 0.286387 0.563717
O O11 0.265849 0.147811 0.579943
O O12 0.500000 0.861258 0.047029
O O13 0.713821 0.905143 0.116914
O O14 0.177767 0.922106 0.669524
O O15 0.000000 0.915137 0.577749
O O16 0.228413 0.000000 0.576418
O O17 0.199640 0.379525 0.273075
O O18 0.000000 0.319246 0.345297
O O19 0.500000 0.916859 0.194589
O O20 0.271063 0.000000 0.203143
O O21 0.000000 0.890310 0.757960
O O22 0.832518 0.000000 0.763745
#
# Coordination Sequence:
#
# PCOD9373385 Si02
#       8
#     8   8   8   8   8   8   8   8
#     4  11  24  39  53  73 102 137 177 216 255 301
#     4   9  19  32  46  70 101 132 166 204 250 303
#     4  10  18  31  49  72 102 133 169 213 260 308
#     4  10  20  35  55  76 100 133 173 215 258 305
#     4   9  17  28  43  66  97 132 169 207 249 299
#     4  11  21  33  48  69  98 133 173 212 248 294
#     4   9  18  32  52  78 103 128 162 205 253 304
#     4   9  17  28  42  62  91 128 167 204 243 288
#
# _framework density 17.129602999999999
#
# number of rings (size 3 to 8) (size 9 to 14) (size 15 to 20)
#    0.000    2.250    1.250    3.000    0.000    5.750 
#    0.000    1.250    0.000    0.000    0.000    0.875 
#    0.000    3.000    0.000    0.000    0.000    0.000 
#
# Total GULP energy -178355.428193 kJ/mol
# GULP energy per Si atom -5573.607131 kJ/mol
# Density = 1.709062 g / cm^3
# Si number density = 17.129603 Si / 1000 Ang^3
#
#
#
# Elastic Constant Matrix: (Units=GPa)
#
#
# Indices 1 2 3 4 5 6 
#
# 1 35.6728 36.4971 23.1766 0.0000 0.0000 0.0000
# 2 36.4971 135.5645 36.6918 0.0000 0.0000 0.0000
# 3 23.1766 36.6918 57.4051 0.0000 0.0000 0.0000
# 4 0.0000 0.0000 0.0000 18.9131 0.0000 0.0000
# 5 0.0000 0.0000 0.0000 0.0000 23.0102 0.0000
# 6 0.0000 0.0000 0.0000 0.0000 0.0000 27.9313
#
#
#
# Elastic Compliance Matrix: (Units=1/GPa)
#
#
# Indices 1 2 3 4 5 6 
#
# 1 0.045204 -0.008743 -0.012662 0.000000 0.000000 0.000000
# 2 -0.008743 0.010611 -0.003252 0.000000 0.000000 0.000000
# 3 -0.012662 -0.003252 0.024611 0.000000 0.000000 0.000000
# 4 0.000000 0.000000 0.000000 0.052873 0.000000 0.000000
# 5 0.000000 0.000000 0.000000 0.000000 0.043459 0.000000
# 6 0.000000 0.000000 0.000000 0.000000 0.000000 0.035802
#
#
# Mechanical properties :
#
#
# Convention : Reuss Voigt Hill
#
# Bulk Modulus (GPa) = 32.14303 46.81927 39.48115
# Shear Modulus (GPa) = 18.36575 22.78935 20.57755
#
# Velocity S-wave (km/s) = 3.27794 3.65143 3.46972
# Velocity P-wave (km/s) = 5.75603 6.72079 6.25703
#
# Compressibility (1/GPa) = 0.03111095
#
# Stress axis : x y z
#
# Youngs Moduli (GPa) = 22.12180 94.24564 40.63212
#
# Poissons Ratio (x) = 0.82397 0.51450
# Poissons Ratio (y) = 0.19341 0.13214
# Poissons Ratio (z) = 0.28012 0.30650
#
# Static dielectric constant tensor:
#      x y z
#    x 1.590520 0.000000 0.000000 
#    y 0.000000 1.607800 0.000000 
#    z 0.000000 0.000000 1.575120 
# 
# From -- ./inp_files/24365.got.cif
#   From: 2010.05.17/outbox.cif.g08.bks.cpg/sg44_13_cif.got.tgz:24365.got - 2010.06.03 19:37:08.
