data_PCOD9373415
_publ_section_title
;
Structure prediction by ZEFSAII (Michael W. Deem and Ramdas Pophale) SiO2 
 PCOD9373415
Probable space group: I M M 2
;
_chemical_formula_sum "Si O2"
_cell_formula_units_Z 64
_cell_length_a 8.531782
_cell_length_b 29.591369
_cell_length_c 12.397739
_cell_angle_alpha 90.000000
_cell_angle_beta 90.000000
_cell_angle_gamma 90.000000
_cell_volume 3130.021328
_symmetry_space_group_name_H-M "I M M 2"
_symmetry_group_IT_number 44
_symmetry_cell_setting 'orthorhombic'
loop_
_space_group_symop_operation_xyz
x,y,z
-x,-y,z
-x,y,z
x,-y,z
1/2+x,1/2+y,1/2+z
1/2-x,1/2-y,1/2+z
1/2-x,1/2+y,1/2+z
1/2+x,1/2-y,1/2+z
loop_
_atom_site_type_symbol
_atom_site_label
_atom_site_fract_x
_atom_site_fract_y
_atom_site_fract_z
Si Si1 0.815056 0.051154 0.337420
Si Si2 0.820094 0.450129 0.364425
Si Si3 0.682454 0.069376 0.108468
Si Si4 0.310103 0.152722 0.384653
Si Si5 0.181187 0.691703 0.114025
Si Si6 0.683930 0.341149 0.518376
Si Si7 0.820568 0.134727 0.778742
Si Si8 0.186349 0.281162 0.686820
O O1 0.782646 0.053122 0.208766
O O2 0.745719 0.100059 0.377301
O O3 0.000000 0.052667 0.359097
O O4 0.758679 0.000000 0.372969
O O5 0.815954 0.500000 0.319038
O O6 0.784104 0.451826 0.492093
O O7 0.700011 0.417453 0.307999
O O8 0.000000 0.432677 0.357395
O O9 0.500000 0.062213 0.135129
O O10 0.716611 0.121744 0.083301
O O11 0.500000 0.151116 0.384002
O O12 0.260234 0.178594 0.494457
O O13 0.261820 0.185462 0.284226
O O14 0.203652 0.646838 0.184222
O O15 0.271965 0.728353 0.187681
O O16 0.000000 0.705023 0.105940
O O17 0.500000 0.352251 0.527948
O O18 0.722075 0.341492 0.392350
O O19 0.725536 0.295472 0.577537
O O20 0.000000 0.145175 0.750518
O O21 0.000000 0.286263 0.677129
#
# Coordination Sequence:
#
# PCOD9373415 Si02
#       8
#     8   8   8   8   8   8   8   8
#     4  11  23  37  58  90 126 165 210 259 314 376
#     4   9  18  33  55  84 118 159 206 253 303 362
#     4  10  18  31  53  84 122 161 199 245 301 362
#     4  10  24  45  66  90 125 164 208 263 311 370
#     4  11  25  44  65  90 121 161 208 255 310 371
#     4  10  20  35  57  87 123 159 195 242 296 354
#     4  10  22  39  59  86 122 159 200 250 301 356
#     4  11  23  40  64  94 123 156 198 246 308 370
#
# _framework density 20.447144999999999
#
# number of rings (size 3 to 8) (size 9 to 14) (size 15 to 20)
#    0.000    1.750    1.250    2.625    1.750    5.250 
#    0.000    0.625    0.000    0.750    0.000    0.000 
#    0.000    0.000    0.000    0.000    0.000    0.000 
#
# Total GULP energy -178358.825294 kJ/mol
# GULP energy per Si atom -5573.713290 kJ/mol
# Density = 2.040061 g / cm^3
# Si number density = 20.447145 Si / 1000 Ang^3
#
#
#
# Elastic Constant Matrix: (Units=GPa)
#
#
# Indices 1 2 3 4 5 6 
#
# 1 27.1467 22.2937 22.9526 0.0004 0.0000 0.0000
# 2 22.2937 80.9447 34.3137 0.0003 0.0000 0.0000
# 3 22.9526 34.3137 70.0006 -0.0002 0.0001 0.0000
# 4 0.0004 0.0003 -0.0002 -428.3294 0.0000 -0.0003
# 5 0.0000 0.0000 0.0001 0.0000 20.8334 0.0000
# 6 0.0000 0.0000 0.0000 -0.0003 0.0000 21.5935
#
#
#
# Elastic Compliance Matrix: (Units=1/GPa)
#
#
# Indices 1 2 3 4 5 6 
#
# 1 0.056436 -0.009719 -0.013741 0.000000 0.000000 0.000000
# 2 -0.009719 0.017268 -0.005278 0.000000 0.000000 0.000000
# 3 -0.013741 -0.005278 0.021378 0.000000 0.000000 0.000000
# 4 0.000000 0.000000 0.000000 -0.002335 0.000000 0.000000
# 5 0.000000 0.000000 0.000000 0.000000 0.048000 0.000000
# 6 0.000000 0.000000 0.000000 0.000000 0.000000 0.046310
#
#
# Mechanical properties :
#
#
# Convention : Reuss Voigt Hill
#
# Bulk Modulus (GPa) = 26.59044 37.46799 32.02921
# Shear Modulus (GPa) = 19.45003 -70.61169 -25.58083
#
# Velocity S-wave (km/s) = 3.08756 -5.88292 -3.54089
# Velocity P-wave (km/s) = 5.07379 5.27076 1.00934
#
# Compressibility (1/GPa) = 0.03760751
#
# Stress axis : x y z
#
# Youngs Moduli (GPa) = 17.71919 57.90979 46.77622
#
# Poissons Ratio (x) = 0.56280 0.64275
# Poissons Ratio (y) = 0.17220 0.24689
# Poissons Ratio (z) = 0.24348 0.30565
#
# Static dielectric constant tensor:
#      x y z
#    x 1.715940 0.000000 0.000000 
#    y 0.000000 1.844360 0.000000 
#    z 0.000000 0.000000 1.708900 
# 
# From -- ./inp_files/11569.got.cif
#   From: 2010.05.17/outbox.cif.g08.bks.cpg/sg44_6_cif.got.tgz:11569.got - 2010.06.03 19:37:08.
