data_PCOD9373015
_publ_section_title
;
Structure prediction by ZEFSAII (Michael W. Deem and Ramdas Pophale) SiO2 
 PCOD9373015
Probable space group: I M M 2
;
_chemical_formula_sum "Si O2"
_cell_formula_units_Z 40
_cell_length_a 7.964544
_cell_length_b 11.995659
_cell_length_c 20.866983
_cell_angle_alpha 90.000000
_cell_angle_beta 90.000000
_cell_angle_gamma 90.000000
_cell_volume 1993.630594
_symmetry_space_group_name_H-M "I M M 2"
_symmetry_group_IT_number 44
_symmetry_cell_setting 'orthorhombic'
loop_
_space_group_symop_operation_xyz
x,y,z
-x,-y,z
-x,y,z
x,-y,z
1/2+x,1/2+y,1/2+z
1/2-x,1/2-y,1/2+z
1/2-x,1/2+y,1/2+z
1/2+x,1/2-y,1/2+z
loop_
_atom_site_type_symbol
_atom_site_label
_atom_site_fract_x
_atom_site_fract_y
_atom_site_fract_z
Si Si1 0.294289 0.627866 0.560760
Si Si2 0.797276 0.277428 0.174339
Si Si3 0.299516 0.872941 0.805257
Si Si4 0.191602 0.000000 0.449584
Si Si5 0.697879 0.247967 0.432788
Si Si6 0.199757 0.500000 0.093405
O O1 0.500000 0.631151 0.561359
O O2 0.243825 0.500000 0.551675
O O3 0.235498 0.678565 0.628498
O O4 0.238062 0.704031 0.500929
O O5 0.732734 0.298652 0.246048
O O6 0.765953 0.391052 0.135123
O O7 0.000000 0.263525 0.178496
O O8 0.500000 0.881257 0.795638
O O9 0.270497 0.815142 0.873065
O O10 0.232874 0.000000 0.803651
O O11 0.271071 0.883767 0.427558
O O12 0.205333 0.000000 0.526663
O O13 0.000000 0.000000 0.428545
O O14 0.500000 0.267771 0.432403
O O15 0.000000 0.500000 0.077726
#
# Coordination Sequence:
#
# PCOD9373015 Si02
#       6
#     8   8   8   4   8   4
#     4   9  17  30  53  84 111 141 188 236 272 321
#     4   9  16  30  55  82 112 149 192 233 274 332
#     4  10  20  35  56  83 117 154 193 239 288 334
#     4  12  24  38  58  86 114 141 186 243 300 351
#     4  11  22  38  59  81 112 152 193 236 287 348
#     4  10  16  32  60  86 108 145 192 233 278 337
#
# _framework density 20.063897000000001
#
# number of rings (size 3 to 8) (size 9 to 14) (size 15 to 20)
#    0.000    2.000    3.000    2.100    0.000    1.200 
#    1.800    1.000    0.000    0.000    0.000    0.000 
#    0.000    0.000    0.000    0.000    0.000    0.000 
#
# Total GULP energy -111622.587483 kJ/mol
# GULP energy per Si atom -5581.129374 kJ/mol
# Density = 2.001823 g / cm^3
# Si number density = 20.063897 Si / 1000 Ang^3
#
#
#
# Elastic Constant Matrix: (Units=GPa)
#
#
# Indices 1 2 3 4 5 6 
#
# 1 13.1406 -0.8972 4.3444 0.0000 0.0000 0.0000
# 2 -0.8972 122.9354 58.7102 0.0000 0.0000 0.0000
# 3 4.3444 58.7102 138.6948 0.0000 0.0000 0.0000
# 4 0.0000 0.0000 0.0000 29.7366 0.0000 0.0000
# 5 0.0000 0.0000 0.0000 0.0000 21.6287 0.0000
# 6 0.0000 0.0000 0.0000 0.0000 0.0000 12.2960
#
#
#
# Elastic Compliance Matrix: (Units=1/GPa)
#
#
# Indices 1 2 3 4 5 6 
#
# 1 0.077350 0.002158 -0.003336 0.000000 0.000000 0.000000
# 2 0.002158 0.010256 -0.004409 0.000000 0.000000 0.000000
# 3 -0.003336 -0.004409 0.009181 0.000000 0.000000 0.000000
# 4 0.000000 0.000000 0.000000 0.033629 0.000000 0.000000
# 5 0.000000 0.000000 0.000000 0.000000 0.046235 0.000000
# 6 0.000000 0.000000 0.000000 0.000000 0.000000 0.081327
#
#
# Mechanical properties :
#
#
# Convention : Reuss Voigt Hill
#
# Bulk Modulus (GPa) = 11.68061 44.34286 28.01173
# Shear Modulus (GPa) = 16.79604 26.90648 21.85126
#
# Velocity S-wave (km/s) = 2.89645 3.66599 3.30371
# Velocity P-wave (km/s) = 4.12556 6.32994 5.34268
#
# Compressibility (1/GPa) = 0.08561198
#
# Stress axis : x y z
#
# Youngs Moduli (GPa) = 12.92823 97.50737 108.92208
#
# Poissons Ratio (x) = -0.21041 0.36340
# Poissons Ratio (y) = -0.02790 0.48022
# Poissons Ratio (z) = 0.04313 0.42990
#
# Static dielectric constant tensor:
#      x y z
#    x 1.728690 0.000000 0.000000 
#    y 0.000000 1.684280 0.000000 
#    z 0.000000 0.000000 1.700230 
# 
# From -- ./inp_files/22780.got.cif
#   From: 2010.05.17/outbox.cif.g08.bks.cpg/sg44_12_cif.got.tgz:22780.got - 2010.06.03 19:37:08.
