data_PCOD9373747
_publ_section_title
;
Structure prediction by ZEFSAII (Michael W. Deem and Ramdas Pophale) SiO2 
 PCOD9373747
Probable space group: I M M 2
;
_chemical_formula_sum "Si O2"
_cell_formula_units_Z 34
_cell_length_a 13.152379
_cell_length_b 8.334844
_cell_length_c 12.258247
_cell_angle_alpha 90.000000
_cell_angle_beta 90.000000
_cell_angle_gamma 90.000000
_cell_volume 1343.786144
_symmetry_space_group_name_H-M "I M M 2"
_symmetry_group_IT_number 44
_symmetry_cell_setting 'orthorhombic'
loop_
_space_group_symop_operation_xyz
x,y,z
-x,-y,z
-x,y,z
x,-y,z
1/2+x,1/2+y,1/2+z
1/2-x,1/2-y,1/2+z
1/2-x,1/2+y,1/2+z
1/2+x,1/2-y,1/2+z
loop_
_atom_site_type_symbol
_atom_site_label
_atom_site_fract_x
_atom_site_fract_y
_atom_site_fract_z
Si Si1 0.611917 0.685083 0.724580
Si Si2 0.000000 0.000000 0.749424
Si Si3 0.380284 0.000000 0.369505
Si Si4 0.306962 0.327661 0.157199
Si Si5 0.618183 0.671760 0.461521
Si Si6 0.382113 0.000000 0.107221
O O1 0.500000 0.739845 0.763261
O O2 0.626650 0.500000 0.760849
O O3 0.711767 0.791344 0.736484
O O4 0.607795 0.680776 0.592091
O O5 0.909647 0.862657 0.723539
O O6 0.338076 0.163624 0.418663
O O7 0.374653 0.000000 0.239554
O O8 0.500000 0.000000 0.402045
O O9 0.287492 0.500000 0.100789
O O10 0.328349 0.170726 0.082228
O O11 0.500000 0.654811 0.420738
O O12 0.665964 0.500000 0.433889
O O13 0.500000 0.000000 0.073710
#
# Coordination Sequence:
#
# PCOD9373747 Si02
#       6
#     8   2   4   8   8   4
#     4   9  17  29  49  72  99 127 153 193 242 289
#     4   8  20  32  42  66  88 132 164 188 232 278
#     4   9  18  25  43  65  85 128 164 179 228 287
#     4  10  19  31  45  66  94 129 162 192 235 278
#     4   8  15  28  40  63  96 121 148 187 233 285
#     4  11  18  32  46  62  96 132 165 200 226 275
#
# _framework density 25.301642000000001
#
# number of rings (size 3 to 8) (size 9 to 14) (size 15 to 20)
#    0.706    2.118    2.353    1.412    1.647    1.412 
#    0.000    2.353    0.000    0.000    0.000    0.000 
#   14.118    0.000    2.824    0.000    0.000    0.000 
#
# Total GULP energy -94634.227033 kJ/mol
# GULP energy per Si atom -5566.719237 kJ/mol
# Density = 2.524405 g / cm^3
# Si number density = 25.301642 Si / 1000 Ang^3
#
#
#
# Elastic Constant Matrix: (Units=GPa)
#
#
# Indices 1 2 3 4 5 6 
#
# 1 199.6798 57.6012 -6.6937 0.0000 0.0000 0.0000
# 2 57.6012 231.9782 17.9963 0.0000 0.0000 0.0000
# 3 -6.6937 17.9963 27.4318 0.0000 0.0000 0.0000
# 4 0.0000 0.0000 0.0000 -46.8093 0.0000 0.0000
# 5 0.0000 0.0000 0.0000 0.0000 25.0518 0.0000
# 6 0.0000 0.0000 0.0000 0.0000 0.0000 70.3453
#
#
#
# Elastic Compliance Matrix: (Units=1/GPa)
#
#
# Indices 1 2 3 4 5 6 
#
# 1 0.005537 -0.001559 0.002374 0.000000 0.000000 0.000000
# 2 -0.001559 0.004981 -0.003648 0.000000 0.000000 0.000000
# 3 0.002374 -0.003648 0.039427 0.000000 0.000000 0.000000
# 4 0.000000 0.000000 0.000000 -0.021363 0.000000 0.000000
# 5 0.000000 0.000000 0.000000 0.000000 0.039917 0.000000
# 6 0.000000 0.000000 0.000000 0.000000 0.000000 0.014216
#
#
# Mechanical properties :
#
#
# Convention : Reuss Voigt Hill
#
# Bulk Modulus (GPa) = 22.58434 66.32193 44.45314
# Shear Modulus (GPa) = 48.47767 35.72997 42.10382
#
# Velocity S-wave (km/s) = 4.38195 3.76195 4.08373
# Velocity P-wave (km/s) = 5.87770 6.71856 6.31215
#
# Compressibility (1/GPa) = 0.04427846
#
# Stress axis : x y z
#
# Youngs Moduli (GPa) = 180.59155 200.76707 25.36359
#
# Poissons Ratio (x) = 0.31302 -0.06021
# Poissons Ratio (y) = 0.28156 0.09253
# Poissons Ratio (z) = -0.42873 0.73242
#
# Static dielectric constant tensor:
#      x y z
#    x 2.076880 0.000000 0.000000 
#    y 0.000000 2.656320 0.000000 
#    z 0.000000 0.000000 2.084340 
# 
# From -- ./inp_files/20143.got.cif
#   From: 2010.05.17/outbox.cif.g08.bks.cpg/sg44_11_cif.got.tgz:20143.got - 2010.06.03 19:37:08.
