data_PCOD9373457
_publ_section_title
;
Structure prediction by ZEFSAII (Michael W. Deem and Ramdas Pophale) SiO2 
 PCOD9373457
Probable space group: I M M 2
;
_chemical_formula_sum "Si O2"
_cell_formula_units_Z 48
_cell_length_a 17.579551
_cell_length_b 14.676876
_cell_length_c 10.071866
_cell_angle_alpha 90.000000
_cell_angle_beta 90.000000
_cell_angle_gamma 90.000000
_cell_volume 2598.671256
_symmetry_space_group_name_H-M "I M M 2"
_symmetry_group_IT_number 44
_symmetry_cell_setting 'orthorhombic'
loop_
_space_group_symop_operation_xyz
x,y,z
-x,-y,z
-x,y,z
x,-y,z
1/2+x,1/2+y,1/2+z
1/2-x,1/2-y,1/2+z
1/2-x,1/2+y,1/2+z
1/2+x,1/2-y,1/2+z
loop_
_atom_site_type_symbol
_atom_site_label
_atom_site_fract_x
_atom_site_fract_y
_atom_site_fract_z
Si Si1 0.875435 0.296222 0.293430
Si Si2 0.088033 0.500000 0.240567
Si Si3 0.590878 0.500000 0.663300
Si Si4 0.374975 0.500000 0.968599
Si Si5 0.417809 0.302030 0.058300
Si Si6 0.251612 0.500000 0.164926
Si Si7 0.411050 0.691717 0.527082
Si Si8 0.200096 0.806854 0.779588
O O1 0.896004 0.403127 0.312480
O O2 0.912502 0.243296 0.414629
O O3 0.903339 0.262608 0.149086
O O4 0.785622 0.271413 0.297397
O O5 0.161107 0.500000 0.143814
O O6 0.000000 0.500000 0.195614
O O7 0.500000 0.500000 0.680666
O O8 0.623013 0.500000 0.811069
O O9 0.609751 0.407898 0.585513
O O10 0.412026 0.409751 0.029671
O O11 0.289600 0.500000 0.022001
O O12 0.500000 0.281544 0.120084
O O13 0.348224 0.273144 0.152595
O O14 0.281907 0.587152 0.245777
O O15 0.500000 0.689802 0.485026
O O16 0.352987 0.708923 0.406990
#
# Coordination Sequence:
#
# PCOD9373457 Si02
#       8
#     8   4   4   4   8   4   8   8
#     4  11  22  37  57  78 105 145 188 229 270 316
#     4  10  20  37  57  77 100 138 194 242 266 299
#     4  10  19  31  53  83 115 142 170 210 261 329
#     4  10  18  32  53  84 118 142 170 212 264 334
#     4  11  20  34  57  83 110 144 179 216 268 329
#     4   8  19  34  53  78 113 148 178 212 269 328
#     4  11  21  35  56  84 113 143 179 219 270 329
#     4  10  21  36  53  80 115 145 176 223 272 322
#
# _framework density 18.470979
#
# number of rings (size 3 to 8) (size 9 to 14) (size 15 to 20)
#    0.000    1.667    1.667    4.250    0.000    0.000 
#    0.000    2.500    0.000    1.000    0.000    3.500 
#    0.000    0.000    0.000    0.000    0.000    0.000 
#
# Total GULP energy -133756.923662 kJ/mol
# GULP energy per Si atom -5573.205153 kJ/mol
# Density = 1.842894 g / cm^3
# Si number density = 18.470979 Si / 1000 Ang^3
#
#
#
# Elastic Constant Matrix: (Units=GPa)
#
#
# Indices 1 2 3 4 5 6 
#
# 1 136.7576 3.9785 33.7079 0.0000 0.0000 0.0000
# 2 3.9785 56.9932 8.5972 0.0000 0.0000 0.0000
# 3 33.7079 8.5972 82.3575 0.0000 0.0000 0.0000
# 4 0.0000 0.0000 0.0000 10.6178 0.0000 0.0000
# 5 0.0000 0.0000 0.0000 0.0000 23.2720 0.0000
# 6 0.0000 0.0000 0.0000 0.0000 0.0000 15.3433
#
#
#
# Elastic Compliance Matrix: (Units=1/GPa)
#
#
# Indices 1 2 3 4 5 6 
#
# 1 0.008133 -0.000067 -0.003322 0.000000 0.000000 0.000000
# 2 -0.000067 0.017827 -0.001834 0.000000 0.000000 0.000000
# 3 -0.003322 -0.001834 0.013693 0.000000 0.000000 0.000000
# 4 0.000000 0.000000 0.000000 0.094182 0.000000 0.000000
# 5 0.000000 0.000000 0.000000 0.000000 0.042970 0.000000
# 6 0.000000 0.000000 0.000000 0.000000 0.000000 0.065175
#
#
# Mechanical properties :
#
#
# Convention : Reuss Voigt Hill
#
# Bulk Modulus (GPa) = 34.23590 40.96394 37.59992
# Shear Modulus (GPa) = 19.07230 25.16828 22.12029
#
# Velocity S-wave (km/s) = 3.21683 3.69533 3.46435
# Velocity P-wave (km/s) = 5.68968 6.35868 6.03346
#
# Compressibility (1/GPa) = 0.02920910
#
# Stress axis : x y z
#
# Youngs Moduli (GPa) = 122.95767 56.09399 73.02928
#
# Poissons Ratio (x) = 0.00374 0.24258
# Poissons Ratio (y) = 0.00820 0.13391
# Poissons Ratio (z) = 0.40843 0.10286
#
# Static dielectric constant tensor:
#      x y z
#    x 1.669880 0.000000 0.000000 
#    y 0.000000 1.659070 0.000000 
#    z 0.000000 0.000000 1.599040 
# 
# From -- ./inp_files/7182.got.cif
#   From: 2010.05.17/outbox.cif.g08.bks.cpg/sg44_4_cif.got.tgz:7182.got - 2010.06.03 19:37:08.
