data_PCOD9373234
_publ_section_title
;
Structure prediction by ZEFSAII (Michael W. Deem and Ramdas Pophale) SiO2 
 PCOD9373234
Probable space group: I M M 2
;
_chemical_formula_sum "Si O2"
_cell_formula_units_Z 64
_cell_length_a 7.732542
_cell_length_b 15.102295
_cell_length_c 28.874658
_cell_angle_alpha 90.000000
_cell_angle_beta 90.000000
_cell_angle_gamma 90.000000
_cell_volume 3371.957451
_symmetry_space_group_name_H-M "I M M 2"
_symmetry_group_IT_number 44
_symmetry_cell_setting 'orthorhombic'
loop_
_space_group_symop_operation_xyz
x,y,z
-x,-y,z
-x,y,z
x,-y,z
1/2+x,1/2+y,1/2+z
1/2-x,1/2-y,1/2+z
1/2-x,1/2+y,1/2+z
1/2+x,1/2-y,1/2+z
loop_
_atom_site_type_symbol
_atom_site_label
_atom_site_fract_x
_atom_site_fract_y
_atom_site_fract_z
Si Si1 0.288311 0.399622 0.540350
Si Si2 0.291011 0.397619 0.005423
Si Si3 0.798030 0.271170 0.088737
Si Si4 0.796629 0.400665 0.165310
Si Si5 0.699511 0.772466 0.850936
Si Si6 0.202710 0.900725 0.768827
Si Si7 0.288349 0.399193 0.899302
Si Si8 0.290971 0.602424 0.434439
O O1 0.500000 0.398859 0.540377
O O2 0.234601 0.500000 0.550990
O O3 0.223690 0.324112 0.574787
O O4 0.237732 0.378492 0.487284
O O5 0.500000 0.391114 0.007487
O O6 0.244779 0.500000 0.015504
O O7 0.214294 0.332099 0.043074
O O8 0.237290 0.378482 0.952451
O O9 0.720333 0.327481 0.130950
O O10 0.000000 0.255354 0.099610
O O11 0.722472 0.500000 0.159232
O O12 0.783964 0.377283 0.219385
O O13 0.000000 0.406863 0.153750
O O14 0.500000 0.758541 0.839211
O O15 0.773578 0.829611 0.809024
O O16 0.774875 0.676724 0.864654
O O17 0.714128 0.831682 0.897134
O O18 0.000000 0.907300 0.759984
O O19 0.265663 0.000000 0.782632
O O20 0.500000 0.397834 0.899085
O O21 0.235635 0.500000 0.888676
O O22 0.500000 0.608871 0.431765
O O23 0.245598 0.500000 0.424348
#
# Coordination Sequence:
#
# PCOD9373234 Si02
#       8
#     8   8   8   8   8   8   8   8
#     4   8  15  28  45  66  94 128 162 192 222 260
#     4   9  17  29  45  66  95 129 159 186 220 267
#     4  10  18  28  47  72  95 121 154 193 233 268
#     4   9  18  32  48  68  94 118 144 186 236 279
#     4  11  20  29  48  73  93 118 153 193 234 271
#     4  10  21  36  52  69  91 120 151 183 225 280
#     4   8  16  31  47  65  93 127 159 189 222 264
#     4   9  17  29  44  64  95 132 162 187 220 266
#
# _framework density 18.980073000000001
#
# number of rings (size 3 to 8) (size 9 to 14) (size 15 to 20)
#    0.000    2.750    0.000    3.750    0.000    3.750 
#    0.000    1.875    0.000    4.875    0.000    3.500 
#    0.000    0.000    0.000    0.000    0.000    0.000 
#
# Total GULP energy -178492.464024 kJ/mol
# GULP energy per Si atom -5577.889501 kJ/mol
# Density = 1.893687 g / cm^3
# Si number density = 18.980073 Si / 1000 Ang^3
#
#
#
# Elastic Constant Matrix: (Units=GPa)
#
#
# Indices 1 2 3 4 5 6 
#
# 1 25.3145 -3.7231 -2.7953 0.0000 0.0000 0.0000
# 2 -3.7231 112.9310 85.5475 0.0000 0.0000 0.0000
# 3 -2.7953 85.5475 92.9387 0.0000 0.0000 0.0000
# 4 0.0000 0.0000 0.0000 30.5147 0.0000 0.0000
# 5 0.0000 0.0000 0.0000 0.0000 15.1630 0.0000
# 6 0.0000 0.0000 0.0000 0.0000 0.0000 21.2831
#
#
#
# Elastic Compliance Matrix: (Units=1/GPa)
#
#
# Indices 1 2 3 4 5 6 
#
# 1 0.039696 0.001335 -0.000035 0.000000 0.000000 0.000000
# 2 0.001335 0.029296 -0.026926 0.000000 0.000000 0.000000
# 3 -0.000035 -0.026926 0.035543 0.000000 0.000000 0.000000
# 4 0.000000 0.000000 0.000000 0.032771 0.000000 0.000000
# 5 0.000000 0.000000 0.000000 0.000000 0.065950 0.000000
# 6 0.000000 0.000000 0.000000 0.000000 0.000000 0.046986
#
#
# Mechanical properties :
#
#
# Convention : Reuss Voigt Hill
#
# Bulk Modulus (GPa) = 18.76764 43.24916 31.00840
# Shear Modulus (GPa) = 15.66151 23.53583 19.59867
#
# Velocity S-wave (km/s) = 2.87567 3.52522 3.21688
# Velocity P-wave (km/s) = 4.57553 6.27740 5.49278
#
# Compressibility (1/GPa) = 0.05328320
#
# Stress axis : x y z
#
# Youngs Moduli (GPa) = 25.19169 34.13451 28.13477
#
# Poissons Ratio (x) = -0.04558 0.00099
# Poissons Ratio (y) = -0.03364 0.75755
# Poissons Ratio (z) = 0.00089 0.91910
#
# Static dielectric constant tensor:
#      x y z
#    x 1.708110 0.000000 0.000000 
#    y 0.000000 1.688930 0.000000 
#    z 0.000000 0.000000 1.633180 
# 
# From -- ./inp_files/25181.got.cif
#   From: 2010.05.17/outbox.cif.g08.bks.cpg/sg44_13_cif.got.tgz:25181.got - 2010.06.03 19:37:08.
