data_PCOD9373947
_publ_section_title
;
Structure prediction by ZEFSAII (Michael W. Deem and Ramdas Pophale) SiO2 
 PCOD9373947
Probable space group: I M M 2
;
_chemical_formula_sum "Si O2"
_cell_formula_units_Z 56
_cell_length_a 8.407176
_cell_length_b 22.916729
_cell_length_c 14.892917
_cell_angle_alpha 90.000000
_cell_angle_beta 90.000000
_cell_angle_gamma 90.000000
_cell_volume 2869.343467
_symmetry_space_group_name_H-M "I M M 2"
_symmetry_group_IT_number 44
_symmetry_cell_setting 'orthorhombic'
loop_
_space_group_symop_operation_xyz
x,y,z
-x,-y,z
-x,y,z
x,-y,z
1/2+x,1/2+y,1/2+z
1/2-x,1/2-y,1/2+z
1/2-x,1/2+y,1/2+z
1/2+x,1/2-y,1/2+z
loop_
_atom_site_type_symbol
_atom_site_label
_atom_site_fract_x
_atom_site_fract_y
_atom_site_fract_z
Si Si1 0.808184 0.777376 0.378150
Si Si2 0.310335 0.146786 0.670781
Si Si3 0.689188 0.353485 0.367621
Si Si4 0.192384 0.220275 0.172632
Si Si5 0.310304 0.389654 0.987610
Si Si6 0.807791 0.000000 0.172663
Si Si7 0.194728 0.111456 0.058267
Si Si8 0.188214 0.500000 0.876177
O O1 0.730670 0.714089 0.389614
O O2 0.772312 0.796463 0.275634
O O3 0.754095 0.827728 0.445732
O O4 0.000000 0.770428 0.384982
O O5 0.500000 0.146712 0.662121
O O6 0.266596 0.130663 0.772610
O O7 0.250003 0.213738 0.657814
O O8 0.238459 0.108397 0.591540
O O9 0.500000 0.358760 0.358007
O O10 0.742802 0.390116 0.454289
O O11 0.250590 0.171649 0.104049
O O12 0.000000 0.222184 0.165443
O O13 0.500000 0.390550 0.979823
O O14 0.243944 0.442911 0.930137
O O15 0.753759 0.942732 0.118667
O O16 0.755815 0.000000 0.275510
O O17 0.000000 0.000000 0.171750
O O18 0.000000 0.112263 0.059167
O O19 0.000000 0.500000 0.870923
#
# Coordination Sequence:
#
# PCOD9373947 Si02
#       8
#     8   8   8   8   8   4   8   4
#     4   9  18  32  53  82 113 144 180 225 280 335
#     4  10  20  35  54  78 111 147 183 231 287 337
#     4  10  19  32  52  81 115 149 188 231 278 335
#     4   8  14  27  48  76 109 141 172 214 275 335
#     4  11  22  38  60  83 108 144 189 233 279 334
#     4  10  20  38  61  82 107 144 189 230 268 316
#     4   9  17  30  52  79 106 141 185 231 275 321
#     4  12  26  42  59  84 115 144 177 220 274 334
#
# _framework density 19.516660000000002
#
# number of rings (size 3 to 8) (size 9 to 14) (size 15 to 20)
#    0.000    2.286    0.000    4.500    0.000    4.571 
#    0.000    2.143    0.000    5.143    0.000    0.000 
#    0.000    0.000    0.000    0.000    0.000    0.000 
#
# Total GULP energy -156312.698794 kJ/mol
# GULP energy per Si atom -5582.596385 kJ/mol
# Density = 1.947224 g / cm^3
# Si number density = 19.516660 Si / 1000 Ang^3
#
#
#
# Elastic Constant Matrix: (Units=GPa)
#
#
# Indices 1 2 3 4 5 6 
#
# 1 24.1685 10.5047 9.2923 0.0000 0.0000 0.0000
# 2 10.5047 48.8224 67.2078 0.0000 0.0000 0.0000
# 3 9.2923 67.2078 148.9983 0.0000 0.0000 0.0000
# 4 0.0000 0.0000 0.0000 33.9458 0.0000 0.0000
# 5 0.0000 0.0000 0.0000 0.0000 23.2390 0.0000
# 6 0.0000 0.0000 0.0000 0.0000 0.0000 15.6156
#
#
#
# Elastic Compliance Matrix: (Units=1/GPa)
#
#
# Indices 1 2 3 4 5 6 
#
# 1 0.046652 -0.015914 0.004269 0.000000 0.000000 0.000000
# 2 -0.015914 0.059461 -0.025828 0.000000 0.000000 0.000000
# 3 0.004269 -0.025828 0.018096 0.000000 0.000000 0.000000
# 4 0.000000 0.000000 0.000000 0.029459 0.000000 0.000000
# 5 0.000000 0.000000 0.000000 0.000000 0.043031 0.000000
# 6 0.000000 0.000000 0.000000 0.000000 0.000000 0.064039
#
#
# Mechanical properties :
#
#
# Convention : Reuss Voigt Hill
#
# Bulk Modulus (GPa) = 20.29988 43.99988 32.14988
# Shear Modulus (GPa) = 14.20032 23.55903 18.87968
#
# Velocity S-wave (km/s) = 2.70033 3.47814 3.11362
# Velocity P-wave (km/s) = 4.48846 6.22283 5.42540
#
# Compressibility (1/GPa) = 0.04926139
#
# Stress axis : x y z
#
# Youngs Moduli (GPa) = 21.43542 16.81767 55.26224
#
# Poissons Ratio (x) = 0.26764 -0.23590
# Poissons Ratio (y) = 0.34112 1.42733
# Poissons Ratio (z) = -0.09150 0.43437
#
# Static dielectric constant tensor:
#      x y z
#    x 1.666650 0.000000 0.000000 
#    y 0.000000 1.674860 0.000000 
#    z 0.000000 0.000000 1.685060 
# 
# From -- ./inp_files/16556.got.cif
#   From: 2010.05.17/outbox.cif.g08.bks.cpg/sg44_9_cif.got.tgz:16556.got - 2010.06.03 19:37:08.
