data_PCOD9373874
_publ_section_title
;
Structure prediction by ZEFSAII (Michael W. Deem and Ramdas Pophale) SiO2 
 PCOD9373874
Probable space group: I M M 2
;
_chemical_formula_sum "Si O2"
_cell_formula_units_Z 64
_cell_length_a 8.551015
_cell_length_b 24.027041
_cell_length_c 19.694350
_cell_angle_alpha 90.000000
_cell_angle_beta 90.000000
_cell_angle_gamma 90.000000
_cell_volume 4046.314259
_symmetry_space_group_name_H-M "I M M 2"
_symmetry_group_IT_number 44
_symmetry_cell_setting 'orthorhombic'
loop_
_space_group_symop_operation_xyz
x,y,z
-x,-y,z
-x,y,z
x,-y,z
1/2+x,1/2+y,1/2+z
1/2-x,1/2-y,1/2+z
1/2-x,1/2+y,1/2+z
1/2+x,1/2-y,1/2+z
loop_
_atom_site_type_symbol
_atom_site_label
_atom_site_fract_x
_atom_site_fract_y
_atom_site_fract_z
Si Si1 0.811489 0.224002 0.498640
Si Si2 0.810655 0.436694 0.508161
Si Si3 0.312646 0.770289 0.789683
Si Si4 0.312961 0.244076 0.146396
Si Si5 0.810356 0.664032 0.418131
Si Si6 0.185145 0.335308 0.871961
Si Si7 0.312589 0.618197 0.645517
Si Si8 0.810997 0.935685 0.289439
O O1 0.765426 0.224354 0.577359
O O2 0.768984 0.284778 0.467991
O O3 0.735483 0.179273 0.448638
O O4 0.000000 0.218792 0.493668
O O5 0.757159 0.500000 0.498452
O O6 0.755151 0.393590 0.450326
O O7 0.756785 0.413130 0.580579
O O8 0.000000 0.436419 0.507350
O O9 0.500000 0.771721 0.784293
O O10 0.239683 0.773284 0.715506
O O11 0.259326 0.817594 0.843037
O O12 0.265737 0.711627 0.824437
O O13 0.500000 0.238578 0.145088
O O14 0.242423 0.182024 0.145965
O O15 0.000000 0.662288 0.416551
O O16 0.240707 0.395064 0.845869
O O17 0.000000 0.329893 0.864633
O O18 0.500000 0.616542 0.641757
O O19 0.264196 0.588355 0.715612
O O20 0.000000 0.932845 0.293082
O O21 0.764189 0.000000 0.296127
#
# Coordination Sequence:
#
# PCOD9373874 Si02
#       8
#     8   8   8   8   8   8   8   8
#     4   9  18  33  51  67  96 129 157 198 251 301
#     4  10  19  32  50  70  95 131 173 209 239 277
#     4  10  19  32  49  68  97 132 163 199 248 297
#     4  11  20  32  51  75  99 127 164 204 248 294
#     4   8  15  30  47  66  92 126 161 196 241 288
#     4  11  21  32  49  73  98 125 165 208 246 289
#     4  11  21  32  47  69 100 135 168 199 237 286
#     4  10  21  36  51  67  95 137 175 202 240 293
#
# _framework density 15.816864000000001
#
# number of rings (size 3 to 8) (size 9 to 14) (size 15 to 20)
#    0.000    2.000    2.500    3.375    0.000    2.500 
#    0.000    0.625    0.000    0.000    0.000    0.875 
#    0.000    3.000    0.000    0.000    0.000    0.000 
#
# Total GULP energy -178541.794760 kJ/mol
# GULP energy per Si atom -5579.431086 kJ/mol
# Density = 1.578086 g / cm^3
# Si number density = 15.816864 Si / 1000 Ang^3
#
#
#
# Elastic Constant Matrix: (Units=GPa)
#
#
# Indices 1 2 3 4 5 6 
#
# 1 15.7948 15.0676 12.1146 0.0000 0.0000 0.0000
# 2 15.0676 99.5278 67.9493 0.0000 0.0000 0.0000
# 3 12.1146 67.9493 130.6891 0.0000 0.0000 0.0000
# 4 0.0000 0.0000 0.0000 18.3937 0.0000 0.0000
# 5 0.0000 0.0000 0.0000 0.0000 26.0446 0.0000
# 6 0.0000 0.0000 0.0000 0.0000 0.0000 14.0827
#
#
#
# Elastic Compliance Matrix: (Units=1/GPa)
#
#
# Indices 1 2 3 4 5 6 
#
# 1 0.074216 -0.010137 -0.001609 0.000000 0.000000 0.000000
# 2 -0.010137 0.016961 -0.007879 0.000000 0.000000 0.000000
# 3 -0.001609 -0.007879 0.011897 0.000000 0.000000 0.000000
# 4 0.000000 0.000000 0.000000 0.054367 0.000000 0.000000
# 5 0.000000 0.000000 0.000000 0.000000 0.038396 0.000000
# 6 0.000000 0.000000 0.000000 0.000000 0.000000 0.071009
#
#
# Mechanical properties :
#
#
# Convention : Reuss Voigt Hill
#
# Bulk Modulus (GPa) = 15.66793 48.47496 32.07145
# Shear Modulus (GPa) = 15.27317 21.76288 18.51802
#
# Velocity S-wave (km/s) = 3.11082 3.71338 3.42537
# Velocity P-wave (km/s) = 4.77811 7.00712 5.99708
#
# Compressibility (1/GPa) = 0.06382463
#
# Stress axis : x y z
#
# Youngs Moduli (GPa) = 13.47413 58.95811 84.05182
#
# Poissons Ratio (x) = 0.59766 0.13525
# Poissons Ratio (y) = 0.13659 0.66224
# Poissons Ratio (z) = 0.02168 0.46453
#
# Static dielectric constant tensor:
#      x y z
#    x 1.536030 0.000000 0.000000 
#    y 0.000000 1.511810 0.000000 
#    z 0.000000 0.000000 1.534210 
# 
# From -- ./inp_files/20849.got.cif
#   From: 2010.05.17/outbox.cif.g08.bks.cpg/sg44_11_cif.got.tgz:20849.got - 2010.06.03 19:37:08.
