data_PCOD9373479
_publ_section_title
;
Structure prediction by ZEFSAII (Michael W. Deem and Ramdas Pophale) SiO2 
 PCOD9373479
Probable space group: I M M 2
;
_chemical_formula_sum "Si O2"
_cell_formula_units_Z 64
_cell_length_a 29.897195
_cell_length_b 7.559076
_cell_length_c 12.828222
_cell_angle_alpha 90.000000
_cell_angle_beta 90.000000
_cell_angle_gamma 90.000000
_cell_volume 2899.116201
_symmetry_space_group_name_H-M "I M M 2"
_symmetry_group_IT_number 44
_symmetry_cell_setting 'orthorhombic'
loop_
_space_group_symop_operation_xyz
x,y,z
-x,-y,z
-x,y,z
x,-y,z
1/2+x,1/2+y,1/2+z
1/2-x,1/2-y,1/2+z
1/2-x,1/2+y,1/2+z
1/2+x,1/2-y,1/2+z
loop_
_atom_site_type_symbol
_atom_site_label
_atom_site_fract_x
_atom_site_fract_y
_atom_site_fract_z
Si Si1 0.331752 0.210885 0.581610
Si Si2 0.952376 0.784500 0.927219
Si Si3 0.195402 0.285715 0.307473
Si Si4 0.597269 0.795462 0.872237
Si Si5 0.292210 0.709237 0.357253
Si Si6 0.550568 0.294213 0.082748
Si Si7 0.618697 0.283157 0.258112
Si Si8 0.429271 0.301003 0.647106
O O1 0.302676 0.250038 0.683881
O O2 0.311061 0.267369 0.473202
O O3 0.378384 0.303487 0.605969
O O4 0.339898 0.000000 0.579818
O O5 0.910671 0.728062 0.858457
O O6 0.000000 0.739325 0.876631
O O7 0.950015 0.000000 0.932960
O O8 0.952168 0.718495 0.045896
O O9 0.193231 0.500000 0.319284
O O10 0.147740 0.221164 0.353656
O O11 0.241929 0.217679 0.353154
O O12 0.572622 0.784981 0.760363
O O13 0.601876 0.000000 0.900762
O O14 0.568900 0.712320 0.964944
O O15 0.288143 0.500000 0.335501
O O16 0.330420 0.777957 0.277741
O O17 0.500000 0.218708 0.090308
O O18 0.546622 0.500000 0.113219
O O19 0.589643 0.222407 0.158807
O O20 0.620441 0.500000 0.256396
O O21 0.446060 0.500000 0.662377
#
# Coordination Sequence:
#
# PCOD9373479 Si02
#       8
#     8   8   8   8   8   8   8   8
#     4  10  19  33  51  75 110 146 176 223 284 335
#     4   9  16  27  48  80 109 130 164 219 276 321
#     4   8  18  34  52  75 106 144 182 225 278 335
#     4  10  21  38  56  77 111 151 186 231 292 342
#     4  10  18  33  56  80 105 142 190 233 278 337
#     4  10  21  37  58  83 111 147 193 242 286 338
#     4   9  17  31  53  81 108 137 178 230 283 329
#     4  10  18  32  55  81 105 140 184 225 272 331
#
# _framework density 22.075692
#
# number of rings (size 3 to 8) (size 9 to 14) (size 15 to 20)
#    0.000    2.500    1.250    2.250    0.000    3.250 
#    0.000    6.875    0.000    1.125    0.000    0.000 
#    0.000    0.000    0.000    0.000    0.000    0.000 
#
# Total GULP energy -178446.624008 kJ/mol
# GULP energy per Si atom -5576.457000 kJ/mol
# Density = 2.202545 g / cm^3
# Si number density = 22.075692 Si / 1000 Ang^3
#
#
#
# Elastic Constant Matrix: (Units=GPa)
#
#
# Indices 1 2 3 4 5 6 
#
# 1 80.9776 6.4162 23.7122 0.0000 0.0000 0.0000
# 2 6.4162 47.7127 -10.7378 0.0000 0.0000 0.0000
# 3 23.7122 -10.7378 83.8308 0.0000 0.0000 0.0000
# 4 0.0000 0.0000 0.0000 4.5729 0.0000 0.0000
# 5 0.0000 0.0000 0.0000 0.0000 20.5344 0.0000
# 6 0.0000 0.0000 0.0000 0.0000 0.0000 7.9075
#
#
#
# Elastic Compliance Matrix: (Units=1/GPa)
#
#
# Indices 1 2 3 4 5 6 
#
# 1 0.013823 -0.002820 -0.004271 0.000000 0.000000 0.000000
# 2 -0.002820 0.022156 0.003636 0.000000 0.000000 0.000000
# 3 -0.004271 0.003636 0.013603 0.000000 0.000000 0.000000
# 4 0.000000 0.000000 0.000000 0.218679 0.000000 0.000000
# 5 0.000000 0.000000 0.000000 0.000000 0.048699 0.000000
# 6 0.000000 0.000000 0.000000 0.000000 0.000000 0.126463
#
#
# Mechanical properties :
#
#
# Convention : Reuss Voigt Hill
#
# Bulk Modulus (GPa) = 23.43528 27.92247 25.67888
# Shear Modulus (GPa) = 10.76292 19.47832 15.12062
#
# Velocity S-wave (km/s) = 2.21044 2.97365 2.61998
# Velocity P-wave (km/s) = 4.14170 4.94632 4.56178
#
# Compressibility (1/GPa) = 0.04267071
#
# Stress axis : x y z
#
# Youngs Moduli (GPa) = 72.34172 45.13399 73.51512
#
# Poissons Ratio (x) = 0.12728 0.31400
# Poissons Ratio (y) = 0.20401 -0.26728
# Poissons Ratio (z) = 0.30899 -0.16409
#
# Static dielectric constant tensor:
#      x y z
#    x 1.847080 0.000000 0.000000 
#    y 0.000000 1.845150 0.000000 
#    z 0.000000 0.000000 1.784240 
# 
# From -- ./inp_files/11565.got.cif
#   From: 2010.05.17/outbox.cif.g08.bks.cpg/sg44_6_cif.got.tgz:11565.got - 2010.06.03 19:37:08.
