data_PCOD9373511
_publ_section_title
;
Structure prediction by ZEFSAII (Michael W. Deem and Ramdas Pophale) SiO2 
 PCOD9373511
Probable space group: I M M 2
;
_chemical_formula_sum "Si O2"
_cell_formula_units_Z 56
_cell_length_a 22.649478
_cell_length_b 7.668869
_cell_length_c 14.277243
_cell_angle_alpha 90.000000
_cell_angle_beta 90.000000
_cell_angle_gamma 90.000000
_cell_volume 2479.898283
_symmetry_space_group_name_H-M "I M M 2"
_symmetry_group_IT_number 44
_symmetry_cell_setting 'orthorhombic'
loop_
_space_group_symop_operation_xyz
x,y,z
-x,-y,z
-x,y,z
x,-y,z
1/2+x,1/2+y,1/2+z
1/2-x,1/2-y,1/2+z
1/2-x,1/2+y,1/2+z
1/2+x,1/2-y,1/2+z
loop_
_atom_site_type_symbol
_atom_site_label
_atom_site_fract_x
_atom_site_fract_y
_atom_site_fract_z
Si Si1 0.639025 0.292945 0.449960
Si Si2 0.815315 0.290433 0.145465
Si Si3 0.000000 0.293212 0.927011
Si Si4 0.562929 0.201153 0.704542
Si Si5 0.000000 0.710366 0.711886
Si Si6 0.432906 0.707782 0.915932
Si Si7 0.882577 0.794882 0.600324
Si Si8 0.296710 0.714275 0.258192
O O1 0.639738 0.500000 0.445194
O O2 0.684236 0.239016 0.533522
O O3 0.568071 0.248804 0.462901
O O4 0.668825 0.226949 0.352073
O O5 0.815987 0.500000 0.157025
O O6 0.879090 0.211029 0.167710
O O7 0.768730 0.230903 0.224422
O O8 0.000000 0.500000 0.928499
O O9 0.000000 0.227467 0.819326
O O10 0.500000 0.282249 0.679819
O O11 0.569244 0.202038 0.816400
O O12 0.561485 0.000000 0.672165
O O13 0.057046 0.775415 0.657271
O O14 0.000000 0.500000 0.712170
O O15 0.500000 0.727986 0.951955
O O16 0.423959 0.500000 0.901318
O O17 0.390360 0.777597 0.996313
O O18 0.833549 0.722986 0.668255
O O19 0.870438 0.000000 0.587831
O O20 0.297490 0.500000 0.261569
#
# Coordination Sequence:
#
# PCOD9373511 Si02
#       8
#     8   8   4   8   4   8   8   8
#     4  11  23  40  64  94 123 160 210 259 308 366
#     4  10  22  41  61  84 118 160 201 246 307 373
#     4  11  23  39  61  92 127 162 201 257 322 372
#     4   9  19  35  54  76 107 149 192 237 295 355
#     4  11  21  31  51  86 119 148 191 247 306 356
#     4   9  17  29  49  77 106 139 182 230 278 332
#     4  10  18  33  55  79 113 157 197 237 296 361
#     4   9  20  38  60  83 115 159 201 240 295 367
#
# _framework density 22.581568999999998
#
# number of rings (size 3 to 8) (size 9 to 14) (size 15 to 20)
#    0.000    2.143    2.143    0.857    1.000    2.857 
#    0.000    2.143    0.000    0.000    0.000    0.000 
#    0.000    0.000    0.000    0.000    0.000    0.000 
#
# Total GULP energy -155950.671738 kJ/mol
# GULP energy per Si atom -5569.666848 kJ/mol
# Density = 2.253017 g / cm^3
# Si number density = 22.581569 Si / 1000 Ang^3
#
#
#
# Elastic Constant Matrix: (Units=GPa)
#
#
# Indices 1 2 3 4 5 6 
#
# 1 108.7934 4.5760 34.3724 0.0000 0.0000 0.0000
# 2 4.5760 43.1899 0.9536 0.0000 0.0000 0.0000
# 3 34.3724 0.9536 57.1617 0.0000 0.0000 0.0000
# 4 0.0000 0.0000 0.0000 23.7255 0.0000 0.0000
# 5 0.0000 0.0000 0.0000 0.0000 31.3725 0.0000
# 6 0.0000 0.0000 0.0000 0.0000 0.0000 -238.6979
#
#
#
# Elastic Compliance Matrix: (Units=1/GPa)
#
#
# Indices 1 2 3 4 5 6 
#
# 1 0.011396 -0.001056 -0.006835 0.000000 0.000000 0.000000
# 2 -0.001056 0.023260 0.000247 0.000000 0.000000 0.000000
# 3 -0.006835 0.000247 0.021600 0.000000 0.000000 0.000000
# 4 0.000000 0.000000 0.000000 0.042149 0.000000 0.000000
# 5 0.000000 0.000000 0.000000 0.000000 0.031875 0.000000
# 6 0.000000 0.000000 0.000000 0.000000 0.000000 -0.004189
#
#
# Mechanical properties :
#
#
# Convention : Reuss Voigt Hill
#
# Bulk Modulus (GPa) = 24.40953 32.10546 28.25750
# Shear Modulus (GPa) = 32.25103 -25.43712 3.40696
#
# Velocity S-wave (km/s) = 3.78326 -3.35991 1.22964
# Velocity P-wave (km/s) = 5.46964 0.89643 3.81532
#
# Compressibility (1/GPa) = 0.04096760
#
# Stress axis : x y z
#
# Youngs Moduli (GPa) = 87.75352 42.99221 46.29638
#
# Poissons Ratio (x) = 0.04542 0.31642
# Poissons Ratio (y) = 0.09271 -0.01145
# Poissons Ratio (z) = 0.59977 -0.01063
#
# Static dielectric constant tensor:
#      x y z
#    x 1.927220 0.000000 0.000000 
#    y 0.000000 1.815930 0.000000 
#    z 0.000000 0.000000 1.882900 
# 
# From -- ./inp_files/19249.got.cif
#   From: 2010.05.17/outbox.cif.g08.bks.cpg/sg44_10_cif.got.tgz:19249.got - 2010.06.03 19:37:08.
