data_PCOD9373261
_publ_section_title
;
Structure prediction by ZEFSAII (Michael W. Deem and Ramdas Pophale) SiO2 
 PCOD9373261
Probable space group: I M M 2
;
_chemical_formula_sum "Si O2"
_cell_formula_units_Z 64
_cell_length_a 19.384623
_cell_length_b 7.809016
_cell_length_c 22.314175
_cell_angle_alpha 90.000000
_cell_angle_beta 90.000000
_cell_angle_gamma 90.000000
_cell_volume 3377.804473
_symmetry_space_group_name_H-M "I M M 2"
_symmetry_group_IT_number 44
_symmetry_cell_setting 'orthorhombic'
loop_
_space_group_symop_operation_xyz
x,y,z
-x,-y,z
-x,y,z
x,-y,z
1/2+x,1/2+y,1/2+z
1/2-x,1/2-y,1/2+z
1/2-x,1/2+y,1/2+z
1/2+x,1/2-y,1/2+z
loop_
_atom_site_type_symbol
_atom_site_label
_atom_site_fract_x
_atom_site_fract_y
_atom_site_fract_z
Si Si1 0.181566 0.808320 0.257080
Si Si2 0.273725 0.701974 0.527615
Si Si3 0.078006 0.302056 0.161701
Si Si4 0.721221 0.700999 0.156786
Si Si5 0.623940 0.298798 0.986902
Si Si6 0.424631 0.703929 0.522854
Si Si7 0.424708 0.709845 0.115783
Si Si8 0.078522 0.789222 0.356681
O O1 0.124903 0.808132 0.204377
O O2 0.245484 0.727476 0.221720
O O3 0.138978 0.727927 0.311993
O O4 0.201699 0.000000 0.274518
O O5 0.272580 0.500000 0.515867
O O6 0.263364 0.724593 0.599739
O O7 0.206041 0.779251 0.496575
O O8 0.348311 0.770781 0.505515
O O9 0.102708 0.500000 0.161650
O O10 0.075914 0.235170 0.094239
O O11 0.000000 0.299983 0.184586
O O12 0.720201 0.500000 0.144073
O O13 0.642737 0.765978 0.152168
O O14 0.607584 0.500000 0.985651
O O15 0.596668 0.230876 0.923932
O O16 0.588502 0.231279 0.047336
O O17 0.500000 0.771676 0.501310
O O18 0.424784 0.500000 0.511554
O O19 0.500000 0.766047 0.136661
O O20 0.424853 0.500000 0.115927
O O21 0.000000 0.738587 0.340935
O O22 0.079907 0.000000 0.354275
#
# Coordination Sequence:
#
# PCOD9373261 Si02
#       8
#     8   8   8   8   8   8   8   8
#     4  11  20  30  45  65  93 128 162 198 236 281
#     4  10  18  29  46  68  94 123 154 193 239 287
#     4  10  19  28  40  60  87 120 157 194 229 269
#     4  10  19  30  46  68  94 123 156 195 238 288
#     4   9  17  30  50  71  92 120 156 199 238 279
#     4   9  17  28  42  61  87 121 156 187 225 275
#     4   8  14  26  47  72  92 113 145 189 239 284
#     4   9  18  32  50  71  93 125 171 208 232 272
#
# _framework density 18.947219
#
# number of rings (size 3 to 8) (size 9 to 14) (size 15 to 20)
#    0.000    2.500    1.250    3.000    0.000    3.250 
#    0.000    1.250    0.000   14.250    0.000    0.875 
#    0.000    7.000    0.000    0.000    0.000    0.125 
#
# Total GULP energy -178209.681554 kJ/mol
# GULP energy per Si atom -5569.052549 kJ/mol
# Density = 1.890409 g / cm^3
# Si number density = 18.947219 Si / 1000 Ang^3
#
#
#
# Elastic Constant Matrix: (Units=GPa)
#
#
# Indices 1 2 3 4 5 6 
#
# 1 141.4330 -2.1810 29.6879 0.0000 0.0000 0.0000
# 2 -2.1810 23.4064 -1.9919 0.0000 0.0000 0.0000
# 3 29.6879 -1.9919 57.8962 0.0000 0.0000 0.0000
# 4 0.0000 0.0000 0.0000 9.3896 0.0000 0.0000
# 5 0.0000 0.0000 0.0000 0.0000 20.9783 0.0000
# 6 0.0000 0.0000 0.0000 0.0000 0.0000 11.3173
#
#
#
# Elastic Compliance Matrix: (Units=1/GPa)
#
#
# Indices 1 2 3 4 5 6 
#
# 1 0.007927 0.000394 -0.004051 0.000000 0.000000 0.000000
# 2 0.000394 0.042868 0.001273 0.000000 0.000000 0.000000
# 3 -0.004051 0.001273 0.019393 0.000000 0.000000 0.000000
# 4 0.000000 0.000000 0.000000 0.106501 0.000000 0.000000
# 5 0.000000 0.000000 0.000000 0.000000 0.047668 0.000000
# 6 0.000000 0.000000 0.000000 0.000000 0.000000 0.088360
#
#
# Mechanical properties :
#
#
# Convention : Reuss Voigt Hill
#
# Bulk Modulus (GPa) = 15.28584 30.41839 22.85211
# Shear Modulus (GPa) = 14.73647 21.48507 18.11077
#
# Velocity S-wave (km/s) = 2.79187 3.37106 3.09504
# Velocity P-wave (km/s) = 4.29858 5.58938 4.98593
#
# Compressibility (1/GPa) = 0.06542002
#
# Stress axis : x y z
#
# Youngs Moduli (GPa) = 126.15206 23.32718 51.56376
#
# Poissons Ratio (x) = -0.00919 0.20890
# Poissons Ratio (y) = -0.04969 -0.06564
# Poissons Ratio (z) = 0.51107 -0.02969
#
# Static dielectric constant tensor:
#      x y z
#    x 1.733720 0.000000 0.000000 
#    y 0.000000 1.711520 0.000000 
#    z 0.000000 0.000000 1.634670 
# 
# From -- ./inp_files/24478.got.cif
#   From: 2010.05.17/outbox.cif.g08.bks.cpg/sg44_13_cif.got.tgz:24478.got - 2010.06.03 19:37:08.
