data_PCOD9373588
_publ_section_title
;
Structure prediction by ZEFSAII (Michael W. Deem and Ramdas Pophale) SiO2 
 PCOD9373588
Probable space group: I M M 2
;
_chemical_formula_sum "Si O2"
_cell_formula_units_Z 64
_cell_length_a 8.737068
_cell_length_b 19.027493
_cell_length_c 27.172793
_cell_angle_alpha 90.000000
_cell_angle_beta 90.000000
_cell_angle_gamma 90.000000
_cell_volume 4517.327392
_symmetry_space_group_name_H-M "I M M 2"
_symmetry_group_IT_number 44
_symmetry_cell_setting 'orthorhombic'
loop_
_space_group_symop_operation_xyz
x,y,z
-x,-y,z
-x,y,z
x,-y,z
1/2+x,1/2+y,1/2+z
1/2-x,1/2-y,1/2+z
1/2-x,1/2+y,1/2+z
1/2+x,1/2-y,1/2+z
loop_
_atom_site_type_symbol
_atom_site_label
_atom_site_fract_x
_atom_site_fract_y
_atom_site_fract_z
Si Si1 0.817877 0.837590 0.153320
Si Si2 0.316804 0.417657 0.455467
Si Si3 0.323866 0.792808 0.306550
Si Si4 0.317211 0.082146 0.061531
Si Si5 0.686196 0.081116 0.247078
Si Si6 0.183353 0.418786 0.258748
Si Si7 0.813526 0.156606 0.854864
Si Si8 0.323864 0.292907 0.203027
O O1 0.759806 0.868549 0.101921
O O2 0.750072 0.887377 0.196375
O O3 0.758674 0.758927 0.164978
O O4 0.000000 0.838861 0.155741
O O5 0.500000 0.410095 0.462094
O O6 0.285953 0.500000 0.445225
O O7 0.234542 0.399196 0.506331
O O8 0.270101 0.372958 0.407973
O O9 0.500000 0.804909 0.321467
O O10 0.257727 0.868173 0.291349
O O11 0.257553 0.736377 0.344587
O O12 0.323663 0.750229 0.254789
O O13 0.500000 0.086580 0.066015
O O14 0.272639 0.000000 0.069776
O O15 0.500000 0.086249 0.245057
O O16 0.727520 0.000000 0.253039
O O17 0.226248 0.500000 0.250700
O O18 0.251247 0.391713 0.310705
O O19 0.244772 0.366251 0.216685
O O20 0.000000 0.413579 0.260899
O O21 0.000000 0.156145 0.851388
O O22 0.500000 0.303528 0.188895
#
# Coordination Sequence:
#
# PCOD9373588 Si02
#       8
#     8   8   8   8   8   8   8   8
#     4  11  20  29  43  61  82 107 136 171 211 251
#     4   9  17  28  41  58  79 103 136 178 217 249
#     4   7  12  23  38  56  76 101 134 169 201 235
#     4  10  20  32  44  58  79 108 140 173 210 252
#     4   9  16  26  40  58  82 112 144 173 200 237
#     4  10  19  28  40  62  90 115 141 174 208 242
#     4   9  16  27  43  59  79 111 146 175 208 252
#     4   9  17  30  45  59  79 108 141 172 203 245
#
# _framework density 14.167668000000001
#
# number of rings (size 3 to 8) (size 9 to 14) (size 15 to 20)
#    0.000    2.750    0.000    4.500    0.000    4.500 
#    0.000    1.250    0.000    0.000    0.000    0.000 
#    0.000    1.000    0.000    7.500    0.000    1.750 
#
# Total GULP energy -178199.246759 kJ/mol
# GULP energy per Si atom -5568.726461 kJ/mol
# Density = 1.413542 g / cm^3
# Si number density = 14.167668 Si / 1000 Ang^3
#
#
#
# Elastic Constant Matrix: (Units=GPa)
#
#
# Indices 1 2 3 4 5 6 
#
# 1 39.6553 37.3618 29.3528 0.0000 0.0000 0.0000
# 2 37.3618 124.6505 62.4775 0.0000 0.0000 0.0000
# 3 29.3528 62.4775 83.2965 0.0000 0.0000 0.0000
# 4 0.0000 0.0000 0.0000 27.5913 0.0000 0.0000
# 5 0.0000 0.0000 0.0000 0.0000 19.2345 0.0000
# 6 0.0000 0.0000 0.0000 0.0000 0.0000 17.4341
#
#
#
# Elastic Compliance Matrix: (Units=1/GPa)
#
#
# Indices 1 2 3 4 5 6 
#
# 1 0.038045 -0.007505 -0.007777 0.000000 0.000000 0.000000
# 2 -0.007505 0.014336 -0.008108 0.000000 0.000000 0.000000
# 3 -0.007777 -0.008108 0.020828 0.000000 0.000000 0.000000
# 4 0.000000 0.000000 0.000000 0.036243 0.000000 0.000000
# 5 0.000000 0.000000 0.000000 0.000000 0.051990 0.000000
# 6 0.000000 0.000000 0.000000 0.000000 0.000000 0.057359
#
#
# Mechanical properties :
#
#
# Convention : Reuss Voigt Hill
#
# Bulk Modulus (GPa) = 37.83951 56.22074 47.03012
# Shear Modulus (GPa) = 18.22215 20.74599 19.48407
#
# Velocity S-wave (km/s) = 3.59022 3.83079 3.71246
# Velocity P-wave (km/s) = 6.62968 7.70293 7.18637
#
# Compressibility (1/GPa) = 0.02642740
#
# Stress axis : x y z
#
# Youngs Moduli (GPa) = 26.28446 69.75475 48.01334
#
# Poissons Ratio (x) = 0.52353 0.37342
# Poissons Ratio (y) = 0.19727 0.38930
# Poissons Ratio (z) = 0.20442 0.56558
#
# Static dielectric constant tensor:
#      x y z
#    x 1.482650 0.000000 0.000000 
#    y 0.000000 1.486110 0.000000 
#    z 0.000000 0.000000 1.444500 
# 
# From -- ./inp_files/26287.got.cif
#   From: 2010.05.17/outbox.cif.g08.bks.cpg/sg44_14_cif.got.tgz:26287.got - 2010.06.03 19:37:08.
