data_PCOD9373195
_publ_section_title
;
Structure prediction by ZEFSAII (Michael W. Deem and Ramdas Pophale) SiO2 
 PCOD9373195
Probable space group: I M M 2
;
_chemical_formula_sum "Si O2"
_cell_formula_units_Z 64
_cell_length_a 8.741828
_cell_length_b 26.823888
_cell_length_c 18.876208
_cell_angle_alpha 90.000000
_cell_angle_beta 90.000000
_cell_angle_gamma 90.000000
_cell_volume 4426.278525
_symmetry_space_group_name_H-M "I M M 2"
_symmetry_group_IT_number 44
_symmetry_cell_setting 'orthorhombic'
loop_
_space_group_symop_operation_xyz
x,y,z
-x,-y,z
-x,y,z
x,-y,z
1/2+x,1/2+y,1/2+z
1/2-x,1/2-y,1/2+z
1/2-x,1/2+y,1/2+z
1/2+x,1/2-y,1/2+z
loop_
_atom_site_type_symbol
_atom_site_label
_atom_site_fract_x
_atom_site_fract_y
_atom_site_fract_z
Si Si1 0.816718 0.796412 0.349950
Si Si2 0.317931 0.146315 0.816414
Si Si3 0.182352 0.796855 0.937994
Si Si4 0.183688 0.857554 0.480477
Si Si5 0.683788 0.744178 0.063790
Si Si6 0.317853 0.558561 0.227563
Si Si7 0.681742 0.942060 0.574257
Si Si8 0.683184 0.739454 0.228831
O O1 0.758694 0.749466 0.396097
O O2 0.776613 0.843502 0.399307
O O3 0.740505 0.786838 0.274281
O O4 0.000000 0.794099 0.343738
O O5 0.500000 0.149923 0.821141
O O6 0.244345 0.156326 0.893584
O O7 0.265785 0.094495 0.782386
O O8 0.256832 0.190317 0.764419
O O9 0.000000 0.794421 0.932919
O O10 0.236654 0.787515 0.018075
O O11 0.224604 0.809304 0.528748
O O12 0.263420 0.905546 0.512753
O O13 0.000000 0.863222 0.484623
O O14 0.500000 0.749466 0.056836
O O15 0.723765 0.743787 0.146405
O O16 0.500000 0.565467 0.232992
O O17 0.282388 0.500000 0.238408
O O18 0.264561 0.571577 0.147888
O O19 0.500000 0.937688 0.584570
O O20 0.717791 0.000000 0.559010
O O21 0.500000 0.735039 0.235061
#
# Coordination Sequence:
#
# PCOD9373195 Si02
#       8
#     8   8   8   8   8   8   8   8
#     4   9  17  29  42  58  83 110 139 175 211 247
#     4  11  20  30  45  62  85 114 143 176 212 250
#     4  10  18  28  43  61  82 109 142 174 206 248
#     4   9  17  29  44  59  80 114 147 175 209 248
#     4   9  18  30  42  60  86 112 140 174 209 245
#     4  10  20  33  47  62  83 111 143 178 212 248
#     4  10  20  31  43  62  86 110 140 179 217 251
#     4  10  18  28  44  64  87 114 144 175 208 251
#
# _framework density 14.459099
#
# number of rings (size 3 to 8) (size 9 to 14) (size 15 to 20)
#    0.000    2.250    0.000    6.750    0.000    6.000 
#    0.000    0.000    0.000    0.000    0.000    0.000 
#    0.000    1.000    0.000    7.000    0.000    5.500 
#
# Total GULP energy -178379.334918 kJ/mol
# GULP energy per Si atom -5574.354216 kJ/mol
# Density = 1.442619 g / cm^3
# Si number density = 14.459099 Si / 1000 Ang^3
#
#
#
# Elastic Constant Matrix: (Units=GPa)
#
#
# Indices 1 2 3 4 5 6 
#
# 1 30.0113 17.1088 26.6446 0.0000 0.0000 0.0000
# 2 17.1088 46.0807 30.0438 0.0000 0.0000 0.0000
# 3 26.6446 30.0438 85.0275 0.0000 0.0000 0.0000
# 4 0.0000 0.0000 0.0000 27.6420 0.0000 0.0000
# 5 0.0000 0.0000 0.0000 0.0000 25.3895 0.0000
# 6 0.0000 0.0000 0.0000 0.0000 0.0000 21.4601
#
#
#
# Elastic Compliance Matrix: (Units=1/GPa)
#
#
# Indices 1 2 3 4 5 6 
#
# 1 0.050019 -0.010852 -0.011840 0.000000 0.000000 0.000000
# 2 -0.010852 0.030551 -0.007394 0.000000 0.000000 0.000000
# 3 -0.011840 -0.007394 0.018084 0.000000 0.000000 0.000000
# 4 0.000000 0.000000 0.000000 0.036177 0.000000 0.000000
# 5 0.000000 0.000000 0.000000 0.000000 0.039386 0.000000
# 6 0.000000 0.000000 0.000000 0.000000 0.000000 0.046598
#
#
# Mechanical properties :
#
#
# Convention : Reuss Voigt Hill
#
# Bulk Modulus (GPa) = 25.98621 34.30156 30.14389
# Shear Modulus (GPa) = 17.01758 20.71981 18.86869
#
# Velocity S-wave (km/s) = 3.43439 3.78960 3.61636
# Velocity P-wave (km/s) = 5.80843 6.55154 6.19115
#
# Compressibility (1/GPa) = 0.03848195
#
# Stress axis : x y z
#
# Youngs Moduli (GPa) = 19.99253 32.73210 55.29795
#
# Poissons Ratio (x) = 0.35519 0.65472
# Poissons Ratio (y) = 0.21695 0.40890
# Poissons Ratio (z) = 0.23671 0.24204
#
# Static dielectric constant tensor:
#      x y z
#    x 1.481650 0.000000 0.000000 
#    y 0.000000 1.472240 0.000000 
#    z 0.000000 0.000000 1.498810 
# 
# From -- ./inp_files/20920.got.cif
#   From: 2010.05.17/outbox.cif.g08.bks.cpg/sg44_11_cif.got.tgz:20920.got - 2010.06.03 19:37:08.
