data_PCOD9373649
_publ_section_title
;
Structure prediction by ZEFSAII (Michael W. Deem and Ramdas Pophale) SiO2 
 PCOD9373649
Probable space group: I M M 2
;
_chemical_formula_sum "Si O2"
_cell_formula_units_Z 64
_cell_length_a 34.111272
_cell_length_b 8.925967
_cell_length_c 11.971453
_cell_angle_alpha 90.000000
_cell_angle_beta 90.000000
_cell_angle_gamma 90.000000
_cell_volume 3645.021180
_symmetry_space_group_name_H-M "I M M 2"
_symmetry_group_IT_number 44
_symmetry_cell_setting 'orthorhombic'
loop_
_space_group_symop_operation_xyz
x,y,z
-x,-y,z
-x,y,z
x,-y,z
1/2+x,1/2+y,1/2+z
1/2-x,1/2-y,1/2+z
1/2-x,1/2+y,1/2+z
1/2+x,1/2-y,1/2+z
loop_
_atom_site_type_symbol
_atom_site_label
_atom_site_fract_x
_atom_site_fract_y
_atom_site_fract_z
Si Si1 0.455147 0.321515 0.798560
Si Si2 0.730609 0.820627 0.488167
Si Si3 0.109036 0.169923 0.941408
Si Si4 0.188074 0.321103 0.545885
Si Si5 0.669723 0.325626 0.648845
Si Si6 0.680383 0.678884 0.288702
Si Si7 0.955017 0.670219 0.061463
Si Si8 0.874811 0.678352 0.358361
O O1 0.500000 0.275246 0.829093
O O2 0.452382 0.500000 0.810493
O O3 0.449901 0.276851 0.668415
O O4 0.418734 0.244343 0.860210
O O5 0.774279 0.756378 0.490422
O O6 0.707109 0.760189 0.597435
O O7 0.708697 0.755201 0.379569
O O8 0.730076 0.000000 0.487333
O O9 0.137793 0.178127 0.048874
O O10 0.074237 0.282667 0.964764
O O11 0.093968 0.000000 0.934696
O O12 0.136504 0.200874 0.836199
O O13 0.194152 0.500000 0.551358
O O14 0.184550 0.252083 0.668605
O O15 0.149750 0.292403 0.470723
O O16 0.679427 0.500000 0.670302
O O17 0.649721 0.251589 0.756373
O O18 0.687973 0.500000 0.286003
O O19 0.947140 0.500000 0.098509
O O20 0.000000 0.680255 0.025519
O O21 0.876726 0.500000 0.340326
#
# Coordination Sequence:
#
# PCOD9373649 Si02
#       8
#     8   8   8   8   8   8   8   8
#     4  10  20  34  54  81 116 154 190 234 290 349
#     4  11  23  39  61  85 113 150 189 234 288 338
#     4   9  18  33  54  79 107 143 180 224 275 331
#     4  11  25  42  59  83 114 149 193 239 287 343
#     4  10  20  35  56  82 114 148 188 231 278 338
#     4  10  22  41  61  82 110 145 190 236 285 339
#     4  10  19  29  47  79 115 147 181 224 275 334
#     4  11  23  37  57  85 117 152 192 239 290 346
#
# _framework density 17.558197
#
# number of rings (size 3 to 8) (size 9 to 14) (size 15 to 20)
#    0.000    1.750    1.250    4.125    1.750    6.000 
#    0.000    0.000    0.000    0.750    0.000    0.000 
#    0.000    0.000    0.000    0.000    0.000    0.000 
#
# Total GULP energy -178675.012655 kJ/mol
# GULP energy per Si atom -5583.594145 kJ/mol
# Density = 1.751823 g / cm^3
# Si number density = 17.558197 Si / 1000 Ang^3
#
#
#
# Elastic Constant Matrix: (Units=GPa)
#
#
# Indices 1 2 3 4 5 6 
#
# 1 118.0300 73.6326 46.6327 0.0000 0.0000 0.0000
# 2 73.6326 111.3032 49.6195 0.0000 0.0000 0.0000
# 3 46.6327 49.6195 81.6432 0.0000 0.0000 0.0000
# 4 0.0000 0.0000 0.0000 23.4534 0.0000 0.0000
# 5 0.0000 0.0000 0.0000 0.0000 18.8901 0.0000
# 6 0.0000 0.0000 0.0000 0.0000 0.0000 32.2977
#
#
#
# Elastic Compliance Matrix: (Units=1/GPa)
#
#
# Indices 1 2 3 4 5 6 
#
# 1 0.015125 -0.008442 -0.003508 0.000000 0.000000 0.000000
# 2 -0.008442 0.017035 -0.005531 0.000000 0.000000 0.000000
# 3 -0.003508 -0.005531 0.017614 0.000000 0.000000 0.000000
# 4 0.000000 0.000000 0.000000 0.042638 0.000000 0.000000
# 5 0.000000 0.000000 0.000000 0.000000 0.052938 0.000000
# 6 0.000000 0.000000 0.000000 0.000000 0.000000 0.030962
#
#
# Mechanical properties :
#
#
# Convention : Reuss Voigt Hill
#
# Bulk Modulus (GPa) = 67.51845 72.30511 69.91178
# Shear Modulus (GPa) = 23.12542 24.33434 23.72988
#
# Velocity S-wave (km/s) = 3.63309 3.72684 3.68026
# Velocity P-wave (km/s) = 7.49244 7.73232 7.61333
#
# Compressibility (1/GPa) = 0.01481077
#
# Stress axis : x y z
#
# Youngs Moduli (GPa) = 66.11577 58.70218 56.77245
#
# Poissons Ratio (x) = 0.49556 0.19918
# Poissons Ratio (y) = 0.55814 0.31404
# Poissons Ratio (z) = 0.23196 0.32471
#
# Static dielectric constant tensor:
#      x y z
#    x 1.610350 0.000000 0.000000 
#    y 0.000000 1.592610 0.000000 
#    z 0.000000 0.000000 1.575790 
# 
# From -- ./inp_files/15024.got.cif
#   From: 2010.05.17/outbox.cif.g08.bks.cpg/sg44_8_cif.got.tgz:15024.got - 2010.06.03 19:37:08.
