data_PCOD9373134
_publ_section_title
;
Structure prediction by ZEFSAII (Michael W. Deem and Ramdas Pophale) SiO2 
 PCOD9373134
Probable space group: I M M 2
;
_chemical_formula_sum "Si O2"
_cell_formula_units_Z 56
_cell_length_a 30.519673
_cell_length_b 7.712966
_cell_length_c 14.210644
_cell_angle_alpha 90.000000
_cell_angle_beta 90.000000
_cell_angle_gamma 90.000000
_cell_volume 3345.145810
_symmetry_space_group_name_H-M "I M M 2"
_symmetry_group_IT_number 44
_symmetry_cell_setting 'orthorhombic'
loop_
_space_group_symop_operation_xyz
x,y,z
-x,-y,z
-x,y,z
x,-y,z
1/2+x,1/2+y,1/2+z
1/2-x,1/2-y,1/2+z
1/2-x,1/2+y,1/2+z
1/2+x,1/2-y,1/2+z
loop_
_atom_site_type_symbol
_atom_site_label
_atom_site_fract_x
_atom_site_fract_y
_atom_site_fract_z
Si Si1 0.000000 0.198680 0.007151
Si Si2 0.769156 0.791076 0.488380
Si Si3 0.270459 0.708992 0.200527
Si Si4 0.817310 0.707646 0.304218
Si Si5 0.500000 0.196706 0.718065
Si Si6 0.905010 0.712912 0.204644
Si Si7 0.594343 0.790872 0.485859
Si Si8 0.318778 0.792163 0.384626
O O1 0.000000 0.308582 0.103514
O O2 0.954324 0.234554 0.955582
O O3 0.000000 0.000000 0.037891
O O4 0.776870 0.727948 0.594253
O O5 0.806057 0.745606 0.412286
O O6 0.722670 0.726778 0.446038
O O7 0.766568 0.000000 0.491691
O O8 0.268079 0.500000 0.197443
O O9 0.224147 0.773469 0.243343
O O10 0.307467 0.754398 0.276454
O O11 0.817930 0.500000 0.292788
O O12 0.863540 0.771917 0.264958
O O13 0.452569 0.274957 0.740812
O O14 0.500000 0.000000 0.754755
O O15 0.906315 0.500000 0.205761
O O16 0.899685 0.763486 0.095089
O O17 0.634910 0.726835 0.423599
O O18 0.594839 0.000000 0.484778
O O19 0.319291 0.000000 0.395698
#
# Coordination Sequence:
#
# PCOD9373134 Si02
#       8
#     4   8   8   8   4   8   8   8
#     4  10  18  26  38  60  87 110 133 166 203 242
#     4   9  17  29  42  59  84 112 138 167 204 246
#     4   9  17  28  41  57  82 111 135 163 204 248
#     4   9  16  26  41  61  81 105 137 170 202 241
#     4   8  14  26  42  58  79 110 141 168 201 244
#     4   8  13  23  41  61  80 104 136 167 198 239
#     4   9  16  28  44  60  81 111 140 167 201 243
#     4   9  17  28  44  63  81 105 141 175 201 234
#
# _framework density 16.740675
#
# number of rings (size 3 to 8) (size 9 to 14) (size 15 to 20)
#    0.000    3.143    0.000    2.357    0.000    4.571 
#    0.000    2.857    0.000    5.143    0.000    1.000 
#    0.000    6.857    0.000    0.000    0.000    0.000 
#
# Total GULP energy -155945.285532 kJ/mol
# GULP energy per Si atom -5569.474483 kJ/mol
# Density = 1.670257 g / cm^3
# Si number density = 16.740675 Si / 1000 Ang^3
#
#
#
# Elastic Constant Matrix: (Units=GPa)
#
#
# Indices 1 2 3 4 5 6 
#
# 1 169.1933 6.7067 84.0442 0.0000 0.0000 0.0000
# 2 6.7067 30.6365 1.7567 0.0000 0.0000 0.0000
# 3 84.0442 1.7567 113.0023 0.0000 0.0000 0.0000
# 4 0.0000 0.0000 0.0000 16.1642 0.0000 0.0000
# 5 0.0000 0.0000 0.0000 0.0000 26.4731 0.0000
# 6 0.0000 0.0000 0.0000 0.0000 0.0000 11.7997
#
#
#
# Elastic Compliance Matrix: (Units=1/GPa)
#
#
# Indices 1 2 3 4 5 6 
#
# 1 0.009458 -0.001669 -0.007008 0.000000 0.000000 0.000000
# 2 -0.001669 0.032964 0.000729 0.000000 0.000000 0.000000
# 3 -0.007008 0.000729 0.014050 0.000000 0.000000 0.000000
# 4 0.000000 0.000000 0.000000 0.061865 0.000000 0.000000
# 5 0.000000 0.000000 0.000000 0.000000 0.037774 0.000000
# 6 0.000000 0.000000 0.000000 0.000000 0.000000 0.084748
#
#
# Mechanical properties :
#
#
# Convention : Reuss Voigt Hill
#
# Bulk Modulus (GPa) = 24.64515 55.31636 39.98075
# Shear Modulus (GPa) = 18.49925 25.57571 22.03748
#
# Velocity S-wave (km/s) = 3.32783 3.91290 3.63216
# Velocity P-wave (km/s) = 5.43320 7.31636 6.44394
#
# Compressibility (1/GPa) = 0.04057594
#
# Stress axis : x y z
#
# Youngs Moduli (GPa) = 105.73372 30.33585 71.17300
#
# Poissons Ratio (x) = 0.05062 0.49879
# Poissons Ratio (y) = 0.17642 -0.05185
# Poissons Ratio (z) = 0.74100 -0.02210
#
# Static dielectric constant tensor:
#      x y z
#    x 1.594670 0.000000 0.000000 
#    y 0.000000 1.632510 0.000000 
#    z 0.000000 0.000000 1.539440 
# 
# From -- ./inp_files/19678.got.cif
#   From: 2010.05.17/outbox.cif.g08.bks.cpg/sg44_10_cif.got.tgz:19678.got - 2010.06.03 19:37:08.
