data_PCOD9373468
_publ_section_title
;
Structure prediction by ZEFSAII (Michael W. Deem and Ramdas Pophale) SiO2 
 PCOD9373468
Probable space group: I M M 2
;
_chemical_formula_sum "Si O2"
_cell_formula_units_Z 56
_cell_length_a 18.569514
_cell_length_b 18.052554
_cell_length_c 8.420657
_cell_angle_alpha 90.000000
_cell_angle_beta 90.000000
_cell_angle_gamma 90.000000
_cell_volume 2822.832883
_symmetry_space_group_name_H-M "I M M 2"
_symmetry_group_IT_number 44
_symmetry_cell_setting 'orthorhombic'
loop_
_space_group_symop_operation_xyz
x,y,z
-x,-y,z
-x,y,z
x,-y,z
1/2+x,1/2+y,1/2+z
1/2-x,1/2-y,1/2+z
1/2-x,1/2+y,1/2+z
1/2+x,1/2-y,1/2+z
loop_
_atom_site_type_symbol
_atom_site_label
_atom_site_fract_x
_atom_site_fract_y
_atom_site_fract_z
Si Si1 0.794058 0.915295 0.799500
Si Si2 0.303351 0.196769 0.598696
Si Si3 0.583667 0.914996 0.589133
Si Si4 0.774807 0.587295 0.631024
Si Si5 0.584913 0.413354 0.061963
Si Si6 0.688871 0.688269 0.859074
Si Si7 0.421083 0.911341 0.971780
O O1 0.742945 0.861739 0.700823
O O2 0.874154 0.906070 0.730975
O O3 0.771298 0.000000 0.765501
O O4 0.781055 0.904617 0.984766
O O5 0.366080 0.148480 0.518428
O O6 0.334655 0.256849 0.719720
O O7 0.243335 0.229560 0.480365
O O8 0.500000 0.907921 0.544035
O O9 0.605870 0.000000 0.554036
O O10 0.587813 0.903997 0.781269
O O11 0.782576 0.500000 0.663764
O O12 0.741128 0.628049 0.779129
O O13 0.852021 0.616582 0.567626
O O14 0.500000 0.399961 0.071121
O O15 0.595683 0.500000 0.011462
O O16 0.625357 0.355467 0.947114
O O17 0.500000 0.880859 0.015859
O O18 0.422928 0.000000 0.998201
#
# Coordination Sequence:
#
# PCOD9373468 Si02
#       7
#     8   8   8   8   8   8   8
#     4   9  17  32  58  83 107 140 181 229 284 340
#     4  11  21  35  52  77 111 148 188 230 274 326
#     4   9  17  31  55  84 109 139 178 219 270 330
#     4  10  18  32  54  82 113 146 189 236 282 334
#     4   9  19  38  61  85 112 144 187 239 294 347
#     4  11  24  36  55  79 113 151 196 233 282 333
#     4   8  14  26  49  80 110 141 177 217 263 319
#
# _framework density 19.838225000000001
#
# number of rings (size 3 to 8) (size 9 to 14) (size 15 to 20)
#    0.000    2.429    1.429    2.571    0.000    2.286 
#    0.000    1.429    0.000   11.143    0.000    0.000 
#    0.000    0.000    0.000    0.000    0.000    0.000 
#
# Total GULP energy -156172.619123 kJ/mol
# GULP energy per Si atom -5577.593540 kJ/mol
# Density = 1.979307 g / cm^3
# Si number density = 19.838225 Si / 1000 Ang^3
#
#
#
# Elastic Constant Matrix: (Units=GPa)
#
#
# Indices 1 2 3 4 5 6 
#
# 1 127.3792 41.7494 26.0004 0.0000 0.0000 0.0000
# 2 41.7494 61.9582 10.4531 0.0000 0.0000 0.0000
# 3 26.0004 10.4531 28.7901 0.0000 0.0000 0.0000
# 4 0.0000 0.0000 0.0000 17.5145 0.0000 0.0000
# 5 0.0000 0.0000 0.0000 0.0000 24.6038 0.0000
# 6 0.0000 0.0000 0.0000 0.0000 0.0000 17.6646
#
#
#
# Elastic Compliance Matrix: (Units=1/GPa)
#
#
# Indices 1 2 3 4 5 6 
#
# 1 0.011635 -0.006463 -0.008161 0.000000 0.000000 0.000000
# 2 -0.006463 0.020783 -0.001709 0.000000 0.000000 0.000000
# 3 -0.008161 -0.001709 0.042725 0.000000 0.000000 0.000000
# 4 0.000000 0.000000 0.000000 0.057095 0.000000 0.000000
# 5 0.000000 0.000000 0.000000 0.000000 0.040644 0.000000
# 6 0.000000 0.000000 0.000000 0.000000 0.000000 0.056611
#
#
# Mechanical properties :
#
#
# Convention : Reuss Voigt Hill
#
# Bulk Modulus (GPa) = 23.54228 41.61480 32.57854
# Shear Modulus (GPa) = 18.09514 21.28488 19.69001
#
# Velocity S-wave (km/s) = 3.02343 3.27910 3.15386
# Velocity P-wave (km/s) = 4.90725 5.94637 5.45162
#
# Compressibility (1/GPa) = 0.04247676
#
# Stress axis : x y z
#
# Youngs Moduli (GPa) = 85.95061 48.11574 23.40570
#
# Poissons Ratio (x) = 0.31097 0.19101
# Poissons Ratio (y) = 0.55549 0.04001
# Poissons Ratio (z) = 0.70141 0.08224
#
# Static dielectric constant tensor:
#      x y z
#    x 1.710240 0.000000 0.000000 
#    y 0.000000 1.723290 0.000000 
#    z 0.000000 0.000000 1.712650 
# 
# From -- ./inp_files/8408.got.cif
#   From: 2010.05.17/outbox.cif.g08.bks.cpg/sg44_5_cif.got.tgz:8408.got - 2010.06.03 19:37:08.
