data_PCOD9373982
_publ_section_title
;
Structure prediction by ZEFSAII (Michael W. Deem and Ramdas Pophale) SiO2 
 PCOD9373982
Probable space group: I M M 2
;
_chemical_formula_sum "Si O2"
_cell_formula_units_Z 40
_cell_length_a 7.909982
_cell_length_b 21.763757
_cell_length_c 13.674748
_cell_angle_alpha 90.000000
_cell_angle_beta 90.000000
_cell_angle_gamma 90.000000
_cell_volume 2354.120533
_symmetry_space_group_name_H-M "I M M 2"
_symmetry_group_IT_number 44
_symmetry_cell_setting 'orthorhombic'
loop_
_space_group_symop_operation_xyz
x,y,z
-x,-y,z
-x,y,z
x,-y,z
1/2+x,1/2+y,1/2+z
1/2-x,1/2-y,1/2+z
1/2-x,1/2+y,1/2+z
1/2+x,1/2-y,1/2+z
loop_
_atom_site_type_symbol
_atom_site_label
_atom_site_fract_x
_atom_site_fract_y
_atom_site_fract_z
Si Si1 0.300310 0.154148 0.991710
Si Si2 0.300450 0.777913 0.190436
Si Si3 0.000000 0.072596 0.678355
Si Si4 0.000000 0.072422 0.912069
Si Si5 0.313499 0.150811 0.603814
Si Si6 0.199796 0.789282 0.408122
O O1 0.500000 0.138077 0.981259
O O2 0.269428 0.217335 0.931733
O O3 0.167649 0.104193 0.955655
O O4 0.266995 0.173509 0.104229
O O5 0.500000 0.763869 0.186058
O O6 0.207661 0.714359 0.164421
O O7 0.253285 0.801152 0.297414
O O8 0.000000 0.081748 0.795228
O O9 0.834815 0.105318 0.634571
O O10 0.000000 0.000000 0.658173
O O11 0.000000 0.000000 0.932120
O O12 0.500000 0.125293 0.621247
O O13 0.291623 0.171131 0.490902
O O14 0.000000 0.799492 0.420538
#
# Coordination Sequence:
#
# PCOD9373982 Si02
#       6
#     8   8   4   4   8   8
#     4   9  21  36  52  82 116 143 183 228 276 330
#     4  10  19  32  54  87 118 146 179 226 283 339
#     4  11  24  42  57  79 113 149 193 238 272 332
#     4  11  24  38  59  79 105 153 193 226 278 326
#     4  11  21  36  56  83 115 149 185 229 284 334
#     4  10  19  32  55  88 117 146 179 225 286 340
#
# _framework density 16.991482999999999
#
# number of rings (size 3 to 8) (size 9 to 14) (size 15 to 20)
#    0.000    1.800    2.000    3.600    8.400    3.200 
#    0.000    2.000    0.000    2.400    0.000    2.800 
#    0.000    0.000    0.000    0.000    0.000    0.000 
#
# Total GULP energy -111683.315722 kJ/mol
# GULP energy per Si atom -5584.165786 kJ/mol
# Density = 1.695281 g / cm^3
# Si number density = 16.991483 Si / 1000 Ang^3
#
#
#
# Elastic Constant Matrix: (Units=GPa)
#
#
# Indices 1 2 3 4 5 6 
#
# 1 138.2131 76.4187 46.8016 0.0000 0.0000 0.0000
# 2 76.4187 87.4093 50.5283 0.0000 0.0000 0.0000
# 3 46.8016 50.5283 93.6343 0.0000 0.0000 0.0000
# 4 0.0000 0.0000 0.0000 16.7996 0.0000 0.0000
# 5 0.0000 0.0000 0.0000 0.0000 28.6444 0.0000
# 6 0.0000 0.0000 0.0000 0.0000 0.0000 13.7072
#
#
#
# Elastic Compliance Matrix: (Units=1/GPa)
#
#
# Indices 1 2 3 4 5 6 
#
# 1 0.014026 -0.011932 -0.000572 0.000000 0.000000 0.000000
# 2 -0.011932 0.026778 -0.008486 0.000000 0.000000 0.000000
# 3 -0.000572 -0.008486 0.015545 0.000000 0.000000 0.000000
# 4 0.000000 0.000000 0.000000 0.059525 0.000000 0.000000
# 5 0.000000 0.000000 0.000000 0.000000 0.034911 0.000000
# 6 0.000000 0.000000 0.000000 0.000000 0.000000 0.072954
#
#
# Mechanical properties :
#
#
# Convention : Reuss Voigt Hill
#
# Bulk Modulus (GPa) = 69.59437 74.08377 71.83907
# Shear Modulus (GPa) = 18.48371 21.53078 20.00725
#
# Velocity S-wave (km/s) = 3.30179 3.56357 3.43518
# Velocity P-wave (km/s) = 7.45541 7.78635 7.62267
#
# Compressibility (1/GPa) = 0.01436898
#
# Stress axis : x y z
#
# Youngs Moduli (GPa) = 71.29593 37.34467 64.32908
#
# Poissons Ratio (x) = 0.44559 0.03679
# Poissons Ratio (y) = 0.85070 0.54590
# Poissons Ratio (z) = 0.04077 0.31691
#
# Static dielectric constant tensor:
#      x y z
#    x 1.600230 0.000000 0.000000 
#    y 0.000000 1.533100 0.000000 
#    z 0.000000 0.000000 1.587140 
# 
# From -- ./inp_files/11019.got.cif
#   From: 2010.05.17/outbox.cif.g08.bks.cpg/sg44_6_cif.got.tgz:11019.got - 2010.06.03 19:37:08.
