data_PCOD9373624
_publ_section_title
;
Structure prediction by ZEFSAII (Michael W. Deem and Ramdas Pophale) SiO2 
 PCOD9373624
Probable space group: I M M 2
;
_chemical_formula_sum "Si O2"
_cell_formula_units_Z 56
_cell_length_a 14.009096
_cell_length_b 9.241891
_cell_length_c 29.849999
_cell_angle_alpha 90.000000
_cell_angle_beta 90.000000
_cell_angle_gamma 90.000000
_cell_volume 3864.695437
_symmetry_space_group_name_H-M "I M M 2"
_symmetry_group_IT_number 44
_symmetry_cell_setting 'orthorhombic'
loop_
_space_group_symop_operation_xyz
x,y,z
-x,-y,z
-x,y,z
x,-y,z
1/2+x,1/2+y,1/2+z
1/2-x,1/2-y,1/2+z
1/2-x,1/2+y,1/2+z
1/2+x,1/2-y,1/2+z
loop_
_atom_site_type_symbol
_atom_site_label
_atom_site_fract_x
_atom_site_fract_y
_atom_site_fract_z
Si Si1 0.282783 0.327235 0.140630
Si Si2 0.615879 0.166674 0.958665
Si Si3 0.611606 0.673944 0.869040
Si Si4 0.609720 0.326847 0.233344
Si Si5 0.111090 0.826947 0.187172
Si Si6 0.112888 0.325430 0.559088
Si Si7 0.218700 0.826599 0.279253
O O1 0.276153 0.500000 0.135514
O O2 0.352204 0.296378 0.183096
O O3 0.181302 0.259033 0.154386
O O4 0.326779 0.253667 0.096887
O O5 0.500000 0.168457 0.959347
O O6 0.645750 0.259613 0.915983
O O7 0.645531 0.000000 0.952844
O O8 0.644010 0.216095 0.008523
O O9 0.500000 0.714366 0.862480
O O10 0.615194 0.500000 0.871562
O O11 0.672682 0.720678 0.826114
O O12 0.500000 0.281321 0.238191
O O13 0.615152 0.500000 0.239559
O O14 0.682178 0.249070 0.266921
O O15 0.146841 0.796200 0.237868
O O16 0.000000 0.790210 0.182081
O O17 0.122113 0.000000 0.180157
O O18 0.121814 0.500000 0.562612
O O19 0.000000 0.291281 0.564304
O O20 0.231627 0.000000 0.280690
#
# Coordination Sequence:
#
# PCOD9373624 Si02
#       7
#     8   8   8   8   8   8   8
#     4  10  19  29  43  64  88 113 142 176 214 254
#     4   8  15  27  41  59  84 112 141 172 205 244
#     4   9  16  26  41  62  88 114 138 168 207 249
#     4   9  18  31  43  58  84 114 142 174 210 247
#     4   9  17  30  46  62  84 115 147 177 208 245
#     4   9  17  29  44  62  86 115 145 176 209 249
#     4   9  17  28  43  64  86 110 143 176 206 244
#
# _framework density 14.490145999999999
#
# number of rings (size 3 to 8) (size 9 to 14) (size 15 to 20)
#    0.000    3.000    0.000    2.143    0.000    4.857 
#    0.000    1.429    0.000    2.571    0.000    1.000 
#    0.000    5.714    0.000    0.000    0.000    0.000 
#
# Total GULP energy -155952.592742 kJ/mol
# GULP energy per Si atom -5569.735455 kJ/mol
# Density = 1.445717 g / cm^3
# Si number density = 14.490146 Si / 1000 Ang^3
#
#
#
# Elastic Constant Matrix: (Units=GPa)
#
#
# Indices 1 2 3 4 5 6 
#
# 1 106.0221 42.2722 70.8909 0.0000 0.0000 0.0000
# 2 42.2722 29.5596 52.9833 0.0000 0.0000 0.0000
# 3 70.8909 52.9833 142.8236 0.0000 0.0000 0.0000
# 4 0.0000 0.0000 0.0000 26.2197 0.0000 0.0000
# 5 0.0000 0.0000 0.0000 0.0000 24.6222 0.0000
# 6 0.0000 0.0000 0.0000 0.0000 0.0000 20.4047
#
#
#
# Elastic Compliance Matrix: (Units=1/GPa)
#
#
# Indices 1 2 3 4 5 6 
#
# 1 0.022186 -0.035782 0.002262 0.000000 0.000000 0.000000
# 2 -0.035782 0.158676 -0.041103 0.000000 0.000000 0.000000
# 3 0.002262 -0.041103 0.021127 0.000000 0.000000 0.000000
# 4 0.000000 0.000000 0.000000 0.038139 0.000000 0.000000
# 5 0.000000 0.000000 0.000000 0.000000 0.040614 0.000000
# 6 0.000000 0.000000 0.000000 0.000000 0.000000 0.049008
#
#
# Mechanical properties :
#
#
# Convention : Reuss Voigt Hill
#
# Bulk Modulus (GPa) = 18.96036 67.85535 43.40785
# Shear Modulus (GPa) = 10.06890 21.73325 15.90108
#
# Velocity S-wave (km/s) = 2.63892 3.87701 3.31625
# Velocity P-wave (km/s) = 4.73271 8.18363 6.68470
#
# Compressibility (1/GPa) = 0.05274162
#
# Stress axis : x y z
#
# Youngs Moduli (GPa) = 45.07247 6.30216 47.33285
#
# Poissons Ratio (x) = 0.22551 -0.10706
# Poissons Ratio (y) = 1.61281 1.94553
# Poissons Ratio (z) = -0.10195 0.25904
#
# Static dielectric constant tensor:
#      x y z
#    x 1.455840 0.000000 0.000000 
#    y 0.000000 1.481650 0.000000 
#    z 0.000000 0.000000 1.473510 
# 
# From -- ./inp_files/25460.got.cif
#   From: 2010.05.17/outbox.cif.g08.bks.cpg/sg44_13_cif.got.tgz:25460.got - 2010.06.03 19:37:08.
