data_PCOD9373414
_publ_section_title
;
Structure prediction by ZEFSAII (Michael W. Deem and Ramdas Pophale) SiO2 
 PCOD9373414
Probable space group: I M M 2
;
_chemical_formula_sum "Si O2"
_cell_formula_units_Z 64
_cell_length_a 14.490519
_cell_length_b 13.941949
_cell_length_c 14.032500
_cell_angle_alpha 90.000000
_cell_angle_beta 90.000000
_cell_angle_gamma 90.000000
_cell_volume 2834.930924
_symmetry_space_group_name_H-M "I M M 2"
_symmetry_group_IT_number 44
_symmetry_cell_setting 'orthorhombic'
loop_
_space_group_symop_operation_xyz
x,y,z
-x,-y,z
-x,y,z
x,-y,z
1/2+x,1/2+y,1/2+z
1/2-x,1/2-y,1/2+z
1/2-x,1/2+y,1/2+z
1/2+x,1/2-y,1/2+z
loop_
_atom_site_type_symbol
_atom_site_label
_atom_site_fract_x
_atom_site_fract_y
_atom_site_fract_z
Si Si1 0.101582 0.763741 0.390460
Si Si2 0.886906 0.110116 0.550448
Si Si3 0.771796 0.391960 0.719030
Si Si4 0.145226 0.107750 0.934586
Si Si5 0.108814 0.218412 0.745565
Si Si6 0.111381 0.390633 0.232041
Si Si7 0.894407 0.216962 0.121266
Si Si8 0.147732 0.399718 0.510157
O O1 0.148932 0.850989 0.447107
O O2 0.139142 0.689563 0.311099
O O3 0.093038 0.691551 0.479367
O O4 0.000000 0.795243 0.358654
O O5 0.861132 0.172787 0.643783
O O6 0.000000 0.112257 0.546011
O O7 0.859306 0.000000 0.564983
O O8 0.764098 0.500000 0.758181
O O9 0.827925 0.309612 0.773329
O O10 0.673197 0.350423 0.683968
O O11 0.830270 0.399313 0.621062
O O12 0.122278 0.140563 0.828726
O O13 0.253862 0.104606 0.957457
O O14 0.110117 0.000000 0.952849
O O15 0.110100 0.182413 0.012917
O O16 0.000000 0.243253 0.739740
O O17 0.148107 0.500000 0.238297
O O18 0.131173 0.328987 0.136834
O O19 0.000000 0.398959 0.241688
O O20 0.000000 0.205606 0.151830
O O21 0.103134 0.500000 0.481845
#
# Coordination Sequence:
#
# PCOD9373414 Si02
#       8
#     8   8   8   8   8   8   8   8
#     4  10  18  31  53  82 118 161 205 248 299 368
#     4   9  18  33  53  81 120 161 200 249 309 369
#     4  10  22  39  58  86 124 157 198 255 306 366
#     4  10  22  39  63  91 120 162 213 262 309 361
#     4  11  22  38  61  89 123 164 209 258 311 371
#     4   9  19  35  57  87 118 151 197 252 306 361
#     4  10  21  40  66  93 124 161 203 258 315 364
#     4   9  18  33  54  81 115 154 196 251 306 354
#
# _framework density 22.575503999999999
#
# number of rings (size 3 to 8) (size 9 to 14) (size 15 to 20)
#    0.000    2.250    1.250    2.250    1.750    3.250 
#    0.000    3.750    0.000    6.000    0.000    0.000 
#    0.000    0.000    0.000    0.000    0.000    0.000 
#
# Total GULP energy -178380.928341 kJ/mol
# GULP energy per Si atom -5574.404011 kJ/mol
# Density = 2.252412 g / cm^3
# Si number density = 22.575504 Si / 1000 Ang^3
#
#
#
# Elastic Constant Matrix: (Units=GPa)
#
#
# Indices 1 2 3 4 5 6 
#
# 1 65.7406 9.5626 0.2840 0.0000 0.0000 0.0000
# 2 9.5626 149.6446 57.0375 0.0000 0.0000 0.0000
# 3 0.2840 57.0375 97.2189 0.0000 0.0000 0.0000
# 4 0.0000 0.0000 0.0000 16.3163 0.0000 0.0000
# 5 0.0000 0.0000 0.0000 0.0000 9.6538 0.0000
# 6 0.0000 0.0000 0.0000 0.0000 0.0000 300.5746
#
#
#
# Elastic Compliance Matrix: (Units=1/GPa)
#
#
# Indices 1 2 3 4 5 6 
#
# 1 0.015389 -0.001245 0.000685 0.000000 0.000000 0.000000
# 2 -0.001245 0.008708 -0.005105 0.000000 0.000000 0.000000
# 3 0.000685 -0.005105 0.013279 0.000000 0.000000 0.000000
# 4 0.000000 0.000000 0.000000 0.061288 0.000000 0.000000
# 5 0.000000 0.000000 0.000000 0.000000 0.103587 0.000000
# 6 0.000000 0.000000 0.000000 0.000000 0.000000 0.003327
#
#
# Mechanical properties :
#
#
# Convention : Reuss Voigt Hill
#
# Bulk Modulus (GPa) = 38.39158 49.59693 43.99425
# Shear Modulus (GPa) = 22.16410 81.69028 51.92719
#
# Velocity S-wave (km/s) = 3.13673 6.02195 4.80120
# Velocity P-wave (km/s) = 5.49195 8.38862 7.08980
#
# Compressibility (1/GPa) = 0.02604738
#
# Stress axis : x y z
#
# Youngs Moduli (GPa) = 64.97991 114.83822 75.30543
#
# Poissons Ratio (x) = 0.14293 -0.05160
# Poissons Ratio (y) = 0.08087 0.38445
# Poissons Ratio (z) = -0.04453 0.58627
#
# Static dielectric constant tensor:
#      x y z
#    x 1.891630 0.000000 0.000000 
#    y 0.000000 1.960760 0.000000 
#    z 0.000000 0.000000 1.905200 
# 
# From -- ./inp_files/18965.got.cif
#   From: 2010.05.17/outbox.cif.g08.bks.cpg/sg44_10_cif.got.tgz:18965.got - 2010.06.03 19:37:08.
