data_PCOD9373648
_publ_section_title
;
Structure prediction by ZEFSAII (Michael W. Deem and Ramdas Pophale) SiO2 
 PCOD9373648
Probable space group: I M M 2
;
_chemical_formula_sum "Si O2"
_cell_formula_units_Z 46
_cell_length_a 11.785544
_cell_length_b 7.575696
_cell_length_c 30.169792
_cell_angle_alpha 90.000000
_cell_angle_beta 90.000000
_cell_angle_gamma 90.000000
_cell_volume 2693.670614
_symmetry_space_group_name_H-M "I M M 2"
_symmetry_group_IT_number 44
_symmetry_cell_setting 'orthorhombic'
loop_
_space_group_symop_operation_xyz
x,y,z
-x,-y,z
-x,y,z
x,-y,z
1/2+x,1/2+y,1/2+z
1/2-x,1/2-y,1/2+z
1/2-x,1/2+y,1/2+z
1/2+x,1/2-y,1/2+z
loop_
_atom_site_type_symbol
_atom_site_label
_atom_site_fract_x
_atom_site_fract_y
_atom_site_fract_z
Si Si1 0.628534 0.290636 0.291410
Si Si2 0.500000 0.500000 0.071686
Si Si3 0.255601 0.000000 0.553597
Si Si4 0.637942 0.297796 0.388657
Si Si5 0.773037 0.710442 0.699766
Si Si6 0.866057 0.211522 0.116799
Si Si7 0.500000 0.787421 0.146971
Si Si8 0.637172 0.000000 0.456968
O O1 0.500000 0.221528 0.281284
O O2 0.617137 0.500000 0.297418
O O3 0.668254 0.225875 0.339624
O O4 0.712825 0.264991 0.250531
O O5 0.620269 0.500000 0.047335
O O6 0.500000 0.673377 0.102842
O O7 0.296356 0.830194 0.582244
O O8 0.314955 0.000000 0.506112
O O9 0.500000 0.300557 0.388192
O O10 0.676786 0.500000 0.394431
O O11 0.672899 0.170427 0.428275
O O12 0.769498 0.500000 0.700842
O O13 0.672937 0.765512 0.666567
O O14 0.889126 0.762630 0.674995
O O15 0.000000 0.240271 0.110762
O O16 0.843535 0.000000 0.111491
O O17 0.500000 0.000000 0.139820
O O18 0.500000 0.000000 0.459305
#
# Coordination Sequence:
#
# PCOD9373648 Si02
#       8
#     8   2   4   8   8   8   4   4
#     4   9  17  26  43  71 105 138 172 211 264 319
#     4  12  24  36  60  76 112 144 172 228 278 316
#     4  12  24  38  58  84 104 140 186 224 277 329
#     4   8  16  31  47  71 103 134 168 215 266 319
#     4  10  19  29  47  75 106 143 179 213 259 316
#     4  10  22  39  55  75 110 148 184 225 263 312
#     4  10  20  34  48  74 110 148 182 212 256 318
#     4  10  20  34  54  76 102 132 172 224 274 321
#
# _framework density 17.077071
#
# number of rings (size 3 to 8) (size 9 to 14) (size 15 to 20)
#    0.000    2.261    2.609    1.826    3.652    0.696 
#    0.000    1.739    0.000    0.000    2.261    0.000 
#    0.000    0.000    0.000    0.000    0.000    0.000 
#
# Total GULP energy -128160.336254 kJ/mol
# GULP energy per Si atom -5572.188533 kJ/mol
# Density = 1.703820 g / cm^3
# Si number density = 17.077071 Si / 1000 Ang^3
#
#
#
# Elastic Constant Matrix: (Units=GPa)
#
#
# Indices 1 2 3 4 5 6 
#
# 1 60.5353 25.0790 30.8604 0.0000 0.0000 0.0000
# 2 25.0790 64.5430 41.0679 0.0000 0.0000 0.0000
# 3 30.8604 41.0679 135.8062 0.0000 0.0000 0.0000
# 4 0.0000 0.0000 0.0000 23.8912 0.0000 0.0000
# 5 0.0000 0.0000 0.0000 0.0000 21.0387 0.0000
# 6 0.0000 0.0000 0.0000 0.0000 0.0000 11.4591
#
#
#
# Elastic Compliance Matrix: (Units=1/GPa)
#
#
# Indices 1 2 3 4 5 6 
#
# 1 0.020506 -0.006195 -0.002786 0.000000 0.000000 0.000000
# 2 -0.006195 0.021057 -0.004960 0.000000 0.000000 0.000000
# 3 -0.002786 -0.004960 0.009496 0.000000 0.000000 0.000000
# 4 0.000000 0.000000 0.000000 0.041856 0.000000 0.000000
# 5 0.000000 0.000000 0.000000 0.000000 0.047532 0.000000
# 6 0.000000 0.000000 0.000000 0.000000 0.000000 0.087267
#
#
# Mechanical properties :
#
#
# Convention : Reuss Voigt Hill
#
# Bulk Modulus (GPa) = 43.14649 50.54436 46.84543
# Shear Modulus (GPa) = 18.98816 22.20295 20.59555
#
# Velocity S-wave (km/s) = 3.33815 3.60969 3.47657
# Velocity P-wave (km/s) = 6.33863 6.85822 6.60354
#
# Compressibility (1/GPa) = 0.02317686
#
# Stress axis : x y z
#
# Youngs Moduli (GPa) = 48.76542 47.49118 105.30239
#
# Poissons Ratio (x) = 0.29421 0.29342
# Poissons Ratio (y) = 0.30210 0.52228
# Poissons Ratio (z) = 0.13588 0.23555
#
# Static dielectric constant tensor:
#      x y z
#    x 1.568290 0.000000 0.000000 
#    y 0.000000 1.609400 0.000000 
#    z 0.000000 0.000000 1.593190 
# 
# From -- ./inp_files/25382.got.cif
#   From: 2010.05.17/outbox.cif.g08.bks.cpg/sg44_13_cif.got.tgz:25382.got - 2010.06.03 19:37:08.
