data_PCOD9373459
_publ_section_title
;
Structure prediction by ZEFSAII (Michael W. Deem and Ramdas Pophale) SiO2 
 PCOD9373459
Probable space group: I M M 2
;
_chemical_formula_sum "Si O2"
_cell_formula_units_Z 52
_cell_length_a 15.183209
_cell_length_b 19.174341
_cell_length_c 9.925503
_cell_angle_alpha 90.000000
_cell_angle_beta 90.000000
_cell_angle_gamma 90.000000
_cell_volume 2889.592104
_symmetry_space_group_name_H-M "I M M 2"
_symmetry_group_IT_number 44
_symmetry_cell_setting 'orthorhombic'
loop_
_space_group_symop_operation_xyz
x,y,z
-x,-y,z
-x,y,z
x,-y,z
1/2+x,1/2+y,1/2+z
1/2-x,1/2-y,1/2+z
1/2-x,1/2+y,1/2+z
1/2+x,1/2-y,1/2+z
loop_
_atom_site_type_symbol
_atom_site_label
_atom_site_fract_x
_atom_site_fract_y
_atom_site_fract_z
Si Si1 0.101554 0.143777 0.926880
Si Si2 0.265973 0.210862 0.046516
Si Si3 0.262868 0.000000 0.585111
Si Si4 0.400723 0.153102 0.843412
Si Si5 0.603747 0.500000 0.271469
Si Si6 0.400600 0.000000 0.828074
Si Si7 0.832826 0.353067 0.039865
Si Si8 0.402932 0.211793 0.275969
O O1 0.122299 0.069937 0.857616
O O2 0.104868 0.206719 0.818030
O O3 0.000000 0.141957 0.977529
O O4 0.176434 0.166003 0.032804
O O5 0.238513 0.291496 0.051887
O O6 0.325958 0.192965 0.173784
O O7 0.325505 0.197314 0.914753
O O8 0.323685 0.000000 0.719232
O O9 0.289133 0.928050 0.514652
O O10 0.163866 0.000000 0.639539
O O11 0.500000 0.179070 0.865087
O O12 0.383212 0.146785 0.683210
O O13 0.393955 0.073996 0.901683
O O14 0.500000 0.500000 0.240216
O O15 0.500000 0.000000 0.766376
O O16 0.892803 0.330467 0.914836
O O17 0.500000 0.200214 0.217196
#
# Coordination Sequence:
#
# PCOD9373459 Si02
#       8
#     8   8   4   8   4   4   8   8
#     4   9  19  34  54  77 104 137 175 217 261 307
#     4  11  20  33  52  78 107 136 173 215 256 305
#     4  10  18  32  54  75 101 135 172 216 256 296
#     4  10  19  33  55  80 103 132 169 214 260 304
#     4  10  18  32  55  82 104 132 178 226 266 300
#     4   8  16  30  51  79 103 123 160 210 256 298
#     4  10  20  35  53  75 104 139 175 211 255 313
#     4  10  20  35  53  78 111 141 167 207 261 318
#
# _framework density 17.995621
#
# number of rings (size 3 to 8) (size 9 to 14) (size 15 to 20)
#    0.000    2.154    0.000    5.538    0.000    1.231 
#    0.000    2.308    0.000    0.923    0.000    0.000 
#    0.000    0.000    0.000    0.000    0.000    0.000 
#
# Total GULP energy -144925.787851 kJ/mol
# GULP energy per Si atom -5574.068763 kJ/mol
# Density = 1.795466 g / cm^3
# Si number density = 17.995621 Si / 1000 Ang^3
#
#
#
# Elastic Constant Matrix: (Units=GPa)
#
#
# Indices 1 2 3 4 5 6 
#
# 1 104.4492 38.6288 31.9688 0.0000 0.0000 0.0000
# 2 38.6288 113.0346 16.4040 0.0000 0.0000 0.0000
# 3 31.9688 16.4040 52.6322 0.0000 0.0000 0.0000
# 4 0.0000 0.0000 0.0000 5.6580 0.0000 0.0000
# 5 0.0000 0.0000 0.0000 0.0000 25.2420 0.0000
# 6 0.0000 0.0000 0.0000 0.0000 0.0000 20.3616
#
#
#
# Elastic Compliance Matrix: (Units=1/GPa)
#
#
# Indices 1 2 3 4 5 6 
#
# 1 0.012917 -0.003431 -0.006776 0.000000 0.000000 0.000000
# 2 -0.003431 0.010177 -0.001088 0.000000 0.000000 0.000000
# 3 -0.006776 -0.001088 0.023455 0.000000 0.000000 0.000000
# 4 0.000000 0.000000 0.000000 0.176742 0.000000 0.000000
# 5 0.000000 0.000000 0.000000 0.000000 0.039616 0.000000
# 6 0.000000 0.000000 0.000000 0.000000 0.000000 0.049112
#
#
# Mechanical properties :
#
#
# Convention : Reuss Voigt Hill
#
# Bulk Modulus (GPa) = 41.73908 49.34657 45.54282
# Shear Modulus (GPa) = 14.59445 22.45996 18.52720
#
# Velocity S-wave (km/s) = 2.85090 3.53665 3.21212
# Velocity P-wave (km/s) = 5.83791 6.64516 6.25457
#
# Compressibility (1/GPa) = 0.02395837
#
# Stress axis : x y z
#
# Youngs Moduli (GPa) = 77.41765 98.25863 42.63497
#
# Poissons Ratio (x) = 0.33711 0.28891
# Poissons Ratio (y) = 0.26561 0.04639
# Poissons Ratio (z) = 0.52462 0.10691
#
# Static dielectric constant tensor:
#      x y z
#    x 1.644940 0.000000 0.000000 
#    y 0.000000 1.629960 0.000000 
#    z 0.000000 0.000000 1.607680 
# 
# From -- ./inp_files/7370.got.cif
#   From: 2010.05.17/outbox.cif.g08.bks.cpg/sg44_4_cif.got.tgz:7370.got - 2010.06.03 19:37:08.
