data_PCOD9373308
_publ_section_title
;
Structure prediction by ZEFSAII (Michael W. Deem and Ramdas Pophale) SiO2 
 PCOD9373308
Probable space group: I M M 2
;
_chemical_formula_sum "Si O2"
_cell_formula_units_Z 56
_cell_length_a 22.905942
_cell_length_b 8.142410
_cell_length_c 15.042093
_cell_angle_alpha 90.000000
_cell_angle_beta 90.000000
_cell_angle_gamma 90.000000
_cell_volume 2805.494315
_symmetry_space_group_name_H-M "I M M 2"
_symmetry_group_IT_number 44
_symmetry_cell_setting 'orthorhombic'
loop_
_space_group_symop_operation_xyz
x,y,z
-x,-y,z
-x,y,z
x,-y,z
1/2+x,1/2+y,1/2+z
1/2-x,1/2-y,1/2+z
1/2-x,1/2+y,1/2+z
1/2+x,1/2-y,1/2+z
loop_
_atom_site_type_symbol
_atom_site_label
_atom_site_fract_x
_atom_site_fract_y
_atom_site_fract_z
Si Si1 0.000000 0.798475 0.375000
Si Si2 0.500000 0.305528 0.077591
Si Si3 0.356083 0.306805 0.375935
Si Si4 0.888065 0.305623 0.687759
Si Si5 0.218439 0.699275 0.569840
Si Si6 0.776431 0.805107 0.372609
Si Si7 0.146592 0.799755 0.073298
Si Si8 0.611956 0.700809 0.761870
O O1 0.000000 0.738816 0.476718
O O2 0.942345 0.745904 0.321603
O O3 0.000000 0.000000 0.375786
O O4 0.500000 0.500000 0.069187
O O5 0.557161 0.256780 0.132337
O O6 0.366877 0.500000 0.376739
O O7 0.389223 0.235355 0.291633
O O8 0.286768 0.276554 0.362579
O O9 0.370545 0.240618 0.474774
O O10 0.887053 0.500000 0.679093
O O11 0.827858 0.243443 0.642928
O O12 0.217288 0.500000 0.564944
O O13 0.202898 0.769475 0.473093
O O14 0.285470 0.745805 0.588529
O O15 0.826702 0.748003 0.305795
O O16 0.768120 0.000000 0.359814
O O17 0.110241 0.746569 0.159061
O O18 0.144839 0.000000 0.070676
O O19 0.611968 0.500000 0.762838
#
# Coordination Sequence:
#
# PCOD9373308 Si02
#       8
#     4   4   8   8   8   8   8   8
#     4   9  18  31  50  77 106 136 173 219 264 311
#     4  11  23  39  56  79 110 138 173 223 274 325
#     4  10  20  34  52  77 109 141 175 222 275 323
#     4  11  22  37  57  79 105 143 186 225 272 327
#     4   9  18  32  50  74 106 140 175 220 274 328
#     4  10  18  29  50  79 109 142 179 219 267 325
#     4   8  15  29  48  71 102 138 172 211 262 316
#     4   9  16  28  47  72 103 138 176 218 263 311
#
# _framework density 19.960830999999999
#
# number of rings (size 3 to 8) (size 9 to 14) (size 15 to 20)
#    0.000    2.429    0.000    4.071    0.000    4.571 
#    0.000    0.714    0.000    5.143    0.000    0.000 
#    0.000    0.000    0.000    0.000    0.000    0.000 
#
# Total GULP energy -156265.873096 kJ/mol
# GULP energy per Si atom -5580.924039 kJ/mol
# Density = 1.991540 g / cm^3
# Si number density = 19.960831 Si / 1000 Ang^3
#
#
#
# Elastic Constant Matrix: (Units=GPa)
#
#
# Indices 1 2 3 4 5 6 
#
# 1 50.1676 3.2512 75.3309 0.0000 0.0000 0.0000
# 2 3.2512 11.7884 6.2399 0.0000 0.0000 0.0000
# 3 75.3309 6.2399 191.5879 0.0000 0.0000 0.0000
# 4 0.0000 0.0000 0.0000 17.2632 0.0000 0.0000
# 5 0.0000 0.0000 0.0000 0.0000 42.5466 0.0000
# 6 0.0000 0.0000 0.0000 0.0000 0.0000 18.1941
#
#
#
# Elastic Compliance Matrix: (Units=1/GPa)
#
#
# Indices 1 2 3 4 5 6 
#
# 1 0.048797 -0.003360 -0.019077 0.000000 0.000000 0.000000
# 2 -0.003360 0.086549 -0.001498 0.000000 0.000000 0.000000
# 3 -0.019077 -0.001498 0.012769 0.000000 0.000000 0.000000
# 4 0.000000 0.000000 0.000000 0.057927 0.000000 0.000000
# 5 0.000000 0.000000 0.000000 0.000000 0.023504 0.000000
# 6 0.000000 0.000000 0.000000 0.000000 0.000000 0.054963
#
#
# Mechanical properties :
#
#
# Convention : Reuss Voigt Hill
#
# Bulk Modulus (GPa) = 9.97552 47.02088 28.49820
# Shear Modulus (GPa) = 13.66895 26.84893 20.25894
#
# Velocity S-wave (km/s) = 2.61969 3.67151 3.18926
# Velocity P-wave (km/s) = 3.76281 6.44834 5.27919
#
# Compressibility (1/GPa) = 0.10024542
#
# Stress axis : x y z
#
# Youngs Moduli (GPa) = 20.49315 11.55417 78.31290
#
# Poissons Ratio (x) = 0.03882 1.49398
# Poissons Ratio (y) = 0.06885 0.11730
# Poissons Ratio (z) = 0.39095 0.01731
#
# Static dielectric constant tensor:
#      x y z
#    x 1.670110 0.000000 0.000000 
#    y 0.000000 1.698340 0.000000 
#    z 0.000000 0.000000 1.729610 
# 
# From -- ./inp_files/19222.got.cif
#   From: 2010.05.17/outbox.cif.g08.bks.cpg/sg44_10_cif.got.tgz:19222.got - 2010.06.03 19:37:08.
