data_PCOD9373877
_publ_section_title
;
Structure prediction by ZEFSAII (Michael W. Deem and Ramdas Pophale) SiO2 
 PCOD9373877
Probable space group: I M M 2
;
_chemical_formula_sum "Si O2"
_cell_formula_units_Z 64
_cell_length_a 18.885918
_cell_length_b 22.520261
_cell_length_c 7.662225
_cell_angle_alpha 90.000000
_cell_angle_beta 90.000000
_cell_angle_gamma 90.000000
_cell_volume 3258.865375
_symmetry_space_group_name_H-M "I M M 2"
_symmetry_group_IT_number 44
_symmetry_cell_setting 'orthorhombic'
loop_
_space_group_symop_operation_xyz
x,y,z
-x,-y,z
-x,y,z
x,-y,z
1/2+x,1/2+y,1/2+z
1/2-x,1/2-y,1/2+z
1/2-x,1/2+y,1/2+z
1/2+x,1/2-y,1/2+z
loop_
_atom_site_type_symbol
_atom_site_label
_atom_site_fract_x
_atom_site_fract_y
_atom_site_fract_z
Si Si1 0.269806 0.381767 0.983290
Si Si2 0.687474 0.178630 0.770776
Si Si3 0.309033 0.833384 0.160787
Si Si4 0.921559 0.430123 0.730802
Si Si5 0.132120 0.434332 0.108292
Si Si6 0.077263 0.129724 0.473046
Si Si7 0.579732 0.280436 0.663432
Si Si8 0.420172 0.732883 0.263558
O O1 0.250675 0.350463 0.800253
O O2 0.250323 0.333201 0.133002
O O3 0.210859 0.431410 0.021991
O O4 0.349316 0.404520 0.993465
O O5 0.636995 0.120507 0.740559
O O6 0.639732 0.234759 0.723992
O O7 0.715404 0.181777 0.966734
O O8 0.360604 0.890321 0.150622
O O9 0.359805 0.781356 0.231544
O O10 0.910169 0.500000 0.700425
O O11 0.000000 0.413989 0.669191
O O12 0.917077 0.421508 0.941619
O O13 0.117320 0.500000 0.178832
O O14 0.081115 0.162165 0.285837
O O15 0.081158 0.182302 0.616821
O O16 0.000000 0.100479 0.490738
O O17 0.500000 0.254304 0.687634
O O18 0.588077 0.292557 0.458366
O O19 0.500000 0.759986 0.254724
#
# Coordination Sequence:
#
# PCOD9373877 Si02
#       8
#     8   8   8   8   8   8   8   8
#     4   9  21  36  50  76 101 126 164 212 260 301
#     4  10  20  32  48  76  98 134 170 209 246 295
#     4  11  19  32  49  73  98 137 171 209 248 289
#     4   9  17  30  49  72 101 136 172 210 247 286
#     4   8  17  35  53  72 101 133 168 212 260 300
#     4  10  21  36  54  73  98 131 166 209 258 313
#     4  10  19  33  49  72 104 138 172 205 246 294
#     4  10  19  32  49  69  99 139 173 204 247 292
#
# _framework density 19.638736999999999
#
# number of rings (size 3 to 8) (size 9 to 14) (size 15 to 20)
#    0.750    1.625    2.500    0.375    0.000    4.500 
#    0.000    0.000    0.000    1.875    0.000    0.000 
#    0.000    0.000    0.000    0.000    0.000    0.000 
#
# Total GULP energy -178336.438263 kJ/mol
# GULP energy per Si atom -5573.013696 kJ/mol
# Density = 1.959404 g / cm^3
# Si number density = 19.638737 Si / 1000 Ang^3
#
#
#
# Elastic Constant Matrix: (Units=GPa)
#
#
# Indices 1 2 3 4 5 6 
#
# 1 105.2621 -5.6853 6.1021 0.0000 0.0000 0.0000
# 2 -5.6853 16.2996 -4.1102 0.0000 0.0000 0.0000
# 3 6.1021 -4.1102 93.7743 0.0000 0.0000 0.0000
# 4 0.0000 0.0000 0.0000 150.8458 0.0000 0.0000
# 5 0.0000 0.0000 0.0000 0.0000 9.3520 0.0000
# 6 0.0000 0.0000 0.0000 0.0000 0.0000 9.0435
#
#
#
# Elastic Compliance Matrix: (Units=1/GPa)
#
#
# Indices 1 2 3 4 5 6 
#
# 1 0.009705 0.003262 -0.000489 0.000000 0.000000 0.000000
# 2 0.003262 0.063133 0.002555 0.000000 0.000000 0.000000
# 3 -0.000489 0.002555 0.010808 0.000000 0.000000 0.000000
# 4 0.000000 0.000000 0.000000 0.006629 0.000000 0.000000
# 5 0.000000 0.000000 0.000000 0.000000 0.106929 0.000000
# 6 0.000000 0.000000 0.000000 0.000000 0.000000 0.110577
#
#
# Mechanical properties :
#
#
# Convention : Reuss Voigt Hill
#
# Bulk Modulus (GPa) = 10.60424 23.10546 16.85485
# Shear Modulus (GPa) = 15.21800 48.45021 31.83411
#
# Velocity S-wave (km/s) = 2.78672 4.97235 4.03051
# Velocity P-wave (km/s) = 3.97061 6.69003 5.50101
#
# Compressibility (1/GPa) = 0.09430193
#
# Stress axis : x y z
#
# Youngs Moduli (GPa) = 103.04409 15.83949 92.52681
#
# Poissons Ratio (x) = -0.05166 0.04520
# Poissons Ratio (y) = -0.33611 -0.23640
# Poissons Ratio (z) = 0.05034 -0.04047
#
# Static dielectric constant tensor:
#      x y z
#    x 1.733040 0.000000 0.000000 
#    y 0.000000 1.631080 0.000000 
#    z 0.000000 0.000000 1.696510 
# 
# From -- ./inp_files/8534.got.cif
#   From: 2010.05.17/outbox.cif.g08.bks.cpg/sg44_5_cif.got.tgz:8534.got - 2010.06.03 19:37:08.
