data_PCOD9373024
_publ_section_title
;
Structure prediction by ZEFSAII (Michael W. Deem and Ramdas Pophale) SiO2 
 PCOD9373024
Probable space group: I M M 2
;
_chemical_formula_sum "Si O2"
_cell_formula_units_Z 42
_cell_length_a 11.312672
_cell_length_b 7.482188
_cell_length_c 26.897122
_cell_angle_alpha 90.000000
_cell_angle_beta 90.000000
_cell_angle_gamma 90.000000
_cell_volume 2276.667587
_symmetry_space_group_name_H-M "I M M 2"
_symmetry_group_IT_number 44
_symmetry_cell_setting 'orthorhombic'
loop_
_space_group_symop_operation_xyz
x,y,z
-x,-y,z
-x,y,z
x,-y,z
1/2+x,1/2+y,1/2+z
1/2-x,1/2-y,1/2+z
1/2-x,1/2+y,1/2+z
1/2+x,1/2-y,1/2+z
loop_
_atom_site_type_symbol
_atom_site_label
_atom_site_fract_x
_atom_site_fract_y
_atom_site_fract_z
Si Si1 0.500000 0.287172 0.194100
Si Si2 0.631057 0.215718 0.676840
Si Si3 0.279911 0.287201 0.266280
Si Si4 0.500000 0.000000 0.434350
Si Si5 0.241592 0.208667 0.074747
Si Si6 0.000000 0.218110 0.020162
Si Si7 0.500000 0.793616 0.079410
Si Si8 0.863915 0.500000 0.838114
O O1 0.500000 0.500000 0.185135
O O2 0.387224 0.247249 0.228201
O O3 0.500000 0.204396 0.139668
O O4 0.500000 0.280113 0.664693
O O5 0.668020 0.264673 0.732587
O O6 0.718548 0.276630 0.633728
O O7 0.633098 0.000000 0.675310
O O8 0.279451 0.500000 0.276138
O O9 0.299944 0.172186 0.315300
O O10 0.500000 0.175472 0.468477
O O11 0.612703 0.000000 0.396981
O O12 0.372294 0.285981 0.063841
O O13 0.120867 0.275217 0.048786
O O14 0.247182 0.000000 0.061845
O O15 0.000000 0.000000 0.015925
O O16 0.500000 0.000000 0.062647
O O17 0.000000 0.500000 0.818646
#
# Coordination Sequence:
#
# PCOD9373024 Si02
#       8
#     4   8   8   2   8   4   4   4
#     4  10  17  25  39  66 104 144 178 204 258 321
#     4  10  20  31  47  75 114 161 199 226 274 351
#     4  10  20  33  50  77 116 148 179 230 283 347
#     4  10  24  42  64  90 106 140 206 264 308 340
#     4  10  20  32  49  79 115 156 198 234 285 350
#     4  10  22  40  61  84 115 151 197 252 302 348
#     4  10  20  29  45  72 112 152 191 231 266 339
#     4  10  22  36  57  85 106 136 190 241 302 348
#
# _framework density 18.448015999999999
#
# number of rings (size 3 to 8) (size 9 to 14) (size 15 to 20)
#    0.286    1.714    3.810    0.000    4.000    0.762 
#    0.000    0.000    0.000    0.000    4.952    0.000 
#    0.000    0.000    0.000    0.000    0.000    0.000 
#
# Total GULP energy -117000.382784 kJ/mol
# GULP energy per Si atom -5571.446799 kJ/mol
# Density = 1.840603 g / cm^3
# Si number density = 18.448016 Si / 1000 Ang^3
#
#
#
# Elastic Constant Matrix: (Units=GPa)
#
#
# Indices 1 2 3 4 5 6 
#
# 1 135.0100 18.7693 34.2730 0.0000 0.0000 0.0000
# 2 18.7693 60.0726 26.3399 0.0000 0.0000 0.0000
# 3 34.2730 26.3399 89.3195 0.0000 0.0000 0.0000
# 4 0.0000 0.0000 0.0000 28.2436 0.0000 0.0000
# 5 0.0000 0.0000 0.0000 0.0000 27.9310 0.0000
# 6 0.0000 0.0000 0.0000 0.0000 0.0000 5.7659
#
#
#
# Elastic Compliance Matrix: (Units=1/GPa)
#
#
# Indices 1 2 3 4 5 6 
#
# 1 0.008304 -0.001375 -0.002781 0.000000 0.000000 0.000000
# 2 -0.001375 0.019346 -0.005177 0.000000 0.000000 0.000000
# 3 -0.002781 -0.005177 0.013790 0.000000 0.000000 0.000000
# 4 0.000000 0.000000 0.000000 0.035406 0.000000 0.000000
# 5 0.000000 0.000000 0.000000 0.000000 0.035803 0.000000
# 6 0.000000 0.000000 0.000000 0.000000 0.000000 0.173435
#
#
# Mechanical properties :
#
#
# Convention : Reuss Voigt Hill
#
# Bulk Modulus (GPa) = 43.91173 49.24073 46.57623
# Shear Modulus (GPa) = 16.00812 26.05608 21.03210
#
# Velocity S-wave (km/s) = 2.94894 3.76228 3.38016
# Velocity P-wave (km/s) = 5.95396 6.75444 6.36679
#
# Compressibility (1/GPa) = 0.02277296
#
# Stress axis : x y z
#
# Youngs Moduli (GPa) = 120.42445 51.68935 72.51841
#
# Poissons Ratio (x) = 0.07108 0.20166
# Poissons Ratio (y) = 0.16561 0.37546
# Poissons Ratio (z) = 0.33487 0.26762
#
# Static dielectric constant tensor:
#      x y z
#    x 1.714350 0.000000 0.000000 
#    y 0.000000 1.662490 0.000000 
#    z 0.000000 0.000000 1.587630 
# 
# From -- ./inp_files/25344.got.cif
#   From: 2010.05.17/outbox.cif.g08.bks.cpg/sg44_13_cif.got.tgz:25344.got - 2010.06.03 19:37:08.
