data_PCOD9373824
_publ_section_title
;
Structure prediction by ZEFSAII (Michael W. Deem and Ramdas Pophale) SiO2 
 PCOD9373824
Probable space group: I M M 2
;
_chemical_formula_sum "Si O2"
_cell_formula_units_Z 64
_cell_length_a 9.601594
_cell_length_b 22.049575
_cell_length_c 15.708566
_cell_angle_alpha 90.000000
_cell_angle_beta 90.000000
_cell_angle_gamma 90.000000
_cell_volume 3325.677269
_symmetry_space_group_name_H-M "I M M 2"
_symmetry_group_IT_number 44
_symmetry_cell_setting 'orthorhombic'
loop_
_space_group_symop_operation_xyz
x,y,z
-x,-y,z
-x,y,z
x,-y,z
1/2+x,1/2+y,1/2+z
1/2-x,1/2-y,1/2+z
1/2-x,1/2+y,1/2+z
1/2+x,1/2-y,1/2+z
loop_
_atom_site_type_symbol
_atom_site_label
_atom_site_fract_x
_atom_site_fract_y
_atom_site_fract_z
Si Si1 0.658844 0.072943 0.541850
Si Si2 0.837658 0.187138 0.100018
Si Si3 0.840332 0.426334 0.853094
Si Si4 0.665332 0.188810 0.942044
Si Si5 0.337475 0.386451 0.200666
Si Si6 0.834031 0.069469 0.189087
Si Si7 0.838331 0.272776 0.258177
Si Si8 0.664636 0.431253 0.387650
O O1 0.500000 0.094542 0.556717
O O2 0.703407 0.094131 0.447471
O O3 0.758350 0.090623 0.617885
O O4 0.654026 0.000000 0.538949
O O5 0.803046 0.116389 0.114354
O O6 0.822407 0.217585 0.192820
O O7 0.000000 0.193378 0.075380
O O8 0.739102 0.213018 0.027051
O O9 0.840627 0.500000 0.854771
O O10 0.742435 0.410100 0.775095
O O11 0.000000 0.406878 0.838713
O O12 0.500000 0.180489 0.953936
O O13 0.685993 0.232182 0.859535
O O14 0.740712 0.124207 0.920945
O O15 0.500000 0.379766 0.183270
O O16 0.266899 0.323577 0.226474
O O17 0.322461 0.428105 0.284687
O O18 0.000000 0.071434 0.202990
O O19 0.794693 0.000000 0.169799
O O20 0.000000 0.293437 0.250031
O O21 0.500000 0.420348 0.407950
O O22 0.699816 0.500000 0.416109
#
# Coordination Sequence:
#
# PCOD9373824 Si02
#       8
#     8   8   8   8   8   8   8   8
#     4   9  17  29  46  70 105 148 188 225 272 333
#     4  10  21  39  61  82 109 148 186 224 277 341
#     4   8  15  29  47  68 100 140 177 216 262 313
#     4  10  21  37  58  84 113 144 184 237 282 323
#     4  10  19  31  50  77 107 140 184 239 283 322
#     4   9  18  33  54  80 108 138 175 219 271 332
#     4   9  20  40  59  75 106 149 186 227 279 334
#     4   9  18  33  53  78 111 149 185 223 274 336
#
# _framework density 19.244199999999999
#
# number of rings (size 3 to 8) (size 9 to 14) (size 15 to 20)
#    0.000    2.750    0.000    1.875    0.000    4.000 
#    2.250    2.500    0.000    0.000    0.000    0.000 
#    0.000    0.000    0.000    0.000    0.000    0.000 
#
# Total GULP energy -178355.407122 kJ/mol
# GULP energy per Si atom -5573.606473 kJ/mol
# Density = 1.920040 g / cm^3
# Si number density = 19.244200 Si / 1000 Ang^3
#
#
#
# Elastic Constant Matrix: (Units=GPa)
#
#
# Indices 1 2 3 4 5 6 
#
# 1 63.2242 21.4140 61.6870 0.0000 0.0000 0.0000
# 2 21.4140 28.1799 20.4779 0.0000 0.0000 0.0000
# 3 61.6870 20.4779 119.0519 0.0000 0.0000 0.0000
# 4 0.0000 0.0000 0.0000 20.3574 0.0000 0.0000
# 5 0.0000 0.0000 0.0000 0.0000 37.3291 0.0000
# 6 0.0000 0.0000 0.0000 0.0000 0.0000 19.1825
#
#
#
# Elastic Compliance Matrix: (Units=1/GPa)
#
#
# Indices 1 2 3 4 5 6 
#
# 1 0.037697 -0.016516 -0.016692 0.000000 0.000000 0.000000
# 2 -0.016516 0.047792 0.000337 0.000000 0.000000 0.000000
# 3 -0.016692 0.000337 0.016990 0.000000 0.000000 0.000000
# 4 0.000000 0.000000 0.000000 0.049122 0.000000 0.000000
# 5 0.000000 0.000000 0.000000 0.000000 0.026789 0.000000
# 6 0.000000 0.000000 0.000000 0.000000 0.000000 0.052131
#
#
# Mechanical properties :
#
#
# Convention : Reuss Voigt Hill
#
# Bulk Modulus (GPa) = 27.21985 46.40154 36.81069
# Shear Modulus (GPa) = 16.20704 22.49894 19.35299
#
# Velocity S-wave (km/s) = 2.90518 3.42296 3.17464
# Velocity P-wave (km/s) = 5.04267 6.30766 5.71030
#
# Compressibility (1/GPa) = 0.03673790
#
# Stress axis : x y z
#
# Youngs Moduli (GPa) = 26.52757 20.92404 58.85644
#
# Poissons Ratio (x) = 0.34559 0.98241
# Poissons Ratio (y) = 0.43814 -0.01985
# Poissons Ratio (z) = 0.44279 -0.00706
#
# Static dielectric constant tensor:
#      x y z
#    x 1.640100 0.000000 0.000000 
#    y 0.000000 1.698480 0.000000 
#    z 0.000000 0.000000 1.691640 
# 
# From -- ./inp_files/16838.got.cif
#   From: 2010.05.17/outbox.cif.g08.bks.cpg/sg44_9_cif.got.tgz:16838.got - 2010.06.03 19:37:08.
