data_PCOD9373012
_publ_section_title
;
Structure prediction by ZEFSAII (Michael W. Deem and Ramdas Pophale) SiO2 
 PCOD9373012
Probable space group: I M M 2
;
_chemical_formula_sum "Si O2"
_cell_formula_units_Z 52
_cell_length_a 17.459564
_cell_length_b 14.218409
_cell_length_c 8.644061
_cell_angle_alpha 90.000000
_cell_angle_beta 90.000000
_cell_angle_gamma 90.000000
_cell_volume 2145.864129
_symmetry_space_group_name_H-M "I M M 2"
_symmetry_group_IT_number 44
_symmetry_cell_setting 'orthorhombic'
loop_
_space_group_symop_operation_xyz
x,y,z
-x,-y,z
-x,y,z
x,-y,z
1/2+x,1/2+y,1/2+z
1/2-x,1/2-y,1/2+z
1/2-x,1/2+y,1/2+z
1/2+x,1/2-y,1/2+z
loop_
_atom_site_type_symbol
_atom_site_label
_atom_site_fract_x
_atom_site_fract_y
_atom_site_fract_z
Si Si1 0.838810 0.100434 0.691960
Si Si2 0.349578 0.891871 0.053246
Si Si3 0.500000 0.394996 0.118350
Si Si4 0.000000 0.603198 0.336757
Si Si5 0.500000 0.306672 0.792461
Si Si6 0.157116 0.104435 0.316499
Si Si7 0.407510 0.111244 0.405910
Si Si8 0.229020 0.254734 0.907410
O O1 0.842576 0.104806 0.505472
O O2 0.801931 0.178924 0.789931
O O3 0.927923 0.107428 0.727139
O O4 0.804484 0.000000 0.731537
O O5 0.422739 0.890343 0.937775
O O6 0.292080 0.807701 0.002271
O O7 0.318221 0.000000 0.045554
O O8 0.386508 0.879706 0.223537
O O9 0.500000 0.500000 0.038170
O O10 0.500000 0.317882 0.982601
O O11 0.000000 0.500000 0.259814
O O12 0.000000 0.699398 0.241528
O O13 0.422119 0.358558 0.749609
O O14 0.225716 0.173812 0.295802
O O15 0.171708 0.000000 0.262941
O O16 0.500000 0.128937 0.422490
O O17 0.342311 0.182943 0.479117
O O18 0.393358 0.000000 0.448417
#
# Coordination Sequence:
#
# PCOD9373012 Si02
#       8
#     8   8   4   4   4   8   8   8
#     4   9  19  33  50  75 109 143 178 223 274 331
#     4  10  20  36  56  84 120 154 190 238 295 351
#     4   8  16  30  50  74 102 136 175 218 267 324
#     4  10  18  30  52  80 109 144 186 231 281 344
#     4  10  16  30  54  76 103 144 175 217 282 344
#     4  10  20  34  51  79 113 145 183 229 283 340
#     4  10  22  39  59  85 119 157 195 238 292 352
#     4  12  21  30  53  87 117 146 185 243 290 340
#
# _framework density 24.232662999999999
#
# number of rings (size 3 to 8) (size 9 to 14) (size 15 to 20)
#    0.000    2.000    2.308    3.462    3.231    0.000 
#    0.000    0.000    0.000    0.000   16.000    0.000 
#    0.000    0.000    0.000    0.000    0.000    0.000 
#
# Total GULP energy -145055.560997 kJ/mol
# GULP energy per Si atom -5579.060038 kJ/mol
# Density = 2.417751 g / cm^3
# Si number density = 24.232663 Si / 1000 Ang^3
#
#
#
# Elastic Constant Matrix: (Units=GPa)
#
#
# Indices 1 2 3 4 5 6 
#
# 1 159.8251 87.1847 34.9075 0.0000 0.0000 0.0000
# 2 87.1847 205.2555 31.7543 0.0000 0.0000 0.0000
# 3 34.9075 31.7543 42.5807 0.0000 0.0000 0.0000
# 4 0.0000 0.0000 0.0000 17.4715 0.0000 0.0000
# 5 0.0000 0.0000 0.0000 0.0000 12.8641 0.0000
# 6 0.0000 0.0000 0.0000 0.0000 0.0000 75.3712
#
#
#
# Elastic Compliance Matrix: (Units=1/GPa)
#
#
# Indices 1 2 3 4 5 6 
#
# 1 0.009041 -0.003045 -0.005141 0.000000 0.000000 0.000000
# 2 -0.003045 0.006533 -0.002376 0.000000 0.000000 0.000000
# 3 -0.005141 -0.002376 0.029471 0.000000 0.000000 0.000000
# 4 0.000000 0.000000 0.000000 0.057236 0.000000 0.000000
# 5 0.000000 0.000000 0.000000 0.000000 0.077736 0.000000
# 6 0.000000 0.000000 0.000000 0.000000 0.000000 0.013268
#
#
# Mechanical properties :
#
#
# Convention : Reuss Voigt Hill
#
# Bulk Modulus (GPa) = 41.80301 79.48379 60.64340
# Shear Modulus (GPa) = 22.48400 38.06235 30.27318
#
# Velocity S-wave (km/s) = 3.04935 3.96751 3.53834
# Velocity P-wave (km/s) = 5.44850 7.33891 6.46320
#
# Compressibility (1/GPa) = 0.02392172
#
# Stress axis : x y z
#
# Youngs Moduli (GPa) = 110.61249 153.07325 33.93175
#
# Poissons Ratio (x) = 0.46607 0.17444
# Poissons Ratio (y) = 0.33679 0.08061
# Poissons Ratio (z) = 0.56864 0.36366
#
# Static dielectric constant tensor:
#      x y z
#    x 2.071130 0.000000 0.000000 
#    y 0.000000 2.016570 0.000000 
#    z 0.000000 0.000000 1.946920 
# 
# From -- ./inp_files/13947.got.cif
#   From: 2010.05.17/outbox.cif.g08.bks.cpg/sg44_7_cif.got.tgz:13947.got - 2010.06.03 19:37:08.
