data_PCOD9373441
_publ_section_title
;
Structure prediction by ZEFSAII (Michael W. Deem and Ramdas Pophale) SiO2 
 PCOD9373441
Probable space group: I M M 2
;
_chemical_formula_sum "Si O2"
_cell_formula_units_Z 64
_cell_length_a 8.861478
_cell_length_b 23.934539
_cell_length_c 19.687248
_cell_angle_alpha 90.000000
_cell_angle_beta 90.000000
_cell_angle_gamma 90.000000
_cell_volume 4175.574558
_symmetry_space_group_name_H-M "I M M 2"
_symmetry_group_IT_number 44
_symmetry_cell_setting 'orthorhombic'
loop_
_space_group_symop_operation_xyz
x,y,z
-x,-y,z
-x,y,z
x,-y,z
1/2+x,1/2+y,1/2+z
1/2-x,1/2-y,1/2+z
1/2-x,1/2+y,1/2+z
1/2+x,1/2-y,1/2+z
loop_
_atom_site_type_symbol
_atom_site_label
_atom_site_fract_x
_atom_site_fract_y
_atom_site_fract_z
Si Si1 0.818088 0.564400 0.635650
Si Si2 0.180302 0.839082 0.222988
Si Si3 0.318859 0.227147 0.640868
Si Si4 0.817699 0.064301 0.856371
Si Si5 0.318820 0.881747 0.990854
Si Si6 0.318937 0.223428 0.344204
Si Si7 0.319183 0.664309 0.261269
Si Si8 0.817403 0.757640 0.991995
O O1 0.771095 0.500000 0.642528
O O2 0.748695 0.604954 0.691913
O O3 0.775653 0.588022 0.561306
O O4 0.000000 0.566748 0.640161
O O5 0.225711 0.786929 0.174063
O O6 0.240685 0.822435 0.297124
O O7 0.000000 0.842100 0.223272
O O8 0.500000 0.223721 0.644160
O O9 0.250734 0.179651 0.688839
O O10 0.273028 0.227829 0.562203
O O11 0.770378 0.107025 0.796944
O O12 0.000000 0.068332 0.862372
O O13 0.778261 0.000000 0.842884
O O14 0.746185 0.085092 0.926626
O O15 0.500000 0.879930 0.986931
O O16 0.253069 0.819279 0.990566
O O17 0.500000 0.216928 0.339399
O O18 0.280600 0.284062 0.311648
O O19 0.275416 0.225427 0.423109
O O20 0.500000 0.663489 0.254751
O O21 0.000000 0.763822 0.991855
#
# Coordination Sequence:
#
# PCOD9373441 Si02
#       8
#     8   8   8   8   8   8   8   8
#     4  10  21  35  48  65  94 131 167 197 231 279
#     4  10  19  31  48  70  95 121 156 200 241 279
#     4   9  18  30  47  69  95 122 153 196 240 279
#     4  10  20  34  50  67  92 130 170 200 229 274
#     4  11  21  31  46  69  99 129 161 198 234 271
#     4   9  17  30  49  67  92 124 155 192 237 286
#     4   9  17  30  47  67  91 122 158 194 235 281
#     4  10  18  32  50  70  96 128 162 192 232 285
#
# _framework density 15.327232
#
# number of rings (size 3 to 8) (size 9 to 14) (size 15 to 20)
#    0.000    2.250    2.500    1.125    0.000    3.500 
#    0.000    0.000    0.000    0.000    0.000    0.875 
#    0.000    5.000    0.000    0.000    0.000    0.000 
#
# Total GULP energy -178472.258865 kJ/mol
# GULP energy per Si atom -5577.258090 kJ/mol
# Density = 1.529235 g / cm^3
# Si number density = 15.327232 Si / 1000 Ang^3
#
#
#
# Elastic Constant Matrix: (Units=GPa)
#
#
# Indices 1 2 3 4 5 6 
#
# 1 12.5942 30.4579 35.9247 0.0000 0.0000 0.0000
# 2 30.4579 107.9036 82.8373 0.0000 0.0000 0.0000
# 3 35.9247 82.8373 151.9240 0.0000 0.0000 0.0000
# 4 0.0000 0.0000 0.0000 18.6677 0.0000 0.0000
# 5 0.0000 0.0000 0.0000 0.0000 23.3997 0.0000
# 6 0.0000 0.0000 0.0000 0.0000 0.0000 18.0421
#
#
#
# Elastic Compliance Matrix: (Units=1/GPa)
#
#
# Indices 1 2 3 4 5 6 
#
# 1 0.451269 -0.078188 -0.064077 0.000000 0.000000 0.000000
# 2 -0.078188 0.029487 0.002411 0.000000 0.000000 0.000000
# 3 -0.064077 0.002411 0.020420 0.000000 0.000000 0.000000
# 4 0.000000 0.000000 0.000000 0.053568 0.000000 0.000000
# 5 0.000000 0.000000 0.000000 0.000000 0.042736 0.000000
# 6 0.000000 0.000000 0.000000 0.000000 0.000000 0.055426
#
#
# Mechanical properties :
#
#
# Convention : Reuss Voigt Hill
#
# Bulk Modulus (GPa) = 4.51533 63.42906 33.97220
# Shear Modulus (GPa) = 4.96802 20.23537 12.60169
#
# Velocity S-wave (km/s) = 1.80232 3.63743 2.87047
# Velocity P-wave (km/s) = 2.69879 7.68858 5.76185
#
# Compressibility (1/GPa) = 0.22146774
#
# Stress axis : x y z
#
# Youngs Moduli (GPa) = 2.21597 33.91340 48.97251
#
# Poissons Ratio (x) = 2.65162 3.13800
# Poissons Ratio (y) = 0.17326 -0.11807
# Poissons Ratio (z) = 0.14199 -0.08176
#
# Static dielectric constant tensor:
#      x y z
#    x 1.513350 0.000000 0.000000 
#    y 0.000000 1.487080 0.000000 
#    z 0.000000 0.000000 1.509280 
# 
# From -- ./inp_files/20784.got.cif
#   From: 2010.05.17/outbox.cif.g08.bks.cpg/sg44_11_cif.got.tgz:20784.got - 2010.06.03 19:37:08.
