data_PCOD9373148
_publ_section_title
;
Structure prediction by ZEFSAII (Michael W. Deem and Ramdas Pophale) SiO2 
 PCOD9373148
Probable space group: I M M 2
;
_chemical_formula_sum "Si O2"
_cell_formula_units_Z 64
_cell_length_a 24.895356
_cell_length_b 15.269477
_cell_length_c 7.269021
_cell_angle_alpha 90.000000
_cell_angle_beta 90.000000
_cell_angle_gamma 90.000000
_cell_volume 2763.238853
_symmetry_space_group_name_H-M "I M M 2"
_symmetry_group_IT_number 44
_symmetry_cell_setting 'orthorhombic'
loop_
_space_group_symop_operation_xyz
x,y,z
-x,-y,z
-x,y,z
x,-y,z
1/2+x,1/2+y,1/2+z
1/2-x,1/2-y,1/2+z
1/2-x,1/2+y,1/2+z
1/2+x,1/2-y,1/2+z
loop_
_atom_site_type_symbol
_atom_site_label
_atom_site_fract_x
_atom_site_fract_y
_atom_site_fract_z
Si Si1 0.713771 0.357853 0.496350
Si Si2 0.059211 0.712402 0.538655
Si Si3 0.719143 0.406155 0.079212
Si Si4 0.561023 0.594342 0.168858
Si Si5 0.058927 0.287828 0.116612
Si Si6 0.823751 0.712801 0.504269
Si Si7 0.396994 0.595066 0.568915
Si Si8 0.671708 0.827751 0.562397
O O1 0.719283 0.404233 0.301572
O O2 0.772601 0.341396 0.578403
O O3 0.666215 0.399715 0.614755
O O4 0.691223 0.260131 0.461517
O O5 0.063790 0.818521 0.550558
O O6 0.056384 0.683307 0.327608
O O7 0.119638 0.686085 0.595679
O O8 0.000000 0.690198 0.619597
O O9 0.697080 0.500000 0.018083
O O10 0.781899 0.396867 0.024709
O O11 0.688933 0.316581 0.023444
O O12 0.500000 0.593917 0.244848
O O13 0.569053 0.500000 0.075475
O O14 0.598968 0.598816 0.345617
O O15 0.073604 0.184116 0.124722
O O16 0.108627 0.337681 0.023919
O O17 0.000000 0.297841 0.033388
O O18 0.825816 0.693718 0.283656
O O19 0.419220 0.500000 0.624174
#
# Coordination Sequence:
#
# PCOD9373148 Si02
#       8
#     8   8   8   8   8   8   8   8
#     4   9  17  29  44  62  86 116 146 176 217 263
#     4   9  17  28  41  57  77 104 139 172 203 245
#     4  10  18  29  48  69  87 112 148 185 220 260
#     4   9  17  27  38  56  84 112 135 166 207 246
#     4   9  17  29  44  60  81 114 148 174 208 255
#     4   9  17  30  45  62  86 115 145 178 218 263
#     4  10  18  27  40  60  86 112 141 176 210 249
#     4   8  17  32  46  63  89 118 146 180 219 261
#
# _framework density 23.161225999999999
#
# number of rings (size 3 to 8) (size 9 to 14) (size 15 to 20)
#    0.000    2.875    0.000    1.500    0.000    2.750 
#    0.000    6.875    0.000    0.375    0.000    0.000 
#    0.000    1.500    0.000    0.000    0.000  226.250 
#
# Total GULP energy -178334.100881 kJ/mol
# GULP energy per Si atom -5572.940653 kJ/mol
# Density = 2.310851 g / cm^3
# Si number density = 23.161226 Si / 1000 Ang^3
#
#
#
# Elastic Constant Matrix: (Units=GPa)
#
#
# Indices 1 2 3 4 5 6 
#
# 1 224.9878 5.7323 6.2280 0.0000 0.0000 0.0000
# 2 5.7323 24.9333 4.5355 0.0000 0.0000 0.0000
# 3 6.2280 4.5355 69.9646 0.0000 0.0000 0.0000
# 4 0.0000 0.0000 0.0000 7.8103 0.0000 0.0000
# 5 0.0000 0.0000 0.0000 0.0000 9.1225 0.0000
# 6 0.0000 0.0000 0.0000 0.0000 0.0000 9.1393
#
#
#
# Elastic Compliance Matrix: (Units=1/GPa)
#
#
# Indices 1 2 3 4 5 6 
#
# 1 0.004479 -0.000969 -0.000336 0.000000 0.000000 0.000000
# 2 -0.000969 0.040795 -0.002558 0.000000 0.000000 0.000000
# 3 -0.000336 -0.002558 0.014489 0.000000 0.000000 0.000000
# 4 0.000000 0.000000 0.000000 0.128037 0.000000 0.000000
# 5 0.000000 0.000000 0.000000 0.000000 0.109619 0.000000
# 6 0.000000 0.000000 0.000000 0.000000 0.000000 0.109417
#
#
# Mechanical properties :
#
#
# Convention : Reuss Voigt Hill
#
# Bulk Modulus (GPa) = 19.21716 39.20857 29.21287
# Shear Modulus (GPa) = 11.57657 25.44041 18.50849
#
# Velocity S-wave (km/s) = 2.23810 3.31781 2.82993
# Velocity P-wave (km/s) = 3.87220 5.62517 4.82889
#
# Compressibility (1/GPa) = 0.05203682
#
# Stress axis : x y z
#
# Youngs Moduli (GPa) = 223.28101 24.51278 69.01932
#
# Poissons Ratio (x) = 0.02374 0.02318
# Poissons Ratio (y) = 0.21626 0.17657
# Poissons Ratio (z) = 0.07500 0.06271
#
# Static dielectric constant tensor:
#      x y z
#    x 1.975060 0.000000 0.000000 
#    y 0.000000 1.825530 0.000000 
#    z 0.000000 0.000000 1.929340 
# 
# From -- ./inp_files/9488.got.cif
#   From: 2010.05.17/outbox.cif.g08.bks.cpg/sg44_5_cif.got.tgz:9488.got - 2010.06.03 19:37:08.
