data_PCOD9373779
_publ_section_title
;
Structure prediction by ZEFSAII (Michael W. Deem and Ramdas Pophale) SiO2 
 PCOD9373779
Probable space group: I M M 2
;
_chemical_formula_sum "Si O2"
_cell_formula_units_Z 56
_cell_length_a 7.984750
_cell_length_b 24.813300
_cell_length_c 14.146354
_cell_angle_alpha 90.000000
_cell_angle_beta 90.000000
_cell_angle_gamma 90.000000
_cell_volume 2802.788785
_symmetry_space_group_name_H-M "I M M 2"
_symmetry_group_IT_number 44
_symmetry_cell_setting 'orthorhombic'
loop_
_space_group_symop_operation_xyz
x,y,z
-x,-y,z
-x,y,z
x,-y,z
1/2+x,1/2+y,1/2+z
1/2-x,1/2-y,1/2+z
1/2-x,1/2+y,1/2+z
1/2+x,1/2-y,1/2+z
loop_
_atom_site_type_symbol
_atom_site_label
_atom_site_fract_x
_atom_site_fract_y
_atom_site_fract_z
Si Si1 0.204959 0.273330 0.758790
Si Si2 0.201895 0.061439 0.542026
Si Si3 0.803399 0.939551 0.170896
Si Si4 0.295254 0.560661 0.258951
Si Si5 0.197828 0.383057 0.855072
Si Si6 0.198558 0.833536 0.859199
Si Si7 0.196225 0.330827 0.571881
O O1 0.253162 0.322798 0.827401
O O2 0.266455 0.216595 0.798586
O O3 0.261074 0.290890 0.654056
O O4 0.000000 0.272103 0.757082
O O5 0.251779 0.072820 0.650107
O O6 0.267733 0.100973 0.462193
O O7 0.000000 0.062843 0.539222
O O8 0.255077 0.000000 0.519978
O O9 0.782835 0.923908 0.281141
O O10 0.720087 0.891324 0.112278
O O11 0.000000 0.938861 0.147376
O O12 0.738406 0.000000 0.153835
O O13 0.500000 0.559207 0.261827
O O14 0.238701 0.500000 0.282948
O O15 0.234371 0.608500 0.325866
O O16 0.000000 0.386400 0.836320
O O17 0.000000 0.834952 0.840561
O O18 0.222657 0.824772 0.970097
O O19 0.000000 0.320590 0.560477
#
# Coordination Sequence:
#
# PCOD9373779 Si02
#       7
#     8   8   8   8   8   8   8
#     4   8  18  35  51  70 100 136 169 204 250 306
#     4   9  17  30  48  72 102 134 171 214 257 307
#     4  10  20  34  53  77 104 138 181 220 255 307
#     4   8  16  31  51  75 100 127 165 213 257 299
#     4  10  19  31  48  73 107 141 173 215 266 312
#     4  10  19  35  58  77  98 134 175 213 257 310
#     4  10  21  37  54  77 109 137 168 215 268 317
#
# _framework density 19.980101000000001
#
# number of rings (size 3 to 8) (size 9 to 14) (size 15 to 20)
#    0.000    2.714    0.000    3.429    0.000    4.857 
#    0.000    7.857    0.000    0.857    0.000    0.000 
#    0.000    0.000    0.000    0.000    0.000    0.000 
#
# Total GULP energy -156200.141162 kJ/mol
# GULP energy per Si atom -5578.576470 kJ/mol
# Density = 1.993463 g / cm^3
# Si number density = 19.980101 Si / 1000 Ang^3
#
#
#
# Elastic Constant Matrix: (Units=GPa)
#
#
# Indices 1 2 3 4 5 6 
#
# 1 13.2748 1.8801 -6.0910 0.0000 0.0000 0.0000
# 2 1.8801 137.4177 88.7195 0.0000 0.0000 0.0000
# 3 -6.0910 88.7195 112.3375 -0.0001 0.0000 0.0000
# 4 0.0000 0.0000 -0.0001 18.2824 0.0000 0.0000
# 5 0.0000 0.0000 0.0000 0.0000 20.1878 0.0000
# 6 0.0000 0.0000 0.0000 0.0000 0.0000 11.5932
#
#
#
# Elastic Compliance Matrix: (Units=1/GPa)
#
#
# Indices 1 2 3 4 5 6 
#
# 1 0.081434 -0.008090 0.010804 0.000000 0.000000 0.000000
# 2 -0.008090 0.015651 -0.012799 0.000000 0.000000 0.000000
# 3 0.010804 -0.012799 0.019596 0.000000 0.000000 0.000000
# 4 0.000000 0.000000 0.000000 0.054698 0.000000 0.000000
# 5 0.000000 0.000000 0.000000 0.000000 0.049535 0.000000
# 6 0.000000 0.000000 0.000000 0.000000 0.000000 0.086258
#
#
# Mechanical properties :
#
#
# Convention : Reuss Voigt Hill
#
# Bulk Modulus (GPa) = 10.36145 48.00525 29.18335
# Shear Modulus (GPa) = 13.90778 21.91409 17.91094
#
# Velocity S-wave (km/s) = 2.64120 3.31538 2.99731
# Velocity P-wave (km/s) = 3.80767 6.22370 5.15911
#
# Compressibility (1/GPa) = 0.09651158
#
# Stress axis : x y z
#
# Youngs Moduli (GPa) = 12.27991 63.89266 51.03103
#
# Poissons Ratio (x) = 0.51686 -0.55135
# Poissons Ratio (y) = 0.09934 0.65316
# Poissons Ratio (z) = -0.13267 0.81778
#
# Static dielectric constant tensor:
#      x y z
#    x 1.720390 0.000000 0.000000 
#    y 0.000000 1.714210 0.000000 
#    z 0.000000 0.000000 1.679130 
# 
# From -- ./inp_files/16502.got.cif
#   From: 2010.05.17/outbox.cif.g08.bks.cpg/sg44_9_cif.got.tgz:16502.got - 2010.06.03 19:37:08.
