data_PCOD9373637
_publ_section_title
;
Structure prediction by ZEFSAII (Michael W. Deem and Ramdas Pophale) SiO2 
 PCOD9373637
Probable space group: I M M 2
;
_chemical_formula_sum "Si O2"
_cell_formula_units_Z 56
_cell_length_a 7.296378
_cell_length_b 28.334691
_cell_length_c 12.155003
_cell_angle_alpha 90.000000
_cell_angle_beta 90.000000
_cell_angle_gamma 90.000000
_cell_volume 2512.932808
_symmetry_space_group_name_H-M "I M M 2"
_symmetry_group_IT_number 44
_symmetry_cell_setting 'orthorhombic'
loop_
_space_group_symop_operation_xyz
x,y,z
-x,-y,z
-x,y,z
x,-y,z
1/2+x,1/2+y,1/2+z
1/2-x,1/2-y,1/2+z
1/2-x,1/2+y,1/2+z
1/2+x,1/2-y,1/2+z
loop_
_atom_site_type_symbol
_atom_site_label
_atom_site_fract_x
_atom_site_fract_y
_atom_site_fract_z
Si Si1 0.275609 0.500000 0.837060
Si Si2 0.222698 0.778318 0.602126
Si Si3 0.710745 0.329431 0.652693
Si Si4 0.776874 0.000000 0.081048
Si Si5 0.209132 0.823706 0.389549
Si Si6 0.224282 0.125157 0.721907
Si Si7 0.776408 0.098622 0.968310
Si Si8 0.292124 0.576503 0.009521
O O1 0.500000 0.500000 0.830238
O O2 0.216722 0.500000 0.709606
O O3 0.215367 0.543696 0.913489
O O4 0.283492 0.726340 0.633079
O O5 0.289489 0.787912 0.477693
O O6 0.278604 0.822033 0.681099
O O7 0.000000 0.778916 0.601437
O O8 0.500000 0.346210 0.662528
O O9 0.796551 0.334550 0.772996
O O10 0.785225 0.360672 0.553324
O O11 0.721327 0.952312 0.017040
O O12 0.000000 0.000000 0.082705
O O13 0.199250 0.871908 0.456768
O O14 0.000000 0.807266 0.367462
O O15 0.282143 0.111147 0.844315
O O16 0.287190 0.086959 0.630159
O O17 0.000000 0.124943 0.718559
O O18 0.000000 0.098625 0.964327
O O19 0.500000 0.558963 0.028035
#
# Coordination Sequence:
#
# PCOD9373637 Si02
#       8
#     4   8   8   4   8   8   8   8
#     4   9  14  19  33  55  77 107 151 186 214 261
#     4   9  18  31  46  62  86 120 153 185 224 271
#     4  10  19  29  45  67  89 115 150 189 227 268
#     4   9  16  25  37  57  88 121 147 182 230 279
#     4   8  15  28  41  56  82 114 144 176 219 266
#     4   8  15  27  40  56  82 115 148 182 226 274
#     4   9  17  27  40  61  89 118 148 185 232 277
#     4   8  13  22  36  53  76 109 144 178 214 260
#
# _framework density 22.284717000000001
#
# number of rings (size 3 to 8) (size 9 to 14) (size 15 to 20)
#    0.000    3.286    0.000    2.571    2.000    4.000 
#    0.000    2.857    0.000    0.000    0.000    0.500 
#    0.000    0.000    0.000   22.000    0.000   23.429 
#
# Total GULP energy -156028.470782 kJ/mol
# GULP energy per Si atom -5572.445385 kJ/mol
# Density = 2.223400 g / cm^3
# Si number density = 22.284717 Si / 1000 Ang^3
#
#
#
# Elastic Constant Matrix: (Units=GPa)
#
#
# Indices 1 2 3 4 5 6 
#
# 1 92.8805 -5.0911 9.2364 0.0000 0.0000 0.0000
# 2 -5.0911 99.5371 85.2248 0.0000 0.0000 0.0000
# 3 9.2364 85.2248 254.2428 0.0001 0.0000 0.0000
# 4 0.0000 0.0000 0.0001 25.0356 0.0000 0.0000
# 5 0.0000 0.0000 0.0000 0.0000 -8.6681 0.0000
# 6 0.0000 0.0000 0.0000 0.0000 0.0000 13.0662
#
#
#
# Elastic Compliance Matrix: (Units=1/GPa)
#
#
# Indices 1 2 3 4 5 6 
#
# 1 0.010917 0.001259 -0.000819 0.000000 0.000000 0.000000
# 2 0.001259 0.014236 -0.004818 0.000000 0.000000 0.000000
# 3 -0.000819 -0.004818 0.005578 0.000000 0.000000 0.000000
# 4 0.000000 0.000000 0.000000 0.039943 0.000000 0.000000
# 5 0.000000 0.000000 0.000000 0.000000 -0.115365 0.000000
# 6 0.000000 0.000000 0.000000 0.000000 0.000000 0.076533
#
#
# Mechanical properties :
#
#
# Convention : Reuss Voigt Hill
#
# Bulk Modulus (GPa) = 45.50286 69.48896 57.49591
# Shear Modulus (GPa) = 104.33586 29.70608 67.02097
#
# Velocity S-wave (km/s) = 6.84990 3.65502 5.49000
# Velocity P-wave (km/s) = 9.11179 7.00445 8.12671
#
# Compressibility (1/GPa) = 0.02197664
#
# Stress axis : x y z
#
# Youngs Moduli (GPa) = 91.60041 70.24450 179.27666
#
# Poissons Ratio (x) = -0.08847 0.14679
# Poissons Ratio (y) = -0.11536 0.86372
# Poissons Ratio (z) = 0.07500 0.33842
#
# Static dielectric constant tensor:
#      x y z
#    x 1.797770 0.000000 0.000000 
#    y 0.000000 1.815630 0.000000 
#    z 0.000000 0.000000 1.825030 
# 
# From -- ./inp_files/12615.got.cif
#   From: 2010.05.17/outbox.cif.g08.bks.cpg/sg44_7_cif.got.tgz:12615.got - 2010.06.03 19:37:08.
