data_PCOD9373773
_publ_section_title
;
Structure prediction by ZEFSAII (Michael W. Deem and Ramdas Pophale) SiO2 
 PCOD9373773
Probable space group: I M M 2
;
_chemical_formula_sum "Si O2"
_cell_formula_units_Z 48
_cell_length_a 14.718454
_cell_length_b 8.824010
_cell_length_c 18.179909
_cell_angle_alpha 90.000000
_cell_angle_beta 90.000000
_cell_angle_gamma 90.000000
_cell_volume 2361.129958
_symmetry_space_group_name_H-M "I M M 2"
_symmetry_group_IT_number 44
_symmetry_cell_setting 'orthorhombic'
loop_
_space_group_symop_operation_xyz
x,y,z
-x,-y,z
-x,y,z
x,-y,z
1/2+x,1/2+y,1/2+z
1/2-x,1/2-y,1/2+z
1/2-x,1/2+y,1/2+z
1/2+x,1/2-y,1/2+z
loop_
_atom_site_type_symbol
_atom_site_label
_atom_site_fract_x
_atom_site_fract_y
_atom_site_fract_z
Si Si1 0.099466 0.683486 0.026540
Si Si2 0.354330 0.171393 0.365512
Si Si3 0.707134 0.180295 0.068197
Si Si4 0.203062 0.180938 0.720613
Si Si5 0.145856 0.172113 0.421009
Si Si6 0.402932 0.181925 0.771682
O O1 0.111453 0.500000 0.030926
O O2 0.188597 0.759791 0.060172
O O3 0.000000 0.719700 0.058414
O O4 0.097492 0.724835 0.939807
O O5 0.353766 0.271522 0.292587
O O6 0.250089 0.164636 0.393108
O O7 0.384133 0.000000 0.348121
O O8 0.671701 0.239572 0.146249
O O9 0.650783 0.249991 0.000246
O O10 0.706388 0.000000 0.063977
O O11 0.308256 0.232671 0.735263
O O12 0.202520 0.000000 0.712072
O O13 0.099343 0.266420 0.356503
O O14 0.111644 0.000000 0.425563
O O15 0.500000 0.234404 0.739831
O O16 0.401165 0.000000 0.767973
#
# Coordination Sequence:
#
# PCOD9373773 Si02
#       6
#     8   8   8   8   8   8
#     4   9  18  33  52  73  99 130 160 192 235 288
#     4   8  15  29  48  69  92 121 159 199 236 278
#     4  11  21  32  48  71  99 129 162 202 243 283
#     4  10  19  31  48  70  97 130 164 198 238 285
#     4   9  17  31  50  70  93 124 163 202 238 281
#     4   9  18  32  50  73 100 129 160 195 238 287
#
# _framework density 20.329250999999999
#
# number of rings (size 3 to 8) (size 9 to 14) (size 15 to 20)
#    0.000    2.667    0.000    3.500    0.000    6.000 
#    0.000    1.667    0.000    1.000    0.000    2.333 
#    0.000    0.000    0.000    0.000    0.000    0.000 
#
# Total GULP energy -133821.500148 kJ/mol
# GULP energy per Si atom -5575.895839 kJ/mol
# Density = 2.028298 g / cm^3
# Si number density = 20.329251 Si / 1000 Ang^3
#
#
#
# Elastic Constant Matrix: (Units=GPa)
#
#
# Indices 1 2 3 4 5 6 
#
# 1 26.3471 -13.3121 -12.0202 0.0000 0.0000 0.0000
# 2 -13.3121 36.8561 26.1667 0.0000 0.0000 0.0000
# 3 -12.0202 26.1667 116.7727 0.0000 0.0000 0.0000
# 4 0.0000 0.0000 0.0000 31.8921 0.0000 0.0000
# 5 0.0000 0.0000 0.0000 0.0000 2.5286 0.0000
# 6 0.0000 0.0000 0.0000 0.0000 0.0000 6.8980
#
#
#
# Elastic Compliance Matrix: (Units=1/GPa)
#
#
# Indices 1 2 3 4 5 6 
#
# 1 0.046573 0.015957 0.001218 0.000000 0.000000 0.000000
# 2 0.015957 0.037733 -0.006813 0.000000 0.000000 0.000000
# 3 0.001218 -0.006813 0.010216 0.000000 0.000000 0.000000
# 4 0.000000 0.000000 0.000000 0.031356 0.000000 0.000000
# 5 0.000000 0.000000 0.000000 0.000000 0.395469 0.000000
# 6 0.000000 0.000000 0.000000 0.000000 0.000000 0.144969
#
#
# Mechanical properties :
#
#
# Convention : Reuss Voigt Hill
#
# Bulk Modulus (GPa) = 8.67704 20.18274 14.42989
# Shear Modulus (GPa) = 7.30988 20.20653 13.75820
#
# Velocity S-wave (km/s) = 1.89830 3.15614 2.60430
# Velocity P-wave (km/s) = 3.01368 4.81986 4.01954
#
# Compressibility (1/GPa) = 0.11524667
#
# Stress axis : x y z
#
# Youngs Moduli (GPa) = 21.47161 26.50210 97.88880
#
# Poissons Ratio (x) = -0.42289 -0.11927
# Poissons Ratio (y) = -0.34262 0.66689
# Poissons Ratio (z) = -0.02616 0.18055
#
# Static dielectric constant tensor:
#      x y z
#    x 1.794920 0.000000 0.000000 
#    y 0.000000 1.686630 0.000000 
#    z 0.000000 0.000000 1.723270 
# 
# From -- ./inp_files/16094.got.cif
#   From: 2010.05.17/outbox.cif.g08.bks.cpg/sg44_9_cif.got.tgz:16094.got - 2010.06.03 19:37:08.
