data_PCOD9373700
_publ_section_title
;
Structure prediction by ZEFSAII (Michael W. Deem and Ramdas Pophale) SiO2 
 PCOD9373700
Probable space group: I M M 2
;
_chemical_formula_sum "Si O2"
_cell_formula_units_Z 56
_cell_length_a 19.552786
_cell_length_b 7.999018
_cell_length_c 18.666787
_cell_angle_alpha 90.000000
_cell_angle_beta 90.000000
_cell_angle_gamma 90.000000
_cell_volume 2919.543114
_symmetry_space_group_name_H-M "I M M 2"
_symmetry_group_IT_number 44
_symmetry_cell_setting 'orthorhombic'
loop_
_space_group_symop_operation_xyz
x,y,z
-x,-y,z
-x,y,z
x,-y,z
1/2+x,1/2+y,1/2+z
1/2-x,1/2-y,1/2+z
1/2-x,1/2+y,1/2+z
1/2+x,1/2-y,1/2+z
loop_
_atom_site_type_symbol
_atom_site_label
_atom_site_fract_x
_atom_site_fract_y
_atom_site_fract_z
Si Si1 0.574792 0.693549 0.653410
Si Si2 0.075520 0.301394 0.992127
Si Si3 0.287876 0.199000 0.010586
Si Si4 0.922266 0.295583 0.596034
Si Si5 0.156579 0.689655 0.732942
Si Si6 0.278663 0.812768 0.650253
Si Si7 0.197352 0.297908 0.887842
O O1 0.500000 0.760010 0.676073
O O2 0.579435 0.500000 0.674638
O O3 0.576138 0.706009 0.567070
O O4 0.643807 0.786435 0.674528
O O5 0.083924 0.500000 0.008587
O O6 0.000000 0.280910 0.959466
O O7 0.134510 0.248955 0.938912
O O8 0.363267 0.252529 0.038700
O O9 0.233964 0.283761 0.065591
O O10 0.282969 0.000000 0.020133
O O11 0.265304 0.240289 0.929783
O O12 0.921834 0.500000 0.597560
O O13 0.896811 0.237496 0.675044
O O14 0.000000 0.242265 0.580760
O O15 0.132789 0.500000 0.747746
O O16 0.227239 0.688231 0.688816
O O17 0.177554 0.766689 0.809024
O O18 0.256491 0.000000 0.667459
O O19 0.201151 0.500000 0.884024
#
# Coordination Sequence:
#
# PCOD9373700 Si02
#       7
#     8   8   8   8   8   8   8
#     4  10  19  30  47  71  97 126 159 198 246 295
#     4   9  17  28  43  68 101 133 164 197 233 279
#     4  10  19  31  51  75  99 131 169 211 257 305
#     4   8  15  30  52  76  99 126 167 216 260 302
#     4   9  19  33  50  73 101 133 169 208 257 311
#     4  11  20  32  50  71  97 129 168 211 252 298
#     4  10  19  31  48  73 104 137 169 206 250 302
#
# _framework density 19.181084999999999
#
# number of rings (size 3 to 8) (size 9 to 14) (size 15 to 20)
#    0.000    2.429    1.429    3.000    0.000    2.000 
#    0.000    2.857    0.000   11.571    0.000    8.000 
#    0.000    0.000    0.000    0.000    0.000    0.000 
#
# Total GULP energy -155937.890533 kJ/mol
# GULP energy per Si atom -5569.210376 kJ/mol
# Density = 1.913743 g / cm^3
# Si number density = 19.181085 Si / 1000 Ang^3
#
#
#
# Elastic Constant Matrix: (Units=GPa)
#
#
# Indices 1 2 3 4 5 6 
#
# 1 116.5159 6.0652 13.0714 0.0000 0.0000 0.0000
# 2 6.0652 33.3093 -3.4695 0.0000 0.0000 0.0000
# 3 13.0714 -3.4695 48.7953 0.0000 0.0000 0.0000
# 4 0.0000 0.0000 0.0000 15.2841 0.0000 0.0000
# 5 0.0000 0.0000 0.0000 0.0000 13.4869 0.0000
# 6 0.0000 0.0000 0.0000 0.0000 0.0000 14.4175
#
#
#
# Elastic Compliance Matrix: (Units=1/GPa)
#
#
# Indices 1 2 3 4 5 6 
#
# 1 0.008966 -0.001897 -0.002537 0.000000 0.000000 0.000000
# 2 -0.001897 0.030647 0.002687 0.000000 0.000000 0.000000
# 3 -0.002537 0.002687 0.021364 0.000000 0.000000 0.000000
# 4 0.000000 0.000000 0.000000 0.065428 0.000000 0.000000
# 5 0.000000 0.000000 0.000000 0.000000 0.074146 0.000000
# 6 0.000000 0.000000 0.000000 0.000000 0.000000 0.069360
#
#
# Mechanical properties :
#
#
# Convention : Reuss Voigt Hill
#
# Bulk Modulus (GPa) = 17.39593 25.55051 21.47322
# Shear Modulus (GPa) = 17.09022 20.83458 18.96240
#
# Velocity S-wave (km/s) = 2.98819 3.29934 3.14761
# Velocity P-wave (km/s) = 4.58200 5.27861 4.94259
#
# Compressibility (1/GPa) = 0.05748470
#
# Stress axis : x y z
#
# Youngs Moduli (GPa) = 111.53450 32.62967 46.80689
#
# Poissons Ratio (x) = 0.06189 0.11873
# Poissons Ratio (y) = 0.21156 -0.12578
# Poissons Ratio (z) = 0.28293 -0.08768
#
# Static dielectric constant tensor:
#      x y z
#    x 1.696500 0.000000 0.000000 
#    y 0.000000 1.701430 0.000000 
#    z 0.000000 0.000000 1.678290 
# 
# From -- ./inp_files/22260.got.cif
#   From: 2010.05.17/outbox.cif.g08.bks.cpg/sg44_12_cif.got.tgz:22260.got - 2010.06.03 19:37:08.
