data_PCOD9373399
_publ_section_title
;
Structure prediction by ZEFSAII (Michael W. Deem and Ramdas Pophale) SiO2 
 PCOD9373399
Probable space group: I M M 2
;
_chemical_formula_sum "Si O2"
_cell_formula_units_Z 64
_cell_length_a 7.557001
_cell_length_b 20.429876
_cell_length_c 21.418001
_cell_angle_alpha 90.000000
_cell_angle_beta 90.000000
_cell_angle_gamma 90.000000
_cell_volume 3306.695047
_symmetry_space_group_name_H-M "I M M 2"
_symmetry_group_IT_number 44
_symmetry_cell_setting 'orthorhombic'
loop_
_space_group_symop_operation_xyz
x,y,z
-x,-y,z
-x,y,z
x,-y,z
1/2+x,1/2+y,1/2+z
1/2-x,1/2-y,1/2+z
1/2-x,1/2+y,1/2+z
1/2+x,1/2-y,1/2+z
loop_
_atom_site_type_symbol
_atom_site_label
_atom_site_fract_x
_atom_site_fract_y
_atom_site_fract_z
Si Si1 0.709752 0.427057 0.492710
Si Si2 0.704874 0.787185 0.945646
Si Si3 0.717439 0.712018 0.067283
Si Si4 0.286978 0.072042 0.751968
Si Si5 0.213438 0.427687 0.639903
Si Si6 0.288476 0.206032 0.810011
Si Si7 0.711492 0.428254 0.104659
Si Si8 0.786823 0.291511 0.689908
O O1 0.500000 0.426137 0.482153
O O2 0.776952 0.500000 0.476012
O O3 0.788820 0.365150 0.457457
O O4 0.742562 0.417976 0.566811
O O5 0.500000 0.766498 0.943945
O O6 0.783496 0.773656 0.877580
O O7 0.780702 0.750687 0.006186
O O8 0.500000 0.713301 0.068053
O O9 0.776333 0.636662 0.070222
O O10 0.774266 0.748367 0.130768
O O11 0.500000 0.071500 0.757336
O O12 0.218171 0.134973 0.788705
O O13 0.244493 0.079992 0.678671
O O14 0.221867 0.000000 0.771897
O O15 0.278847 0.500000 0.658134
O O16 0.277395 0.365668 0.679249
O O17 0.000000 0.428630 0.643991
O O18 0.500000 0.198464 0.817234
O O19 0.260450 0.257289 0.754572
O O20 0.500000 0.429917 0.095983
O O21 0.782405 0.500000 0.086584
O O22 0.000000 0.292836 0.686932
#
# Coordination Sequence:
#
# PCOD9373399 Si02
#       8
#     8   8   8   8   8   8   8   8
#     4  10  20  32  47  72 104 132 161 203 251 294
#     4  10  20  35  51  68  96 134 172 205 239 290
#     4   9  16  29  49  72  93 119 160 204 239 277
#     4   9  17  29  43  63  93 123 152 186 226 277
#     4   9  17  31  52  75  97 127 167 203 242 297
#     4  10  21  33  48  71  98 130 164 200 244 290
#     4   9  16  27  46  70  92 117 151 191 237 283
#     4  10  18  31  52  74  97 126 161 204 246 286
#
# _framework density 19.354672999999998
#
# number of rings (size 3 to 8) (size 9 to 14) (size 15 to 20)
#    0.000    2.500    2.500    0.375    0.000    2.250 
#    0.000    1.875    0.000    2.250    0.000    1.750 
#    0.000    0.000    0.000    0.000    0.000    0.000 
#
# Total GULP energy -178510.664688 kJ/mol
# GULP energy per Si atom -5578.458271 kJ/mol
# Density = 1.931062 g / cm^3
# Si number density = 19.354673 Si / 1000 Ang^3
#
#
#
# Elastic Constant Matrix: (Units=GPa)
#
#
# Indices 1 2 3 4 5 6 
#
# 1 45.8049 3.8758 -1.6195 0.0000 0.0000 0.0000
# 2 3.8758 132.3183 78.0943 0.0000 -0.0003 0.0000
# 3 -1.6195 78.0943 127.5909 0.0000 -0.0003 0.0000
# 4 0.0000 0.0000 0.0000 52.6661 -0.0001 0.0000
# 5 0.0000 -0.0003 -0.0003 -0.0001-1569.8783 0.0000
# 6 0.0000 0.0000 0.0000 0.0000 0.0000 9.4898
#
#
#
# Elastic Compliance Matrix: (Units=1/GPa)
#
#
# Indices 1 2 3 4 5 6 
#
# 1 0.021976 -0.001265 0.001054 0.000000 0.000000 0.000000
# 2 -0.001265 0.011904 -0.007302 0.000000 0.000000 0.000000
# 3 0.001054 -0.007302 0.012320 0.000000 0.000000 0.000000
# 4 0.000000 0.000000 0.000000 0.018988 0.000000 0.000000
# 5 0.000000 0.000000 0.000000 0.000000 -0.000637 0.000000
# 6 0.000000 0.000000 0.000000 0.000000 0.000000 0.105376
#
#
# Mechanical properties :
#
#
# Convention : Reuss Voigt Hill
#
# Bulk Modulus (GPa) = 32.07982 51.82392 41.95187
# Shear Modulus (GPa) = 25.59547 -286.52022 -130.46237
#
# Velocity S-wave (km/s) = 3.64049 -12.18023 -8.21903
# Velocity P-wave (km/s) = 5.85505 13.07581 8.26726
#
# Compressibility (1/GPa) = 0.03117224
#
# Stress axis : x y z
#
# Youngs Moduli (GPa) = 45.50407 84.00197 81.16560
#
# Poissons Ratio (x) = 0.10630 -0.08551
# Poissons Ratio (y) = 0.05759 0.59270
# Poissons Ratio (z) = -0.04794 0.61342
#
# Static dielectric constant tensor:
#      x y z
#    x 1.761390 0.000000 0.000000 
#    y 0.000000 1.697110 0.000000 
#    z 0.000000 0.000000 1.652980 
# 
# From -- ./inp_files/20745.got.cif
#   From: 2010.05.17/outbox.cif.g08.bks.cpg/sg44_11_cif.got.tgz:20745.got - 2010.06.03 19:37:08.
