data_PCOD9373233
_publ_section_title
;
Structure prediction by ZEFSAII (Michael W. Deem and Ramdas Pophale) SiO2 
 PCOD9373233
Probable space group: I M M 2
;
_chemical_formula_sum "Si O2"
_cell_formula_units_Z 64
_cell_length_a 17.995244
_cell_length_b 7.532072
_cell_length_c 21.401825
_cell_angle_alpha 90.000000
_cell_angle_beta 90.000000
_cell_angle_gamma 90.000000
_cell_volume 2900.834895
_symmetry_space_group_name_H-M "I M M 2"
_symmetry_group_IT_number 44
_symmetry_cell_setting 'orthorhombic'
loop_
_space_group_symop_operation_xyz
x,y,z
-x,-y,z
-x,y,z
x,-y,z
1/2+x,1/2+y,1/2+z
1/2-x,1/2-y,1/2+z
1/2-x,1/2+y,1/2+z
1/2+x,1/2-y,1/2+z
loop_
_atom_site_type_symbol
_atom_site_label
_atom_site_fract_x
_atom_site_fract_y
_atom_site_fract_z
Si Si1 0.383236 0.204943 0.278620
Si Si2 0.919551 0.713935 0.914378
Si Si3 0.295992 0.288930 0.515483
Si Si4 0.080640 0.717116 0.371538
Si Si5 0.203391 0.207317 0.149338
Si Si6 0.125983 0.717637 0.507991
Si Si7 0.713263 0.202623 0.785465
Si Si8 0.116480 0.291034 0.643297
O O1 0.410914 0.283386 0.343637
O O2 0.293328 0.205225 0.283648
O O3 0.405197 0.284636 0.211137
O O4 0.407917 0.000000 0.276820
O O5 0.918970 0.500000 0.910502
O O6 0.851870 0.760898 0.959094
O O7 0.000000 0.770641 0.939474
O O8 0.288270 0.500000 0.524404
O O9 0.324533 0.220515 0.582823
O O10 0.212348 0.224808 0.502865
O O11 0.082856 0.500000 0.369662
O O12 0.087403 0.770323 0.443921
O O13 0.151455 0.778287 0.331824
O O14 0.000000 0.772133 0.346778
O O15 0.183060 0.295821 0.214544
O O16 0.293338 0.218601 0.143140
O O17 0.183837 0.000000 0.155988
O O18 0.124032 0.500000 0.509958
O O19 0.094321 0.779144 0.575072
O O20 0.728743 0.000000 0.804615
O O21 0.096394 0.500000 0.644207
#
# Coordination Sequence:
#
# PCOD9373233 Si02
#       8
#     8   8   8   8   8   8   8   8
#     4   9  17  31  49  67  93 126 156 190 234 281
#     4  10  21  34  46  65  96 130 160 194 240 290
#     4   9  17  31  52  73  91 116 153 197 240 281
#     4   9  17  27  38  59  94 126 147 177 225 271
#     4   8  15  29  48  69  93 118 146 186 237 285
#     4   8  13  24  44  67  88 112 147 188 226 267
#     4  10  18  28  47  72  94 119 156 197 231 270
#     4   7  11  22  42  65  85 109 143 182 221 261
#
# _framework density 22.062614
#
# number of rings (size 3 to 8) (size 9 to 14) (size 15 to 20)
#    0.000    3.250    0.000    3.375    0.000    2.250 
#    0.000    1.250    0.000    7.500    0.000    0.000 
#    0.000    0.000    0.000    0.000    0.000    0.000 
#
# Total GULP energy -178383.064421 kJ/mol
# GULP energy per Si atom -5574.470763 kJ/mol
# Density = 2.201240 g / cm^3
# Si number density = 22.062614 Si / 1000 Ang^3
#
#
#
# Elastic Constant Matrix: (Units=GPa)
#
#
# Indices 1 2 3 4 5 6 
#
# 1 79.2547 -2.6255 45.1840 0.0000 0.0000 0.0000
# 2 -2.6255 52.8176 -0.4825 0.0000 0.0000 0.0000
# 3 45.1840 -0.4825 121.7011 0.0000 0.0000 0.0000
# 4 0.0000 0.0000 0.0000 11.0674 0.0000 0.0000
# 5 0.0000 0.0000 0.0000 0.0000 -29.9891 0.0000
# 6 0.0000 0.0000 0.0000 0.0000 0.0000 -5.1346
#
#
#
# Elastic Compliance Matrix: (Units=1/GPa)
#
#
# Indices 1 2 3 4 5 6 
#
# 1 0.016034 0.000743 -0.005950 0.000000 0.000000 0.000000
# 2 0.000743 0.018968 -0.000201 0.000000 0.000000 0.000000
# 3 -0.005950 -0.000201 0.010425 0.000000 0.000000 0.000000
# 4 0.000000 0.000000 0.000000 0.090355 0.000000 0.000000
# 5 0.000000 0.000000 0.000000 0.000000 -0.033345 0.000000
# 6 0.000000 0.000000 0.000000 0.000000 0.000000 -0.194757
#
#
# Mechanical properties :
#
#
# Convention : Reuss Voigt Hill
#
# Bulk Modulus (GPa) = 28.89192 37.54726 33.21959
# Shear Modulus (GPa) = -71.46327 9.30191 -31.08068
#
# Velocity S-wave (km/s) = -5.69749 2.05555 -3.75740
# Velocity P-wave (km/s) = 5.49164 4.76332 1.93247
#
# Compressibility (1/GPa) = 0.03461176
#
# Stress axis : x y z
#
# Youngs Moduli (GPa) = 62.36588 52.71994 95.92170
#
# Poissons Ratio (x) = -0.03916 0.57075
# Poissons Ratio (y) = -0.04632 0.01924
# Poissons Ratio (z) = 0.37109 0.01057
#
# Static dielectric constant tensor:
#      x y z
#    x 1.773060 0.000000 0.000000 
#    y 0.000000 1.866670 0.000000 
#    z 0.000000 0.000000 1.850740 
# 
# From -- ./inp_files/23253.got.cif
#   From: 2010.05.17/outbox.cif.g08.bks.cpg/sg44_12_cif.got.tgz:23253.got - 2010.06.03 19:37:08.
