data_PCOD9373952
_publ_section_title
;
Structure prediction by ZEFSAII (Michael W. Deem and Ramdas Pophale) SiO2 
 PCOD9373952
Probable space group: I M M 2
;
_chemical_formula_sum "Si O2"
_cell_formula_units_Z 64
_cell_length_a 16.957052
_cell_length_b 9.406173
_cell_length_c 21.039376
_cell_angle_alpha 90.000000
_cell_angle_beta 90.000000
_cell_angle_gamma 90.000000
_cell_volume 3355.800768
_symmetry_space_group_name_H-M "I M M 2"
_symmetry_group_IT_number 44
_symmetry_cell_setting 'orthorhombic'
loop_
_space_group_symop_operation_xyz
x,y,z
-x,-y,z
-x,y,z
x,-y,z
1/2+x,1/2+y,1/2+z
1/2-x,1/2-y,1/2+z
1/2-x,1/2+y,1/2+z
1/2+x,1/2-y,1/2+z
loop_
_atom_site_type_symbol
_atom_site_label
_atom_site_fract_x
_atom_site_fract_y
_atom_site_fract_z
Si Si1 0.316046 0.334986 0.548720
Si Si2 0.590334 0.334539 0.672246
Si Si3 0.316222 0.837167 0.424599
Si Si4 0.125611 0.334899 0.550146
Si Si5 0.874389 0.334899 0.299052
Si Si6 0.623742 0.335657 0.924599
Si Si7 0.683954 0.665014 0.300478
Si Si8 0.909666 0.834539 0.676952
O O1 0.339123 0.500000 0.539803
O O2 0.353036 0.286201 0.615282
O O3 0.341745 0.243400 0.488328
O O4 0.221192 0.330062 0.551719
O O5 0.500000 0.330083 0.649757
O O6 0.609579 0.500000 0.687661
O O7 0.597783 0.240498 0.734970
O O8 0.219982 0.835302 0.424599
O O9 0.341745 0.756600 0.360870
O O10 0.341713 0.000000 0.424599
O O11 0.102027 0.500000 0.546568
O O12 0.099207 0.247931 0.487987
O O13 0.097783 0.259502 0.614228
O O14 0.897973 0.500000 0.302630
O O15 0.900793 0.247931 0.361211
O O16 0.778808 0.330062 0.297479
O O17 0.598458 0.500000 0.924599
O O18 0.660877 0.500000 0.309395
O O19 0.646964 0.713799 0.233916
O O20 0.000000 0.830083 0.699441
O O21 0.890421 0.000000 0.661537
#
# Coordination Sequence:
#
# PCOD9373952 Si02
#       8
#     8   8   8   8   8   8   8   8
#     4   9  18  33  53  76 102 133 168 206 249 298
#     4  10  21  36  52  72 101 137 174 208 245 295
#     4   9  17  29  50  79 104 128 163 208 254 297
#     4  10  19  32  53  79 104 130 164 208 255 299
#     4  10  19  32  53  79 104 130 164 208 255 299
#     4   9  17  31  52  77 104 131 163 205 250 299
#     4   9  18  33  53  76 102 133 168 206 249 298
#     4  10  21  36  52  72 101 137 174 208 245 295
#
# _framework density 19.071455
#
# number of rings (size 3 to 8) (size 9 to 14) (size 15 to 20)
#    0.000    2.500    0.000    2.250    0.000    5.500 
#    0.000    1.250    0.000    7.500    0.000    0.000 
#    0.000    0.000    0.000    0.000    0.000    0.000 
#
# Total GULP energy -178646.014688 kJ/mol
# GULP energy per Si atom -5582.687959 kJ/mol
# Density = 1.902805 g / cm^3
# Si number density = 19.071455 Si / 1000 Ang^3
#
#
#
# Elastic Constant Matrix: (Units=GPa)
#
#
# Indices 1 2 3 4 5 6 
#
# 1 29.9954 28.0843 39.1921 0.0000 0.0000 0.0000
# 2 28.0843 110.0339 79.2386 0.0000 0.0000 0.0000
# 3 39.1921 79.2386 146.6291 0.0000 0.0000 0.0000
# 4 0.0000 0.0000 0.0000 31.0424 0.0000 0.0000
# 5 0.0000 0.0000 0.0000 0.0000 -23.7979 0.0000
# 6 0.0000 0.0000 0.0000 0.0000 0.0000 9.3297
#
#
#
# Elastic Compliance Matrix: (Units=1/GPa)
#
#
# Indices 1 2 3 4 5 6 
#
# 1 0.053162 -0.005461 -0.011258 0.000000 0.000000 0.000000
# 2 -0.005461 0.015439 -0.006884 0.000000 0.000000 0.000000
# 3 -0.011258 -0.006884 0.013549 0.000000 0.000000 0.000000
# 4 0.000000 0.000000 0.000000 0.032214 0.000000 0.000000
# 5 0.000000 0.000000 0.000000 0.000000 -0.042021 0.000000
# 6 0.000000 0.000000 0.000000 0.000000 0.000000 0.107185
#
#
# Mechanical properties :
#
#
# Convention : Reuss Voigt Hill
#
# Bulk Modulus (GPa) = 28.61746 64.40983 46.51364
# Shear Modulus (GPa) = 20.97471 12.65772 16.81621
#
# Velocity S-wave (km/s) = 3.31991 2.57903 2.97265
# Velocity P-wave (km/s) = 5.45287 6.53565 6.01866
#
# Compressibility (1/GPa) = 0.03494371
#
# Stress axis : x y z
#
# Youngs Moduli (GPa) = 18.81053 64.77070 73.80623
#
# Poissons Ratio (x) = 0.35373 0.83092
# Poissons Ratio (y) = 0.10273 0.50805
# Poissons Ratio (z) = 0.21177 0.44585
#
# Static dielectric constant tensor:
#      x y z
#    x 1.654560 0.000000 0.000000 
#    y 0.000000 1.647170 0.000000 
#    z 0.000000 0.000000 1.625250 
# 
# From -- ./inp_files/23255.got.cif
#   From: 2010.05.17/outbox.cif.g08.bks.cpg/sg44_12_cif.got.tgz:23255.got - 2010.06.03 19:37:08.
