data_PCOD9373374
_publ_section_title
;
Structure prediction by ZEFSAII (Michael W. Deem and Ramdas Pophale) SiO2 
 PCOD9373374
Probable space group: I M M 2
;
_chemical_formula_sum "Si O2"
_cell_formula_units_Z 56
_cell_length_a 15.785935
_cell_length_b 8.372101
_cell_length_c 19.886236
_cell_angle_alpha 90.000000
_cell_angle_beta 90.000000
_cell_angle_gamma 90.000000
_cell_volume 2628.193630
_symmetry_space_group_name_H-M "I M M 2"
_symmetry_group_IT_number 44
_symmetry_cell_setting 'orthorhombic'
loop_
_space_group_symop_operation_xyz
x,y,z
-x,-y,z
-x,y,z
x,-y,z
1/2+x,1/2+y,1/2+z
1/2-x,1/2-y,1/2+z
1/2-x,1/2+y,1/2+z
1/2+x,1/2-y,1/2+z
loop_
_atom_site_type_symbol
_atom_site_label
_atom_site_fract_x
_atom_site_fract_y
_atom_site_fract_z
Si Si1 0.311449 0.309355 0.585870
Si Si2 0.410604 0.313328 0.949327
Si Si3 0.220838 0.689910 0.945057
Si Si4 0.592126 0.817756 0.235202
Si Si5 0.374875 0.320722 0.104386
Si Si6 0.403002 0.692473 0.724676
Si Si7 0.742339 0.316100 0.307879
O O1 0.296813 0.500000 0.590325
O O2 0.329405 0.267826 0.507235
O O3 0.224992 0.213043 0.597743
O O4 0.374502 0.267516 0.647473
O O5 0.500000 0.244782 0.923639
O O6 0.407829 0.500000 0.926911
O O7 0.411635 0.311759 0.029886
O O8 0.317854 0.243202 0.937039
O O9 0.224942 0.500000 0.958047
O O10 0.194972 0.724443 0.869141
O O11 0.500000 0.768149 0.262151
O O12 0.588752 0.807113 0.154804
O O13 0.671532 0.707308 0.251104
O O14 0.609270 0.000000 0.255259
O O15 0.391765 0.500000 0.128914
O O16 0.500000 0.747113 0.737176
O O17 0.402629 0.500000 0.729332
O O18 0.331258 0.751858 0.777227
O O19 0.752905 0.500000 0.325435
#
# Coordination Sequence:
#
# PCOD9373374 Si02
#       7
#     8   8   8   8   8   8   8
#     4  10  19  35  60  88 120 158 206 257 307 366
#     4   8  15  28  48  77 110 145 187 231 280 347
#     4  10  21  37  59  83 116 162 209 257 316 377
#     4  11  23  38  58  85 117 153 194 244 304 367
#     4  10  18  30  53  84 118 153 188 232 289 351
#     4  10  22  41  66  94 127 171 218 265 321 383
#     4  12  25  41  62  89 124 164 210 263 318 381
#
# _framework density 21.307411999999999
#
# number of rings (size 3 to 8) (size 9 to 14) (size 15 to 20)
#    0.000    1.857    1.429    4.286    0.000    3.143 
#    0.000    2.143    0.000   10.714    0.000    0.000 
#    0.000    0.000    0.000    0.000    0.000    0.000 
#
# Total GULP energy -155959.859611 kJ/mol
# GULP energy per Si atom -5569.994986 kJ/mol
# Density = 2.125892 g / cm^3
# Si number density = 21.307412 Si / 1000 Ang^3
#
#
#
# Elastic Constant Matrix: (Units=GPa)
#
#
# Indices 1 2 3 4 5 6 
#
# 1 63.4997 19.3400 -4.7699 0.0000 0.0000 0.0000
# 2 19.3400 58.3329 13.6341 0.0000 0.0000 0.0000
# 3 -4.7699 13.6341 78.0199 0.0000 0.0000 0.0000
# 4 0.0000 0.0000 0.0000 32.9359 0.0000 0.0000
# 5 0.0000 0.0000 0.0000 0.0000 1.4232 0.0000
# 6 0.0000 0.0000 0.0000 0.0000 0.0000 -21.8032
#
#
#
# Elastic Compliance Matrix: (Units=1/GPa)
#
#
# Indices 1 2 3 4 5 6 
#
# 1 0.017878 -0.006446 0.002219 0.000000 0.000000 0.000000
# 2 -0.006446 0.020197 -0.003924 0.000000 0.000000 0.000000
# 3 0.002219 -0.003924 0.013639 0.000000 0.000000 0.000000
# 4 0.000000 0.000000 0.000000 0.030362 0.000000 0.000000
# 5 0.000000 0.000000 0.000000 0.000000 0.702652 0.000000
# 6 0.000000 0.000000 0.000000 0.000000 0.000000 -0.045865
#
#
# Mechanical properties :
#
#
# Convention : Reuss Voigt Hill
#
# Bulk Modulus (GPa) = 28.23788 28.47343 28.35566
# Shear Modulus (GPa) = 6.51918 13.95439 10.23678
#
# Velocity S-wave (km/s) = 1.75106 2.56189 2.19426
# Velocity P-wave (km/s) = 4.16769 4.70566 4.44482
#
# Compressibility (1/GPa) = 0.03541342
#
# Stress axis : x y z
#
# Youngs Moduli (GPa) = 55.93426 49.51176 73.32136
#
# Poissons Ratio (x) = 0.31916 -0.16274
# Poissons Ratio (y) = 0.36056 0.28768
# Poissons Ratio (z) = -0.12415 0.19426
#
# Static dielectric constant tensor:
#      x y z
#    x 1.865110 0.000000 0.000000 
#    y 0.000000 1.719600 0.000000 
#    z 0.000000 0.000000 1.834030 
# 
# From -- ./inp_files/24142.got.cif
#   From: 2010.05.17/outbox.cif.g08.bks.cpg/sg44_13_cif.got.tgz:24142.got - 2010.06.03 19:37:08.
