data_PCOD9373938
_publ_section_title
;
Structure prediction by ZEFSAII (Michael W. Deem and Ramdas Pophale) SiO2 
 PCOD9373938
Probable space group: I M M 2
;
_chemical_formula_sum "Si O2"
_cell_formula_units_Z 64
_cell_length_a 8.785026
_cell_length_b 15.992710
_cell_length_c 23.484165
_cell_angle_alpha 90.000000
_cell_angle_beta 90.000000
_cell_angle_gamma 90.000000
_cell_volume 3299.440009
_symmetry_space_group_name_H-M "I M M 2"
_symmetry_group_IT_number 44
_symmetry_cell_setting 'orthorhombic'
loop_
_space_group_symop_operation_xyz
x,y,z
-x,-y,z
-x,y,z
x,-y,z
1/2+x,1/2+y,1/2+z
1/2-x,1/2-y,1/2+z
1/2-x,1/2+y,1/2+z
1/2+x,1/2-y,1/2+z
loop_
_atom_site_type_symbol
_atom_site_label
_atom_site_fract_x
_atom_site_fract_y
_atom_site_fract_z
Si Si1 0.826109 0.182129 0.133930
Si Si2 0.185586 0.403954 0.407119
Si Si3 0.316035 0.903712 0.456995
Si Si4 0.177543 0.368857 0.086974
Si Si5 0.182300 0.774756 0.365353
Si Si6 0.169293 0.401285 0.533596
Si Si7 0.681052 0.231964 0.247645
Si Si8 0.682676 0.588736 0.205275
O O1 0.814179 0.270505 0.100795
O O2 0.772823 0.117662 0.086867
O O3 0.722616 0.184001 0.189759
O O4 0.000000 0.170667 0.151673
O O5 0.237160 0.500000 0.394184
O O6 0.233225 0.323128 0.370956
O O7 0.231196 0.377904 0.471550
O O8 0.000000 0.407277 0.406769
O O9 0.500000 0.896460 0.455132
O O10 0.269847 0.888183 0.523036
O O11 0.246907 0.834885 0.414632
O O12 0.276091 0.000000 0.441889
O O13 0.269368 0.408119 0.139181
O O14 0.000000 0.394652 0.091147
O O15 0.239845 0.803270 0.303604
O O16 0.000000 0.776055 0.368497
O O17 0.152162 0.500000 0.529012
O O18 0.000000 0.363274 0.541687
O O19 0.500000 0.233383 0.255742
O O20 0.739316 0.327034 0.235268
O O21 0.500000 0.590963 0.208436
O O22 0.737084 0.500000 0.230011
#
# Coordination Sequence:
#
# PCOD9373938 Si02
#       8
#     8   8   8   8   8   8   8   8
#     4  10  19  32  52  78 106 133 167 214 262 306
#     4   8  16  32  54  81 112 144 176 210 255 317
#     4  10  21  37  56  78 107 144 181 216 262 321
#     4   9  18  32  52  79 108 137 169 207 255 312
#     4  11  22  36  56  80 106 138 180 229 270 304
#     4   9  17  31  52  77 105 137 171 205 249 312
#     4  10  21  37  54  71  99 139 178 214 256 312
#     4   9  18  32  51  77 107 137 169 207 253 306
#
# _framework density 19.397231000000001
#
# number of rings (size 3 to 8) (size 9 to 14) (size 15 to 20)
#    0.000    2.500    0.000    3.000    0.000    3.250 
#    0.000    1.250    0.000    6.375    0.000    0.000 
#    0.000    0.000    0.000    0.000    0.000    0.000 
#
# Total GULP energy -178359.395558 kJ/mol
# GULP energy per Si atom -5573.731111 kJ/mol
# Density = 1.935308 g / cm^3
# Si number density = 19.397231 Si / 1000 Ang^3
#
#
#
# Elastic Constant Matrix: (Units=GPa)
#
#
# Indices 1 2 3 4 5 6 
#
# 1 21.9722 12.5670 9.4082 0.0000 0.0000 0.0000
# 2 12.5670 30.2318 32.9188 0.0000 0.0000 0.0000
# 3 9.4082 32.9188 85.4207 0.0000 0.0000 0.0000
# 4 0.0000 0.0000 0.0000 7.7927 0.0000 0.0000
# 5 0.0000 0.0000 0.0000 0.0000 23.9705 0.0000
# 6 0.0000 0.0000 0.0000 0.0000 0.0000 16.0895
#
#
#
# Elastic Compliance Matrix: (Units=1/GPa)
#
#
# Indices 1 2 3 4 5 6 
#
# 1 0.061052 -0.031112 0.005265 0.000000 0.000000 0.000000
# 2 -0.031112 0.072848 -0.024647 0.000000 0.000000 0.000000
# 3 0.005265 -0.024647 0.020625 0.000000 0.000000 0.000000
# 4 0.000000 0.000000 0.000000 0.128326 0.000000 0.000000
# 5 0.000000 0.000000 0.000000 0.000000 0.041718 0.000000
# 6 0.000000 0.000000 0.000000 0.000000 0.000000 0.062152
#
#
# Mechanical properties :
#
#
# Convention : Reuss Voigt Hill
#
# Bulk Modulus (GPa) = 18.67824 27.49029 23.08427
# Shear Modulus (GPa) = 9.89011 15.08589 12.48800
#
# Velocity S-wave (km/s) = 2.26049 2.79181 2.54008
# Velocity P-wave (km/s) = 4.05750 4.95937 4.53093
#
# Compressibility (1/GPa) = 0.05353822
#
# Stress axis : x y z
#
# Youngs Moduli (GPa) = 16.37945 13.72714 48.48450
#
# Poissons Ratio (x) = 0.42708 -0.25529
# Poissons Ratio (y) = 0.50960 1.19500
# Poissons Ratio (z) = -0.08625 0.33833
#
# Static dielectric constant tensor:
#      x y z
#    x 1.666840 0.000000 0.000000 
#    y 0.000000 1.744330 0.000000 
#    z 0.000000 0.000000 1.662380 
# 
# From -- ./inp_files/23250.got.cif
#   From: 2010.05.17/outbox.cif.g08.bks.cpg/sg44_12_cif.got.tgz:23250.got - 2010.06.03 19:37:08.
