data_PCOD9373827
_publ_section_title
;
Structure prediction by ZEFSAII (Michael W. Deem and Ramdas Pophale) SiO2 
 PCOD9373827
Probable space group: I M M 2
;
_chemical_formula_sum "Si O2"
_cell_formula_units_Z 48
_cell_length_a 8.109662
_cell_length_b 14.212627
_cell_length_c 19.476772
_cell_angle_alpha 90.000000
_cell_angle_beta 90.000000
_cell_angle_gamma 90.000000
_cell_volume 2244.884971
_symmetry_space_group_name_H-M "I M M 2"
_symmetry_group_IT_number 44
_symmetry_cell_setting 'orthorhombic'
loop_
_space_group_symop_operation_xyz
x,y,z
-x,-y,z
-x,y,z
x,-y,z
1/2+x,1/2+y,1/2+z
1/2-x,1/2-y,1/2+z
1/2-x,1/2+y,1/2+z
1/2+x,1/2-y,1/2+z
loop_
_atom_site_type_symbol
_atom_site_label
_atom_site_fract_x
_atom_site_fract_y
_atom_site_fract_z
Si Si1 0.196568 0.601780 0.913770
Si Si2 0.697704 0.892563 0.772905
Si Si3 0.698007 0.804195 0.916153
Si Si4 0.186693 0.893042 0.258378
Si Si5 0.184916 0.753257 0.661496
Si Si6 0.201512 0.604315 0.554169
O O1 0.243089 0.500000 0.945935
O O2 0.245451 0.702247 0.943517
O O3 0.280726 0.605047 0.839113
O O4 0.000000 0.601200 0.905356
O O5 0.500000 0.895790 0.779450
O O6 0.758992 0.834302 0.840182
O O7 0.735981 0.840916 0.701114
O O8 0.759562 0.000000 0.774616
O O9 0.500000 0.800508 0.912094
O O10 0.742885 0.878770 0.974651
O O11 0.312611 0.826547 0.220481
O O12 0.000000 0.858255 0.245985
O O13 0.200528 0.000000 0.234226
O O14 0.262978 0.692893 0.599238
O O15 0.000000 0.780225 0.641515
O O16 0.257392 0.500000 0.575639
O O17 0.000000 0.605416 0.560353
#
# Coordination Sequence:
#
# PCOD9373827 Si02
#       6
#     8   8   8   8   8   8
#     4  10  20  33  51  79 114 148 182 225 281 336
#     4  10  21  37  58  83 110 145 190 238 288 341
#     4  10  19  35  60  85 111 146 190 237 282 334
#     4  10  19  31  50  77 109 144 183 226 272 327
#     4  11  21  34  55  83 115 148 184 232 287 338
#     4   9  19  36  58  85 115 149 189 232 281 338
#
# _framework density 21.381941000000001
#
# number of rings (size 3 to 8) (size 9 to 14) (size 15 to 20)
#    0.000    2.000    1.667    2.500    0.000    5.000 
#    0.000    2.500    0.000    8.500    0.000    0.000 
#    0.000    0.000    0.000    0.000    0.000    0.000 
#
# Total GULP energy -133770.537354 kJ/mol
# GULP energy per Si atom -5573.772390 kJ/mol
# Density = 2.133327 g / cm^3
# Si number density = 21.381941 Si / 1000 Ang^3
#
#
#
# Elastic Constant Matrix: (Units=GPa)
#
#
# Indices 1 2 3 4 5 6 
#
# 1 27.0076 12.7790 4.0183 0.0000 0.0000 0.0000
# 2 12.7790 139.3433 40.1332 0.0000 0.0000 0.0000
# 3 4.0183 40.1332 71.8877 0.0000 0.0000 0.0000
# 4 0.0000 0.0000 0.0000 14.2603 0.0000 0.0000
# 5 0.0000 0.0000 0.0000 0.0000 13.8334 0.0000
# 6 0.0000 0.0000 0.0000 0.0000 0.0000 15.2678
#
#
#
# Elastic Compliance Matrix: (Units=1/GPa)
#
#
# Indices 1 2 3 4 5 6 
#
# 1 0.038709 -0.003488 -0.000217 0.000000 0.000000 0.000000
# 2 -0.003488 0.008866 -0.004755 0.000000 0.000000 0.000000
# 3 -0.000217 -0.004755 0.016577 0.000000 0.000000 0.000000
# 4 0.000000 0.000000 0.000000 0.070125 0.000000 0.000000
# 5 0.000000 0.000000 0.000000 0.000000 0.072289 0.000000
# 6 0.000000 0.000000 0.000000 0.000000 0.000000 0.065497
#
#
# Mechanical properties :
#
#
# Convention : Reuss Voigt Hill
#
# Bulk Modulus (GPa) = 21.17109 39.12218 30.14664
# Shear Modulus (GPa) = 16.40822 20.75950 18.58386
#
# Velocity S-wave (km/s) = 2.77318 3.11929 2.95131
# Velocity P-wave (km/s) = 4.49187 5.59552 5.07379
#
# Compressibility (1/GPa) = 0.04723421
#
# Stress axis : x y z
#
# Youngs Moduli (GPa) = 25.83374 112.79340 60.32423
#
# Poissons Ratio (x) = 0.39337 0.01307
# Poissons Ratio (y) = 0.09010 0.28682
# Poissons Ratio (z) = 0.00560 0.53629
#
# Static dielectric constant tensor:
#      x y z
#    x 1.772450 0.000000 0.000000 
#    y 0.000000 1.825180 0.000000 
#    z 0.000000 0.000000 1.777780 
# 
# From -- ./inp_files/20306.got.cif
#   From: 2010.05.17/outbox.cif.g08.bks.cpg/sg44_11_cif.got.tgz:20306.got - 2010.06.03 19:37:08.
