data_PCOD9373794
_publ_section_title
;
Structure prediction by ZEFSAII (Michael W. Deem and Ramdas Pophale) SiO2 
 PCOD9373794
Probable space group: I M M 2
;
_chemical_formula_sum "Si O2"
_cell_formula_units_Z 64
_cell_length_a 8.872630
_cell_length_b 22.705925
_cell_length_c 15.991321
_cell_angle_alpha 90.000000
_cell_angle_beta 90.000000
_cell_angle_gamma 90.000000
_cell_volume 3221.631859
_symmetry_space_group_name_H-M "I M M 2"
_symmetry_group_IT_number 44
_symmetry_cell_setting 'orthorhombic'
loop_
_space_group_symop_operation_xyz
x,y,z
-x,-y,z
-x,y,z
x,-y,z
1/2+x,1/2+y,1/2+z
1/2-x,1/2-y,1/2+z
1/2-x,1/2+y,1/2+z
1/2+x,1/2-y,1/2+z
loop_
_atom_site_type_symbol
_atom_site_label
_atom_site_fract_x
_atom_site_fract_y
_atom_site_fract_z
Si Si1 0.680361 0.433746 0.678090
Si Si2 0.828975 0.428438 0.501378
Si Si3 0.180730 0.234794 0.608843
Si Si4 0.179082 0.611426 0.163736
Si Si5 0.319245 0.686323 0.749610
Si Si6 0.816804 0.192544 0.432294
Si Si7 0.181833 0.064489 0.499958
Si Si8 0.828376 0.928823 0.832079
O O1 0.500000 0.435380 0.666835
O O2 0.730804 0.500000 0.699687
O O3 0.752894 0.415667 0.589868
O O4 0.712058 0.383550 0.745308
O O5 0.833546 0.500000 0.496648
O O6 0.736156 0.407849 0.421008
O O7 0.000000 0.406214 0.498711
O O8 0.242624 0.173836 0.646283
O O9 0.245147 0.284478 0.669056
O O10 0.228842 0.232824 0.511036
O O11 0.000000 0.235639 0.610867
O O12 0.245514 0.569396 0.091743
O O13 0.225171 0.590384 0.255442
O O14 0.000000 0.615938 0.155808
O O15 0.500000 0.694780 0.743847
O O16 0.265723 0.710019 0.839548
O O17 0.772246 0.124574 0.452530
O O18 0.000000 0.192865 0.430281
O O19 0.000000 0.067228 0.507912
O O20 0.218981 0.000000 0.462923
O O21 0.000000 0.908701 0.819153
O O22 0.829839 0.000000 0.834181
#
# Coordination Sequence:
#
# PCOD9373794 Si02
#       8
#     8   8   8   8   8   8   8   8
#     4   9  18  33  54  81 113 146 179 222 280 343
#     4   9  17  30  48  71 103 143 184 225 270 323
#     4  10  21  40  60  79 108 148 190 237 290 342
#     4  11  21  33  51  76 108 146 188 237 286 336
#     4  10  20  37  61  87 113 145 189 239 287 339
#     4   8  17  35  58  82 111 146 186 234 283 333
#     4   9  17  31  53  81 114 152 189 225 274 336
#     4  10  19  31  49  74 107 146 188 235 286 339
#
# _framework density 19.865708999999999
#
# number of rings (size 3 to 8) (size 9 to 14) (size 15 to 20)
#    0.000    2.500    0.000    3.375    0.000    5.000 
#    2.250    5.625    0.000    0.000    0.000    3.500 
#    0.000    0.000    0.000    0.000    0.000    0.000 
#
# Total GULP energy -178471.660898 kJ/mol
# GULP energy per Si atom -5577.239403 kJ/mol
# Density = 1.982049 g / cm^3
# Si number density = 19.865709 Si / 1000 Ang^3
#
#
#
# Elastic Constant Matrix: (Units=GPa)
#
#
# Indices 1 2 3 4 5 6 
#
# 1 30.1389 20.9927 33.5867 0.0000 0.0000 0.0000
# 2 20.9927 54.4067 32.0693 0.0000 0.0000 0.0000
# 3 33.5867 32.0693 109.8904 0.0000 0.0000 0.0000
# 4 0.0000 0.0000 0.0000 16.7198 0.0000 0.0000
# 5 0.0000 0.0000 0.0000 0.0000 15.7279 0.0000
# 6 0.0000 0.0000 0.0000 0.0000 0.0000 18.3586
#
#
#
# Elastic Compliance Matrix: (Units=1/GPa)
#
#
# Indices 1 2 3 4 5 6 
#
# 1 0.058502 -0.014534 -0.013639 0.000000 0.000000 0.000000
# 2 -0.014534 0.025809 -0.003090 0.000000 0.000000 0.000000
# 3 -0.013639 -0.003090 0.014170 0.000000 0.000000 0.000000
# 4 0.000000 0.000000 0.000000 0.059809 0.000000 0.000000
# 5 0.000000 0.000000 0.000000 0.000000 0.063581 0.000000
# 6 0.000000 0.000000 0.000000 0.000000 0.000000 0.054470
#
#
# Mechanical properties :
#
#
# Convention : Reuss Voigt Hill
#
# Bulk Modulus (GPa) = 27.81136 40.85926 34.33531
# Shear Modulus (GPa) = 14.25097 17.34710 15.79903
#
# Velocity S-wave (km/s) = 2.68127 2.95823 2.82315
# Velocity P-wave (km/s) = 4.85960 5.68160 5.28660
#
# Compressibility (1/GPa) = 0.03595653
#
# Stress axis : x y z
#
# Youngs Moduli (GPa) = 17.09334 38.74598 70.56986
#
# Poissons Ratio (x) = 0.56312 0.96252
# Poissons Ratio (y) = 0.24843 0.21805
# Poissons Ratio (z) = 0.23314 0.11972
#
# Static dielectric constant tensor:
#      x y z
#    x 1.670490 0.000000 0.000000 
#    y 0.000000 1.738740 0.000000 
#    z 0.000000 0.000000 1.692080 
# 
# From -- ./inp_files/16882.got.cif
#   From: 2010.05.17/outbox.cif.g08.bks.cpg/sg44_9_cif.got.tgz:16882.got - 2010.06.03 19:37:08.
