data_PCOD9373038
_publ_section_title
;
Structure prediction by ZEFSAII (Michael W. Deem and Ramdas Pophale) SiO2 
 PCOD9373038
Probable space group: I M M 2
;
_chemical_formula_sum "Si O2"
_cell_formula_units_Z 64
_cell_length_a 18.871882
_cell_length_b 9.069990
_cell_length_c 27.086744
_cell_angle_alpha 90.000000
_cell_angle_beta 90.000000
_cell_angle_gamma 90.000000
_cell_volume 4636.377866
_symmetry_space_group_name_H-M "I M M 2"
_symmetry_group_IT_number 44
_symmetry_cell_setting 'orthorhombic'
loop_
_space_group_symop_operation_xyz
x,y,z
-x,-y,z
-x,y,z
x,-y,z
1/2+x,1/2+y,1/2+z
1/2-x,1/2-y,1/2+z
1/2-x,1/2+y,1/2+z
1/2+x,1/2-y,1/2+z
loop_
_atom_site_type_symbol
_atom_site_label
_atom_site_fract_x
_atom_site_fract_y
_atom_site_fract_z
Si Si1 0.165905 0.822534 0.009910
Si Si2 0.794357 0.169898 0.462039
Si Si3 0.789277 0.330681 0.857149
Si Si4 0.080980 0.820833 0.105958
Si Si5 0.417766 0.822874 0.908576
Si Si6 0.835964 0.675505 0.307471
Si Si7 0.916866 0.822732 0.218130
Si Si8 0.582750 0.177562 0.419528
O O1 0.133711 0.775842 0.062596
O O2 0.167580 0.000000 0.007031
O O3 0.243552 0.757291 0.999230
O O4 0.114453 0.759781 0.967123
O O5 0.751780 0.172155 0.409832
O O6 0.868672 0.246048 0.449376
O O7 0.802761 0.000000 0.476708
O O8 0.790319 0.500000 0.839798
O O9 0.742409 0.233219 0.820797
O O10 0.868288 0.282575 0.872435
O O11 0.099858 0.776267 0.161779
O O12 0.000000 0.772723 0.095513
O O13 0.079897 0.000000 0.106042
O O14 0.500000 0.780972 0.911507
O O15 0.385701 0.784781 0.854636
O O16 0.412135 0.000000 0.913622
O O17 0.835986 0.500000 0.303020
O O18 0.868310 0.748122 0.258898
O O19 0.000000 0.787693 0.226935
O O20 0.909828 0.000000 0.221142
O O21 0.500000 0.209318 0.413146
O O22 0.591355 0.000000 0.426499
#
# Coordination Sequence:
#
# PCOD9373038 Si02
#       8
#     8   8   8   8   8   8   8   8
#     4  10  17  26  42  60  79 106 138 167 197 234
#     4   9  17  28  40  56  79 105 134 166 198 235
#     4   8  15  27  40  54  75 105 135 159 188 231
#     4   8  15  27  41  58  79 103 134 169 198 227
#     4   9  17  28  41  58  81 107 134 165 200 237
#     4  10  18  27  40  58  80 104 131 165 201 233
#     4   9  17  29  43  57  76 104 136 167 197 231
#     4   9  17  28  41  59  83 107 132 164 199 234
#
# _framework density 13.803879
#
# number of rings (size 3 to 8) (size 9 to 14) (size 15 to 20)
#    0.000    3.000    0.000    3.375    0.000    5.250 
#    0.000    1.250    0.000    1.500    0.000    0.000 
#    0.000    1.000    0.000    8.000    0.000    3.625 
#
# Total GULP energy -178172.533734 kJ/mol
# GULP energy per Si atom -5567.891679 kJ/mol
# Density = 1.377246 g / cm^3
# Si number density = 13.803879 Si / 1000 Ang^3
#
#
#
# Elastic Constant Matrix: (Units=GPa)
#
#
# Indices 1 2 3 4 5 6 
#
# 1 112.7949 40.0836 60.1923 0.0000 0.0000 0.0000
# 2 40.0836 35.3875 37.3041 0.0000 0.0000 0.0000
# 3 60.1923 37.3041 89.3956 0.0000 0.0000 0.0000
# 4 0.0000 0.0000 0.0000 16.8537 0.0000 0.0000
# 5 0.0000 0.0000 0.0000 0.0000 26.1337 0.0000
# 6 0.0000 0.0000 0.0000 0.0000 0.0000 18.8571
#
#
#
# Elastic Compliance Matrix: (Units=1/GPa)
#
#
# Indices 1 2 3 4 5 6 
#
# 1 0.016403 -0.012385 -0.005876 0.000000 0.000000 0.000000
# 2 -0.012385 0.059803 -0.016616 0.000000 0.000000 0.000000
# 3 -0.005876 -0.016616 0.022077 0.000000 0.000000 0.000000
# 4 0.000000 0.000000 0.000000 0.059334 0.000000 0.000000
# 5 0.000000 0.000000 0.000000 0.000000 0.038265 0.000000
# 6 0.000000 0.000000 0.000000 0.000000 0.000000 0.053030
#
#
# Mechanical properties :
#
#
# Convention : Reuss Voigt Hill
#
# Bulk Modulus (GPa) = 35.05363 56.97090 46.01226
# Shear Modulus (GPa) = 15.23571 19.03544 17.13557
#
# Velocity S-wave (km/s) = 3.32584 3.71751 3.52712
# Velocity P-wave (km/s) = 6.34015 7.73225 7.07054
#
# Compressibility (1/GPa) = 0.02852772
#
# Stress axis : x y z
#
# Youngs Moduli (GPa) = 60.96587 16.72145 45.29653
#
# Poissons Ratio (x) = 0.20709 0.26617
# Poissons Ratio (y) = 0.75505 0.75267
# Poissons Ratio (z) = 0.35825 0.27785
#
# Static dielectric constant tensor:
#      x y z
#    x 1.457160 0.000000 0.000000 
#    y 0.000000 1.461950 0.000000 
#    z 0.000000 0.000000 1.435290 
# 
# From -- ./inp_files/25868.got.cif
#   From: 2010.05.17/outbox.cif.g08.bks.cpg/sg44_13_cif.got.tgz:25868.got - 2010.06.03 19:37:08.
