data_PCOD9373585
_publ_section_title
;
Structure prediction by ZEFSAII (Michael W. Deem and Ramdas Pophale) SiO2 
 PCOD9373585
Probable space group: I M M 2
;
_chemical_formula_sum "Si O2"
_cell_formula_units_Z 64
_cell_length_a 19.502455
_cell_length_b 7.464615
_cell_length_c 22.255303
_cell_angle_alpha 90.000000
_cell_angle_beta 90.000000
_cell_angle_gamma 90.000000
_cell_volume 3239.889580
_symmetry_space_group_name_H-M "I M M 2"
_symmetry_group_IT_number 44
_symmetry_cell_setting 'orthorhombic'
loop_
_space_group_symop_operation_xyz
x,y,z
-x,-y,z
-x,y,z
x,-y,z
1/2+x,1/2+y,1/2+z
1/2-x,1/2-y,1/2+z
1/2-x,1/2+y,1/2+z
1/2+x,1/2-y,1/2+z
loop_
_atom_site_type_symbol
_atom_site_label
_atom_site_fract_x
_atom_site_fract_y
_atom_site_fract_z
Si Si1 0.574991 0.782382 0.250000
Si Si2 0.274957 0.210345 0.251333
Si Si3 0.313012 0.300335 0.017076
Si Si4 0.925070 0.285240 0.608587
Si Si5 0.577291 0.280696 0.922836
Si Si6 0.371663 0.718839 0.792303
Si Si7 0.722748 0.789495 0.617948
Si Si8 0.074603 0.784110 0.163704
O O1 0.500000 0.720886 0.273539
O O2 0.650287 0.716488 0.269844
O O3 0.575792 0.742568 0.178831
O O4 0.574818 0.000000 0.255696
O O5 0.206891 0.282248 0.283733
O O6 0.259469 0.221382 0.179252
O O7 0.277461 0.000000 0.265289
O O8 0.292176 0.500000 0.996288
O O9 0.367952 0.309638 0.070878
O O10 0.250520 0.214008 0.054478
O O11 0.359549 0.217295 0.964479
O O12 0.915699 0.500000 0.603558
O O13 0.000000 0.238446 0.584739
O O14 0.500000 0.222592 0.939437
O O15 0.577533 0.500000 0.926586
O O16 0.593646 0.228767 0.854385
O O17 0.370711 0.500000 0.791828
O O18 0.411803 0.774857 0.732419
O O19 0.641725 0.766325 0.626527
O O20 0.737298 0.000000 0.616544
O O21 0.000000 0.720971 0.142902
O O22 0.073594 0.000000 0.164489
#
# Coordination Sequence:
#
# PCOD9373585 Si02
#       8
#     8   8   8   8   8   8   8   8
#     4   8  13  21  35  56  80 105 133 166 209 255
#     4   9  15  26  44  62  81 108 143 180 218 258
#     4  10  19  28  39  57  83 116 148 173 201 243
#     4   9  16  25  38  55  77 109 143 173 207 244
#     4   9  16  26  40  59  85 115 146 179 209 238
#     4   8  14  24  42  66  85 105 138 178 215 248
#     4  10  19  28  39  60  88 114 140 170 208 256
#     4   9  17  30  49  70  87 105 135 176 217 257
#
# _framework density 19.75376
#
# number of rings (size 3 to 8) (size 9 to 14) (size 15 to 20)
#    0.000    3.000    1.250    2.625    0.000    3.000 
#    0.000    0.000    0.000    3.375    0.000    0.875 
#    0.000    5.000    0.000    0.000    0.000    0.750 
#
# Total GULP energy -178214.469397 kJ/mol
# GULP energy per Si atom -5569.202169 kJ/mol
# Density = 1.970880 g / cm^3
# Si number density = 19.753760 Si / 1000 Ang^3
#
#
#
# Elastic Constant Matrix: (Units=GPa)
#
#
# Indices 1 2 3 4 5 6 
#
# 1 158.0876 0.1730 37.2096 0.0000 0.0000 0.0000
# 2 0.1730 52.3726 -2.1868 0.0000 0.0000 0.0000
# 3 37.2096 -2.1868 66.3680 0.0000 0.0000 0.0000
# 4 0.0000 0.0000 0.0000 6.6161 0.0000 0.0000
# 5 0.0000 0.0000 0.0000 0.0000 24.7874 0.0000
# 6 0.0000 0.0000 0.0000 0.0000 0.0000 -470.7389
#
#
#
# Elastic Compliance Matrix: (Units=1/GPa)
#
#
# Indices 1 2 3 4 5 6 
#
# 1 0.007289 -0.000195 -0.004093 0.000000 0.000000 0.000000
# 2 -0.000195 0.019125 0.000740 0.000000 0.000000 0.000000
# 3 -0.004093 0.000740 0.017387 0.000000 0.000000 0.000000
# 4 0.000000 0.000000 0.000000 0.151147 0.000000 0.000000
# 5 0.000000 0.000000 0.000000 0.000000 0.040343 0.000000
# 6 0.000000 0.000000 0.000000 0.000000 0.000000 -0.002124
#
#
# Mechanical properties :
#
#
# Convention : Reuss Voigt Hill
#
# Bulk Modulus (GPa) = 27.24489 38.57999 32.91244
# Shear Modulus (GPa) = 19.80200 -71.75828 -25.97814
#
# Velocity S-wave (km/s) = 3.16957 -6.03368 -3.63036
# Velocity P-wave (km/s) = 5.21700 5.38215 0.93552
#
# Compressibility (1/GPa) = 0.03670413
#
# Stress axis : x y z
#
# Youngs Moduli (GPa) = 137.18836 52.28626 57.51505
#
# Poissons Ratio (x) = 0.01020 0.23542
# Poissons Ratio (y) = 0.02675 -0.04253
# Poissons Ratio (z) = 0.56154 -0.03867
#
# Static dielectric constant tensor:
#      x y z
#    x 1.783250 0.000000 0.000000 
#    y 0.000000 1.792810 0.000000 
#    z 0.000000 0.000000 1.679420 
# 
# From -- ./inp_files/25880.got.cif
#   From: 2010.05.17/outbox.cif.g08.bks.cpg/sg44_13_cif.got.tgz:25880.got - 2010.06.03 19:37:08.
