data_PCOD9373384
_publ_section_title
;
Structure prediction by ZEFSAII (Michael W. Deem and Ramdas Pophale) SiO2 
 PCOD9373384
Probable space group: I M M 2
;
_chemical_formula_sum "Si O2"
_cell_formula_units_Z 64
_cell_length_a 29.588540
_cell_length_b 7.660673
_cell_length_c 13.482454
_cell_angle_alpha 90.000000
_cell_angle_beta 90.000000
_cell_angle_gamma 90.000000
_cell_volume 3056.042629
_symmetry_space_group_name_H-M "I M M 2"
_symmetry_group_IT_number 44
_symmetry_cell_setting 'orthorhombic'
loop_
_space_group_symop_operation_xyz
x,y,z
-x,-y,z
-x,y,z
x,-y,z
1/2+x,1/2+y,1/2+z
1/2-x,1/2-y,1/2+z
1/2-x,1/2+y,1/2+z
1/2+x,1/2-y,1/2+z
loop_
_atom_site_type_symbol
_atom_site_label
_atom_site_fract_x
_atom_site_fract_y
_atom_site_fract_z
Si Si1 0.552647 0.712940 0.819170
Si Si2 0.717065 0.297850 0.706934
Si Si3 0.618030 0.286316 0.642746
Si Si4 0.800574 0.297673 0.566874
Si Si5 0.052797 0.210706 0.540436
Si Si6 0.141132 0.792711 0.927930
Si Si7 0.257122 0.703221 0.407096
Si Si8 0.122591 0.297602 0.707829
O O1 0.500000 0.763812 0.809840
O O2 0.553667 0.500000 0.819659
O O3 0.581801 0.772560 0.724856
O O4 0.569043 0.767174 0.929916
O O5 0.711864 0.500000 0.736123
O O6 0.667802 0.231382 0.679436
O O7 0.751021 0.293808 0.615292
O O8 0.744185 0.206280 0.793124
O O9 0.616267 0.500000 0.643348
O O10 0.615266 0.229465 0.527072
O O11 0.815823 0.500000 0.553076
O O12 0.787118 0.217612 0.461724
O O13 0.836391 0.217263 0.642570
O O14 0.080244 0.279947 0.634348
O O15 0.000000 0.257581 0.547100
O O16 0.056012 0.000000 0.543479
O O17 0.192737 0.720381 0.922872
O O18 0.118768 0.771136 0.819735
O O19 0.145745 0.000000 0.941934
O O20 0.259357 0.500000 0.437132
O O21 0.133598 0.500000 0.723667
#
# Coordination Sequence:
#
# PCOD9373384 Si02
#       8
#     8   8   8   8   8   8   8   8
#     4   8  15  30  53  81 108 129 159 212 268 310
#     4  10  18  31  49  71  99 133 174 215 255 303
#     4   9  17  30  51  75 100 137 177 213 261 315
#     4   9  18  32  47  67 101 139 172 209 256 306
#     4   9  19  37  59  82 107 132 165 215 266 311
#     4  10  19  33  52  73 102 141 180 215 254 305
#     4  10  19  32  47  66  98 138 175 213 257 304
#     4  11  22  35  53  77 107 142 177 214 261 315
#
# _framework density 20.942115000000001
#
# number of rings (size 3 to 8) (size 9 to 14) (size 15 to 20)
#    0.000    2.500    2.500    1.125    1.750    0.250 
#    0.000    2.500    0.000    3.000    0.000    0.000 
#    0.000    0.000    0.000    0.000    0.000    0.000 
#
# Total GULP energy -178244.601243 kJ/mol
# GULP energy per Si atom -5570.143789 kJ/mol
# Density = 2.089445 g / cm^3
# Si number density = 20.942115 Si / 1000 Ang^3
#
#
#
# Elastic Constant Matrix: (Units=GPa)
#
#
# Indices 1 2 3 4 5 6 
#
# 1 59.1664 -3.7774 35.3942 0.0000 0.0000 0.0000
# 2 -3.7774 29.7315 -6.8774 0.0000 0.0000 0.0000
# 3 35.3942 -6.8774 113.6357 0.0000 0.0000 0.0000
# 4 0.0000 0.0000 0.0000 4.2454 0.0000 0.0000
# 5 0.0000 0.0000 0.0000 0.0000 36.6555 0.0000
# 6 0.0000 0.0000 0.0000 0.0000 0.0000 4.3195
#
#
#
# Elastic Compliance Matrix: (Units=1/GPa)
#
#
# Indices 1 2 3 4 5 6 
#
# 1 0.020811 0.001161 -0.006412 0.000000 0.000000 0.000000
# 2 0.001161 0.034177 0.001707 0.000000 0.000000 0.000000
# 3 -0.006412 0.001707 0.010900 0.000000 0.000000 0.000000
# 4 0.000000 0.000000 0.000000 0.235547 0.000000 0.000000
# 5 0.000000 0.000000 0.000000 0.000000 0.027281 0.000000
# 6 0.000000 0.000000 0.000000 0.000000 0.000000 0.231508
#
#
# Mechanical properties :
#
#
# Convention : Reuss Voigt Hill
#
# Bulk Modulus (GPa) = 17.00676 28.00139 22.50407
# Shear Modulus (GPa) = 8.51916 20.89705 14.70810
#
# Velocity S-wave (km/s) = 2.01911 3.16230 2.65301
# Velocity P-wave (km/s) = 3.68432 5.17044 4.48930
#
# Compressibility (1/GPa) = 0.05880014
#
# Stress axis : x y z
#
# Youngs Moduli (GPa) = 48.05099 29.25976 91.73940
#
# Poissons Ratio (x) = -0.03397 0.58822
# Poissons Ratio (y) = -0.05578 -0.15658
# Poissons Ratio (z) = 0.30809 -0.04994
#
# Static dielectric constant tensor:
#      x y z
#    x 1.744280 0.000000 0.000000 
#    y 0.000000 1.808940 0.000000 
#    z 0.000000 0.000000 1.814360 
# 
# From -- ./inp_files/11552.got.cif
#   From: 2010.05.17/outbox.cif.g08.bks.cpg/sg44_6_cif.got.tgz:11552.got - 2010.06.03 19:37:08.
