data_PCOD9373619
_publ_section_title
;
Structure prediction by ZEFSAII (Michael W. Deem and Ramdas Pophale) SiO2 
 PCOD9373619
Probable space group: I M M 2
;
_chemical_formula_sum "Si O2"
_cell_formula_units_Z 64
_cell_length_a 8.558151
_cell_length_b 19.222982
_cell_length_c 22.175813
_cell_angle_alpha 90.000000
_cell_angle_beta 90.000000
_cell_angle_gamma 90.000000
_cell_volume 3648.213574
_symmetry_space_group_name_H-M "I M M 2"
_symmetry_group_IT_number 44
_symmetry_cell_setting 'orthorhombic'
loop_
_space_group_symop_operation_xyz
x,y,z
-x,-y,z
-x,y,z
x,-y,z
1/2+x,1/2+y,1/2+z
1/2-x,1/2-y,1/2+z
1/2-x,1/2+y,1/2+z
1/2+x,1/2-y,1/2+z
loop_
_atom_site_type_symbol
_atom_site_label
_atom_site_fract_x
_atom_site_fract_y
_atom_site_fract_z
Si Si1 0.176546 0.421010 0.493360
Si Si2 0.820148 0.180291 0.904742
Si Si3 0.189044 0.078804 0.801715
Si Si4 0.188091 0.576979 0.044996
Si Si5 0.186567 0.076707 0.126824
Si Si6 0.687682 0.222467 0.129813
Si Si7 0.187703 0.366689 0.176002
Si Si8 0.185402 0.781295 0.498784
O O1 0.174212 0.500000 0.471407
O O2 0.301069 0.378267 0.456096
O O3 0.224426 0.422942 0.562866
O O4 0.000000 0.391626 0.487046
O O5 0.753560 0.140283 0.846282
O O6 0.000000 0.197919 0.893620
O O7 0.738295 0.245187 0.936960
O O8 0.242481 0.096784 0.734498
O O9 0.000000 0.079355 0.805262
O O10 0.240594 0.000000 0.817890
O O11 0.242947 0.500000 0.027532
O O12 0.231366 0.592784 0.114583
O O13 0.250630 0.641078 0.006456
O O14 0.000000 0.578090 0.042117
O O15 0.243107 0.149803 0.154055
O O16 0.000000 0.080065 0.117848
O O17 0.220121 0.000000 0.154926
O O18 0.500000 0.219311 0.131123
O O19 0.747664 0.288659 0.167214
O O20 0.737028 0.238481 0.059588
O O21 0.000000 0.365204 0.180122
O O22 0.000000 0.783222 0.501239
#
# Coordination Sequence:
#
# PCOD9373619 Si02
#       8
#     8   8   8   8   8   8   8   8
#     4  10  19  29  42  63  93 129 167 206 247 293
#     4  11  21  33  50  69  97 136 175 214 254 300
#     4  10  22  38  53  73 103 139 179 218 257 304
#     4   9  18  33  53  77 104 133 166 207 257 311
#     4  10  19  29  44  68  98 132 168 206 250 302
#     4  10  19  32  50  72 101 135 171 214 262 309
#     4  10  20  34  54  77 102 134 174 217 260 306
#     4  10  20  32  48  73 102 132 168 210 257 309
#
# _framework density 17.542832000000001
#
# number of rings (size 3 to 8) (size 9 to 14) (size 15 to 20)
#    0.000    2.000    1.250    3.000    0.000    5.500 
#    0.000    0.000    0.000    0.000    0.000    0.875 
#    0.000    1.000    0.000    0.000    0.000    0.000 
#
# Total GULP energy -178384.006453 kJ/mol
# GULP energy per Si atom -5574.500202 kJ/mol
# Density = 1.750290 g / cm^3
# Si number density = 17.542832 Si / 1000 Ang^3
#
#
#
# Elastic Constant Matrix: (Units=GPa)
#
#
# Indices 1 2 3 4 5 6 
#
# 1 28.1840 27.9332 9.5528 0.0000 0.0000 0.0000
# 2 27.9332 150.5937 34.9539 0.0000 0.0000 0.0000
# 3 9.5528 34.9539 55.9377 0.0000 0.0000 0.0000
# 4 0.0000 0.0000 0.0000 21.3215 0.0000 0.0000
# 5 0.0000 0.0000 0.0000 0.0000 20.0576 0.0000
# 6 0.0000 0.0000 0.0000 0.0000 0.0000 23.3023
#
#
#
# Elastic Compliance Matrix: (Units=1/GPa)
#
#
# Indices 1 2 3 4 5 6 
#
# 1 0.043849 -0.007480 -0.002814 0.000000 0.000000 0.000000
# 2 -0.007480 0.009043 -0.004373 0.000000 0.000000 0.000000
# 3 -0.002814 -0.004373 0.021090 0.000000 0.000000 0.000000
# 4 0.000000 0.000000 0.000000 0.046901 0.000000 0.000000
# 5 0.000000 0.000000 0.000000 0.000000 0.049856 0.000000
# 6 0.000000 0.000000 0.000000 0.000000 0.000000 0.042914
#
#
# Mechanical properties :
#
#
# Convention : Reuss Voigt Hill
#
# Bulk Modulus (GPa) = 22.39803 42.17723 32.28763
# Shear Modulus (GPa) = 19.38957 23.75466 21.57211
#
# Velocity S-wave (km/s) = 3.32817 3.68379 3.51049
# Velocity P-wave (km/s) = 5.25017 6.49526 5.90562
#
# Compressibility (1/GPa) = 0.04464678
#
# Stress axis : x y z
#
# Youngs Moduli (GPa) = 22.80577 110.58382 47.41516
#
# Poissons Ratio (x) = 0.82719 0.13343
# Poissons Ratio (y) = 0.17059 0.20736
# Poissons Ratio (z) = 0.06418 0.48361
#
# Static dielectric constant tensor:
#      x y z
#    x 1.600930 0.000000 0.000000 
#    y 0.000000 1.651870 0.000000 
#    z 0.000000 0.000000 1.583000 
# 
# From -- ./inp_files/23278.got.cif
#   From: 2010.05.17/outbox.cif.g08.bks.cpg/sg44_12_cif.got.tgz:23278.got - 2010.06.03 19:37:08.
