data_PCOD9373777
_publ_section_title
;
Structure prediction by ZEFSAII (Michael W. Deem and Ramdas Pophale) SiO2 
 PCOD9373777
Probable space group: I M M 2
;
_chemical_formula_sum "Si O2"
_cell_formula_units_Z 64
_cell_length_a 8.504038
_cell_length_b 24.125090
_cell_length_c 19.666320
_cell_angle_alpha 90.000000
_cell_angle_beta 90.000000
_cell_angle_gamma 90.000000
_cell_volume 4034.755626
_symmetry_space_group_name_H-M "I M M 2"
_symmetry_group_IT_number 44
_symmetry_cell_setting 'orthorhombic'
loop_
_space_group_symop_operation_xyz
x,y,z
-x,-y,z
-x,y,z
x,-y,z
1/2+x,1/2+y,1/2+z
1/2-x,1/2-y,1/2+z
1/2-x,1/2+y,1/2+z
1/2+x,1/2-y,1/2+z
loop_
_atom_site_type_symbol
_atom_site_label
_atom_site_fract_x
_atom_site_fract_y
_atom_site_fract_z
Si Si1 0.309839 0.063650 0.096680
Si Si2 0.191570 0.380484 0.455300
Si Si3 0.692148 0.937041 0.814142
Si Si4 0.186482 0.727185 0.808613
Si Si5 0.190023 0.666296 0.228602
Si Si6 0.188026 0.161417 0.184749
Si Si7 0.687801 0.248028 0.952106
Si Si8 0.689661 0.769408 0.597855
O O1 0.500000 0.064385 0.096733
O O2 0.250339 0.103829 0.155827
O O3 0.258463 0.000000 0.103205
O O4 0.256947 0.089473 0.024402
O O5 0.240656 0.413237 0.387719
O O6 0.242686 0.316468 0.452848
O O7 0.000000 0.380313 0.455617
O O8 0.500000 0.937600 0.813989
O O9 0.742695 0.892857 0.757195
O O10 0.745362 0.000000 0.804059
O O11 0.253689 0.785000 0.778725
O O12 0.248942 0.679727 0.758129
O O13 0.241868 0.722624 0.886060
O O14 0.000000 0.728742 0.805176
O O15 0.238197 0.684008 0.152678
O O16 0.000000 0.667400 0.230174
O O17 0.236749 0.210637 0.132323
O O18 0.000000 0.161214 0.186794
O O19 0.500000 0.247814 0.946204
O O20 0.737883 0.273996 0.023678
O O21 0.500000 0.769855 0.592462
#
# Coordination Sequence:
#
# PCOD9373777 Si02
#       8
#     8   8   8   8   8   8   8   8
#     4  10  19  31  48  72 101 134 173 209 240 280
#     4   9  16  26  42  67  99 130 164 200 230 269
#     4   9  15  25  45  70  94 125 164 198 229 270
#     4  11  21  32  49  70  95 124 159 200 250 298
#     4   9  17  31  47  69  97 125 159 201 241 280
#     4  10  20  34  50  69  96 128 165 205 247 291
#     4  11  19  30  49  70  95 127 162 197 241 292
#     4   9  18  30  45  66  95 125 156 198 244 285
#
# _framework density 15.862174
#
# number of rings (size 3 to 8) (size 9 to 14) (size 15 to 20)
#    0.000    2.250    2.500    3.000    0.000    3.750 
#    0.000    0.000    0.000    0.375    0.000    0.875 
#    0.000    5.000    0.000    0.000    0.000    0.000 
#
# Total GULP energy -178490.956154 kJ/mol
# GULP energy per Si atom -5577.842380 kJ/mol
# Density = 1.582607 g / cm^3
# Si number density = 15.862174 Si / 1000 Ang^3
#
#
#
# Elastic Constant Matrix: (Units=GPa)
#
#
# Indices 1 2 3 4 5 6 
#
# 1 13.0910 17.0566 24.0607 0.0000 0.0000 0.0000
# 2 17.0566 102.7151 74.1664 0.0000 0.0000 0.0000
# 3 24.0607 74.1664 142.3194 0.0000 0.0000 0.0000
# 4 0.0000 0.0000 0.0000 20.8977 0.0000 0.0000
# 5 0.0000 0.0000 0.0000 0.0000 21.4345 0.0000
# 6 0.0000 0.0000 0.0000 0.0000 0.0000 13.3262
#
#
#
# Elastic Compliance Matrix: (Units=1/GPa)
#
#
# Indices 1 2 3 4 5 6 
#
# 1 0.114881 -0.008102 -0.015200 0.000000 0.000000 0.000000
# 2 -0.008102 0.016180 -0.007062 0.000000 0.000000 0.000000
# 3 -0.015200 -0.007062 0.013277 0.000000 0.000000 0.000000
# 4 0.000000 0.000000 0.000000 0.047852 0.000000 0.000000
# 5 0.000000 0.000000 0.000000 0.000000 0.046654 0.000000
# 6 0.000000 0.000000 0.000000 0.000000 0.000000 0.075040
#
#
# Mechanical properties :
#
#
# Convention : Reuss Voigt Hill
#
# Bulk Modulus (GPa) = 11.96026 54.29921 33.12974
# Shear Modulus (GPa) = 12.42291 20.65448 16.53869
#
# Velocity S-wave (km/s) = 2.80157 3.61241 3.23251
# Velocity P-wave (km/s) = 4.24518 7.19065 5.90453
#
# Compressibility (1/GPa) = 0.08361019
#
# Stress axis : x y z
#
# Youngs Moduli (GPa) = 8.70465 61.80288 75.32069
#
# Poissons Ratio (x) = 0.50070 1.14487
# Poissons Ratio (y) = 0.07052 0.53195
# Poissons Ratio (z) = 0.13231 0.43648
#
# Static dielectric constant tensor:
#      x y z
#    x 1.541270 0.000000 0.000000 
#    y 0.000000 1.518880 0.000000 
#    z 0.000000 0.000000 1.525720 
# 
# From -- ./inp_files/20841.got.cif
#   From: 2010.05.17/outbox.cif.g08.bks.cpg/sg44_11_cif.got.tgz:20841.got - 2010.06.03 19:37:08.
