data_PCOD9373576
_publ_section_title
;
Structure prediction by ZEFSAII (Michael W. Deem and Ramdas Pophale) SiO2 
 PCOD9373576
Probable space group: I M M 2
;
_chemical_formula_sum "Si O2"
_cell_formula_units_Z 56
_cell_length_a 17.759341
_cell_length_b 17.069713
_cell_length_c 8.774574
_cell_angle_alpha 90.000000
_cell_angle_beta 90.000000
_cell_angle_gamma 90.000000
_cell_volume 2659.984503
_symmetry_space_group_name_H-M "I M M 2"
_symmetry_group_IT_number 44
_symmetry_cell_setting 'orthorhombic'
loop_
_space_group_symop_operation_xyz
x,y,z
-x,-y,z
-x,y,z
x,-y,z
1/2+x,1/2+y,1/2+z
1/2-x,1/2-y,1/2+z
1/2-x,1/2+y,1/2+z
1/2+x,1/2-y,1/2+z
loop_
_atom_site_type_symbol
_atom_site_label
_atom_site_fract_x
_atom_site_fract_y
_atom_site_fract_z
Si Si1 0.864908 0.086825 0.135750
Si Si2 0.581323 0.592520 0.289150
Si Si3 0.817561 0.587103 0.638171
Si Si4 0.855622 0.747188 0.186693
Si Si5 0.282067 0.411729 0.095838
Si Si6 0.288082 0.207824 0.368022
Si Si7 0.630028 0.086135 0.793074
O O1 0.773626 0.090084 0.119846
O O2 0.888929 0.166775 0.219645
O O3 0.884419 0.000000 0.197251
O O4 0.899147 0.092647 0.966989
O O5 0.500000 0.628692 0.261441
O O6 0.578328 0.500000 0.250736
O O7 0.648504 0.624924 0.187496
O O8 0.835339 0.500000 0.701394
O O9 0.837309 0.660089 0.745596
O O10 0.855105 0.593225 0.473019
O O11 0.776307 0.743634 0.280735
O O12 0.901048 0.668781 0.229625
O O13 0.833902 0.746473 0.006390
O O14 0.299212 0.500000 0.043991
O O15 0.210879 0.418051 0.208343
O O16 0.257991 0.360143 0.955090
O O17 0.593952 0.000000 0.764838
#
# Coordination Sequence:
#
# PCOD9373576 Si02
#       7
#     8   8   8   8   8   8   8
#     4   9  16  27  42  59  86 117 150 185 218 257
#     4   9  16  27  45  65  83 112 157 199 231 263
#     4   9  15  26  42  60  85 119 152 180 215 261
#     4  10  19  28  40  63  87 120 155 184 219 266
#     4   9  16  27  42  61  83 113 151 191 227 264
#     4  10  19  25  38  57  87 114 156 186 217 261
#     4   9  16  28  44  61  89 122 151 180 218 266
#
# _framework density 21.052755000000001
#
# number of rings (size 3 to 8) (size 9 to 14) (size 15 to 20)
#    0.000    2.714    1.429    2.143    2.000    1.143 
#    0.000    0.000    0.000    3.429    0.000   16.000 
#    0.000    0.571    0.000    1.429    0.000    4.571 
#
# Total GULP energy -155995.752453 kJ/mol
# GULP energy per Si atom -5571.276873 kJ/mol
# Density = 2.100484 g / cm^3
# Si number density = 21.052755 Si / 1000 Ang^3
#
#
#
# Elastic Constant Matrix: (Units=GPa)
#
#
# Indices 1 2 3 4 5 6 
#
# 1 31.3029 0.8445 1.2831 0.0000 0.0000 0.0000
# 2 0.8445 171.5590 19.4510 0.0000 0.0000 0.0000
# 3 1.2831 19.4510 66.1779 0.0000 0.0000 0.0000
# 4 0.0000 0.0000 0.0000 26.3426 0.0000 0.0000
# 5 0.0000 0.0000 0.0000 0.0000 -1.5724 0.0000
# 6 0.0000 0.0000 0.0000 0.0000 0.0000 0.5448
#
#
#
# Elastic Compliance Matrix: (Units=1/GPa)
#
#
# Indices 1 2 3 4 5 6 
#
# 1 0.031973 -0.000090 -0.000593 0.000000 0.000000 0.000000
# 2 -0.000090 0.006030 -0.001771 0.000000 0.000000 0.000000
# 3 -0.000593 -0.001771 0.015643 0.000000 0.000000 0.000000
# 4 0.000000 0.000000 0.000000 0.037961 0.000000 0.000000
# 5 0.000000 0.000000 0.000000 0.000000 -0.635955 0.000000
# 6 0.000000 0.000000 0.000000 0.000000 0.000000 1.835466
#
#
# Mechanical properties :
#
#
# Convention : Reuss Voigt Hill
#
# Bulk Modulus (GPa) = 20.51822 34.68855 27.60339
# Shear Modulus (GPa) = 3.81019 21.56041 12.68530
#
# Velocity S-wave (km/s) = 1.34676 3.20365 2.45735
# Velocity P-wave (km/s) = 3.49079 5.49520 4.60341
#
# Compressibility (1/GPa) = 0.04873717
#
# Stress axis : x y z
#
# Youngs Moduli (GPa) = 31.27675 165.83500 63.92754
#
# Poissons Ratio (x) = 0.01494 0.03794
# Poissons Ratio (y) = 0.00282 0.11319
# Poissons Ratio (z) = 0.01856 0.29363
#
# Static dielectric constant tensor:
#      x y z
#    x 1.753640 0.000000 0.000000 
#    y 0.000000 1.889440 0.000000 
#    z 0.000000 0.000000 1.766690 
# 
# From -- ./inp_files/8485.got.cif
#   From: 2010.05.17/outbox.cif.g08.bks.cpg/sg44_5_cif.got.tgz:8485.got - 2010.06.03 19:37:08.
