data_PCOD9373699
_publ_section_title
;
Structure prediction by ZEFSAII (Michael W. Deem and Ramdas Pophale) SiO2 
 PCOD9373699
Probable space group: I M M 2
;
_chemical_formula_sum "Si O2"
_cell_formula_units_Z 64
_cell_length_a 14.776900
_cell_length_b 8.821917
_cell_length_c 29.172975
_cell_angle_alpha 90.000000
_cell_angle_beta 90.000000
_cell_angle_gamma 90.000000
_cell_volume 3803.006096
_symmetry_space_group_name_H-M "I M M 2"
_symmetry_group_IT_number 44
_symmetry_cell_setting 'orthorhombic'
loop_
_space_group_symop_operation_xyz
x,y,z
-x,-y,z
-x,y,z
x,-y,z
1/2+x,1/2+y,1/2+z
1/2-x,1/2-y,1/2+z
1/2-x,1/2+y,1/2+z
1/2+x,1/2-y,1/2+z
loop_
_atom_site_type_symbol
_atom_site_label
_atom_site_fract_x
_atom_site_fract_y
_atom_site_fract_z
Si Si1 0.392624 0.679584 0.368590
Si Si2 0.892778 0.820925 0.425968
Si Si3 0.275922 0.818311 0.286752
Si Si4 0.396539 0.817386 0.467973
Si Si5 0.395517 0.180778 0.827989
Si Si6 0.395991 0.817254 0.097429
Si Si7 0.218531 0.817525 0.516072
Si Si8 0.103067 0.315524 0.702169
O O1 0.500000 0.704676 0.360587
O O2 0.375119 0.500000 0.367569
O O3 0.335047 0.761091 0.329661
O O4 0.372414 0.744910 0.418989
O O5 0.870205 0.732750 0.379540
O O6 0.837746 0.772223 0.470614
O O7 0.000000 0.802394 0.434581
O O8 0.875060 0.000000 0.418204
O O9 0.175567 0.754390 0.293566
O O10 0.325983 0.765526 0.240394
O O11 0.273456 0.000000 0.287082
O O12 0.500000 0.774795 0.479176
O O13 0.322199 0.774416 0.505632
O O14 0.392968 0.000000 0.462748
O O15 0.500000 0.228154 0.820460
O O16 0.390624 0.000000 0.825217
O O17 0.500000 0.771543 0.086669
O O18 0.376697 0.769306 0.149902
O O19 0.393125 0.000000 0.096128
O O20 0.327006 0.752392 0.060633
O O21 0.213118 0.000000 0.519497
O O22 0.102855 0.500000 0.702511
O O23 0.000000 0.267719 0.713457
#
# Coordination Sequence:
#
# PCOD9373699 Si02
#       8
#     8   8   8   8   8   8   8   8
#     4  10  20  32  47  72 105 133 159 197 243 289
#     4   9  17  29  45  67  96 127 160 197 235 282
#     4  11  20  31  52  75  95 126 166 202 237 284
#     4   9  18  32  48  67  95 132 170 202 233 275
#     4  10  21  35  49  68  98 132 164 202 245 284
#     4   9  18  33  52  73  97 123 151 188 237 291
#     4  10  19  30  47  71  96 124 159 198 238 279
#     4   8  16  32  52  74  98 122 151 189 234 286
#
# _framework density 16.828792
#
# number of rings (size 3 to 8) (size 9 to 14) (size 15 to 20)
#    0.000    2.500    0.000    3.375    0.000    4.750 
#    0.000    2.500    0.000    2.250    0.000    3.500 
#    0.000    0.000    0.000    0.000    0.000    0.000 
#
# Total GULP energy -178536.887677 kJ/mol
# GULP energy per Si atom -5579.277740 kJ/mol
# Density = 1.679049 g / cm^3
# Si number density = 16.828792 Si / 1000 Ang^3
#
#
#
# Elastic Constant Matrix: (Units=GPa)
#
#
# Indices 1 2 3 4 5 6 
#
# 1 111.7219 36.7859 97.9849 0.0000 0.0000 0.0000
# 2 36.7859 23.3150 30.5955 0.0000 0.0000 0.0000
# 3 97.9849 30.5955 118.9017 0.0000 0.0000 0.0000
# 4 0.0000 0.0000 0.0000 22.0033 0.0000 0.0000
# 5 0.0000 0.0000 0.0000 0.0000 33.2768 0.0000
# 6 0.0000 0.0000 0.0000 0.0000 0.0000 23.6560
#
#
#
# Elastic Compliance Matrix: (Units=1/GPa)
#
#
# Indices 1 2 3 4 5 6 
#
# 1 0.044840 -0.033604 -0.028305 0.000000 0.000000 0.000000
# 2 -0.033604 0.089941 0.004549 0.000000 0.000000 0.000000
# 3 -0.028305 0.004549 0.030566 0.000000 0.000000 0.000000
# 4 0.000000 0.000000 0.000000 0.045448 0.000000 0.000000
# 5 0.000000 0.000000 0.000000 0.000000 0.030051 0.000000
# 6 0.000000 0.000000 0.000000 0.000000 0.000000 0.042273
#
#
# Mechanical properties :
#
#
# Convention : Reuss Voigt Hill
#
# Bulk Modulus (GPa) = 19.75251 64.96347 42.35799
# Shear Modulus (GPa) = 12.05652 21.69204 16.87428
#
# Velocity S-wave (km/s) = 2.67951 3.59414 3.16998
# Velocity P-wave (km/s) = 4.61907 7.47731 6.21474
#
# Compressibility (1/GPa) = 0.05062647
#
# Stress axis : x y z
#
# Youngs Moduli (GPa) = 22.30141 11.11844 32.71652
#
# Poissons Ratio (x) = 0.37362 0.92605
# Poissons Ratio (y) = 0.74942 -0.14883
# Poissons Ratio (z) = 0.63125 -0.05058
#
# Static dielectric constant tensor:
#      x y z
#    x 1.588330 0.000000 0.000000 
#    y 0.000000 1.569280 0.000000 
#    z 0.000000 0.000000 1.540120 
# 
# From -- ./inp_files/27517.got.cif
#   From: 2010.05.17/outbox.cif.g08.bks.cpg/sg44_14_cif.got.tgz:27517.got - 2010.06.03 19:37:08.
