data_PCOD9373534
_publ_section_title
;
Structure prediction by ZEFSAII (Michael W. Deem and Ramdas Pophale) SiO2 
 PCOD9373534
Probable space group: I M M 2
;
_chemical_formula_sum "Si O2"
_cell_formula_units_Z 48
_cell_length_a 8.521450
_cell_length_b 10.595667
_cell_length_c 29.143184
_cell_angle_alpha 90.000000
_cell_angle_beta 90.000000
_cell_angle_gamma 90.000000
_cell_volume 2631.351097
_symmetry_space_group_name_H-M "I M M 2"
_symmetry_group_IT_number 44
_symmetry_cell_setting 'orthorhombic'
loop_
_space_group_symop_operation_xyz
x,y,z
-x,-y,z
-x,y,z
x,-y,z
1/2+x,1/2+y,1/2+z
1/2-x,1/2-y,1/2+z
1/2-x,1/2+y,1/2+z
1/2+x,1/2-y,1/2+z
loop_
_atom_site_type_symbol
_atom_site_label
_atom_site_fract_x
_atom_site_fract_y
_atom_site_fract_z
Si Si1 0.691348 0.000000 0.684610
Si Si2 0.188650 0.254576 0.532280
Si Si3 0.189582 0.744782 0.241925
Si Si4 0.687364 0.646405 0.335774
Si Si5 0.311501 0.000000 0.578516
Si Si6 0.811094 0.000000 0.085767
Si Si7 0.188953 0.647235 0.434582
Si Si8 0.691512 0.500000 0.692197
O O1 0.742827 0.124743 0.711777
O O2 0.741535 0.000000 0.631739
O O3 0.500000 0.000000 0.684656
O O4 0.248990 0.375030 0.560729
O O5 0.238303 0.275036 0.479296
O O6 0.000000 0.254374 0.533523
O O7 0.251705 0.125669 0.553623
O O8 0.246110 0.725839 0.293704
O O9 0.000000 0.744369 0.241841
O O10 0.243283 0.874070 0.218401
O O11 0.500000 0.647074 0.334058
O O12 0.742048 0.500000 0.330383
O O13 0.742579 0.689666 0.385964
O O14 0.500000 0.000000 0.578296
O O15 0.760977 0.000000 0.139037
O O16 0.000000 0.000000 0.084152
O O17 0.235007 0.500000 0.441457
O O18 0.000000 0.650870 0.431740
O O19 0.500000 0.500000 0.692364
#
# Coordination Sequence:
#
# PCOD9373534 Si02
#       8
#     4   8   8   8   4   4   8   4
#     4   9  18  33  56  79 104 143 192 231 264 321
#     4  11  22  39  59  86 119 152 191 237 287 342
#     4  10  18  34  57  79 105 144 186 225 269 324
#     4  10  20  33  52  82 113 136 173 231 284 328
#     4  11  23  39  58  85 118 155 196 237 284 337
#     4  11  21  37  62  87 114 151 196 243 284 333
#     4   9  18  35  58  81 107 143 186 226 271 336
#     4   9  20  35  54  81 112 145 188 231 268 323
#
# _framework density 18.241579999999999
#
# number of rings (size 3 to 8) (size 9 to 14) (size 15 to 20)
#    0.000    2.000    1.667    2.500    0.000    4.667 
#    0.000    6.250    0.000    2.000    0.000    0.000 
#    0.000    0.000    0.000    0.000    0.000    0.000 
#
# Total GULP energy -134014.413852 kJ/mol
# GULP energy per Si atom -5583.933911 kJ/mol
# Density = 1.820006 g / cm^3
# Si number density = 18.241580 Si / 1000 Ang^3
#
#
#
# Elastic Constant Matrix: (Units=GPa)
#
#
# Indices 1 2 3 4 5 6 
#
# 1 29.7863 29.5628 36.3153 0.0000 0.0000 0.0000
# 2 29.5628 153.5009 105.2320 0.0000 0.0000 0.0000
# 3 36.3153 105.2320 206.7870 0.0000 0.0000 0.0000
# 4 0.0000 0.0000 0.0000 -3.1512 0.0000 0.0000
# 5 0.0000 0.0000 0.0000 0.0000 29.1573 0.0000
# 6 0.0000 0.0000 0.0000 0.0000 0.0000 22.4438
#
#
#
# Elastic Compliance Matrix: (Units=1/GPa)
#
#
# Indices 1 2 3 4 5 6 
#
# 1 0.045086 -0.004999 -0.005374 0.000000 0.000000 0.000000
# 2 -0.004999 0.010559 -0.004496 0.000000 0.000000 0.000000
# 3 -0.005374 -0.004496 0.008067 0.000000 0.000000 0.000000
# 4 0.000000 0.000000 0.000000 -0.317340 0.000000 0.000000
# 5 0.000000 0.000000 0.000000 0.000000 0.034297 0.000000
# 6 0.000000 0.000000 0.000000 0.000000 0.000000 0.044556
#
#
# Mechanical properties :
#
#
# Convention : Reuss Voigt Hill
#
# Bulk Modulus (GPa) = 29.43303 81.36604 55.39953
# Shear Modulus (GPa) = -37.39358 24.28759 -6.55299
#
# Velocity S-wave (km/s) = -4.53250 3.65285 -1.89740
# Velocity P-wave (km/s) = 3.34982 7.90523 5.06317
#
# Compressibility (1/GPa) = 0.03397544
#
# Stress axis : x y z
#
# Youngs Moduli (GPa) = 22.17996 94.70268 123.95524
#
# Poissons Ratio (x) = 0.47342 0.66612
# Poissons Ratio (y) = 0.11088 0.55726
# Poissons Ratio (z) = 0.11919 0.42575
#
# Static dielectric constant tensor:
#      x y z
#    x 1.623700 0.000000 0.000000 
#    y 0.000000 1.602970 0.000000 
#    z 0.000000 0.000000 1.614280 
# 
# From -- ./inp_files/27061.got.cif
#   From: 2010.05.17/outbox.cif.g08.bks.cpg/sg44_14_cif.got.tgz:27061.got - 2010.06.03 19:37:08.
