data_PCOD9373811
_publ_section_title
;
Structure prediction by ZEFSAII (Michael W. Deem and Ramdas Pophale) SiO2 
 PCOD9373811
Probable space group: I M M 2
;
_chemical_formula_sum "Si O2"
_cell_formula_units_Z 64
_cell_length_a 8.938215
_cell_length_b 14.830925
_cell_length_c 28.575419
_cell_angle_alpha 90.000000
_cell_angle_beta 90.000000
_cell_angle_gamma 90.000000
_cell_volume 3788.014588
_symmetry_space_group_name_H-M "I M M 2"
_symmetry_group_IT_number 44
_symmetry_cell_setting 'orthorhombic'
loop_
_space_group_symop_operation_xyz
x,y,z
-x,-y,z
-x,y,z
x,-y,z
1/2+x,1/2+y,1/2+z
1/2-x,1/2-y,1/2+z
1/2-x,1/2+y,1/2+z
1/2+x,1/2-y,1/2+z
loop_
_atom_site_type_symbol
_atom_site_label
_atom_site_fract_x
_atom_site_fract_y
_atom_site_fract_z
Si Si1 0.678983 0.894278 0.549100
Si Si2 0.820762 0.403261 0.666990
Si Si3 0.820077 0.783517 0.357803
Si Si4 0.329956 0.855028 0.727246
Si Si5 0.179516 0.205938 0.634859
Si Si6 0.321454 0.400419 0.322550
Si Si7 0.669332 0.353310 0.760053
Si Si8 0.679746 0.105126 0.440578
O O1 0.500000 0.882788 0.554755
O O2 0.764482 0.832988 0.585968
O O3 0.715941 0.874967 0.494869
O O4 0.712474 0.000000 0.557571
O O5 0.767422 0.500000 0.647480
O O6 0.770091 0.310322 0.642621
O O7 0.770839 0.398714 0.721107
O O8 0.000000 0.402301 0.664798
O O9 0.754097 0.683866 0.348728
O O10 0.775245 0.846446 0.313288
O O11 0.760920 0.829215 0.404679
O O12 0.000000 0.778056 0.356909
O O13 0.500000 0.889299 0.724198
O O14 0.250168 0.852556 0.677144
O O15 0.237564 0.899319 0.769105
O O16 0.338178 0.750740 0.743537
O O17 0.000000 0.202694 0.638234
O O18 0.500000 0.388061 0.322653
O O19 0.286704 0.500000 0.342382
O O20 0.500000 0.389738 0.759026
O O21 0.500000 0.113255 0.435413
O O22 0.718763 0.000000 0.431711
#
# Coordination Sequence:
#
# PCOD9373811 Si02
#       8
#     8   8   8   8   8   8   8   8
#     4   9  19  36  55  74  97 125 158 200 252 305
#     4   9  18  31  46  67  97 132 166 198 234 279
#     4  10  20  33  51  75 103 134 166 203 249 300
#     4   9  17  30  47  67  95 130 165 202 244 289
#     4  10  19  31  50  74  99 129 166 207 248 294
#     4  10  20  33  50  73 102 136 173 211 247 287
#     4   8  16  29  43  64  93 124 159 196 232 272
#     4   9  19  36  56  76  98 126 161 203 254 308
#
# _framework density 16.895395000000001
#
# number of rings (size 3 to 8) (size 9 to 14) (size 15 to 20)
#    0.000    2.750    0.000    3.000    0.000    7.250 
#    0.000    3.750    0.000    0.750    0.000    3.500 
#    0.000    0.000    0.000    0.000    0.000    0.000 
#
# Total GULP energy -178306.373840 kJ/mol
# GULP energy per Si atom -5572.074183 kJ/mol
# Density = 1.685694 g / cm^3
# Si number density = 16.895395 Si / 1000 Ang^3
#
#
#
# Elastic Constant Matrix: (Units=GPa)
#
#
# Indices 1 2 3 4 5 6 
#
# 1 44.1485 38.1125 42.6567 0.0000 0.0000 0.0000
# 2 38.1125 97.2247 65.0170 0.0000 0.0000 0.0000
# 3 42.6567 65.0170 109.0712 0.0000 0.0000 0.0000
# 4 0.0000 0.0000 0.0000 20.7205 0.0000 0.0000
# 5 0.0000 0.0000 0.0000 0.0000 30.4963 0.0000
# 6 0.0000 0.0000 0.0000 0.0000 0.0000 5.4298
#
#
#
# Elastic Compliance Matrix: (Units=1/GPa)
#
#
# Indices 1 2 3 4 5 6 
#
# 1 0.040463 -0.008779 -0.010592 0.000000 0.000000 0.000000
# 2 -0.008779 0.019008 -0.007897 0.000000 0.000000 0.000000
# 3 -0.010592 -0.007897 0.018018 0.000000 0.000000 0.000000
# 4 0.000000 0.000000 0.000000 0.048261 0.000000 0.000000
# 5 0.000000 0.000000 0.000000 0.000000 0.032791 0.000000
# 6 0.000000 0.000000 0.000000 0.000000 0.000000 0.184169
#
#
# Mechanical properties :
#
#
# Convention : Reuss Voigt Hill
#
# Bulk Modulus (GPa) = 43.56591 60.22410 51.89500
# Shear Modulus (GPa) = 12.34881 18.30653 15.32767
#
# Velocity S-wave (km/s) = 2.70645 3.29526 3.01526
# Velocity P-wave (km/s) = 5.96725 7.08526 6.55016
#
# Compressibility (1/GPa) = 0.02295373
#
# Stress axis : x y z
#
# Youngs Moduli (GPa) = 24.71379 52.60984 55.49938
#
# Poissons Ratio (x) = 0.46185 0.58784
# Poissons Ratio (y) = 0.21695 0.43829
# Poissons Ratio (z) = 0.26176 0.41547
#
# Static dielectric constant tensor:
#      x y z
#    x 1.570240 0.000000 0.000000 
#    y 0.000000 1.603550 0.000000 
#    z 0.000000 0.000000 1.548730 
# 
# From -- ./inp_files/25145.got.cif
#   From: 2010.05.17/outbox.cif.g08.bks.cpg/sg44_13_cif.got.tgz:25145.got - 2010.06.03 19:37:08.
