data_PCOD9373713
_publ_section_title
;
Structure prediction by ZEFSAII (Michael W. Deem and Ramdas Pophale) SiO2 
 PCOD9373713
Probable space group: I M M 2
;
_chemical_formula_sum "Si O2"
_cell_formula_units_Z 56
_cell_length_a 7.601619
_cell_length_b 21.576611
_cell_length_c 14.488488
_cell_angle_alpha 90.000000
_cell_angle_beta 90.000000
_cell_angle_gamma 90.000000
_cell_volume 2376.360888
_symmetry_space_group_name_H-M "I M M 2"
_symmetry_group_IT_number 44
_symmetry_cell_setting 'orthorhombic'
loop_
_space_group_symop_operation_xyz
x,y,z
-x,-y,z
-x,y,z
x,-y,z
1/2+x,1/2+y,1/2+z
1/2-x,1/2-y,1/2+z
1/2-x,1/2+y,1/2+z
1/2+x,1/2-y,1/2+z
loop_
_atom_site_type_symbol
_atom_site_label
_atom_site_fract_x
_atom_site_fract_y
_atom_site_fract_z
Si Si1 0.213025 0.606327 0.241860
Si Si2 0.696172 0.328525 0.569669
Si Si3 0.211461 0.568231 0.039836
Si Si4 0.715316 0.751816 0.732701
Si Si5 0.208307 0.855450 0.370040
Si Si6 0.207318 0.067503 0.942545
Si Si7 0.296786 0.068523 0.204825
O O1 0.272530 0.578646 0.144595
O O2 0.269161 0.677963 0.247446
O O3 0.274836 0.572025 0.333153
O O4 0.000000 0.604263 0.242689
O O5 0.500000 0.308340 0.540539
O O6 0.777477 0.274047 0.632388
O O7 0.781716 0.368707 0.487260
O O8 0.688950 0.381949 0.647688
O O9 0.274087 0.500000 0.006980
O O10 0.000000 0.566248 0.041567
O O11 0.256751 0.626604 0.975218
O O12 0.500000 0.750094 0.728887
O O13 0.771173 0.707058 0.817679
O O14 0.289268 0.911246 0.310639
O O15 0.000000 0.856237 0.357777
O O16 0.000000 0.068000 0.966322
O O17 0.279428 0.000000 0.973359
O O18 0.500000 0.071761 0.174557
O O19 0.228616 0.000000 0.192480
#
# Coordination Sequence:
#
# PCOD9373713 Si02
#       7
#     8   8   8   8   8   8   8
#     4  10  21  38  58  77 104 144 183 222 267 314
#     4   9  18  34  55  77 105 140 175 215 265 319
#     4  10  21  36  54  79 108 138 178 225 268 312
#     4   8  17  35  56  80 108 137 175 219 262 315
#     4  10  20  34  54  78 106 141 176 214 265 321
#     4  10  21  36  55  82 112 140 176 223 269 314
#     4  10  19  30  47  75 109 140 173 217 264 312
#
# _framework density 23.565443999999999
#
# number of rings (size 3 to 8) (size 9 to 14) (size 15 to 20)
#    0.000    2.429    0.000    3.000    0.000    6.857 
#    0.000    5.000    0.000    0.000    0.000    0.000 
#    0.000    0.000    0.000    0.000    0.000    0.000 
#
# Total GULP energy -156236.953311 kJ/mol
# GULP energy per Si atom -5579.891190 kJ/mol
# Density = 2.351181 g / cm^3
# Si number density = 23.565444 Si / 1000 Ang^3
#
#
#
# Elastic Constant Matrix: (Units=GPa)
#
#
# Indices 1 2 3 4 5 6 
#
# 1 59.2241 3.0086 -2.4797 0.0000 0.0001 0.0000
# 2 3.0086 106.8651 18.1957 0.0000 -0.0002 0.0000
# 3 -2.4797 18.1957 108.6866 0.0000 0.0018 0.0001
# 4 0.0000 0.0000 0.0000 26.7231 0.0006 0.0000
# 5 0.0001 -0.0002 0.0018 0.0006 -412.5499 0.0011
# 6 0.0000 0.0000 0.0001 0.0000 0.0011 -31.1897
#
#
#
# Elastic Compliance Matrix: (Units=1/GPa)
#
#
# Indices 1 2 3 4 5 6 
#
# 1 0.016933 -0.000558 0.000480 0.000000 0.000000 0.000000
# 2 -0.000558 0.009651 -0.001628 0.000000 0.000000 0.000000
# 3 0.000480 -0.001628 0.009484 0.000000 0.000000 0.000000
# 4 0.000000 0.000000 0.000000 0.037421 0.000000 0.000000
# 5 0.000000 0.000000 0.000000 0.000000 -0.002424 0.000000
# 6 0.000000 0.000000 0.000000 0.000000 0.000000 -0.032062
#
#
# Mechanical properties :
#
#
# Convention : Reuss Voigt Hill
#
# Bulk Modulus (GPa) = 30.62375 34.69167 32.65771
# Shear Modulus (GPa) = 93.80504 -66.33321 13.73592
#
# Velocity S-wave (km/s) = 6.31606 -5.31127 2.41692
# Velocity P-wave (km/s) = 8.13717 4.78116 4.65586
#
# Compressibility (1/GPa) = 0.03265440
#
# Stress axis : x y z
#
# Youngs Moduli (GPa) = 59.05465 103.62076 105.43711
#
# Poissons Ratio (x) = 0.05787 -0.05059
# Poissons Ratio (y) = 0.03298 0.17169
# Poissons Ratio (z) = -0.02834 0.16873
#
# Static dielectric constant tensor:
#      x y z
#    x 4.579810 0.000000 0.000000 
#    y 0.000000 1.930470 0.000000 
#    z 0.000000 0.000000 1.927010 
# 
# From -- ./inp_files/16423.got.cif
#   From: 2010.05.17/outbox.cif.g08.bks.cpg/sg44_9_cif.got.tgz:16423.got - 2010.06.03 19:37:08.
