data_PCOD9373530
_publ_section_title
;
Structure prediction by ZEFSAII (Michael W. Deem and Ramdas Pophale) SiO2 
 PCOD9373530
Probable space group: I M M 2
;
_chemical_formula_sum "Si O2"
_cell_formula_units_Z 48
_cell_length_a 7.845861
_cell_length_b 19.004185
_cell_length_c 15.639728
_cell_angle_alpha 90.000000
_cell_angle_beta 90.000000
_cell_angle_gamma 90.000000
_cell_volume 2331.949037
_symmetry_space_group_name_H-M "I M M 2"
_symmetry_group_IT_number 44
_symmetry_cell_setting 'orthorhombic'
loop_
_space_group_symop_operation_xyz
x,y,z
-x,-y,z
-x,y,z
x,-y,z
1/2+x,1/2+y,1/2+z
1/2-x,1/2-y,1/2+z
1/2-x,1/2+y,1/2+z
1/2+x,1/2-y,1/2+z
loop_
_atom_site_type_symbol
_atom_site_label
_atom_site_fract_x
_atom_site_fract_y
_atom_site_fract_z
Si Si1 0.796248 0.111813 0.023690
Si Si2 0.790761 0.736793 0.079020
Si Si3 0.709887 0.000000 0.354726
Si Si4 0.204112 0.652344 0.918346
Si Si5 0.798124 0.500000 0.661471
Si Si6 0.798817 0.268483 0.274344
Si Si7 0.706759 0.576132 0.336712
O O1 0.735129 0.190640 0.035383
O O2 0.754817 0.066924 0.106445
O O3 0.000000 0.114032 0.016539
O O4 0.734786 0.078619 0.935572
O O5 0.730708 0.738363 0.177115
O O6 0.000000 0.734829 0.081607
O O7 0.734039 0.677475 0.011862
O O8 0.766777 0.074226 0.394839
O O9 0.770161 0.000000 0.256731
O O10 0.500000 0.000000 0.356340
O O11 0.235301 0.711822 0.844809
O O12 0.000000 0.647592 0.924069
O O13 0.000000 0.500000 0.667861
O O14 0.765875 0.349799 0.298804
O O15 0.000000 0.256512 0.270767
O O16 0.500000 0.577047 0.333962
O O17 0.761551 0.500000 0.299635
#
# Coordination Sequence:
#
# PCOD9373530 Si02
#       7
#     8   8   4   8   4   8   8
#     4  10  18  34  56  77 102 144 188 218 260 333
#     4   9  19  35  57  81 107 142 189 229 269 328
#     4   9  20  35  57  84 109 142 192 235 271 322
#     4  10  19  39  62  80 109 154 194 228 270 334
#     4  11  21  31  47  84 119 136 166 231 293 326
#     4  11  22  36  56  88 117 142 182 237 288 327
#     4  10  20  37  59  80 107 148 190 222 266 335
#
# _framework density 20.583639999999999
#
# number of rings (size 3 to 8) (size 9 to 14) (size 15 to 20)
#    0.000    2.000    2.500    1.750    0.000    1.000 
#    1.500    3.750    0.000    0.000    0.000    0.000 
#    0.000    0.000    0.000    0.000    0.000    0.000 
#
# Total GULP energy -133844.942283 kJ/mol
# GULP energy per Si atom -5576.872595 kJ/mol
# Density = 2.053679 g / cm^3
# Si number density = 20.583640 Si / 1000 Ang^3
#
#
#
# Elastic Constant Matrix: (Units=GPa)
#
#
# Indices 1 2 3 4 5 6 
#
# 1 14.6530 -3.9093 -2.1282 0.0000 0.0000 0.0000
# 2 -3.9093 135.3938 37.8692 0.0000 0.0000 0.0000
# 3 -2.1282 37.8692 86.6986 0.0000 0.0000 0.0000
# 4 0.0000 0.0000 0.0000 -36.6697 0.0000 0.0000
# 5 0.0000 0.0000 0.0000 0.0000 19.0226 0.0000
# 6 0.0000 0.0000 0.0000 0.0000 0.0000 -8.4784
#
#
#
# Elastic Compliance Matrix: (Units=1/GPa)
#
#
# Indices 1 2 3 4 5 6 
#
# 1 0.068842 0.001726 0.000936 0.000000 0.000000 0.000000
# 2 0.001726 0.008457 -0.003652 0.000000 0.000000 0.000000
# 3 0.000936 -0.003652 0.013152 0.000000 0.000000 0.000000
# 4 0.000000 0.000000 0.000000 -0.027270 0.000000 0.000000
# 5 0.000000 0.000000 0.000000 0.000000 0.052569 0.000000
# 6 0.000000 0.000000 0.000000 0.000000 0.000000 -0.117947
#
#
# Mechanical properties :
#
#
# Convention : Reuss Voigt Hill
#
# Bulk Modulus (GPa) = 11.30305 33.37876 22.34090
# Shear Modulus (GPa) = 170.80575 8.43580 89.62078
#
# Velocity S-wave (km/s) = 9.11929 2.02662 6.60563
# Velocity P-wave (km/s) = 10.78820 4.66129 8.31002
#
# Compressibility (1/GPa) = 0.08847166
#
# Stress axis : x y z
#
# Youngs Moduli (GPa) = 14.52605 118.24478 76.03308
#
# Poissons Ratio (x) = -0.20408 -0.07117
# Poissons Ratio (y) = -0.02507 0.27764
# Poissons Ratio (z) = -0.01360 0.43178
#
# Static dielectric constant tensor:
#      x y z
#    x 1.751990 0.000000 0.000000 
#    y 0.000000 1.783250 0.000000 
#    z 0.000000 0.000000 1.739100 
# 
# From -- ./inp_files/16118.got.cif
#   From: 2010.05.17/outbox.cif.g08.bks.cpg/sg44_9_cif.got.tgz:16118.got - 2010.06.03 19:37:08.
