data_PCOD9373493
_publ_section_title
;
Structure prediction by ZEFSAII (Michael W. Deem and Ramdas Pophale) SiO2 
 PCOD9373493
Probable space group: I M M 2
;
_chemical_formula_sum "Si O2"
_cell_formula_units_Z 52
_cell_length_a 9.579434
_cell_length_b 22.515540
_cell_length_c 12.493613
_cell_angle_alpha 90.000000
_cell_angle_beta 90.000000
_cell_angle_gamma 90.000000
_cell_volume 2694.699030
_symmetry_space_group_name_H-M "I M M 2"
_symmetry_group_IT_number 44
_symmetry_cell_setting 'orthorhombic'
loop_
_space_group_symop_operation_xyz
x,y,z
-x,-y,z
-x,y,z
x,-y,z
1/2+x,1/2+y,1/2+z
1/2-x,1/2-y,1/2+z
1/2-x,1/2+y,1/2+z
1/2+x,1/2-y,1/2+z
loop_
_atom_site_type_symbol
_atom_site_label
_atom_site_fract_x
_atom_site_fract_y
_atom_site_fract_z
Si Si1 0.655189 0.000000 0.066761
Si Si2 0.280013 0.500000 0.353992
Si Si3 0.839460 0.316508 0.212980
Si Si4 0.342753 0.680316 0.784064
Si Si5 0.664469 0.366749 0.026085
Si Si6 0.844091 0.131702 0.896996
Si Si7 0.667814 0.500000 0.108201
Si Si8 0.167532 0.629852 0.599673
O O1 0.716924 0.938665 0.104833
O O2 0.500000 0.000000 0.110576
O O3 0.651093 0.000000 0.937225
O O4 0.354116 0.560394 0.389908
O O5 0.261971 0.500000 0.226195
O O6 0.841389 0.251006 0.264847
O O7 0.744659 0.353873 0.292795
O O8 0.000000 0.336878 0.206428
O O9 0.763069 0.325738 0.099616
O O10 0.500000 0.660334 0.749847
O O11 0.322652 0.655661 0.903881
O O12 0.220047 0.658500 0.707656
O O13 0.500000 0.359448 0.056112
O O14 0.698346 0.437227 0.047398
O O15 0.000000 0.157041 0.897644
O O16 0.753130 0.153602 0.997734
O O17 0.500000 0.500000 0.127839
O O18 0.000000 0.633468 0.583287
#
# Coordination Sequence:
#
# PCOD9373493 Si02
#       8
#     4   4   8   8   8   8   4   8
#     4   8  18  35  55  85 123 159 196 241 298 363
#     4  10  18  32  56  89 122 152 199 251 299 365
#     4  11  24  40  58  87 123 157 201 253 301 362
#     4  10  24  43  61  86 121 160 207 253 298 365
#     4  10  22  42  65  90 120 161 206 255 314 370
#     4  11  21  36  60  89 121 158 197 244 303 360
#     4  10  18  35  61  90 120 151 202 258 308 372
#     4  10  21  38  61  88 120 158 197 243 299 354
#
# _framework density 19.297145
#
# number of rings (size 3 to 8) (size 9 to 14) (size 15 to 20)
#    0.000    1.846    1.538    2.077    2.154    3.077 
#    0.000    2.308    0.000    0.000    0.000    0.000 
#    0.000    0.000    0.000    0.000    0.000    0.000 
#
# Total GULP energy -144772.110640 kJ/mol
# GULP energy per Si atom -5568.158102 kJ/mol
# Density = 1.925322 g / cm^3
# Si number density = 19.297145 Si / 1000 Ang^3
#
#
#
# Elastic Constant Matrix: (Units=GPa)
#
#
# Indices 1 2 3 4 5 6 
#
# 1 121.6143 28.6032 54.0559 0.0000 0.0000 0.0000
# 2 28.6032 60.3577 22.9157 -0.0001 -0.0001 0.0000
# 3 54.0559 22.9157 86.3804 -0.0001 0.0000 -0.0001
# 4 0.0000 -0.0001 -0.0001 24.3083 -0.0001 0.0000
# 5 0.0000 -0.0001 0.0000 -0.0001 -4.8801 -0.0001
# 6 0.0000 0.0000 -0.0001 0.0000 -0.0001 -3.7943
#
#
#
# Elastic Compliance Matrix: (Units=1/GPa)
#
#
# Indices 1 2 3 4 5 6 
#
# 1 0.011899 -0.003127 -0.006617 0.000000 0.000000 0.000000
# 2 -0.003127 0.019245 -0.003149 0.000000 0.000000 0.000000
# 3 -0.006617 -0.003149 0.016553 0.000000 0.000000 0.000000
# 4 0.000000 0.000000 0.000000 0.041138 -0.000001 0.000000
# 5 0.000000 0.000000 0.000000 -0.000001 -0.204912 0.000005
# 6 0.000000 0.000000 0.000000 0.000000 0.000005 -0.263556
#
#
# Mechanical properties :
#
#
# Convention : Reuss Voigt Hill
#
# Bulk Modulus (GPa) = 45.63664 53.27800 49.45732
# Shear Modulus (GPa) = -14.42821 13.97862 -0.22479
#
# Velocity S-wave (km/s) = -2.73735 2.69437 -0.34168
# Velocity P-wave (km/s) = 3.70270 6.11136 5.05266
#
# Compressibility (1/GPa) = 0.02191222
#
# Stress axis : x y z
#
# Youngs Moduli (GPa) = 84.03884 51.96119 60.41256
#
# Poissons Ratio (x) = 0.16247 0.39975
# Poissons Ratio (y) = 0.26277 0.19023
# Poissons Ratio (z) = 0.55608 0.16362
#
# Static dielectric constant tensor:
#      x y z
#    x 1.684070 0.000000 0.000000 
#    y 0.000000 1.578480 0.000000 
#    z 0.000000 0.000000 1.674330 
# 
# From -- ./inp_files/11272.got.cif
#   From: 2010.05.17/outbox.cif.g08.bks.cpg/sg44_6_cif.got.tgz:11272.got - 2010.06.03 19:37:08.
