data_PCOD9373675
_publ_section_title
;
Structure prediction by ZEFSAII (Michael W. Deem and Ramdas Pophale) SiO2 
 PCOD9373675
Probable space group: I M M 2
;
_chemical_formula_sum "Si O2"
_cell_formula_units_Z 64
_cell_length_a 7.552548
_cell_length_b 28.526074
_cell_length_c 15.380198
_cell_angle_alpha 90.000000
_cell_angle_beta 90.000000
_cell_angle_gamma 90.000000
_cell_volume 3313.579731
_symmetry_space_group_name_H-M "I M M 2"
_symmetry_group_IT_number 44
_symmetry_cell_setting 'orthorhombic'
loop_
_space_group_symop_operation_xyz
x,y,z
-x,-y,z
-x,y,z
x,-y,z
1/2+x,1/2+y,1/2+z
1/2-x,1/2-y,1/2+z
1/2-x,1/2+y,1/2+z
1/2+x,1/2-y,1/2+z
loop_
_atom_site_type_symbol
_atom_site_label
_atom_site_fract_x
_atom_site_fract_y
_atom_site_fract_z
Si Si1 0.290157 0.720773 0.820480
Si Si2 0.216059 0.053813 0.314747
Si Si3 0.212618 0.053008 0.118864
Si Si4 0.282718 0.363871 0.940102
Si Si5 0.710697 0.326363 0.119008
Si Si6 0.213888 0.280604 0.623833
Si Si7 0.213350 0.327421 0.314280
Si Si8 0.211292 0.638850 0.495458
O O1 0.500000 0.724214 0.836356
O O2 0.223281 0.682633 0.888240
O O3 0.262076 0.704338 0.721547
O O4 0.219498 0.773800 0.826145
O O5 0.273102 0.066692 0.216376
O O6 0.276592 0.090702 0.386636
O O7 0.000000 0.054571 0.314946
O O8 0.269144 0.000000 0.331024
O O9 0.257596 0.090947 0.046615
O O10 0.000000 0.051098 0.122832
O O11 0.276068 0.000000 0.100737
O O12 0.500000 0.364819 0.938196
O O13 0.224652 0.358244 0.039781
O O14 0.500000 0.322815 0.107953
O O15 0.779755 0.272751 0.111705
O O16 0.741219 0.343304 0.217085
O O17 0.280060 0.317654 0.553243
O O18 0.000000 0.279416 0.618771
O O19 0.276602 0.357483 0.396418
O O20 0.000000 0.325729 0.316136
O O21 0.000000 0.644965 0.491312
#
# Coordination Sequence:
#
# PCOD9373675 Si02
#       8
#     8   8   8   8   8   8   8   8
#     4   9  16  27  44  64  87 117 151 182 214 260
#     4   8  14  25  42  66  93 114 134 169 217 262
#     4   9  18  32  49  70  94 115 139 178 223 264
#     4   9  15  24  42  64  84 112 148 178 209 256
#     4   9  17  29  44  62  86 117 151 186 221 255
#     4   9  17  28  41  62  92 118 143 181 223 259
#     4   9  18  31  44  61  87 118 151 185 218 254
#     4  10  19  30  46  66  89 119 151 182 221 270
#
# _framework density 19.314458999999999
#
# number of rings (size 3 to 8) (size 9 to 14) (size 15 to 20)
#    0.000    3.000    0.000    2.250    0.000    5.250 
#    0.000    0.625    0.000    7.500    0.000    1.750 
#    0.000    0.000    0.000    0.000    0.000    0.000 
#
# Total GULP energy -178464.635786 kJ/mol
# GULP energy per Si atom -5577.019868 kJ/mol
# Density = 1.927050 g / cm^3
# Si number density = 19.314459 Si / 1000 Ang^3
#
#
#
# Elastic Constant Matrix: (Units=GPa)
#
#
# Indices 1 2 3 4 5 6 
#
# 1 39.5431 -0.3721 -3.2226 0.0000 0.0000 0.0000
# 2 -0.3721 85.7967 103.9568 0.0000 0.0000 0.0000
# 3 -3.2226 103.9568 197.0259 -0.0001 0.0000 0.0000
# 4 0.0000 0.0000 -0.0001 21.8497 0.0000 0.0000
# 5 0.0000 0.0000 0.0000 0.0000 14.5240 0.0000
# 6 0.0000 0.0000 0.0000 0.0000 0.0000 10.6497
#
#
#
# Elastic Compliance Matrix: (Units=1/GPa)
#
#
# Indices 1 2 3 4 5 6 
#
# 1 0.025359 -0.001088 0.000989 0.000000 0.000000 0.000000
# 2 -0.001088 0.032361 -0.017093 0.000000 0.000000 0.000000
# 3 0.000989 -0.017093 0.014110 0.000000 0.000000 0.000000
# 4 0.000000 0.000000 0.000000 0.045767 0.000000 0.000000
# 5 0.000000 0.000000 0.000000 0.000000 0.068851 0.000000
# 6 0.000000 0.000000 0.000000 0.000000 0.000000 0.093900
#
#
# Mechanical properties :
#
#
# Convention : Reuss Voigt Hill
#
# Bulk Modulus (GPa) = 26.70460 58.12112 42.41286
# Shear Modulus (GPa) = 15.28048 24.20492 19.74270
#
# Velocity S-wave (km/s) = 2.81578 3.54390 3.20061
# Velocity P-wave (km/s) = 4.94244 6.84858 5.97205
#
# Compressibility (1/GPa) = 0.03744673
#
# Stress axis : x y z
#
# Youngs Moduli (GPa) = 39.43343 30.90124 70.87077
#
# Poissons Ratio (x) = 0.03363 -0.07010
# Poissons Ratio (y) = 0.04292 1.21136
# Poissons Ratio (z) = -0.03900 0.52818
#
# Static dielectric constant tensor:
#      x y z
#    x 1.759190 0.000000 0.000000 
#    y 0.000000 1.662760 0.000000 
#    z 0.000000 0.000000 1.684680 
# 
# From -- ./inp_files/14937.got.cif
#   From: 2010.05.17/outbox.cif.g08.bks.cpg/sg44_8_cif.got.tgz:14937.got - 2010.06.03 19:37:08.
