data_PCOD9373763
_publ_section_title
;
Structure prediction by ZEFSAII (Michael W. Deem and Ramdas Pophale) SiO2 
 PCOD9373763
Probable space group: I M M 2
;
_chemical_formula_sum "Si O2"
_cell_formula_units_Z 48
_cell_length_a 9.842562
_cell_length_b 31.933679
_cell_length_c 7.304639
_cell_angle_alpha 90.000000
_cell_angle_beta 90.000000
_cell_angle_gamma 90.000000
_cell_volume 2295.915353
_symmetry_space_group_name_H-M "I M M 2"
_symmetry_group_IT_number 44
_symmetry_cell_setting 'orthorhombic'
loop_
_space_group_symop_operation_xyz
x,y,z
-x,-y,z
-x,y,z
x,-y,z
1/2+x,1/2+y,1/2+z
1/2-x,1/2-y,1/2+z
1/2-x,1/2+y,1/2+z
1/2+x,1/2-y,1/2+z
loop_
_atom_site_type_symbol
_atom_site_label
_atom_site_fract_x
_atom_site_fract_y
_atom_site_fract_z
Si Si1 0.656546 0.877201 0.668910
Si Si2 0.151539 0.379492 0.720383
Si Si3 0.343224 0.302065 0.137983
Si Si4 0.845639 0.047744 0.665121
Si Si5 0.655098 0.790789 0.298734
Si Si6 0.656605 0.453686 0.719435
O O1 0.500000 0.874688 0.726665
O O2 0.657328 0.878034 0.444424
O O3 0.747144 0.837391 0.725625
O O4 0.733537 0.919326 0.727128
O O5 0.170252 0.330875 0.665304
O O6 0.258548 0.413719 0.657225
O O7 0.000000 0.392899 0.669848
O O8 0.500000 0.316112 0.131390
O O9 0.338393 0.255965 0.223867
O O10 0.277166 0.295656 0.939639
O O11 0.842460 0.047295 0.442250
O O12 0.000000 0.059792 0.716303
O O13 0.821472 0.000000 0.725056
O O14 0.500000 0.795474 0.377410
O O15 0.500000 0.450600 0.662074
O O16 0.708686 0.500000 0.666828
#
# Coordination Sequence:
#
# PCOD9373763 Si02
#       6
#     8   8   8   8   8   8
#     4   9  16  25  37  55  81 110 141 178 216 257
#     4   8  14  24  36  51  75 105 134 168 208 247
#     4  10  19  31  48  66  87 118 150 182 224 268
#     4   8  13  21  33  50  74 105 140 174 209 255
#     4   9  19  33  46  65  91 115 146 187 223 262
#     4   8  13  20  30  47  72 100 131 166 200 240
#
# _framework density 20.906694999999999
#
# number of rings (size 3 to 8) (size 9 to 14) (size 15 to 20)
#    0.000    3.333    0.000    3.000    0.000    6.000 
#    0.000    3.333    0.000    0.000    0.000    0.000 
#    0.000    1.333    0.000    8.667    0.000   18.167 
#
# Total GULP energy -133765.818532 kJ/mol
# GULP energy per Si atom -5573.575772 kJ/mol
# Density = 2.085911 g / cm^3
# Si number density = 20.906695 Si / 1000 Ang^3
#
#
#
# Elastic Constant Matrix: (Units=GPa)
#
#
# Indices 1 2 3 4 5 6 
#
# 1 172.7774 120.1472 12.7628 0.0027 -0.0006 -0.0078
# 2 120.1472 167.5395 -2.7941 0.0027 0.0004 -0.0022
# 3 12.7628 -2.7941 52.1174 0.0313 0.0049 -0.0387
# 4 0.0027 0.0027 0.0313 -0.0010 0.0009 -0.0101
# 5 -0.0006 0.0004 0.0049 0.0009 -6.3796 0.0001
# 6 -0.0078 -0.0022 -0.0387 -0.0101 0.0001 67.2414
#
#
#
# Elastic Compliance Matrix: (Units=1/GPa)
#
#
# Indices 1 2 3 4 5 6 
#
# 1 0.012122 -0.008748 -0.003380 -0.096154 -0.000018 -0.000015
# 2 -0.008748 0.012286 0.002744 0.095005 0.000018 0.000015
# 3 -0.003380 0.002744 0.019797 0.609587 0.000104 0.000103
# 4 -0.096154 0.095005 0.609587********** -0.140252 -0.145171
# 5 -0.000018 0.000018 0.000104 -0.140252 -0.156771 -0.000021
# 6 -0.000015 0.000015 0.000103 -0.145171 -0.000021 0.014850
#
#
# Mechanical properties :
#
#
# Convention : Reuss Voigt Hill
#
# Bulk Modulus (GPa) = 39.31232 72.51846 55.91539
# Shear Modulus (GPa) = -0.00516 29.66005 14.82745
#
# Velocity S-wave (km/s) = -0.04975 3.77063 2.66601
# Velocity P-wave (km/s) = 4.34065 7.32932 6.02329
#
# Compressibility (1/GPa) = 0.02543732
#
# Stress axis : x y z
#
# Youngs Moduli (GPa) = 82.49388 81.39145 50.51397
#
# Poissons Ratio (x) = 0.71200 0.17073
# Poissons Ratio (y) = 0.72165 -0.13861
# Poissons Ratio (z) = 0.27882 -0.22333
#
# Static dielectric constant tensor:
#      x y z
#    x 1.714750 0.000000 0.000000 
#    y 0.000000 1.768780 0.000000 
#    z 0.000000 0.000000 1.867120 
# 
# From -- ./inp_files/11219.got.cif
#   From: 2010.05.17/outbox.cif.g08.bks.cpg/sg44_6_cif.got.tgz:11219.got - 2010.06.03 19:37:08.
