data_PCOD9373510
_publ_section_title
;
Structure prediction by ZEFSAII (Michael W. Deem and Ramdas Pophale) SiO2 
 PCOD9373510
Probable space group: I M M 2
;
_chemical_formula_sum "Si O2"
_cell_formula_units_Z 56
_cell_length_a 7.507944
_cell_length_b 17.192849
_cell_length_c 19.418311
_cell_angle_alpha 90.000000
_cell_angle_beta 90.000000
_cell_angle_gamma 90.000000
_cell_volume 2506.572819
_symmetry_space_group_name_H-M "I M M 2"
_symmetry_group_IT_number 44
_symmetry_cell_setting 'orthorhombic'
loop_
_space_group_symop_operation_xyz
x,y,z
-x,-y,z
-x,y,z
x,-y,z
1/2+x,1/2+y,1/2+z
1/2-x,1/2-y,1/2+z
1/2-x,1/2+y,1/2+z
1/2+x,1/2-y,1/2+z
loop_
_atom_site_type_symbol
_atom_site_label
_atom_site_fract_x
_atom_site_fract_y
_atom_site_fract_z
Si Si1 0.793446 0.685181 0.341080
Si Si2 0.282316 0.088383 0.559658
Si Si3 0.794016 0.337860 0.922143
Si Si4 0.282203 0.500000 0.689998
Si Si5 0.214582 0.000000 0.349283
Si Si6 0.218296 0.310883 0.185554
Si Si7 0.212563 0.846146 0.112767
Si Si8 0.785741 0.588059 0.467544
O O1 0.789438 0.770525 0.375802
O O2 0.717684 0.684899 0.264093
O O3 0.716023 0.625729 0.397087
O O4 0.000000 0.662946 0.332846
O O5 0.500000 0.088393 0.556326
O O6 0.221149 0.146009 0.498820
O O7 0.231157 0.119263 0.634662
O O8 0.223784 0.000000 0.546979
O O9 0.780537 0.421528 0.885291
O O10 0.000000 0.315315 0.929036
O O11 0.500000 0.500000 0.687953
O O12 0.230983 0.500000 0.769571
O O13 0.219087 0.576936 0.651075
O O14 0.000000 0.000000 0.352813
O O15 0.279578 0.231848 0.148385
O O16 0.000000 0.309109 0.186961
O O17 0.000000 0.845167 0.122007
O O18 0.245090 0.856885 0.032056
O O19 0.720076 0.500000 0.479675
O O20 0.000000 0.584491 0.463202
#
# Coordination Sequence:
#
# PCOD9373510 Si02
#       8
#     8   8   8   4   4   8   8   8
#     4  10  21  37  56  80 110 146 188 231 277 329
#     4   9  17  31  52  79 108 137 177 228 275 317
#     4  11  21  36  56  82 115 146 182 228 277 329
#     4   9  18  31  51  77 106 141 180 222 263 317
#     4  11  21  35  57  83 114 149 182 222 273 329
#     4   9  18  32  53  78 104 138 182 231 272 313
#     4  10  18  33  55  78 103 136 183 227 266 319
#     4  10  21  36  54  80 114 146 179 225 282 338
#
# _framework density 22.341263000000001
#
# number of rings (size 3 to 8) (size 9 to 14) (size 15 to 20)
#    0.000    2.143    1.429    2.357    0.000    4.571 
#    0.000    6.429    0.000    1.714    0.000    0.000 
#    0.000    0.000    0.000    0.000    0.000    0.000 
#
# Total GULP energy -156475.940930 kJ/mol
# GULP energy per Si atom -5588.426462 kJ/mol
# Density = 2.229041 g / cm^3
# Si number density = 22.341263 Si / 1000 Ang^3
#
#
#
# Elastic Constant Matrix: (Units=GPa)
#
#
# Indices 1 2 3 4 5 6 
#
# 1 60.7145 -6.4902 -2.9190 0.0000 0.0000 0.0000
# 2 -6.4902 37.1536 30.8443 0.0000 0.0000 0.0000
# 3 -2.9190 30.8443 188.0010 0.0000 0.0000 0.0000
# 4 0.0000 0.0000 0.0000 25.4240 0.0000 0.0000
# 5 0.0000 0.0000 0.0000 0.0000 16.3649 0.0000
# 6 0.0000 0.0000 0.0000 0.0000 0.0000 6.3499
#
#
#
# Elastic Compliance Matrix: (Units=1/GPa)
#
#
# Indices 1 2 3 4 5 6 
#
# 1 0.016795 0.003146 -0.000255 0.000000 0.000000 0.000000
# 2 0.003146 0.031749 -0.005160 0.000000 0.000000 0.000000
# 3 -0.000255 -0.005160 0.006162 0.000000 0.000000 0.000000
# 4 0.000000 0.000000 0.000000 0.039333 0.000000 0.000000
# 5 0.000000 0.000000 0.000000 0.000000 0.061106 0.000000
# 6 0.000000 0.000000 0.000000 0.000000 0.000000 0.157482
#
#
# Mechanical properties :
#
#
# Convention : Reuss Voigt Hill
#
# Bulk Modulus (GPa) = 19.93396 36.52657 28.23027
# Shear Modulus (GPa) = 14.97512 27.25669 21.11591
#
# Velocity S-wave (km/s) = 2.59180 3.49666 3.07767
# Velocity P-wave (km/s) = 4.23066 5.71726 5.02919
#
# Compressibility (1/GPa) = 0.05016565
#
# Stress axis : x y z
#
# Youngs Moduli (GPa) = 59.54319 31.49750 162.29218
#
# Poissons Ratio (x) = -0.09908 0.04144
# Poissons Ratio (y) = -0.18731 0.83742
# Poissons Ratio (z) = 0.01520 0.16253
#
# Static dielectric constant tensor:
#      x y z
#    x 1.869780 0.000000 0.000000 
#    y 0.000000 1.787020 0.000000 
#    z 0.000000 0.000000 1.805920 
# 
# From -- ./inp_files/23138.got.cif
#   From: 2010.05.17/outbox.cif.g08.bks.cpg/sg44_12_cif.got.tgz:23138.got - 2010.06.03 19:37:08.
