data_PCOD9373886
_publ_section_title
;
Structure prediction by ZEFSAII (Michael W. Deem and Ramdas Pophale) SiO2 
 PCOD9373886
Probable space group: I M M 2
;
_chemical_formula_sum "Si O2"
_cell_formula_units_Z 64
_cell_length_a 8.834647
_cell_length_b 23.839414
_cell_length_c 19.510737
_cell_angle_alpha 90.000000
_cell_angle_beta 90.000000
_cell_angle_gamma 90.000000
_cell_volume 4109.211094
_symmetry_space_group_name_H-M "I M M 2"
_symmetry_group_IT_number 44
_symmetry_cell_setting 'orthorhombic'
loop_
_space_group_symop_operation_xyz
x,y,z
-x,-y,z
-x,y,z
x,-y,z
1/2+x,1/2+y,1/2+z
1/2-x,1/2-y,1/2+z
1/2-x,1/2+y,1/2+z
1/2+x,1/2-y,1/2+z
loop_
_atom_site_type_symbol
_atom_site_label
_atom_site_fract_x
_atom_site_fract_y
_atom_site_fract_z
Si Si1 0.181989 0.065152 0.090720
Si Si2 0.181303 0.124118 0.235171
Si Si3 0.182209 0.564298 0.867612
Si Si4 0.680662 0.231280 0.591294
Si Si5 0.680005 0.227629 0.874534
Si Si6 0.819434 0.663839 0.510717
Si Si7 0.320002 0.249030 0.233641
Si Si8 0.181171 0.668668 0.955628
O O1 0.219525 0.091748 0.164876
O O2 0.000000 0.068709 0.083020
O O3 0.225792 0.000000 0.088050
O O4 0.260597 0.103584 0.033892
O O5 0.241256 0.089140 0.299696
O O6 0.254657 0.185627 0.235210
O O7 0.000000 0.129978 0.238976
O O8 0.227204 0.500000 0.879325
O O9 0.218650 0.606607 0.929748
O O10 0.000000 0.565883 0.858311
O O11 0.500000 0.234662 0.599894
O O12 0.739522 0.289650 0.558685
O O13 0.758259 0.223266 0.664238
O O14 0.716670 0.184375 0.534028
O O15 0.500000 0.229501 0.864323
O O16 0.715267 0.181251 0.932458
O O17 0.761523 0.220926 0.802212
O O18 0.734910 0.286314 0.907736
O O19 0.000000 0.668182 0.520208
O O20 0.500000 0.246589 0.233051
O O21 0.000000 0.677152 0.946844
#
# Coordination Sequence:
#
# PCOD9373886 Si02
#       8
#     8   8   8   8   8   8   8   8
#     4  10  21  35  50  69  98 137 175 206 241 288
#     4  11  21  33  48  69  98 135 173 204 236 281
#     4  10  20  33  49  71 100 134 170 205 239 281
#     4  10  19  32  50  70  96 130 164 200 247 296
#     4  10  20  33  50  72  98 128 161 201 248 298
#     4  10  20  33  50  73  98 127 164 205 248 293
#     4  12  22  32  49  74 100 129 164 203 251 297
#     4   9  18  32  49  70  97 130 164 201 242 288
#
# _framework density 15.574766
#
# number of rings (size 3 to 8) (size 9 to 14) (size 15 to 20)
#    0.000    1.750    2.500    3.000    0.000    3.500 
#    0.000    0.000    0.000    0.000    0.000    0.875 
#    0.000    5.000    0.000    0.000    0.000    0.000 
#
# Total GULP energy -178635.542757 kJ/mol
# GULP energy per Si atom -5582.360711 kJ/mol
# Density = 1.553932 g / cm^3
# Si number density = 15.574766 Si / 1000 Ang^3
#
#
#
# Elastic Constant Matrix: (Units=GPa)
#
#
# Indices 1 2 3 4 5 6 
#
# 1 51.5513 36.6969 56.5131 0.0000 0.0000 0.0000
# 2 36.6969 85.7009 61.5872 0.0000 0.0000 0.0000
# 3 56.5131 61.5872 136.8811 0.0000 0.0000 0.0000
# 4 0.0000 0.0000 0.0000 18.9103 0.0000 0.0000
# 5 0.0000 0.0000 0.0000 0.0000 27.9686 0.0000
# 6 0.0000 0.0000 0.0000 0.0000 0.0000 15.4485
#
#
#
# Elastic Compliance Matrix: (Units=1/GPa)
#
#
# Indices 1 2 3 4 5 6 
#
# 1 0.038419 -0.007466 -0.012502 0.000000 0.000000 0.000000
# 2 -0.007466 0.018695 -0.005329 0.000000 0.000000 0.000000
# 3 -0.012502 -0.005329 0.014865 0.000000 0.000000 0.000000
# 4 0.000000 0.000000 0.000000 0.052881 0.000000 0.000000
# 5 0.000000 0.000000 0.000000 0.000000 0.035754 0.000000
# 6 0.000000 0.000000 0.000000 0.000000 0.000000 0.064731
#
#
# Mechanical properties :
#
#
# Convention : Reuss Voigt Hill
#
# Bulk Modulus (GPa) = 46.76459 64.85863 55.81161
# Shear Modulus (GPa) = 17.66353 20.42121 19.04237
#
# Velocity S-wave (km/s) = 3.37131 3.62494 3.50042
# Velocity P-wave (km/s) = 6.72647 7.69767 7.22840
#
# Compressibility (1/GPa) = 0.02138370
#
# Stress axis : x y z
#
# Youngs Moduli (GPa) = 26.02891 53.49000 67.27181
#
# Poissons Ratio (x) = 0.39937 0.84106
# Poissons Ratio (y) = 0.19434 0.35849
# Poissons Ratio (z) = 0.32542 0.28505
#
# Static dielectric constant tensor:
#      x y z
#    x 1.520830 0.000000 0.000000 
#    y 0.000000 1.499140 0.000000 
#    z 0.000000 0.000000 1.523250 
# 
# From -- ./inp_files/20874.got.cif
#   From: 2010.05.17/outbox.cif.g08.bks.cpg/sg44_11_cif.got.tgz:20874.got - 2010.06.03 19:37:08.
