data_PCOD9373598
_publ_section_title
;
Structure prediction by ZEFSAII (Michael W. Deem and Ramdas Pophale) SiO2 
 PCOD9373598
Probable space group: I M M 2
;
_chemical_formula_sum "Si O2"
_cell_formula_units_Z 58
_cell_length_a 7.544695
_cell_length_b 16.147650
_cell_length_c 24.089578
_cell_angle_alpha 90.000000
_cell_angle_beta 90.000000
_cell_angle_gamma 90.000000
_cell_volume 2934.811468
_symmetry_space_group_name_H-M "I M M 2"
_symmetry_group_IT_number 44
_symmetry_cell_setting 'orthorhombic'
loop_
_space_group_symop_operation_xyz
x,y,z
-x,-y,z
-x,y,z
x,-y,z
1/2+x,1/2+y,1/2+z
1/2-x,1/2-y,1/2+z
1/2-x,1/2+y,1/2+z
1/2+x,1/2-y,1/2+z
loop_
_atom_site_type_symbol
_atom_site_label
_atom_site_fract_x
_atom_site_fract_y
_atom_site_fract_z
Si Si1 0.699364 0.272137 0.224040
Si Si2 0.714135 0.907535 0.936672
Si Si3 0.283843 0.768414 0.022613
Si Si4 0.712144 0.908816 0.639326
Si Si5 0.209794 0.906222 0.807929
Si Si6 0.802572 0.856813 0.135742
Si Si7 0.500000 0.000000 0.130365
Si Si8 0.706023 0.589192 0.010037
O O1 0.500000 0.247523 0.240425
O O2 0.696228 0.339952 0.175252
O O3 0.783140 0.327954 0.273325
O O4 0.785461 0.193344 0.193984
O O5 0.500000 0.907428 0.937768
O O6 0.769137 0.891260 0.873487
O O7 0.774407 0.000000 0.951782
O O8 0.773388 0.840618 0.981041
O O9 0.500000 0.765484 0.024587
O O10 0.222004 0.792069 0.084408
O O11 0.219849 0.680234 0.998202
O O12 0.500000 0.894760 0.638036
O O13 0.782029 0.910536 0.576904
O O14 0.743831 0.000000 0.663724
O O15 0.000000 0.908927 0.794890
O O16 0.281264 0.000000 0.797143
O O17 0.654330 0.926771 0.130394
O O18 0.000000 0.891121 0.131670
O O19 0.500000 0.588746 0.993030
O O20 0.783946 0.500000 0.991842
#
# Coordination Sequence:
#
# PCOD9373598 Si02
#       8
#     8   8   8   8   8   8   2   8
#     4  11  20  35  55  79 113 151 191 242 292 357
#     4   9  19  33  53  78 111 152 197 250 308 359
#     4  10  19  34  55  81 118 158 201 251 303 360
#     4  10  19  28  42  71 109 145 182 226 274 336
#     4   9  19  35  55  82 116 155 198 242 296 359
#     4  12  25  40  62  89 116 157 201 245 302 364
#     4  12  26  48  60  82 126 152 198 252 304 360
#     4   9  17  29  46  70 103 146 191 230 280 346
#
# _framework density 19.762768999999999
#
# number of rings (size 3 to 8) (size 9 to 14) (size 15 to 20)
#    0.000    1.931    2.759    1.448    0.966    3.034 
#    0.000    1.379    0.000    0.000    1.793    0.000 
#    0.000    0.000    0.000    0.000    0.000    0.000 
#
# Total GULP energy -161438.817732 kJ/mol
# GULP energy per Si atom -5566.855784 kJ/mol
# Density = 1.971779 g / cm^3
# Si number density = 19.762769 Si / 1000 Ang^3
#
#
#
# Elastic Constant Matrix: (Units=GPa)
#
#
# Indices 1 2 3 4 5 6 
#
# 1 97.5844 31.5418 -1.7476 0.0000 0.0000 0.0000
# 2 31.5418 147.2840 45.1364 0.0000 0.0000 0.0000
# 3 -1.7476 45.1364 65.6363 0.0000 0.0000 0.0000
# 4 0.0000 0.0000 0.0000 21.8716 0.0000 0.0000
# 5 0.0000 0.0000 0.0000 0.0000 16.1896 0.0000
# 6 0.0000 0.0000 0.0000 0.0000 0.0000 -37.0216
#
#
#
# Elastic Compliance Matrix: (Units=1/GPa)
#
#
# Indices 1 2 3 4 5 6 
#
# 1 0.011323 -0.003189 0.002495 0.000000 0.000000 0.000000
# 2 -0.003189 0.009501 -0.006618 0.000000 0.000000 0.000000
# 3 0.002495 -0.006618 0.019853 0.000000 0.000000 0.000000
# 4 0.000000 0.000000 0.000000 0.045721 0.000000 0.000000
# 5 0.000000 0.000000 0.000000 0.000000 0.061768 0.000000
# 6 0.000000 0.000000 0.000000 0.000000 0.000000 -0.027011
#
#
# Mechanical properties :
#
#
# Convention : Reuss Voigt Hill
#
# Bulk Modulus (GPa) = 38.38620 51.15176 44.76898
# Shear Modulus (GPa) = 34.61039 15.91287 25.26163
#
# Velocity S-wave (km/s) = 4.18938 2.84067 3.57913
# Velocity P-wave (km/s) = 6.54728 6.05791 6.30735
#
# Compressibility (1/GPa) = 0.02605103
#
# Stress axis : x y z
#
# Youngs Moduli (GPa) = 88.31472 105.25286 50.36964
#
# Poissons Ratio (x) = 0.33570 -0.12566
# Poissons Ratio (y) = 0.28168 0.33337
# Poissons Ratio (z) = -0.22033 0.69661
#
# Static dielectric constant tensor:
#      x y z
#    x 1.743350 0.000000 0.000000 
#    y 0.000000 1.748640 0.000000 
#    z 0.000000 0.000000 1.669200 
# 
# From -- ./inp_files/24982.got.cif
#   From: 2010.05.17/outbox.cif.g08.bks.cpg/sg44_13_cif.got.tgz:24982.got - 2010.06.03 19:37:08.
