data_PCOD9373897
_publ_section_title
;
Structure prediction by ZEFSAII (Michael W. Deem and Ramdas Pophale) SiO2 
 PCOD9373897
Probable space group: I M M 2
;
_chemical_formula_sum "Si O2"
_cell_formula_units_Z 56
_cell_length_a 12.474008
_cell_length_b 25.266815
_cell_length_c 10.530129
_cell_angle_alpha 90.000000
_cell_angle_beta 90.000000
_cell_angle_gamma 90.000000
_cell_volume 3318.869762
_symmetry_space_group_name_H-M "I M M 2"
_symmetry_group_IT_number 44
_symmetry_cell_setting 'orthorhombic'
loop_
_space_group_symop_operation_xyz
x,y,z
-x,-y,z
-x,y,z
x,-y,z
1/2+x,1/2+y,1/2+z
1/2-x,1/2-y,1/2+z
1/2-x,1/2+y,1/2+z
1/2+x,1/2-y,1/2+z
loop_
_atom_site_type_symbol
_atom_site_label
_atom_site_fract_x
_atom_site_fract_y
_atom_site_fract_z
Si Si1 0.230653 0.334467 0.722750
Si Si2 0.872474 0.439139 0.831123
Si Si3 0.875903 0.940580 0.814762
Si Si4 0.698832 0.440247 0.041013
Si Si5 0.625741 0.274793 0.222301
Si Si6 0.622561 0.669911 0.965774
Si Si7 0.372855 0.663784 0.471867
O O1 0.178659 0.392266 0.746546
O O2 0.144523 0.287533 0.715318
O O3 0.304629 0.320771 0.843918
O O4 0.303362 0.331556 0.597690
O O5 0.853701 0.500000 0.785535
O O6 0.811469 0.435339 0.966963
O O7 0.000000 0.431660 0.842578
O O8 0.800407 0.933622 0.692726
O O9 0.861543 0.895557 0.917693
O O10 0.000000 0.935925 0.768329
O O11 0.862389 0.000000 0.865012
O O12 0.658289 0.500000 0.017178
O O13 0.626416 0.393176 0.988603
O O14 0.500000 0.287980 0.222746
O O15 0.665737 0.298867 0.355592
O O16 0.667719 0.302803 0.094076
O O17 0.500000 0.687287 0.945448
O O18 0.500000 0.673677 0.496364
#
# Coordination Sequence:
#
# PCOD9373897 Si02
#       7
#     8   8   8   8   8   8   8
#     4  11  21  33  52  76 101 133 170 209 253 297
#     4   9  19  35  53  73  99 133 173 214 254 295
#     4   9  16  28  49  76 105 135 163 195 247 312
#     4   9  16  28  51  78  99 127 168 206 244 296
#     4  10  20  35  53  71  96 134 175 210 248 297
#     4  10  19  32  50  75 104 131 164 206 251 299
#     4  10  20  34  51  76 108 136 164 204 253 304
#
# _framework density 16.873214999999998
#
# number of rings (size 3 to 8) (size 9 to 14) (size 15 to 20)
#    0.000    2.286    1.429    2.143    0.000    1.429 
#    0.000    0.000    0.000    5.143    0.000    2.000 
#    0.000    0.000    0.000    0.000    0.000    0.000 
#
# Total GULP energy -155928.866900 kJ/mol
# GULP energy per Si atom -5568.888104 kJ/mol
# Density = 1.683481 g / cm^3
# Si number density = 16.873215 Si / 1000 Ang^3
#
#
#
# Elastic Constant Matrix: (Units=GPa)
#
#
# Indices 1 2 3 4 5 6 
#
# 1 41.9970 18.3899 32.7892 0.0000 0.0000 0.0000
# 2 18.3899 82.0103 40.6766 -0.0001 0.0000 0.0000
# 3 32.7892 40.6766 109.6247 -0.0001 -0.0002 0.0000
# 4 0.0000 -0.0001 -0.0001 16.8509 -0.0001 0.0000
# 5 0.0000 0.0000 -0.0002 -0.0001 13.2349 0.0000
# 6 0.0000 0.0000 0.0000 0.0000 0.0000 21.8925
#
#
#
# Elastic Compliance Matrix: (Units=1/GPa)
#
#
# Indices 1 2 3 4 5 6 
#
# 1 0.031635 -0.002942 -0.008370 0.000000 0.000000 0.000000
# 2 -0.002942 0.015217 -0.004767 0.000000 0.000000 0.000000
# 3 -0.008370 -0.004767 0.013394 0.000000 0.000000 0.000000
# 4 0.000000 0.000000 0.000000 0.059344 0.000000 0.000000
# 5 0.000000 0.000000 0.000000 0.000000 0.075558 0.000000
# 6 0.000000 0.000000 0.000000 0.000000 0.000000 0.045678
#
#
# Mechanical properties :
#
#
# Convention : Reuss Voigt Hill
#
# Bulk Modulus (GPa) = 35.60178 46.37150 40.98664
# Shear Modulus (GPa) = 17.70871 19.84741 18.77806
#
# Velocity S-wave (km/s) = 3.24314 3.43340 3.33962
# Velocity P-wave (km/s) = 5.93037 6.57720 6.26214
#
# Compressibility (1/GPa) = 0.02808848
#
# Stress axis : x y z
#
# Youngs Moduli (GPa) = 31.61087 65.71387 74.65878
#
# Poissons Ratio (x) = 0.19334 0.62492
# Poissons Ratio (y) = 0.09300 0.35586
# Poissons Ratio (z) = 0.26460 0.31323
#
# Static dielectric constant tensor:
#      x y z
#    x 1.556910 0.000000 0.000000 
#    y 0.000000 1.588260 0.000000 
#    z 0.000000 0.000000 1.564340 
# 
# From -- ./inp_files/12587.got.cif
#   From: 2010.05.17/outbox.cif.g08.bks.cpg/sg44_7_cif.got.tgz:12587.got - 2010.06.03 19:37:08.
