data_PCOD9373708
_publ_section_title
;
Structure prediction by ZEFSAII (Michael W. Deem and Ramdas Pophale) SiO2 
 PCOD9373708
Probable space group: I M M 2
;
_chemical_formula_sum "Si O2"
_cell_formula_units_Z 40
_cell_length_a 8.364770
_cell_length_b 13.143076
_cell_length_c 21.602061
_cell_angle_alpha 90.000000
_cell_angle_beta 90.000000
_cell_angle_gamma 90.000000
_cell_volume 2374.904833
_symmetry_space_group_name_H-M "I M M 2"
_symmetry_group_IT_number 44
_symmetry_cell_setting 'orthorhombic'
loop_
_space_group_symop_operation_xyz
x,y,z
-x,-y,z
-x,y,z
x,-y,z
1/2+x,1/2+y,1/2+z
1/2-x,1/2-y,1/2+z
1/2-x,1/2+y,1/2+z
1/2+x,1/2-y,1/2+z
loop_
_atom_site_type_symbol
_atom_site_label
_atom_site_fract_x
_atom_site_fract_y
_atom_site_fract_z
Si Si1 0.808553 0.612988 0.780420
Si Si2 0.690864 0.173845 0.743676
Si Si3 0.306379 0.328873 0.917463
Si Si4 0.804464 0.000000 0.512394
Si Si5 0.809175 0.000000 0.653561
Si Si6 0.194754 0.388413 0.382710
O O1 0.756018 0.500000 0.760124
O O2 0.744346 0.708837 0.741848
O O3 0.751806 0.629255 0.851273
O O4 0.000000 0.616382 0.779308
O O5 0.500000 0.169953 0.742827
O O6 0.754688 0.099724 0.690969
O O7 0.742906 0.131453 0.811280
O O8 0.500000 0.330911 0.915822
O O9 0.254356 0.211011 0.920751
O O10 0.253558 0.401293 0.973033
O O11 0.748697 0.000000 0.582967
O O12 0.000000 0.000000 0.513137
O O13 0.000000 0.000000 0.651785
O O14 0.250456 0.500000 0.402725
O O15 0.000000 0.389499 0.383565
#
# Coordination Sequence:
#
# PCOD9373708 Si02
#       6
#     8   8   8   4   4   8
#     4  10  19  30  47  74 105 129 155 203 260 304
#     4  10  19  32  49  70  97 129 170 208 247 307
#     4   9  16  28  47  68  94 131 169 200 237 292
#     4   9  18  31  47  69  97 133 174 207 242 291
#     4  11  21  33  49  69 101 137 170 217 260 291
#     4   8  13  23  43  69  93 114 146 201 246 279
#
# _framework density 16.842780999999999
#
# number of rings (size 3 to 8) (size 9 to 14) (size 15 to 20)
#    0.000    2.600    2.000    2.700    0.000    1.200 
#    0.000    2.000    0.000    1.200    0.000    5.600 
#    0.000    0.000    0.000    0.000    0.000    0.000 
#
# Total GULP energy -111436.824347 kJ/mol
# GULP energy per Si atom -5571.841217 kJ/mol
# Density = 1.680445 g / cm^3
# Si number density = 16.842781 Si / 1000 Ang^3
#
#
#
# Elastic Constant Matrix: (Units=GPa)
#
#
# Indices 1 2 3 4 5 6 
#
# 1 21.4792 22.9817 15.6153 0.0000 0.0000 0.0000
# 2 22.9817 200.2432 80.0072 0.0000 0.0000 0.0000
# 3 15.6153 80.0072 97.8195 0.0000 0.0000 0.0000
# 4 0.0000 0.0000 0.0000 11.0255 0.0000 0.0000
# 5 0.0000 0.0000 0.0000 0.0000 15.4946 0.0000
# 6 0.0000 0.0000 0.0000 0.0000 0.0000 19.4479
#
#
#
# Elastic Compliance Matrix: (Units=1/GPa)
#
#
# Indices 1 2 3 4 5 6 
#
# 1 0.054905 -0.004158 -0.005364 0.000000 0.000000 0.000000
# 2 -0.004158 0.007733 -0.005661 0.000000 0.000000 0.000000
# 3 -0.005364 -0.005661 0.015709 0.000000 0.000000 0.000000
# 4 0.000000 0.000000 0.000000 0.090699 0.000000 0.000000
# 5 0.000000 0.000000 0.000000 0.000000 0.064539 0.000000
# 6 0.000000 0.000000 0.000000 0.000000 0.000000 0.051419
#
#
# Mechanical properties :
#
#
# Convention : Reuss Voigt Hill
#
# Bulk Modulus (GPa) = 20.84134 61.86115 41.35124
# Shear Modulus (GPa) = 15.08910 22.58944 18.83927
#
# Velocity S-wave (km/s) = 2.99637 3.66620 3.34808
# Velocity P-wave (km/s) = 4.93679 7.39795 6.28894
#
# Compressibility (1/GPa) = 0.04798157
#
# Stress axis : x y z
#
# Youngs Moduli (GPa) = 18.21318 129.31457 63.65621
#
# Poissons Ratio (x) = 0.53774 0.34143
# Poissons Ratio (y) = 0.07574 0.36037
# Poissons Ratio (z) = 0.09769 0.73206
#
# Static dielectric constant tensor:
#      x y z
#    x 1.575930 0.000000 0.000000 
#    y 0.000000 1.630000 0.000000 
#    z 0.000000 0.000000 1.534490 
# 
# From -- ./inp_files/22788.got.cif
#   From: 2010.05.17/outbox.cif.g08.bks.cpg/sg44_12_cif.got.tgz:22788.got - 2010.06.03 19:37:08.
