data_PCOD9373327
_publ_section_title
;
Structure prediction by ZEFSAII (Michael W. Deem and Ramdas Pophale) SiO2 
 PCOD9373327
Probable space group: I M M 2
;
_chemical_formula_sum "Si O2"
_cell_formula_units_Z 64
_cell_length_a 30.975037
_cell_length_b 8.754395
_cell_length_c 14.949801
_cell_angle_alpha 90.000000
_cell_angle_beta 90.000000
_cell_angle_gamma 90.000000
_cell_volume 4053.903288
_symmetry_space_group_name_H-M "I M M 2"
_symmetry_group_IT_number 44
_symmetry_cell_setting 'orthorhombic'
loop_
_space_group_symop_operation_xyz
x,y,z
-x,-y,z
-x,y,z
x,-y,z
1/2+x,1/2+y,1/2+z
1/2-x,1/2-y,1/2+z
1/2-x,1/2+y,1/2+z
1/2+x,1/2-y,1/2+z
loop_
_atom_site_type_symbol
_atom_site_label
_atom_site_fract_x
_atom_site_fract_y
_atom_site_fract_z
Si Si1 0.790117 0.317370 0.884280
Si Si2 0.633458 0.680067 0.497777
Si Si3 0.548813 0.316395 0.767745
Si Si4 0.295387 0.313820 0.995730
Si Si5 0.776518 0.177283 0.690666
Si Si6 0.326183 0.824334 0.671677
Si Si7 0.864007 0.815837 0.351108
Si Si8 0.549557 0.817269 0.570358
O O1 0.791216 0.500000 0.890646
O O2 0.748104 0.264964 0.942450
O O3 0.784992 0.266998 0.781704
O O4 0.834009 0.251306 0.925696
O O5 0.630877 0.500000 0.485838
O O6 0.654970 0.721890 0.593028
O O7 0.585527 0.749817 0.504658
O O8 0.500000 0.272934 0.793231
O O9 0.549976 0.500000 0.755213
O O10 0.585521 0.277113 0.839719
O O11 0.558590 0.241554 0.671476
O O12 0.293456 0.500000 0.999089
O O13 0.337446 0.269779 0.938759
O O14 0.296866 0.261546 0.098412
O O15 0.725413 0.178400 0.670968
O O16 0.789531 0.000000 0.704333
O O17 0.341444 0.761656 0.766455
O O18 0.340384 0.000000 0.657958
O O19 0.859934 0.000000 0.343332
O O20 0.500000 0.771739 0.549604
O O21 0.552001 0.000000 0.569878
#
# Coordination Sequence:
#
# PCOD9373327 Si02
#       8
#     8   8   8   8   8   8   8   8
#     4  11  21  35  52  73  99 129 167 212 253 298
#     4  12  23  34  50  73 101 137 174 205 246 302
#     4   9  17  28  44  70 102 132 166 208 250 298
#     4   9  18  32  49  69  96 129 169 209 252 299
#     4  10  20  35  49  68  98 132 168 211 253 294
#     4  11  20  30  47  71 101 133 168 210 249 291
#     4  10  18  30  48  70  96 136 174 203 249 302
#     4  10  20  33  50  73 101 132 165 204 253 302
#
# _framework density 15.787254000000001
#
# number of rings (size 3 to 8) (size 9 to 14) (size 15 to 20)
#    0.000    1.750    3.750    2.250    0.000    1.250 
#    0.000    0.625    0.000    0.000    0.000    0.875 
#    0.000    3.000    0.000    0.000    0.000    0.000 
#
# Total GULP energy -178499.678330 kJ/mol
# GULP energy per Si atom -5578.114948 kJ/mol
# Density = 1.575132 g / cm^3
# Si number density = 15.787254 Si / 1000 Ang^3
#
#
#
# Elastic Constant Matrix: (Units=GPa)
#
#
# Indices 1 2 3 4 5 6 
#
# 1 101.8050 29.4840 37.6812 0.0000 0.0000 0.0000
# 2 29.4840 40.1582 19.1874 0.0000 0.0000 0.0000
# 3 37.6812 19.1874 78.4168 0.0000 0.0000 0.0000
# 4 0.0000 0.0000 0.0000 18.2749 0.0000 0.0000
# 5 0.0000 0.0000 0.0000 0.0000 21.0884 0.0000
# 6 0.0000 0.0000 0.0000 0.0000 0.0000 18.7085
#
#
#
# Elastic Compliance Matrix: (Units=1/GPa)
#
#
# Indices 1 2 3 4 5 6 
#
# 1 0.013866 -0.007923 -0.004724 0.000000 0.000000 0.000000
# 2 -0.007923 0.032725 -0.004200 0.000000 0.000000 0.000000
# 3 -0.004724 -0.004200 0.016050 0.000000 0.000000 0.000000
# 4 0.000000 0.000000 0.000000 0.054720 0.000000 0.000000
# 5 0.000000 0.000000 0.000000 0.000000 0.047419 0.000000
# 6 0.000000 0.000000 0.000000 0.000000 0.000000 0.053452
#
#
# Mechanical properties :
#
#
# Convention : Reuss Voigt Hill
#
# Bulk Modulus (GPa) = 34.54648 43.67614 39.11131
# Shear Modulus (GPa) = 19.11488 20.54953 19.83220
#
# Velocity S-wave (km/s) = 3.48340 3.61176 3.54816
# Velocity P-wave (km/s) = 6.17323 6.71703 6.45087
#
# Compressibility (1/GPa) = 0.02894651
#
# Stress axis : x y z
#
# Youngs Moduli (GPa) = 72.11927 30.55729 62.30456
#
# Poissons Ratio (x) = 0.24211 0.29434
# Poissons Ratio (y) = 0.57141 0.26169
# Poissons Ratio (z) = 0.34071 0.12835
#
# Static dielectric constant tensor:
#      x y z
#    x 1.554470 0.000000 0.000000 
#    y 0.000000 1.534270 0.000000 
#    z 0.000000 0.000000 1.509070 
# 
# From -- ./inp_files/17100.got.cif
#   From: 2010.05.17/outbox.cif.g08.bks.cpg/sg44_9_cif.got.tgz:17100.got - 2010.06.03 19:37:08.
