data_PCOD9373316
_publ_section_title
;
Structure prediction by ZEFSAII (Michael W. Deem and Ramdas Pophale) SiO2 
 PCOD9373316
Probable space group: I M M 2
;
_chemical_formula_sum "Si O2"
_cell_formula_units_Z 52
_cell_length_a 26.730004
_cell_length_b 15.206725
_cell_length_c 7.715457
_cell_angle_alpha 90.000000
_cell_angle_beta 90.000000
_cell_angle_gamma 90.000000
_cell_volume 3136.146711
_symmetry_space_group_name_H-M "I M M 2"
_symmetry_group_IT_number 44
_symmetry_cell_setting 'orthorhombic'
loop_
_space_group_symop_operation_xyz
x,y,z
-x,-y,z
-x,y,z
x,-y,z
1/2+x,1/2+y,1/2+z
1/2-x,1/2-y,1/2+z
1/2-x,1/2+y,1/2+z
1/2+x,1/2-y,1/2+z
loop_
_atom_site_type_symbol
_atom_site_label
_atom_site_fract_x
_atom_site_fract_y
_atom_site_fract_z
Si Si1 0.757969 0.000000 0.601400
Si Si2 0.703451 0.000000 0.949713
Si Si3 0.632013 0.657720 0.800247
Si Si4 0.055242 0.105545 0.592142
Si Si5 0.692127 0.193183 0.963099
Si Si6 0.896081 0.893776 0.949237
Si Si7 0.211245 0.000000 0.234971
Si Si8 0.297385 0.673591 0.269971
O O1 0.749959 0.000000 0.396384
O O2 0.788045 0.912000 0.649962
O O3 0.713930 0.000000 0.742683
O O4 0.677324 0.091950 0.990406
O O5 0.756596 0.000000 0.057703
O O6 0.658358 0.751122 0.830258
O O7 0.594828 0.646535 0.637655
O O8 0.675151 0.584457 0.761847
O O9 0.600108 0.638754 0.972399
O O10 0.065857 0.125283 0.793807
O O11 0.000000 0.137348 0.541339
O O12 0.055927 0.000000 0.575418
O O13 0.748101 0.190291 0.883826
O O14 0.693043 0.245231 0.143303
O O15 0.843921 0.851405 0.888158
O O16 0.891536 0.000000 0.962985
#
# Coordination Sequence:
#
# PCOD9373316 Si02
#       8
#     4   4   8   8   8   8   4   8
#     4  10  18  30  46  65  98 134 181 225 260 303
#     4  10  24  36  44  71 109 149 189 230 268 304
#     4  12  21  34  56  80 107 143 187 222 267 327
#     4  10  21  37  55  80 114 145 176 222 273 328
#     4  11  22  33  49  74 108 146 188 230 262 317
#     4  11  20  33  54  79 109 143 179 218 265 322
#     4  12  18  32  53  74 104 145 186 219 260 321
#     4  11  19  32  48  73 105 141 184 222 265 317
#
# _framework density 16.580857000000002
#
# number of rings (size 3 to 8) (size 9 to 14) (size 15 to 20)
#    0.000    1.077    5.385    3.692    0.000    0.615 
#    0.000    1.538    0.000    0.000    0.000    0.538 
#    0.000    0.000    0.000    0.000    0.000    0.000 
#
# Total GULP energy -145045.949816 kJ/mol
# GULP energy per Si atom -5578.690378 kJ/mol
# Density = 1.654312 g / cm^3
# Si number density = 16.580857 Si / 1000 Ang^3
#
#
#
# Elastic Constant Matrix: (Units=GPa)
#
#
# Indices 1 2 3 4 5 6 
#
# 1 52.0036 16.1891 6.7952 0.0000 0.0000 0.0000
# 2 16.1891 112.2505 17.5319 0.0000 0.0000 0.0000
# 3 6.7952 17.5319 67.1768 0.0000 0.0000 0.0000
# 4 0.0000 0.0000 0.0000 25.5612 0.0000 0.0000
# 5 0.0000 0.0000 0.0000 0.0000 10.2368 0.0000
# 6 0.0000 0.0000 0.0000 0.0000 0.0000 11.2454
#
#
#
# Elastic Compliance Matrix: (Units=1/GPa)
#
#
# Indices 1 2 3 4 5 6 
#
# 1 0.020249 -0.002711 -0.001341 0.000000 0.000000 0.000000
# 2 -0.002711 0.009650 -0.002244 0.000000 0.000000 0.000000
# 3 -0.001341 -0.002244 0.015607 0.000000 0.000000 0.000000
# 4 0.000000 0.000000 0.000000 0.039122 0.000000 0.000000
# 5 0.000000 0.000000 0.000000 0.000000 0.097687 0.000000
# 6 0.000000 0.000000 0.000000 0.000000 0.000000 0.088925
#
#
# Mechanical properties :
#
#
# Convention : Reuss Voigt Hill
#
# Bulk Modulus (GPa) = 30.38194 34.71815 32.55004
# Shear Modulus (GPa) = 16.96049 22.13635 19.54842
#
# Velocity S-wave (km/s) = 3.20174 3.65780 3.43735
# Velocity P-wave (km/s) = 5.65964 6.23085 5.95210
#
# Compressibility (1/GPa) = 0.03291429
#
# Stress axis : x y z
#
# Youngs Moduli (GPa) = 49.38625 103.62539 64.07208
#
# Poissons Ratio (x) = 0.28092 0.08590
# Poissons Ratio (y) = 0.13388 0.14380
# Poissons Ratio (z) = 0.06621 0.23257
#
# Static dielectric constant tensor:
#      x y z
#    x 1.553060 0.000000 0.000000 
#    y 0.000000 1.562800 0.000000 
#    z 0.000000 0.000000 1.620740 
# 
# From -- ./inp_files/9786.got.cif
#   From: 2010.05.17/outbox.cif.g08.bks.cpg/sg44_5_cif.got.tgz:9786.got - 2010.06.03 19:37:08.
