data_PCOD9373159
_publ_section_title
;
Structure prediction by ZEFSAII (Michael W. Deem and Ramdas Pophale) SiO2 
 PCOD9373159
Probable space group: I M M 2
;
_chemical_formula_sum "Si O2"
_cell_formula_units_Z 56
_cell_length_a 33.271505
_cell_length_b 7.832014
_cell_length_c 13.883064
_cell_angle_alpha 90.000000
_cell_angle_beta 90.000000
_cell_angle_gamma 90.000000
_cell_volume 3617.688980
_symmetry_space_group_name_H-M "I M M 2"
_symmetry_group_IT_number 44
_symmetry_cell_setting 'orthorhombic'
loop_
_space_group_symop_operation_xyz
x,y,z
-x,-y,z
-x,y,z
x,-y,z
1/2+x,1/2+y,1/2+z
1/2-x,1/2-y,1/2+z
1/2-x,1/2+y,1/2+z
1/2+x,1/2-y,1/2+z
loop_
_atom_site_type_symbol
_atom_site_label
_atom_site_fract_x
_atom_site_fract_y
_atom_site_fract_z
Si Si1 0.769979 0.708561 0.687020
Si Si2 0.691774 0.793621 0.385452
Si Si3 0.397424 0.810204 0.701686
Si Si4 0.686551 0.301855 0.776334
Si Si5 0.545948 0.500000 0.704579
Si Si6 0.605747 0.200188 0.471165
Si Si7 0.954083 0.000000 0.970379
Si Si8 0.724696 0.200306 0.973202
O O1 0.768996 0.500000 0.685258
O O2 0.798611 0.758506 0.775498
O O3 0.724784 0.764309 0.715202
O O4 0.782351 0.766417 0.581076
O O5 0.647872 0.747427 0.422943
O O6 0.728019 0.721399 0.449531
O O7 0.694869 0.000000 0.390381
O O8 0.354720 0.791358 0.753795
O O9 0.428700 0.666228 0.733453
O O10 0.389778 0.787788 0.587060
O O11 0.413842 0.000000 0.716255
O O12 0.680352 0.500000 0.750838
O O13 0.700562 0.288554 0.887054
O O14 0.500000 0.500000 0.738736
O O15 0.544678 0.500000 0.587493
O O16 0.570676 0.330648 0.442133
O O17 0.597644 0.000000 0.448630
O O18 0.000000 0.000000 0.935981
O O19 0.714669 0.000000 0.969537
#
# Coordination Sequence:
#
# PCOD9373159 Si02
#       8
#     8   8   8   8   4   8   4   8
#     4   8  16  28  42  58  84 119 153 188 229 263
#     4   9  17  30  43  59  84 118 152 188 226 266
#     4  10  18  29  46  69  90 119 155 186 219 269
#     4  10  18  30  44  60  87 123 153 187 228 267
#     4   9  18  32  46  66  93 123 149 185 232 270
#     4   9  18  29  46  67  91 120 153 186 221 268
#     4   9  18  30  46  66  93 121 151 187 228 272
#     4  10  18  27  41  62  84 115 154 194 226 261
#
# _framework density 15.479495999999999
#
# number of rings (size 3 to 8) (size 9 to 14) (size 15 to 20)
#    0.000    2.714    0.714    2.571    1.000    0.571 
#    0.000    9.286    0.000    0.000    0.000    0.000 
#    0.000    2.286    0.000    7.286    0.000    0.286 
#
# Total GULP energy -156064.714920 kJ/mol
# GULP energy per Si atom -5573.739819 kJ/mol
# Density = 1.544426 g / cm^3
# Si number density = 15.479496 Si / 1000 Ang^3
#
#
#
# Elastic Constant Matrix: (Units=GPa)
#
#
# Indices 1 2 3 4 5 6 
#
# 1 108.0859 46.6661 19.8413 0.0000 0.0000 0.0000
# 2 46.6661 63.3958 14.1118 0.0000 0.0000 0.0000
# 3 19.8413 14.1118 48.1646 0.0000 0.0000 0.0000
# 4 0.0000 0.0000 0.0000 12.8322 0.0000 0.0000
# 5 0.0000 0.0000 0.0000 0.0000 15.6195 0.0000
# 6 0.0000 0.0000 0.0000 0.0000 0.0000 18.7102
#
#
#
# Elastic Compliance Matrix: (Units=1/GPa)
#
#
# Indices 1 2 3 4 5 6 
#
# 1 0.013937 -0.009608 -0.002926 0.000000 0.000000 0.000000
# 2 -0.009608 0.023498 -0.002927 0.000000 0.000000 0.000000
# 3 -0.002926 -0.002927 0.022825 0.000000 0.000000 0.000000
# 4 0.000000 0.000000 0.000000 0.077929 0.000000 0.000000
# 5 0.000000 0.000000 0.000000 0.000000 0.064023 0.000000
# 6 0.000000 0.000000 0.000000 0.000000 0.000000 0.053447
#
#
# Mechanical properties :
#
#
# Convention : Reuss Voigt Hill
#
# Bulk Modulus (GPa) = 34.08519 42.32053 38.20286
# Shear Modulus (GPa) = 16.87134 18.70083 17.78609
#
# Velocity S-wave (km/s) = 3.30497 3.47955 3.39338
# Velocity P-wave (km/s) = 6.05237 6.59864 6.33140
#
# Compressibility (1/GPa) = 0.02933825
#
# Stress axis : x y z
#
# Youngs Moduli (GPa) = 71.74966 42.55699 43.81125
#
# Poissons Ratio (x) = 0.40889 0.12821
# Poissons Ratio (y) = 0.68937 0.12822
# Poissons Ratio (z) = 0.20997 0.12455
#
# Static dielectric constant tensor:
#      x y z
#    x 1.487960 0.000000 0.000000 
#    y 0.000000 1.549920 0.000000 
#    z 0.000000 0.000000 1.510960 
# 
# From -- ./inp_files/19673.got.cif
#   From: 2010.05.17/outbox.cif.g08.bks.cpg/sg44_10_cif.got.tgz:19673.got - 2010.06.03 19:37:08.
