data_PCOD9373834
_publ_section_title
;
Structure prediction by ZEFSAII (Michael W. Deem and Ramdas Pophale) SiO2 
 PCOD9373834
Probable space group: I M M 2
;
_chemical_formula_sum "Si O2"
_cell_formula_units_Z 56
_cell_length_a 8.176110
_cell_length_b 20.865794
_cell_length_c 14.486128
_cell_angle_alpha 90.000000
_cell_angle_beta 90.000000
_cell_angle_gamma 90.000000
_cell_volume 2471.348314
_symmetry_space_group_name_H-M "I M M 2"
_symmetry_group_IT_number 44
_symmetry_cell_setting 'orthorhombic'
loop_
_space_group_symop_operation_xyz
x,y,z
-x,-y,z
-x,y,z
x,-y,z
1/2+x,1/2+y,1/2+z
1/2-x,1/2-y,1/2+z
1/2-x,1/2+y,1/2+z
1/2+x,1/2-y,1/2+z
loop_
_atom_site_type_symbol
_atom_site_label
_atom_site_fract_x
_atom_site_fract_y
_atom_site_fract_z
Si Si1 0.697839 0.571556 0.548900
Si Si2 0.188594 0.100471 0.255178
Si Si3 0.193888 0.648609 0.383882
Si Si4 0.185221 0.672763 0.088685
Si Si5 0.810212 0.740290 0.748148
Si Si6 0.693399 0.070026 0.452768
Si Si7 0.686054 0.425795 0.221819
O O1 0.500000 0.574773 0.546181
O O2 0.747535 0.500000 0.516284
O O3 0.749452 0.578116 0.655439
O O4 0.764162 0.630580 0.488516
O O5 0.203085 0.177173 0.256062
O O6 0.282596 0.074938 0.343786
O O7 0.000000 0.080636 0.264434
O O8 0.267113 0.710473 0.331328
O O9 0.273507 0.590122 0.326863
O O10 0.000000 0.650949 0.372265
O O11 0.277004 0.726360 0.148572
O O12 0.188217 0.613993 0.161319
O O13 0.000000 0.694802 0.069275
O O14 0.259883 0.635366 0.000492
O O15 0.000000 0.723082 0.755502
O O16 0.500000 0.070569 0.473930
O O17 0.760167 0.000000 0.483483
O O18 0.500000 0.403628 0.201675
O O19 0.696856 0.500000 0.203730
#
# Coordination Sequence:
#
# PCOD9373834 Si02
#       7
#     8   8   8   8   8   8   8
#     4  10  22  41  63  88 120 158 198 242 297 355
#     4  11  24  42  64  88 117 157 204 252 297 348
#     4  11  22  36  58  87 118 153 195 244 294 350
#     4  10  20  36  59  86 118 155 195 241 292 350
#     4  11  23  41  63  88 121 159 198 244 299 356
#     4  10  22  40  62  90 124 161 199 242 296 353
#     4  10  19  31  50  79 116 155 193 237 291 350
#
# _framework density 22.659696
#
# number of rings (size 3 to 8) (size 9 to 14) (size 15 to 20)
#    0.000    1.571    0.000    6.857    0.000    8.000 
#    0.000    1.429    0.000    0.000    0.000    0.000 
#    0.000    0.000    0.000    0.000    0.000    0.000 
#
# Total GULP energy -156387.185891 kJ/mol
# GULP energy per Si atom -5585.256639 kJ/mol
# Density = 2.260812 g / cm^3
# Si number density = 22.659696 Si / 1000 Ang^3
#
#
#
# Elastic Constant Matrix: (Units=GPa)
#
#
# Indices 1 2 3 4 5 6 
#
# 1 54.2892 -3.5805 -1.8207 0.0000 0.0000 0.0000
# 2 -3.5805 75.6020 17.0947 0.0000 0.0000 0.0000
# 3 -1.8207 17.0947 92.4043 0.0000 0.0000 0.0000
# 4 0.0000 0.0000 0.0000 23.7199 0.0000 0.0000
# 5 0.0000 0.0000 0.0000 0.0000 30.6957 0.0000
# 6 0.0000 0.0000 0.0000 0.0000 0.0000 -4.7314
#
#
#
# Elastic Compliance Matrix: (Units=1/GPa)
#
#
# Indices 1 2 3 4 5 6 
#
# 1 0.018482 0.000828 0.000211 0.000000 0.000000 0.000000
# 2 0.000828 0.013842 -0.002544 0.000000 0.000000 0.000000
# 3 0.000211 -0.002544 0.011297 0.000000 0.000000 0.000000
# 4 0.000000 0.000000 0.000000 0.042159 0.000000 0.000000
# 5 0.000000 0.000000 0.000000 0.000000 0.032578 0.000000
# 6 0.000000 0.000000 0.000000 0.000000 0.000000 -0.211354
#
#
# Mechanical properties :
#
#
# Convention : Reuss Voigt Hill
#
# Bulk Modulus (GPa) = 24.62538 27.29808 25.96173
# Shear Modulus (GPa) = -65.40294 23.97696 -20.71299
#
# Velocity S-wave (km/s) = -5.37827 3.25642 -3.02667
# Velocity P-wave (km/s) = 5.26086 5.11978 0.85570
#
# Compressibility (1/GPa) = 0.04060852
#
# Stress axis : x y z
#
# Youngs Moduli (GPa) = 54.10804 72.24557 88.52007
#
# Poissons Ratio (x) = -0.05979 -0.01868
# Poissons Ratio (y) = -0.04478 0.22523
# Poissons Ratio (z) = -0.01142 0.18382
#
# Static dielectric constant tensor:
#      x y z
#    x 1.802610 0.000000 0.000000 
#    y 0.000000 1.871300 0.000000 
#    z 0.000000 0.000000 1.892560 
# 
# From -- ./inp_files/16437.got.cif
#   From: 2010.05.17/outbox.cif.g08.bks.cpg/sg44_9_cif.got.tgz:16437.got - 2010.06.03 19:37:08.
