data_PCOD9373800
_publ_section_title
;
Structure prediction by ZEFSAII (Michael W. Deem and Ramdas Pophale) SiO2 
 PCOD9373800
Probable space group: I M M 2
;
_chemical_formula_sum "Si O2"
_cell_formula_units_Z 56
_cell_length_a 22.775688
_cell_length_b 8.071175
_cell_length_c 15.004434
_cell_angle_alpha 90.000000
_cell_angle_beta 90.000000
_cell_angle_gamma 90.000000
_cell_volume 2758.213541
_symmetry_space_group_name_H-M "I M M 2"
_symmetry_group_IT_number 44
_symmetry_cell_setting 'orthorhombic'
loop_
_space_group_symop_operation_xyz
x,y,z
-x,-y,z
-x,y,z
x,-y,z
1/2+x,1/2+y,1/2+z
1/2-x,1/2-y,1/2+z
1/2-x,1/2+y,1/2+z
1/2+x,1/2-y,1/2+z
loop_
_atom_site_type_symbol
_atom_site_label
_atom_site_fract_x
_atom_site_fract_y
_atom_site_fract_z
Si Si1 0.280299 0.303976 0.058400
Si Si2 0.000000 0.702533 0.365903
Si Si3 0.220502 0.303770 0.364555
Si Si4 0.385249 0.195935 0.177616
Si Si5 0.000000 0.703068 0.571297
Si Si6 0.388261 0.203263 0.751413
Si Si7 0.145153 0.699720 0.061462
Si Si8 0.645905 0.302488 0.365573
O O1 0.277934 0.500000 0.043993
O O2 0.325212 0.269126 0.137559
O O3 0.213353 0.246594 0.074513
O O4 0.300899 0.222762 0.965813
O O5 0.000000 0.756238 0.468483
O O6 0.057548 0.756310 0.312032
O O7 0.000000 0.500000 0.366869
O O8 0.225044 0.500000 0.348394
O O9 0.172632 0.238515 0.295784
O O10 0.286690 0.235757 0.358541
O O11 0.441466 0.258621 0.122721
O O12 0.389516 0.232936 0.282251
O O13 0.381949 0.000000 0.164330
O O14 0.000000 0.500000 0.572440
O O15 0.390448 0.254636 0.648384
O O16 0.387752 0.000000 0.752776
O O17 0.144605 0.500000 0.059987
O O18 0.124884 0.759534 0.964797
O O19 0.647364 0.500000 0.357240
#
# Coordination Sequence:
#
# PCOD9373800 Si02
#       8
#     8   4   8   8   4   8   8   8
#     4  10  19  31  49  76 108 138 170 211 257 309
#     4   9  16  28  49  77 102 124 161 211 252 289
#     4   9  17  31  51  75 105 139 171 206 254 309
#     4  11  21  35  55  76 101 136 175 217 266 316
#     4   9  20  36  54  77 102 130 171 217 258 313
#     4   9  16  28  49  74 100 131 166 207 251 293
#     4   9  18  33  51  74 106 140 172 208 254 309
#     4  10  20  34  52  76 104 134 171 215 261 311
#
# _framework density 20.302996
#
# number of rings (size 3 to 8) (size 9 to 14) (size 15 to 20)
#    0.000    2.429    0.000    3.000    0.000    5.714 
#    0.000    2.857    0.000    2.571    0.000    1.000 
#    0.000    0.000    0.000    0.000    0.000    0.000 
#
# Total GULP energy -156289.804625 kJ/mol
# GULP energy per Si atom -5581.778737 kJ/mol
# Density = 2.025679 g / cm^3
# Si number density = 20.302996 Si / 1000 Ang^3
#
#
#
# Elastic Constant Matrix: (Units=GPa)
#
#
# Indices 1 2 3 4 5 6 
#
# 1 48.2961 7.1791 61.7025 0.0000 0.0000 0.0000
# 2 7.1791 10.6421 -3.0380 0.0000 0.0000 0.0000
# 3 61.7025 -3.0380 158.7027 0.0000 0.0000 0.0000
# 4 0.0000 0.0000 0.0000 24.8222 0.0000 0.0000
# 5 0.0000 0.0000 0.0000 0.0000 35.1641 0.0000
# 6 0.0000 0.0000 0.0000 0.0000 0.0000 9.1187
#
#
#
# Elastic Compliance Matrix: (Units=1/GPa)
#
#
# Indices 1 2 3 4 5 6 
#
# 1 0.056488 -0.044620 -0.022816 0.000000 0.000000 0.000000
# 2 -0.044620 0.129728 0.019831 0.000000 0.000000 0.000000
# 3 -0.022816 0.019831 0.015552 0.000000 0.000000 0.000000
# 4 0.000000 0.000000 0.000000 0.040286 0.000000 0.000000
# 5 0.000000 0.000000 0.000000 0.000000 0.028438 0.000000
# 6 0.000000 0.000000 0.000000 0.000000 0.000000 0.109665
#
#
# Mechanical properties :
#
#
# Convention : Reuss Voigt Hill
#
# Bulk Modulus (GPa) = 9.38461 38.81423 24.09942
# Shear Modulus (GPa) = 9.78692 23.94081 16.86386
#
# Velocity S-wave (km/s) = 2.19793 3.43764 2.88516
# Velocity P-wave (km/s) = 3.32769 5.90893 4.79526
#
# Compressibility (1/GPa) = 0.10655741
#
# Stress axis : x y z
#
# Youngs Moduli (GPa) = 17.70283 7.70846 64.30224
#
# Poissons Ratio (x) = 0.34395 1.46714
# Poissons Ratio (y) = 0.78990 -1.27519
# Poissons Ratio (z) = 0.40391 -0.15287
#
# Static dielectric constant tensor:
#      x y z
#    x 1.715400 0.000000 0.000000 
#    y 0.000000 1.725230 0.000000 
#    z 0.000000 0.000000 1.716100 
# 
# From -- ./inp_files/19220.got.cif
#   From: 2010.05.17/outbox.cif.g08.bks.cpg/sg44_10_cif.got.tgz:19220.got - 2010.06.03 19:37:08.
