data_PCOD9373060
_publ_section_title
;
Structure prediction by ZEFSAII (Michael W. Deem and Ramdas Pophale) SiO2 
 PCOD9373060
Probable space group: I M M 2
;
_chemical_formula_sum "Si O2"
_cell_formula_units_Z 64
_cell_length_a 21.809002
_cell_length_b 7.371359
_cell_length_c 20.126735
_cell_angle_alpha 90.000000
_cell_angle_beta 90.000000
_cell_angle_gamma 90.000000
_cell_volume 3235.613833
_symmetry_space_group_name_H-M "I M M 2"
_symmetry_group_IT_number 44
_symmetry_cell_setting 'orthorhombic'
loop_
_space_group_symop_operation_xyz
x,y,z
-x,-y,z
-x,y,z
x,-y,z
1/2+x,1/2+y,1/2+z
1/2-x,1/2-y,1/2+z
1/2-x,1/2+y,1/2+z
1/2+x,1/2-y,1/2+z
loop_
_atom_site_type_symbol
_atom_site_label
_atom_site_fract_x
_atom_site_fract_y
_atom_site_fract_z
Si Si1 0.261923 0.781548 0.504110
Si Si2 0.619358 0.279582 0.151133
Si Si3 0.933037 0.288122 0.362567
Si Si4 0.379647 0.281002 0.003212
Si Si5 0.761826 0.279675 0.151830
Si Si6 0.067551 0.221848 0.790612
Si Si7 0.311649 0.288398 0.364073
Si Si8 0.688960 0.222373 0.791023
O O1 0.191249 0.722041 0.492915
O O2 0.280714 0.720701 0.577958
O O3 0.303774 0.725084 0.442959
O O4 0.260903 0.000000 0.504613
O O5 0.618132 0.500000 0.150554
O O6 0.690571 0.227120 0.161596
O O7 0.580358 0.222540 0.214401
O O8 0.600654 0.221084 0.077034
O O9 0.935457 0.500000 0.344570
O O10 0.919649 0.278004 0.441183
O O11 0.873607 0.212555 0.324827
O O12 0.000000 0.209051 0.348006
O O13 0.379830 0.500000 0.003332
O O14 0.762197 0.500000 0.151727
O O15 0.801786 0.222817 0.214566
O O16 0.124934 0.285096 0.834836
O O17 0.000000 0.280799 0.812213
O O18 0.067328 0.000000 0.791836
O O19 0.311935 0.500000 0.345354
O O20 0.249301 0.214563 0.331095
O O21 0.688505 0.000000 0.793847
#
# Coordination Sequence:
#
# PCOD9373060 Si02
#       8
#     8   8   8   8   8   8   8   8
#     4   9  17  28  45  69  93 115 143 182 223 260
#     4   8  13  23  39  63  91 114 141 178 218 256
#     4  10  20  31  43  63  91 120 148 181 220 258
#     4   9  17  28  44  66  91 118 147 178 214 260
#     4   8  13  24  43  65  87 112 143 181 222 258
#     4   9  16  25  40  66  94 115 143 185 222 252
#     4  10  17  27  47  69  88 116 149 180 218 261
#     4   9  15  26  45  65  84 112 149 183 215 254
#
# _framework density 19.779864
#
# number of rings (size 3 to 8) (size 9 to 14) (size 15 to 20)
#    0.000    3.000    2.500    1.500    0.000    0.750 
#    0.000    1.250    0.000    3.375    0.000    1.750 
#    0.000    0.000    0.000    0.000    0.000    0.000 
#
# Total GULP energy -178501.106118 kJ/mol
# GULP energy per Si atom -5578.159566 kJ/mol
# Density = 1.973484 g / cm^3
# Si number density = 19.779864 Si / 1000 Ang^3
#
#
#
# Elastic Constant Matrix: (Units=GPa)
#
#
# Indices 1 2 3 4 5 6 
#
# 1 157.4900 9.6116 92.6726 0.0000 0.0000 0.0000
# 2 9.6116 68.5072 -4.7347 0.0000 0.0000 0.0000
# 3 92.6726 -4.7347 124.2237 0.0000 0.0000 0.0000
# 4 0.0000 0.0000 0.0000 13.3406 0.0000 0.0000
# 5 0.0000 0.0000 0.0000 0.0000 22.7054 0.0000
# 6 0.0000 0.0000 0.0000 0.0000 0.0000 0.0291
#
#
#
# Elastic Compliance Matrix: (Units=1/GPa)
#
#
# Indices 1 2 3 4 5 6 
#
# 1 0.011651 -0.002241 -0.008778 0.000000 0.000000 0.000000
# 2 -0.002241 0.015067 0.002246 0.000000 0.000000 0.000000
# 3 -0.008778 0.002246 0.014684 0.000000 0.000000 0.000000
# 4 0.000000 0.000000 0.000000 0.074959 0.000000 0.000000
# 5 0.000000 0.000000 0.000000 0.000000 0.044042 0.000000
# 6 0.000000 0.000000 0.000000 0.000000 0.000000 34.331032
#
#
# Mechanical properties :
#
#
# Convention : Reuss Voigt Hill
#
# Bulk Modulus (GPa) = 41.91677 60.59112 51.25394
# Shear Modulus (GPa) = 0.14486 24.05979 12.10232
#
# Velocity S-wave (km/s) = 0.27091 3.49144 2.47625
# Velocity P-wave (km/s) = 4.61904 6.85221 5.84330
#
# Compressibility (1/GPa) = 0.02385680
#
# Stress axis : x y z
#
# Youngs Moduli (GPa) = 85.82654 66.37144 68.10238
#
# Poissons Ratio (x) = 0.14876 0.59777
# Poissons Ratio (y) = 0.19237 -0.15298
# Poissons Ratio (z) = 0.75335 -0.14909
#
# Static dielectric constant tensor:
#      x y z
#    x 1.682050 0.000000 0.000000 
#    y 0.000000 1.782280 0.000000 
#    z 0.000000 0.000000 1.692400 
# 
# From -- ./inp_files/21485.got.cif
#   From: 2010.05.17/outbox.cif.g08.bks.cpg/sg44_11_cif.got.tgz:21485.got - 2010.06.03 19:37:08.
