data_PCOD9373409
_publ_section_title
;
Structure prediction by ZEFSAII (Michael W. Deem and Ramdas Pophale) SiO2 
 PCOD9373409
Probable space group: I M M 2
;
_chemical_formula_sum "Si O2"
_cell_formula_units_Z 64
_cell_length_a 9.398465
_cell_length_b 33.795180
_cell_length_c 11.788722
_cell_angle_alpha 90.000000
_cell_angle_beta 90.000000
_cell_angle_gamma 90.000000
_cell_volume 3744.367083
_symmetry_space_group_name_H-M "I M M 2"
_symmetry_group_IT_number 44
_symmetry_cell_setting 'orthorhombic'
loop_
_space_group_symop_operation_xyz
x,y,z
-x,-y,z
-x,y,z
x,-y,z
1/2+x,1/2+y,1/2+z
1/2-x,1/2-y,1/2+z
1/2-x,1/2+y,1/2+z
1/2+x,1/2-y,1/2+z
loop_
_atom_site_type_symbol
_atom_site_label
_atom_site_fract_x
_atom_site_fract_y
_atom_site_fract_z
Si Si1 0.330590 0.766367 0.941240
Si Si2 0.670245 0.954155 0.632371
Si Si3 0.335364 0.826812 0.145010
Si Si4 0.835615 0.172254 0.797025
Si Si5 0.162785 0.887422 0.010791
Si Si6 0.337942 0.953872 0.901921
Si Si7 0.171256 0.875561 0.564275
Si Si8 0.831103 0.685818 0.910405
O O1 0.500000 0.760286 0.927570
O O2 0.266611 0.792349 0.837326
O O3 0.246304 0.725581 0.951336
O O4 0.306284 0.791596 0.056042
O O5 0.500000 0.948531 0.613619
O O6 0.695159 0.950466 0.768009
O O7 0.761563 0.919344 0.576131
O O8 0.703989 0.000000 0.600858
O O9 0.500000 0.837841 0.128407
O O10 0.240207 0.863612 0.109252
O O11 0.315119 0.814936 0.274488
O O12 0.801286 0.149673 0.680321
O O13 0.000000 0.186567 0.790196
O O14 0.827903 0.140062 0.898030
O O15 0.000000 0.893366 0.039221
O O16 0.236631 0.927946 0.977865
O O17 0.500000 0.939822 0.916729
O O18 0.330876 0.000000 0.930309
O O19 0.251064 0.851262 0.466414
O O20 0.000000 0.877291 0.549397
O O21 0.000000 0.685546 0.937078
#
# Coordination Sequence:
#
# PCOD9373409 Si02
#       8
#     8   8   8   8   8   8   8   8
#     4  10  21  37  58  82 105 138 180 226 276 322
#     4   9  18  33  54  81 114 150 187 227 274 333
#     4   9  21  40  57  74 103 142 181 221 268 323
#     4   9  19  34  51  76 110 144 176 216 267 324
#     4  10  18  31  53  79 106 139 176 218 266 316
#     4   9  17  29  48  77 112 146 178 214 262 323
#     4  11  22  36  55  82 116 149 185 229 277 330
#     4  11  24  40  57  79 108 145 186 228 276 329
#
# _framework density 17.09234
#
# number of rings (size 3 to 8) (size 9 to 14) (size 15 to 20)
#    0.000    2.250    1.250    2.250    1.750    3.500 
#    0.000    1.250    0.000    0.750    0.000    5.250 
#    0.000    0.000    0.000    0.000    0.000    0.000 
#
# Total GULP energy -178512.485581 kJ/mol
# GULP energy per Si atom -5578.515174 kJ/mol
# Density = 1.705344 g / cm^3
# Si number density = 17.092340 Si / 1000 Ang^3
#
#
#
# Elastic Constant Matrix: (Units=GPa)
#
#
# Indices 1 2 3 4 5 6 
#
# 1 99.4180 81.6101 52.7835 0.0000 0.0000 0.0000
# 2 81.6101 111.5714 36.3900 0.0002 0.0000 0.0000
# 3 52.7835 36.3900 48.1249 0.0009 0.0000 0.0000
# 4 0.0000 0.0002 0.0009 20.5156 0.0000 0.0000
# 5 0.0000 0.0000 0.0000 0.0000 18.4738 0.0001
# 6 0.0000 0.0000 0.0000 0.0000 0.0001 37.3535
#
#
#
# Elastic Compliance Matrix: (Units=1/GPa)
#
#
# Indices 1 2 3 4 5 6 
#
# 1 0.047985 -0.023804 -0.034630 0.000002 0.000000 0.000000
# 2 -0.023804 0.023706 0.008183 -0.000001 0.000000 0.000000
# 3 -0.034630 0.008183 0.052574 -0.000002 0.000000 0.000000
# 4 0.000002 -0.000001 -0.000002 0.048743 0.000000 0.000000
# 5 0.000000 0.000000 0.000000 0.000000 0.054131 0.000000
# 6 0.000000 0.000000 0.000000 0.000000 0.000000 0.026771
#
#
# Mechanical properties :
#
#
# Convention : Reuss Voigt Hill
#
# Bulk Modulus (GPa) = 42.08364 66.74236 54.41300
# Shear Modulus (GPa) = 13.79947 21.15729 17.47838
#
# Velocity S-wave (km/s) = 2.84447 3.52209 3.20126
# Velocity P-wave (km/s) = 5.95507 7.46144 6.75040
#
# Compressibility (1/GPa) = 0.02376221
#
# Stress axis : x y z
#
# Youngs Moduli (GPa) = 20.83993 42.18416 19.02081
#
# Poissons Ratio (x) = 1.00415 0.65870
# Poissons Ratio (y) = 0.49607 -0.15565
# Poissons Ratio (z) = 0.72169 -0.34520
#
# Static dielectric constant tensor:
#      x y z
#    x 1.573470 0.000000 0.000000 
#    y 0.000000 1.568460 0.000000 
#    z 0.000000 0.000000 1.564520 
# 
# From -- ./inp_files/11428.got.cif
#   From: 2010.05.17/outbox.cif.g08.bks.cpg/sg44_6_cif.got.tgz:11428.got - 2010.06.03 19:37:08.
