data_PCOD9373001
_publ_section_title
;
Structure prediction by ZEFSAII (Michael W. Deem and Ramdas Pophale) SiO2 
 PCOD9373001
Probable space group: I M M 2
;
_chemical_formula_sum "Si O2"
_cell_formula_units_Z 48
_cell_length_a 17.167759
_cell_length_b 7.344998
_cell_length_c 18.713428
_cell_angle_alpha 90.000000
_cell_angle_beta 90.000000
_cell_angle_gamma 90.000000
_cell_volume 2359.710041
_symmetry_space_group_name_H-M "I M M 2"
_symmetry_group_IT_number 44
_symmetry_cell_setting 'orthorhombic'
loop_
_space_group_symop_operation_xyz
x,y,z
-x,-y,z
-x,y,z
x,-y,z
1/2+x,1/2+y,1/2+z
1/2-x,1/2-y,1/2+z
1/2-x,1/2+y,1/2+z
1/2+x,1/2-y,1/2+z
loop_
_atom_site_type_symbol
_atom_site_label
_atom_site_fract_x
_atom_site_fract_y
_atom_site_fract_z
Si Si1 0.829651 0.277737 0.969980
Si Si2 0.644519 0.711847 0.206041
Si Si3 0.500000 0.207985 0.466520
Si Si4 0.674537 0.722048 0.048068
Si Si5 0.412302 0.278149 0.904698
Si Si6 0.241870 0.219153 0.327219
Si Si7 0.500000 0.721936 0.299760
O O1 0.832186 0.500000 0.968662
O O2 0.800022 0.220954 0.891129
O O3 0.916297 0.211522 0.987012
O O4 0.761532 0.224114 0.024272
O O5 0.624886 0.500000 0.196338
O O6 0.652184 0.788191 0.126550
O O7 0.723650 0.723778 0.251577
O O8 0.575738 0.784861 0.255991
O O9 0.500000 0.207746 0.380194
O O10 0.500000 0.000000 0.492935
O O11 0.674309 0.500000 0.048982
O O12 0.616764 0.775713 0.983951
O O13 0.500000 0.217217 0.889961
O O14 0.412674 0.500000 0.903892
O O15 0.344642 0.220477 0.849770
O O16 0.241667 0.000000 0.328253
O O17 0.500000 0.500000 0.305118
#
# Coordination Sequence:
#
# PCOD9373001 Si02
#       7
#     8   8   4   8   8   8   4
#     4   8  14  25  42  65  85 108 143 181 214 245
#     4  10  19  29  43  64  93 120 141 172 218 266
#     4  10  16  26  48  68  84 109 144 184 218 249
#     4   8  15  26  41  62  90 115 141 178 218 259
#     4   8  14  25  45  70  88 107 143 189 223 247
#     4   9  16  28  46  66  88 114 147 180 213 256
#     4  10  20  28  38  66  96 117 138 168 218 271
#
# _framework density 20.341481999999999
#
# number of rings (size 3 to 8) (size 9 to 14) (size 15 to 20)
#    0.000    3.167    1.667    2.000    1.167    0.000 
#    0.000    0.000    1.833    5.500    0.000    0.000 
#    0.000    0.000    0.000    0.000    0.000    0.000 
#
# Total GULP energy -133860.216012 kJ/mol
# GULP energy per Si atom -5577.509000 kJ/mol
# Density = 2.029518 g / cm^3
# Si number density = 20.341482 Si / 1000 Ang^3
#
#
#
# Elastic Constant Matrix: (Units=GPa)
#
#
# Indices 1 2 3 4 5 6 
#
# 1 135.5834 -5.5260 9.2949 0.0000 0.0000 0.0000
# 2 -5.5260 75.9370 -9.5250 0.0000 0.0000 0.0000
# 3 9.2949 -9.5250 54.9383 0.0000 0.0000 0.0000
# 4 0.0000 0.0000 0.0000 9.1642 0.0000 0.0000
# 5 0.0000 0.0000 0.0000 0.0000 17.0971 0.0000
# 6 0.0000 0.0000 0.0000 0.0000 0.0000 -0.7439
#
#
#
# Elastic Compliance Matrix: (Units=1/GPa)
#
#
# Indices 1 2 3 4 5 6 
#
# 1 0.007474 0.000394 -0.001196 0.000000 0.000000 0.000000
# 2 0.000394 0.013482 0.002271 0.000000 0.000000 0.000000
# 3 -0.001196 0.002271 0.018798 0.000000 0.000000 0.000000
# 4 0.000000 0.000000 0.000000 0.109120 0.000000 0.000000
# 5 0.000000 0.000000 0.000000 0.000000 0.058489 0.000000
# 6 0.000000 0.000000 0.000000 0.000000 0.000000 -1.344181
#
#
# Mechanical properties :
#
#
# Convention : Reuss Voigt Hill
#
# Bulk Modulus (GPa) = 23.42394 28.32737 25.87566
# Shear Modulus (GPa) = -4.44238 23.25113 9.40438
#
# Velocity S-wave (km/s) = -1.47941 3.38456 2.15251
# Velocity P-wave (km/s) = 2.93635 5.40646 4.35040
#
# Compressibility (1/GPa) = 0.04269136
#
# Stress axis : x y z
#
# Youngs Moduli (GPa) = 133.80457 74.17120 53.19623
#
# Poissons Ratio (x) = -0.02921 0.06363
# Poissons Ratio (y) = -0.05270 -0.12080
# Poissons Ratio (z) = 0.16005 -0.16843
#
# Static dielectric constant tensor:
#      x y z
#    x 1.734430 0.000000 0.000000 
#    y 0.000000 1.793780 0.000000 
#    z 0.000000 0.000000 1.678990 
# 
# From -- ./inp_files/24286.got.cif
#   From: 2010.05.17/outbox.cif.g08.bks.cpg/sg44_13_cif.got.tgz:24286.got - 2010.06.03 19:37:08.
