data_PCOD9373483
_publ_section_title
;
Structure prediction by ZEFSAII (Michael W. Deem and Ramdas Pophale) SiO2 
 PCOD9373483
Probable space group: I M M 2
;
_chemical_formula_sum "Si O2"
_cell_formula_units_Z 56
_cell_length_a 21.221701
_cell_length_b 14.341538
_cell_length_c 9.311828
_cell_angle_alpha 90.000000
_cell_angle_beta 90.000000
_cell_angle_gamma 90.000000
_cell_volume 2834.071905
_symmetry_space_group_name_H-M "I M M 2"
_symmetry_group_IT_number 44
_symmetry_cell_setting 'orthorhombic'
loop_
_space_group_symop_operation_xyz
x,y,z
-x,-y,z
-x,y,z
x,-y,z
1/2+x,1/2+y,1/2+z
1/2-x,1/2-y,1/2+z
1/2-x,1/2+y,1/2+z
1/2+x,1/2-y,1/2+z
loop_
_atom_site_type_symbol
_atom_site_label
_atom_site_fract_x
_atom_site_fract_y
_atom_site_fract_z
Si Si1 0.070946 0.214990 0.738150
Si Si2 0.349104 0.894675 0.196563
Si Si3 0.377744 0.394921 0.753368
Si Si4 0.932018 0.260778 0.071402
Si Si5 0.271389 0.396562 0.506558
Si Si6 0.825765 0.109673 0.568948
Si Si7 0.300661 0.191072 0.482726
O O1 0.097287 0.316332 0.691055
O O2 0.121513 0.142401 0.679758
O O3 0.000000 0.198013 0.685612
O O4 0.068884 0.216522 0.911214
O O5 0.299540 0.889029 0.066517
O O6 0.309844 0.871524 0.341733
O O7 0.373618 0.000000 0.204765
O O8 0.403730 0.500000 0.758127
O O9 0.424919 0.319760 0.688596
O O10 0.318590 0.396295 0.643536
O O11 0.353201 0.369171 0.910330
O O12 0.866185 0.316310 0.070555
O O13 0.000000 0.309276 0.086623
O O14 0.278947 0.500000 0.437172
O O15 0.288663 0.298477 0.433228
O O16 0.758962 0.161370 0.576426
O O17 0.814896 0.000000 0.577847
#
# Coordination Sequence:
#
# PCOD9373483 Si02
#       7
#     8   8   8   8   8   8   8
#     4  10  22  38  53  80 118 152 185 233 290 344
#     4  10  18  32  56  80 107 146 189 234 277 334
#     4   9  18  32  53  79 107 141 187 232 274 332
#     4   9  20  35  53  76 108 148 188 224 275 339
#     4   9  16  29  51  79 109 142 182 230 282 333
#     4  11  21  34  56  86 115 146 187 238 295 347
#     4  10  18  32  56  79 114 146 184 236 289 330
#
# _framework density 19.759554999999999
#
# number of rings (size 3 to 8) (size 9 to 14) (size 15 to 20)
#    0.000    2.286    2.857    0.429    0.000    2.000 
#    0.000    5.000    0.000    1.286    0.000    4.000 
#    0.000    6.857    0.000    0.000    0.000    0.000 
#
# Total GULP energy -156136.085396 kJ/mol
# GULP energy per Si atom -5576.288764 kJ/mol
# Density = 1.971458 g / cm^3
# Si number density = 19.759555 Si / 1000 Ang^3
#
#
#
# Elastic Constant Matrix: (Units=GPa)
#
#
# Indices 1 2 3 4 5 6 
#
# 1 137.8844 31.5200 12.4136 0.0000 0.0000 0.0000
# 2 31.5200 70.8190 5.7970 0.0000 0.0000 0.0000
# 3 12.4136 5.7970 27.8908 0.0000 0.0000 0.0000
# 4 0.0000 0.0000 0.0000 21.6811 0.0000 0.0000
# 5 0.0000 0.0000 0.0000 0.0000 14.0355 0.0000
# 6 0.0000 0.0000 0.0000 0.0000 0.0000 11.2544
#
#
#
# Elastic Compliance Matrix: (Units=1/GPa)
#
#
# Indices 1 2 3 4 5 6 
#
# 1 0.008311 -0.003455 -0.002981 0.000000 0.000000 0.000000
# 2 -0.003455 0.015801 -0.001747 0.000000 0.000000 0.000000
# 3 -0.002981 -0.001747 0.037544 0.000000 0.000000 0.000000
# 4 0.000000 0.000000 0.000000 0.046123 0.000000 0.000000
# 5 0.000000 0.000000 0.000000 0.000000 0.071248 0.000000
# 6 0.000000 0.000000 0.000000 0.000000 0.000000 0.088854
#
#
# Mechanical properties :
#
#
# Convention : Reuss Voigt Hill
#
# Bulk Modulus (GPa) = 22.07930 37.33947 29.70939
# Shear Modulus (GPa) = 16.70328 21.85176 19.27752
#
# Velocity S-wave (km/s) = 2.91060 3.32909 3.12686
# Velocity P-wave (km/s) = 4.74276 5.80647 5.30136
#
# Compressibility (1/GPa) = 0.04529128
#
# Stress axis : x y z
#
# Youngs Moduli (GPa) = 120.32849 63.28649 26.63550
#
# Poissons Ratio (x) = 0.21865 0.07940
# Poissons Ratio (y) = 0.41572 0.04652
# Poissons Ratio (z) = 0.35868 0.11053
#
# Static dielectric constant tensor:
#      x y z
#    x 1.719590 0.000000 0.000000 
#    y 0.000000 1.706680 0.000000 
#    z 0.000000 0.000000 1.705170 
# 
# From -- ./inp_files/8916.got.cif
#   From: 2010.05.17/outbox.cif.g08.bks.cpg/sg44_5_cif.got.tgz:8916.got - 2010.06.03 19:37:08.
