data_PCOD9373974
_publ_section_title
;
Structure prediction by ZEFSAII (Michael W. Deem and Ramdas Pophale) SiO2 
 PCOD9373974
Probable space group: I M M 2
;
_chemical_formula_sum "Si O2"
_cell_formula_units_Z 64
_cell_length_a 8.026209
_cell_length_b 16.681327
_cell_length_c 23.006550
_cell_angle_alpha 90.000000
_cell_angle_beta 90.000000
_cell_angle_gamma 90.000000
_cell_volume 3080.296754
_symmetry_space_group_name_H-M "I M M 2"
_symmetry_group_IT_number 44
_symmetry_cell_setting 'orthorhombic'
loop_
_space_group_symop_operation_xyz
x,y,z
-x,-y,z
-x,y,z
x,-y,z
1/2+x,1/2+y,1/2+z
1/2-x,1/2-y,1/2+z
1/2-x,1/2+y,1/2+z
1/2+x,1/2-y,1/2+z
loop_
_atom_site_type_symbol
_atom_site_label
_atom_site_fract_x
_atom_site_fract_y
_atom_site_fract_z
Si Si1 0.194441 0.712128 0.423590
Si Si2 0.696561 0.415425 0.829402
Si Si3 0.190412 0.092950 0.017500
Si Si4 0.200570 0.411399 0.087272
Si Si5 0.298754 0.759257 0.795409
Si Si6 0.307874 0.880904 0.457011
Si Si7 0.804719 0.410127 0.647939
Si Si8 0.304895 0.733224 0.171212
O O1 0.221587 0.638914 0.465858
O O2 0.243617 0.698960 0.356576
O O3 0.296415 0.785452 0.450279
O O4 0.000000 0.736522 0.422809
O O5 0.500000 0.415497 0.816647
O O6 0.769807 0.500000 0.808418
O O7 0.764352 0.332741 0.803627
O O8 0.717886 0.411702 0.899120
O O9 0.285621 0.098815 0.078418
O O10 0.000000 0.122401 0.025634
O O11 0.182890 0.000000 0.002596
O O12 0.254633 0.500000 0.109312
O O13 0.244903 0.334006 0.125863
O O14 0.000000 0.412030 0.084507
O O15 0.260547 0.403143 0.020351
O O16 0.500000 0.758790 0.790250
O O17 0.226298 0.795337 0.736924
O O18 0.500000 0.906759 0.453625
O O19 0.733626 0.500000 0.662540
O O20 0.730897 0.324594 0.669321
O O21 0.000000 0.412808 0.663980
O O22 0.500000 0.742653 0.159792
#
# Coordination Sequence:
#
# PCOD9373974 Si02
#       8
#     8   8   8   8   8   8   8   8
#     4  10  20  35  55  78 105 140 178 213 261 324
#     4   9  18  33  53  79 111 144 176 211 256 315
#     4  10  20  33  52  81 111 136 169 216 267 317
#     4  10  22  39  57  78 107 144 183 222 269 327
#     4   9  20  37  54  73 101 140 182 219 259 314
#     4  10  19  32  54  83 111 138 172 216 266 319
#     4   9  19  36  56  80 113 149 181 215 262 325
#     4  11  23  37  56  81 107 140 184 232 276 315
#
# _framework density 20.777218999999999
#
# number of rings (size 3 to 8) (size 9 to 14) (size 15 to 20)
#    0.000    2.250    0.000    3.375    0.000    8.750 
#    0.000    0.625    0.000    0.750    0.000    0.000 
#    0.000    0.000    0.000    0.000    0.000    0.000 
#
# Total GULP energy -178447.099659 kJ/mol
# GULP energy per Si atom -5576.471864 kJ/mol
# Density = 2.072993 g / cm^3
# Si number density = 20.777219 Si / 1000 Ang^3
#
#
#
# Elastic Constant Matrix: (Units=GPa)
#
#
# Indices 1 2 3 4 5 6 
#
# 1 26.1906 5.0302 -5.2995 0.0000 0.0000 0.0000
# 2 5.0302 67.2250 45.2805 0.0000 0.0000 0.0000
# 3 -5.2995 45.2805 95.6380 0.0000 0.0000 0.0000
# 4 0.0000 0.0000 0.0000 0.1426 0.0000 0.0000
# 5 0.0000 0.0000 0.0000 0.0000 21.5671 0.0000
# 6 0.0000 0.0000 0.0000 0.0000 0.0000 -14.9053
#
#
#
# Elastic Compliance Matrix: (Units=1/GPa)
#
#
# Indices 1 2 3 4 5 6 
#
# 1 0.040559 -0.006678 0.005409 0.000000 0.000000 0.000000
# 2 -0.006678 0.022940 -0.011231 0.000000 0.000000 0.000000
# 3 0.005409 -0.011231 0.016073 0.000000 0.000000 0.000000
# 4 0.000000 0.000000 0.000000 7.013954 0.000000 0.000000
# 5 0.000000 0.000000 0.000000 0.000000 0.046367 0.000000
# 6 0.000000 0.000000 0.000000 0.000000 0.000000 -0.067090
#
#
# Mechanical properties :
#
#
# Convention : Reuss Voigt Hill
#
# Bulk Modulus (GPa) = 18.32450 31.00844 24.66647
# Shear Modulus (GPa) = 0.70264 10.96372 5.83318
#
# Velocity S-wave (km/s) = 0.58216 2.29962 1.67737
# Velocity P-wave (km/s) = 3.04804 4.69123 3.95589
#
# Compressibility (1/GPa) = 0.05457176
#
# Stress axis : x y z
#
# Youngs Moduli (GPa) = 24.65554 43.59180 62.21483
#
# Poissons Ratio (x) = 0.29113 -0.33655
# Poissons Ratio (y) = 0.16466 0.69875
# Poissons Ratio (z) = -0.13337 0.48959
#
# Static dielectric constant tensor:
#      x y z
#    x 1.763320 0.000000 0.000000 
#    y 0.000000 1.788730 0.000000 
#    z 0.000000 0.000000 1.726260 
# 
# From -- ./inp_files/23269.got.cif
#   From: 2010.05.17/outbox.cif.g08.bks.cpg/sg44_12_cif.got.tgz:23269.got - 2010.06.03 19:37:08.
