data_PCOD9373145
_publ_section_title
;
Structure prediction by ZEFSAII (Michael W. Deem and Ramdas Pophale) SiO2 
 PCOD9373145
Probable space group: I M M 2
;
_chemical_formula_sum "Si O2"
_cell_formula_units_Z 64
_cell_length_a 27.641772
_cell_length_b 8.853632
_cell_length_c 18.663098
_cell_angle_alpha 90.000000
_cell_angle_beta 90.000000
_cell_angle_gamma 90.000000
_cell_volume 4567.421413
_symmetry_space_group_name_H-M "I M M 2"
_symmetry_group_IT_number 44
_symmetry_cell_setting 'orthorhombic'
loop_
_space_group_symop_operation_xyz
x,y,z
-x,-y,z
-x,y,z
x,-y,z
1/2+x,1/2+y,1/2+z
1/2-x,1/2-y,1/2+z
1/2-x,1/2+y,1/2+z
1/2+x,1/2-y,1/2+z
loop_
_atom_site_type_symbol
_atom_site_label
_atom_site_fract_x
_atom_site_fract_y
_atom_site_fract_z
Si Si1 0.799071 0.826299 0.974030
Si Si2 0.850553 0.683472 0.435646
Si Si3 0.740697 0.679554 0.852343
Si Si4 0.945318 0.683933 0.188313
Si Si5 0.257690 0.820776 0.696429
Si Si6 0.554451 0.183817 0.853440
Si Si7 0.202321 0.325849 0.572805
Si Si8 0.647816 0.818122 0.601494
O O1 0.784419 0.737289 0.902738
O O2 0.810072 0.000000 0.957430
O O3 0.750339 0.823709 0.022786
O O4 0.839317 0.753346 0.025042
O O5 0.847043 0.500000 0.432414
O O6 0.808337 0.749810 0.385686
O O7 0.902445 0.731750 0.405372
O O8 0.839295 0.726300 0.517968
O O9 0.737819 0.500000 0.855511
O O10 0.746141 0.736381 0.771478
O O11 0.944764 0.500000 0.187667
O O12 0.935818 0.728956 0.270899
O O13 0.902656 0.733905 0.135944
O O14 0.000000 0.731290 0.169253
O O15 0.215500 0.772660 0.641437
O O16 0.308420 0.781834 0.656651
O O17 0.257288 0.000000 0.708343
O O18 0.500000 0.233121 0.872604
O O19 0.554285 0.000000 0.854065
O O20 0.193809 0.500000 0.594057
O O21 0.647260 0.000000 0.594308
#
# Coordination Sequence:
#
# PCOD9373145 Si02
#       8
#     8   8   8   8   8   8   8   8
#     4   9  17  29  42  56  77 103 131 164 201 239
#     4   9  16  27  42  59  81 108 137 168 200 232
#     4  11  20  28  40  58  80 105 134 165 198 240
#     4   8  13  21  35  57  83 108 136 170 200 225
#     4  10  18  27  40  57  78 104 134 167 200 236
#     4   8  13  22  38  60  83 107 137 170 199 226
#     4   8  15  26  38  54  77 103 130 162 198 235
#     4   9  16  26  41  59  79 106 139 169 198 233
#
# _framework density 14.012282000000001
#
# number of rings (size 3 to 8) (size 9 to 14) (size 15 to 20)
#    0.000    3.000    0.000    4.125    0.000    5.500 
#    0.000    0.000    0.000    0.750    0.000    1.750 
#    0.000    1.000    0.000    8.500    0.000    2.375 
#
# Total GULP energy -178159.941726 kJ/mol
# GULP energy per Si atom -5567.498179 kJ/mol
# Density = 1.398039 g / cm^3
# Si number density = 14.012282 Si / 1000 Ang^3
#
#
#
# Elastic Constant Matrix: (Units=GPa)
#
#
# Indices 1 2 3 4 5 6 
#
# 1 96.1216 20.5934 56.0400 0.0000 0.0000 0.0000
# 2 20.5934 34.7054 35.9636 0.0000 0.0000 0.0000
# 3 56.0400 35.9636 89.9165 0.0000 0.0000 0.0000
# 4 0.0000 0.0000 0.0000 21.2508 0.0000 0.0000
# 5 0.0000 0.0000 0.0000 0.0000 27.3796 0.0000
# 6 0.0000 0.0000 0.0000 0.0000 0.0000 11.3036
#
#
#
# Elastic Compliance Matrix: (Units=1/GPa)
#
#
# Indices 1 2 3 4 5 6 
#
# 1 0.016385 0.001468 -0.010799 0.000000 0.000000 0.000000
# 2 0.001468 0.049341 -0.020650 0.000000 0.000000 0.000000
# 3 -0.010799 -0.020650 0.026111 0.000000 0.000000 0.000000
# 4 0.000000 0.000000 0.000000 0.047057 0.000000 0.000000
# 5 0.000000 0.000000 0.000000 0.000000 0.036523 0.000000
# 6 0.000000 0.000000 0.000000 0.000000 0.000000 0.088467
#
#
# Mechanical properties :
#
#
# Convention : Reuss Voigt Hill
#
# Bulk Modulus (GPa) = 31.37177 49.54859 40.46018
# Shear Modulus (GPa) = 14.94894 19.19659 17.07276
#
# Velocity S-wave (km/s) = 3.26980 3.70534 3.49437
# Velocity P-wave (km/s) = 6.05746 7.33101 6.72445
#
# Compressibility (1/GPa) = 0.03187579
#
# Stress axis : x y z
#
# Youngs Moduli (GPa) = 61.03188 20.26697 38.29791
#
# Poissons Ratio (x) = -0.02975 0.41358
# Poissons Ratio (y) = -0.08960 0.79085
# Poissons Ratio (z) = 0.65908 0.41851
#
# Static dielectric constant tensor:
#      x y z
#    x 1.462240 0.000000 0.000000 
#    y 0.000000 1.472110 0.000000 
#    z 0.000000 0.000000 1.452980 
# 
# From -- ./inp_files/20905.got.cif
#   From: 2010.05.17/outbox.cif.g08.bks.cpg/sg44_11_cif.got.tgz:20905.got - 2010.06.03 19:37:08.
