data_PCOD9373627
_publ_section_title
;
Structure prediction by ZEFSAII (Michael W. Deem and Ramdas Pophale) SiO2 
 PCOD9373627
Probable space group: I M M 2
;
_chemical_formula_sum "Si O2"
_cell_formula_units_Z 64
_cell_length_a 9.041111
_cell_length_b 22.190505
_cell_length_c 16.089469
_cell_angle_alpha 90.000000
_cell_angle_beta 90.000000
_cell_angle_gamma 90.000000
_cell_volume 3227.978982
_symmetry_space_group_name_H-M "I M M 2"
_symmetry_group_IT_number 44
_symmetry_cell_setting 'orthorhombic'
loop_
_space_group_symop_operation_xyz
x,y,z
-x,-y,z
-x,y,z
x,-y,z
1/2+x,1/2+y,1/2+z
1/2-x,1/2-y,1/2+z
1/2-x,1/2+y,1/2+z
1/2+x,1/2-y,1/2+z
loop_
_atom_site_type_symbol
_atom_site_label
_atom_site_fract_x
_atom_site_fract_y
_atom_site_fract_z
Si Si1 0.669911 0.393945 0.754940
Si Si2 0.668794 0.573359 0.091113
Si Si3 0.319957 0.565060 0.577116
Si Si4 0.821276 0.687112 0.345394
Si Si5 0.677488 0.931742 0.763270
Si Si6 0.671382 0.072978 0.423235
Si Si7 0.679585 0.303176 0.514900
Si Si8 0.829361 0.757458 0.186856
O O1 0.500000 0.412079 0.772166
O O2 0.724556 0.430177 0.674149
O O3 0.761562 0.402473 0.838042
O O4 0.668689 0.325144 0.723476
O O5 0.500000 0.593748 0.096746
O O6 0.669226 0.500000 0.087996
O O7 0.757316 0.588502 0.174563
O O8 0.743580 0.594181 0.005769
O O9 0.500000 0.566168 0.576804
O O10 0.271664 0.500000 0.542813
O O11 0.274475 0.627144 0.533325
O O12 0.784945 0.616501 0.333688
O O13 0.746916 0.714010 0.426867
O O14 0.764682 0.717442 0.260239
O O15 0.000000 0.694309 0.350418
O O16 0.500000 0.932350 0.755425
O O17 0.728407 0.000000 0.780563
O O18 0.500000 0.089037 0.430802
O O19 0.682671 0.000000 0.419966
O O20 0.500000 0.301265 0.513300
O O21 0.732016 0.263463 0.593720
O O22 0.000000 0.737167 0.177230
#
# Coordination Sequence:
#
# PCOD9373627 Si02
#       8
#     8   8   8   8   8   8   8   8
#     4   9  16  29  50  71  94 130 177 221 257 304
#     4   9  17  30  48  69  96 132 173 216 257 299
#     4   8  14  26  47  74 101 131 166 205 256 311
#     4  10  20  36  57  78 105 141 174 210 264 322
#     4   9  18  33  52  74 103 138 172 209 260 322
#     4  10  19  29  43  68 104 140 172 211 264 320
#     4   9  18  34  55  77 103 134 171 216 257 303
#     4   8  17  36  56  73 101 139 174 215 267 312
#
# _framework density 19.826647999999999
#
# number of rings (size 3 to 8) (size 9 to 14) (size 15 to 20)
#    0.000    3.000    0.000    2.625    0.000    3.750 
#    2.250    3.750    0.000    0.750    0.000    0.000 
#    0.000    0.000    0.000    0.000    0.000    0.000 
#
# Total GULP energy -178343.316132 kJ/mol
# GULP energy per Si atom -5573.228629 kJ/mol
# Density = 1.978152 g / cm^3
# Si number density = 19.826648 Si / 1000 Ang^3
#
#
#
# Elastic Constant Matrix: (Units=GPa)
#
#
# Indices 1 2 3 4 5 6 
#
# 1 19.7640 4.0554 25.5254 0.0000 0.0000 0.0000
# 2 4.0554 33.7289 29.2106 0.0000 0.0000 0.0000
# 3 25.5254 29.2106 137.8614 0.0000 0.0000 0.0000
# 4 0.0000 0.0000 0.0000 19.1700 0.0000 0.0000
# 5 0.0000 0.0000 0.0000 0.0000 30.8322 0.0000
# 6 0.0000 0.0000 0.0000 0.0000 0.0000 7.7470
#
#
#
# Elastic Compliance Matrix: (Units=1/GPa)
#
#
# Indices 1 2 3 4 5 6 
#
# 1 0.066794 0.003282 -0.013062 0.000000 0.000000 0.000000
# 2 0.003282 0.036472 -0.008336 0.000000 0.000000 0.000000
# 3 -0.013062 -0.008336 0.011438 0.000000 0.000000 0.000000
# 4 0.000000 0.000000 0.000000 0.052165 0.000000 0.000000
# 5 0.000000 0.000000 0.000000 0.000000 0.032434 0.000000
# 6 0.000000 0.000000 0.000000 0.000000 0.000000 0.129082
#
#
# Mechanical properties :
#
#
# Convention : Reuss Voigt Hill
#
# Bulk Modulus (GPa) = 12.74338 34.32633 23.53486
# Shear Modulus (GPa) = 12.79509 20.38738 16.59124
#
# Velocity S-wave (km/s) = 2.54313 3.21016 2.89591
# Velocity P-wave (km/s) = 3.88132 5.57593 4.80394
#
# Compressibility (1/GPa) = 0.07847211
#
# Stress axis : x y z
#
# Youngs Moduli (GPa) = 14.97146 27.41792 87.42515
#
# Poissons Ratio (x) = -0.08998 1.14198
# Poissons Ratio (y) = -0.04913 0.72873
# Poissons Ratio (z) = 0.19556 0.22854
#
# Static dielectric constant tensor:
#      x y z
#    x 1.671460 0.000000 0.000000 
#    y 0.000000 1.753620 0.000000 
#    z 0.000000 0.000000 1.682970 
# 
# From -- ./inp_files/16789.got.cif
#   From: 2010.05.17/outbox.cif.g08.bks.cpg/sg44_9_cif.got.tgz:16789.got - 2010.06.03 19:37:08.
