data_PCOD9373567
_publ_section_title
;
Structure prediction by ZEFSAII (Michael W. Deem and Ramdas Pophale) SiO2 
 PCOD9373567
Probable space group: I M M 2
;
_chemical_formula_sum "Si O2"
_cell_formula_units_Z 64
_cell_length_a 31.881822
_cell_length_b 8.337587
_cell_length_c 12.292960
_cell_angle_alpha 90.000000
_cell_angle_beta 90.000000
_cell_angle_gamma 90.000000
_cell_volume 3267.683460
_symmetry_space_group_name_H-M "I M M 2"
_symmetry_group_IT_number 44
_symmetry_cell_setting 'orthorhombic'
loop_
_space_group_symop_operation_xyz
x,y,z
-x,-y,z
-x,y,z
x,-y,z
1/2+x,1/2+y,1/2+z
1/2-x,1/2-y,1/2+z
1/2-x,1/2+y,1/2+z
1/2+x,1/2-y,1/2+z
loop_
_atom_site_type_symbol
_atom_site_label
_atom_site_fract_x
_atom_site_fract_y
_atom_site_fract_z
Si Si1 0.373439 0.191933 0.823050
Si Si2 0.126586 0.694007 0.072761
Si Si3 0.296782 0.307846 0.427713
Si Si4 0.666390 0.695137 0.199019
Si Si5 0.431148 0.306404 0.201391
Si Si6 0.545643 0.192718 0.437738
Si Si7 0.702982 0.307725 0.969886
Si Si8 0.453836 0.306030 0.958402
O O1 0.375435 0.248311 0.697917
O O2 0.331808 0.254701 0.882847
O O3 0.414770 0.243644 0.889337
O O4 0.371585 0.000000 0.822504
O O5 0.125531 0.500000 0.072276
O O6 0.169530 0.746345 0.015095
O O7 0.086228 0.753290 0.003778
O O8 0.298421 0.500000 0.428213
O O9 0.311485 0.249119 0.308793
O O10 0.249483 0.253870 0.447782
O O11 0.667713 0.500000 0.198291
O O12 0.617741 0.739918 0.200284
O O13 0.687940 0.751086 0.088498
O O14 0.434503 0.500000 0.207524
O O15 0.450484 0.236884 0.310934
O O16 0.449697 0.256538 0.085099
O O17 0.500000 0.250270 0.478255
O O18 0.546130 0.000000 0.446832
O O19 0.703729 0.500000 0.971437
O O20 0.500000 0.256779 0.917602
O O21 0.451714 0.500000 0.957012
#
# Coordination Sequence:
#
# PCOD9373567 Si02
#       8
#     8   8   8   8   8   8   8   8
#     4  11  24  41  61  86 118 158 203 249 294 347
#     4  10  23  42  60  82 117 161 200 241 297 352
#     4  11  23  40  62  92 121 151 196 245 292 349
#     4   9  19  37  62  86 117 154 188 237 293 347
#     4  10  18  36  61  87 118 154 191 234 293 353
#     4  10  21  37  58  86 118 152 194 243 292 348
#     4  11  23  42  64  88 120 159 196 238 299 356
#     4  10  21  38  61  88 119 156 197 243 299 359
#
# _framework density 19.585739
#
# number of rings (size 3 to 8) (size 9 to 14) (size 15 to 20)
#    0.000    1.750    2.500    1.500    1.750    3.000 
#    0.000    3.125    0.000    0.000    0.000    0.000 
#    0.000    0.000    0.000    0.000    0.000    0.000 
#
# Total GULP energy -178746.483050 kJ/mol
# GULP energy per Si atom -5585.827595 kJ/mol
# Density = 1.954116 g / cm^3
# Si number density = 19.585739 Si / 1000 Ang^3
#
#
#
# Elastic Constant Matrix: (Units=GPa)
#
#
# Indices 1 2 3 4 5 6 
#
# 1 188.7508 18.0480 85.8907 0.0000 0.0000 0.0000
# 2 18.0480 18.5820 18.5428 0.0000 0.0000 0.0000
# 3 85.8907 18.5428 150.8437 0.0000 0.0000 0.0000
# 4 0.0000 0.0000 0.0000 27.8894 0.0000 0.0000
# 5 0.0000 0.0000 0.0000 0.0000 59.4074 0.0000
# 6 0.0000 0.0000 0.0000 0.0000 0.0000 71.5879
#
#
#
# Elastic Compliance Matrix: (Units=1/GPa)
#
#
# Indices 1 2 3 4 5 6 
#
# 1 0.007331 -0.003368 -0.003760 0.000000 0.000000 0.000000
# 2 -0.003368 0.062887 -0.005813 0.000000 0.000000 0.000000
# 3 -0.003760 -0.005813 0.009485 0.000000 0.000000 0.000000
# 4 0.000000 0.000000 0.000000 0.035856 0.000000 0.000000
# 5 0.000000 0.000000 0.000000 0.000000 0.016833 0.000000
# 6 0.000000 0.000000 0.000000 0.000000 0.000000 0.013969
#
#
# Mechanical properties :
#
#
# Convention : Reuss Voigt Hill
#
# Bulk Modulus (GPa) = 18.58009 67.01550 42.79780
# Shear Modulus (GPa) = 26.29033 47.48993 36.89013
#
# Velocity S-wave (km/s) = 3.66774 4.92949 4.34466
# Velocity P-wave (km/s) = 5.23866 8.16643 6.86054
#
# Compressibility (1/GPa) = 0.05382104
#
# Stress axis : x y z
#
# Youngs Moduli (GPa) = 136.40357 15.90149 105.42864
#
# Poissons Ratio (x) = 0.05356 0.39645
# Poissons Ratio (y) = 0.45942 0.61283
# Poissons Ratio (z) = 0.51293 0.09243
#
# Static dielectric constant tensor:
#      x y z
#    x 1.674890 0.000000 0.000000 
#    y 0.000000 1.685750 0.000000 
#    z 0.000000 0.000000 1.675440 
# 
# From -- ./inp_files/15072.got.cif
#   From: 2010.05.17/outbox.cif.g08.bks.cpg/sg44_8_cif.got.tgz:15072.got - 2010.06.03 19:37:08.
