data_PCOD9373552
_publ_section_title
;
Structure prediction by ZEFSAII (Michael W. Deem and Ramdas Pophale) SiO2 
 PCOD9373552
Probable space group: I M M 2
;
_chemical_formula_sum "Si O2"
_cell_formula_units_Z 64
_cell_length_a 16.041822
_cell_length_b 7.939489
_cell_length_c 24.611931
_cell_angle_alpha 90.000000
_cell_angle_beta 90.000000
_cell_angle_gamma 90.000000
_cell_volume 3134.670763
_symmetry_space_group_name_H-M "I M M 2"
_symmetry_group_IT_number 44
_symmetry_cell_setting 'orthorhombic'
loop_
_space_group_symop_operation_xyz
x,y,z
-x,-y,z
-x,y,z
x,-y,z
1/2+x,1/2+y,1/2+z
1/2-x,1/2-y,1/2+z
1/2-x,1/2+y,1/2+z
1/2+x,1/2-y,1/2+z
loop_
_atom_site_type_symbol
_atom_site_label
_atom_site_fract_x
_atom_site_fract_y
_atom_site_fract_z
Si Si1 0.249833 0.299553 0.594070
Si Si2 0.848174 0.703997 0.903163
Si Si3 0.247117 0.798772 0.216654
Si Si4 0.908155 0.202876 0.522271
Si Si5 0.845887 0.205452 0.405376
Si Si6 0.092175 0.296835 0.021472
Si Si7 0.408038 0.300501 0.284863
Si Si8 0.592302 0.706185 0.788142
O O1 0.248160 0.500000 0.597330
O O2 0.249929 0.230164 0.655456
O O3 0.167419 0.246513 0.561688
O O4 0.332540 0.251549 0.560808
O O5 0.851223 0.500000 0.901782
O O6 0.751076 0.754649 0.903344
O O7 0.891006 0.766851 0.848451
O O8 0.888891 0.760569 0.959755
O O9 0.332048 0.769954 0.249668
O O10 0.167880 0.733308 0.250580
O O11 0.235851 0.000000 0.213062
O O12 0.887076 0.263880 0.461322
O O13 0.000000 0.263235 0.539303
O O14 0.910938 0.000000 0.519713
O O15 0.890826 0.259078 0.350238
O O16 0.847848 0.000000 0.406070
O O17 0.091020 0.500000 0.019807
O O18 0.000000 0.237903 0.038507
O O19 0.500000 0.232607 0.270563
O O20 0.408561 0.500000 0.276192
O O21 0.500000 0.758207 0.770359
O O22 0.594060 0.500000 0.788014
#
# Coordination Sequence:
#
# PCOD9373552 Si02
#       8
#     8   8   8   8   8   8   8   8
#     4  11  24  39  57  82 116 153 194 246 295 339
#     4  10  18  34  61  87 114 149 190 233 278 339
#     4  10  22  40  59  81 108 149 198 237 279 334
#     4  10  20  36  60  87 114 146 188 237 288 347
#     4   9  15  28  55  87 112 137 176 225 276 332
#     4  10  21  38  61  87 115 153 199 240 283 343
#     4  11  24  39  57  85 118 150 186 234 293 347
#     4   9  16  29  54  85 110 132 170 226 278 326
#
# _framework density 20.416819
#
# number of rings (size 3 to 8) (size 9 to 14) (size 15 to 20)
#    0.000    2.000    2.500    1.500    0.000    6.000 
#    0.000    3.750    0.000    0.375    0.000    0.000 
#    0.000    0.000    0.000    0.000    0.000    0.000 
#
# Total GULP energy -178720.983627 kJ/mol
# GULP energy per Si atom -5585.030738 kJ/mol
# Density = 2.037035 g / cm^3
# Si number density = 20.416819 Si / 1000 Ang^3
#
#
#
# Elastic Constant Matrix: (Units=GPa)
#
#
# Indices 1 2 3 4 5 6 
#
# 1 210.2391 6.7598 99.7929 0.0000 0.0000 0.0000
# 2 6.7598 16.5631 4.7487 0.0000 0.0000 0.0000
# 3 99.7929 4.7487 168.7265 0.0000 0.0000 0.0000
# 4 0.0000 0.0000 0.0000 20.8059 0.0000 0.0000
# 5 0.0000 0.0000 0.0000 0.0000 -1.8801 0.0000
# 6 0.0000 0.0000 0.0000 0.0000 0.0000 12.1607
#
#
#
# Elastic Compliance Matrix: (Units=1/GPa)
#
#
# Indices 1 2 3 4 5 6 
#
# 1 0.006655 -0.001600 -0.003891 0.000000 0.000000 0.000000
# 2 -0.001600 0.061251 -0.000777 0.000000 0.000000 0.000000
# 3 -0.003891 -0.000777 0.008250 0.000000 0.000000 0.000000
# 4 0.000000 0.000000 0.000000 0.048063 0.000000 0.000000
# 5 0.000000 0.000000 0.000000 0.000000 -0.531896 0.000000
# 6 0.000000 0.000000 0.000000 0.000000 0.000000 0.082232
#
#
# Mechanical properties :
#
#
# Convention : Reuss Voigt Hill
#
# Bulk Modulus (GPa) = 15.71864 68.68127 42.19996
# Shear Modulus (GPa) = -17.14085 25.16578 4.01246
#
# Velocity S-wave (km/s) = -2.90063 3.51465 1.40340
# Velocity P-wave (km/s) = 1.87154 7.08399 4.83116
#
# Compressibility (1/GPa) = 0.06361874
#
# Stress axis : x y z
#
# Youngs Moduli (GPa) = 150.26652 16.32616 121.21330
#
# Poissons Ratio (x) = 0.02613 0.47163
# Poissons Ratio (y) = 0.24049 0.09422
# Poissons Ratio (z) = 0.58468 0.01269
#
# Static dielectric constant tensor:
#      x y z
#    x 1.772070 0.000000 0.000000 
#    y 0.000000 1.749610 0.000000 
#    z 0.000000 0.000000 1.707230 
# 
# From -- ./inp_files/25091.got.cif
#   From: 2010.05.17/outbox.cif.g08.bks.cpg/sg44_13_cif.got.tgz:25091.got - 2010.06.03 19:37:08.
