data_PCOD9373474
_publ_section_title
;
Structure prediction by ZEFSAII (Michael W. Deem and Ramdas Pophale) SiO2 
 PCOD9373474
Probable space group: I M M 2
;
_chemical_formula_sum "Si O2"
_cell_formula_units_Z 64
_cell_length_a 9.437163
_cell_length_b 33.826058
_cell_length_c 11.828719
_cell_angle_alpha 90.000000
_cell_angle_beta 90.000000
_cell_angle_gamma 90.000000
_cell_volume 3775.987609
_symmetry_space_group_name_H-M "I M M 2"
_symmetry_group_IT_number 44
_symmetry_cell_setting 'orthorhombic'
loop_
_space_group_symop_operation_xyz
x,y,z
-x,-y,z
-x,y,z
x,-y,z
1/2+x,1/2+y,1/2+z
1/2-x,1/2-y,1/2+z
1/2-x,1/2+y,1/2+z
1/2+x,1/2-y,1/2+z
loop_
_atom_site_type_symbol
_atom_site_label
_atom_site_fract_x
_atom_site_fract_y
_atom_site_fract_z
Si Si1 0.332646 0.766378 0.932900
Si Si2 0.832192 0.955042 0.654925
Si Si3 0.336539 0.827225 0.135819
Si Si4 0.836290 0.172022 0.791050
Si Si5 0.163662 0.888332 0.001925
Si Si6 0.336299 0.953914 0.889357
Si Si7 0.168517 0.871729 0.553359
Si Si8 0.833222 0.686793 0.900329
O O1 0.500000 0.760208 0.915130
O O2 0.265498 0.792967 0.832500
O O3 0.250007 0.725445 0.941522
O O4 0.313633 0.791272 0.048433
O O5 0.741840 0.950161 0.768722
O O6 0.800292 0.918115 0.573900
O O7 0.000000 0.951790 0.683575
O O8 0.808347 0.000000 0.611800
O O9 0.500000 0.840225 0.119456
O O10 0.231359 0.861855 0.099588
O O11 0.318177 0.815058 0.264943
O O12 0.803975 0.151805 0.671180
O O13 0.000000 0.186263 0.788065
O O14 0.827612 0.138337 0.887702
O O15 0.000000 0.897360 0.022595
O O16 0.254554 0.926978 0.977839
O O17 0.500000 0.941675 0.878999
O O18 0.331231 0.000000 0.920452
O O19 0.261888 0.851156 0.458159
O O20 0.000000 0.867819 0.529770
O O21 0.000000 0.689085 0.927401
#
# Coordination Sequence:
#
# PCOD9373474 Si02
#       8
#     8   8   8   8   8   8   8   8
#     4  10  21  37  57  79 102 137 177 221 273 323
#     4   9  17  32  54  79 110 146 182 224 276 328
#     4   9  21  40  56  73 103 139 176 220 271 320
#     4   9  18  33  52  77 108 139 171 216 269 319
#     4  10  18  32  55  79 103 137 177 218 263 314
#     4  10  19  29  46  77 114 146 175 212 263 322
#     4  10  20  35  54  80 113 145 179 224 275 325
#     4  11  24  39  55  78 107 143 184 226 270 322
#
# _framework density 16.949207000000001
#
# number of rings (size 3 to 8) (size 9 to 14) (size 15 to 20)
#    0.000    2.250    1.250    1.500    1.750    3.750 
#    0.000    0.000    0.000    0.750    0.000    3.500 
#    0.000    0.000    0.000    0.000    0.000    0.000 
#
# Total GULP energy -178542.244850 kJ/mol
# GULP energy per Si atom -5579.445152 kJ/mol
# Density = 1.691063 g / cm^3
# Si number density = 16.949207 Si / 1000 Ang^3
#
#
#
# Elastic Constant Matrix: (Units=GPa)
#
#
# Indices 1 2 3 4 5 6 
#
# 1 105.7314 78.7499 43.2963 0.0001 -0.0001 0.0000
# 2 78.7499 110.2808 30.2880 0.0001 0.0000 0.0000
# 3 43.2963 30.2880 49.1677 0.0008 0.0001 0.0003
# 4 0.0001 0.0001 0.0008 17.5876 0.0000 0.0001
# 5 -0.0001 0.0000 0.0001 0.0000 23.1014 0.0001
# 6 0.0000 0.0000 0.0003 0.0001 0.0001 29.4975
#
#
#
# Elastic Compliance Matrix: (Units=1/GPa)
#
#
# Indices 1 2 3 4 5 6 
#
# 1 0.026313 -0.014957 -0.013958 0.000001 0.000000 0.000000
# 2 -0.014957 0.019416 0.001210 0.000000 0.000000 0.000000
# 3 -0.013958 0.001210 0.031884 -0.000001 0.000000 0.000000
# 4 0.000001 0.000000 -0.000001 0.056858 0.000000 0.000000
# 5 0.000000 0.000000 0.000000 0.000000 0.043287 0.000000
# 6 0.000000 0.000000 0.000000 0.000000 0.000000 0.033901
#
#
# Mechanical properties :
#
#
# Convention : Reuss Voigt Hill
#
# Bulk Modulus (GPa) = 45.03510 63.31648 54.17579
# Shear Modulus (GPa) = 18.21698 21.56033 19.88866
#
# Velocity S-wave (km/s) = 3.28197 3.57046 3.42925
# Velocity P-wave (km/s) = 6.40235 7.37803 6.90744
#
# Compressibility (1/GPa) = 0.02220490
#
# Stress axis : x y z
#
# Youngs Moduli (GPa) = 38.00365 51.50486 31.36375
#
# Poissons Ratio (x) = 0.77033 0.43776
# Poissons Ratio (y) = 0.56840 -0.03796
# Poissons Ratio (z) = 0.53044 -0.06233
#
# Static dielectric constant tensor:
#      x y z
#    x 1.569440 0.000000 0.000000 
#    y 0.000000 1.579010 0.000000 
#    z 0.000000 0.000000 1.547020 
# 
# From -- ./inp_files/11492.got.cif
#   From: 2010.05.17/outbox.cif.g08.bks.cpg/sg44_6_cif.got.tgz:11492.got - 2010.06.03 19:37:08.
