data_PCOD9373696
_publ_section_title
;
Structure prediction by ZEFSAII (Michael W. Deem and Ramdas Pophale) SiO2 
 PCOD9373696
Probable space group: I M M 2
;
_chemical_formula_sum "Si O2"
_cell_formula_units_Z 64
_cell_length_a 27.792044
_cell_length_b 7.588942
_cell_length_c 15.565881
_cell_angle_alpha 90.000000
_cell_angle_beta 90.000000
_cell_angle_gamma 90.000000
_cell_volume 3283.034362
_symmetry_space_group_name_H-M "I M M 2"
_symmetry_group_IT_number 44
_symmetry_cell_setting 'orthorhombic'
loop_
_space_group_symop_operation_xyz
x,y,z
-x,-y,z
-x,y,z
x,-y,z
1/2+x,1/2+y,1/2+z
1/2-x,1/2-y,1/2+z
1/2-x,1/2+y,1/2+z
1/2+x,1/2-y,1/2+z
loop_
_atom_site_type_symbol
_atom_site_label
_atom_site_fract_x
_atom_site_fract_y
_atom_site_fract_z
Si Si1 0.445069 0.712408 0.080400
Si Si2 0.859461 0.290530 0.260884
Si Si3 0.277000 0.213430 0.080942
Si Si4 0.334786 0.792538 0.579057
Si Si5 0.165213 0.292538 0.889128
Si Si6 0.554931 0.712408 0.887785
Si Si7 0.223001 0.713430 0.387243
Si Si8 0.359461 0.209470 0.207301
O O1 0.500000 0.771241 0.096260
O O2 0.445586 0.500000 0.078642
O O3 0.407498 0.766384 0.152430
O O4 0.430838 0.772956 0.984092
O O5 0.851271 0.500000 0.252944
O O6 0.860084 0.218112 0.164039
O O7 0.907498 0.266384 0.315755
O O8 0.814653 0.220525 0.316885
O O9 0.222537 0.275443 0.094661
O O10 0.314653 0.279475 0.151299
O O11 0.276407 0.000000 0.083044
O O12 0.291682 0.266542 0.984092
O O13 0.344669 0.715763 0.484092
O O14 0.346389 0.000000 0.573814
O O15 0.153610 0.500000 0.894371
O O16 0.222537 0.275444 0.873524
O O17 0.139916 0.218112 0.804146
O O18 0.500000 0.771241 0.871925
O O19 0.554414 0.500000 0.889543
O O20 0.223594 0.500000 0.385141
O O21 0.351270 0.000000 0.215241
#
# Coordination Sequence:
#
# PCOD9373696 Si02
#       8
#     8   8   8   8   8   8   8   8
#     4   9  19  35  52  71  95 119 144 180 228 280
#     4  10  19  30  47  70  94 122 156 192 229 269
#     4   9  17  28  42  64  94 123 153 191 231 270
#     4   9  18  31  45  64  93 127 161 194 225 261
#     4   9  18  31  45  64  93 127 161 194 225 261
#     4   9  19  35  52  71  95 119 144 180 228 280
#     4   9  17  28  42  64  94 123 153 191 231 270
#     4  10  19  30  47  70  94 122 156 192 229 269
#
# _framework density 19.494160999999998
#
# number of rings (size 3 to 8) (size 9 to 14) (size 15 to 20)
#    0.000    2.750    0.000    2.250    0.000    4.000 
#    0.000    3.750    0.000    0.750    0.000    5.250 
#    0.000    0.000    0.000    0.000    0.000    0.000 
#
# Total GULP energy -178504.056282 kJ/mol
# GULP energy per Si atom -5578.251759 kJ/mol
# Density = 1.944979 g / cm^3
# Si number density = 19.494161 Si / 1000 Ang^3
#
#
#
# Elastic Constant Matrix: (Units=GPa)
#
#
# Indices 1 2 3 4 5 6 
#
# 1 59.5752 -10.4965 88.4539 0.0000 0.0000 0.0000
# 2 -10.4965 40.7286 6.6721 0.0000 0.0000 0.0000
# 3 88.4539 6.6721 210.8414 0.0000 0.0000 0.0000
# 4 0.0000 0.0000 0.0000 7.7845 0.0000 0.0000
# 5 0.0000 0.0000 0.0000 0.0000 21.5007 0.0000
# 6 0.0000 0.0000 0.0000 0.0000 0.0000 22.4630
#
#
#
# Elastic Compliance Matrix: (Units=1/GPa)
#
#
# Indices 1 2 3 4 5 6 
#
# 1 0.055238 0.018126 -0.023748 0.000000 0.000000 0.000000
# 2 0.018126 0.030629 -0.008574 0.000000 0.000000 0.000000
# 3 -0.023748 -0.008574 0.014977 0.000000 0.000000 0.000000
# 4 0.000000 0.000000 0.000000 0.128460 0.000000 0.000000
# 5 0.000000 0.000000 0.000000 0.000000 0.046510 0.000000
# 6 0.000000 0.000000 0.000000 0.000000 0.000000 0.044518
#
#
# Mechanical properties :
#
#
# Convention : Reuss Voigt Hill
#
# Bulk Modulus (GPa) = 13.80187 53.37823 33.59005
# Shear Modulus (GPa) = 13.40938 25.45068 19.43003
#
# Velocity S-wave (km/s) = 2.62557 3.61717 3.16050
# Velocity P-wave (km/s) = 4.03570 6.69972 5.53051
#
# Compressibility (1/GPa) = 0.07245392
#
# Stress axis : x y z
#
# Youngs Moduli (GPa) = 18.10337 32.64903 66.76897
#
# Poissons Ratio (x) = -0.59180 1.58561
# Poissons Ratio (y) = -0.32815 0.57246
# Poissons Ratio (z) = 0.42991 0.27992
#
# Static dielectric constant tensor:
#      x y z
#    x 1.635570 0.000000 0.000000 
#    y 0.000000 1.719660 0.000000 
#    z 0.000000 0.000000 1.741400 
# 
# From -- ./inp_files/7543.got.cif
#   From: 2010.05.17/outbox.cif.g08.bks.cpg/sg44_4_cif.got.tgz:7543.got - 2010.06.03 19:37:08.
