data_PCOD9373484
_publ_section_title
;
Structure prediction by ZEFSAII (Michael W. Deem and Ramdas Pophale) SiO2 
 PCOD9373484
Probable space group: I M M 2
;
_chemical_formula_sum "Si O2"
_cell_formula_units_Z 52
_cell_length_a 13.379221
_cell_length_b 12.107861
_cell_length_c 18.390800
_cell_angle_alpha 90.000000
_cell_angle_beta 90.000000
_cell_angle_gamma 90.000000
_cell_volume 2979.194624
_symmetry_space_group_name_H-M "I M M 2"
_symmetry_group_IT_number 44
_symmetry_cell_setting 'orthorhombic'
loop_
_space_group_symop_operation_xyz
x,y,z
-x,-y,z
-x,y,z
x,-y,z
1/2+x,1/2+y,1/2+z
1/2-x,1/2-y,1/2+z
1/2-x,1/2+y,1/2+z
1/2+x,1/2-y,1/2+z
loop_
_atom_site_type_symbol
_atom_site_label
_atom_site_fract_x
_atom_site_fract_y
_atom_site_fract_z
Si Si1 0.111990 0.781692 0.236140
Si Si2 0.681146 0.206211 0.308747
Si Si3 0.890017 0.868488 0.693605
Si Si4 0.616944 0.500000 0.480777
Si Si5 0.383999 0.000000 0.210303
Si Si6 0.672391 0.500000 0.647992
Si Si7 0.810333 0.367466 0.112006
Si Si8 0.620410 0.253479 0.465659
O O1 0.200311 0.781815 0.295148
O O2 0.125773 0.681130 0.179206
O O3 0.000000 0.782646 0.265532
O O4 0.132618 0.892080 0.189266
O O5 0.632458 0.313338 0.271034
O O6 0.652386 0.192955 0.392029
O O7 0.638566 0.105916 0.260621
O O8 0.802742 0.838775 0.637277
O O9 0.000000 0.833667 0.668720
O O10 0.887840 0.000000 0.701304
O O11 0.500000 0.500000 0.460813
O O12 0.630125 0.500000 0.567515
O O13 0.657365 0.380566 0.457143
O O14 0.293852 0.000000 0.151397
O O15 0.500000 0.000000 0.186290
O O16 0.820837 0.500000 0.104919
O O17 0.838506 0.305175 0.037963
O O18 0.500000 0.254764 0.471708
#
# Coordination Sequence:
#
# PCOD9373484 Si02
#       8
#     8   8   8   4   4   4   8   8
#     4  10  19  35  57  77 101 135 175 218 256 296
#     4  10  22  35  51  79 107 136 173 210 255 314
#     4   9  18  35  57  77 100 134 177 220 254 292
#     4  10  20  34  54  78 101 131 171 213 259 300
#     4  10  20  34  52  76 107 139 169 206 256 309
#     4  10  18  32  56  80 102 128 174 221 251 299
#     4  10  21  34  52  80 107 135 172 210 257 313
#     4  11  22  35  53  76 106 138 169 211 260 307
#
# _framework density 17.454381999999999
#
# number of rings (size 3 to 8) (size 9 to 14) (size 15 to 20)
#    0.000    2.000    1.538    2.538    2.154    1.231 
#    0.000    0.769    0.000    0.923    0.000    0.000 
#    0.000    0.000    0.000    0.000    0.000    0.000 
#
# Total GULP energy -144981.027489 kJ/mol
# GULP energy per Si atom -5576.193365 kJ/mol
# Density = 1.741465 g / cm^3
# Si number density = 17.454382 Si / 1000 Ang^3
#
#
#
# Elastic Constant Matrix: (Units=GPa)
#
#
# Indices 1 2 3 4 5 6 
#
# 1 115.5053 14.1476 7.6225 0.0000 0.0000 0.0000
# 2 14.1476 45.7131 0.6313 0.0000 0.0000 0.0000
# 3 7.6225 0.6313 39.7893 0.0000 0.0000 0.0000
# 4 0.0000 0.0000 0.0000 7.1673 0.0000 0.0000
# 5 0.0000 0.0000 0.0000 0.0000 10.5830 0.0000
# 6 0.0000 0.0000 0.0000 0.0000 0.0000 20.1265
#
#
#
# Elastic Compliance Matrix: (Units=1/GPa)
#
#
# Indices 1 2 3 4 5 6 
#
# 1 0.009112 -0.002797 -0.001701 0.000000 0.000000 0.000000
# 2 -0.002797 0.022739 0.000175 0.000000 0.000000 0.000000
# 3 -0.001701 0.000175 0.025456 0.000000 0.000000 0.000000
# 4 0.000000 0.000000 0.000000 0.139522 0.000000 0.000000
# 5 0.000000 0.000000 0.000000 0.000000 0.094491 0.000000
# 6 0.000000 0.000000 0.000000 0.000000 0.000000 0.049686
#
#
# Mechanical properties :
#
#
# Convention : Reuss Voigt Hill
#
# Bulk Modulus (GPa) = 20.55049 27.31228 23.93138
# Shear Modulus (GPa) = 13.66598 19.48245 16.57422
#
# Velocity S-wave (km/s) = 2.80117 3.34457 3.08486
# Velocity P-wave (km/s) = 4.71820 5.53142 5.14092
#
# Compressibility (1/GPa) = 0.04866065
#
# Stress axis : x y z
#
# Youngs Moduli (GPa) = 109.74018 43.97796 39.28418
#
# Poissons Ratio (x) = 0.12299 0.06683
# Poissons Ratio (y) = 0.30691 -0.00687
# Poissons Ratio (z) = 0.18670 -0.00770
#
# Static dielectric constant tensor:
#      x y z
#    x 1.620570 0.000000 0.000000 
#    y 0.000000 1.647020 0.000000 
#    z 0.000000 0.000000 1.549320 
# 
# From -- ./inp_files/21846.got.cif
#   From: 2010.05.17/outbox.cif.g08.bks.cpg/sg44_11_cif.got.tgz:21846.got - 2010.06.03 19:37:08.
