data_PCOD9373345
_publ_section_title
;
Structure prediction by ZEFSAII (Michael W. Deem and Ramdas Pophale) SiO2 
 PCOD9373345
Probable space group: I M M 2
;
_chemical_formula_sum "Si O2"
_cell_formula_units_Z 40
_cell_length_a 8.532479
_cell_length_b 10.051217
_cell_length_c 26.482261
_cell_angle_alpha 90.000000
_cell_angle_beta 90.000000
_cell_angle_gamma 90.000000
_cell_volume 2271.166318
_symmetry_space_group_name_H-M "I M M 2"
_symmetry_group_IT_number 44
_symmetry_cell_setting 'orthorhombic'
loop_
_space_group_symop_operation_xyz
x,y,z
-x,-y,z
-x,y,z
x,-y,z
1/2+x,1/2+y,1/2+z
1/2-x,1/2-y,1/2+z
1/2-x,1/2+y,1/2+z
1/2+x,1/2-y,1/2+z
loop_
_atom_site_type_symbol
_atom_site_label
_atom_site_fract_x
_atom_site_fract_y
_atom_site_fract_z
Si Si1 0.810896 0.000000 0.955890
Si Si2 0.691392 0.000000 0.677317
Si Si3 0.188502 0.500000 0.844772
Si Si4 0.811981 0.500000 0.294142
Si Si5 0.811409 0.000000 0.231459
Si Si6 0.814337 0.500000 0.568914
Si Si7 0.189632 0.789403 0.872640
Si Si8 0.689255 0.710696 0.646883
O O1 0.763069 0.128094 0.922381
O O2 0.743399 0.000000 0.011610
O O3 0.000000 0.000000 0.959203
O O4 0.742423 0.137203 0.651429
O O5 0.500000 0.000000 0.676886
O O6 0.739360 0.000000 0.736035
O O7 0.235454 0.500000 0.786095
O O8 0.244401 0.637401 0.869809
O O9 0.000000 0.500000 0.848076
O O10 0.751040 0.371970 0.324627
O O11 0.000000 0.500000 0.295130
O O12 0.767702 0.872004 0.197456
O O13 0.000000 0.000000 0.237336
O O14 0.752306 0.628121 0.599628
O O15 0.000000 0.500000 0.570505
O O16 0.000000 0.792011 0.870813
O O17 0.500000 0.708318 0.644278
#
# Coordination Sequence:
#
# PCOD9373345 Si02
#       8
#     4   4   4   4   4   4   8   8
#     4   9  18  36  57  70  89 126 169 208 246 292
#     4   9  17  30  51  77 102 131 168 206 238 279
#     4  10  19  31  49  75 107 136 162 199 243 285
#     4  10  18  30  50  75 104 137 170 202 238 279
#     4   9  17  29  47  72 105 142 172 197 229 280
#     4  11  22  36  54  75  97 122 159 206 256 303
#     4   9  19  34  51  74 102 132 167 202 239 290
#     4   9  18  34  53  73  99 132 170 204 238 286
#
# _framework density 17.612096999999999
#
# number of rings (size 3 to 8) (size 9 to 14) (size 15 to 20)
#    0.000    2.600    0.000    3.600    0.000    5.600 
#    0.000    3.500    0.000    3.600    0.000    0.000 
#    0.000    0.000    0.000    0.000    0.000    0.000 
#
# Total GULP energy -111561.465511 kJ/mol
# GULP energy per Si atom -5578.073276 kJ/mol
# Density = 1.757201 g / cm^3
# Si number density = 17.612097 Si / 1000 Ang^3
#
#
#
# Elastic Constant Matrix: (Units=GPa)
#
#
# Indices 1 2 3 4 5 6 
#
# 1 11.6333 29.6984 23.9559 0.0000 0.0000 0.0000
# 2 29.6984 203.3143 93.3528 0.0000 0.0000 0.0000
# 3 23.9559 93.3528 140.9253 0.0000 0.0000 0.0000
# 4 0.0000 0.0000 0.0000 3.8222 0.0000 0.0000
# 5 0.0000 0.0000 0.0000 0.0000 27.2337 0.0000
# 6 0.0000 0.0000 0.0000 0.0000 0.0000 11.8435
#
#
#
# Elastic Compliance Matrix: (Units=1/GPa)
#
#
# Indices 1 2 3 4 5 6 
#
# 1 0.161051 -0.015743 -0.016948 0.000000 0.000000 0.000000
# 2 -0.015743 0.008607 -0.003026 0.000000 0.000000 0.000000
# 3 -0.016948 -0.003026 0.011981 0.000000 0.000000 0.000000
# 4 0.000000 0.000000 0.000000 0.261631 0.000000 0.000000
# 5 0.000000 0.000000 0.000000 0.000000 0.036719 0.000000
# 6 0.000000 0.000000 0.000000 0.000000 0.000000 0.084434
#
#
# Mechanical properties :
#
#
# Convention : Reuss Voigt Hill
#
# Bulk Modulus (GPa) = 9.07397 72.20968 40.64183
# Shear Modulus (GPa) = 7.43392 22.50427 14.96909
#
# Velocity S-wave (km/s) = 2.05672 3.57847 2.91852
# Velocity P-wave (km/s) = 3.28685 7.62647 5.87224
#
# Compressibility (1/GPa) = 0.11020533
#
# Stress axis : x y z
#
# Youngs Moduli (GPa) = 6.20923 116.18050 83.46390
#
# Poissons Ratio (x) = 1.82903 1.41458
# Poissons Ratio (y) = 0.09775 0.25253
# Poissons Ratio (z) = 0.10524 0.35151
#
# Static dielectric constant tensor:
#      x y z
#    x 1.598910 0.000000 0.000000 
#    y 0.000000 1.624800 0.000000 
#    z 0.000000 0.000000 1.559320 
# 
# From -- ./inp_files/26004.got.cif
#   From: 2010.05.17/outbox.cif.g08.bks.cpg/sg44_14_cif.got.tgz:26004.got - 2010.06.03 19:37:08.
