data_PCOD9373146
_publ_section_title
;
Structure prediction by ZEFSAII (Michael W. Deem and Ramdas Pophale) SiO2 
 PCOD9373146
Probable space group: I M M 2
;
_chemical_formula_sum "Si O2"
_cell_formula_units_Z 64
_cell_length_a 19.262311
_cell_length_b 8.299146
_cell_length_c 27.237060
_cell_angle_alpha 90.000000
_cell_angle_beta 90.000000
_cell_angle_gamma 90.000000
_cell_volume 4354.136330
_symmetry_space_group_name_H-M "I M M 2"
_symmetry_group_IT_number 44
_symmetry_cell_setting 'orthorhombic'
loop_
_space_group_symop_operation_xyz
x,y,z
-x,-y,z
-x,y,z
x,-y,z
1/2+x,1/2+y,1/2+z
1/2-x,1/2-y,1/2+z
1/2-x,1/2+y,1/2+z
1/2+x,1/2-y,1/2+z
loop_
_atom_site_type_symbol
_atom_site_label
_atom_site_fract_x
_atom_site_fract_y
_atom_site_fract_z
Si Si1 0.921827 0.805950 0.485010
Si Si2 0.834588 0.807918 0.092748
Si Si3 0.706052 0.689215 0.438738
Si Si4 0.214708 0.191782 0.533848
Si Si5 0.660286 0.806640 0.888584
Si Si6 0.079291 0.802692 0.996258
Si Si7 0.079693 0.807105 0.293890
Si Si8 0.920306 0.307358 0.184924
O O1 0.866142 0.763968 0.527525
O O2 0.888635 0.751216 0.433344
O O3 0.000000 0.743466 0.491403
O O4 0.925211 0.000000 0.483553
O O5 0.758833 0.733951 0.081883
O O6 0.885493 0.754123 0.047991
O O7 0.869453 0.759779 0.143664
O O8 0.828758 0.000000 0.089939
O O9 0.697487 0.500000 0.428194
O O10 0.746904 0.712297 0.490154
O O11 0.761228 0.755806 0.399491
O O12 0.629824 0.754349 0.452156
O O13 0.221002 0.000000 0.524613
O O14 0.628856 0.751921 0.837255
O O15 0.662011 0.000000 0.890270
O O16 0.000000 0.748939 0.992726
O O17 0.079461 0.000000 0.995699
O O18 0.099208 0.744529 0.239979
O O19 0.000000 0.752671 0.303507
O O20 0.080000 0.000000 0.293179
O O21 0.920249 0.500000 0.182158
O O22 0.000000 0.249971 0.176315
#
# Coordination Sequence:
#
# PCOD9373146 Si02
#       8
#     8   8   8   8   8   8   8   8
#     4   9  17  28  41  58  81 109 140 172 206 245
#     4  10  18  28  42  59  82 111 140 167 199 241
#     4   8  15  26  38  55  79 105 133 166 203 241
#     4   9  16  26  40  57  78 105 137 171 204 238
#     4  10  18  27  40  58  81 108 137 169 205 243
#     4   8  13  22  38  58  78 103 135 165 191 225
#     4  10  20  32  44  58  78 105 137 170 202 238
#     4  10  20  32  45  62  83 105 133 170 206 238
#
# _framework density 14.698665999999999
#
# number of rings (size 3 to 8) (size 9 to 14) (size 15 to 20)
#    0.000    2.750    0.000    3.375    0.000    4.750 
#    0.000    0.000    0.000    3.375    0.000    0.000 
#    0.000    1.000    0.000    8.500    0.000    2.375 
#
# Total GULP energy -178140.298831 kJ/mol
# GULP energy per Si atom -5566.884338 kJ/mol
# Density = 1.466521 g / cm^3
# Si number density = 14.698666 Si / 1000 Ang^3
#
#
#
# Elastic Constant Matrix: (Units=GPa)
#
#
# Indices 1 2 3 4 5 6 
#
# 1 127.9620 17.0499 64.7080 0.0000 0.0000 0.0000
# 2 17.0499 12.9829 9.2932 0.0000 0.0000 0.0000
# 3 64.7080 9.2932 85.9839 0.0000 0.0000 0.0000
# 4 0.0000 0.0000 0.0000 19.3473 0.0000 0.0000
# 5 0.0000 0.0000 0.0000 0.0000 26.3488 0.0000
# 6 0.0000 0.0000 0.0000 0.0000 0.0000 14.9309
#
#
#
# Elastic Compliance Matrix: (Units=1/GPa)
#
#
# Indices 1 2 3 4 5 6 
#
# 1 0.014120 -0.011854 -0.009345 0.000000 0.000000 0.000000
# 2 -0.011854 0.093434 -0.001178 0.000000 0.000000 0.000000
# 3 -0.009345 -0.001178 0.018790 0.000000 0.000000 0.000000
# 4 0.000000 0.000000 0.000000 0.051687 0.000000 0.000000
# 5 0.000000 0.000000 0.000000 0.000000 0.037952 0.000000
# 6 0.000000 0.000000 0.000000 0.000000 0.000000 0.066975
#
#
# Mechanical properties :
#
#
# Convention : Reuss Voigt Hill
#
# Bulk Modulus (GPa) = 12.25621 45.44790 28.85205
# Shear Modulus (GPa) = 14.08815 21.18391 17.63603
#
# Velocity S-wave (km/s) = 3.09927 3.80045 3.46763
# Velocity P-wave (km/s) = 4.60040 7.08835 5.97530
#
# Compressibility (1/GPa) = 0.08159132
#
# Stress axis : x y z
#
# Youngs Moduli (GPa) = 70.82288 10.70270 53.22015
#
# Poissons Ratio (x) = 0.12687 0.49733
# Poissons Ratio (y) = 0.83952 0.06268
# Poissons Ratio (z) = 0.66182 0.01260
#
# Static dielectric constant tensor:
#      x y z
#    x 1.526450 0.000000 0.000000 
#    y 0.000000 1.511300 0.000000 
#    z 0.000000 0.000000 1.464170 
# 
# From -- ./inp_files/25217.got.cif
#   From: 2010.05.17/outbox.cif.g08.bks.cpg/sg44_13_cif.got.tgz:25217.got - 2010.06.03 19:37:08.
