data_PCOD9373463
_publ_section_title
;
Structure prediction by ZEFSAII (Michael W. Deem and Ramdas Pophale) SiO2 
 PCOD9373463
Probable space group: I M M 2
;
_chemical_formula_sum "Si O2"
_cell_formula_units_Z 64
_cell_length_a 24.569528
_cell_length_b 7.503625
_cell_length_c 15.971091
_cell_angle_alpha 90.000000
_cell_angle_beta 90.000000
_cell_angle_gamma 90.000000
_cell_volume 2944.438714
_symmetry_space_group_name_H-M "I M M 2"
_symmetry_group_IT_number 44
_symmetry_cell_setting 'orthorhombic'
loop_
_space_group_symop_operation_xyz
x,y,z
-x,-y,z
-x,y,z
x,-y,z
1/2+x,1/2+y,1/2+z
1/2-x,1/2-y,1/2+z
1/2-x,1/2+y,1/2+z
1/2+x,1/2-y,1/2+z
loop_
_atom_site_type_symbol
_atom_site_label
_atom_site_fract_x
_atom_site_fract_y
_atom_site_fract_z
Si Si1 0.876530 0.293581 0.493120
Si Si2 0.136961 0.790215 0.169567
Si Si3 0.868658 0.718267 0.677274
Si Si4 0.937758 0.284792 0.328874
Si Si5 0.250741 0.783024 0.241013
Si Si6 0.743447 0.715635 0.936598
Si Si7 0.562220 0.781742 0.338278
Si Si8 0.139412 0.707202 0.985962
O O1 0.893625 0.500000 0.497510
O O2 0.885888 0.217372 0.585479
O O3 0.907419 0.216566 0.412478
O O4 0.812037 0.286933 0.475490
O O5 0.096314 0.761353 0.246369
O O6 0.196496 0.717918 0.194856
O O7 0.118336 0.717435 0.080303
O O8 0.142821 0.000000 0.157381
O O9 0.867929 0.500000 0.675529
O O10 0.807182 0.775140 0.699730
O O11 0.908456 0.771086 0.752213
O O12 0.938282 0.500000 0.332575
O O13 0.000000 0.222886 0.324714
O O14 0.247700 0.734141 0.338785
O O15 0.250369 0.000000 0.239123
O O16 0.739486 0.500000 0.941625
O O17 0.799010 0.779431 0.980354
O O18 0.500000 0.722597 0.343239
O O19 0.598493 0.718724 0.416667
O O20 0.561496 0.000000 0.339556
O O21 0.145642 0.500000 0.962924
#
# Coordination Sequence:
#
# PCOD9373463 Si02
#       8
#     8   8   8   8   8   8   8   8
#     4  10  20  33  54  82 110 138 174 222 272 316
#     4  11  22  36  57  81 106 138 181 228 273 323
#     4   9  16  29  50  77 106 136 170 211 260 313
#     4  10  22  39  55  75 108 146 182 224 275 327
#     4   9  16  29  50  75 104 137 170 210 260 313
#     4  10  18  32  54  77 107 145 179 213 261 324
#     4   9  17  30  50  76 104 136 175 214 253 306
#     4  10  20  34  54  80 111 143 176 216 269 325
#
# _framework density 21.735890999999999
#
# number of rings (size 3 to 8) (size 9 to 14) (size 15 to 20)
#    0.000    2.250    2.500    1.125    0.000    2.750 
#    0.000    3.750    0.000    0.750    0.000    0.000 
#    0.000    0.000    0.000    0.000    0.000    0.000 
#
# Total GULP energy -178786.175415 kJ/mol
# GULP energy per Si atom -5587.067982 kJ/mol
# Density = 2.168642 g / cm^3
# Si number density = 21.735891 Si / 1000 Ang^3
#
#
#
# Elastic Constant Matrix: (Units=GPa)
#
#
# Indices 1 2 3 4 5 6 
#
# 1 138.8067 -7.3479 63.6689 0.0000 0.0000 0.0000
# 2 -7.3479 56.1430 -11.9209 0.0000 0.0000 0.0000
# 3 63.6689 -11.9209 167.4622 0.0000 0.0000 0.0000
# 4 0.0000 0.0000 0.0000 -0.7511 0.0000 0.0000
# 5 0.0000 0.0000 0.0000 0.0000 -0.3606 0.0000
# 6 0.0000 0.0000 0.0000 0.0000 0.0000 51.4077
#
#
#
# Elastic Compliance Matrix: (Units=1/GPa)
#
#
# Indices 1 2 3 4 5 6 
#
# 1 0.008737 0.000445 -0.003290 0.000000 0.000000 0.000000
# 2 0.000445 0.018108 0.001120 0.000000 0.000000 0.000000
# 3 -0.003290 0.001120 0.007302 0.000000 0.000000 0.000000
# 4 0.000000 0.000000 0.000000 -1.331301 0.000000 0.000000
# 5 0.000000 0.000000 0.000000 0.000000 -2.773177 0.000000
# 6 0.000000 0.000000 0.000000 0.000000 0.000000 0.019452
#
#
# Mechanical properties :
#
#
# Convention : Reuss Voigt Hill
#
# Bulk Modulus (GPa) = 32.57754 50.13469 41.35612
# Shear Modulus (GPa) = -1.23848 31.25998 15.01075
#
# Velocity S-wave (km/s) = -0.75566 3.79644 2.63077
# Velocity P-wave (km/s) = 3.77612 6.50636 5.31939
#
# Compressibility (1/GPa) = 0.03069599
#
# Stress axis : x y z
#
# Youngs Moduli (GPa) = 114.45651 55.22522 136.94673
#
# Poissons Ratio (x) = -0.02457 0.45057
# Poissons Ratio (y) = -0.05092 -0.15336
# Poissons Ratio (z) = 0.37657 -0.06184
#
# Static dielectric constant tensor:
#      x y z
#    x 1.752570 0.000000 0.000000 
#    y 0.000000 1.845980 0.000000 
#    z 0.000000 0.000000 1.771870 
# 
# From -- ./inp_files/16879.got.cif
#   From: 2010.05.17/outbox.cif.g08.bks.cpg/sg44_9_cif.got.tgz:16879.got - 2010.06.03 19:37:08.
