data_PCOD9373450
_publ_section_title
;
Structure prediction by ZEFSAII (Michael W. Deem and Ramdas Pophale) SiO2 
 PCOD9373450
Probable space group: I M M 2
;
_chemical_formula_sum "Si O2"
_cell_formula_units_Z 56
_cell_length_a 7.758475
_cell_length_b 20.475376
_cell_length_c 15.769129
_cell_angle_alpha 90.000000
_cell_angle_beta 90.000000
_cell_angle_gamma 90.000000
_cell_volume 2505.047451
_symmetry_space_group_name_H-M "I M M 2"
_symmetry_group_IT_number 44
_symmetry_cell_setting 'orthorhombic'
loop_
_space_group_symop_operation_xyz
x,y,z
-x,-y,z
-x,y,z
x,-y,z
1/2+x,1/2+y,1/2+z
1/2-x,1/2-y,1/2+z
1/2-x,1/2+y,1/2+z
1/2+x,1/2-y,1/2+z
loop_
_atom_site_type_symbol
_atom_site_label
_atom_site_fract_x
_atom_site_fract_y
_atom_site_fract_z
Si Si1 0.792674 0.426313 0.992660
Si Si2 0.710653 0.727519 0.674276
Si Si3 0.793267 0.138892 0.330026
Si Si4 0.704113 0.368132 0.523922
Si Si5 0.686002 0.000000 0.104823
Si Si6 0.291685 0.073761 0.857613
Si Si7 0.789132 0.377697 0.174289
Si Si8 0.306199 0.500000 0.779840
O O1 0.734823 0.500000 0.966686
O O2 0.741511 0.366628 0.930313
O O3 0.000000 0.427495 0.992745
O O4 0.732835 0.412835 0.088243
O O5 0.500000 0.727537 0.674700
O O6 0.768865 0.691770 0.761505
O O7 0.763112 0.688033 0.589147
O O8 0.765732 0.802299 0.672282
O O9 0.000000 0.139026 0.319889
O O10 0.720949 0.068238 0.302380
O O11 0.500000 0.374657 0.536911
O O12 0.794240 0.434939 0.551747
O O13 0.736235 0.369465 0.423164
O O14 0.500000 0.000000 0.147003
O O15 0.821290 0.000000 0.179067
O O16 0.500000 0.072728 0.858901
O O17 0.234704 0.089607 0.762172
O O18 0.231173 0.000000 0.880262
O O19 0.000000 0.379239 0.174132
O O20 0.500000 0.500000 0.815436
#
# Coordination Sequence:
#
# PCOD9373450 Si02
#       8
#     8   8   8   8   4   8   8   4
#     4  10  20  34  55  83 109 139 182 229 274 318
#     4   9  19  35  55  79 108 148 187 216 268 341
#     4  10  19  33  54  79 107 141 178 217 270 329
#     4  11  21  35  56  82 113 147 182 224 277 338
#     4  12  22  32  52  83 114 143 180 229 280 326
#     4  10  20  35  57  84 109 140 186 237 281 323
#     4   9  19  37  57  76 107 148 188 229 274 326
#     4  10  18  32  52  77 110 145 176 217 270 326
#
# _framework density 22.354865
#
# number of rings (size 3 to 8) (size 9 to 14) (size 15 to 20)
#    0.000    2.000    2.857    1.500    0.000    3.429 
#    0.000    0.714    0.000    5.143    0.000    0.000 
#    0.000    0.000    0.000    0.000    0.000    0.000 
#
# Total GULP energy -156163.629814 kJ/mol
# GULP energy per Si atom -5577.272493 kJ/mol
# Density = 2.230398 g / cm^3
# Si number density = 22.354865 Si / 1000 Ang^3
#
#
#
# Elastic Constant Matrix: (Units=GPa)
#
#
# Indices 1 2 3 4 5 6 
#
# 1 48.2265 6.0586 5.1502 0.0000 0.0000 0.0000
# 2 6.0586 84.1359 35.8063 0.0000 0.0000 0.0000
# 3 5.1502 35.8063 149.6590 0.0000 0.0000 0.0000
# 4 0.0000 0.0000 0.0000 75.3354 0.0000 0.0000
# 5 0.0000 0.0000 0.0000 0.0000 26.7781 0.0000
# 6 0.0000 0.0000 0.0000 0.0000 0.0000 8.5592
#
#
#
# Elastic Compliance Matrix: (Units=1/GPa)
#
#
# Indices 1 2 3 4 5 6 
#
# 1 0.020946 -0.001338 -0.000401 0.000000 0.000000 0.000000
# 2 -0.001338 0.013318 -0.003140 0.000000 0.000000 0.000000
# 3 -0.000401 -0.003140 0.007447 0.000000 0.000000 0.000000
# 4 0.000000 0.000000 0.000000 0.013274 0.000000 0.000000
# 5 0.000000 0.000000 0.000000 0.000000 0.037344 0.000000
# 6 0.000000 0.000000 0.000000 0.000000 0.000000 0.116834
#
#
# Mechanical properties :
#
#
# Convention : Reuss Voigt Hill
#
# Bulk Modulus (GPa) = 31.29517 41.78349 36.53933
# Shear Modulus (GPa) = 21.77960 37.80163 29.79061
#
# Velocity S-wave (km/s) = 3.12471 4.11661 3.65447
# Velocity P-wave (km/s) = 5.20078 6.42860 5.84701
#
# Compressibility (1/GPa) = 0.03195382
#
# Stress axis : x y z
#
# Youngs Moduli (GPa) = 47.74100 75.08435 134.28223
#
# Poissons Ratio (x) = 0.10045 0.05381
# Poissons Ratio (y) = 0.06387 0.42170
# Poissons Ratio (z) = 0.01913 0.23580
#
# Static dielectric constant tensor:
#      x y z
#    x 1.827640 0.000000 0.000000 
#    y 0.000000 1.797550 0.000000 
#    z 0.000000 0.000000 1.904980 
# 
# From -- ./inp_files/16586.got.cif
#   From: 2010.05.17/outbox.cif.g08.bks.cpg/sg44_9_cif.got.tgz:16586.got - 2010.06.03 19:37:08.
