data_PCOD9373956
_publ_section_title
;
Structure prediction by ZEFSAII (Michael W. Deem and Ramdas Pophale) SiO2 
 PCOD9373956
Probable space group: I M M 2
;
_chemical_formula_sum "Si O2"
_cell_formula_units_Z 64
_cell_length_a 21.258710
_cell_length_b 8.814475
_cell_length_c 20.214588
_cell_angle_alpha 90.000000
_cell_angle_beta 90.000000
_cell_angle_gamma 90.000000
_cell_volume 3787.897793
_symmetry_space_group_name_H-M "I M M 2"
_symmetry_group_IT_number 44
_symmetry_cell_setting 'orthorhombic'
loop_
_space_group_symop_operation_xyz
x,y,z
-x,-y,z
-x,y,z
x,-y,z
1/2+x,1/2+y,1/2+z
1/2-x,1/2-y,1/2+z
1/2-x,1/2+y,1/2+z
1/2+x,1/2-y,1/2+z
loop_
_atom_site_type_symbol
_atom_site_label
_atom_site_fract_x
_atom_site_fract_y
_atom_site_fract_z
Si Si1 0.620308 0.317914 0.044230
Si Si2 0.429519 0.818952 0.326990
Si Si3 0.685878 0.682690 0.406613
Si Si4 0.882689 0.180381 0.692700
Si Si5 0.569938 0.182964 0.911575
Si Si6 0.232432 0.318914 0.184325
Si Si7 0.759966 0.181290 0.045871
Si Si8 0.810796 0.684849 0.326260
O O1 0.620735 0.500000 0.041241
O O2 0.597948 0.274910 0.118215
O O3 0.691624 0.257617 0.037046
O O4 0.581029 0.249974 0.984309
O O5 0.500000 0.769238 0.345657
O O6 0.375762 0.750612 0.373517
O O7 0.415638 0.766627 0.252041
O O8 0.426493 0.000000 0.330218
O O9 0.682492 0.500000 0.401439
O O10 0.697076 0.722710 0.483241
O O11 0.748426 0.731609 0.366408
O O12 0.807180 0.205331 0.696585
O O13 0.893390 0.000000 0.700633
O O14 0.500000 0.222837 0.887748
O O15 0.626326 0.235147 0.863773
O O16 0.573998 0.000000 0.915994
O O17 0.224252 0.500000 0.175513
O O18 0.214947 0.235687 0.116697
O O19 0.196094 0.268122 0.250044
O O20 0.751478 0.000000 0.045373
O O21 0.810808 0.500000 0.326313
#
# Coordination Sequence:
#
# PCOD9373956 Si02
#       8
#     8   8   8   8   8   8   8   8
#     4  10  20  33  50  74 106 142 178 211 252 305
#     4  11  24  37  50  75 108 136 169 218 267 307
#     4  10  19  35  57  76 100 137 177 214 254 308
#     4   9  18  33  51  72  99 138 180 210 245 305
#     4  10  20  34  53  77 106 141 178 217 259 302
#     4   9  17  31  52  76 104 135 170 214 260 304
#     4  10  19  32  53  80 107 132 169 217 261 305
#     4   9  16  32  54  76 103 136 175 214 253 303
#
# _framework density 16.895914999999999
#
# number of rings (size 3 to 8) (size 9 to 14) (size 15 to 20)
#    0.000    2.250    2.500    1.875    0.000    5.250 
#    0.000    3.125    0.000    0.750    0.000    1.750 
#    0.000    0.000    0.000    0.000    0.000    0.000 
#
# Total GULP energy -178515.937344 kJ/mol
# GULP energy per Si atom -5578.623042 kJ/mol
# Density = 1.685746 g / cm^3
# Si number density = 16.895915 Si / 1000 Ang^3
#
#
#
# Elastic Constant Matrix: (Units=GPa)
#
#
# Indices 1 2 3 4 5 6 
#
# 1 114.2254 30.6825 74.0400 0.0000 0.0000 0.0000
# 2 30.6825 17.3333 29.0295 0.0000 0.0000 0.0000
# 3 74.0400 29.0295 127.0233 0.0000 0.0000 0.0000
# 4 0.0000 0.0000 0.0000 29.6371 0.0000 0.0000
# 5 0.0000 0.0000 0.0000 0.0000 18.6727 0.0000
# 6 0.0000 0.0000 0.0000 0.0000 0.0000 18.1773
#
#
#
# Elastic Compliance Matrix: (Units=1/GPa)
#
#
# Indices 1 2 3 4 5 6 
#
# 1 0.018738 -0.024102 -0.005414 0.000000 0.000000 0.000000
# 2 -0.024102 0.124467 -0.014397 0.000000 0.000000 0.000000
# 3 -0.005414 -0.014397 0.014318 0.000000 0.000000 0.000000
# 4 0.000000 0.000000 0.000000 0.033741 0.000000 0.000000
# 5 0.000000 0.000000 0.000000 0.000000 0.053554 0.000000
# 6 0.000000 0.000000 0.000000 0.000000 0.000000 0.055014
#
#
# Mechanical properties :
#
#
# Convention : Reuss Voigt Hill
#
# Bulk Modulus (GPa) = 14.34746 58.45399 36.40072
# Shear Modulus (GPa) = 12.16868 21.61942 16.89405
#
# Velocity S-wave (km/s) = 2.68659 3.58098 3.16553
# Velocity P-wave (km/s) = 4.25838 7.19510 5.91199
#
# Compressibility (1/GPa) = 0.06969875
#
# Stress axis : x y z
#
# Youngs Moduli (GPa) = 53.36769 8.03424 69.83977
#
# Poissons Ratio (x) = 0.19364 0.37811
# Poissons Ratio (y) = 1.28625 1.00547
# Poissons Ratio (z) = 0.28893 0.11567
#
# Static dielectric constant tensor:
#      x y z
#    x 1.563500 0.000000 0.000000 
#    y 0.000000 1.567340 0.000000 
#    z 0.000000 0.000000 1.576500 
# 
# From -- ./inp_files/22283.got.cif
#   From: 2010.05.17/outbox.cif.g08.bks.cpg/sg44_12_cif.got.tgz:22283.got - 2010.06.03 19:37:08.
