data_PCOD9373737
_publ_section_title
;
Structure prediction by ZEFSAII (Michael W. Deem and Ramdas Pophale) SiO2 
 PCOD9373737
Probable space group: I M M 2
;
_chemical_formula_sum "Si O2"
_cell_formula_units_Z 64
_cell_length_a 34.140005
_cell_length_b 9.086293
_cell_length_c 11.952325
_cell_angle_alpha 90.000000
_cell_angle_beta 90.000000
_cell_angle_gamma 90.000000
_cell_volume 3707.683986
_symmetry_space_group_name_H-M "I M M 2"
_symmetry_group_IT_number 44
_symmetry_cell_setting 'orthorhombic'
loop_
_space_group_symop_operation_xyz
x,y,z
-x,-y,z
-x,y,z
x,-y,z
1/2+x,1/2+y,1/2+z
1/2-x,1/2-y,1/2+z
1/2-x,1/2+y,1/2+z
1/2+x,1/2-y,1/2+z
loop_
_atom_site_type_symbol
_atom_site_label
_atom_site_fract_x
_atom_site_fract_y
_atom_site_fract_z
Si Si1 0.172239 0.324831 0.907500
Si Si2 0.045097 0.176160 0.413446
Si Si3 0.270614 0.824854 0.613321
Si Si4 0.123662 0.675816 0.471936
Si Si5 0.333701 0.328746 0.762230
Si Si6 0.189733 0.324784 0.651400
Si Si7 0.545664 0.167998 0.675087
Si Si8 0.391205 0.330817 0.546913
O O1 0.164411 0.500000 0.913441
O O2 0.183941 0.288110 0.781600
O O3 0.206248 0.292964 0.997918
O O4 0.134431 0.236489 0.948047
O O5 0.080580 0.252408 0.479328
O O6 0.050134 0.233803 0.286269
O O7 0.000000 0.213056 0.446760
O O8 0.049286 0.000000 0.416367
O O9 0.294580 0.747206 0.714024
O O10 0.227025 0.763024 0.606849
O O11 0.270882 0.000000 0.630461
O O12 0.120023 0.500000 0.457481
O O13 0.146512 0.744878 0.365609
O O14 0.150906 0.705268 0.579345
O O15 0.326600 0.500000 0.790519
O O16 0.364009 0.323938 0.658289
O O17 0.197687 0.500000 0.642861
O O18 0.500000 0.168340 0.646173
O O19 0.571429 0.234161 0.576859
O O20 0.557697 0.000000 0.700656
O O21 0.401410 0.500000 0.526817
#
# Coordination Sequence:
#
# PCOD9373737 Si02
#       8
#     8   8   8   8   8   8   8   8
#     4   9  20  39  57  74 103 142 183 223 271 325
#     4  10  20  34  53  79 113 149 184 227 281 336
#     4  10  21  36  57  82 105 139 183 227 275 327
#     4  11  22  35  55  83 114 147 187 230 275 332
#     4  10  20  34  53  77 109 145 179 218 270 326
#     4  10  23  40  56  79 110 145 184 231 278 326
#     4  10  19  30  49  79 112 144 177 216 266 325
#     4  10  19  32  53  79 106 140 176 219 268 317
#
# _framework density 17.261448999999999
#
# number of rings (size 3 to 8) (size 9 to 14) (size 15 to 20)
#    0.000    2.000    1.250    2.250    1.750    4.500 
#    0.000    0.000    0.000    0.750    0.000    1.750 
#    0.000    0.000    0.000    0.000    0.000    0.000 
#
# Total GULP energy -178616.779477 kJ/mol
# GULP energy per Si atom -5581.774359 kJ/mol
# Density = 1.722216 g / cm^3
# Si number density = 17.261449 Si / 1000 Ang^3
#
#
#
# Elastic Constant Matrix: (Units=GPa)
#
#
# Indices 1 2 3 4 5 6 
#
# 1 122.1995 66.0286 40.7320 0.0000 0.0000 0.0000
# 2 66.0286 82.6802 42.6387 0.0000 0.0000 0.0000
# 3 40.7320 42.6387 65.6388 0.0000 0.0000 0.0000
# 4 0.0000 0.0000 0.0000 16.8125 0.0000 0.0000
# 5 0.0000 0.0000 0.0000 0.0000 20.8946 0.0000
# 6 0.0000 0.0000 0.0000 0.0000 0.0000 34.7108
#
#
#
# Elastic Compliance Matrix: (Units=1/GPa)
#
#
# Indices 1 2 3 4 5 6 
#
# 1 0.014610 -0.010514 -0.002236 0.000000 0.000000 0.000000
# 2 -0.010514 0.025755 -0.010205 0.000000 0.000000 0.000000
# 3 -0.002236 -0.010205 0.023252 0.000000 0.000000 0.000000
# 4 0.000000 0.000000 0.000000 0.059479 0.000000 0.000000
# 5 0.000000 0.000000 0.000000 0.000000 0.047859 0.000000
# 6 0.000000 0.000000 0.000000 0.000000 0.000000 0.028810
#
#
# Mechanical properties :
#
#
# Convention : Reuss Voigt Hill
#
# Bulk Modulus (GPa) = 56.48219 63.25746 59.86983
# Shear Modulus (GPa) = 19.87455 22.55819 21.21637
#
# Velocity S-wave (km/s) = 3.39689 3.61896 3.50968
# Velocity P-wave (km/s) = 6.94102 7.36130 7.15425
#
# Compressibility (1/GPa) = 0.01770470
#
# Stress axis : x y z
#
# Youngs Moduli (GPa) = 68.44650 38.82801 43.00726
#
# Poissons Ratio (x) = 0.40825 0.09617
# Poissons Ratio (y) = 0.71967 0.43891
# Poissons Ratio (z) = 0.15305 0.39626
#
# Static dielectric constant tensor:
#      x y z
#    x 1.590500 0.000000 0.000000 
#    y 0.000000 1.581430 0.000000 
#    z 0.000000 0.000000 1.559680 
# 
# From -- ./inp_files/11486.got.cif
#   From: 2010.05.17/outbox.cif.g08.bks.cpg/sg44_6_cif.got.tgz:11486.got - 2010.06.03 19:37:08.
