data_PCOD9373407
_publ_section_title
;
Structure prediction by ZEFSAII (Michael W. Deem and Ramdas Pophale) SiO2 
 PCOD9373407
Probable space group: I M M 2
;
_chemical_formula_sum "Si O2"
_cell_formula_units_Z 56
_cell_length_a 14.676794
_cell_length_b 20.646099
_cell_length_c 6.908438
_cell_angle_alpha 90.000000
_cell_angle_beta 90.000000
_cell_angle_gamma 90.000000
_cell_volume 2093.384810
_symmetry_space_group_name_H-M "I M M 2"
_symmetry_group_IT_number 44
_symmetry_cell_setting 'orthorhombic'
loop_
_space_group_symop_operation_xyz
x,y,z
-x,-y,z
-x,y,z
x,-y,z
1/2+x,1/2+y,1/2+z
1/2-x,1/2-y,1/2+z
1/2-x,1/2+y,1/2+z
1/2+x,1/2-y,1/2+z
loop_
_atom_site_type_symbol
_atom_site_label
_atom_site_fract_x
_atom_site_fract_y
_atom_site_fract_z
Si Si1 0.634347 0.316704 0.743770
Si Si2 0.132204 0.073050 0.522342
Si Si3 0.865653 0.816704 0.800914
Si Si4 0.145733 0.573446 0.022343
Si Si5 0.352726 0.172571 0.775730
Si Si6 0.890854 0.572554 0.522343
Si Si7 0.852726 0.327429 0.768955
O O1 0.615678 0.324667 0.522342
O O2 0.603748 0.244291 0.795338
O O3 0.743544 0.317934 0.778826
O O4 0.602506 0.381108 0.847908
O O5 0.102506 0.118891 0.696777
O O6 0.243317 0.068835 0.522343
O O7 0.099951 0.000000 0.522342
O O8 0.756456 0.817934 0.765858
O O9 0.896252 0.744291 0.749346
O O10 0.106850 0.500000 0.022342
O O11 0.126056 0.658752 0.022342
O O12 0.125088 0.590071 0.776748
O O13 0.374913 0.090071 0.767938
O O14 0.848521 0.500000 0.522343
O O15 0.862700 0.652268 0.522343
O O16 0.000000 0.569360 0.522343
#
# Coordination Sequence:
#
# PCOD9373407 Si02
#       7
#     8   8   8   8   8   8   8
#     4  10  18  31  53  77 101 134 179 230 297 338
#     4   9  19  29  41  72 110 136 162 199 261 352
#     4  10  18  31  53  77 101 134 179 230 297 338
#     4   9  16  27  44  65  92 127 171 221 265 309
#     4  10  18  32  49  72  98 132 185 235 277 328
#     4  11  23  36  50  72 109 159 202 227 255 311
#     4  10  18  32  49  72  98 132 185 235 277 328
#
# _framework density 26.750935999999999
#
# number of rings (size 3 to 8) (size 9 to 14) (size 15 to 20)
#    0.000    2.143    2.857    1.714    4.000    1.714 
#    0.000    0.714    0.000    2.571    0.000    0.000 
#    0.000    9.143    0.000   10.286    0.000    0.571 
#
# Total GULP energy -156087.922895 kJ/mol
# GULP energy per Si atom -5574.568675 kJ/mol
# Density = 2.669005 g / cm^3
# Si number density = 26.750936 Si / 1000 Ang^3
#
#
#
# Elastic Constant Matrix: (Units=GPa)
#
#
# Indices 1 2 3 4 5 6 
#
# 1 123.7879 19.9410 3.5564 0.0000 0.0000 0.0000
# 2 19.9410 376.1092 171.0247 0.0000 0.0000 0.0000
# 3 3.5564 171.0247 274.7783 0.0000 0.0000 0.0000
# 4 0.0000 0.0000 0.0000 72.7709 0.0000 0.0000
# 5 0.0000 0.0000 0.0000 0.0000 -4.8318 0.0000
# 6 0.0000 0.0000 0.0000 0.0000 0.0000 -56.4453
#
#
#
# Elastic Compliance Matrix: (Units=1/GPa)
#
#
# Indices 1 2 3 4 5 6 
#
# 1 0.008158 -0.000536 0.000228 0.000000 0.000000 0.000000
# 2 -0.000536 0.003744 -0.002323 0.000000 0.000000 0.000000
# 3 0.000228 -0.002323 0.005082 0.000000 0.000000 0.000000
# 4 0.000000 0.000000 0.000000 0.013742 0.000000 0.000000
# 5 0.000000 0.000000 0.000000 0.000000 -0.206962 0.000000
# 6 0.000000 0.000000 0.000000 0.000000 0.000000 -0.017716
#
#
# Mechanical properties :
#
#
# Convention : Reuss Voigt Hill
#
# Bulk Modulus (GPa) = 85.31237 129.30216 107.30727
# Shear Modulus (GPa) = -27.05873 40.97563 6.95845
#
# Velocity S-wave (km/s) = -3.18387 3.91800 1.61457
# Velocity P-wave (km/s) = 4.29471 8.30109 6.60881
#
# Compressibility (1/GPa) = 0.01172163
#
# Stress axis : x y z
#
# Youngs Moduli (GPa) = 122.57643 267.12214 196.76233
#
# Poissons Ratio (x) = 0.14326 -0.04490
# Poissons Ratio (y) = 0.06574 0.45710
# Poissons Ratio (z) = -0.02797 0.62056
#
# Static dielectric constant tensor:
#      x y z
#    x 1.921820 0.000000 0.000000 
#    y 0.000000 2.055490 0.000000 
#    z 0.000000 0.000000 2.625200 
# 
# From -- ./inp_files/8991.got.cif
#   From: 2010.05.17/outbox.cif.g08.bks.cpg/sg44_5_cif.got.tgz:8991.got - 2010.06.03 19:37:08.
