data_PCOD9373422
_publ_section_title
;
Structure prediction by ZEFSAII (Michael W. Deem and Ramdas Pophale) SiO2 
 PCOD9373422
Probable space group: I M M 2
;
_chemical_formula_sum "Si O2"
_cell_formula_units_Z 56
_cell_length_a 20.425279
_cell_length_b 7.681767
_cell_length_c 15.931609
_cell_angle_alpha 90.000000
_cell_angle_beta 90.000000
_cell_angle_gamma 90.000000
_cell_volume 2499.705046
_symmetry_space_group_name_H-M "I M M 2"
_symmetry_group_IT_number 44
_symmetry_cell_setting 'orthorhombic'
loop_
_space_group_symop_operation_xyz
x,y,z
-x,-y,z
-x,y,z
x,-y,z
1/2+x,1/2+y,1/2+z
1/2-x,1/2-y,1/2+z
1/2-x,1/2+y,1/2+z
1/2+x,1/2-y,1/2+z
loop_
_atom_site_type_symbol
_atom_site_label
_atom_site_fract_x
_atom_site_fract_y
_atom_site_fract_z
Si Si1 0.358880 0.802668 0.295800
Si Si2 0.500000 0.301524 0.040689
Si Si3 0.625227 0.286225 0.636736
Si Si4 0.361645 0.710263 0.979983
Si Si5 0.573245 0.293184 0.458861
Si Si6 0.074277 0.788017 0.316081
Si Si7 0.500000 0.300968 0.239113
Si Si8 0.275005 0.791829 0.139276
O O1 0.369716 0.733954 0.390072
O O2 0.433353 0.791655 0.263362
O O3 0.315716 0.721613 0.220249
O O4 0.336427 0.000000 0.305925
O O5 0.500000 0.500000 0.005441
O O6 0.500000 0.314050 0.139784
O O7 0.568662 0.222723 0.014918
O O8 0.624090 0.500000 0.635889
O O9 0.592472 0.225085 0.550479
O O10 0.589516 0.230678 0.721831
O O11 0.700638 0.229811 0.639794
O O12 0.360411 0.500000 0.981091
O O13 0.368910 0.764089 0.882390
O O14 0.307983 0.761212 0.048477
O O15 0.500000 0.227827 0.434269
O O16 0.567743 0.500000 0.466666
O O17 0.000000 0.735008 0.340763
O O18 0.074271 0.000000 0.315687
O O19 0.500000 0.500000 0.274223
O O20 0.274152 0.000000 0.149271
#
# Coordination Sequence:
#
# PCOD9373422 Si02
#       8
#     8   4   8   8   8   8   4   8
#     4  11  22  34  52  80 114 145 176 218 274 329
#     4   9  16  27  47  78 109 132 164 217 267 305
#     4   9  19  36  54  75 107 144 181 224 266 314
#     4  10  18  31  54  83 109 133 170 220 271 318
#     4  10  20  35  58  83 104 135 184 233 273 313
#     4   9  16  29  55  85 106 128 171 230 277 308
#     4  11  19  31  53  78 109 142 180 225 267 315
#     4  10  22  37  51  74 112 151 180 208 259 329
#
# _framework density 22.402645
#
# number of rings (size 3 to 8) (size 9 to 14) (size 15 to 20)
#    0.000    2.143    2.857    1.071    0.000    3.429 
#    0.000    2.500    0.000    1.714    0.000    0.000 
#    0.000    0.000    0.000    0.000    0.000    0.000 
#
# Total GULP energy -156108.641494 kJ/mol
# GULP energy per Si atom -5575.308625 kJ/mol
# Density = 2.235166 g / cm^3
# Si number density = 22.402645 Si / 1000 Ang^3
#
#
#
# Elastic Constant Matrix: (Units=GPa)
#
#
# Indices 1 2 3 4 5 6 
#
# 1 74.3466 1.5617 42.5652 0.0000 0.0000 0.0000
# 2 1.5617 39.1863 7.8443 0.0000 0.0000 0.0000
# 3 42.5652 7.8443 173.3399 0.0000 0.0000 0.0000
# 4 0.0000 0.0000 0.0000 -14.3533 0.0000 0.0000
# 5 0.0000 0.0000 0.0000 0.0000 34.6414 0.0000
# 6 0.0000 0.0000 0.0000 0.0000 0.0000 8.3377
#
#
#
# Elastic Compliance Matrix: (Units=1/GPa)
#
#
# Indices 1 2 3 4 5 6 
#
# 1 0.015652 0.000147 -0.003850 0.000000 0.000000 0.000000
# 2 0.000147 0.025754 -0.001202 0.000000 0.000000 0.000000
# 3 -0.003850 -0.001202 0.006769 0.000000 0.000000 0.000000
# 4 0.000000 0.000000 0.000000 -0.069670 0.000000 0.000000
# 5 0.000000 0.000000 0.000000 0.000000 0.028867 0.000000
# 6 0.000000 0.000000 0.000000 0.000000 0.000000 0.119937
#
#
# Mechanical properties :
#
#
# Convention : Reuss Voigt Hill
#
# Bulk Modulus (GPa) = 26.06547 43.42392 34.74470
# Shear Modulus (GPa) = 33.35436 21.38528 27.36982
#
# Velocity S-wave (km/s) = 3.86276 3.09299 3.49911
# Velocity P-wave (km/s) = 5.61737 5.67282 5.64516
#
# Compressibility (1/GPa) = 0.03836493
#
# Stress axis : x y z
#
# Youngs Moduli (GPa) = 63.89093 38.82927 147.73653
#
# Poissons Ratio (x) = -0.00571 0.56880
# Poissons Ratio (y) = -0.00939 0.17751
# Poissons Ratio (z) = 0.24598 0.04666
#
# Static dielectric constant tensor:
#      x y z
#    x 1.801120 0.000000 0.000000 
#    y 0.000000 1.881820 0.000000 
#    z 0.000000 0.000000 1.872490 
# 
# From -- ./inp_files/19233.got.cif
#   From: 2010.05.17/outbox.cif.g08.bks.cpg/sg44_10_cif.got.tgz:19233.got - 2010.06.03 19:37:08.
