data_PCOD9373054
_publ_section_title
;
Structure prediction by ZEFSAII (Michael W. Deem and Ramdas Pophale) SiO2 
 PCOD9373054
Probable space group: I M M 2
;
_chemical_formula_sum "Si O2"
_cell_formula_units_Z 64
_cell_length_a 31.374769
_cell_length_b 7.662173
_cell_length_c 15.241457
_cell_angle_alpha 90.000000
_cell_angle_beta 90.000000
_cell_angle_gamma 90.000000
_cell_volume 3664.029618
_symmetry_space_group_name_H-M "I M M 2"
_symmetry_group_IT_number 44
_symmetry_cell_setting 'orthorhombic'
loop_
_space_group_symop_operation_xyz
x,y,z
-x,-y,z
-x,y,z
x,-y,z
1/2+x,1/2+y,1/2+z
1/2-x,1/2-y,1/2+z
1/2-x,1/2+y,1/2+z
1/2+x,1/2-y,1/2+z
loop_
_atom_site_type_symbol
_atom_site_label
_atom_site_fract_x
_atom_site_fract_y
_atom_site_fract_z
Si Si1 0.221353 0.298376 0.571700
Si Si2 0.452102 0.292715 0.474479
Si Si3 0.866204 0.712823 0.249163
Si Si4 0.207102 0.289090 0.377744
Si Si5 0.793033 0.710760 0.766317
Si Si6 0.952360 0.293225 0.175178
Si Si7 0.681087 0.211701 0.569882
Si Si8 0.366166 0.209258 0.394315
O O1 0.206774 0.500000 0.572026
O O2 0.208018 0.221016 0.477623
O O3 0.209050 0.220983 0.666451
O O4 0.272358 0.291247 0.569636
O O5 0.500000 0.227683 0.453961
O O6 0.453935 0.500000 0.482577
O O7 0.440525 0.224396 0.571971
O O8 0.415950 0.251266 0.403445
O O9 0.867611 0.500000 0.253838
O O10 0.835005 0.772623 0.326336
O O11 0.914656 0.776236 0.236874
O O12 0.842798 0.758412 0.158646
O O13 0.205658 0.500000 0.381568
O O14 0.250298 0.249376 0.322871
O O15 0.794536 0.500000 0.761501
O O16 0.835478 0.773417 0.816707
O O17 0.954914 0.500000 0.191900
O O18 0.000000 0.218621 0.186069
O O19 0.655213 0.270341 0.484981
O O20 0.685061 0.000000 0.567084
O O21 0.363286 0.000000 0.392820
#
# Coordination Sequence:
#
# PCOD9373054 Si02
#       8
#     8   8   8   8   8   8   8   8
#     4  10  20  31  43  64  91 119 152 190 228 261
#     4  10  20  31  44  66  94 117 140 179 227 269
#     4   9  16  27  42  63  87 115 150 181 215 260
#     4  10  19  30  45  64  89 121 154 184 224 271
#     4  10  20  32  45  64  90 117 152 191 224 259
#     4   9  16  28  46  65  87 117 152 185 218 264
#     4  10  17  27  44  64  88 118 152 187 218 255
#     4  10  19  31  46  63  86 121 155 182 216 261
#
# _framework density 17.467109000000001
#
# number of rings (size 3 to 8) (size 9 to 14) (size 15 to 20)
#    0.000    2.250    3.750    0.375    0.000    1.750 
#    0.000    0.625    0.000    0.000    0.000    0.875 
#    0.000    5.000    0.000    3.375    0.000    3.000 
#
# Total GULP energy -178367.684927 kJ/mol
# GULP energy per Si atom -5573.990154 kJ/mol
# Density = 1.742735 g / cm^3
# Si number density = 17.467109 Si / 1000 Ang^3
#
#
#
# Elastic Constant Matrix: (Units=GPa)
#
#
# Indices 1 2 3 4 5 6 
#
# 1 141.5398 1.2556 75.1457 0.0000 0.0000 0.0000
# 2 1.2556 32.2750 8.9508 0.0000 0.0000 0.0000
# 3 75.1457 8.9508 138.6056 0.0000 0.0000 0.0000
# 4 0.0000 0.0000 0.0000 2.1824 0.0000 0.0000
# 5 0.0000 0.0000 0.0000 0.0000 22.7366 0.0000
# 6 0.0000 0.0000 0.0000 0.0000 0.0000 15.2958
#
#
#
# Elastic Compliance Matrix: (Units=1/GPa)
#
#
# Indices 1 2 3 4 5 6 
#
# 1 0.009961 0.001130 -0.005473 0.000000 0.000000 0.000000
# 2 0.001130 0.031677 -0.002658 0.000000 0.000000 0.000000
# 3 -0.005473 -0.002658 0.010354 0.000000 0.000000 0.000000
# 4 0.000000 0.000000 0.000000 0.458206 0.000000 0.000000
# 5 0.000000 0.000000 0.000000 0.000000 0.043982 0.000000
# 6 0.000000 0.000000 0.000000 0.000000 0.000000 0.065378
#
#
# Mechanical properties :
#
#
# Convention : Reuss Voigt Hill
#
# Bulk Modulus (GPa) = 26.32343 53.68049 40.00196
# Shear Modulus (GPa) = 7.73726 23.18085 15.45906
#
# Velocity S-wave (km/s) = 2.10695 3.64691 2.97819
# Velocity P-wave (km/s) = 4.58497 6.96651 5.89722
#
# Compressibility (1/GPa) = 0.03798897
#
# Stress axis : x y z
#
# Youngs Moduli (GPa) = 100.39104 31.56859 96.58253
#
# Poissons Ratio (x) = -0.03569 0.52864
# Poissons Ratio (y) = -0.11348 0.25676
# Poissons Ratio (z) = 0.54948 0.08392
#
# Static dielectric constant tensor:
#      x y z
#    x 1.621120 0.000000 0.000000 
#    y 0.000000 1.659300 0.000000 
#    z 0.000000 0.000000 1.605840 
# 
# From -- ./inp_files/17089.got.cif
#   From: 2010.05.17/outbox.cif.g08.bks.cpg/sg44_9_cif.got.tgz:17089.got - 2010.06.03 19:37:08.
