data_PCOD9373762
_publ_section_title
;
Structure prediction by ZEFSAII (Michael W. Deem and Ramdas Pophale) SiO2 
 PCOD9373762
Probable space group: I M M 2
;
_chemical_formula_sum "Si O2"
_cell_formula_units_Z 64
_cell_length_a 19.917978
_cell_length_b 7.378491
_cell_length_c 19.151110
_cell_angle_alpha 90.000000
_cell_angle_beta 90.000000
_cell_angle_gamma 90.000000
_cell_volume 2814.535631
_symmetry_space_group_name_H-M "I M M 2"
_symmetry_group_IT_number 44
_symmetry_cell_setting 'orthorhombic'
loop_
_space_group_symop_operation_xyz
x,y,z
-x,-y,z
-x,y,z
x,-y,z
1/2+x,1/2+y,1/2+z
1/2-x,1/2-y,1/2+z
1/2-x,1/2+y,1/2+z
1/2+x,1/2-y,1/2+z
loop_
_atom_site_type_symbol
_atom_site_label
_atom_site_fract_x
_atom_site_fract_y
_atom_site_fract_z
Si Si1 0.422843 0.287765 0.305600
Si Si2 0.571313 0.217907 0.815956
Si Si3 0.428565 0.219724 0.653584
Si Si4 0.345886 0.280623 0.168291
Si Si5 0.924622 0.220425 0.531820
Si Si6 0.790516 0.720996 0.088258
Si Si7 0.676970 0.783195 0.428051
Si Si8 0.681074 0.703851 0.919910
O O1 0.500000 0.215201 0.306290
O O2 0.429353 0.500000 0.289463
O O3 0.373232 0.215390 0.243839
O O4 0.385384 0.277433 0.380729
O O5 0.500000 0.275319 0.847436
O O6 0.570823 0.263273 0.735054
O O7 0.632567 0.301714 0.854907
O O8 0.575915 0.000000 0.821622
O O9 0.500000 0.281241 0.622361
O O10 0.358969 0.284144 0.623786
O O11 0.428103 0.000000 0.647566
O O12 0.339299 0.500000 0.172573
O O13 0.402673 0.238643 0.110607
O O14 0.275432 0.219141 0.131903
O O15 0.865366 0.288261 0.480524
O O16 0.000000 0.284482 0.516306
O O17 0.925414 0.000000 0.524944
O O18 0.787636 0.500000 0.088831
O O19 0.804074 0.773625 0.007513
O O20 0.747705 0.724137 0.393875
O O21 0.667724 0.000000 0.429538
O O22 0.696014 0.500000 0.945797
#
# Coordination Sequence:
#
# PCOD9373762 Si02
#       8
#     8   8   8   8   8   8   8   8
#     4  10  22  38  57  83 111 141 181 226 273 328
#     4   9  18  31  47  71 103 135 168 208 255 310
#     4   8  15  27  44  69  97 125 164 213 258 303
#     4   9  16  29  50  77 105 133 171 222 271 314
#     4   9  15  25  45  71  99 131 166 211 265 311
#     4   9  16  29  50  75 103 134 172 220 268 312
#     4  10  21  36  54  79 110 141 176 219 266 319
#     4  10  19  31  47  73 106 137 171 211 256 313
#
# _framework density 22.739097000000001
#
# number of rings (size 3 to 8) (size 9 to 14) (size 15 to 20)
#    0.000    2.750    1.250    1.500    1.750    3.500 
#    0.000    1.250    0.000    2.250    0.000    0.000 
#    0.000    0.000    0.000    0.000    0.000    0.000 
#
# Total GULP energy -178278.968132 kJ/mol
# GULP energy per Si atom -5571.217754 kJ/mol
# Density = 2.268734 g / cm^3
# Si number density = 22.739097 Si / 1000 Ang^3
#
#
#
# Elastic Constant Matrix: (Units=GPa)
#
#
# Indices 1 2 3 4 5 6 
#
# 1 197.1211 5.3506 85.0220 0.0000 0.0000 0.0000
# 2 5.3506 71.5206 5.8038 0.0000 0.0000 0.0000
# 3 85.0220 5.8038 88.3857 0.0000 0.0000 0.0000
# 4 0.0000 0.0000 0.0000 26.5075 0.0000 0.0000
# 5 0.0000 0.0000 0.0000 0.0000 38.1630 0.0000
# 6 0.0000 0.0000 0.0000 0.0000 0.0000 1.3858
#
#
#
# Elastic Compliance Matrix: (Units=1/GPa)
#
#
# Indices 1 2 3 4 5 6 
#
# 1 0.008670 0.000028 -0.008342 0.000000 0.000000 0.000000
# 2 0.000028 0.014057 -0.000950 0.000000 0.000000 0.000000
# 3 -0.008342 -0.000950 0.019401 0.000000 0.000000 0.000000
# 4 0.000000 0.000000 0.000000 0.037725 0.000000 0.000000
# 5 0.000000 0.000000 0.000000 0.000000 0.026203 0.000000
# 6 0.000000 0.000000 0.000000 0.000000 0.000000 0.721596
#
#
# Mechanical properties :
#
#
# Convention : Reuss Voigt Hill
#
# Bulk Modulus (GPa) = 42.37265 61.04224 51.70744
# Shear Modulus (GPa) = 5.85447 30.60132 18.22789
#
# Velocity S-wave (km/s) = 1.60631 3.67244 2.83434
# Velocity P-wave (km/s) = 4.70266 6.69965 5.78793
#
# Compressibility (1/GPa) = 0.02360013
#
# Stress axis : x y z
#
# Youngs Moduli (GPa) = 115.33396 71.13902 51.54284
#
# Poissons Ratio (x) = -0.00201 0.42999
# Poissons Ratio (y) = -0.00327 0.04898
# Poissons Ratio (z) = 0.96216 0.06760
#
# Static dielectric constant tensor:
#      x y z
#    x 1.813700 0.000000 0.000000 
#    y 0.000000 1.830050 0.000000 
#    z 0.000000 0.000000 1.855040 
# 
# From -- ./inp_files/22184.got.cif
#   From: 2010.05.17/outbox.cif.g08.bks.cpg/sg44_12_cif.got.tgz:22184.got - 2010.06.03 19:37:08.
