data_PCOD9373219
_publ_section_title
;
Structure prediction by ZEFSAII (Michael W. Deem and Ramdas Pophale) SiO2 
 PCOD9373219
Probable space group: I M M 2
;
_chemical_formula_sum "Si O2"
_cell_formula_units_Z 64
_cell_length_a 23.978881
_cell_length_b 7.803051
_cell_length_c 19.809021
_cell_angle_alpha 90.000000
_cell_angle_beta 90.000000
_cell_angle_gamma 90.000000
_cell_volume 3706.434846
_symmetry_space_group_name_H-M "I M M 2"
_symmetry_group_IT_number 44
_symmetry_cell_setting 'orthorhombic'
loop_
_space_group_symop_operation_xyz
x,y,z
-x,-y,z
-x,y,z
x,-y,z
1/2+x,1/2+y,1/2+z
1/2-x,1/2-y,1/2+z
1/2-x,1/2+y,1/2+z
1/2+x,1/2-y,1/2+z
loop_
_atom_site_type_symbol
_atom_site_label
_atom_site_fract_x
_atom_site_fract_y
_atom_site_fract_z
Si Si1 0.780575 0.793936 0.955190
Si Si2 0.623014 0.699685 0.088938
Si Si3 0.936467 0.297922 0.725359
Si Si4 0.331161 0.790062 0.877871
Si Si5 0.750717 0.205278 0.599528
Si Si6 0.344139 0.706951 0.326191
Si Si7 0.231618 0.708862 0.247829
Si Si8 0.062005 0.701872 0.455912
O O1 0.720425 0.736368 0.925794
O O2 0.827172 0.735257 0.901521
O O3 0.780384 0.000000 0.952526
O O4 0.784423 0.742448 0.032753
O O5 0.626455 0.500000 0.070808
O O6 0.596191 0.715133 0.162753
O O7 0.685938 0.772093 0.089660
O O8 0.584500 0.783208 0.032225
O O9 0.938124 0.500000 0.711323
O O10 0.900872 0.269895 0.793013
O O11 0.000000 0.234316 0.730243
O O12 0.314526 0.736289 0.802254
O O13 0.389481 0.726971 0.907547
O O14 0.331699 0.000000 0.879222
O O15 0.727032 0.269023 0.670976
O O16 0.755463 0.000000 0.605887
O O17 0.345837 0.500000 0.325962
O O18 0.292030 0.757902 0.278227
O O19 0.230544 0.500000 0.247977
O O20 0.058169 0.500000 0.440485
O O21 0.000000 0.776601 0.449636
#
# Coordination Sequence:
#
# PCOD9373219 Si02
#       8
#     8   8   8   8   8   8   8   8
#     4   9  17  29  48  68  90 120 151 185 230 278
#     4  11  21  32  45  64  93 127 162 193 220 263
#     4  11  23  35  47  66  93 125 159 194 232 273
#     4   8  14  26  44  63  85 116 149 185 227 266
#     4  10  18  28  45  68  92 119 152 189 226 271
#     4   9  17  32  50  68  89 118 156 194 229 272
#     4   8  14  27  45  64  87 115 150 188 229 270
#     4  10  19  30  45  66  91 120 156 193 228 268
#
# _framework density 17.267265999999999
#
# number of rings (size 3 to 8) (size 9 to 14) (size 15 to 20)
#    0.000    2.500    2.500    2.625    0.000    3.750 
#    0.000    0.000    0.000    0.750    0.000    0.875 
#    0.000    3.000    0.000    0.000    0.000    0.000 
#
# Total GULP energy -178416.784870 kJ/mol
# GULP energy per Si atom -5575.524527 kJ/mol
# Density = 1.722797 g / cm^3
# Si number density = 17.267266 Si / 1000 Ang^3
#
#
#
# Elastic Constant Matrix: (Units=GPa)
#
#
# Indices 1 2 3 4 5 6 
#
# 1 69.6807 -3.2986 42.9139 0.0000 0.0000 0.0000
# 2 -3.2986 19.7124 -6.0332 0.0000 0.0000 0.0000
# 3 42.9139 -6.0332 128.8129 0.0000 0.0000 0.0000
# 4 0.0000 0.0000 0.0000 18.7997 0.0000 0.0000
# 5 0.0000 0.0000 0.0000 0.0000 17.8787 0.0000
# 6 0.0000 0.0000 0.0000 0.0000 0.0000 16.1375
#
#
#
# Elastic Compliance Matrix: (Units=1/GPa)
#
#
# Indices 1 2 3 4 5 6 
#
# 1 0.018084 0.001199 -0.005968 0.000000 0.000000 0.000000
# 2 0.001199 0.051547 0.002015 0.000000 0.000000 0.000000
# 3 -0.005968 0.002015 0.009846 0.000000 0.000000 0.000000
# 4 0.000000 0.000000 0.000000 0.053192 0.000000 0.000000
# 5 0.000000 0.000000 0.000000 0.000000 0.055932 0.000000
# 6 0.000000 0.000000 0.000000 0.000000 0.000000 0.061967
#
#
# Mechanical properties :
#
#
# Convention : Reuss Voigt Hill
#
# Bulk Modulus (GPa) = 13.51939 31.70780 22.61360
# Shear Modulus (GPa) = 17.81052 22.87145 20.34098
#
# Velocity S-wave (km/s) = 3.21512 3.64339 3.43594
# Velocity P-wave (km/s) = 4.65072 6.00849 5.37266
#
# Compressibility (1/GPa) = 0.07396782
#
# Stress axis : x y z
#
# Youngs Moduli (GPa) = 55.29850 19.39986 101.56497
#
# Poissons Ratio (x) = -0.02327 0.60618
# Poissons Ratio (y) = -0.06633 -0.20462
# Poissons Ratio (z) = 0.33004 -0.03908
#
# Static dielectric constant tensor:
#      x y z
#    x 1.582390 0.000000 0.000000 
#    y 0.000000 1.645230 0.000000 
#    z 0.000000 0.000000 1.598280 
# 
# From -- ./inp_files/22339.got.cif
#   From: 2010.05.17/outbox.cif.g08.bks.cpg/sg44_12_cif.got.tgz:22339.got - 2010.06.03 19:37:08.
