data_PCOD9373286
_publ_section_title
;
Structure prediction by ZEFSAII (Michael W. Deem and Ramdas Pophale) SiO2 
 PCOD9373286
Probable space group: I M M 2
;
_chemical_formula_sum "Si O2"
_cell_formula_units_Z 58
_cell_length_a 16.023390
_cell_length_b 7.631131
_cell_length_c 19.436559
_cell_angle_alpha 90.000000
_cell_angle_beta 90.000000
_cell_angle_gamma 90.000000
_cell_volume 2376.636120
_symmetry_space_group_name_H-M "I M M 2"
_symmetry_group_IT_number 44
_symmetry_cell_setting 'orthorhombic'
loop_
_space_group_symop_operation_xyz
x,y,z
-x,-y,z
-x,y,z
x,-y,z
1/2+x,1/2+y,1/2+z
1/2-x,1/2-y,1/2+z
1/2-x,1/2+y,1/2+z
1/2+x,1/2-y,1/2+z
loop_
_atom_site_type_symbol
_atom_site_label
_atom_site_fract_x
_atom_site_fract_y
_atom_site_fract_z
Si Si1 0.000000 0.000000 0.444160
Si Si2 0.729052 0.200550 0.275529
Si Si3 0.591607 0.700480 0.796420
Si Si4 0.638581 0.304022 0.020134
Si Si5 0.091910 0.706850 0.141198
Si Si6 0.408364 0.298120 0.377066
Si Si7 0.319543 0.788233 0.508998
Si Si8 0.407041 0.204478 0.170809
O O1 0.927495 0.846829 0.461012
O O2 0.815900 0.279543 0.305082
O O3 0.663344 0.199695 0.336892
O O4 0.674040 0.277464 0.212022
O O5 0.751926 0.000000 0.257242
O O6 0.500000 0.778345 0.815349
O O7 0.587340 0.500000 0.824861
O O8 0.590921 0.697157 0.713304
O O9 0.659183 0.500000 0.048288
O O10 0.725430 0.231908 0.992644
O O11 0.604400 0.212805 0.088415
O O12 0.103650 0.500000 0.156510
O O13 0.000000 0.725462 0.108976
O O14 0.160110 0.764119 0.086944
O O15 0.500000 0.225623 0.363819
O O16 0.406355 0.500000 0.354351
O O17 0.385612 0.289717 0.456838
O O18 0.327960 0.000000 0.503828
O O19 0.500000 0.279748 0.186904
O O20 0.409393 0.000000 0.190977
#
# Coordination Sequence:
#
# PCOD9373286 Si02
#       8
#     2   8   8   8   8   8   8   8
#     4   8  16  32  50  76 114 140 174 216 260 306
#     4  10  21  36  56  78 105 142 184 218 260 314
#     4   9  18  33  54  80 111 140 174 218 264 310
#     4   9  17  31  51  76 108 142 172 213 259 310
#     4   9  17  29  47  77 109 138 171 210 258 311
#     4  11  25  42  57  78 105 135 172 221 270 315
#     4  10  20  34  56  78 103 140 182 215 256 311
#     4  10  18  29  48  78 111 142 176 217 263 313
#
# _framework density 24.404242
#
# number of rings (size 3 to 8) (size 9 to 14) (size 15 to 20)
#    0.414    1.931    0.690    2.069    0.000    4.414 
#    0.000    1.379    1.517    0.000    0.000    0.000 
#    0.000    0.000    0.000    0.000    0.000    0.000 
#
# Total GULP energy -161457.778298 kJ/mol
# GULP energy per Si atom -5567.509596 kJ/mol
# Density = 2.434870 g / cm^3
# Si number density = 24.404242 Si / 1000 Ang^3
#
#
#
# Elastic Constant Matrix: (Units=GPa)
#
#
# Indices 1 2 3 4 5 6 
#
# 1 204.7418 15.2541 20.7562 0.0000 0.0000 0.0000
# 2 15.2541 50.5481 1.1410 0.0000 0.0000 0.0000
# 3 20.7562 1.1410 67.2589 0.0000 0.0000 0.0000
# 4 0.0000 0.0000 0.0000 25.9393 0.0000 0.0000
# 5 0.0000 0.0000 0.0000 0.0000 6.1563 0.0000
# 6 0.0000 0.0000 0.0000 0.0000 0.0000 -4.2521
#
#
#
# Elastic Compliance Matrix: (Units=1/GPa)
#
#
# Indices 1 2 3 4 5 6 
#
# 1 0.005156 -0.001521 -0.001565 0.000000 0.000000 0.000000
# 2 -0.001521 0.020239 0.000126 0.000000 0.000000 0.000000
# 3 -0.001565 0.000126 0.015349 0.000000 0.000000 0.000000
# 4 0.000000 0.000000 0.000000 0.038552 0.000000 0.000000
# 5 0.000000 0.000000 0.000000 0.000000 0.162436 0.000000
# 6 0.000000 0.000000 0.000000 0.000000 0.000000 -0.235176
#
#
# Mechanical properties :
#
#
# Convention : Reuss Voigt Hill
#
# Bulk Modulus (GPa) = 28.71586 44.09461 36.40523
# Shear Modulus (GPa) = 207.60456 24.59519 116.09987
#
# Velocity S-wave (km/s) = 9.23329 3.17807 6.90485
# Velocity P-wave (km/s) = 11.20107 5.61912 8.86111
#
# Compressibility (1/GPa) = 0.03482396
#
# Stress axis : x y z
#
# Youngs Moduli (GPa) = 193.94151 49.40912 65.15133
#
# Poissons Ratio (x) = 0.07514 0.10199
# Poissons Ratio (y) = 0.29492 -0.00821
# Poissons Ratio (z) = 0.30360 -0.00622
#
# Static dielectric constant tensor:
#      x y z
#    x 2.021700 0.000000 0.000000 
#    y 0.000000 1.970170 0.000000 
#    z 0.000000 0.000000 1.968670 
# 
# From -- ./inp_files/25697.got.cif
#   From: 2010.05.17/outbox.cif.g08.bks.cpg/sg44_13_cif.got.tgz:25697.got - 2010.06.03 19:37:08.
