data_PCOD9373870
_publ_section_title
;
Structure prediction by ZEFSAII (Michael W. Deem and Ramdas Pophale) SiO2 
 PCOD9373870
Probable space group: I M M 2
;
_chemical_formula_sum "Si O2"
_cell_formula_units_Z 64
_cell_length_a 8.916220
_cell_length_b 23.701869
_cell_length_c 19.433027
_cell_angle_alpha 90.000000
_cell_angle_beta 90.000000
_cell_angle_gamma 90.000000
_cell_volume 4106.802553
_symmetry_space_group_name_H-M "I M M 2"
_symmetry_group_IT_number 44
_symmetry_cell_setting 'orthorhombic'
loop_
_space_group_symop_operation_xyz
x,y,z
-x,-y,z
-x,y,z
x,-y,z
1/2+x,1/2+y,1/2+z
1/2-x,1/2-y,1/2+z
1/2-x,1/2+y,1/2+z
1/2+x,1/2-y,1/2+z
loop_
_atom_site_type_symbol
_atom_site_label
_atom_site_fract_x
_atom_site_fract_y
_atom_site_fract_z
Si Si1 0.178478 0.230145 0.795580
Si Si2 0.821569 0.835271 0.216212
Si Si3 0.179702 0.372175 0.937442
Si Si4 0.678431 0.335271 0.158673
Si Si5 0.678479 0.269855 0.579305
Si Si6 0.319811 0.934477 0.580433
Si Si7 0.321550 0.247853 0.937442
Si Si8 0.819811 0.565523 0.794451
O O1 0.241049 0.288606 0.763981
O O2 0.208654 0.183252 0.737237
O O3 0.256803 0.220271 0.868215
O O4 0.000000 0.235316 0.804885
O O5 0.791346 0.816748 0.137648
O O6 0.759841 0.895774 0.237971
O O7 0.000000 0.831798 0.227482
O O8 0.263678 0.312658 0.937442
O O9 0.215732 0.407758 0.869138
O O10 0.000000 0.361328 0.937442
O O11 0.215732 0.407757 0.005747
O O12 0.500000 0.331799 0.147403
O O13 0.758951 0.288606 0.110905
O O14 0.740159 0.395774 0.136914
O O15 0.500000 0.264684 0.570000
O O16 0.756804 0.279728 0.506670
O O17 0.500000 0.930793 0.588804
O O18 0.276861 0.000000 0.583138
O O19 0.500000 0.246827 0.937442
O O20 0.776862 0.500000 0.791747
O O21 0.000000 0.569208 0.786081
#
# Coordination Sequence:
#
# PCOD9373870 Si02
#       8
#     8   8   8   8   8   8   8   8
#     4  10  20  34  51  70  98 133 164 200 253 305
#     4  10  20  33  50  73  98 128 167 210 249 289
#     4  10  19  32  48  68  99 138 173 203 238 285
#     4  10  20  33  50  73  98 128 167 210 249 289
#     4  10  20  34  51  70  98 133 164 200 253 305
#     4  10  20  33  50  71  99 138 176 206 243 292
#     4  12  22  31  49  77 102 128 166 207 250 295
#     4  10  20  33  50  71  99 138 176 206 243 292
#
# _framework density 15.5839
#
# number of rings (size 3 to 8) (size 9 to 14) (size 15 to 20)
#    0.000    1.750    2.500    3.000    0.000    5.000 
#    0.000    0.000    0.000    2.250    0.000    0.875 
#    0.000    7.000    0.000    0.000    0.000    0.000 
#
# Total GULP energy -178668.485571 kJ/mol
# GULP energy per Si atom -5583.390174 kJ/mol
# Density = 1.554843 g / cm^3
# Si number density = 15.583900 Si / 1000 Ang^3
#
#
#
# Elastic Constant Matrix: (Units=GPa)
#
#
# Indices 1 2 3 4 5 6 
#
# 1 64.9638 39.7907 64.3325 0.0000 0.0000 0.0000
# 2 39.7907 79.6889 51.9942 0.0000 0.0000 0.0000
# 3 64.3325 51.9942 129.8374 0.0000 0.0000 0.0000
# 4 0.0000 0.0000 0.0000 19.8440 0.0000 0.0000
# 5 0.0000 0.0000 0.0000 0.0000 26.9145 0.0000
# 6 0.0000 0.0000 0.0000 0.0000 0.0000 23.0994
#
#
#
# Elastic Compliance Matrix: (Units=1/GPa)
#
#
# Indices 1 2 3 4 5 6 
#
# 1 0.033619 -0.008012 -0.013449 0.000000 0.000000 0.000000
# 2 -0.008012 0.018897 -0.003598 0.000000 0.000000 0.000000
# 3 -0.013449 -0.003598 0.015807 0.000000 0.000000 0.000000
# 4 0.000000 0.000000 0.000000 0.050393 0.000000 0.000000
# 5 0.000000 0.000000 0.000000 0.000000 0.037155 0.000000
# 6 0.000000 0.000000 0.000000 0.000000 0.000000 0.043291
#
#
# Mechanical properties :
#
#
# Convention : Reuss Voigt Hill
#
# Bulk Modulus (GPa) = 54.93018 65.19165 60.06092
# Shear Modulus (GPa) = 19.58120 21.86307 20.72214
#
# Velocity S-wave (km/s) = 3.54856 3.74963 3.65048
# Velocity P-wave (km/s) = 7.21902 7.78908 7.50946
#
# Compressibility (1/GPa) = 0.01820493
#
# Stress axis : x y z
#
# Youngs Moduli (GPa) = 29.74502 52.91982 63.26460
#
# Poissons Ratio (x) = 0.42397 0.85087
# Poissons Ratio (y) = 0.23830 0.22760
# Poissons Ratio (z) = 0.40005 0.19039
#
# Static dielectric constant tensor:
#      x y z
#    x 1.519870 0.000000 0.000000 
#    y 0.000000 1.493380 0.000000 
#    z 0.000000 0.000000 1.527140 
# 
# From -- ./inp_files/20847.got.cif
#   From: 2010.05.17/outbox.cif.g08.bks.cpg/sg44_11_cif.got.tgz:20847.got - 2010.06.03 19:37:08.
