data_PCOD9373125
_publ_section_title
;
Structure prediction by ZEFSAII (Michael W. Deem and Ramdas Pophale) SiO2 
 PCOD9373125
Probable space group: I M M 2
;
_chemical_formula_sum "Si O2"
_cell_formula_units_Z 64
_cell_length_a 7.522184
_cell_length_b 31.835224
_cell_length_c 12.379200
_cell_angle_alpha 90.000000
_cell_angle_beta 90.000000
_cell_angle_gamma 90.000000
_cell_volume 2964.452132
_symmetry_space_group_name_H-M "I M M 2"
_symmetry_group_IT_number 44
_symmetry_cell_setting 'orthorhombic'
loop_
_space_group_symop_operation_xyz
x,y,z
-x,-y,z
-x,y,z
x,-y,z
1/2+x,1/2+y,1/2+z
1/2-x,1/2-y,1/2+z
1/2-x,1/2+y,1/2+z
1/2+x,1/2-y,1/2+z
loop_
_atom_site_type_symbol
_atom_site_label
_atom_site_fract_x
_atom_site_fract_y
_atom_site_fract_z
Si Si1 0.282048 0.375337 0.544000
Si Si2 0.782961 0.167060 0.667892
Si Si3 0.216940 0.046121 0.897709
Si Si4 0.207349 0.870940 0.288165
Si Si5 0.286311 0.701439 0.396837
Si Si6 0.714748 0.430355 0.157885
Si Si7 0.293086 0.954339 0.416697
Si Si8 0.787899 0.201935 0.442608
O O1 0.500000 0.376550 0.542935
O O2 0.224177 0.414993 0.471337
O O3 0.219606 0.377430 0.667741
O O4 0.225956 0.331853 0.487127
O O5 0.720355 0.186466 0.779996
O O6 0.733568 0.118472 0.658286
O O7 0.719823 0.191237 0.562018
O O8 0.000000 0.168208 0.670272
O O9 0.273190 0.051021 0.772655
O O10 0.000000 0.047496 0.896704
O O11 0.270035 0.000000 0.938030
O O12 0.215591 0.913274 0.359201
O O13 0.284026 0.831736 0.355865
O O14 0.000000 0.860944 0.271305
O O15 0.500000 0.698441 0.395601
O O16 0.241583 0.749707 0.415985
O O17 0.500000 0.433126 0.155353
O O18 0.778091 0.450182 0.046256
O O19 0.500000 0.954124 0.388025
O O20 0.217055 0.000000 0.384969
O O21 0.000000 0.194923 0.446708
#
# Coordination Sequence:
#
# PCOD9373125 Si02
#       8
#     8   8   8   8   8   8   8   8
#     4   9  18  33  53  80 113 142 177 228 275 317
#     4   9  17  33  56  78 107 144 178 221 270 319
#     4   9  16  27  50  84 113 137 174 226 276 320
#     4  10  21  38  59  80 107 145 186 228 270 318
#     4  10  20  35  56  80 108 144 181 219 273 330
#     4  10  17  33  59  84 109 142 182 221 269 326
#     4  11  24  39  55  80 114 146 178 224 276 323
#     4  10  21  36  53  78 111 142 181 230 270 310
#
# _framework density 21.589151000000001
#
# number of rings (size 3 to 8) (size 9 to 14) (size 15 to 20)
#    0.000    2.250    2.500    0.750    1.750    2.500 
#    0.000    2.500    0.000    0.750    0.000    1.750 
#    0.000    0.000    0.000    0.000    0.000    0.000 
#
# Total GULP energy -178723.253609 kJ/mol
# GULP energy per Si atom -5585.101675 kJ/mol
# Density = 2.154001 g / cm^3
# Si number density = 21.589151 Si / 1000 Ang^3
#
#
#
# Elastic Constant Matrix: (Units=GPa)
#
#
# Indices 1 2 3 4 5 6 
#
# 1 50.2449 -10.0278 -1.2623 0.0000 0.0000 0.0001
# 2 -10.0278 177.4158 82.4729 0.0011 0.0000 0.0000
# 3 -1.2623 82.4729 160.8049 0.0016 -0.0001 -0.0002
# 4 0.0000 0.0011 0.0016 102.7535 -0.0008 -0.0011
# 5 0.0000 0.0000 -0.0001 -0.0008 -13.2704 0.0000
# 6 0.0001 0.0000 -0.0002 -0.0011 0.0000 181.6943
#
#
#
# Elastic Compliance Matrix: (Units=1/GPa)
#
#
# Indices 1 2 3 4 5 6 
#
# 1 0.020168 0.001400 -0.000560 0.000000 0.000000 0.000000
# 2 0.001400 0.007498 -0.003835 0.000000 0.000000 0.000000
# 3 -0.000560 -0.003835 0.008181 0.000000 0.000000 0.000000
# 4 0.000000 0.000000 0.000000 0.009732 -0.000001 0.000000
# 5 0.000000 0.000000 0.000000 -0.000001 -0.075356 0.000000
# 6 0.000000 0.000000 0.000000 0.000000 0.000000 0.005504
#
#
# Mechanical properties :
#
#
# Convention : Reuss Voigt Hill
#
# Bulk Modulus (GPa) = 33.49131 58.98126 46.23628
# Shear Modulus (GPa) = -600.11796 75.38768 -262.36514
#
# Velocity S-wave (km/s) = -16.69058 5.91566 -11.03586
# Velocity P-wave (km/s) = 18.86497 8.60461 11.87114
#
# Compressibility (1/GPa) = 0.02985850
#
# Stress axis : x y z
#
# Youngs Moduli (GPa) = 49.58380 133.36586 122.23422
#
# Poissons Ratio (x) = -0.18673 0.06842
# Poissons Ratio (y) = -0.06942 0.46872
# Poissons Ratio (z) = 0.02776 0.51141
#
# Static dielectric constant tensor:
#      x y z
#    x 1.826890 0.000000 0.000000 
#    y 0.000000 1.752760 0.000000 
#    z 0.000000 0.000000 1.760370 
# 
# From -- ./inp_files/11477.got.cif
#   From: 2010.05.17/outbox.cif.g08.bks.cpg/sg44_6_cif.got.tgz:11477.got - 2010.06.03 19:37:08.
