data_PCOD9373863
_publ_section_title
;
Structure prediction by ZEFSAII (Michael W. Deem and Ramdas Pophale) SiO2 
 PCOD9373863
Probable space group: I M M 2
;
_chemical_formula_sum "Si O2"
_cell_formula_units_Z 56
_cell_length_a 22.776997
_cell_length_b 8.500435
_cell_length_c 15.028674
_cell_angle_alpha 90.000000
_cell_angle_beta 90.000000
_cell_angle_gamma 90.000000
_cell_volume 2909.767436
_symmetry_space_group_name_H-M "I M M 2"
_symmetry_group_IT_number 44
_symmetry_cell_setting 'orthorhombic'
loop_
_space_group_symop_operation_xyz
x,y,z
-x,-y,z
-x,y,z
x,-y,z
1/2+x,1/2+y,1/2+z
1/2-x,1/2-y,1/2+z
1/2-x,1/2+y,1/2+z
1/2+x,1/2-y,1/2+z
loop_
_atom_site_type_symbol
_atom_site_label
_atom_site_fract_x
_atom_site_fract_y
_atom_site_fract_z
Si Si1 0.000000 0.687545 0.398760
Si Si2 0.500000 0.187916 0.102197
Si Si3 0.352313 0.308695 0.401707
Si Si4 0.890667 0.810144 0.714375
Si Si5 0.219072 0.811242 0.594214
Si Si6 0.784423 0.688275 0.399402
Si Si7 0.149207 0.809524 0.099981
Si Si8 0.609206 0.687471 0.787001
O O1 0.057357 0.741299 0.345413
O O2 0.000000 0.500000 0.403034
O O3 0.000000 0.748802 0.500416
O O4 0.442935 0.243862 0.155515
O O5 0.500000 0.000000 0.098909
O O6 0.354174 0.500000 0.402034
O O7 0.389432 0.255187 0.316890
O O8 0.283812 0.266142 0.387154
O O9 0.369564 0.256140 0.501033
O O10 0.828479 0.769791 0.668810
O O11 0.895390 0.000000 0.714085
O O12 0.199701 0.739613 0.499627
O O13 0.283987 0.747389 0.613630
O O14 0.221550 0.000000 0.586972
O O15 0.788541 0.500000 0.391094
O O16 0.828834 0.766721 0.331101
O O17 0.110844 0.758092 0.184160
O O18 0.150008 0.000000 0.099305
O O19 0.602699 0.500000 0.787883
#
# Coordination Sequence:
#
# PCOD9373863 Si02
#       8
#     4   4   8   8   8   8   8   8
#     4  11  25  43  60  77 102 142 183 221 274 333
#     4  11  25  41  56  77 104 134 173 221 272 323
#     4   8  16  33  55  79 107 141 179 213 253 315
#     4  10  20  35  56  78 103 140 181 218 259 311
#     4  10  19  31  52  84 115 143 181 225 268 318
#     4  10  19  33  54  80 113 149 181 219 271 327
#     4   9  19  35  55  81 114 147 177 216 270 325
#     4  11  22  36  56  82 110 142 183 229 273 321
#
# _framework density 19.245524
#
# number of rings (size 3 to 8) (size 9 to 14) (size 15 to 20)
#    0.000    2.143    0.000    4.286    0.000    6.857 
#    0.000    4.286    0.000    4.286    0.000    0.000 
#    0.000    0.000    0.000    0.000    0.000    0.000 
#
# Total GULP energy -156316.018661 kJ/mol
# GULP energy per Si atom -5582.714952 kJ/mol
# Density = 1.920172 g / cm^3
# Si number density = 19.245524 Si / 1000 Ang^3
#
#
#
# Elastic Constant Matrix: (Units=GPa)
#
#
# Indices 1 2 3 4 5 6 
#
# 1 49.6084 11.9233 85.1511 0.0000 0.0000 0.0000
# 2 11.9233 17.1452 32.1061 0.0000 0.0000 0.0000
# 3 85.1511 32.1061 194.2446 0.0000 0.0000 0.0000
# 4 0.0000 0.0000 0.0000 19.3306 0.0000 0.0000
# 5 0.0000 0.0000 0.0000 0.0000 31.3961 0.0000
# 6 0.0000 0.0000 0.0000 0.0000 0.0000 18.5747
#
#
#
# Elastic Compliance Matrix: (Units=1/GPa)
#
#
# Indices 1 2 3 4 5 6 
#
# 1 0.084105 0.015282 -0.039395 0.000000 0.000000 0.000000
# 2 0.015282 0.087247 -0.021120 0.000000 0.000000 0.000000
# 3 -0.039395 -0.021120 0.025909 0.000000 0.000000 0.000000
# 4 0.000000 0.000000 0.000000 0.051732 0.000000 0.000000
# 5 0.000000 0.000000 0.000000 0.000000 0.031851 0.000000
# 6 0.000000 0.000000 0.000000 0.000000 0.000000 0.053837
#
#
# Mechanical properties :
#
#
# Convention : Reuss Voigt Hill
#
# Bulk Modulus (GPa) = 9.36380 57.70657 33.53519
# Shear Modulus (GPa) = 10.85201 22.64813 16.75007
#
# Velocity S-wave (km/s) = 2.37717 3.43417 2.95335
# Velocity P-wave (km/s) = 3.52287 6.76567 5.39374
#
# Compressibility (1/GPa) = 0.10679425
#
# Stress axis : x y z
#
# Youngs Moduli (GPa) = 11.88986 11.46176 38.59717
#
# Poissons Ratio (x) = -0.17516 1.52054
# Poissons Ratio (y) = -0.18170 0.81516
# Poissons Ratio (z) = 0.46840 0.24207
#
# Static dielectric constant tensor:
#      x y z
#    x 1.634740 0.000000 0.000000 
#    y 0.000000 1.654650 0.000000 
#    z 0.000000 0.000000 1.710330 
# 
# From -- ./inp_files/19217.got.cif
#   From: 2010.05.17/outbox.cif.g08.bks.cpg/sg44_10_cif.got.tgz:19217.got - 2010.06.03 19:37:08.
