data_PCOD9373936
_publ_section_title
;
Structure prediction by ZEFSAII (Michael W. Deem and Ramdas Pophale) SiO2 
 PCOD9373936
Probable space group: I M M 2
;
_chemical_formula_sum "Si O2"
_cell_formula_units_Z 48
_cell_length_a 16.641021
_cell_length_b 17.007532
_cell_length_c 8.297178
_cell_angle_alpha 90.000000
_cell_angle_beta 90.000000
_cell_angle_gamma 90.000000
_cell_volume 2348.289696
_symmetry_space_group_name_H-M "I M M 2"
_symmetry_group_IT_number 44
_symmetry_cell_setting 'orthorhombic'
loop_
_space_group_symop_operation_xyz
x,y,z
-x,-y,z
-x,y,z
x,-y,z
1/2+x,1/2+y,1/2+z
1/2-x,1/2-y,1/2+z
1/2-x,1/2+y,1/2+z
1/2+x,1/2-y,1/2+z
loop_
_atom_site_type_symbol
_atom_site_label
_atom_site_fract_x
_atom_site_fract_y
_atom_site_fract_z
Si Si1 0.412613 0.912254 0.170300
Si Si2 0.913643 0.122558 0.350319
Si Si3 0.910733 0.090735 0.730665
Si Si4 0.412090 0.186805 0.850063
Si Si5 0.754201 0.357549 0.813203
Si Si6 0.745556 0.317229 0.189970
O O1 0.500000 0.903028 0.252095
O O2 0.335783 0.903158 0.281907
O O3 0.410669 0.000000 0.098133
O O4 0.408833 0.848519 0.028834
O O5 0.913407 0.093272 0.534730
O O6 0.910842 0.218142 0.355206
O O7 0.829620 0.099785 0.268652
O O8 0.000000 0.099562 0.277543
O O9 0.832224 0.141955 0.771736
O O10 0.000000 0.119132 0.784341
O O11 0.901118 0.000000 0.780207
O O12 0.500000 0.164126 0.781098
O O13 0.331944 0.158604 0.761223
O O14 0.760519 0.275907 0.716816
O O15 0.746203 0.337111 0.001611
#
# Coordination Sequence:
#
# PCOD9373936 Si02
#       6
#     8   8   8   8   8   8
#     4  10  21  36  53  74 103 141 180 217 264 319
#     4   8  15  29  50  73  97 126 162 206 253 303
#     4   9  17  29  46  70  99 130 164 201 244 297
#     4   9  18  35  56  76 100 132 171 214 263 319
#     4  10  19  32  52  77 106 136 172 214 259 309
#     4  10  20  33  53  80 105 133 171 214 261 313
#
# _framework density 20.440408000000001
#
# number of rings (size 3 to 8) (size 9 to 14) (size 15 to 20)
#    0.000    2.667    0.000    3.000    0.000    6.000 
#    0.000    0.000    0.000    5.000    0.000    0.000 
#    0.000    2.667    0.000    0.000    0.000    0.000 
#
# Total GULP energy -133707.626639 kJ/mol
# GULP energy per Si atom -5571.151110 kJ/mol
# Density = 2.039388 g / cm^3
# Si number density = 20.440408 Si / 1000 Ang^3
#
#
#
# Elastic Constant Matrix: (Units=GPa)
#
#
# Indices 1 2 3 4 5 6 
#
# 1 240.8707 39.1904 24.9258 0.0000 0.0000 0.0000
# 2 39.1904 42.1425 2.5147 0.0000 0.0000 0.0000
# 3 24.9258 2.5147 15.2424 0.0000 0.0000 0.0000
# 4 0.0000 0.0000 0.0000 -3.4651 0.0000 0.0000
# 5 0.0000 0.0000 0.0000 0.0000 31.5464 0.0000
# 6 0.0000 0.0000 0.0000 0.0000 0.0000 128.5860
#
#
#
# Elastic Compliance Matrix: (Units=1/GPa)
#
#
# Indices 1 2 3 4 5 6 
#
# 1 0.005861 -0.004927 -0.008771 0.000000 0.000000 0.000000
# 2 -0.004927 0.028107 0.003420 0.000000 0.000000 0.000000
# 3 -0.008771 0.003420 0.079386 0.000000 0.000000 0.000000
# 4 0.000000 0.000000 0.000000 -0.288591 0.000000 0.000000
# 5 0.000000 0.000000 0.000000 0.000000 0.031699 0.000000
# 6 0.000000 0.000000 0.000000 0.000000 0.000000 0.007777
#
#
# Mechanical properties :
#
#
# Convention : Reuss Voigt Hill
#
# Bulk Modulus (GPa) = 10.77621 47.94637 29.36129
# Shear Modulus (GPa) = -59.33184 46.77510 -6.27837
#
# Velocity S-wave (km/s) = -5.39349 4.78887 -1.75448
# Velocity P-wave (km/s) = 5.78817 7.35427 3.20799
#
# Compressibility (1/GPa) = 0.09279700
#
# Stress axis : x y z
#
# Youngs Moduli (GPa) = 170.62141 35.57863 12.59662
#
# Poissons Ratio (x) = 0.17529 0.11049
# Poissons Ratio (y) = 0.84064 -0.04308
# Poissons Ratio (z) = 1.49661 -0.12168
#
# Static dielectric constant tensor:
#      x y z
#    x 1.834350 0.000000 0.000000 
#    y 0.000000 1.727290 0.000000 
#    z 0.000000 0.000000 1.702040 
# 
# From -- ./inp_files/7088.got.cif
#   From: 2010.05.17/outbox.cif.g08.bks.cpg/sg44_4_cif.got.tgz:7088.got - 2010.06.03 19:37:08.
