data_PCOD9373745
_publ_section_title
;
Structure prediction by ZEFSAII (Michael W. Deem and Ramdas Pophale) SiO2 
 PCOD9373745
Probable space group: I M M 2
;
_chemical_formula_sum "Si O2"
_cell_formula_units_Z 56
_cell_length_a 23.015176
_cell_length_b 8.926930
_cell_length_c 18.125405
_cell_angle_alpha 90.000000
_cell_angle_beta 90.000000
_cell_angle_gamma 90.000000
_cell_volume 3723.952639
_symmetry_space_group_name_H-M "I M M 2"
_symmetry_group_IT_number 44
_symmetry_cell_setting 'orthorhombic'
loop_
_space_group_symop_operation_xyz
x,y,z
-x,-y,z
-x,y,z
x,-y,z
1/2+x,1/2+y,1/2+z
1/2-x,1/2-y,1/2+z
1/2-x,1/2+y,1/2+z
1/2+x,1/2-y,1/2+z
loop_
_atom_site_type_symbol
_atom_site_label
_atom_site_fract_x
_atom_site_fract_y
_atom_site_fract_z
Si Si1 0.778777 0.822289 0.001370
Si Si2 0.844071 0.180320 0.547730
Si Si3 0.816551 0.327435 0.144612
Si Si4 0.222978 0.677925 0.848294
Si Si5 0.846752 0.319986 0.303365
Si Si6 0.432417 0.679718 0.918929
Si Si7 0.816289 0.172604 0.705721
O O1 0.713592 0.761288 0.017802
O O2 0.816854 0.771989 0.071714
O O3 0.777489 0.000000 0.994257
O O4 0.798215 0.746861 0.925192
O O5 0.897517 0.213888 0.494212
O O6 0.852738 0.220239 0.633819
O O7 0.833293 0.000000 0.545857
O O8 0.829842 0.500000 0.125706
O O9 0.852842 0.280446 0.216608
O O10 0.750054 0.324682 0.174901
O O11 0.227104 0.500000 0.853229
O O12 0.287368 0.745428 0.833197
O O13 0.184157 0.727802 0.778558
O O14 0.840339 0.500000 0.307632
O O15 0.899231 0.262767 0.353068
O O16 0.500000 0.719598 0.923439
O O17 0.427951 0.500000 0.907556
O O18 0.829631 0.000000 0.724783
#
# Coordination Sequence:
#
# PCOD9373745 Si02
#       7
#     8   8   8   8   8   8   8
#     4  11  19  26  41  64  87 113 146 177 210 260
#     4   9  17  30  44  58  83 116 144 180 222 255
#     4   8  16  29  42  58  83 112 142 175 216 263
#     4  11  19  27  41  61  87 116 144 176 216 260
#     4  10  19  31  45  61  83 114 148 184 223 259
#     4  10  20  32  47  66  87 117 155 188 220 259
#     4   8  15  27  41  58  81 110 144 176 212 258
#
# _framework density 15.037785
#
# number of rings (size 3 to 8) (size 9 to 14) (size 15 to 20)
#    0.000    2.429    1.429    4.714    0.000    6.000 
#    0.000    0.000    0.000    0.000    0.000    0.000 
#    0.000    1.143    0.000    6.000    0.000    3.000 
#
# Total GULP energy -156012.528444 kJ/mol
# GULP energy per Si atom -5571.876016 kJ/mol
# Density = 1.500356 g / cm^3
# Si number density = 15.037785 Si / 1000 Ang^3
#
#
#
# Elastic Constant Matrix: (Units=GPa)
#
#
# Indices 1 2 3 4 5 6 
#
# 1 46.8174 23.2876 45.8695 0.0000 0.0000 0.0000
# 2 23.2876 73.4155 69.6941 0.0000 0.0000 0.0000
# 3 45.8695 69.6941 155.4834 0.0000 0.0000 0.0000
# 4 0.0000 0.0000 0.0000 28.4673 0.0000 0.0000
# 5 0.0000 0.0000 0.0000 0.0000 12.6178 0.0000
# 6 0.0000 0.0000 0.0000 0.0000 0.0000 -5.3654
#
#
#
# Elastic Compliance Matrix: (Units=1/GPa)
#
#
# Indices 1 2 3 4 5 6 
#
# 1 0.030203 -0.001953 -0.008035 0.000000 0.000000 0.000000
# 2 -0.001953 0.023837 -0.010108 0.000000 0.000000 0.000000
# 3 -0.008035 -0.010108 0.013333 0.000000 0.000000 0.000000
# 4 0.000000 0.000000 0.000000 0.035128 0.000000 0.000000
# 5 0.000000 0.000000 0.000000 0.000000 0.079253 0.000000
# 6 0.000000 0.000000 0.000000 0.000000 0.000000 -0.186380
#
#
# Mechanical properties :
#
#
# Convention : Reuss Voigt Hill
#
# Bulk Modulus (GPa) = 36.79140 61.49097 49.14118
# Shear Modulus (GPa) = 112.04223 16.26829 64.15526
#
# Velocity S-wave (km/s) = 8.64112 3.29268 6.53876
# Velocity P-wave (km/s) = 11.13901 7.44550 9.47399
#
# Compressibility (1/GPa) = 0.02718027
#
# Stress axis : x y z
#
# Youngs Moduli (GPa) = 33.10903 41.95233 75.00207
#
# Poissons Ratio (x) = 0.08193 0.60264
# Poissons Ratio (y) = 0.06466 0.75815
# Poissons Ratio (z) = 0.26603 0.42407
#
# Static dielectric constant tensor:
#      x y z
#    x 1.464590 0.000000 0.000000 
#    y 0.000000 1.502210 0.000000 
#    z 0.000000 0.000000 1.541700 
# 
# From -- ./inp_files/20684.got.cif
#   From: 2010.05.17/outbox.cif.g08.bks.cpg/sg44_11_cif.got.tgz:20684.got - 2010.06.03 19:37:08.
