data_PCOD9373558
_publ_section_title
;
Structure prediction by ZEFSAII (Michael W. Deem and Ramdas Pophale) SiO2 
 PCOD9373558
Probable space group: I M M 2
;
_chemical_formula_sum "Si O2"
_cell_formula_units_Z 34
_cell_length_a 7.673700
_cell_length_b 14.025252
_cell_length_c 12.606784
_cell_angle_alpha 90.000000
_cell_angle_beta 90.000000
_cell_angle_gamma 90.000000
_cell_volume 1356.812393
_symmetry_space_group_name_H-M "I M M 2"
_symmetry_group_IT_number 44
_symmetry_cell_setting 'orthorhombic'
loop_
_space_group_symop_operation_xyz
x,y,z
-x,-y,z
-x,y,z
x,-y,z
1/2+x,1/2+y,1/2+z
1/2-x,1/2-y,1/2+z
1/2-x,1/2+y,1/2+z
1/2+x,1/2-y,1/2+z
loop_
_atom_site_type_symbol
_atom_site_label
_atom_site_fract_x
_atom_site_fract_y
_atom_site_fract_z
Si Si1 0.691877 0.136750 0.892950
Si Si2 0.292338 0.675997 0.627666
Si Si3 0.202173 0.138766 0.352170
Si Si4 0.787509 0.895531 0.586544
Si Si5 0.000000 0.000000 0.829589
O O1 0.500000 0.104326 0.861454
O O2 0.702866 0.247768 0.866455
O O3 0.848106 0.081829 0.839751
O O4 0.712097 0.133959 0.020675
O O5 0.500000 0.660020 0.622011
O O6 0.223548 0.626103 0.734721
O O7 0.267364 0.791775 0.630042
O O8 0.274528 0.102930 0.463525
O O9 0.000000 0.107357 0.349224
O O10 0.000000 0.894062 0.589069
O O11 0.737164 0.000000 0.631556
#
# Coordination Sequence:
#
# PCOD9373558 Si02
#       5
#     8   8   8   8   2
#     4  10  21  40  59  85 121 156 191 243 297 351
#     4  10  18  35  58  85 113 155 197 234 295 357
#     4   8  17  35  58  81 113 157 191 234 299 347
#     4   9  18  35  55  81 111 149 194 244 292 341
#     4  12  22  40  60  90 114 154 202 240 292 350
#
# _framework density 25.058733
#
# number of rings (size 3 to 8) (size 9 to 14) (size 15 to 20)
#    0.000    2.588    1.176    2.471    0.000    0.471 
#    8.471    0.000    0.000    0.000    0.000    0.000 
#    0.000    0.000    0.000    0.000    0.000    0.000 
#
# Total GULP energy -94738.253771 kJ/mol
# GULP energy per Si atom -5572.838457 kJ/mol
# Density = 2.500170 g / cm^3
# Si number density = 25.058733 Si / 1000 Ang^3
#
#
#
# Elastic Constant Matrix: (Units=GPa)
#
#
# Indices 1 2 3 4 5 6 
#
# 1 138.9154 27.9381 -5.9366 0.0000 0.0000 0.0000
# 2 27.9381 121.6332 -2.3821 0.0000 0.0000 0.0000
# 3 -5.9366 -2.3821 145.2819 0.0000 0.0000 0.0000
# 4 0.0000 0.0000 0.0000 1.8788 0.0000 0.0000
# 5 0.0000 0.0000 0.0000 0.0000 11.2349 0.0000
# 6 0.0000 0.0000 0.0000 0.0000 0.0000 16.2361
#
#
#
# Elastic Compliance Matrix: (Units=1/GPa)
#
#
# Indices 1 2 3 4 5 6 
#
# 1 0.007559 -0.001731 0.000280 0.000000 0.000000 0.000000
# 2 -0.001731 0.008620 0.000071 0.000000 0.000000 0.000000
# 3 0.000280 0.000071 0.006896 0.000000 0.000000 0.000000
# 4 0.000000 0.000000 0.000000 0.532242 0.000000 0.000000
# 5 0.000000 0.000000 0.000000 0.000000 0.089008 0.000000
# 6 0.000000 0.000000 0.000000 0.000000 0.000000 0.061591
#
#
# Mechanical properties :
#
#
# Convention : Reuss Voigt Hill
#
# Bulk Modulus (GPa) = 49.22303 49.45215 49.33759
# Shear Modulus (GPa) = 6.98863 31.61738 19.30300
#
# Velocity S-wave (km/s) = 1.67181 3.55594 2.77846
# Velocity P-wave (km/s) = 4.83863 6.05285 5.47947
#
# Compressibility (1/GPa) = 0.02031570
#
# Stress axis : x y z
#
# Youngs Moduli (GPa) = 132.29823 116.00464 145.01600
#
# Poissons Ratio (x) = 0.20077 -0.04068
# Poissons Ratio (y) = 0.22896 -0.01024
# Poissons Ratio (z) = -0.03711 -0.00819
#
# Static dielectric constant tensor:
#      x y z
#    x 1.922700 0.000000 0.000000 
#    y 0.000000 1.965980 0.000000 
#    z 0.000000 0.000000 2.091980 
# 
# From -- ./inp_files/10675.got.cif
#   From: 2010.05.17/outbox.cif.g08.bks.cpg/sg44_6_cif.got.tgz:10675.got - 2010.06.03 19:37:08.
