data_PCOD9373301
_publ_section_title
;
Structure prediction by ZEFSAII (Michael W. Deem and Ramdas Pophale) SiO2 
 PCOD9373301
Probable space group: I M M 2
;
_chemical_formula_sum "Si O2"
_cell_formula_units_Z 64
_cell_length_a 15.021966
_cell_length_b 7.874401
_cell_length_c 24.811832
_cell_angle_alpha 90.000000
_cell_angle_beta 90.000000
_cell_angle_gamma 90.000000
_cell_volume 2934.966401
_symmetry_space_group_name_H-M "I M M 2"
_symmetry_group_IT_number 44
_symmetry_cell_setting 'orthorhombic'
loop_
_space_group_symop_operation_xyz
x,y,z
-x,-y,z
-x,y,z
x,-y,z
1/2+x,1/2+y,1/2+z
1/2-x,1/2-y,1/2+z
1/2-x,1/2+y,1/2+z
1/2+x,1/2-y,1/2+z
loop_
_atom_site_type_symbol
_atom_site_label
_atom_site_fract_x
_atom_site_fract_y
_atom_site_fract_z
Si Si1 0.698195 0.799186 0.645200
Si Si2 0.142238 0.202453 0.516758
Si Si3 0.097482 0.204541 0.638262
Si Si4 0.595103 0.199547 0.902696
Si Si5 0.244779 0.188607 0.331190
Si Si6 0.899412 0.800092 0.249379
Si Si7 0.661156 0.307375 0.524770
Si Si8 0.598855 0.296473 0.408599
O O1 0.801532 0.735494 0.653131
O O2 0.632878 0.716248 0.688130
O O3 0.660938 0.774391 0.584342
O O4 0.700734 0.000000 0.655044
O O5 0.097883 0.234660 0.574046
O O6 0.089590 0.261197 0.465306
O O7 0.234005 0.303018 0.513007
O O8 0.160138 0.000000 0.514675
O O9 0.000000 0.266395 0.659511
O O10 0.098171 0.000000 0.647079
O O11 0.500000 0.240940 0.877028
O O12 0.673473 0.310392 0.879369
O O13 0.613741 0.000000 0.894504
O O14 0.182832 0.274547 0.285024
O O15 0.331742 0.259708 0.360736
O O16 0.268014 0.000000 0.312135
O O17 0.000000 0.729553 0.255348
O O18 0.903722 0.000000 0.263945
O O19 0.627625 0.500000 0.530721
O O20 0.620513 0.230620 0.469500
O O21 0.500000 0.239111 0.393709
O O22 0.599929 0.500000 0.414565
#
# Coordination Sequence:
#
# PCOD9373301 Si02
#       8
#     8   8   8   8   8   8   8   8
#     4  10  21  36  59  91 122 156 203 256 303 353
#     4  10  18  29  49  78 113 153 197 244 289 342
#     4   8  15  29  49  76 113 153 190 230 280 338
#     4  11  22  33  49  78 115 154 194 238 294 359
#     4  11  23  40  63  87 115 151 197 255 309 360
#     4  10  23  44  66  87 115 154 199 248 310 376
#     4  10  19  34  57  84 122 166 202 243 298 358
#     4  10  22  40  62  89 123 163 203 243 296 366
#
# _framework density 21.806042999999999
#
# number of rings (size 3 to 8) (size 9 to 14) (size 15 to 20)
#    0.000    2.000    1.250    3.375    0.000    4.500 
#    0.000    1.875    0.000    9.750    0.000    0.000 
#    0.000    0.000    0.000    0.000    0.000    0.000 
#
# Total GULP energy -178226.369794 kJ/mol
# GULP energy per Si atom -5569.574056 kJ/mol
# Density = 2.175641 g / cm^3
# Si number density = 21.806043 Si / 1000 Ang^3
#
#
#
# Elastic Constant Matrix: (Units=GPa)
#
#
# Indices 1 2 3 4 5 6 
#
# 1 138.6499 13.0974 57.3781 0.0000 0.0000 0.0000
# 2 13.0974 37.1489 -3.3443 0.0000 0.0000 0.0000
# 3 57.3781 -3.3443 93.3593 0.0000 0.0000 0.0000
# 4 0.0000 0.0000 0.0000 20.4871 0.0000 0.0000
# 5 0.0000 0.0000 0.0000 0.0000 -4.5259 0.0000
# 6 0.0000 0.0000 0.0000 0.0000 0.0000 3.6076
#
#
#
# Elastic Compliance Matrix: (Units=1/GPa)
#
#
# Indices 1 2 3 4 5 6 
#
# 1 0.010290 -0.004211 -0.006475 0.000000 0.000000 0.000000
# 2 -0.004211 0.028729 0.003617 0.000000 0.000000 0.000000
# 3 -0.006475 0.003617 0.014820 0.000000 0.000000 0.000000
# 4 0.000000 0.000000 0.000000 0.048811 0.000000 0.000000
# 5 0.000000 0.000000 0.000000 0.000000 -0.220950 0.000000
# 6 0.000000 0.000000 0.000000 0.000000 0.000000 0.277194
#
#
# Mechanical properties :
#
#
# Convention : Reuss Voigt Hill
#
# Bulk Modulus (GPa) = 25.18778 44.82450 35.00614
# Shear Modulus (GPa) = 26.84343 17.38221 22.11282
#
# Velocity S-wave (km/s) = 3.51238 2.82641 3.18790
# Velocity P-wave (km/s) = 5.29386 5.59036 5.44413
#
# Compressibility (1/GPa) = 0.03970179
#
# Stress axis : x y z
#
# Youngs Moduli (GPa) = 97.18486 34.80819 67.47521
#
# Poissons Ratio (x) = 0.14657 0.43689
# Poissons Ratio (y) = 0.40921 -0.24406
# Poissons Ratio (z) = 0.62925 -0.12590
#
# Static dielectric constant tensor:
#      x y z
#    x 1.825210 0.000000 0.000000 
#    y 0.000000 1.828960 0.000000 
#    z 0.000000 0.000000 1.830280 
# 
# From -- ./inp_files/25764.got.cif
#   From: 2010.05.17/outbox.cif.g08.bks.cpg/sg44_13_cif.got.tgz:25764.got - 2010.06.03 19:37:08.
