data_PCOD9373921
_publ_section_title
;
Structure prediction by ZEFSAII (Michael W. Deem and Ramdas Pophale) SiO2 
 PCOD9373921
Probable space group: I M M 2
;
_chemical_formula_sum "Si O2"
_cell_formula_units_Z 56
_cell_length_a 19.553839
_cell_length_b 9.081271
_cell_length_c 18.372468
_cell_angle_alpha 90.000000
_cell_angle_beta 90.000000
_cell_angle_gamma 90.000000
_cell_volume 3262.467324
_symmetry_space_group_name_H-M "I M M 2"
_symmetry_group_IT_number 44
_symmetry_cell_setting 'orthorhombic'
loop_
_space_group_symop_operation_xyz
x,y,z
-x,-y,z
-x,y,z
x,-y,z
1/2+x,1/2+y,1/2+z
1/2-x,1/2-y,1/2+z
1/2-x,1/2+y,1/2+z
1/2+x,1/2-y,1/2+z
loop_
_atom_site_type_symbol
_atom_site_label
_atom_site_fract_x
_atom_site_fract_y
_atom_site_fract_z
Si Si1 0.211182 0.172717 0.095020
Si Si2 0.076190 0.669073 0.105366
Si Si3 0.711487 0.323148 0.963634
Si Si4 0.173833 0.824776 0.684627
Si Si5 0.302974 0.327874 0.353884
Si Si6 0.922807 0.666920 0.929948
Si Si7 0.577645 0.322324 0.053169
O O1 0.137640 0.223826 0.123908
O O2 0.266969 0.222972 0.153055
O O3 0.212586 0.000000 0.079742
O O4 0.234388 0.262327 0.023119
O O5 0.090348 0.500000 0.127781
O O6 0.000000 0.709777 0.130910
O O7 0.074567 0.669764 0.017331
O O8 0.713759 0.500000 0.963051
O O9 0.738286 0.260468 0.886875
O O10 0.636640 0.276214 0.995020
O O11 0.174422 0.800651 0.770691
O O12 0.107633 0.791244 0.634255
O O13 0.188578 0.000000 0.671999
O O14 0.288095 0.500000 0.361959
O O15 0.368665 0.280895 0.400517
O O16 0.902660 0.500000 0.908530
O O17 0.000000 0.694889 0.903546
O O18 0.500000 0.266244 0.042849
O O19 0.574620 0.500000 0.047347
#
# Coordination Sequence:
#
# PCOD9373921 Si02
#       7
#     8   8   8   8   8   8   8
#     4  11  20  31  50  75 100 127 168 216 253 297
#     4   9  17  30  49  71  97 131 164 196 244 301
#     4  10  19  32  52  74 101 136 169 209 262 314
#     4   9  20  35  51  72 102 137 169 207 261 317
#     4  11  21  32  49  76 105 136 176 217 254 301
#     4   9  18  31  47  69 100 137 168 196 241 300
#     4   8  15  31  55  78  97 125 170 216 258 308
#
# _framework density 17.164922000000001
#
# number of rings (size 3 to 8) (size 9 to 14) (size 15 to 20)
#    0.000    2.429    1.429    3.857    0.000    2.286 
#    0.000    2.857    0.000   11.571    0.000    4.000 
#    0.000    0.000    0.000    0.000    0.000    0.000 
#
# Total GULP energy -155906.856215 kJ/mol
# GULP energy per Si atom -5568.102008 kJ/mol
# Density = 1.712585 g / cm^3
# Si number density = 17.164922 Si / 1000 Ang^3
#
#
#
# Elastic Constant Matrix: (Units=GPa)
#
#
# Indices 1 2 3 4 5 6 
#
# 1 107.2570 25.2028 14.3552 0.0000 0.0000 0.0000
# 2 25.2028 37.0624 9.4531 0.0000 0.0000 0.0000
# 3 14.3552 9.4531 31.8614 0.0000 0.0000 0.0000
# 4 0.0000 0.0000 0.0000 21.3272 0.0000 0.0000
# 5 0.0000 0.0000 0.0000 0.0000 11.2348 0.0000
# 6 0.0000 0.0000 0.0000 0.0000 0.0000 11.9292
#
#
#
# Elastic Compliance Matrix: (Units=1/GPa)
#
#
# Indices 1 2 3 4 5 6 
#
# 1 0.011366 -0.006948 -0.003059 0.000000 0.000000 0.000000
# 2 -0.006948 0.033439 -0.006790 0.000000 0.000000 0.000000
# 3 -0.003059 -0.006790 0.034779 0.000000 0.000000 0.000000
# 4 0.000000 0.000000 0.000000 0.046889 0.000000 0.000000
# 5 0.000000 0.000000 0.000000 0.000000 0.089009 0.000000
# 6 0.000000 0.000000 0.000000 0.000000 0.000000 0.083828
#
#
# Mechanical properties :
#
#
# Convention : Reuss Voigt Hill
#
# Bulk Modulus (GPa) = 21.74528 30.46697 26.10612
# Shear Modulus (GPa) = 14.35818 17.37622 15.86720
#
# Velocity S-wave (km/s) = 2.89534 3.18513 3.04369
# Velocity P-wave (km/s) = 4.88603 5.59597 5.25301
#
# Compressibility (1/GPa) = 0.04598698
#
# Stress axis : x y z
#
# Youngs Moduli (GPa) = 87.98518 29.90564 28.75299
#
# Poissons Ratio (x) = 0.20780 0.08796
# Poissons Ratio (y) = 0.61136 0.19525
# Poissons Ratio (z) = 0.26916 0.20307
#
# Static dielectric constant tensor:
#      x y z
#    x 1.612920 0.000000 0.000000 
#    y 0.000000 1.581690 0.000000 
#    z 0.000000 0.000000 1.600770 
# 
# From -- ./inp_files/20682.got.cif
#   From: 2010.05.17/outbox.cif.g08.bks.cpg/sg44_11_cif.got.tgz:20682.got - 2010.06.03 19:37:08.
