data_PCOD9373112
_publ_section_title
;
Structure prediction by ZEFSAII (Michael W. Deem and Ramdas Pophale) SiO2 
 PCOD9373112
Probable space group: I M M 2
;
_chemical_formula_sum "Si O2"
_cell_formula_units_Z 30
_cell_length_a 13.886633
_cell_length_b 11.801553
_cell_length_c 6.547571
_cell_angle_alpha 90.000000
_cell_angle_beta 90.000000
_cell_angle_gamma 90.000000
_cell_volume 1073.041048
_symmetry_space_group_name_H-M "I M M 2"
_symmetry_group_IT_number 44
_symmetry_cell_setting 'orthorhombic'
loop_
_space_group_symop_operation_xyz
x,y,z
-x,-y,z
-x,y,z
x,-y,z
1/2+x,1/2+y,1/2+z
1/2-x,1/2-y,1/2+z
1/2-x,1/2+y,1/2+z
1/2+x,1/2-y,1/2+z
loop_
_atom_site_type_symbol
_atom_site_label
_atom_site_fract_x
_atom_site_fract_y
_atom_site_fract_z
Si Si1 0.000000 0.869577 0.170161
Si Si2 0.297889 0.500000 0.269877
Si Si3 0.823955 0.767753 0.009568
Si Si4 0.608046 0.221860 0.089365
Si Si5 0.400256 0.000000 0.811766
Si Si6 0.500000 0.500000 0.255904
O O1 0.098269 0.795554 0.189124
O O2 0.000000 0.000000 0.252444
O O3 0.000000 0.898519 0.924540
O O4 0.303815 0.392924 0.420287
O O5 0.193563 0.500000 0.171772
O O6 0.397378 0.500000 0.147593
O O7 0.715673 0.723119 0.052470
O O8 0.877496 0.698703 0.832267
O O9 0.500000 0.277503 0.061559
O O10 0.603294 0.107493 0.960343
O O11 0.500000 0.000000 0.695066
#
# Coordination Sequence:
#
# PCOD9373112 Si02
#       6
#     4   4   8   8   4   2
#     4   8  14  28  54  75  91 122 170 212 246 281
#     4   8  14  26  49  70  90 118 169 199 237 280
#     4  10  17  32  52  77  98 129 161 210 250 292
#     4  10  20  33  52  73 102 131 169 201 247 294
#     4   8  16  30  47  67  93 133 163 193 228 294
#     4   6  10  18  38  68  78 102 142 198 224 264
#
# _framework density 27.957922
#
# number of rings (size 3 to 8) (size 9 to 14) (size 15 to 20)
#    0.400    2.667    2.667    0.000    0.000    0.000 
#    2.400    1.333    0.000    0.000    0.000    0.000 
#    0.000    0.000    0.000    0.000    0.000    0.000 
#
# Total GULP energy -83599.686453 kJ/mol
# GULP energy per Si atom -5573.312430 kJ/mol
# Density = 2.789429 g / cm^3
# Si number density = 27.957922 Si / 1000 Ang^3
#
#
#
# Elastic Constant Matrix: (Units=GPa)
#
#
# Indices 1 2 3 4 5 6 
#
# 1 387.9283 26.5172 51.8063 0.0000 0.0000 0.0000
# 2 26.5172 105.9683 39.2453 0.0000 0.0000 0.0000
# 3 51.8063 39.2453 46.8728 0.0000 0.0000 0.0000
# 4 0.0000 0.0000 0.0000 19.4279 0.0000 0.0000
# 5 0.0000 0.0000 0.0000 0.0000 53.9860 0.0000
# 6 0.0000 0.0000 0.0000 0.0000 0.0000 34.8362
#
#
#
# Elastic Compliance Matrix: (Units=1/GPa)
#
#
# Indices 1 2 3 4 5 6 
#
# 1 0.003060 0.000706 -0.003973 0.000000 0.000000 0.000000
# 2 0.000706 0.013841 -0.012369 0.000000 0.000000 0.000000
# 3 -0.003973 -0.012369 0.036081 0.000000 0.000000 0.000000
# 4 0.000000 0.000000 0.000000 0.051472 0.000000 0.000000
# 5 0.000000 0.000000 0.000000 0.000000 0.018523 0.000000
# 6 0.000000 0.000000 0.000000 0.000000 0.000000 0.028706
#
#
# Mechanical properties :
#
#
# Convention : Reuss Voigt Hill
#
# Bulk Modulus (GPa) = 46.06046 86.21189 66.13618
# Shear Modulus (GPa) = 26.28914 49.86338 38.07626
#
# Velocity S-wave (km/s) = 3.06978 4.22775 3.69441
# Velocity P-wave (km/s) = 5.39216 7.39832 6.47342
#
# Compressibility (1/GPa) = 0.02171059
#
# Stress axis : x y z
#
# Youngs Moduli (GPa) = 326.78152 72.24976 27.71508
#
# Poissons Ratio (x) = -0.05098 0.11011
# Poissons Ratio (y) = -0.23060 0.34279
# Poissons Ratio (z) = 1.29833 0.89362
#
# Static dielectric constant tensor:
#      x y z
#    x 2.382960 0.000000 0.000000 
#    y 0.000000 2.167980 0.000000 
#    z 0.000000 0.000000 2.185110 
# 
# From -- ./inp_files/5351.got.cif
#   From: 2010.05.17/outbox.cif.g08.bks.cpg/sg44_3_cif.got.tgz:5351.got - 2010.06.03 19:37:08.
