data_PCOD9373549
_publ_section_title
;
Structure prediction by ZEFSAII (Michael W. Deem and Ramdas Pophale) SiO2 
 PCOD9373549
Probable space group: I M M 2
;
_chemical_formula_sum "Si O2"
_cell_formula_units_Z 48
_cell_length_a 8.629528
_cell_length_b 18.743164
_cell_length_c 15.352957
_cell_angle_alpha 90.000000
_cell_angle_beta 90.000000
_cell_angle_gamma 90.000000
_cell_volume 2483.258788
_symmetry_space_group_name_H-M "I M M 2"
_symmetry_group_IT_number 44
_symmetry_cell_setting 'orthorhombic'
loop_
_space_group_symop_operation_xyz
x,y,z
-x,-y,z
-x,y,z
x,-y,z
1/2+x,1/2+y,1/2+z
1/2-x,1/2-y,1/2+z
1/2-x,1/2+y,1/2+z
1/2+x,1/2-y,1/2+z
loop_
_atom_site_type_symbol
_atom_site_label
_atom_site_fract_x
_atom_site_fract_y
_atom_site_fract_z
Si Si1 0.181721 0.393497 0.423090
Si Si2 0.687102 0.000000 0.578773
Si Si3 0.312814 0.000000 0.776233
Si Si4 0.181478 0.763482 0.354322
Si Si5 0.688359 0.348139 0.019664
Si Si6 0.184286 0.730331 0.663733
Si Si7 0.183066 0.078233 0.106987
O O1 0.230612 0.432212 0.334341
O O2 0.191710 0.309705 0.408367
O O3 0.281009 0.418488 0.504176
O O4 0.000000 0.411155 0.439793
O O5 0.745576 0.000000 0.678895
O O6 0.748390 0.073301 0.537998
O O7 0.500000 0.000000 0.576700
O O8 0.500000 0.000000 0.769969
O O9 0.237303 0.822457 0.423112
O O10 0.266201 0.754555 0.262783
O O11 0.000000 0.776552 0.334577
O O12 0.500000 0.348673 0.021013
O O13 0.740338 0.290459 0.093943
O O14 0.242233 0.650341 0.643383
O O15 0.000000 0.730216 0.656453
O O16 0.000000 0.081534 0.122666
O O17 0.239438 0.000000 0.139036
#
# Coordination Sequence:
#
# PCOD9373549 Si02
#       7
#     8   4   4   8   8   8   8
#     4  10  18  34  60  86 118 157 197 239 297 364
#     4  11  23  39  61  90 121 158 207 253 296 352
#     4   9  18  31  55  88 119 152 191 243 298 354
#     4  10  21  39  62  89 121 160 202 246 304 363
#     4  10  22  42  64  87 123 164 199 246 308 363
#     4  11  23  41  65  92 120 158 206 251 301 363
#     4  11  23  38  58  88 124 159 198 246 301 355
#
# _framework density 19.329439000000001
#
# number of rings (size 3 to 8) (size 9 to 14) (size 15 to 20)
#    0.000    1.667    2.500    2.250    0.000    5.000 
#    1.500    1.667    0.000    0.000    0.000    0.000 
#    0.000    0.000    0.000    0.000    0.000    0.000 
#
# Total GULP energy -133938.298980 kJ/mol
# GULP energy per Si atom -5580.762457 kJ/mol
# Density = 1.928544 g / cm^3
# Si number density = 19.329439 Si / 1000 Ang^3
#
#
#
# Elastic Constant Matrix: (Units=GPa)
#
#
# Indices 1 2 3 4 5 6 
#
# 1 28.5571 21.9911 11.6804 0.0000 0.0000 0.0000
# 2 21.9911 118.4113 25.4155 0.0000 0.0000 0.0000
# 3 11.6804 25.4155 55.3783 0.0000 0.0000 0.0000
# 4 0.0000 0.0000 0.0000 25.7986 0.0000 0.0000
# 5 0.0000 0.0000 0.0000 0.0000 32.1059 0.0000
# 6 0.0000 0.0000 0.0000 0.0000 0.0000 22.7225
#
#
#
# Elastic Compliance Matrix: (Units=1/GPa)
#
#
# Indices 1 2 3 4 5 6 
#
# 1 0.042549 -0.006629 -0.005932 0.000000 0.000000 0.000000
# 2 -0.006629 0.010401 -0.003375 0.000000 0.000000 0.000000
# 3 -0.005932 -0.003375 0.020858 0.000000 0.000000 0.000000
# 4 0.000000 0.000000 0.000000 0.038762 0.000000 0.000000
# 5 0.000000 0.000000 0.000000 0.000000 0.031147 0.000000
# 6 0.000000 0.000000 0.000000 0.000000 0.000000 0.044009
#
#
# Mechanical properties :
#
#
# Convention : Reuss Voigt Hill
#
# Bulk Modulus (GPa) = 23.84646 35.61340 29.72993
# Shear Modulus (GPa) = 21.40636 25.67605 23.54120
#
# Velocity S-wave (km/s) = 3.33145 3.64859 3.49362
# Velocity P-wave (km/s) = 5.21169 6.01781 5.62920
#
# Compressibility (1/GPa) = 0.04193495
#
# Stress axis : x y z
#
# Youngs Moduli (GPa) = 23.50255 96.14775 47.94363
#
# Poissons Ratio (x) = 0.63734 0.28441
# Poissons Ratio (y) = 0.15579 0.16182
# Poissons Ratio (z) = 0.13942 0.32451
#
# Static dielectric constant tensor:
#      x y z
#    x 1.665440 0.000000 0.000000 
#    y 0.000000 1.705630 0.000000 
#    z 0.000000 0.000000 1.673590 
# 
# From -- ./inp_files/16145.got.cif
#   From: 2010.05.17/outbox.cif.g08.bks.cpg/sg44_9_cif.got.tgz:16145.got - 2010.06.03 19:37:08.
