data_PCOD9373031
_publ_section_title
;
Structure prediction by ZEFSAII (Michael W. Deem and Ramdas Pophale) SiO2 
 PCOD9373031
Probable space group: I M M 2
;
_chemical_formula_sum "Si O2"
_cell_formula_units_Z 64
_cell_length_a 15.447253
_cell_length_b 7.309850
_cell_length_c 28.461964
_cell_angle_alpha 90.000000
_cell_angle_beta 90.000000
_cell_angle_gamma 90.000000
_cell_volume 3213.842502
_symmetry_space_group_name_H-M "I M M 2"
_symmetry_group_IT_number 44
_symmetry_cell_setting 'orthorhombic'
loop_
_space_group_symop_operation_xyz
x,y,z
-x,-y,z
-x,y,z
x,-y,z
1/2+x,1/2+y,1/2+z
1/2-x,1/2-y,1/2+z
1/2-x,1/2+y,1/2+z
1/2+x,1/2-y,1/2+z
loop_
_atom_site_type_symbol
_atom_site_label
_atom_site_fract_x
_atom_site_fract_y
_atom_site_fract_z
Si Si1 0.402823 0.777389 0.154260
Si Si2 0.597785 0.222741 0.262465
Si Si3 0.598213 0.722741 0.535228
Si Si4 0.222243 0.223477 0.118271
Si Si5 0.096593 0.219209 0.928121
Si Si6 0.098049 0.777895 0.202104
Si Si7 0.224047 0.716073 0.843361
Si Si8 0.903341 0.222752 0.310416
O O1 0.500000 0.718056 0.141127
O O2 0.386362 0.723432 0.208556
O O3 0.321735 0.718285 0.123103
O O4 0.403794 0.000000 0.153784
O O5 0.500000 0.277495 0.275472
O O6 0.666744 0.289489 0.300179
O O7 0.599373 0.000000 0.262802
O O8 0.500000 0.776263 0.548580
O O9 0.599166 0.500000 0.535551
O O10 0.669586 0.783306 0.572429
O O11 0.613584 0.781550 0.481481
O O12 0.168438 0.281504 0.164372
O O13 0.222058 0.000000 0.118096
O O14 0.170401 0.263396 0.890978
O O15 0.000000 0.284131 0.913741
O O16 0.092398 0.000000 0.929976
O O17 0.114057 0.724530 0.256055
O O18 0.000000 0.722671 0.189259
O O19 0.099284 0.000000 0.201659
O O20 0.230933 0.500000 0.834754
O O21 0.322311 0.785293 0.841378
O O22 0.000000 0.285042 0.323358
O O23 0.906537 0.000000 0.311302
#
# Coordination Sequence:
#
# PCOD9373031 Si02
#       8
#     8   8   8   8   8   8   8   8
#     4   8  13  19  26  41  70 103 125 143 178 227
#     4   8  13  20  30  49  78 104 124 152 191 230
#     4   8  14  24  36  49  66  91 122 153 189 233
#     4   9  13  17  29  46  64  91 126 156 180 217
#     4   9  18  31  43  56  79 107 129 157 204 250
#     4   8  12  17  27  47  75 101 122 148 186 230
#     4  10  17  25  42  63  79 102 138 170 192 225
#     4   8  14  23  34  53  83 111 130 156 198 237
#
# _framework density 19.913857
#
# number of rings (size 3 to 8) (size 9 to 14) (size 15 to 20)
#    0.000    3.500    0.000    3.750    0.000    5.250 
#    0.000    0.000    0.000    1.125    0.000    1.750 
#    0.000    4.000    0.000    7.500    0.000    6.875 
#
# Total GULP energy -178494.075847 kJ/mol
# GULP energy per Si atom -5577.939870 kJ/mol
# Density = 1.986853 g / cm^3
# Si number density = 19.913857 Si / 1000 Ang^3
#
#
#
# Elastic Constant Matrix: (Units=GPa)
#
#
# Indices 1 2 3 4 5 6 
#
# 1 215.5808 6.0478 119.2372 0.0000 0.0000 0.0000
# 2 6.0478 78.7439 -0.7114 0.0000 0.0000 0.0000
# 3 119.2372 -0.7114 93.7909 0.0000 0.0000 0.0000
# 4 0.0000 0.0000 0.0000 -34.7875 0.0000 0.0000
# 5 0.0000 0.0000 0.0000 0.0000 33.4686 0.0000
# 6 0.0000 0.0000 0.0000 0.0000 0.0000 -6.5942
#
#
#
# Elastic Compliance Matrix: (Units=1/GPa)
#
#
# Indices 1 2 3 4 5 6 
#
# 1 0.015778 -0.001393 -0.020069 0.000000 0.000000 0.000000
# 2 -0.001393 0.012823 0.001868 0.000000 0.000000 0.000000
# 3 -0.020069 0.001868 0.036190 0.000000 0.000000 0.000000
# 4 0.000000 0.000000 0.000000 -0.028746 0.000000 0.000000
# 5 0.000000 0.000000 0.000000 0.000000 0.029879 0.000000
# 6 0.000000 0.000000 0.000000 0.000000 0.000000 -0.151649
#
#
# Mechanical properties :
#
#
# Convention : Reuss Voigt Hill
#
# Bulk Modulus (GPa) = 39.05697 70.80698 54.93198
# Shear Modulus (GPa) = -131.57320 15.98684 -57.79318
#
# Velocity S-wave (km/s) = -8.13724 2.83645 -5.39301
# Velocity P-wave (km/s) = 8.28436 6.80890 3.33688
#
# Compressibility (1/GPa) = 0.02560363
#
# Stress axis : x y z
#
# Youngs Moduli (GPa) = 63.37958 77.98325 27.63165
#
# Poissons Ratio (x) = 0.10864 0.55455
# Poissons Ratio (y) = 0.08830 -0.05163
# Poissons Ratio (z) = 1.27198 -0.14570
#
# Static dielectric constant tensor:
#      x y z
#    x 1.716910 0.000000 0.000000 
#    y 0.000000 2.388120 0.000000 
#    z 0.000000 0.000000 1.661110 
# 
# From -- ./inp_files/27334.got.cif
#   From: 2010.05.17/outbox.cif.g08.bks.cpg/sg44_14_cif.got.tgz:27334.got - 2010.06.03 19:37:08.
