data_PCOD9373853
_publ_section_title
;
Structure prediction by ZEFSAII (Michael W. Deem and Ramdas Pophale) SiO2 
 PCOD9373853
Probable space group: I M M 2
;
_chemical_formula_sum "Si O2"
_cell_formula_units_Z 40
_cell_length_a 9.394439
_cell_length_b 7.582358
_cell_length_c 30.266767
_cell_angle_alpha 90.000000
_cell_angle_beta 90.000000
_cell_angle_gamma 90.000000
_cell_volume 2155.962338
_symmetry_space_group_name_H-M "I M M 2"
_symmetry_group_IT_number 44
_symmetry_cell_setting 'orthorhombic'
loop_
_space_group_symop_operation_xyz
x,y,z
-x,-y,z
-x,y,z
x,-y,z
1/2+x,1/2+y,1/2+z
1/2-x,1/2-y,1/2+z
1/2-x,1/2+y,1/2+z
1/2+x,1/2-y,1/2+z
loop_
_atom_site_type_symbol
_atom_site_label
_atom_site_fract_x
_atom_site_fract_y
_atom_site_fract_z
Si Si1 0.337530 0.214691 0.324020
Si Si2 0.337152 0.286089 0.739256
Si Si3 0.827796 0.500000 0.481486
Si Si4 0.166924 0.201493 0.650949
Si Si5 0.170455 0.710007 0.924735
Si Si6 0.327366 0.000000 0.083700
O O1 0.500000 0.272406 0.316255
O O2 0.237545 0.274745 0.284422
O O3 0.295572 0.262425 0.373914
O O4 0.338410 0.000000 0.323489
O O5 0.500000 0.227853 0.737198
O O6 0.335049 0.500000 0.739530
O O7 0.251822 0.227629 0.696129
O O8 0.761233 0.329603 0.457422
O O9 0.783049 0.500000 0.532954
O O10 0.000000 0.500000 0.478552
O O11 0.217678 0.331457 0.612464
O O12 0.000000 0.240727 0.659807
O O13 0.178140 0.000000 0.636406
O O14 0.196940 0.500000 0.929887
O O15 0.000000 0.737581 0.930590
O O16 0.500000 0.000000 0.082633
#
# Coordination Sequence:
#
# PCOD9373853 Si02
#       6
#     8   8   4   8   8   4
#     4   8  15  30  54  80 107 147 194 232 269 321
#     4  10  19  31  51  81 116 150 180 221 282 338
#     4  11  23  37  59  91 119 149 189 241 306 353
#     4  10  20  36  59  81 103 141 191 234 274 326
#     4   9  19  38  61  84 114 153 197 242 283 336
#     4   9  20  39  59  81 111 145 187 239 284 335
#
# _framework density 18.553198999999999
#
# number of rings (size 3 to 8) (size 9 to 14) (size 15 to 20)
#    0.000    2.600    1.000    2.100    0.000    3.200 
#    1.800    6.000    0.000    0.000    0.000    0.000 
#    0.000    0.000    0.000    0.000    0.000    0.000 
#
# Total GULP energy -111610.777005 kJ/mol
# GULP energy per Si atom -5580.538850 kJ/mol
# Density = 1.851097 g / cm^3
# Si number density = 18.553199 Si / 1000 Ang^3
#
#
#
# Elastic Constant Matrix: (Units=GPa)
#
#
# Indices 1 2 3 4 5 6 
#
# 1 80.3654 51.3054 89.7854 0.0000 0.0000 0.0000
# 2 51.3054 82.7885 70.7904 0.0000 0.0000 0.0000
# 3 89.7854 70.7904 192.2167 0.0000 0.0000 0.0000
# 4 0.0000 0.0000 0.0000 -35.3868 0.0000 0.0000
# 5 0.0000 0.0000 0.0000 0.0000 29.8132 0.0000
# 6 0.0000 0.0000 0.0000 0.0000 0.0000 19.6795
#
#
#
# Elastic Compliance Matrix: (Units=1/GPa)
#
#
# Indices 1 2 3 4 5 6 
#
# 1 0.030712 -0.009876 -0.010708 0.000000 0.000000 0.000000
# 2 -0.009876 0.020807 -0.003050 0.000000 0.000000 0.000000
# 3 -0.010708 -0.003050 0.011328 0.000000 0.000000 0.000000
# 4 0.000000 0.000000 0.000000 -0.028259 0.000000 0.000000
# 5 0.000000 0.000000 0.000000 0.000000 0.033542 0.000000
# 6 0.000000 0.000000 0.000000 0.000000 0.000000 0.050814
#
#
# Mechanical properties :
#
#
# Convention : Reuss Voigt Hill
#
# Bulk Modulus (GPa) = 64.19342 86.57034 75.38188
# Shear Modulus (GPa) = 29.17078 12.38715 20.77897
#
# Velocity S-wave (km/s) = 3.96950 2.58671 3.35022
# Velocity P-wave (km/s) = 7.46217 7.46212 7.46215
#
# Compressibility (1/GPa) = 0.01557792
#
# Stress axis : x y z
#
# Youngs Moduli (GPa) = 32.56108 48.06043 88.28034
#
# Poissons Ratio (x) = 0.47465 0.94533
# Poissons Ratio (y) = 0.32157 0.26924
# Poissons Ratio (z) = 0.34867 0.14657
#
# Static dielectric constant tensor:
#      x y z
#    x 1.622670 0.000000 0.000000 
#    y 0.000000 1.674620 0.000000 
#    z 0.000000 0.000000 1.606360 
# 
# From -- ./inp_files/25942.got.cif
#   From: 2010.05.17/outbox.cif.g08.bks.cpg/sg44_13_cif.got.tgz:25942.got - 2010.06.03 19:37:08.
