data_PCOD9373628
_publ_section_title
;
Structure prediction by ZEFSAII (Michael W. Deem and Ramdas Pophale) SiO2 
 PCOD9373628
Probable space group: I M M 2
;
_chemical_formula_sum "Si O2"
_cell_formula_units_Z 50
_cell_length_a 15.096065
_cell_length_b 18.590855
_cell_length_c 7.026752
_cell_angle_alpha 90.000000
_cell_angle_beta 90.000000
_cell_angle_gamma 90.000000
_cell_volume 1972.049204
_symmetry_space_group_name_H-M "I M M 2"
_symmetry_group_IT_number 44
_symmetry_cell_setting 'orthorhombic'
loop_
_space_group_symop_operation_xyz
x,y,z
-x,-y,z
-x,y,z
x,-y,z
1/2+x,1/2+y,1/2+z
1/2-x,1/2-y,1/2+z
1/2-x,1/2+y,1/2+z
1/2+x,1/2-y,1/2+z
loop_
_atom_site_type_symbol
_atom_site_label
_atom_site_fract_x
_atom_site_fract_y
_atom_site_fract_z
Si Si1 0.368954 0.231432 0.969000
Si Si2 0.500000 0.500000 0.612065
Si Si3 0.406476 0.609224 0.979588
Si Si4 0.665560 0.233039 0.412351
Si Si5 0.160826 0.421351 0.472297
Si Si6 0.702373 0.922174 0.418434
Si Si7 0.867886 0.111560 0.927782
O O1 0.412124 0.307194 0.924091
O O2 0.268575 0.245361 0.901086
O O3 0.369935 0.228562 0.198577
O O4 0.391992 0.150208 0.911324
O O5 0.422301 0.561697 0.566482
O O6 0.500000 0.572676 0.920588
O O7 0.309661 0.582584 0.916662
O O8 0.401971 0.604325 0.210605
O O9 0.665989 0.153347 0.501951
O O10 0.623382 0.305312 0.494952
O O11 0.128052 0.500000 0.414379
O O12 0.167843 0.421862 0.702281
O O13 0.264296 0.410571 0.415667
O O14 0.678883 0.000000 0.503508
#
# Coordination Sequence:
#
# PCOD9373628 Si02
#       7
#     8   2   8   8   8   8   8
#     4   8  15  27  45  58  79 111 147 176 209 248
#     4  12  20  28  40  70  94 116 138 170 208 268
#     4  10  19  30  41  62  91 122 140 168 213 268
#     4   8  15  29  43  60  79 113 145 177 209 245
#     4   9  16  30  45  64  82 108 146 186 215 242
#     4   9  18  29  45  64  86 110 147 181 215 250
#     4  10  19  29  44  61  91 118 143 170 209 258
#
# _framework density 25.354339
#
# number of rings (size 3 to 8) (size 9 to 14) (size 15 to 20)
#    0.000    2.880    1.600    0.000    1.120    0.320 
#    1.440    0.000    0.000    0.480    0.000    0.560 
#    0.000    0.000    0.000    0.000    0.320   54.400 
#
# Total GULP energy -139268.097536 kJ/mol
# GULP energy per Si atom -5570.723901 kJ/mol
# Density = 2.529663 g / cm^3
# Si number density = 25.354339 Si / 1000 Ang^3
#
#
#
# Elastic Constant Matrix: (Units=GPa)
#
#
# Indices 1 2 3 4 5 6 
#
# 1 33.1754 13.6505 -1.2525 0.0000 0.0000 0.0000
# 2 13.6505 277.0658 -9.5808 0.0000 0.0000 0.0000
# 3 -1.2525 -9.5808 89.3804 0.0000 0.0000 0.0000
# 4 0.0000 0.0000 0.0000 -57.7517 0.0000 0.0000
# 5 0.0000 0.0000 0.0000 0.0000 5.9338 0.0000
# 6 0.0000 0.0000 0.0000 0.0000 0.0000 7.4796
#
#
#
# Elastic Compliance Matrix: (Units=1/GPa)
#
#
# Indices 1 2 3 4 5 6 
#
# 1 0.030773 -0.001507 0.000270 0.000000 0.000000 0.000000
# 2 -0.001507 0.003696 0.000375 0.000000 0.000000 0.000000
# 3 0.000270 0.000375 0.011232 0.000000 0.000000 0.000000
# 4 0.000000 0.000000 0.000000 -0.017315 0.000000 0.000000
# 5 0.000000 0.000000 0.000000 0.000000 0.168526 0.000000
# 6 0.000000 0.000000 0.000000 0.000000 0.000000 0.133696
#
#
# Mechanical properties :
#
#
# Convention : Reuss Voigt Hill
#
# Bulk Modulus (GPa) = 22.73885 45.02846 33.88366
# Shear Modulus (GPa) = 14.40956 17.58596 15.99776
#
# Velocity S-wave (km/s) = 2.38655 2.63650 2.51463
# Velocity P-wave (km/s) = 4.07211 5.20254 4.67164
#
# Compressibility (1/GPa) = 0.04397760
#
# Stress axis : x y z
#
# Youngs Moduli (GPa) = 32.49603 270.52909 89.03037
#
# Poissons Ratio (x) = 0.40763 -0.02401
# Poissons Ratio (y) = 0.04897 -0.03340
# Poissons Ratio (z) = -0.00876 -0.10148
#
# Static dielectric constant tensor:
#      x y z
#    x 1.943540 0.000000 0.000000 
#    y 0.000000 2.201490 0.000000 
#    z 0.000000 0.000000 2.055200 
# 
# From -- ./inp_files/8362.got.cif
#   From: 2010.05.17/outbox.cif.g08.bks.cpg/sg44_5_cif.got.tgz:8362.got - 2010.06.03 19:37:08.
