data_PCOD9373766
_publ_section_title
;
Structure prediction by ZEFSAII (Michael W. Deem and Ramdas Pophale) SiO2 
 PCOD9373766
Probable space group: I M M 2
;
_chemical_formula_sum "Si O2"
_cell_formula_units_Z 64
_cell_length_a 20.536256
_cell_length_b 7.573831
_cell_length_c 20.872875
_cell_angle_alpha 90.000000
_cell_angle_beta 90.000000
_cell_angle_gamma 90.000000
_cell_volume 3246.527994
_symmetry_space_group_name_H-M "I M M 2"
_symmetry_group_IT_number 44
_symmetry_cell_setting 'orthorhombic'
loop_
_space_group_symop_operation_xyz
x,y,z
-x,-y,z
-x,y,z
x,-y,z
1/2+x,1/2+y,1/2+z
1/2-x,1/2-y,1/2+z
1/2-x,1/2+y,1/2+z
1/2+x,1/2-y,1/2+z
loop_
_atom_site_type_symbol
_atom_site_label
_atom_site_fract_x
_atom_site_fract_y
_atom_site_fract_z
Si Si1 0.573892 0.784751 0.315380
Si Si2 0.815196 0.296596 0.574138
Si Si3 0.333452 0.204988 0.564850
Si Si4 0.675514 0.783598 0.421547
Si Si5 0.074119 0.287115 0.322203
Si Si6 0.926146 0.284192 0.668778
Si Si7 0.322282 0.292450 0.931156
Si Si8 0.924704 0.715588 0.177811
O O1 0.500000 0.730614 0.331138
O O2 0.626220 0.723368 0.366970
O O3 0.587883 0.731971 0.242151
O O4 0.574663 0.000000 0.315937
O O5 0.805373 0.500000 0.592325
O O6 0.743742 0.212577 0.578433
O O7 0.870874 0.221628 0.620169
O O8 0.837652 0.289558 0.500205
O O9 0.342758 0.278654 0.493189
O O10 0.376294 0.280653 0.622612
O O11 0.352530 0.000000 0.560386
O O12 0.750392 0.730061 0.409965
O O13 0.673951 0.000000 0.421679
O O14 0.072876 0.500000 0.320991
O O15 0.124502 0.234859 0.376744
O O16 0.092313 0.227041 0.250245
O O17 0.000000 0.227184 0.335362
O O18 0.926499 0.500000 0.666826
O O19 0.000000 0.228306 0.652701
O O20 0.316509 0.500000 0.944011
O O21 0.922255 0.500000 0.178634
O O22 0.000000 0.763990 0.165383
#
# Coordination Sequence:
#
# PCOD9373766 Si02
#       8
#     8   8   8   8   8   8   8   8
#     4   8  13  23  40  63  91 118 145 182 228 273
#     4  10  19  31  48  68  92 124 161 197 235 284
#     4   9  17  30  47  69  99 128 157 196 235 273
#     4   8  15  26  40  62  92 122 148 181 227 273
#     4   9  18  33  51  70  93 123 161 201 239 287
#     4   8  15  27  42  62  88 116 147 186 228 268
#     4  10  20  33  48  68  96 124 152 194 244 288
#     4   8  15  29  49  71  95 126 163 200 238 283
#
# _framework density 19.713366000000001
#
# number of rings (size 3 to 8) (size 9 to 14) (size 15 to 20)
#    0.000    3.250    0.000    3.000    0.000    2.250 
#    0.000    5.625    0.000    2.250    0.000    0.875 
#    0.000   11.500    0.000    0.000    0.000    0.000 
#
# Total GULP energy -178393.148381 kJ/mol
# GULP energy per Si atom -5574.785887 kJ/mol
# Density = 1.966850 g / cm^3
# Si number density = 19.713366 Si / 1000 Ang^3
#
#
#
# Elastic Constant Matrix: (Units=GPa)
#
#
# Indices 1 2 3 4 5 6 
#
# 1 129.5306 -4.7774 128.2358 0.0000 0.0000 0.0000
# 2 -4.7774 41.5630 -5.0278 0.0000 0.0000 0.0000
# 3 128.2358 -5.0278 155.6194 0.0000 0.0000 0.0000
# 4 0.0000 0.0000 0.0000 6.2106 0.0000 0.0000
# 5 0.0000 0.0000 0.0000 0.0000 48.8948 0.0000
# 6 0.0000 0.0000 0.0000 0.0000 0.0000 14.2847
#
#
#
# Elastic Compliance Matrix: (Units=1/GPa)
#
#
# Indices 1 2 3 4 5 6 
#
# 1 0.041928 0.000642 -0.034530 0.000000 0.000000 0.000000
# 2 0.000642 0.024164 0.000251 0.000000 0.000000 0.000000
# 3 -0.034530 0.000251 0.034888 0.000000 0.000000 0.000000
# 4 0.000000 0.000000 0.000000 0.161016 0.000000 0.000000
# 5 0.000000 0.000000 0.000000 0.000000 0.020452 0.000000
# 6 0.000000 0.000000 0.000000 0.000000 0.000000 0.070005
#
#
# Mechanical properties :
#
#
# Convention : Reuss Voigt Hill
#
# Bulk Modulus (GPa) = 29.66629 62.61936 46.14282
# Shear Modulus (GPa) = 11.60198 27.76351 19.68274
#
# Velocity S-wave (km/s) = 2.42860 3.75688 3.16325
# Velocity P-wave (km/s) = 4.79016 7.11708 6.06623
#
# Compressibility (1/GPa) = 0.03370830
#
# Stress axis : x y z
#
# Youngs Moduli (GPa) = 23.85017 41.38374 28.66336
#
# Poissons Ratio (x) = -0.02659 0.98974
# Poissons Ratio (y) = -0.01532 -0.00720
# Poissons Ratio (z) = 0.82354 -0.01040
#
# Static dielectric constant tensor:
#      x y z
#    x 1.666450 0.000000 0.000000 
#    y 0.000000 1.774650 0.000000 
#    z 0.000000 0.000000 1.676870 
# 
# From -- ./inp_files/20781.got.cif
#   From: 2010.05.17/outbox.cif.g08.bks.cpg/sg44_11_cif.got.tgz:20781.got - 2010.06.03 19:37:08.
