data_PCOD9373616
_publ_section_title
;
Structure prediction by ZEFSAII (Michael W. Deem and Ramdas Pophale) SiO2 
 PCOD9373616
Probable space group: I M M 2
;
_chemical_formula_sum "Si O2"
_cell_formula_units_Z 56
_cell_length_a 14.093219
_cell_length_b 8.815162
_cell_length_c 29.964796
_cell_angle_alpha 90.000000
_cell_angle_beta 90.000000
_cell_angle_gamma 90.000000
_cell_volume 3722.646724
_symmetry_space_group_name_H-M "I M M 2"
_symmetry_group_IT_number 44
_symmetry_cell_setting 'orthorhombic'
loop_
_space_group_symop_operation_xyz
x,y,z
-x,-y,z
-x,y,z
x,-y,z
1/2+x,1/2+y,1/2+z
1/2-x,1/2-y,1/2+z
1/2-x,1/2+y,1/2+z
1/2+x,1/2-y,1/2+z
loop_
_atom_site_type_symbol
_atom_site_label
_atom_site_fract_x
_atom_site_fract_y
_atom_site_fract_z
Si Si1 0.703810 0.317869 0.440850
Si Si2 0.387996 0.180103 0.354140
Si Si3 0.390575 0.818174 0.528198
Si Si4 0.214926 0.317911 0.577561
Si Si5 0.393829 0.816016 0.987617
Si Si6 0.115114 0.174999 0.761459
Si Si7 0.110949 0.816363 0.662174
O O1 0.697862 0.500000 0.443715
O O2 0.669473 0.262048 0.393019
O O3 0.638891 0.247075 0.479838
O O4 0.811685 0.270699 0.453053
O O5 0.500000 0.220234 0.358608
O O6 0.356460 0.230118 0.304655
O O7 0.379651 0.000000 0.359089
O O8 0.500000 0.780554 0.537723
O O9 0.316726 0.748085 0.563339
O O10 0.380600 0.000000 0.527481
O O11 0.219619 0.500000 0.578992
O O12 0.144023 0.274241 0.536853
O O13 0.174035 0.253274 0.623331
O O14 0.500000 0.758823 0.979335
O O15 0.397136 0.000000 0.986639
O O16 0.143413 0.229638 0.712112
O O17 0.000000 0.175302 0.760204
O O18 0.145088 0.000000 0.767169
O O19 0.000000 0.772482 0.656182
O O20 0.114528 0.000000 0.660718
#
# Coordination Sequence:
#
# PCOD9373616 Si02
#       7
#     8   8   8   8   8   8   8
#     4  10  19  29  45  67  88 115 148 180 219 265
#     4  10  19  29  42  62  89 119 148 180 219 262
#     4  10  20  33  47  63  87 118 150 186 224 261
#     4  10  19  29  45  68  91 118 150 182 219 263
#     4   8  15  28  43  61  86 113 143 178 211 247
#     4   8  15  28  44  62  86 116 148 181 217 258
#     4   9  17  29  45  66  93 122 149 180 220 264
#
# _framework density 15.043061
#
# number of rings (size 3 to 8) (size 9 to 14) (size 15 to 20)
#    0.000    2.714    0.000    4.286    0.000    5.143 
#    0.000    1.429    0.000    8.571    0.000    1.000 
#    0.000    3.429    0.000    0.000    0.000    0.000 
#
# Total GULP energy -156028.355634 kJ/mol
# GULP energy per Si atom -5572.441273 kJ/mol
# Density = 1.500882 g / cm^3
# Si number density = 15.043061 Si / 1000 Ang^3
#
#
#
# Elastic Constant Matrix: (Units=GPa)
#
#
# Indices 1 2 3 4 5 6 
#
# 1 98.8429 36.1030 64.5112 0.0000 0.0000 0.0000
# 2 36.1030 37.4213 41.8387 0.0000 0.0000 0.0000
# 3 64.5112 41.8387 133.7870 0.0000 0.0000 0.0000
# 4 0.0000 0.0000 0.0000 27.9797 0.0000 0.0000
# 5 0.0000 0.0000 0.0000 0.0000 22.2269 0.0000
# 6 0.0000 0.0000 0.0000 0.0000 0.0000 17.4582
#
#
#
# Elastic Compliance Matrix: (Units=1/GPa)
#
#
# Indices 1 2 3 4 5 6 
#
# 1 0.017449 -0.011420 -0.004842 0.000000 0.000000 0.000000
# 2 -0.011420 0.048564 -0.009680 0.000000 0.000000 0.000000
# 3 -0.004842 -0.009680 0.012837 0.000000 0.000000 0.000000
# 4 0.000000 0.000000 0.000000 0.035740 0.000000 0.000000
# 5 0.000000 0.000000 0.000000 0.000000 0.044991 0.000000
# 6 0.000000 0.000000 0.000000 0.000000 0.000000 0.057280
#
#
# Mechanical properties :
#
#
# Convention : Reuss Voigt Hill
#
# Bulk Modulus (GPa) = 37.08710 61.66189 49.37450
# Shear Modulus (GPa) = 18.00289 22.03950 20.02119
#
# Velocity S-wave (km/s) = 3.46317 3.83181 3.65214
# Velocity P-wave (km/s) = 6.37957 7.78821 7.11882
#
# Compressibility (1/GPa) = 0.02696356
#
# Stress axis : x y z
#
# Youngs Moduli (GPa) = 57.31081 20.59151 77.90095
#
# Poissons Ratio (x) = 0.23516 0.37722
# Poissons Ratio (y) = 0.65450 0.75412
# Poissons Ratio (z) = 0.27752 0.19933
#
# Static dielectric constant tensor:
#      x y z
#    x 1.490380 0.000000 0.000000 
#    y 0.000000 1.505070 0.000000 
#    z 0.000000 0.000000 1.491440 
# 
# From -- ./inp_files/27223.got.cif
#   From: 2010.05.17/outbox.cif.g08.bks.cpg/sg44_14_cif.got.tgz:27223.got - 2010.06.03 19:37:08.
