data_PCOD9373236
_publ_section_title
;
Structure prediction by ZEFSAII (Michael W. Deem and Ramdas Pophale) SiO2 
 PCOD9373236
Probable space group: I M M 2
;
_chemical_formula_sum "Si O2"
_cell_formula_units_Z 64
_cell_length_a 15.228722
_cell_length_b 7.978313
_cell_length_c 28.741652
_cell_angle_alpha 90.000000
_cell_angle_beta 90.000000
_cell_angle_gamma 90.000000
_cell_volume 3492.096655
_symmetry_space_group_name_H-M "I M M 2"
_symmetry_group_IT_number 44
_symmetry_cell_setting 'orthorhombic'
loop_
_space_group_symop_operation_xyz
x,y,z
-x,-y,z
-x,y,z
x,-y,z
1/2+x,1/2+y,1/2+z
1/2-x,1/2-y,1/2+z
1/2-x,1/2+y,1/2+z
1/2+x,1/2-y,1/2+z
loop_
_atom_site_type_symbol
_atom_site_label
_atom_site_fract_x
_atom_site_fract_y
_atom_site_fract_z
Si Si1 0.901259 0.201414 0.869380
Si Si2 0.401124 0.797935 0.096804
Si Si3 0.401425 0.798179 0.990698
Si Si4 0.600897 0.702803 0.823074
Si Si5 0.721515 0.301292 0.906958
Si Si6 0.222752 0.201881 0.680316
Si Si7 0.598081 0.200599 0.717367
Si Si8 0.899358 0.795704 0.763991
O O1 0.822452 0.248542 0.903113
O O2 0.879460 0.260511 0.816671
O O3 0.000000 0.261028 0.881083
O O4 0.904933 0.000000 0.867583
O O5 0.500000 0.740616 0.110160
O O6 0.328601 0.743746 0.133483
O O7 0.402659 0.000000 0.096367
O O8 0.384355 0.741329 0.043718
O O9 0.500000 0.739551 0.977235
O O10 0.329001 0.746850 0.953699
O O11 0.403731 0.000000 0.991590
O O12 0.500000 0.751768 0.833960
O O13 0.603843 0.500000 0.821943
O O14 0.666939 0.767200 0.862490
O O15 0.621386 0.766282 0.771353
O O16 0.718759 0.500000 0.903220
O O17 0.322415 0.264756 0.685667
O O18 0.166335 0.265066 0.724462
O O19 0.225527 0.000000 0.683865
O O20 0.500000 0.269959 0.709107
O O21 0.593212 0.000000 0.711397
O O22 0.000000 0.748280 0.753332
O O23 0.896318 0.000000 0.764126
#
# Coordination Sequence:
#
# PCOD9373236 Si02
#       8
#     8   8   8   8   8   8   8   8
#     4   9  18  33  51  69  94 132 173 207 236 272
#     4   9  19  35  52  72  98 123 150 191 240 286
#     4   9  19  36  55  73  95 124 157 194 238 291
#     4   9  18  31  45  66  99 133 161 192 235 286
#     4  11  21  31  48  74 102 129 158 198 246 292
#     4  10  18  28  47  72  96 125 160 196 236 283
#     4   9  18  31  46  67  96 129 165 202 234 268
#     4   8  14  25  42  66  94 122 156 197 235 274
#
# _framework density 18.327099
#
# number of rings (size 3 to 8) (size 9 to 14) (size 15 to 20)
#    0.000    2.750    0.000    3.375    0.000    4.750 
#    0.000    3.125    0.000    1.500    0.000    3.500 
#    0.000    0.000    0.000    0.000    0.000    0.000 
#
# Total GULP energy -178470.748099 kJ/mol
# GULP energy per Si atom -5577.210878 kJ/mol
# Density = 1.828539 g / cm^3
# Si number density = 18.327099 Si / 1000 Ang^3
#
#
#
# Elastic Constant Matrix: (Units=GPa)
#
#
# Indices 1 2 3 4 5 6 
#
# 1 158.0105 13.2205 106.1632 0.0000 0.0000 0.0000
# 2 13.2205 13.1289 5.7610 0.0000 0.0000 0.0000
# 3 106.1632 5.7610 97.9489 0.0000 0.0000 0.0000
# 4 0.0000 0.0000 0.0000 22.1993 0.0000 0.0000
# 5 0.0000 0.0000 0.0000 0.0000 32.0883 0.0000
# 6 0.0000 0.0000 0.0000 0.0000 0.0000 13.5475
#
#
#
# Elastic Compliance Matrix: (Units=1/GPa)
#
#
# Indices 1 2 3 4 5 6 
#
# 1 0.025550 -0.013936 -0.026873 0.000000 0.000000 0.000000
# 2 -0.013936 0.085787 0.010059 0.000000 0.000000 0.000000
# 3 -0.026873 0.010059 0.038744 0.000000 0.000000 0.000000
# 4 0.000000 0.000000 0.000000 0.045046 0.000000 0.000000
# 5 0.000000 0.000000 0.000000 0.000000 0.031164 0.000000
# 6 0.000000 0.000000 0.000000 0.000000 0.000000 0.073815
#
#
# Mechanical properties :
#
#
# Convention : Reuss Voigt Hill
#
# Bulk Modulus (GPa) = 11.28902 57.70863 34.49882
# Shear Modulus (GPa) = 12.78335 23.16327 17.97331
#
# Velocity S-wave (km/s) = 2.64391 3.55897 3.13500
# Velocity P-wave (km/s) = 3.93617 6.96023 5.65413
#
# Compressibility (1/GPa) = 0.08858164
#
# Stress axis : x y z
#
# Youngs Moduli (GPa) = 39.13893 11.65676 25.81014
#
# Poissons Ratio (x) = 0.16245 0.69360
# Poissons Ratio (y) = 0.54545 -0.25963
# Poissons Ratio (z) = 1.05178 -0.11726
#
# Static dielectric constant tensor:
#      x y z
#    x 1.665460 0.000000 0.000000 
#    y 0.000000 1.655260 0.000000 
#    z 0.000000 0.000000 1.611260 
# 
# From -- ./inp_files/25767.got.cif
#   From: 2010.05.17/outbox.cif.g08.bks.cpg/sg44_13_cif.got.tgz:25767.got - 2010.06.03 19:37:08.
