data_PCOD9373129
_publ_section_title
;
Structure prediction by ZEFSAII (Michael W. Deem and Ramdas Pophale) SiO2 
 PCOD9373129
Probable space group: I M M 2
;
_chemical_formula_sum "Si O2"
_cell_formula_units_Z 28
_cell_length_a 9.985769
_cell_length_b 20.047526
_cell_length_c 7.023117
_cell_angle_alpha 90.000000
_cell_angle_beta 90.000000
_cell_angle_gamma 90.000000
_cell_volume 1405.957537
_symmetry_space_group_name_H-M "I M M 2"
_symmetry_group_IT_number 44
_symmetry_cell_setting 'orthorhombic'
loop_
_space_group_symop_operation_xyz
x,y,z
-x,-y,z
-x,y,z
x,-y,z
1/2+x,1/2+y,1/2+z
1/2-x,1/2-y,1/2+z
1/2-x,1/2+y,1/2+z
1/2+x,1/2-y,1/2+z
loop_
_atom_site_type_symbol
_atom_site_label
_atom_site_fract_x
_atom_site_fract_y
_atom_site_fract_z
Si Si1 0.000000 0.852259 0.077271
Si Si2 0.000000 0.644641 0.336619
Si Si3 0.293139 0.500000 0.092047
Si Si4 0.000000 0.500000 0.234742
Si Si5 0.000000 0.000000 0.253864
Si Si6 0.199394 0.145749 0.742136
Si Si7 0.000000 0.779552 0.479192
O O1 0.000000 0.805295 0.262136
O O2 0.000000 0.930211 0.140539
O O3 0.870353 0.839314 0.944195
O O4 0.141953 0.656455 0.234986
O O5 0.000000 0.565318 0.367425
O O6 0.000000 0.699985 0.499300
O O7 0.331834 0.431858 0.198018
O O8 0.131420 0.500000 0.102147
O O9 0.369229 0.500000 0.891379
O O10 0.127337 0.189422 0.583732
#
# Coordination Sequence:
#
# PCOD9373129 Si02
#       7
#     4   4   4   2   2   8   4
#     4  11  22  36  61  95 125 164 210 254 313 372
#     4  10  23  41  69  88 125 171 209 254 317 380
#     4  10  17  38  62  89 125 165 205 261 305 360
#     4   8  20  40  64  88 118 174 212 250 316 364
#     4  12  18  34  64  96 124 164 214 254 300 382
#     4  10  22  42  62  91 130 165 207 261 313 366
#     4  11  23  39  60  95 125 161 210 256 319 370
#
# _framework density 19.915254000000001
#
# number of rings (size 3 to 8) (size 9 to 14) (size 15 to 20)
#    0.000    1.714    2.857    1.714    4.000    0.000 
#    0.000    2.857    0.000    0.000    0.000    0.000 
#    0.000    0.000    0.000    0.000    0.000    0.000 
#
# Total GULP energy -78079.232815 kJ/mol
# GULP energy per Si atom -5577.088058 kJ/mol
# Density = 1.986993 g / cm^3
# Si number density = 19.915254 Si / 1000 Ang^3
#
#
#
# Elastic Constant Matrix: (Units=GPa)
#
#
# Indices 1 2 3 4 5 6 
#
# 1 148.2316 56.2210 47.8547 0.0003 0.0008 0.0010
# 2 56.2210 120.1826 35.8620 -0.0019 -0.0011 0.0002
# 3 47.8547 35.8620 105.3149 -0.0073 0.0009 0.0128
# 4 0.0003 -0.0019 -0.0073 8.8495 0.0000 0.0004
# 5 0.0008 -0.0011 0.0009 0.0000 5.0803 0.0004
# 6 0.0010 0.0002 0.0128 0.0004 0.0004 36.7859
#
#
#
# Elastic Compliance Matrix: (Units=1/GPa)
#
#
# Indices 1 2 3 4 5 6 
#
# 1 0.008951 -0.003310 -0.002940 -0.000003 -0.000002 0.000001
# 2 -0.003310 0.010486 -0.002067 0.000001 0.000003 0.000001
# 3 -0.002940 -0.002067 0.011535 0.000009 -0.000002 -0.000004
# 4 -0.000003 0.000001 0.000009 0.113000 -0.000001 -0.000001
# 5 -0.000002 0.000003 -0.000002 -0.000001 0.196839 -0.000002
# 6 0.000001 0.000001 -0.000004 -0.000001 -0.000002 0.027184
#
#
# Mechanical properties :
#
#
# Convention : Reuss Voigt Hill
#
# Bulk Modulus (GPa) = 69.74312 72.62271 71.18292
# Shear Modulus (GPa) = 12.84001 25.72923 19.28462
#
# Velocity S-wave (km/s) = 2.54191 3.59825 3.11518
# Velocity P-wave (km/s) = 6.61144 7.33541 6.98281
#
# Compressibility (1/GPa) = 0.01433833
#
# Stress axis : x y z
#
# Youngs Moduli (GPa) = 111.72289 95.36830 86.69234
#
# Poissons Ratio (x) = 0.31565 0.25489
# Poissons Ratio (y) = 0.36978 0.17916
# Poissons Ratio (z) = 0.32848 0.19709
#
# Static dielectric constant tensor:
#      x y z
#    x 1.717900 0.000000 0.000000 
#    y 0.000000 1.730600 0.000000 
#    z 0.000000 0.000000 1.663320 
# 
# From -- ./inp_files/835.got.cif
#   From: 2010.05.17/outbox.cif.g08.bks.cpg/sg44_1_cif.got.tgz:835.got - 2010.06.03 19:37:08.
