data_PCOD9373398
_publ_section_title
;
Structure prediction by ZEFSAII (Michael W. Deem and Ramdas Pophale) SiO2 
 PCOD9373398
Probable space group: I M M 2
;
_chemical_formula_sum "Si O2"
_cell_formula_units_Z 64
_cell_length_a 7.499267
_cell_length_b 19.617788
_cell_length_c 19.476349
_cell_angle_alpha 90.000000
_cell_angle_beta 90.000000
_cell_angle_gamma 90.000000
_cell_volume 2865.341576
_symmetry_space_group_name_H-M "I M M 2"
_symmetry_group_IT_number 44
_symmetry_cell_setting 'orthorhombic'
loop_
_space_group_symop_operation_xyz
x,y,z
-x,-y,z
-x,y,z
x,-y,z
1/2+x,1/2+y,1/2+z
1/2-x,1/2-y,1/2+z
1/2-x,1/2+y,1/2+z
1/2+x,1/2-y,1/2+z
loop_
_atom_site_type_symbol
_atom_site_label
_atom_site_fract_x
_atom_site_fract_y
_atom_site_fract_z
Si Si1 0.284334 0.573777 0.605090
Si Si2 0.801079 0.714395 0.669098
Si Si3 0.785850 0.423742 0.219822
Si Si4 0.218075 0.579745 0.943599
Si Si5 0.713105 0.321527 0.343484
Si Si6 0.783359 0.928561 0.945918
Si Si7 0.282495 0.826595 0.319424
Si Si8 0.211848 0.650108 0.084953
O O1 0.500000 0.579129 0.611227
O O2 0.232291 0.500000 0.635794
O O3 0.199427 0.641755 0.632643
O O4 0.238140 0.571971 0.525073
O O5 0.715886 0.691264 0.742069
O O6 0.733745 0.773379 0.617205
O O7 0.000000 0.738391 0.686741
O O8 0.720119 0.500000 0.238398
O O9 0.747717 0.362878 0.273357
O O10 0.719676 0.400080 0.144984
O O11 0.000000 0.427489 0.216447
O O12 0.270403 0.500000 0.950704
O O13 0.275363 0.612805 0.870281
O O14 0.000000 0.580949 0.943061
O O15 0.276752 0.626181 0.009374
O O16 0.500000 0.319027 0.348994
O O17 0.789507 0.366900 0.403735
O O18 0.769872 0.244574 0.353772
O O19 0.000000 0.926855 0.943306
O O20 0.725589 0.000000 0.914006
O O21 0.500000 0.833587 0.314188
O O22 0.000000 0.640607 0.080960
#
# Coordination Sequence:
#
# PCOD9373398 Si02
#       8
#     8   8   8   8   8   8   8   8
#     4   9  19  36  57  81 107 138 180 227 273 323
#     4  11  22  36  54  81 116 148 180 223 277 336
#     4  10  20  33  50  77 112 144 175 218 275 335
#     4   9  18  34  58  86 110 138 186 244 291 328
#     4  10  18  31  51  76 106 141 183 221 261 318
#     4   8  15  28  49  76 102 130 171 220 258 299
#     4   9  19  33  51  79 111 141 178 228 275 320
#     4  10  20  35  58  83 108 142 184 230 279 332
#
# _framework density 22.335905
#
# number of rings (size 3 to 8) (size 9 to 14) (size 15 to 20)
#    0.000    2.500    1.250    1.875    1.750    3.000 
#    0.000    1.875    0.000    3.375    0.000    0.000 
#    0.000    0.000    0.000    0.000    0.000    0.000 
#
# Total GULP energy -178217.075854 kJ/mol
# GULP energy per Si atom -5569.283620 kJ/mol
# Density = 2.228507 g / cm^3
# Si number density = 22.335905 Si / 1000 Ang^3
#
#
#
# Elastic Constant Matrix: (Units=GPa)
#
#
# Indices 1 2 3 4 5 6 
#
# 1 57.4132 3.3690 2.5210 0.0000 0.0000 0.0000
# 2 3.3690 155.1049 69.1396 0.0000 0.0000 0.0000
# 3 2.5210 69.1396 96.0704 0.0000 0.0000 0.0000
# 4 0.0000 0.0000 0.0000 39.8664 0.0000 0.0000
# 5 0.0000 0.0000 0.0000 0.0000 6.6457 0.0000
# 6 0.0000 0.0000 0.0000 0.0000 0.0000 7.1958
#
#
#
# Elastic Compliance Matrix: (Units=1/GPa)
#
#
# Indices 1 2 3 4 5 6 
#
# 1 0.017445 -0.000257 -0.000272 0.000000 0.000000 0.000000
# 2 -0.000257 0.009496 -0.006827 0.000000 0.000000 0.000000
# 3 -0.000272 -0.006827 0.015330 0.000000 0.000000 0.000000
# 4 0.000000 0.000000 0.000000 0.025084 0.000000 0.000000
# 5 0.000000 0.000000 0.000000 0.000000 0.150473 0.000000
# 6 0.000000 0.000000 0.000000 0.000000 0.000000 0.138969
#
#
# Mechanical properties :
#
#
# Convention : Reuss Voigt Hill
#
# Bulk Modulus (GPa) = 36.28992 50.96084 43.62538
# Shear Modulus (GPa) = 13.13381 26.31217 19.72299
#
# Velocity S-wave (km/s) = 2.42753 3.43596 2.97478
# Velocity P-wave (km/s) = 4.91323 6.21339 5.60116
#
# Compressibility (1/GPa) = 0.02755586
#
# Stress axis : x y z
#
# Youngs Moduli (GPa) = 57.32407 105.30467 65.23262
#
# Poissons Ratio (x) = 0.02711 0.01778
# Poissons Ratio (y) = 0.01476 0.44537
# Poissons Ratio (z) = 0.01562 0.71896
#
# Static dielectric constant tensor:
#      x y z
#    x 1.899000 0.000000 0.000000 
#    y 0.000000 1.792800 0.000000 
#    z 0.000000 0.000000 1.860400 
# 
# From -- ./inp_files/23288.got.cif
#   From: 2010.05.17/outbox.cif.g08.bks.cpg/sg44_12_cif.got.tgz:23288.got - 2010.06.03 19:37:08.
