data_PCOD9373969
_publ_section_title
;
Structure prediction by ZEFSAII (Michael W. Deem and Ramdas Pophale) SiO2 
 PCOD9373969
Probable space group: I M M 2
;
_chemical_formula_sum "Si O2"
_cell_formula_units_Z 64
_cell_length_a 9.080620
_cell_length_b 29.407937
_cell_length_c 12.892617
_cell_angle_alpha 90.000000
_cell_angle_beta 90.000000
_cell_angle_gamma 90.000000
_cell_volume 3442.874108
_symmetry_space_group_name_H-M "I M M 2"
_symmetry_group_IT_number 44
_symmetry_cell_setting 'orthorhombic'
loop_
_space_group_symop_operation_xyz
x,y,z
-x,-y,z
-x,y,z
x,-y,z
1/2+x,1/2+y,1/2+z
1/2-x,1/2-y,1/2+z
1/2-x,1/2+y,1/2+z
1/2+x,1/2-y,1/2+z
loop_
_atom_site_type_symbol
_atom_site_label
_atom_site_fract_x
_atom_site_fract_y
_atom_site_fract_z
Si Si1 0.673117 0.424205 0.528670
Si Si2 0.677817 0.906803 0.239203
Si Si3 0.170122 0.697485 0.699632
Si Si4 0.830119 0.333041 0.473017
Si Si5 0.679712 0.118589 0.648050
Si Si6 0.179272 0.447666 0.962706
Si Si7 0.825294 0.451146 0.324416
Si Si8 0.825219 0.709691 0.248436
O O1 0.500000 0.431370 0.535933
O O2 0.749481 0.430856 0.639993
O O3 0.715871 0.372846 0.495664
O O4 0.743788 0.451044 0.433492
O O5 0.500000 0.908271 0.227574
O O6 0.720553 0.853073 0.234889
O O7 0.718153 0.930146 0.347631
O O8 0.176495 0.698253 0.574357
O O9 0.255675 0.740986 0.739000
O O10 0.000000 0.701036 0.731821
O O11 0.801569 0.309239 0.364434
O O12 0.000000 0.351329 0.470020
O O13 0.500000 0.119449 0.645512
O O14 0.728415 0.089497 0.548197
O O15 0.722080 0.089346 0.749388
O O16 0.728787 0.170489 0.668128
O O17 0.228011 0.500000 0.980272
O O18 0.000000 0.448339 0.967773
O O19 0.802833 0.500000 0.270999
O O20 0.000000 0.446250 0.342460
O O21 0.000000 0.713855 0.233041
#
# Coordination Sequence:
#
# PCOD9373969 Si02
#       8
#     8   8   8   8   8   8   8   8
#     4  11  21  33  53  79 106 137 176 228 278 323
#     4   9  19  36  55  76 110 149 183 225 275 330
#     4   9  19  33  50  74 106 143 183 225 270 321
#     4   9  18  36  55  72 102 143 179 220 273 331
#     4   9  17  31  52  81 111 138 176 228 275 321
#     4   9  17  31  55  85 111 138 180 231 279 328
#     4  10  19  33  55  79 106 142 178 214 268 335
#     4  10  19  32  54  79 107 141 181 226 274 327
#
# _framework density 18.589120000000001
#
# number of rings (size 3 to 8) (size 9 to 14) (size 15 to 20)
#    0.000    2.500    1.250    2.250    0.000    5.750 
#    0.000    2.500    0.000    1.500    0.000    0.000 
#    0.000    0.000    0.000    0.000    0.000    0.000 
#
# Total GULP energy -178330.518589 kJ/mol
# GULP energy per Si atom -5572.828706 kJ/mol
# Density = 1.854681 g / cm^3
# Si number density = 18.589120 Si / 1000 Ang^3
#
#
#
# Elastic Constant Matrix: (Units=GPa)
#
#
# Indices 1 2 3 4 5 6 
#
# 1 19.5670 9.5128 17.7431 0.0000 0.0000 0.0000
# 2 9.5128 51.6062 16.1239 0.0000 0.0000 0.0000
# 3 17.7431 16.1239 83.2290 0.0002 -0.0001 0.0000
# 4 0.0000 0.0000 0.0002 18.3643 0.0000 0.0000
# 5 0.0000 0.0000 -0.0001 0.0000 6.8537 0.0000
# 6 0.0000 0.0000 0.0000 0.0000 0.0000 18.4827
#
#
#
# Elastic Compliance Matrix: (Units=1/GPa)
#
#
# Indices 1 2 3 4 5 6 
#
# 1 0.066564 -0.008341 -0.012574 0.000000 0.000000 0.000000
# 2 -0.008341 0.021671 -0.002420 0.000000 0.000000 0.000000
# 3 -0.012574 -0.002420 0.015165 0.000000 0.000000 0.000000
# 4 0.000000 0.000000 0.000000 0.054453 0.000000 0.000000
# 5 0.000000 0.000000 0.000000 0.000000 0.145907 0.000000
# 6 0.000000 0.000000 0.000000 0.000000 0.000000 0.054105
#
#
# Mechanical properties :
#
#
# Convention : Reuss Voigt Hill
#
# Bulk Modulus (GPa) = 17.62795 26.79575 22.21185
# Shear Modulus (GPa) = 11.80790 16.14165 13.97478
#
# Velocity S-wave (km/s) = 2.52306 2.94996 2.74482
# Velocity P-wave (km/s) = 4.24162 5.10382 4.69257
#
# Compressibility (1/GPa) = 0.05672808
#
# Stress axis : x y z
#
# Youngs Moduli (GPa) = 15.02317 46.14408 65.94319
#
# Poissons Ratio (x) = 0.38490 0.82920
# Poissons Ratio (y) = 0.12531 0.15959
# Poissons Ratio (z) = 0.18891 0.11167
#
# Static dielectric constant tensor:
#      x y z
#    x 1.625910 0.000000 0.000000 
#    y 0.000000 1.664010 0.000000 
#    z 0.000000 0.000000 1.644890 
# 
# From -- ./inp_files/11529.got.cif
#   From: 2010.05.17/outbox.cif.g08.bks.cpg/sg44_6_cif.got.tgz:11529.got - 2010.06.03 19:37:08.
