data_PCOD9373673
_publ_section_title
;
Structure prediction by ZEFSAII (Michael W. Deem and Ramdas Pophale) SiO2 
 PCOD9373673
Probable space group: I M M 2
;
_chemical_formula_sum "Si O2"
_cell_formula_units_Z 48
_cell_length_a 34.279743
_cell_length_b 7.616268
_cell_length_c 7.283176
_cell_angle_alpha 90.000000
_cell_angle_beta 90.000000
_cell_angle_gamma 90.000000
_cell_volume 1901.518608
_symmetry_space_group_name_H-M "I M M 2"
_symmetry_group_IT_number 44
_symmetry_cell_setting 'orthorhombic'
loop_
_space_group_symop_operation_xyz
x,y,z
-x,-y,z
-x,y,z
x,-y,z
1/2+x,1/2+y,1/2+z
1/2-x,1/2-y,1/2+z
1/2-x,1/2+y,1/2+z
1/2+x,1/2-y,1/2+z
loop_
_atom_site_type_symbol
_atom_site_label
_atom_site_fract_x
_atom_site_fract_y
_atom_site_fract_z
Si Si1 0.708523 0.291464 0.341030
Si Si2 0.875769 0.282904 0.205437
Si Si3 0.126742 0.292038 0.779661
Si Si4 0.041404 0.704414 0.223523
Si Si5 0.542185 0.291018 0.294040
Si Si6 0.294309 0.197272 0.750691
O O1 0.711128 0.500000 0.373993
O O2 0.669995 0.266401 0.217277
O O3 0.701827 0.192225 0.530862
O O4 0.751200 0.226857 0.278195
O O5 0.875435 0.500000 0.208954
O O6 0.917048 0.221029 0.283598
O O7 0.836036 0.220539 0.301112
O O8 0.875424 0.226063 0.991731
O O9 0.128692 0.500000 0.778845
O O10 0.083811 0.249991 0.701446
O O11 0.040822 0.500000 0.277679
O O12 0.000000 0.786738 0.277559
O O13 0.042786 0.710589 0.000017
O O14 0.500000 0.235270 0.211435
O O15 0.541150 0.500000 0.315218
O O16 0.293744 0.000000 0.828200
#
# Coordination Sequence:
#
# PCOD9373673 Si02
#       6
#     8   8   8   8   8   8
#     4  10  19  30  46  66  87 114 149 187 226 267
#     4   7  11  21  35  50  72 102 132 164 204 249
#     4   9  16  26  39  54  77 109 141 174 215 262
#     4   8  12  18  30  48  70 100 136 167 200 248
#     4   9  15  21  31  50  76 104 135 171 208 250
#     4   9  18  31  45  63  88 117 147 181 223 269
#
# _framework density 25.242978999999998
#
# number of rings (size 3 to 8) (size 9 to 14) (size 15 to 20)
#    0.000    3.333    0.000    3.500    0.000    2.333 
#    0.000    0.000    0.000    0.000    0.000    0.000 
#    0.000    1.333    0.000    5.667    0.000   15.667 
#
# Total GULP energy -133637.786512 kJ/mol
# GULP energy per Si atom -5568.241105 kJ/mol
# Density = 2.518553 g / cm^3
# Si number density = 25.242979 Si / 1000 Ang^3
#
#
#
# Elastic Constant Matrix: (Units=GPa)
#
#
# Indices 1 2 3 4 5 6 
#
# 1 345.2155 4.6729 -8.4235 0.0000 0.0000 0.0000
# 2 4.6729 78.2779 -21.4010 0.0000 0.0000 0.0000
# 3 -8.4235 -21.4010 49.1516 0.0000 0.0000 0.0000
# 4 0.0000 0.0000 0.0000 -0.7281 0.0000 0.0000
# 5 0.0000 0.0000 0.0000 0.0000 -1.6955 0.0000
# 6 0.0000 0.0000 0.0000 0.0000 0.0000 40.1153
#
#
#
# Elastic Compliance Matrix: (Units=1/GPa)
#
#
# Indices 1 2 3 4 5 6 
#
# 1 0.002909 -0.000042 0.000480 0.000000 0.000000 0.000000
# 2 -0.000042 0.014502 0.006307 0.000000 0.000000 0.000000
# 3 0.000480 0.006307 0.023174 0.000000 0.000000 0.000000
# 4 0.000000 0.000000 0.000000 -1.373509 -0.000001 0.000000
# 5 0.000000 0.000000 0.000000 -0.000001 -0.589791 0.000000
# 6 0.000000 0.000000 0.000000 0.000000 0.000000 0.024928
#
#
# Mechanical properties :
#
#
# Convention : Reuss Voigt Hill
#
# Bulk Modulus (GPa) = 18.49326 46.92685 32.71006
# Shear Modulus (GPa) = -2.64096 40.72478 19.04191
#
# Velocity S-wave (km/s) = -1.02396 4.02096 2.74951
# Velocity P-wave (km/s) = 2.43804 6.33940 4.80271
#
# Compressibility (1/GPa) = 0.05407374
#
# Stress axis : x y z
#
# Youngs Moduli (GPa) = 343.75724 68.95675 43.15255
#
# Poissons Ratio (x) = 0.00292 -0.02072
# Poissons Ratio (y) = 0.01458 -0.27216
# Poissons Ratio (z) = -0.16503 -0.43491
#
# Static dielectric constant tensor:
#      x y z
#    x 2.190070 0.000000 0.000000 
#    y 0.000000 1.894270 0.000000 
#    z 0.000000 0.000000 2.234800 
# 
# From -- ./inp_files/11343.got.cif
#   From: 2010.05.17/outbox.cif.g08.bks.cpg/sg44_6_cif.got.tgz:11343.got - 2010.06.03 19:37:08.
