data_PCOD9373492
_publ_section_title
;
Structure prediction by ZEFSAII (Michael W. Deem and Ramdas Pophale) SiO2 
 PCOD9373492
Probable space group: I M M 2
;
_chemical_formula_sum "Si O2"
_cell_formula_units_Z 30
_cell_length_a 12.002924
_cell_length_b 7.686723
_cell_length_c 19.688294
_cell_angle_alpha 90.000000
_cell_angle_beta 90.000000
_cell_angle_gamma 90.000000
_cell_volume 1816.504062
_symmetry_space_group_name_H-M "I M M 2"
_symmetry_group_IT_number 44
_symmetry_cell_setting 'orthorhombic'
loop_
_space_group_symop_operation_xyz
x,y,z
-x,-y,z
-x,y,z
x,-y,z
1/2+x,1/2+y,1/2+z
1/2-x,1/2-y,1/2+z
1/2-x,1/2+y,1/2+z
1/2+x,1/2-y,1/2+z
loop_
_atom_site_type_symbol
_atom_site_label
_atom_site_fract_x
_atom_site_fract_y
_atom_site_fract_z
Si Si1 0.500000 0.500000 0.852231
Si Si2 0.700232 0.297521 0.640250
Si Si3 0.500000 0.201826 0.740974
Si Si4 0.630805 0.500000 0.111836
Si Si5 0.371896 0.297520 0.483692
Si Si6 0.795191 0.000000 0.454594
O O1 0.500000 0.331516 0.804130
O O2 0.391493 0.500000 0.899527
O O3 0.729532 0.500000 0.649953
O O4 0.607991 0.242002 0.694715
O O5 0.646043 0.280475 0.565075
O O6 0.805275 0.169032 0.640574
O O7 0.500000 0.000000 0.760511
O O8 0.500000 0.500000 0.125907
O O9 0.651386 0.500000 0.030274
O O10 0.500000 0.252910 0.468078
O O11 0.352938 0.500000 0.466443
O O12 0.284267 0.168332 0.449962
#
# Coordination Sequence:
#
# PCOD9373492 Si02
#       6
#     2   8   4   4   8   4
#     4  12  26  40  54  78 126 162 194 220 264 370
#     4  10  18  32  56  88 118 138 184 240 302 332
#     4  12  22  36  60  88 110 150 192 245 284 332
#     4  10  20  34  56  83 119 148 185 238 283 350
#     4   9  17  30  57  89 114 138 179 250 290 327
#     4  10  21  36  51  78 118 163 188 212 283 347
#
# _framework density 16.515238
#
# number of rings (size 3 to 8) (size 9 to 14) (size 15 to 20)
#    0.000    1.867    4.667    0.400    0.000    1.600 
#    0.000    0.000    0.000    3.200    0.000    0.000 
#    0.000    0.000    0.000    0.000    0.000    0.000 
#
# Total GULP energy -83704.647264 kJ/mol
# GULP energy per Si atom -5580.309818 kJ/mol
# Density = 1.647765 g / cm^3
# Si number density = 16.515238 Si / 1000 Ang^3
#
#
#
# Elastic Constant Matrix: (Units=GPa)
#
#
# Indices 1 2 3 4 5 6 
#
# 1 178.3690 102.5390 60.8703 0.0000 0.0000 0.0000
# 2 102.5390 158.6025 61.7988 0.0000 0.0000 0.0000
# 3 60.8703 61.7988 69.0973 0.0000 0.0000 0.0000
# 4 0.0000 0.0000 0.0000 20.5146 0.0000 0.0000
# 5 0.0000 0.0000 0.0000 0.0000 18.6207 0.0000
# 6 0.0000 0.0000 0.0000 0.0000 0.0000 19.5379
#
#
#
# Elastic Compliance Matrix: (Units=1/GPa)
#
#
# Indices 1 2 3 4 5 6 
#
# 1 0.009770 -0.004548 -0.004539 0.000000 0.000000 0.000000
# 2 -0.004548 0.011794 -0.006542 0.000000 0.000000 0.000000
# 3 -0.004539 -0.006542 0.024323 0.000000 0.000000 0.000000
# 4 0.000000 0.000000 0.000000 0.048746 0.000000 0.000000
# 5 0.000000 0.000000 0.000000 0.000000 0.053704 0.000000
# 6 0.000000 0.000000 0.000000 0.000000 0.000000 0.051183
#
#
# Mechanical properties :
#
#
# Convention : Reuss Voigt Hill
#
# Bulk Modulus (GPa) = 68.36181 95.16501 81.76341
# Shear Modulus (GPa) = 21.21760 23.79201 22.50480
#
# Velocity S-wave (km/s) = 3.58820 3.79965 3.69544
# Velocity P-wave (km/s) = 7.65832 8.77482 8.23551
#
# Compressibility (1/GPa) = 0.01462805
#
# Stress axis : x y z
#
# Youngs Moduli (GPa) = 102.35764 84.78621 41.11407
#
# Poissons Ratio (x) = 0.38557 0.18663
# Poissons Ratio (y) = 0.46547 0.26899
# Poissons Ratio (z) = 0.46463 0.55471
#
# Static dielectric constant tensor:
#      x y z
#    x 1.525770 0.000000 0.000000 
#    y 0.000000 1.563930 0.000000 
#    z 0.000000 0.000000 1.529010 
# 
# From -- ./inp_files/17306.got.cif
#   From: 2010.05.17/outbox.cif.g08.bks.cpg/sg44_9_cif.got.tgz:17306.got - 2010.06.03 19:37:08.
