data_PCOD9373989
_publ_section_title
;
Structure prediction by ZEFSAII (Michael W. Deem and Ramdas Pophale) SiO2 
 PCOD9373989
Probable space group: I M M 2
;
_chemical_formula_sum "Si O2"
_cell_formula_units_Z 48
_cell_length_a 7.636397
_cell_length_b 23.866915
_cell_length_c 12.036332
_cell_angle_alpha 90.000000
_cell_angle_beta 90.000000
_cell_angle_gamma 90.000000
_cell_volume 2193.708627
_symmetry_space_group_name_H-M "I M M 2"
_symmetry_group_IT_number 44
_symmetry_cell_setting 'orthorhombic'
loop_
_space_group_symop_operation_xyz
x,y,z
-x,-y,z
-x,y,z
x,-y,z
1/2+x,1/2+y,1/2+z
1/2-x,1/2-y,1/2+z
1/2-x,1/2+y,1/2+z
1/2+x,1/2-y,1/2+z
loop_
_atom_site_type_symbol
_atom_site_label
_atom_site_fract_x
_atom_site_fract_y
_atom_site_fract_z
Si Si1 0.804080 0.147070 0.041240
Si Si2 0.289645 0.149311 0.412437
Si Si3 0.214546 0.935789 0.851402
Si Si4 0.292069 0.765949 0.224277
Si Si5 0.788681 0.564138 0.731550
Si Si6 0.706589 0.354498 0.169179
O O1 0.729570 0.200649 0.107335
O O2 0.802267 0.100363 0.137513
O O3 0.000000 0.163498 0.006960
O O4 0.724557 0.112100 0.938813
O O5 0.500000 0.154325 0.416454
O O6 0.223112 0.197742 0.328308
O O7 0.246712 0.091699 0.349381
O O8 0.227052 0.148265 0.537496
O O9 0.268475 0.910336 0.732032
O O10 0.000000 0.937891 0.860246
O O11 0.274079 0.000000 0.870866
O O12 0.500000 0.762256 0.241276
O O13 0.217377 0.703656 0.216687
O O14 0.740493 0.500000 0.724436
O O15 0.000000 0.569788 0.715332
O O16 0.500000 0.353091 0.192764
#
# Coordination Sequence:
#
# PCOD9373989 Si02
#       6
#     8   8   8   8   8   8
#     4  10  19  32  56  84 108 137 179 230 272 312
#     4   9  19  35  53  75 105 137 175 220 265 317
#     4   9  19  35  54  79 111 145 179 218 270 326
#     4   9  20  37  55  76 107 143 179 220 274 333
#     4   9  18  34  55  77 107 146 178 212 266 323
#     4  10  21  36  55  77 105 143 181 220 268 325
#
# _framework density 21.880752000000001
#
# number of rings (size 3 to 8) (size 9 to 14) (size 15 to 20)
#    0.000    2.667    0.000    2.000    2.333    5.000 
#    0.000    1.667    0.000    2.000    0.000    0.000 
#    0.000    0.000    0.000    0.000    0.000    0.000 
#
# Total GULP energy -133823.198853 kJ/mol
# GULP energy per Si atom -5575.966619 kJ/mol
# Density = 2.183095 g / cm^3
# Si number density = 21.880752 Si / 1000 Ang^3
#
#
#
# Elastic Constant Matrix: (Units=GPa)
#
#
# Indices 1 2 3 4 5 6 
#
# 1 32.6355 1.9943 -5.4373 0.0000 0.0000 0.0000
# 2 1.9943 66.5837 17.5533 0.0000 0.0000 0.0000
# 3 -5.4373 17.5533 96.5302 0.0001 -0.0002 0.0000
# 4 0.0000 0.0000 0.0001 15.0503 -0.0001 0.0000
# 5 0.0000 0.0000 -0.0002 -0.0001 29.5809 0.0000
# 6 0.0000 0.0000 0.0000 0.0000 0.0000 11.6590
#
#
#
# Elastic Compliance Matrix: (Units=1/GPa)
#
#
# Indices 1 2 3 4 5 6 
#
# 1 0.031067 -0.001462 0.002016 0.000000 0.000000 0.000000
# 2 -0.001462 0.015844 -0.002963 0.000000 0.000000 0.000000
# 3 0.002016 -0.002963 0.011012 0.000000 0.000000 0.000000
# 4 0.000000 0.000000 0.000000 0.066444 0.000000 0.000000
# 5 0.000000 0.000000 0.000000 0.000000 0.033806 0.000000
# 6 0.000000 0.000000 0.000000 0.000000 0.000000 0.085770
#
#
# Mechanical properties :
#
#
# Convention : Reuss Voigt Hill
#
# Bulk Modulus (GPa) = 18.83130 24.88557 21.85843
# Shear Modulus (GPa) = 18.76437 23.36731 21.06584
#
# Velocity S-wave (km/s) = 2.93161 3.27148 3.10620
# Velocity P-wave (km/s) = 4.48154 5.06637 4.78290
#
# Compressibility (1/GPa) = 0.05310309
#
# Stress axis : x y z
#
# Youngs Moduli (GPa) = 32.18885 63.11656 90.81118
#
# Poissons Ratio (x) = 0.09227 -0.18305
# Poissons Ratio (y) = 0.04706 0.26911
# Poissons Ratio (z) = -0.06488 0.18704
#
# Static dielectric constant tensor:
#      x y z
#    x 1.840550 0.000000 0.000000 
#    y 0.000000 1.800350 0.000000 
#    z 0.000000 0.000000 1.795430 
# 
# From -- ./inp_files/11137.got.cif
#   From: 2010.05.17/outbox.cif.g08.bks.cpg/sg44_6_cif.got.tgz:11137.got - 2010.06.03 19:37:08.
