data_PCOD9373110
_publ_section_title
;
Structure prediction by ZEFSAII (Michael W. Deem and Ramdas Pophale) SiO2 
 PCOD9373110
Probable space group: I M M 2
;
_chemical_formula_sum "Si O2"
_cell_formula_units_Z 44
_cell_length_a 12.336086
_cell_length_b 20.061545
_cell_length_c 10.390039
_cell_angle_alpha 90.000000
_cell_angle_beta 90.000000
_cell_angle_gamma 90.000000
_cell_volume 2571.336664
_symmetry_space_group_name_H-M "I M M 2"
_symmetry_group_IT_number 44
_symmetry_cell_setting 'orthorhombic'
loop_
_space_group_symop_operation_xyz
x,y,z
-x,-y,z
-x,y,z
x,-y,z
1/2+x,1/2+y,1/2+z
1/2-x,1/2-y,1/2+z
1/2-x,1/2+y,1/2+z
1/2+x,1/2-y,1/2+z
loop_
_atom_site_type_symbol
_atom_site_label
_atom_site_fract_x
_atom_site_fract_y
_atom_site_fract_z
Si Si1 0.372489 0.721776 0.849930
Si Si2 0.629856 0.000000 0.946160
Si Si3 0.123910 0.000000 0.440961
Si Si4 0.872301 0.861808 0.592619
Si Si5 0.125792 0.144709 0.098394
Si Si6 0.700582 0.500000 0.668956
Si Si7 0.728921 0.138230 0.848631
O O1 0.500000 0.705987 0.850953
O O2 0.329396 0.685072 0.721947
O O3 0.353309 0.800127 0.840894
O O4 0.331936 0.690432 0.984161
O O5 0.672500 0.066964 0.875171
O O6 0.500000 0.000000 0.954859
O O7 0.688677 0.000000 0.086278
O O8 0.134542 0.934153 0.525984
O O9 0.207010 0.000000 0.322963
O O10 0.000000 0.000000 0.387351
O O11 0.801153 0.862092 0.720399
O O12 0.000000 0.849022 0.622185
O O13 0.136800 0.066630 0.131086
O O14 0.000000 0.162294 0.078110
O O15 0.194339 0.154550 0.970103
#
# Coordination Sequence:
#
# PCOD9373110 Si02
#       7
#     8   4   4   8   8   4   8
#     4  10  20  34  53  75 104 144 180 213 258 311
#     4  10  23  39  55  74 102 144 184 219 255 302
#     4  10  17  31  55  82 110 134 162 211 277 330
#     4  10  20  33  54  84 112 136 168 217 269 316
#     4  10  19  32  53  81 107 134 170 215 265 314
#     4  10  18  32  58  80 100 132 174 212 262 320
#     4  11  21  35  53  78 105 143 177 219 256 310
#
# _framework density 17.111723000000001
#
# number of rings (size 3 to 8) (size 9 to 14) (size 15 to 20)
#    0.000    1.818    1.818    3.545    0.000    0.000 
#    0.000    2.727    0.000    4.364    0.000    0.000 
#    0.000    0.000    0.000    0.000    0.000    0.000 
#
# Total GULP energy -122688.267707 kJ/mol
# GULP energy per Si atom -5576.739441 kJ/mol
# Density = 1.707278 g / cm^3
# Si number density = 17.111723 Si / 1000 Ang^3
#
#
#
# Elastic Constant Matrix: (Units=GPa)
#
#
# Indices 1 2 3 4 5 6 
#
# 1 57.6348 13.8915 47.3708 0.0000 0.0000 0.0000
# 2 13.8915 97.1835 39.8524 0.0000 0.0000 0.0000
# 3 47.3708 39.8524 139.8279 0.0000 0.0000 0.0000
# 4 0.0000 0.0000 0.0000 17.6708 0.0000 0.0000
# 5 0.0000 0.0000 0.0000 0.0000 13.3989 0.0000
# 6 0.0000 0.0000 0.0000 0.0000 0.0000 23.5078
#
#
#
# Elastic Compliance Matrix: (Units=1/GPa)
#
#
# Indices 1 2 3 4 5 6 
#
# 1 0.024047 -0.000109 -0.008116 0.000000 0.000000 0.000000
# 2 -0.000109 0.011652 -0.003284 0.000000 0.000000 0.000000
# 3 -0.008116 -0.003284 0.010837 0.000000 0.000000 0.000000
# 4 0.000000 0.000000 0.000000 0.056591 0.000000 0.000000
# 5 0.000000 0.000000 0.000000 0.000000 0.074633 0.000000
# 6 0.000000 0.000000 0.000000 0.000000 0.000000 0.042539
#
#
# Mechanical properties :
#
#
# Convention : Reuss Voigt Hill
#
# Bulk Modulus (GPa) = 42.51938 55.20838 48.86388
# Shear Modulus (GPa) = 19.90793 23.81760 21.86276
#
# Velocity S-wave (km/s) = 3.41458 3.73485 3.57830
# Velocity P-wave (km/s) = 6.35986 7.13669 6.75944
#
# Compressibility (1/GPa) = 0.02351869
#
# Stress axis : x y z
#
# Youngs Moduli (GPa) = 41.58479 85.82151 92.27675
#
# Poissons Ratio (x) = 0.00939 0.74887
# Poissons Ratio (y) = 0.00455 0.30303
# Poissons Ratio (z) = 0.33748 0.28183
#
# Static dielectric constant tensor:
#      x y z
#    x 1.560030 0.000000 0.000000 
#    y 0.000000 1.573830 0.000000 
#    z 0.000000 0.000000 1.585940 
# 
# From -- ./inp_files/7051.got.cif
#   From: 2010.05.17/outbox.cif.g08.bks.cpg/sg44_4_cif.got.tgz:7051.got - 2010.06.03 19:37:08.
