data_PCOD9373292
_publ_section_title
;
Structure prediction by ZEFSAII (Michael W. Deem and Ramdas Pophale) SiO2 
 PCOD9373292
Probable space group: I M M 2
;
_chemical_formula_sum "Si O2"
_cell_formula_units_Z 64
_cell_length_a 31.140401
_cell_length_b 8.912439
_cell_length_c 14.761600
_cell_angle_alpha 90.000000
_cell_angle_beta 90.000000
_cell_angle_gamma 90.000000
_cell_volume 4096.889062
_symmetry_space_group_name_H-M "I M M 2"
_symmetry_group_IT_number 44
_symmetry_cell_setting 'orthorhombic'
loop_
_space_group_symop_operation_xyz
x,y,z
-x,-y,z
-x,y,z
x,-y,z
1/2+x,1/2+y,1/2+z
1/2-x,1/2-y,1/2+z
1/2-x,1/2+y,1/2+z
1/2+x,1/2-y,1/2+z
loop_
_atom_site_type_symbol
_atom_site_label
_atom_site_fract_x
_atom_site_fract_y
_atom_site_fract_z
Si Si1 0.723598 0.323940 0.498120
Si Si2 0.366163 0.823990 0.175343
Si Si3 0.049500 0.680647 0.379484
Si Si4 0.366931 0.676282 0.808870
Si Si5 0.205967 0.180902 0.797370
Si Si6 0.792971 0.679739 0.190697
Si Si7 0.174198 0.670010 0.476058
Si Si8 0.451607 0.182764 0.090439
O O1 0.712620 0.500000 0.511431
O O2 0.704856 0.269973 0.402138
O O3 0.711232 0.233750 0.587443
O O4 0.774898 0.315962 0.484572
O O5 0.335226 0.737967 0.243195
O O6 0.414543 0.766384 0.158661
O O7 0.367375 0.000000 0.200883
O O8 0.345371 0.814999 0.075406
O O9 0.053247 0.500000 0.374985
O O10 0.085457 0.754899 0.317225
O O11 0.057080 0.724242 0.485355
O O12 0.000000 0.719793 0.357949
O O13 0.368941 0.500000 0.793131
O O14 0.335424 0.752914 0.736462
O O15 0.345019 0.714146 0.905517
O O16 0.250129 0.229785 0.746736
O O17 0.206913 0.000000 0.797583
O O18 0.794494 0.500000 0.195396
O O19 0.164199 0.500000 0.442739
O O20 0.500000 0.230123 0.113254
O O21 0.450549 0.000000 0.091274
#
# Coordination Sequence:
#
# PCOD9373292 Si02
#       8
#     8   8   8   8   8   8   8   8
#     4  10  20  36  51  68  98 133 166 210 253 290
#     4  10  18  29  49  72  97 130 168 207 242 290
#     4   9  17  32  53  73  98 133 169 206 252 303
#     4  12  23  32  48  74 104 138 172 207 248 299
#     4  10  21  34  49  70 100 132 164 204 252 301
#     4  11  22  36  52  72  98 131 171 209 247 300
#     4  10  18  31  49  70 100 134 170 207 246 294
#     4   8  14  26  46  71  97 128 165 202 242 289
#
# _framework density 15.621608999999999
#
# number of rings (size 3 to 8) (size 9 to 14) (size 15 to 20)
#    0.000    2.000    3.750    2.250    0.000    2.250 
#    0.000    0.000    0.000    0.375    0.000    0.875 
#    0.000    3.000    0.000    0.000    0.000    0.000 
#
# Total GULP energy -178461.377077 kJ/mol
# GULP energy per Si atom -5576.918034 kJ/mol
# Density = 1.558605 g / cm^3
# Si number density = 15.621609 Si / 1000 Ang^3
#
#
#
# Elastic Constant Matrix: (Units=GPa)
#
#
# Indices 1 2 3 4 5 6 
#
# 1 112.2394 29.8400 55.4358 0.0000 0.0000 0.0000
# 2 29.8400 38.4866 33.1900 0.0000 0.0000 0.0000
# 3 55.4358 33.1900 88.4722 0.0000 0.0000 0.0000
# 4 0.0000 0.0000 0.0000 25.4018 0.0000 0.0000
# 5 0.0000 0.0000 0.0000 0.0000 22.8359 0.0000
# 6 0.0000 0.0000 0.0000 0.0000 0.0000 22.4139
#
#
#
# Elastic Compliance Matrix: (Units=1/GPa)
#
#
# Indices 1 2 3 4 5 6 
#
# 1 0.013448 -0.004671 -0.006674 0.000000 0.000000 0.000000
# 2 -0.004671 0.040032 -0.012091 0.000000 0.000000 0.000000
# 3 -0.006674 -0.012091 0.020021 0.000000 0.000000 0.000000
# 4 0.000000 0.000000 0.000000 0.039367 0.000000 0.000000
# 5 0.000000 0.000000 0.000000 0.000000 0.043791 0.000000
# 6 0.000000 0.000000 0.000000 0.000000 0.000000 0.044615
#
#
# Mechanical properties :
#
#
# Convention : Reuss Voigt Hill
#
# Bulk Modulus (GPa) = 37.55397 52.90330 45.22864
# Shear Modulus (GPa) = 19.45369 22.17914 20.81642
#
# Velocity S-wave (km/s) = 3.53272 3.77208 3.65436
# Velocity P-wave (km/s) = 6.38217 7.27395 6.84260
#
# Compressibility (1/GPa) = 0.02662834
#
# Stress axis : x y z
#
# Youngs Moduli (GPa) = 74.36256 24.98025 49.94855
#
# Poissons Ratio (x) = 0.11668 0.33335
# Poissons Ratio (y) = 0.34735 0.60392
# Poissons Ratio (z) = 0.49628 0.30203
#
# Static dielectric constant tensor:
#      x y z
#    x 1.539280 0.000000 0.000000 
#    y 0.000000 1.531660 0.000000 
#    z 0.000000 0.000000 1.503830 
# 
# From -- ./inp_files/17070.got.cif
#   From: 2010.05.17/outbox.cif.g08.bks.cpg/sg44_9_cif.got.tgz:17070.got - 2010.06.03 19:37:08.
