data_PCOD9373149
_publ_section_title
;
Structure prediction by ZEFSAII (Michael W. Deem and Ramdas Pophale) SiO2 
 PCOD9373149
Probable space group: I M M 2
;
_chemical_formula_sum "Si O2"
_cell_formula_units_Z 56
_cell_length_a 13.897847
_cell_length_b 7.940215
_cell_length_c 32.893197
_cell_angle_alpha 90.000000
_cell_angle_beta 90.000000
_cell_angle_gamma 90.000000
_cell_volume 3629.826563
_symmetry_space_group_name_H-M "I M M 2"
_symmetry_group_IT_number 44
_symmetry_cell_setting 'orthorhombic'
loop_
_space_group_symop_operation_xyz
x,y,z
-x,-y,z
-x,y,z
x,-y,z
1/2+x,1/2+y,1/2+z
1/2-x,1/2-y,1/2+z
1/2-x,1/2+y,1/2+z
1/2+x,1/2-y,1/2+z
loop_
_atom_site_type_symbol
_atom_site_label
_atom_site_fract_x
_atom_site_fract_y
_atom_site_fract_z
Si Si1 0.116536 0.000000 0.809748
Si Si2 0.610136 0.697829 0.073935
Si Si3 0.116783 0.000000 0.714611
Si Si4 0.890301 0.295698 0.404780
Si Si5 0.801525 0.690451 0.861083
Si Si6 0.608557 0.703463 0.445199
Si Si7 0.201998 0.297393 0.490167
Si Si8 0.117173 0.314479 0.661154
O O1 0.160827 0.834575 0.830990
O O2 0.140869 0.000000 0.762007
O O3 0.000000 0.000000 0.814744
O O4 0.500000 0.755512 0.066628
O O5 0.607402 0.500000 0.083704
O O6 0.648079 0.787481 0.114449
O O7 0.667693 0.725508 0.032705
O O8 0.150246 0.165478 0.690468
O O9 0.000000 0.000000 0.712765
O O10 0.883322 0.500000 0.402959
O O11 0.808665 0.223536 0.375134
O O12 0.862448 0.246465 0.451132
O O13 0.000000 0.246916 0.395706
O O14 0.812566 0.500000 0.845733
O O15 0.862414 0.713676 0.902617
O O16 0.500000 0.745359 0.456744
O O17 0.615126 0.500000 0.439148
O O18 0.689325 0.749432 0.477955
O O19 0.195981 0.500000 0.493027
O O20 0.144871 0.500000 0.675495
O O21 0.000000 0.306451 0.660060
#
# Coordination Sequence:
#
# PCOD9373149 Si02
#       8
#     4   8   4   8   8   8   8   8
#     4  11  22  36  51  69  99 129 164 212 247 281
#     4  10  18  27  40  60  91 127 157 186 226 278
#     4   9  18  32  48  67  91 119 155 198 240 285
#     4   9  17  32  51  68  96 134 164 198 247 291
#     4  11  21  33  50  73  97 126 166 202 243 296
#     4   9  17  32  49  61  86 128 166 204 246 280
#     4   9  17  27  41  66  92 119 162 204 235 275
#     4   9  16  28  46  65  88 120 154 186 228 284
#
# _framework density 15.427733999999999
#
# number of rings (size 3 to 8) (size 9 to 14) (size 15 to 20)
#    0.000    2.429    2.143    2.143    0.000    5.714 
#    0.000    1.429    0.000    0.000    0.000    0.000 
#    0.000    2.286    0.000    4.000    0.000    0.143 
#
# Total GULP energy -156103.301272 kJ/mol
# GULP energy per Si atom -5575.117903 kJ/mol
# Density = 1.539262 g / cm^3
# Si number density = 15.427734 Si / 1000 Ang^3
#
#
#
# Elastic Constant Matrix: (Units=GPa)
#
#
# Indices 1 2 3 4 5 6 
#
# 1 78.2465 28.3558 32.9698 0.0000 0.0000 0.0000
# 2 28.3558 93.7252 55.9680 0.0000 0.0000 0.0000
# 3 32.9698 55.9680 99.1357 0.0000 0.0000 0.0000
# 4 0.0000 0.0000 0.0000 14.2975 0.0000 0.0000
# 5 0.0000 0.0000 0.0000 0.0000 15.7932 0.0000
# 6 0.0000 0.0000 0.0000 0.0000 0.0000 10.1240
#
#
#
# Elastic Compliance Matrix: (Units=1/GPa)
#
#
# Indices 1 2 3 4 5 6 
#
# 1 0.015208 -0.002385 -0.003711 0.000000 0.000000 0.000000
# 2 -0.002385 0.016470 -0.008505 0.000000 0.000000 0.000000
# 3 -0.003711 -0.008505 0.016123 0.000000 0.000000 0.000000
# 4 0.000000 0.000000 0.000000 0.069942 0.000000 0.000000
# 5 0.000000 0.000000 0.000000 0.000000 0.063319 0.000000
# 6 0.000000 0.000000 0.000000 0.000000 0.000000 0.098775
#
#
# Mechanical properties :
#
#
# Convention : Reuss Voigt Hill
#
# Bulk Modulus (GPa) = 53.76789 56.18829 54.97809
# Shear Modulus (GPa) = 15.86098 18.29720 17.07909
#
# Velocity S-wave (km/s) = 3.20985 3.44756 3.33083
# Velocity P-wave (km/s) = 6.97600 7.23512 7.10674
#
# Compressibility (1/GPa) = 0.01859846
#
# Stress axis : x y z
#
# Youngs Moduli (GPa) = 65.75397 60.71717 62.02266
#
# Poissons Ratio (x) = 0.14480 0.23019
# Poissons Ratio (y) = 0.15681 0.52751
# Poissons Ratio (z) = 0.24404 0.51640
#
# Static dielectric constant tensor:
#      x y z
#    x 1.504750 0.000000 0.000000 
#    y 0.000000 1.552490 0.000000 
#    z 0.000000 0.000000 1.487770 
# 
# From -- ./inp_files/27490.got.cif
#   From: 2010.05.17/outbox.cif.g08.bks.cpg/sg44_14_cif.got.tgz:27490.got - 2010.06.03 19:37:08.
