data_PCOD9373630
_publ_section_title
;
Structure prediction by ZEFSAII (Michael W. Deem and Ramdas Pophale) SiO2 
 PCOD9373630
Probable space group: I M M 2
;
_chemical_formula_sum "Si O2"
_cell_formula_units_Z 56
_cell_length_a 8.652711
_cell_length_b 18.984195
_cell_length_c 21.534392
_cell_angle_alpha 90.000000
_cell_angle_beta 90.000000
_cell_angle_gamma 90.000000
_cell_volume 3537.341581
_symmetry_space_group_name_H-M "I M M 2"
_symmetry_group_IT_number 44
_symmetry_cell_setting 'orthorhombic'
loop_
_space_group_symop_operation_xyz
x,y,z
-x,-y,z
-x,y,z
x,-y,z
1/2+x,1/2+y,1/2+z
1/2-x,1/2-y,1/2+z
1/2-x,1/2+y,1/2+z
1/2+x,1/2-y,1/2+z
loop_
_atom_site_type_symbol
_atom_site_label
_atom_site_fract_x
_atom_site_fract_y
_atom_site_fract_z
Si Si1 0.184876 0.347588 0.974710
Si Si2 0.686971 0.919393 0.851597
Si Si3 0.185141 0.081675 0.349593
Si Si4 0.813413 0.581304 0.103550
Si Si5 0.684418 0.212618 0.295608
Si Si6 0.684041 0.348144 0.226588
Si Si7 0.683400 0.784449 0.918990
O O1 0.256511 0.389823 0.916444
O O2 0.234254 0.265906 0.968394
O O3 0.000000 0.352614 0.969748
O O4 0.235766 0.381662 0.039521
O O5 0.500000 0.916876 0.847352
O O6 0.752693 0.890577 0.786441
O O7 0.732129 0.865118 0.906524
O O8 0.734232 0.000000 0.861781
O O9 0.259100 0.132496 0.297495
O O10 0.000000 0.088141 0.347663
O O11 0.227584 0.000000 0.342481
O O12 0.761458 0.500000 0.105041
O O13 0.754926 0.621971 0.163884
O O14 0.000000 0.581416 0.104420
O O15 0.500000 0.214825 0.307344
O O16 0.717463 0.265188 0.238780
O O17 0.773531 0.247764 0.353511
O O18 0.500000 0.356627 0.225092
O O19 0.500000 0.781715 0.929099
#
# Coordination Sequence:
#
# PCOD9373630 Si02
#       7
#     8   8   8   8   8   8   8
#     4  10  19  31  46  63  87 119 152 182 214 257
#     4   9  17  29  45  65  90 119 147 176 215 263
#     4  10  19  29  44  68  93 115 143 180 220 259
#     4  10  21  34  46  62  86 119 154 181 211 256
#     4   9  17  29  44  62  86 115 145 177 216 263
#     4  10  20  31  44  65  90 116 148 184 218 252
#     4   9  16  27  44  64  86 113 145 181 219 258
#
# _framework density 15.831097
#
# number of rings (size 3 to 8) (size 9 to 14) (size 15 to 20)
#    0.000    2.429    0.000    4.714    0.000    7.429 
#    0.000    0.000    0.000    0.000    0.000    1.000 
#    0.000    3.429    0.000    0.000    0.000    0.000 
#
# Total GULP energy -155991.490874 kJ/mol
# GULP energy per Si atom -5571.124674 kJ/mol
# Density = 1.579506 g / cm^3
# Si number density = 15.831097 Si / 1000 Ang^3
#
#
#
# Elastic Constant Matrix: (Units=GPa)
#
#
# Indices 1 2 3 4 5 6 
#
# 1 22.9008 26.8248 16.7080 0.0000 0.0000 0.0000
# 2 26.8248 152.9515 63.2376 0.0000 0.0000 0.0000
# 3 16.7080 63.2376 74.7718 0.0000 0.0000 0.0000
# 4 0.0000 0.0000 0.0000 25.6109 0.0000 0.0000
# 5 0.0000 0.0000 0.0000 0.0000 8.8520 0.0000
# 6 0.0000 0.0000 0.0000 0.0000 0.0000 18.0920
#
#
#
# Elastic Compliance Matrix: (Units=1/GPa)
#
#
# Indices 1 2 3 4 5 6 
#
# 1 0.056989 -0.007273 -0.006583 0.000000 0.000000 0.000000
# 2 -0.007273 0.010982 -0.007662 0.000000 0.000000 0.000000
# 3 -0.006583 -0.007662 0.021325 0.000000 0.000000 0.000000
# 4 0.000000 0.000000 0.000000 0.039046 0.000000 0.000000
# 5 0.000000 0.000000 0.000000 0.000000 0.112969 0.000000
# 6 0.000000 0.000000 0.000000 0.000000 0.000000 0.055273
#
#
# Mechanical properties :
#
#
# Convention : Reuss Voigt Hill
#
# Bulk Modulus (GPa) = 21.61763 51.57390 36.59576
# Shear Modulus (GPa) = 14.08290 20.10122 17.09206
#
# Velocity S-wave (km/s) = 2.98581 3.56719 3.28937
# Velocity P-wave (km/s) = 5.05683 7.04378 6.13133
#
# Compressibility (1/GPa) = 0.04625855
#
# Stress axis : x y z
#
# Youngs Moduli (GPa) = 17.54729 91.06181 46.89223
#
# Poissons Ratio (x) = 0.66228 0.30871
# Poissons Ratio (y) = 0.12762 0.35931
# Poissons Ratio (z) = 0.11552 0.69775
#
# Static dielectric constant tensor:
#      x y z
#    x 1.535140 0.000000 0.000000 
#    y 0.000000 1.577520 0.000000 
#    z 0.000000 0.000000 1.501370 
# 
# From -- ./inp_files/23373.got.cif
#   From: 2010.05.17/outbox.cif.g08.bks.cpg/sg44_12_cif.got.tgz:23373.got - 2010.06.03 19:37:08.
