data_PCOD9373331
_publ_section_title
;
Structure prediction by ZEFSAII (Michael W. Deem and Ramdas Pophale) SiO2 
 PCOD9373331
Probable space group: I M M 2
;
_chemical_formula_sum "Si O2"
_cell_formula_units_Z 48
_cell_length_a 10.332195
_cell_length_b 7.412378
_cell_length_c 29.007707
_cell_angle_alpha 90.000000
_cell_angle_beta 90.000000
_cell_angle_gamma 90.000000
_cell_volume 2221.588162
_symmetry_space_group_name_H-M "I M M 2"
_symmetry_group_IT_number 44
_symmetry_cell_setting 'orthorhombic'
loop_
_space_group_symop_operation_xyz
x,y,z
-x,-y,z
-x,y,z
x,-y,z
1/2+x,1/2+y,1/2+z
1/2-x,1/2-y,1/2+z
1/2-x,1/2+y,1/2+z
1/2+x,1/2-y,1/2+z
loop_
_atom_site_type_symbol
_atom_site_label
_atom_site_fract_x
_atom_site_fract_y
_atom_site_fract_z
Si Si1 0.000000 0.218937 0.310400
Si Si2 0.000000 0.708903 0.416587
Si Si3 0.751180 0.779545 0.967006
Si Si4 0.500000 0.286761 0.302285
Si Si5 0.651967 0.780081 0.067131
Si Si6 0.651438 0.279515 0.647925
Si Si7 0.264480 0.286043 0.748964
Si Si8 0.000000 0.779146 0.908860
O O1 0.000000 0.281614 0.362302
O O2 0.873768 0.283332 0.283487
O O3 0.000000 0.000000 0.311291
O O4 0.129259 0.785767 0.437733
O O5 0.000000 0.500000 0.431371
O O6 0.876995 0.721613 0.939019
O O7 0.757235 0.000000 0.967515
O O8 0.721465 0.725493 0.019418
O O9 0.500000 0.500000 0.307287
O O10 0.374160 0.239604 0.272279
O O11 0.500000 0.216015 0.355305
O O12 0.500000 0.722690 0.069568
O O13 0.746402 0.723221 0.108697
O O14 0.647847 0.000000 0.067606
O O15 0.500000 0.224710 0.642131
O O16 0.649813 0.500000 0.647063
O O17 0.707445 0.218566 0.697445
O O18 0.284648 0.500000 0.745451
O O19 0.000000 0.000000 0.907212
#
# Coordination Sequence:
#
# PCOD9373331 Si02
#       8
#     4   4   8   4   8   8   8   4
#     4  10  20  34  53  77 104 135 178 222 259 308
#     4  10  18  30  49  70  98 136 170 206 257 310
#     4   9  16  27  42  65  98 131 164 203 252 307
#     4  11  23  37  52  77 108 139 183 221 254 309
#     4   9  16  25  40  68 100 129 163 203 251 311
#     4   9  17  29  47  72 100 131 168 210 258 313
#     4  10  20  36  55  76 106 140 173 216 268 312
#     4   9  18  29  42  62  94 134 167 203 250 299
#
# _framework density 21.606166000000002
#
# number of rings (size 3 to 8) (size 9 to 14) (size 15 to 20)
#    0.000    2.500    1.667    1.250    2.333    2.000 
#    0.000    0.000    0.000    0.000    0.000    2.333 
#    0.000    0.000    0.000    0.000    0.000    0.000 
#
# Total GULP energy -133958.147250 kJ/mol
# GULP energy per Si atom -5581.589469 kJ/mol
# Density = 2.155699 g / cm^3
# Si number density = 21.606166 Si / 1000 Ang^3
#
#
#
# Elastic Constant Matrix: (Units=GPa)
#
#
# Indices 1 2 3 4 5 6 
#
# 1 215.4003 -7.7661 119.9005 0.0000 0.0000 0.0000
# 2 -7.7661 65.5036 -9.6567 0.0000 0.0000 0.0000
# 3 119.9005 -9.6567 207.8214 0.0000 0.0000 0.0000
# 4 0.0000 0.0000 0.0000 10.7221 0.0000 0.0000
# 5 0.0000 0.0000 0.0000 0.0000 45.4081 0.0000
# 6 0.0000 0.0000 0.0000 0.0000 0.0000 53.8552
#
#
#
# Elastic Compliance Matrix: (Units=1/GPa)
#
#
# Indices 1 2 3 4 5 6 
#
# 1 0.006842 0.000231 -0.003937 0.000000 0.000000 0.000000
# 2 0.000231 0.015379 0.000581 0.000000 0.000000 0.000000
# 3 -0.003937 0.000581 0.007110 0.000000 0.000000 0.000000
# 4 0.000000 0.000000 0.000000 0.093265 0.000000 0.000000
# 5 0.000000 0.000000 0.000000 0.000000 0.022022 0.000000
# 6 0.000000 0.000000 0.000000 0.000000 0.000000 0.018568
#
#
# Mechanical properties :
#
#
# Convention : Reuss Voigt Hill
#
# Bulk Modulus (GPa) = 43.32245 77.07564 60.19904
# Shear Modulus (GPa) = 28.22762 47.74691 37.98727
#
# Velocity S-wave (km/s) = 3.61842 4.70603 4.19760
# Velocity P-wave (km/s) = 6.12795 8.07957 7.17047
#
# Compressibility (1/GPa) = 0.02308272
#
# Stress axis : x y z
#
# Youngs Moduli (GPa) = 146.15078 65.02191 140.64371
#
# Poissons Ratio (x) = -0.01501 0.55369
# Poissons Ratio (y) = -0.03374 -0.08178
# Poissons Ratio (z) = 0.57537 -0.03781
#
# Static dielectric constant tensor:
#      x y z
#    x 1.751460 0.000000 0.000000 
#    y 0.000000 1.893980 0.000000 
#    z 0.000000 0.000000 1.750090 
# 
# From -- ./inp_files/26999.got.cif
#   From: 2010.05.17/outbox.cif.g08.bks.cpg/sg44_14_cif.got.tgz:26999.got - 2010.06.03 19:37:08.
