data_PCOD9373738
_publ_section_title
;
Structure prediction by ZEFSAII (Michael W. Deem and Ramdas Pophale) SiO2 
 PCOD9373738
Probable space group: I M M 2
;
_chemical_formula_sum "Si O2"
_cell_formula_units_Z 64
_cell_length_a 8.851108
_cell_length_b 34.312391
_cell_length_c 11.903080
_cell_angle_alpha 90.000000
_cell_angle_beta 90.000000
_cell_angle_gamma 90.000000
_cell_volume 3614.997278
_symmetry_space_group_name_H-M "I M M 2"
_symmetry_group_IT_number 44
_symmetry_cell_setting 'orthorhombic'
loop_
_space_group_symop_operation_xyz
x,y,z
-x,-y,z
-x,y,z
x,-y,z
1/2+x,1/2+y,1/2+z
1/2-x,1/2-y,1/2+z
1/2-x,1/2+y,1/2+z
1/2+x,1/2-y,1/2+z
loop_
_atom_site_type_symbol
_atom_site_label
_atom_site_fract_x
_atom_site_fract_y
_atom_site_fract_z
Si Si1 0.175612 0.666860 0.262400
Si Si2 0.319900 0.818104 0.152530
Si Si3 0.181216 0.229905 0.608237
Si Si4 0.179180 0.177319 0.395960
Si Si5 0.679965 0.375960 0.476269
Si Si6 0.674770 0.886674 0.539721
Si Si7 0.325768 0.545405 0.156839
Si Si8 0.318796 0.955425 0.903888
O O1 0.242436 0.706787 0.211463
O O2 0.262386 0.647988 0.366795
O O3 0.184463 0.636893 0.157718
O O4 0.000000 0.672090 0.293348
O O5 0.500000 0.823230 0.143084
O O6 0.279851 0.775276 0.105272
O O7 0.268940 0.817764 0.281456
O O8 0.237180 0.851685 0.083105
O O9 0.223119 0.208825 0.491538
O O10 0.000000 0.226145 0.621102
O O11 0.223372 0.136182 0.451294
O O12 0.000000 0.180222 0.376411
O O13 0.500000 0.378501 0.473979
O O14 0.749641 0.419444 0.472215
O O15 0.500000 0.886684 0.504730
O O16 0.737339 0.929008 0.567342
O O17 0.500000 0.558659 0.166392
O O18 0.324550 0.500000 0.127197
O O19 0.246231 0.549057 0.277893
O O20 0.500000 0.951829 0.900994
O O21 0.281570 0.000000 0.940722
#
# Coordination Sequence:
#
# PCOD9373738 Si02
#       8
#     8   8   8   8   8   8   8   8
#     4  10  20  34  55  82 113 148 188 232 280 336
#     4  11  24  41  59  83 114 150 194 239 287 341
#     4   9  21  39  59  83 112 148 187 235 287 337
#     4  10  21  39  59  81 110 146 191 236 284 336
#     4  12  24  37  57  85 118 155 195 237 288 345
#     4  10  19  33  55  80 109 149 187 227 279 334
#     4  10  19  30  49  81 117 150 184 227 280 337
#     4  10  20  35  56  83 117 154 191 236 291 348
#
# _framework density 17.704025000000001
#
# number of rings (size 3 to 8) (size 9 to 14) (size 15 to 20)
#    0.000    1.750    1.250    3.375    1.750    4.000 
#    0.000    0.000    0.000    0.750    0.000    0.000 
#    0.000    0.000    0.000    0.000    0.000    0.000 
#
# Total GULP energy -178710.959728 kJ/mol
# GULP energy per Si atom -5584.717491 kJ/mol
# Density = 1.766373 g / cm^3
# Si number density = 17.704025 Si / 1000 Ang^3
#
#
#
# Elastic Constant Matrix: (Units=GPa)
#
#
# Indices 1 2 3 4 5 6 
#
# 1 67.6546 35.8924 21.8535 -0.0001 0.0000 0.0000
# 2 35.8924 112.0727 37.3169 0.0001 0.0000 0.0000
# 3 21.8535 37.3169 58.5081 0.0002 0.0000 0.0000
# 4 -0.0001 0.0001 0.0002 19.8001 0.0000 0.0000
# 5 0.0000 0.0000 0.0000 0.0000 30.0441 0.0000
# 6 0.0000 0.0000 0.0000 0.0000 0.0000 28.9108
#
#
#
# Elastic Compliance Matrix: (Units=1/GPa)
#
#
# Indices 1 2 3 4 5 6 
#
# 1 0.018508 -0.004603 -0.003977 0.000000 0.000000 0.000000
# 2 -0.004603 0.012473 -0.006236 0.000000 0.000000 0.000000
# 3 -0.003977 -0.006236 0.022555 0.000000 0.000000 0.000000
# 4 0.000000 0.000000 0.000000 0.050505 0.000000 0.000000
# 5 0.000000 0.000000 0.000000 0.000000 0.033284 0.000000
# 6 0.000000 0.000000 0.000000 0.000000 0.000000 0.034589
#
#
# Mechanical properties :
#
#
# Convention : Reuss Voigt Hill
#
# Bulk Modulus (GPa) = 41.83576 47.59569 44.71573
# Shear Modulus (GPa) = 23.86470 25.29585 24.58028
#
# Velocity S-wave (km/s) = 3.67547 3.78407 3.73017
# Velocity P-wave (km/s) = 6.45709 6.78489 6.62302
#
# Compressibility (1/GPa) = 0.02390300
#
# Stress axis : x y z
#
# Youngs Moduli (GPa) = 54.03184 80.17014 44.33663
#
# Poissons Ratio (x) = 0.36902 0.17633
# Poissons Ratio (y) = 0.24871 0.27650
# Poissons Ratio (z) = 0.21488 0.49997
#
# Static dielectric constant tensor:
#      x y z
#    x 1.594010 0.000000 0.000000 
#    y 0.000000 1.615260 0.000000 
#    z 0.000000 0.000000 1.572460 
# 
# From -- ./inp_files/11528.got.cif
#   From: 2010.05.17/outbox.cif.g08.bks.cpg/sg44_6_cif.got.tgz:11528.got - 2010.06.03 19:37:08.
