data_PCOD9373983
_publ_section_title
;
Structure prediction by ZEFSAII (Michael W. Deem and Ramdas Pophale) SiO2 
 PCOD9373983
Probable space group: I M M 2
;
_chemical_formula_sum "Si O2"
_cell_formula_units_Z 48
_cell_length_a 19.736252
_cell_length_b 8.052613
_cell_length_c 13.767909
_cell_angle_alpha 90.000000
_cell_angle_beta 90.000000
_cell_angle_gamma 90.000000
_cell_volume 2188.111741
_symmetry_space_group_name_H-M "I M M 2"
_symmetry_group_IT_number 44
_symmetry_cell_setting 'orthorhombic'
loop_
_space_group_symop_operation_xyz
x,y,z
-x,-y,z
-x,y,z
x,-y,z
1/2+x,1/2+y,1/2+z
1/2-x,1/2-y,1/2+z
1/2-x,1/2+y,1/2+z
1/2+x,1/2-y,1/2+z
loop_
_atom_site_type_symbol
_atom_site_label
_atom_site_fract_x
_atom_site_fract_y
_atom_site_fract_z
Si Si1 0.000000 0.320869 0.995910
Si Si2 0.147031 0.197179 0.402505
Si Si3 0.500000 0.682134 0.685234
Si Si4 0.500000 0.703815 0.968147
Si Si5 0.717726 0.201807 0.487919
Si Si6 0.106090 0.197568 0.850765
Si Si7 0.151324 0.694998 0.192378
Si Si8 0.500000 0.299426 0.189877
O O1 0.935791 0.302457 0.928861
O O2 0.000000 0.500000 0.045695
O O3 0.000000 0.171686 0.069317
O O4 0.203842 0.255277 0.478991
O O5 0.174885 0.228559 0.294044
O O6 0.070499 0.261527 0.419424
O O7 0.141952 0.000000 0.415105
O O8 0.500000 0.500000 0.732457
O O9 0.429198 0.772313 0.700261
O O10 0.500000 0.500000 0.966869
O O11 0.500000 0.760248 0.080053
O O12 0.680974 0.267246 0.389977
O O13 0.681865 0.257854 0.589281
O O14 0.714438 0.000000 0.486645
O O15 0.068600 0.245314 0.749916
O O16 0.093956 0.000000 0.860869
O O17 0.165164 0.500000 0.194476
O O18 0.500000 0.500000 0.185241
#
# Coordination Sequence:
#
# PCOD9373983 Si02
#       8
#     4   8   4   4   8   8   8   4
#     4  11  19  30  50  80 121 158 189 234 291 347
#     4  10  22  40  62  87 113 152 203 252 303 365
#     4  12  22  34  58  89 120 157 200 247 290 348
#     4   9  18  38  63  82 108 148 196 248 300 355
#     4  10  22  38  57  83 121 159 194 242 306 367
#     4  10  19  32  54  87 120 153 196 244 291 351
#     4  11  23  39  60  88 121 161 200 247 306 362
#     4   8  17  32  55  87 115 143 191 243 287 346
#
# _framework density 21.936720999999999
#
# number of rings (size 3 to 8) (size 9 to 14) (size 15 to 20)
#    0.000    1.833    1.667    3.500    0.000    3.333 
#    0.000    3.333    0.000    6.000    0.000    0.000 
#    0.000    0.000    0.000    0.000    0.000    0.000 
#
# Total GULP energy -133689.941168 kJ/mol
# GULP energy per Si atom -5570.414215 kJ/mol
# Density = 2.188679 g / cm^3
# Si number density = 21.936721 Si / 1000 Ang^3
#
#
#
# Elastic Constant Matrix: (Units=GPa)
#
#
# Indices 1 2 3 4 5 6 
#
# 1 150.2568 8.6556 65.5122 0.0000 0.0000 0.0000
# 2 8.6556 33.4403 1.7653 0.0000 0.0000 0.0000
# 3 65.5122 1.7653 146.0159 0.0000 0.0000 0.0000
# 4 0.0000 0.0000 0.0000 17.4466 0.0000 0.0000
# 5 0.0000 0.0000 0.0000 0.0000 -10.9933 0.0000
# 6 0.0000 0.0000 0.0000 0.0000 0.0000 11.0257
#
#
#
# Elastic Compliance Matrix: (Units=1/GPa)
#
#
# Indices 1 2 3 4 5 6 
#
# 1 0.008402 -0.001977 -0.003746 0.000000 0.000000 0.000000
# 2 -0.001977 0.030388 0.000520 0.000000 0.000000 0.000000
# 3 -0.003746 0.000520 0.008523 0.000000 0.000000 0.000000
# 4 0.000000 0.000000 0.000000 0.057318 0.000000 0.000000
# 5 0.000000 0.000000 0.000000 0.000000 -0.090965 0.000000
# 6 0.000000 0.000000 0.000000 0.000000 0.000000 0.090698
#
#
# Mechanical properties :
#
#
# Convention : Reuss Voigt Hill
#
# Bulk Modulus (GPa) = 27.09519 53.50879 40.30199
# Shear Modulus (GPa) = 39.34737 20.41447 29.88092
#
# Velocity S-wave (km/s) = 4.23978 3.05389 3.69472
# Velocity P-wave (km/s) = 6.02876 6.07292 6.05088
#
# Compressibility (1/GPa) = 0.03690692
#
# Stress axis : x y z
#
# Youngs Moduli (GPa) = 119.01352 32.90737 117.33000
#
# Poissons Ratio (x) = 0.06506 0.43951
# Poissons Ratio (y) = 0.23530 -0.06097
# Poissons Ratio (z) = 0.44582 -0.01710
#
# Static dielectric constant tensor:
#      x y z
#    x 1.849070 0.000000 0.000000 
#    y 0.000000 1.773320 0.000000 
#    z 0.000000 0.000000 1.819120 
# 
# From -- ./inp_files/18851.got.cif
#   From: 2010.05.17/outbox.cif.g08.bks.cpg/sg44_10_cif.got.tgz:18851.got - 2010.06.03 19:37:08.
