data_PCOD9373613
_publ_section_title
;
Structure prediction by ZEFSAII (Michael W. Deem and Ramdas Pophale) SiO2 
 PCOD9373613
Probable space group: I M M 2
;
_chemical_formula_sum "Si O2"
_cell_formula_units_Z 64
_cell_length_a 27.056444
_cell_length_b 9.017933
_cell_length_c 18.460706
_cell_angle_alpha 90.000000
_cell_angle_beta 90.000000
_cell_angle_gamma 90.000000
_cell_volume 4504.286717
_symmetry_space_group_name_H-M "I M M 2"
_symmetry_group_IT_number 44
_symmetry_cell_setting 'orthorhombic'
loop_
_space_group_symop_operation_xyz
x,y,z
-x,-y,z
-x,y,z
x,-y,z
1/2+x,1/2+y,1/2+z
1/2-x,1/2-y,1/2+z
1/2-x,1/2+y,1/2+z
1/2+x,1/2-y,1/2+z
loop_
_atom_site_type_symbol
_atom_site_label
_atom_site_fract_x
_atom_site_fract_y
_atom_site_fract_z
Si Si1 0.942586 0.677785 0.547090
Si Si2 0.701373 0.330058 0.659124
Si Si3 0.145280 0.176228 0.633542
Si Si4 0.799837 0.329276 0.759736
Si Si5 0.852727 0.822121 0.299022
Si Si6 0.557763 0.822913 0.877792
Si Si7 0.739988 0.822936 0.880988
Si Si8 0.742817 0.675247 0.036708
O O1 0.937054 0.500000 0.554921
O O2 0.904154 0.760121 0.598102
O O3 0.932614 0.713155 0.462477
O O4 0.000000 0.714468 0.561810
O O5 0.693625 0.500000 0.635030
O O6 0.750260 0.329366 0.710053
O O7 0.658437 0.284669 0.714922
O O8 0.714321 0.226536 0.591912
O O9 0.159173 0.253980 0.709217
O O10 0.190882 0.205578 0.578040
O O11 0.142421 0.000000 0.643453
O O12 0.811636 0.500000 0.776637
O O13 0.784290 0.239274 0.830901
O O14 0.905080 0.766283 0.327469
O O15 0.810428 0.744536 0.347370
O O16 0.847656 0.000000 0.305979
O O17 0.500000 0.792342 0.863537
O O18 0.565493 0.000000 0.869325
O O19 0.738187 0.000000 0.877791
O O20 0.744920 0.765389 0.962579
O O21 0.745559 0.500000 0.022401
#
# Coordination Sequence:
#
# PCOD9373613 Si02
#       8
#     8   8   8   8   8   8   8   8
#     4   9  18  31  44  59  82 113 147 181 216 251
#     4   8  16  29  42  58  81 109 139 172 210 249
#     4  10  19  29  43  63  85 111 144 178 213 253
#     4   9  17  30  45  60  82 110 140 174 210 250
#     4  10  19  30  44  62  85 113 145 178 213 254
#     4   9  18  31  45  62  85 113 146 182 216 250
#     4  11  20  29  43  62  86 114 143 175 211 251
#     4  10  19  29  42  62  86 111 142 176 209 251
#
# _framework density 14.208686999999999
#
# number of rings (size 3 to 8) (size 9 to 14) (size 15 to 20)
#    0.000    2.500    0.000    4.875    0.000    8.000 
#    0.000    1.250    0.000    0.000    0.000    0.000 
#    0.000    1.000    0.000    7.250    0.000    6.000 
#
# Total GULP energy -178391.143476 kJ/mol
# GULP energy per Si atom -5574.723234 kJ/mol
# Density = 1.417635 g / cm^3
# Si number density = 14.208687 Si / 1000 Ang^3
#
#
#
# Elastic Constant Matrix: (Units=GPa)
#
#
# Indices 1 2 3 4 5 6 
#
# 1 66.8903 41.1925 39.9967 0.0000 0.0000 0.0000
# 2 41.1925 81.1634 55.8130 0.0000 0.0000 0.0000
# 3 39.9967 55.8130 74.5164 0.0000 0.0000 0.0000
# 4 0.0000 0.0000 0.0000 26.2038 0.0000 0.0000
# 5 0.0000 0.0000 0.0000 0.0000 27.5423 0.0000
# 6 0.0000 0.0000 0.0000 0.0000 0.0000 22.9487
#
#
#
# Elastic Compliance Matrix: (Units=1/GPa)
#
#
# Indices 1 2 3 4 5 6 
#
# 1 0.023688 -0.006762 -0.007650 0.000000 0.000000 0.000000
# 2 -0.006762 0.027337 -0.016846 0.000000 0.000000 0.000000
# 3 -0.007650 -0.016846 0.030144 0.000000 0.000000 0.000000
# 4 0.000000 0.000000 0.000000 0.038162 0.000000 0.000000
# 5 0.000000 0.000000 0.000000 0.000000 0.036308 0.000000
# 6 0.000000 0.000000 0.000000 0.000000 0.000000 0.043575
#
#
# Mechanical properties :
#
#
# Convention : Reuss Voigt Hill
#
# Bulk Modulus (GPa) = 53.61019 55.17494 54.39257
# Shear Modulus (GPa) = 18.66030 21.04349 19.85189
#
# Velocity S-wave (km/s) = 3.62788 3.85259 3.74192
# Velocity P-wave (km/s) = 7.44051 7.66199 7.55206
#
# Compressibility (1/GPa) = 0.01865317
#
# Stress axis : x y z
#
# Youngs Moduli (GPa) = 42.21515 36.58038 33.17417
#
# Poissons Ratio (x) = 0.24734 0.25379
# Poissons Ratio (y) = 0.28544 0.55886
# Poissons Ratio (z) = 0.32295 0.61624
#
# Static dielectric constant tensor:
#      x y z
#    x 1.453990 0.000000 0.000000 
#    y 0.000000 1.473380 0.000000 
#    z 0.000000 0.000000 1.458940 
# 
# From -- ./inp_files/17096.got.cif
#   From: 2010.05.17/outbox.cif.g08.bks.cpg/sg44_9_cif.got.tgz:17096.got - 2010.06.03 19:37:08.
