data_PCOD9373564
_publ_section_title
;
Structure prediction by ZEFSAII (Michael W. Deem and Ramdas Pophale) SiO2 
 PCOD9373564
Probable space group: I M M 2
;
_chemical_formula_sum "Si O2"
_cell_formula_units_Z 64
_cell_length_a 18.883800
_cell_length_b 14.737811
_cell_length_c 12.086539
_cell_angle_alpha 90.000000
_cell_angle_beta 90.000000
_cell_angle_gamma 90.000000
_cell_volume 3363.754816
_symmetry_space_group_name_H-M "I M M 2"
_symmetry_group_IT_number 44
_symmetry_cell_setting 'orthorhombic'
loop_
_space_group_symop_operation_xyz
x,y,z
-x,-y,z
-x,y,z
x,-y,z
1/2+x,1/2+y,1/2+z
1/2-x,1/2-y,1/2+z
1/2-x,1/2+y,1/2+z
1/2+x,1/2-y,1/2+z
loop_
_atom_site_type_symbol
_atom_site_label
_atom_site_fract_x
_atom_site_fract_y
_atom_site_fract_z
Si Si1 0.665412 0.606339 0.321300
Si Si2 0.277220 0.598356 0.699293
Si Si3 0.374943 0.900420 0.089786
Si Si4 0.672378 0.739326 0.524495
Si Si5 0.084030 0.400691 0.116902
Si Si6 0.082332 0.192326 0.614980
Si Si7 0.167692 0.367759 0.337748
Si Si8 0.185948 0.174919 0.423288
O O1 0.646535 0.500000 0.333757
O O2 0.651804 0.669371 0.427946
O O3 0.624074 0.652991 0.220400
O O4 0.750979 0.610963 0.306526
O O5 0.302546 0.500000 0.658738
O O6 0.194706 0.604577 0.666706
O O7 0.314133 0.678346 0.631977
O O8 0.289419 0.605664 0.830006
O O9 0.412578 0.803186 0.107543
O O10 0.409323 0.000000 0.110865
O O11 0.349736 0.902466 0.961203
O O12 0.617389 0.818628 0.548608
O O13 0.746380 0.787433 0.490835
O O14 0.101000 0.500000 0.067869
O O15 0.117242 0.398875 0.239844
O O16 0.000000 0.391463 0.123919
O O17 0.124489 0.152227 0.509316
O O18 0.000000 0.167309 0.617084
O O19 0.159458 0.260695 0.352863
#
# Coordination Sequence:
#
# PCOD9373564 Si02
#       8
#     8   8   8   8   8   8   8   8
#     4  11  22  39  66  91 114 155 210 262 305 354
#     4  11  20  36  63  97 122 150 198 257 311 359
#     4  10  19  35  61  93 125 153 192 248 307 364
#     4  11  21  39  66  89 125 156 199 257 311 355
#     4  11  24  39  58  89 128 166 202 242 298 367
#     4  11  24  40  58  85 124 165 205 247 297 360
#     4  10  18  35  62  93 121 153 195 248 300 357
#     4  10  21  37  62  89 122 158 200 248 304 357
#
# _framework density 19.026357000000001
#
# number of rings (size 3 to 8) (size 9 to 14) (size 15 to 20)
#    0.000    1.375    5.000    3.750    0.000    4.000 
#    0.000    0.625    0.000    1.875    0.000    0.000 
#    0.000    0.000    0.000    0.000    0.000    0.000 
#
# Total GULP energy -178495.332160 kJ/mol
# GULP energy per Si atom -5577.979130 kJ/mol
# Density = 1.898305 g / cm^3
# Si number density = 19.026357 Si / 1000 Ang^3
#
#
#
# Elastic Constant Matrix: (Units=GPa)
#
#
# Indices 1 2 3 4 5 6 
#
# 1 77.8974 39.9474 48.0270 0.0000 0.0000 0.0000
# 2 39.9474 83.3018 31.9460 0.0000 0.0000 0.0000
# 3 48.0270 31.9460 94.4318 0.0000 0.0000 0.0000
# 4 0.0000 0.0000 0.0000 109.7106 0.0000 0.0000
# 5 0.0000 0.0000 0.0000 0.0000 2.0663 0.0000
# 6 0.0000 0.0000 0.0000 0.0000 0.0000 21.5893
#
#
#
# Elastic Compliance Matrix: (Units=1/GPa)
#
#
# Indices 1 2 3 4 5 6 
#
# 1 0.021871 -0.007150 -0.008704 0.000000 0.000000 0.000000
# 2 -0.007150 0.016132 -0.001821 0.000000 0.000000 0.000000
# 3 -0.008704 -0.001821 0.015633 0.000000 0.000000 0.000000
# 4 0.000000 0.000000 0.000000 0.009115 0.000000 0.000000
# 5 0.000000 0.000000 0.000000 0.000000 0.483965 0.000000
# 6 0.000000 0.000000 0.000000 0.000000 0.000000 0.046319
#
#
# Mechanical properties :
#
#
# Convention : Reuss Voigt Hill
#
# Bulk Modulus (GPa) = 54.69133 55.05242 54.87188
# Shear Modulus (GPa) = 7.88047 35.72060 21.80054
#
# Velocity S-wave (km/s) = 2.03737 4.33763 3.38865
# Velocity P-wave (km/s) = 5.86020 7.35421 6.64930
#
# Compressibility (1/GPa) = 0.01828443
#
# Stress axis : x y z
#
# Youngs Moduli (GPa) = 45.72335 61.99005 63.96883
#
# Poissons Ratio (x) = 0.44323 0.55681
# Poissons Ratio (y) = 0.32692 0.11648
# Poissons Ratio (z) = 0.39799 0.11288
#
# Static dielectric constant tensor:
#      x y z
#    x 1.629100 0.000000 0.000000 
#    y 0.000000 1.655320 0.000000 
#    z 0.000000 0.000000 1.671980 
# 
# From -- ./inp_files/14012.got.cif
#   From: 2010.05.17/outbox.cif.g08.bks.cpg/sg44_8_cif.got.tgz:14012.got - 2010.06.03 19:37:08.
