data_PCOD9373835
_publ_section_title
;
Structure prediction by ZEFSAII (Michael W. Deem and Ramdas Pophale) SiO2 
 PCOD9373835
Probable space group: I M M 2
;
_chemical_formula_sum "Si O2"
_cell_formula_units_Z 64
_cell_length_a 9.731982
_cell_length_b 29.221458
_cell_length_c 12.265944
_cell_angle_alpha 90.000000
_cell_angle_beta 90.000000
_cell_angle_gamma 90.000000
_cell_volume 3488.222313
_symmetry_space_group_name_H-M "I M M 2"
_symmetry_group_IT_number 44
_symmetry_cell_setting 'orthorhombic'
loop_
_space_group_symop_operation_xyz
x,y,z
-x,-y,z
-x,y,z
x,-y,z
1/2+x,1/2+y,1/2+z
1/2-x,1/2-y,1/2+z
1/2-x,1/2+y,1/2+z
1/2+x,1/2-y,1/2+z
loop_
_atom_site_type_symbol
_atom_site_label
_atom_site_fract_x
_atom_site_fract_y
_atom_site_fract_z
Si Si1 0.836882 0.052111 0.351750
Si Si2 0.655303 0.448947 0.428654
Si Si3 0.658289 0.067479 0.137030
Si Si4 0.165106 0.155486 0.427122
Si Si5 0.158666 0.687426 0.131182
Si Si6 0.849183 0.330387 0.550400
Si Si7 0.346051 0.120200 0.825719
Si Si8 0.336783 0.284389 0.715358
O O1 0.740412 0.055059 0.245576
O O2 0.807675 0.100356 0.414893
O O3 0.000000 0.054701 0.322808
O O4 0.816878 0.000000 0.399392
O O5 0.500000 0.434532 0.457665
O O6 0.650123 0.500000 0.384685
O O7 0.751988 0.449017 0.534800
O O8 0.727007 0.415844 0.343701
O O9 0.500000 0.051613 0.137677
O O10 0.651935 0.121918 0.116602
O O11 0.243669 0.177672 0.529239
O O12 0.207953 0.184490 0.318505
O O13 0.000000 0.160450 0.439088
O O14 0.160926 0.643908 0.210166
O O15 0.195623 0.730440 0.209337
O O16 0.000000 0.694632 0.094675
O O17 0.831219 0.343390 0.424370
O O18 0.730017 0.301812 0.603805
O O19 0.000000 0.308646 0.563555
O O20 0.500000 0.100092 0.842014
O O21 0.500000 0.289560 0.712281
#
# Coordination Sequence:
#
# PCOD9373835 Si02
#       8
#     8   8   8   8   8   8   8   8
#     4  10  20  35  56  82 114 153 195 240 290 342
#     4  10  20  33  52  80 113 149 190 237 285 335
#     4  10  19  31  50  80 117 152 186 229 280 340
#     4  10  22  40  61  85 117 154 193 239 292 351
#     4  10  23  41  60  83 114 150 192 241 290 340
#     4   9  18  32  54  82 112 146 183 225 275 331
#     4   9  20  38  57  79 111 149 187 233 282 330
#     4  10  21  37  59  85 113 147 185 230 285 342
#
# _framework density 18.347453000000002
#
# number of rings (size 3 to 8) (size 9 to 14) (size 15 to 20)
#    0.000    2.250    1.250    1.875    1.750    6.750 
#    0.000    0.625    0.000    2.250    0.000    0.000 
#    0.000    0.000    0.000    0.000    0.000    0.000 
#
# Total GULP energy -178192.592474 kJ/mol
# GULP energy per Si atom -5568.518515 kJ/mol
# Density = 1.830569 g / cm^3
# Si number density = 18.347453 Si / 1000 Ang^3
#
#
#
# Elastic Constant Matrix: (Units=GPa)
#
#
# Indices 1 2 3 4 5 6 
#
# 1 66.5749 41.1583 33.2579 0.0000 0.0000 0.0000
# 2 41.1583 76.2692 22.9540 0.0001 0.0000 0.0000
# 3 33.2579 22.9540 58.4219 0.0003 -0.0001 0.0000
# 4 0.0000 0.0001 0.0003 -5.9855 0.0000 0.0000
# 5 0.0000 0.0000 -0.0001 0.0000 27.7490 0.0000
# 6 0.0000 0.0000 0.0000 0.0000 0.0000 34.9531
#
#
#
# Elastic Compliance Matrix: (Units=1/GPa)
#
#
# Indices 1 2 3 4 5 6 
#
# 1 0.027849 -0.011633 -0.011283 -0.000001 0.000000 0.000000
# 2 -0.011633 0.019729 -0.001129 0.000000 0.000000 0.000000
# 3 -0.011283 -0.001129 0.023984 0.000001 0.000000 0.000000
# 4 -0.000001 0.000000 0.000001 -0.167071 0.000000 0.000000
# 5 0.000000 0.000000 0.000000 0.000000 0.036037 0.000000
# 6 0.000000 0.000000 0.000000 0.000000 0.000000 0.028610
#
#
# Mechanical properties :
#
#
# Convention : Reuss Voigt Hill
#
# Bulk Modulus (GPa) = 42.60533 44.00071 43.30302
# Shear Modulus (GPa) = 199.59265 18.26971 108.93118
#
# Velocity S-wave (km/s) = 10.44132 3.15899 7.71364
# Velocity P-wave (km/s) = 12.98589 6.11062 10.14822
#
# Compressibility (1/GPa) = 0.02347124
#
# Stress axis : x y z
#
# Youngs Moduli (GPa) = 35.90816 50.68710 41.69505
#
# Poissons Ratio (x) = 0.58963 0.47044
# Poissons Ratio (y) = 0.41771 0.04709
# Poissons Ratio (z) = 0.40515 0.05724
#
# Static dielectric constant tensor:
#      x y z
#    x 1.633940 0.000000 0.000000 
#    y 0.000000 1.710910 0.000000 
#    z 0.000000 0.000000 1.591880 
# 
# From -- ./inp_files/11570.got.cif
#   From: 2010.05.17/outbox.cif.g08.bks.cpg/sg44_6_cif.got.tgz:11570.got - 2010.06.03 19:37:08.
