data_PCOD9373281
_publ_section_title
;
Structure prediction by ZEFSAII (Michael W. Deem and Ramdas Pophale) SiO2 
 PCOD9373281
Probable space group: I M M 2
;
_chemical_formula_sum "Si O2"
_cell_formula_units_Z 56
_cell_length_a 25.895548
_cell_length_b 7.462827
_cell_length_c 14.943690
_cell_angle_alpha 90.000000
_cell_angle_beta 90.000000
_cell_angle_gamma 90.000000
_cell_volume 2887.927789
_symmetry_space_group_name_H-M "I M M 2"
_symmetry_group_IT_number 44
_symmetry_cell_setting 'orthorhombic'
loop_
_space_group_symop_operation_xyz
x,y,z
-x,-y,z
-x,y,z
x,-y,z
1/2+x,1/2+y,1/2+z
1/2-x,1/2-y,1/2+z
1/2-x,1/2+y,1/2+z
1/2+x,1/2-y,1/2+z
loop_
_atom_site_type_symbol
_atom_site_label
_atom_site_fract_x
_atom_site_fract_y
_atom_site_fract_z
Si Si1 0.500000 0.219227 0.272260
Si Si2 0.388864 0.784202 0.316438
Si Si3 0.667850 0.217620 0.141708
Si Si4 0.684753 0.786665 0.826712
Si Si5 0.282793 0.715276 0.634129
Si Si6 0.787749 0.212265 0.931333
Si Si7 0.393650 0.782053 0.969156
Si Si8 0.500000 0.219331 0.061194
O O1 0.552070 0.277234 0.323019
O O2 0.500000 0.272963 0.166499
O O3 0.500000 0.000000 0.270300
O O4 0.370177 0.722528 0.218831
O O5 0.342740 0.734931 0.382992
O O6 0.390160 0.000000 0.316961
O O7 0.725417 0.279798 0.159290
O O8 0.668147 0.000000 0.143667
O O9 0.647689 0.268366 0.045105
O O10 0.683183 0.757632 0.720467
O O11 0.738440 0.717296 0.873351
O O12 0.633388 0.720450 0.877769
O O13 0.685864 0.000000 0.840097
O O14 0.282144 0.500000 0.628935
O O15 0.292354 0.782320 0.533254
O O16 0.778419 0.000000 0.938929
O O17 0.397208 0.000000 0.966318
O O18 0.449077 0.722414 0.006599
O O19 0.500000 0.000000 0.063466
#
# Coordination Sequence:
#
# PCOD9373281 Si02
#       8
#     4   8   8   8   8   8   8   4
#     4   9  16  26  45  76 101 120 152 197 239 278
#     4  10  18  29  48  73 100 125 156 194 234 281
#     4   9  14  23  43  69  96 123 149 183 226 275
#     4  10  19  30  46  70  98 124 154 197 241 275
#     4  10  19  32  48  67  94 129 163 190 226 281
#     4  10  20  32  47  68  96 129 161 194 235 284
#     4   9  15  25  42  68 100 126 149 185 234 282
#     4   9  14  22  42  72  99 122 152 187 231 288
#
# _framework density 19.391067
#
# number of rings (size 3 to 8) (size 9 to 14) (size 15 to 20)
#    0.000    2.429    4.286    0.000    0.000    0.571 
#    0.000    0.357    0.000    1.714    0.000    4.500 
#    0.000    0.000    0.000    0.000    0.000    0.000 
#
# Total GULP energy -156043.186594 kJ/mol
# GULP energy per Si atom -5572.970950 kJ/mol
# Density = 1.934693 g / cm^3
# Si number density = 19.391067 Si / 1000 Ang^3
#
#
#
# Elastic Constant Matrix: (Units=GPa)
#
#
# Indices 1 2 3 4 5 6 
#
# 1 68.4228 -0.5415 18.6055 0.0000 0.0000 0.0000
# 2 -0.5415 54.9281 -0.7012 0.0000 0.0000 0.0000
# 3 18.6055 -0.7012 80.6905 0.0000 0.0000 0.0000
# 4 0.0000 0.0000 0.0000 13.5174 0.0000 0.0000
# 5 0.0000 0.0000 0.0000 0.0000 27.0627 0.0000
# 6 0.0000 0.0000 0.0000 0.0000 0.0000 8.9441
#
#
#
# Elastic Compliance Matrix: (Units=1/GPa)
#
#
# Indices 1 2 3 4 5 6 
#
# 1 0.015593 0.000108 -0.003595 0.000000 0.000000 0.000000
# 2 0.000108 0.018208 0.000133 0.000000 0.000000 0.000000
# 3 -0.003595 0.000133 0.013223 0.000000 0.000000 0.000000
# 4 0.000000 0.000000 0.000000 0.073979 0.000000 0.000000
# 5 0.000000 0.000000 0.000000 0.000000 0.036951 0.000000
# 6 0.000000 0.000000 0.000000 0.000000 0.000000 0.111806
#
#
# Mechanical properties :
#
#
# Convention : Reuss Voigt Hill
#
# Bulk Modulus (GPa) = 24.80279 26.52965 25.66622
# Shear Modulus (GPa) = 17.24693 22.35007 19.79850
#
# Velocity S-wave (km/s) = 2.98556 3.39867 3.19879
# Velocity P-wave (km/s) = 4.97025 5.39559 5.18728
#
# Compressibility (1/GPa) = 0.04031805
#
# Stress axis : x y z
#
# Youngs Moduli (GPa) = 64.13019 54.91972 75.62571
#
# Poissons Ratio (x) = -0.00592 0.27184
# Poissons Ratio (y) = -0.00692 -0.01009
# Poissons Ratio (z) = 0.23052 -0.00732
#
# Static dielectric constant tensor:
#      x y z
#    x 1.685450 0.000000 0.000000 
#    y 0.000000 1.767380 0.000000 
#    z 0.000000 0.000000 1.679350 
# 
# From -- ./inp_files/14685.got.cif
#   From: 2010.05.17/outbox.cif.g08.bks.cpg/sg44_8_cif.got.tgz:14685.got - 2010.06.03 19:37:08.
