data_PCOD9373596
_publ_section_title
;
Structure prediction by ZEFSAII (Michael W. Deem and Ramdas Pophale) SiO2 
 PCOD9373596
Probable space group: I M M 2
;
_chemical_formula_sum "Si O2"
_cell_formula_units_Z 64
_cell_length_a 21.900062
_cell_length_b 9.166131
_cell_length_c 15.980891
_cell_angle_alpha 90.000000
_cell_angle_beta 90.000000
_cell_angle_gamma 90.000000
_cell_volume 3207.985477
_symmetry_space_group_name_H-M "I M M 2"
_symmetry_group_IT_number 44
_symmetry_cell_setting 'orthorhombic'
loop_
_space_group_symop_operation_xyz
x,y,z
-x,-y,z
-x,y,z
x,-y,z
1/2+x,1/2+y,1/2+z
1/2-x,1/2-y,1/2+z
1/2-x,1/2+y,1/2+z
1/2+x,1/2-y,1/2+z
loop_
_atom_site_type_symbol
_atom_site_label
_atom_site_fract_x
_atom_site_fract_y
_atom_site_fract_z
Si Si1 0.434096 0.677495 0.210310
Si Si2 0.074097 0.332306 0.363772
Si Si3 0.574145 0.333695 0.698769
Si Si4 0.799975 0.177427 0.774604
Si Si5 0.316913 0.175498 0.441040
Si Si6 0.106934 0.831886 0.531744
Si Si7 0.754841 0.169087 0.600331
Si Si8 0.927941 0.825481 0.008398
O O1 0.500000 0.723529 0.245700
O O2 0.433172 0.500000 0.210041
O O3 0.370757 0.718916 0.254149
O O4 0.429573 0.723724 0.112963
O O5 0.092312 0.500000 0.364787
O O6 0.095645 0.260098 0.277049
O O7 0.097491 0.253973 0.446771
O O8 0.000000 0.323840 0.365117
O O9 0.500000 0.336706 0.702478
O O10 0.595597 0.500000 0.707399
O O11 0.587484 0.282400 0.604636
O O12 0.784220 0.253132 0.861414
O O13 0.760240 0.227858 0.694523
O O14 0.797029 0.000000 0.780030
O O15 0.286713 0.232189 0.527390
O O16 0.385889 0.234144 0.446821
O O17 0.313622 0.000000 0.437003
O O18 0.176804 0.830213 0.562720
O O19 0.088921 0.000000 0.516755
O O20 0.736028 0.000000 0.609784
O O21 0.000000 0.802201 0.995529
O O22 0.916986 0.000000 0.999454
#
# Coordination Sequence:
#
# PCOD9373596 Si02
#       8
#     8   8   8   8   8   8   8   8
#     4   8  14  26  49  79 103 129 173 224 269 314
#     4  10  19  28  41  69 109 144 174 217 278 336
#     4   8  15  30  50  69  94 133 179 222 259 304
#     4   9  18  36  59  79 106 146 187 227 271 326
#     4  11  22  37  58  85 116 147 180 226 285 338
#     4   9  16  30  52  72  95 135 186 230 266 315
#     4   8  18  38  58  76 106 146 186 232 279 321
#     4   9  19  37  59  82 108 140 182 228 271 325
#
# _framework density 19.950216000000001
#
# number of rings (size 3 to 8) (size 9 to 14) (size 15 to 20)
#    0.000    3.000    0.000    3.375    0.000    2.500 
#    2.250    7.500    0.000    0.750    0.000    0.000 
#    0.000    0.000    0.000    0.000    0.000    0.000 
#
# Total GULP energy -178351.333369 kJ/mol
# GULP energy per Si atom -5573.479168 kJ/mol
# Density = 1.990481 g / cm^3
# Si number density = 19.950216 Si / 1000 Ang^3
#
#
#
# Elastic Constant Matrix: (Units=GPa)
#
#
# Indices 1 2 3 4 5 6 
#
# 1 28.5703 1.8690 24.2301 0.0000 0.0000 0.0000
# 2 1.8690 36.7356 49.2560 0.0000 0.0000 0.0000
# 3 24.2301 49.2560 138.0722 0.0000 0.0000 0.0000
# 4 0.0000 0.0000 0.0000 25.3611 0.0000 0.0000
# 5 0.0000 0.0000 0.0000 0.0000 17.9430 0.0000
# 6 0.0000 0.0000 0.0000 0.0000 0.0000 8.0710
#
#
#
# Elastic Compliance Matrix: (Units=1/GPa)
#
#
# Indices 1 2 3 4 5 6 
#
# 1 0.045614 0.016126 -0.013757 0.000000 0.000000 0.000000
# 2 0.016126 0.057882 -0.023479 0.000000 0.000000 0.000000
# 3 -0.013757 -0.023479 0.018033 0.000000 0.000000 0.000000
# 4 0.000000 0.000000 0.000000 0.039431 0.000000 0.000000
# 5 0.000000 0.000000 0.000000 0.000000 0.055732 0.000000
# 6 0.000000 0.000000 0.000000 0.000000 0.000000 0.123901
#
#
# Mechanical properties :
#
#
# Convention : Reuss Voigt Hill
#
# Bulk Modulus (GPa) = 12.60912 39.34315 25.97614
# Shear Modulus (GPa) = 12.21748 18.80986 15.51367
#
# Velocity S-wave (km/s) = 2.47735 3.07390 2.79161
# Velocity P-wave (km/s) = 3.81012 5.68876 4.84144
#
# Compressibility (1/GPa) = 0.07930770
#
# Stress axis : x y z
#
# Youngs Moduli (GPa) = 21.92308 17.27648 55.45475
#
# Poissons Ratio (x) = -0.27859 0.76292
# Poissons Ratio (y) = -0.35352 1.30201
# Poissons Ratio (z) = 0.30161 0.40563
#
# Static dielectric constant tensor:
#      x y z
#    x 1.745790 0.000000 0.000000 
#    y 0.000000 1.672800 0.000000 
#    z 0.000000 0.000000 1.724100 
# 
# From -- ./inp_files/19456.got.cif
#   From: 2010.05.17/outbox.cif.g08.bks.cpg/sg44_10_cif.got.tgz:19456.got - 2010.06.03 19:37:08.
