data_PCOD9373961
_publ_section_title
;
Structure prediction by ZEFSAII (Michael W. Deem and Ramdas Pophale) SiO2 
 PCOD9373961
Probable space group: I M M 2
;
_chemical_formula_sum "Si O2"
_cell_formula_units_Z 56
_cell_length_a 13.307058
_cell_length_b 14.119229
_cell_length_c 11.755955
_cell_angle_alpha 90.000000
_cell_angle_beta 90.000000
_cell_angle_gamma 90.000000
_cell_volume 2208.772298
_symmetry_space_group_name_H-M "I M M 2"
_symmetry_group_IT_number 44
_symmetry_cell_setting 'orthorhombic'
loop_
_space_group_symop_operation_xyz
x,y,z
-x,-y,z
-x,y,z
x,-y,z
1/2+x,1/2+y,1/2+z
1/2-x,1/2-y,1/2+z
1/2-x,1/2+y,1/2+z
1/2+x,1/2-y,1/2+z
loop_
_atom_site_type_symbol
_atom_site_label
_atom_site_fract_x
_atom_site_fract_y
_atom_site_fract_z
Si Si1 0.392715 0.391990 0.750000
Si Si2 0.331884 0.892831 0.224438
Si Si3 0.622410 0.395080 0.099350
Si Si4 0.112772 0.735225 0.056042
Si Si5 0.387596 0.302212 0.325564
Si Si6 0.122399 0.607504 0.248160
Si Si7 0.378067 0.194783 0.990382
O O1 0.500000 0.379035 0.816812
O O2 0.396848 0.500000 0.707414
O O3 0.276850 0.384999 0.786912
O O4 0.396666 0.315787 0.650715
O O5 0.391326 0.802324 0.269982
O O6 0.329004 0.871712 0.088390
O O7 0.369344 0.000000 0.242479
O O8 0.500000 0.396865 0.104623
O O9 0.654515 0.500000 0.061067
O O10 0.655437 0.370635 0.229162
O O11 0.644811 0.303743 0.022383
O O12 0.157655 0.648634 0.126712
O O13 0.000000 0.705708 0.019134
O O14 0.161746 0.782849 0.946935
O O15 0.500000 0.338942 0.348868
O O16 0.152158 0.500000 0.266556
O O17 0.145344 0.668713 0.359984
O O18 0.000000 0.610432 0.240089
O O19 0.500000 0.181526 0.002581
#
# Coordination Sequence:
#
# PCOD9373961 Si02
#       7
#     8   8   8   8   8   8   8
#     4   9  19  37  58  78 104 144 197 250 293 337
#     4  10  19  32  53  82 113 146 187 236 292 353
#     4   8  14  26  46  73 109 153 193 231 282 342
#     4   9  18  34  53  76 108 148 192 234 281 337
#     4   9  18  31  51  83 118 150 186 232 289 353
#     4   9  17  30  50  76 109 152 195 232 277 340
#     4   9  17  30  50  81 119 153 187 233 289 350
#
# _framework density 25.353452000000001
#
# number of rings (size 3 to 8) (size 9 to 14) (size 15 to 20)
#    0.000    3.000    0.000    1.714    0.000    2.857 
#    2.571    5.000    0.000    7.714    0.000    0.000 
#    0.000    1.143    0.000    7.571    0.000    0.000 
#
# Total GULP energy -156329.215813 kJ/mol
# GULP energy per Si atom -5583.186279 kJ/mol
# Density = 2.529575 g / cm^3
# Si number density = 25.353452 Si / 1000 Ang^3
#
#
#
# Elastic Constant Matrix: (Units=GPa)
#
#
# Indices 1 2 3 4 5 6 
#
# 1 103.7271 8.2633 5.9714 0.0000 0.0000 0.0000
# 2 8.2633 127.8265 19.5025 0.0000 0.0000 0.0000
# 3 5.9714 19.5025 93.4065 0.0000 0.0000 0.0000
# 4 0.0000 0.0000 0.0000 17.7031 0.0000 0.0000
# 5 0.0000 0.0000 0.0000 0.0000 24.7660 0.0000
# 6 0.0000 0.0000 0.0000 0.0000 0.0000 25.6618
#
#
#
# Elastic Compliance Matrix: (Units=1/GPa)
#
#
# Indices 1 2 3 4 5 6 
#
# 1 0.009714 -0.000551 -0.000506 0.000000 0.000000 0.000000
# 2 -0.000551 0.008112 -0.001658 0.000000 0.000000 0.000000
# 3 -0.000506 -0.001658 0.011085 0.000000 0.000000 0.000000
# 4 0.000000 0.000000 0.000000 0.056487 0.000000 0.000000
# 5 0.000000 0.000000 0.000000 0.000000 0.040378 0.000000
# 6 0.000000 0.000000 0.000000 0.000000 0.000000 0.038968
#
#
# Mechanical properties :
#
#
# Convention : Reuss Voigt Hill
#
# Bulk Modulus (GPa) = 42.59024 43.60383 43.09704
# Shear Modulus (GPa) = 28.08984 33.04106 30.56545
#
# Velocity S-wave (km/s) = 3.33217 3.61393 3.47590
# Velocity P-wave (km/s) = 5.62490 5.88640 5.75713
#
# Compressibility (1/GPa) = 0.02347956
#
# Stress axis : x y z
#
# Youngs Moduli (GPa) = 102.94751 123.27819 90.21594
#
# Poissons Ratio (x) = 0.06789 0.04565
# Poissons Ratio (y) = 0.05670 0.14962
# Poissons Ratio (z) = 0.05209 0.20445
#
# Static dielectric constant tensor:
#      x y z
#    x 2.111110 0.000000 0.000000 
#    y 0.000000 1.910420 0.000000 
#    z 0.000000 0.000000 2.007120 
# 
# From -- ./inp_files/13226.got.cif
#   From: 2010.05.17/outbox.cif.g08.bks.cpg/sg44_7_cif.got.tgz:13226.got - 2010.06.03 19:37:08.
