data_PCOD9373573
_publ_section_title
;
Structure prediction by ZEFSAII (Michael W. Deem and Ramdas Pophale) SiO2 
 PCOD9373573
Probable space group: I M M 2
;
_chemical_formula_sum "Si O2"
_cell_formula_units_Z 34
_cell_length_a 19.536301
_cell_length_b 13.226603
_cell_length_c 4.959030
_cell_angle_alpha 90.000000
_cell_angle_beta 90.000000
_cell_angle_gamma 90.000000
_cell_volume 1281.407884
_symmetry_space_group_name_H-M "I M M 2"
_symmetry_group_IT_number 44
_symmetry_cell_setting 'orthorhombic'
loop_
_space_group_symop_operation_xyz
x,y,z
-x,-y,z
-x,y,z
x,-y,z
1/2+x,1/2+y,1/2+z
1/2-x,1/2-y,1/2+z
1/2-x,1/2+y,1/2+z
1/2+x,1/2-y,1/2+z
loop_
_atom_site_type_symbol
_atom_site_label
_atom_site_fract_x
_atom_site_fract_y
_atom_site_fract_z
Si Si1 0.292907 0.613241 0.966570
Si Si2 0.500000 0.000000 0.498196
Si Si3 0.574552 0.194494 0.695564
Si Si4 0.797986 0.385745 0.501551
Si Si5 0.079753 0.883779 0.804258
O O1 0.297326 0.500000 0.852322
O O2 0.409650 0.708114 0.512687
O O3 0.251611 0.609969 0.244749
O O4 0.369972 0.635013 0.055224
O O5 0.441106 0.908462 0.522759
O O6 0.500000 0.210404 0.832116
O O7 0.634018 0.167997 0.901020
O O8 0.818940 0.500000 0.574685
O O9 0.755219 0.334327 0.743888
O O10 0.000000 0.883222 0.732107
O O11 0.094240 0.000000 0.900358
#
# Coordination Sequence:
#
# PCOD9373573 Si02
#       5
#     8   2   8   8   8
#     4   9  20  36  65  98 141 193 252 314 381 448
#     4   8  16  32  62 114 156 198 258 312 400 482
#     4   9  17  34  66 105 155 200 252 318 392 474
#     4  10  18  38  64 101 143 192 248 315 381 452
#     4   9  18  37  65 107 153 205 262 322 392 472
#
# _framework density 26.533315999999999
#
# number of rings (size 3 to 8) (size 9 to 14) (size 15 to 20)
#    0.706    2.118    1.176    0.000    0.000    0.000 
#    0.000    7.059    0.000   18.353    6.118    0.000 
#    0.000    5.647    0.000    2.118    0.000    1.412 
#
# Total GULP energy -94839.582803 kJ/mol
# GULP energy per Si atom -5578.798988 kJ/mol
# Density = 2.647293 g / cm^3
# Si number density = 26.533316 Si / 1000 Ang^3
#
#
#
# Elastic Constant Matrix: (Units=GPa)
#
#
# Indices 1 2 3 4 5 6 
#
# 1 203.3241 64.1749 103.5485 0.0000 0.0000 0.0000
# 2 64.1749 259.7109 44.9692 0.0000 0.0000 0.0000
# 3 103.5485 44.9692 127.8587 0.0000 0.0000 0.0000
# 4 0.0000 0.0000 0.0000 18.4063 0.0000 0.0000
# 5 0.0000 0.0000 0.0000 0.0000 48.4159 0.0000
# 6 0.0000 0.0000 0.0000 0.0000 0.0000 35.6938
#
#
#
# Elastic Compliance Matrix: (Units=1/GPa)
#
#
# Indices 1 2 3 4 5 6 
#
# 1 0.008598 -0.000978 -0.006619 0.000000 0.000000 0.000000
# 2 -0.000978 0.004211 -0.000689 0.000000 0.000000 0.000000
# 3 -0.006619 -0.000689 0.013424 0.000000 0.000000 0.000000
# 4 0.000000 0.000000 0.000000 0.054329 0.000000 0.000000
# 5 0.000000 0.000000 0.000000 0.000000 0.020654 0.000000
# 6 0.000000 0.000000 0.000000 0.000000 0.000000 0.028016
#
#
# Mechanical properties :
#
#
# Convention : Reuss Voigt Hill
#
# Bulk Modulus (GPa) = 103.51169 112.91987 108.21578
# Shear Modulus (GPa) = 33.55113 45.71661 39.63387
#
# Velocity S-wave (km/s) = 3.55983 4.15539 3.86909
# Velocity P-wave (km/s) = 7.48286 8.10390 7.79956
#
# Compressibility (1/GPa) = 0.00966074
#
# Stress axis : x y z
#
# Youngs Moduli (GPa) = 116.30488 237.44606 74.49329
#
# Poissons Ratio (x) = 0.23234 0.49308
# Poissons Ratio (y) = 0.11380 0.05131
# Poissons Ratio (z) = 0.76984 0.16355
#
# Static dielectric constant tensor:
#      x y z
#    x 2.083990 0.000000 0.000000 
#    y 0.000000 2.158010 0.000000 
#    z 0.000000 0.000000 2.065340 
# 
# From -- ./inp_files/8013.got.cif
#   From: 2010.05.17/outbox.cif.g08.bks.cpg/sg44_5_cif.got.tgz:8013.got - 2010.06.03 19:37:08.
