data_PCOD9373047
_publ_section_title
;
Structure prediction by ZEFSAII (Michael W. Deem and Ramdas Pophale) SiO2 
 PCOD9373047
Probable space group: I M M 2
;
_chemical_formula_sum "Si O2"
_cell_formula_units_Z 64
_cell_length_a 7.556518
_cell_length_b 28.668526
_cell_length_c 15.214542
_cell_angle_alpha 90.000000
_cell_angle_beta 90.000000
_cell_angle_gamma 90.000000
_cell_volume 3295.990633
_symmetry_space_group_name_H-M "I M M 2"
_symmetry_group_IT_number 44
_symmetry_cell_setting 'orthorhombic'
loop_
_space_group_symop_operation_xyz
x,y,z
-x,-y,z
-x,y,z
x,-y,z
1/2+x,1/2+y,1/2+z
1/2-x,1/2-y,1/2+z
1/2-x,1/2+y,1/2+z
1/2+x,1/2-y,1/2+z
loop_
_atom_site_type_symbol
_atom_site_label
_atom_site_fract_x
_atom_site_fract_y
_atom_site_fract_z
Si Si1 0.283825 0.553968 0.572290
Si Si2 0.783226 0.823999 0.764901
Si Si3 0.284787 0.217196 0.260689
Si Si4 0.714291 0.215988 0.058585
Si Si5 0.292542 0.320374 0.069208
Si Si6 0.205133 0.129995 0.937075
Si Si7 0.286840 0.553067 0.769671
Si Si8 0.792733 0.361555 0.891841
O O1 0.500000 0.555742 0.572658
O O2 0.234710 0.500000 0.557387
O O3 0.217444 0.589325 0.498254
O O4 0.226696 0.567334 0.671368
O O5 0.731495 0.770145 0.782381
O O6 0.723620 0.834552 0.665268
O O7 0.717702 0.857752 0.841759
O O8 0.000000 0.825346 0.768208
O O9 0.500000 0.216501 0.261621
O O10 0.234742 0.206172 0.160004
O O11 0.216722 0.179193 0.329239
O O12 0.500000 0.213554 0.051923
O O13 0.775803 0.269140 0.040655
O O14 0.788169 0.177639 0.993150
O O15 0.500000 0.312216 0.084048
O O16 0.274774 0.356514 0.990611
O O17 0.000000 0.117114 0.923026
O O18 0.500000 0.552181 0.767587
O O19 0.226267 0.500000 0.785735
O O20 0.234036 0.589698 0.843223
O O21 0.000000 0.352808 0.898371
#
# Coordination Sequence:
#
# PCOD9373047 Si02
#       8
#     8   8   8   8   8   8   8   8
#     4   8  15  28  46  70  97 120 145 183 230 275
#     4   8  15  28  44  62  87 121 156 186 219 262
#     4   8  15  27  41  61  92 123 147 177 224 276
#     4   9  17  29  44  63  90 123 153 182 221 272
#     4   9  18  32  46  60  87 127 160 183 217 270
#     4  10  17  26  46  70  89 115 152 193 233 269
#     4   9  18  33  50  67  92 124 151 178 221 279
#     4  11  20  29  47  72  94 117 150 194 235 268
#
# _framework density 19.417532000000001
#
# number of rings (size 3 to 8) (size 9 to 14) (size 15 to 20)
#    0.000    3.000    0.000    4.125    0.000    1.750 
#    0.000    1.250    0.000    4.125    0.000    3.500 
#    0.000    0.000    0.000    0.000    0.000    0.000 
#
# Total GULP energy -178487.061548 kJ/mol
# GULP energy per Si atom -5577.720673 kJ/mol
# Density = 1.937334 g / cm^3
# Si number density = 19.417532 Si / 1000 Ang^3
#
#
#
# Elastic Constant Matrix: (Units=GPa)
#
#
# Indices 1 2 3 4 5 6 
#
# 1 41.5502 -7.8740 -6.7652 0.0000 0.0000 0.0000
# 2 -7.8740 79.4860 83.1182 0.0000 0.0000 0.0000
# 3 -6.7652 83.1182 132.8001 -0.0001 0.0000 -0.0001
# 4 0.0000 0.0000 -0.0001 33.4163 0.0000 0.0000
# 5 0.0000 0.0000 0.0000 0.0000 1.8611 0.0000
# 6 0.0000 0.0000 -0.0001 0.0000 0.0000 4.9994
#
#
#
# Elastic Compliance Matrix: (Units=1/GPa)
#
#
# Indices 1 2 3 4 5 6 
#
# 1 0.024556 0.003254 -0.000786 0.000000 0.000000 0.000000
# 2 0.003254 0.036844 -0.022894 0.000000 0.000000 0.000000
# 3 -0.000786 -0.022894 0.021819 0.000000 0.000000 0.000000
# 4 0.000000 0.000000 0.000000 0.029926 0.000000 0.000000
# 5 0.000000 0.000000 0.000000 0.000000 0.537319 0.000000
# 6 0.000000 0.000000 0.000000 0.000000 0.000000 0.200025
#
#
# Mechanical properties :
#
#
# Convention : Reuss Voigt Hill
#
# Bulk Modulus (GPa) = 23.60302 43.42158 33.51230
# Shear Modulus (GPa) = 5.52203 20.41250 12.96727
#
# Velocity S-wave (km/s) = 1.68820 3.24580 2.58701
# Velocity P-wave (km/s) = 3.99774 6.03801 5.12052
#
# Compressibility (1/GPa) = 0.04236747
#
# Stress axis : x y z
#
# Youngs Moduli (GPa) = 40.72316 27.14171 45.83085
#
# Poissons Ratio (x) = -0.08833 0.03602
# Poissons Ratio (y) = -0.13253 1.04926
# Poissons Ratio (z) = 0.03201 0.62139
#
# Static dielectric constant tensor:
#      x y z
#    x 1.743410 0.000000 0.000000 
#    y 0.000000 1.658260 0.000000 
#    z 0.000000 0.000000 1.701000 
# 
# From -- ./inp_files/17133.got.cif
#   From: 2010.05.17/outbox.cif.g08.bks.cpg/sg44_9_cif.got.tgz:17133.got - 2010.06.03 19:37:08.
