data_PCOD9373424
_publ_section_title
;
Structure prediction by ZEFSAII (Michael W. Deem and Ramdas Pophale) SiO2 
 PCOD9373424
Probable space group: I M M 2
;
_chemical_formula_sum "Si O2"
_cell_formula_units_Z 56
_cell_length_a 8.234408
_cell_length_b 15.838765
_cell_length_c 19.958861
_cell_angle_alpha 90.000000
_cell_angle_beta 90.000000
_cell_angle_gamma 90.000000
_cell_volume 2603.091599
_symmetry_space_group_name_H-M "I M M 2"
_symmetry_group_IT_number 44
_symmetry_cell_setting 'orthorhombic'
loop_
_space_group_symop_operation_xyz
x,y,z
-x,-y,z
-x,y,z
x,-y,z
1/2+x,1/2+y,1/2+z
1/2-x,1/2-y,1/2+z
1/2-x,1/2+y,1/2+z
1/2+x,1/2-y,1/2+z
loop_
_atom_site_type_symbol
_atom_site_label
_atom_site_fract_x
_atom_site_fract_y
_atom_site_fract_z
Si Si1 0.190941 0.088653 0.510060
Si Si2 0.815125 0.591369 0.296145
Si Si3 0.196741 0.402877 0.779387
Si Si4 0.817692 0.124670 0.664431
Si Si5 0.812277 0.756193 0.867100
Si Si6 0.191896 0.188615 0.146102
Si Si7 0.807673 0.722926 0.504941
O O1 0.196558 0.088335 0.590308
O O2 0.261740 0.180817 0.496377
O O3 0.000000 0.090923 0.489980
O O4 0.261639 0.000000 0.483962
O O5 0.759154 0.500000 0.322062
O O6 0.809330 0.588946 0.215970
O O7 0.705803 0.671826 0.311449
O O8 0.000000 0.605757 0.317934
O O9 0.246071 0.500000 0.793992
O O10 0.252127 0.331760 0.834021
O O11 0.255252 0.375722 0.704702
O O12 0.000000 0.399500 0.779302
O O13 0.789002 0.224785 0.658289
O O14 0.000000 0.106178 0.687769
O O15 0.722862 0.802946 0.928964
O O16 0.000000 0.743419 0.884240
O O17 0.000000 0.203007 0.152991
O O18 0.229257 0.172686 0.066899
O O19 0.000000 0.727737 0.519051
#
# Coordination Sequence:
#
# PCOD9373424 Si02
#       7
#     8   8   8   8   8   8   8
#     4   8  15  28  48  77 110 145 187 231 279 344
#     4  11  23  37  56  85 119 153 191 241 302 362
#     4  10  22  41  65  93 127 169 214 262 320 381
#     4  10  18  31  54  83 116 153 190 233 289 348
#     4  11  23  40  62  88 122 163 207 256 312 377
#     4  11  21  36  60  89 121 157 205 257 306 364
#     4  10  21  37  59  83 117 162 205 254 316 375
#
# _framework density 21.512881
#
# number of rings (size 3 to 8) (size 9 to 14) (size 15 to 20)
#    0.000    1.857    1.429    4.286    0.000    3.143 
#    0.000    0.714    0.000   12.429    0.000    0.000 
#    0.000    0.000    0.000    0.000    0.000    0.000 
#
# Total GULP energy -155972.659908 kJ/mol
# GULP energy per Si atom -5570.452140 kJ/mol
# Density = 2.146392 g / cm^3
# Si number density = 21.512881 Si / 1000 Ang^3
#
#
#
# Elastic Constant Matrix: (Units=GPa)
#
#
# Indices 1 2 3 4 5 6 
#
# 1 56.4893 11.1527 11.2520 0.0000 0.0000 0.0000
# 2 11.1527 63.5694 -5.0003 0.0000 0.0000 0.0000
# 3 11.2520 -5.0003 72.0783 0.0000 0.0000 0.0000
# 4 0.0000 0.0000 0.0000 -0.4385 0.0000 0.0000
# 5 0.0000 0.0000 0.0000 0.0000 30.4200 0.0000
# 6 0.0000 0.0000 0.0000 0.0000 0.0000 1.3073
#
#
#
# Elastic Compliance Matrix: (Units=1/GPa)
#
#
# Indices 1 2 3 4 5 6 
#
# 1 0.019055 -0.003597 -0.003224 0.000000 0.000000 0.000000
# 2 -0.003597 0.016496 0.001706 0.000000 0.000000 0.000000
# 3 -0.003224 0.001706 0.014495 0.000000 0.000000 0.000000
# 4 0.000000 0.000000 0.000000 -2.280551 0.000000 0.000001
# 5 0.000000 0.000000 0.000000 0.000000 0.032873 0.000000
# 6 0.000000 0.000000 0.000000 0.000001 0.000000 0.764912
#
#
# Mechanical properties :
#
#
# Convention : Reuss Voigt Hill
#
# Bulk Modulus (GPa) = 25.11521 25.21618 25.16569
# Shear Modulus (GPa) = -3.54807 17.90662 7.17928
#
# Velocity S-wave (km/s) = -1.28563 2.88821 1.82878
# Velocity P-wave (km/s) = 3.08156 4.78218 4.02276
#
# Compressibility (1/GPa) = 0.03981651
#
# Stress axis : x y z
#
# Youngs Moduli (GPa) = 52.48033 60.62071 68.98719
#
# Poissons Ratio (x) = 0.21803 0.22242
# Poissons Ratio (y) = 0.18875 -0.11768
# Poissons Ratio (z) = 0.16920 -0.10341
#
# Static dielectric constant tensor:
#      x y z
#    x 1.729510 0.000000 0.000000 
#    y 0.000000 1.907320 0.000000 
#    z 0.000000 0.000000 1.837590 
# 
# From -- ./inp_files/23021.got.cif
#   From: 2010.05.17/outbox.cif.g08.bks.cpg/sg44_12_cif.got.tgz:23021.got - 2010.06.03 19:37:08.
