data_PCOD9373875
_publ_section_title
;
Structure prediction by ZEFSAII (Michael W. Deem and Ramdas Pophale) SiO2 
 PCOD9373875
Probable space group: I M M 2
;
_chemical_formula_sum "Si O2"
_cell_formula_units_Z 48
_cell_length_a 24.052229
_cell_length_b 17.888289
_cell_length_c 6.756703
_cell_angle_alpha 90.000000
_cell_angle_beta 90.000000
_cell_angle_gamma 90.000000
_cell_volume 2907.093246
_symmetry_space_group_name_H-M "I M M 2"
_symmetry_group_IT_number 44
_symmetry_cell_setting 'orthorhombic'
loop_
_space_group_symop_operation_xyz
x,y,z
-x,-y,z
-x,y,z
x,-y,z
1/2+x,1/2+y,1/2+z
1/2-x,1/2-y,1/2+z
1/2-x,1/2+y,1/2+z
1/2+x,1/2-y,1/2+z
loop_
_atom_site_type_symbol
_atom_site_label
_atom_site_fract_x
_atom_site_fract_y
_atom_site_fract_z
Si Si1 0.822037 0.799057 0.717540
Si Si2 0.846625 0.586961 0.590069
Si Si3 0.434978 0.911731 0.755047
Si Si4 0.369597 0.186114 0.463626
Si Si5 0.202794 0.774696 0.270167
Si Si6 0.779686 0.913189 0.988870
O O1 0.823590 0.785825 0.485077
O O2 0.766132 0.754253 0.788120
O O3 0.873843 0.762124 0.832991
O O4 0.809026 0.882475 0.790679
O O5 0.853982 0.500000 0.635299
O O6 0.896435 0.608775 0.442863
O O7 0.787293 0.595276 0.481433
O O8 0.846160 0.630274 0.796765
O O9 0.500000 0.905366 0.801579
O O10 0.418758 0.857944 0.572895
O O11 0.423343 0.000000 0.708799
O O12 0.329452 0.213401 0.640229
O O13 0.202157 0.854036 0.156864
O O14 0.791688 0.000000 0.028514
#
# Coordination Sequence:
#
# PCOD9373875 Si02
#       6
#     8   8   8   8   8   8
#     4  11  18  30  48  69  97 132 166 206 255 307
#     4  10  19  32  49  69  93 130 177 220 258 296
#     4  10  22  36  49  70 101 137 180 228 267 296
#     4  11  19  31  51  70  94 131 174 212 256 306
#     4  11  19  32  50  71 101 131 167 212 259 308
#     4  10  20  31  47  74 102 133 175 213 252 305
#
# _framework density 16.511339
#
# number of rings (size 3 to 8) (size 9 to 14) (size 15 to 20)
#    0.000    1.500    5.000    2.500    0.000    1.333 
#    0.000    2.500    0.000    0.000    0.000    0.000 
#    0.000   10.667    0.000   22.667    0.000    1.000 
#
# Total GULP energy -133667.395626 kJ/mol
# GULP energy per Si atom -5569.474818 kJ/mol
# Density = 1.647376 g / cm^3
# Si number density = 16.511339 Si / 1000 Ang^3
#
#
#
# Elastic Constant Matrix: (Units=GPa)
#
#
# Indices 1 2 3 4 5 6 
#
# 1 49.8859 31.9510 31.6625 0.0000 0.0000 0.0000
# 2 31.9510 94.7283 40.5411 0.0000 0.0000 0.0000
# 3 31.6625 40.5411 99.0262 0.0000 0.0000 0.0000
# 4 0.0000 0.0000 0.0000 27.6602 0.0000 0.0000
# 5 0.0000 0.0000 0.0000 0.0000 16.5843 0.0000
# 6 0.0000 0.0000 0.0000 0.0000 0.0000 20.8219
#
#
#
# Elastic Compliance Matrix: (Units=1/GPa)
#
#
# Indices 1 2 3 4 5 6 
#
# 1 0.028452 -0.006915 -0.006266 0.000000 0.000000 0.000000
# 2 -0.006915 0.014480 -0.003717 0.000000 0.000000 0.000000
# 3 -0.006266 -0.003717 0.013624 0.000000 0.000000 0.000000
# 4 0.000000 0.000000 0.000000 0.036153 0.000000 0.000000
# 5 0.000000 0.000000 0.000000 0.000000 0.060298 0.000000
# 6 0.000000 0.000000 0.000000 0.000000 0.000000 0.048026
#
#
# Mechanical properties :
#
#
# Convention : Reuss Voigt Hill
#
# Bulk Modulus (GPa) = 43.93875 50.21662 47.07769
# Shear Modulus (GPa) = 20.62581 22.31231 21.46906
#
# Velocity S-wave (km/s) = 3.53822 3.68004 3.60983
# Velocity P-wave (km/s) = 6.58491 6.96680 6.77855
#
# Compressibility (1/GPa) = 0.02275896
#
# Stress axis : x y z
#
# Youngs Moduli (GPa) = 35.14729 69.06289 73.40191
#
# Poissons Ratio (x) = 0.47755 0.45995
# Poissons Ratio (y) = 0.24303 0.27283
# Poissons Ratio (z) = 0.22024 0.25671
#
# Static dielectric constant tensor:
#      x y z
#    x 1.539610 0.000000 0.000000 
#    y 0.000000 1.600330 0.000000 
#    z 0.000000 0.000000 1.597260 
# 
# From -- ./inp_files/2753.got.cif
#   From: 2010.05.17/outbox.cif.g08.bks.cpg/sg44_2_cif.got.tgz:2753.got - 2010.06.03 19:37:08.
