data_PCOD9373916
_publ_section_title
;
Structure prediction by ZEFSAII (Michael W. Deem and Ramdas Pophale) SiO2 
 PCOD9373916
Probable space group: I M M 2
;
_chemical_formula_sum "Si O2"
_cell_formula_units_Z 64
_cell_length_a 21.262595
_cell_length_b 8.298502
_cell_length_c 20.231672
_cell_angle_alpha 90.000000
_cell_angle_beta 90.000000
_cell_angle_gamma 90.000000
_cell_volume 3569.831731
_symmetry_space_group_name_H-M "I M M 2"
_symmetry_group_IT_number 44
_symmetry_cell_setting 'orthorhombic'
loop_
_space_group_symop_operation_xyz
x,y,z
-x,-y,z
-x,y,z
x,-y,z
1/2+x,1/2+y,1/2+z
1/2-x,1/2-y,1/2+z
1/2-x,1/2+y,1/2+z
1/2+x,1/2-y,1/2+z
loop_
_atom_site_type_symbol
_atom_site_label
_atom_site_fract_x
_atom_site_fract_y
_atom_site_fract_z
Si Si1 0.253515 0.812704 0.951640
Si Si2 0.570126 0.195289 0.164094
Si Si3 0.234874 0.194192 0.311113
Si Si4 0.882156 0.695639 0.805599
Si Si5 0.690527 0.309354 0.084010
Si Si6 0.387108 0.189395 0.451354
Si Si7 0.068874 0.807539 0.090561
Si Si8 0.809415 0.195660 0.169688
O O1 0.283291 0.771165 0.880794
O O2 0.188387 0.713233 0.956866
O O3 0.236043 0.000000 0.954291
O O4 0.297507 0.771014 0.013043
O O5 0.500000 0.243492 0.143427
O O6 0.582436 0.249239 0.239892
O O7 0.625592 0.258572 0.118095
O O8 0.573399 0.000000 0.163957
O O9 0.308322 0.237315 0.299180
O O10 0.196298 0.243045 0.246388
O O11 0.231946 0.000000 0.317463
O O12 0.885582 0.500000 0.807346
O O13 0.904807 0.750896 0.877922
O O14 0.692551 0.500000 0.075934
O O15 0.748187 0.255413 0.130752
O O16 0.418293 0.274084 0.513544
O O17 0.401679 0.000000 0.455107
O O18 0.127664 0.745399 0.133239
O O19 0.000000 0.742907 0.108854
O O20 0.067988 0.000000 0.100026
O O21 0.807950 0.000000 0.167163
#
# Coordination Sequence:
#
# PCOD9373916 Si02
#       8
#     8   8   8   8   8   8   8   8
#     4  11  21  34  54  80 110 141 178 226 281 327
#     4  10  20  36  57  79 107 148 190 224 270 330
#     4   9  17  32  54  79 107 139 180 225 272 324
#     4   8  15  29  49  75 106 138 179 220 257 315
#     4  12  23  35  55  82 111 142 184 232 274 320
#     4  10  19  32  51  78 108 144 186 224 266 316
#     4  10  21  35  52  78 111 149 187 223 267 322
#     4  10  19  35  58  79 107 146 184 225 272 326
#
# _framework density 17.928016
#
# number of rings (size 3 to 8) (size 9 to 14) (size 15 to 20)
#    0.000    2.000    2.500    3.375    0.000    1.500 
#    0.000    1.875    0.000    0.750    0.000    1.750 
#    0.000    0.000    0.000    0.000    0.000    0.000 
#
# Total GULP energy -178592.231467 kJ/mol
# GULP energy per Si atom -5581.007233 kJ/mol
# Density = 1.788721 g / cm^3
# Si number density = 17.928016 Si / 1000 Ang^3
#
#
#
# Elastic Constant Matrix: (Units=GPa)
#
#
# Indices 1 2 3 4 5 6 
#
# 1 96.4385 3.4096 51.4881 0.0000 0.0000 0.0000
# 2 3.4096 17.1688 8.3999 0.0000 0.0000 0.0000
# 3 51.4881 8.3999 112.5949 0.0000 0.0000 0.0000
# 4 0.0000 0.0000 0.0000 25.3229 0.0000 0.0000
# 5 0.0000 0.0000 0.0000 0.0000 19.7440 0.0000
# 6 0.0000 0.0000 0.0000 0.0000 0.0000 -29.3883
#
#
#
# Elastic Compliance Matrix: (Units=1/GPa)
#
#
# Indices 1 2 3 4 5 6 
#
# 1 0.013721 0.000358 -0.006301 0.000000 0.000000 0.000000
# 2 0.000358 0.060461 -0.004674 0.000000 0.000000 0.000000
# 3 -0.006301 -0.004674 0.012111 0.000000 0.000000 0.000000
# 4 0.000000 0.000000 0.000000 0.039490 0.000000 0.000000
# 5 0.000000 0.000000 0.000000 0.000000 0.050648 0.000000
# 6 0.000000 0.000000 0.000000 0.000000 0.000000 -0.034027
#
#
# Mechanical properties :
#
#
# Convention : Reuss Voigt Hill
#
# Bulk Modulus (GPa) = 15.37076 39.19971 27.28524
# Shear Modulus (GPa) = 26.97962 13.99603 20.48782
#
# Velocity S-wave (km/s) = 3.88349 2.79709 3.38417
# Velocity P-wave (km/s) = 5.35732 5.68719 5.52472
#
# Compressibility (1/GPa) = 0.06505858
#
# Stress axis : x y z
#
# Youngs Moduli (GPa) = 72.88248 16.53958 82.56642
#
# Poissons Ratio (x) = -0.00592 0.52025
# Poissons Ratio (y) = -0.02609 0.38594
# Poissons Ratio (z) = 0.45923 0.07731
#
# Static dielectric constant tensor:
#      x y z
#    x 1.605430 0.000000 0.000000 
#    y 0.000000 1.620330 0.000000 
#    z 0.000000 0.000000 1.621840 
# 
# From -- ./inp_files/24485.got.cif
#   From: 2010.05.17/outbox.cif.g08.bks.cpg/sg44_13_cif.got.tgz:24485.got - 2010.06.03 19:37:08.
