data_PCOD9373515
_publ_section_title
;
Structure prediction by ZEFSAII (Michael W. Deem and Ramdas Pophale) SiO2 
 PCOD9373515
Probable space group: I M M 2
;
_chemical_formula_sum "Si O2"
_cell_formula_units_Z 48
_cell_length_a 21.090821
_cell_length_b 7.719423
_cell_length_c 14.982612
_cell_angle_alpha 90.000000
_cell_angle_beta 90.000000
_cell_angle_gamma 90.000000
_cell_volume 2439.303608
_symmetry_space_group_name_H-M "I M M 2"
_symmetry_group_IT_number 44
_symmetry_cell_setting 'orthorhombic'
loop_
_space_group_symop_operation_xyz
x,y,z
-x,-y,z
-x,y,z
x,-y,z
1/2+x,1/2+y,1/2+z
1/2-x,1/2-y,1/2+z
1/2-x,1/2+y,1/2+z
1/2+x,1/2-y,1/2+z
loop_
_atom_site_type_symbol
_atom_site_label
_atom_site_fract_x
_atom_site_fract_y
_atom_site_fract_z
Si Si1 0.184023 0.796021 0.715110
Si Si2 0.070543 0.792307 0.592719
Si Si3 0.622761 0.208822 0.898863
Si Si4 0.194595 0.204998 0.099165
Si Si5 0.070640 0.290549 0.208834
Si Si6 0.730511 0.287645 0.403405
O O1 0.126250 0.722218 0.656656
O O2 0.249497 0.780758 0.660329
O O3 0.195296 0.724786 0.814368
O O4 0.171156 0.000000 0.726027
O O5 0.088824 0.759812 0.490072
O O6 0.000000 0.724309 0.611560
O O7 0.068918 0.000000 0.603889
O O8 0.588821 0.270088 0.808669
O O9 0.695914 0.266801 0.900133
O O10 0.623260 0.000000 0.895848
O O11 0.126465 0.238695 0.142216
O O12 0.205922 0.000000 0.097866
O O13 0.201112 0.268445 0.997482
O O14 0.069908 0.500000 0.210909
O O15 0.000000 0.230671 0.184592
O O16 0.730070 0.500000 0.401396
#
# Coordination Sequence:
#
# PCOD9373515 Si02
#       6
#     8   8   8   8   8   8
#     4  10  19  36  57  74 103 145 181 213 255 313
#     4  10  21  34  51  80 112 139 173 219 268 311
#     4  10  18  33  56  79 106 140 176 213 259 318
#     4  11  21  34  54  81 109 135 173 223 267 306
#     4  10  21  37  56  78 106 144 182 211 254 320
#     4   9  18  33  54  79 105 133 175 219 257 311
#
# _framework density 19.677747
#
# number of rings (size 3 to 8) (size 9 to 14) (size 15 to 20)
#    0.000    2.000    3.333    1.000    0.000    2.000 
#    0.000    2.500    0.000    3.000    0.000    0.000 
#    0.000    0.000    0.000    0.000    0.000    0.000 
#
# Total GULP energy -134014.396080 kJ/mol
# GULP energy per Si atom -5583.933170 kJ/mol
# Density = 1.963296 g / cm^3
# Si number density = 19.677747 Si / 1000 Ang^3
#
#
#
# Elastic Constant Matrix: (Units=GPa)
#
#
# Indices 1 2 3 4 5 6 
#
# 1 142.4708 -7.4696 67.0891 0.0000 0.0000 0.0000
# 2 -7.4696 28.3339 -5.3408 0.0000 0.0000 0.0000
# 3 67.0891 -5.3408 145.9389 0.0000 0.0000 0.0000
# 4 0.0000 0.0000 0.0000 16.9756 0.0000 0.0000
# 5 0.0000 0.0000 0.0000 0.0000 20.3408 0.0000
# 6 0.0000 0.0000 0.0000 0.0000 0.0000 41.9421
#
#
#
# Elastic Compliance Matrix: (Units=1/GPa)
#
#
# Indices 1 2 3 4 5 6 
#
# 1 0.009030 0.001609 -0.004092 0.000000 0.000000 0.000000
# 2 0.001609 0.035825 0.000571 0.000000 0.000000 0.000000
# 3 -0.004092 0.000571 0.008754 0.000000 0.000000 0.000000
# 4 0.000000 0.000000 0.000000 0.058908 0.000000 0.000000
# 5 0.000000 0.000000 0.000000 0.000000 0.049162 0.000000
# 6 0.000000 0.000000 0.000000 0.000000 0.000000 0.023842
#
#
# Mechanical properties :
#
#
# Convention : Reuss Voigt Hill
#
# Bulk Modulus (GPa) = 20.08582 47.25566 33.67074
# Shear Modulus (GPa) = 24.27863 33.34936 28.81400
#
# Velocity S-wave (km/s) = 3.51638 4.12123 3.83076
# Velocity P-wave (km/s) = 5.16876 6.83469 6.05925
#
# Compressibility (1/GPa) = 0.04978638
#
# Stress axis : x y z
#
# Youngs Moduli (GPa) = 110.73594 27.91322 114.22787
#
# Poissons Ratio (x) = -0.04492 0.46748
# Poissons Ratio (y) = -0.17820 -0.06526
# Poissons Ratio (z) = 0.45319 -0.01595
#
# Static dielectric constant tensor:
#      x y z
#    x 1.679250 0.000000 0.000000 
#    y 0.000000 1.737630 0.000000 
#    z 0.000000 0.000000 1.677270 
# 
# From -- ./inp_files/16076.got.cif
#   From: 2010.05.17/outbox.cif.g08.bks.cpg/sg44_9_cif.got.tgz:16076.got - 2010.06.03 19:37:08.
