data_PCOD9373416
_publ_section_title
;
Structure prediction by ZEFSAII (Michael W. Deem and Ramdas Pophale) SiO2 
 PCOD9373416
Probable space group: I M M 2
;
_chemical_formula_sum "Si O2"
_cell_formula_units_Z 64
_cell_length_a 20.146111
_cell_length_b 7.888585
_cell_length_c 21.576252
_cell_angle_alpha 90.000000
_cell_angle_beta 90.000000
_cell_angle_gamma 90.000000
_cell_volume 3428.990941
_symmetry_space_group_name_H-M "I M M 2"
_symmetry_group_IT_number 44
_symmetry_cell_setting 'orthorhombic'
loop_
_space_group_symop_operation_xyz
x,y,z
-x,-y,z
-x,y,z
x,-y,z
1/2+x,1/2+y,1/2+z
1/2-x,1/2-y,1/2+z
1/2-x,1/2+y,1/2+z
1/2+x,1/2-y,1/2+z
loop_
_atom_site_type_symbol
_atom_site_label
_atom_site_fract_x
_atom_site_fract_y
_atom_site_fract_z
Si Si1 0.426103 0.702060 0.891580
Si Si2 0.074022 0.204980 0.625405
Si Si3 0.574386 0.796675 0.747295
Si Si4 0.786846 0.297767 0.443378
Si Si5 0.786661 0.200064 0.201428
Si Si6 0.715085 0.799286 0.078589
Si Si7 0.290913 0.298454 0.324386
Si Si8 0.426593 0.706887 0.270343
O O1 0.500000 0.766251 0.908188
O O2 0.426140 0.500000 0.898861
O O3 0.415383 0.742899 0.818875
O O4 0.364660 0.771976 0.929839
O O5 0.136595 0.275860 0.589300
O O6 0.081540 0.253153 0.697945
O O7 0.000000 0.257631 0.604927
O O8 0.076488 0.000000 0.622032
O O9 0.500000 0.739871 0.729383
O O10 0.634725 0.728851 0.706570
O O11 0.576294 0.000000 0.745397
O O12 0.775980 0.500000 0.445018
O O13 0.768123 0.227612 0.510866
O O14 0.745841 0.227315 0.384865
O O15 0.753812 0.270828 0.138530
O O16 0.753142 0.275850 0.262852
O O17 0.773087 0.000000 0.203917
O O18 0.729481 0.000000 0.077198
O O19 0.297795 0.500000 0.333838
O O20 0.364187 0.229892 0.309366
O O21 0.500000 0.761704 0.290750
O O22 0.425918 0.500000 0.271613
#
# Coordination Sequence:
#
# PCOD9373416 Si02
#       8
#     8   8   8   8   8   8   8   8
#     4  10  20  33  50  75 106 137 171 211 255 303
#     4   9  17  30  49  73 100 130 169 213 251 296
#     4  10  20  34  54  79 104 131 168 212 258 311
#     4  10  21  35  50  71 102 140 177 210 250 303
#     4  11  21  33  52  76 104 135 170 215 259 302
#     4  10  22  36  48  70 106 143 174 209 256 308
#     4  10  18  31  54  76  96 129 172 215 255 302
#     4   8  14  26  47  75 100 120 153 208 262 300
#
# _framework density 18.664383000000001
#
# number of rings (size 3 to 8) (size 9 to 14) (size 15 to 20)
#    0.000    2.250    2.500    1.875    0.000    3.250 
#    0.000    2.500    0.000    1.125    0.000    3.500 
#    0.000    0.000    0.000    0.000    0.000    0.000 
#
# Total GULP energy -178521.107137 kJ/mol
# GULP energy per Si atom -5578.784598 kJ/mol
# Density = 1.862190 g / cm^3
# Si number density = 18.664383 Si / 1000 Ang^3
#
#
#
# Elastic Constant Matrix: (Units=GPa)
#
#
# Indices 1 2 3 4 5 6 
#
# 1 103.7792 -10.1248 63.6019 0.0000 0.0000 0.0000
# 2 -10.1248 16.2543 -0.3429 0.0000 0.0000 0.0000
# 3 63.6019 -0.3429 123.9125 0.0000 0.0000 0.0000
# 4 0.0000 0.0000 0.0000 10.9936 0.0000 0.0000
# 5 0.0000 0.0000 0.0000 0.0000 19.6396 0.0000
# 6 0.0000 0.0000 0.0000 0.0000 0.0000 -22.4580
#
#
#
# Elastic Compliance Matrix: (Units=1/GPa)
#
#
# Indices 1 2 3 4 5 6 
#
# 1 0.015374 0.009411 -0.007865 0.000000 0.000000 0.000000
# 2 0.009411 0.067286 -0.004644 0.000000 0.000000 0.000000
# 3 -0.007865 -0.004644 0.012094 0.000000 0.000000 0.000000
# 4 0.000000 0.000000 0.000000 0.090962 0.000000 0.000000
# 5 0.000000 0.000000 0.000000 0.000000 0.050918 0.000000
# 6 0.000000 0.000000 0.000000 0.000000 0.000000 -0.044527
#
#
# Mechanical properties :
#
#
# Convention : Reuss Voigt Hill
#
# Bulk Modulus (GPa) = 11.29210 38.91270 25.10240
# Shear Modulus (GPa) = 21.94678 14.35580 18.15129
#
# Velocity S-wave (km/s) = 3.43281 2.77637 3.12189
# Velocity P-wave (km/s) = 4.66642 5.58315 5.14524
#
# Compressibility (1/GPa) = 0.08855746
#
# Stress axis : x y z
#
# Youngs Moduli (GPa) = 65.04382 14.86190 82.68255
#
# Poissons Ratio (x) = -0.13986 0.65032
# Poissons Ratio (y) = -0.61211 0.38399
# Poissons Ratio (z) = 0.51159 0.06902
#
# Static dielectric constant tensor:
#      x y z
#    x 1.663140 0.000000 0.000000 
#    y 0.000000 1.684400 0.000000 
#    z 0.000000 0.000000 1.654710 
# 
# From -- ./inp_files/23418.got.cif
#   From: 2010.05.17/outbox.cif.g08.bks.cpg/sg44_12_cif.got.tgz:23418.got - 2010.06.03 19:37:08.
