data_PCOD9373946
_publ_section_title
;
Structure prediction by ZEFSAII (Michael W. Deem and Ramdas Pophale) SiO2 
 PCOD9373946
Probable space group: I M M 2
;
_chemical_formula_sum "Si O2"
_cell_formula_units_Z 56
_cell_length_a 23.697832
_cell_length_b 21.734670
_cell_length_c 5.334473
_cell_angle_alpha 90.000000
_cell_angle_beta 90.000000
_cell_angle_gamma 90.000000
_cell_volume 2747.597979
_symmetry_space_group_name_H-M "I M M 2"
_symmetry_group_IT_number 44
_symmetry_cell_setting 'orthorhombic'
loop_
_space_group_symop_operation_xyz
x,y,z
-x,-y,z
-x,y,z
x,-y,z
1/2+x,1/2+y,1/2+z
1/2-x,1/2-y,1/2+z
1/2-x,1/2+y,1/2+z
1/2+x,1/2-y,1/2+z
loop_
_atom_site_type_symbol
_atom_site_label
_atom_site_fract_x
_atom_site_fract_y
_atom_site_fract_z
Si Si1 0.346752 0.146590 0.263670
Si Si2 0.238066 0.209971 0.186836
Si Si3 0.937861 0.430512 0.999941
Si Si4 0.067462 0.857807 0.690345
Si Si5 0.568233 0.430518 0.699145
Si Si6 0.379440 0.265341 0.533825
Si Si7 0.439255 0.815009 0.876150
O O1 0.280716 0.151824 0.201721
O O2 0.381859 0.086207 0.341371
O O3 0.353872 0.197896 0.479763
O O4 0.385049 0.174413 0.044465
O O5 0.242770 0.250074 0.442633
O O6 0.172407 0.196185 0.142990
O O7 0.932898 0.500000 0.100776
O O8 0.000000 0.428292 0.866725
O O9 0.941287 0.376012 0.202336
O O10 0.079729 0.903377 0.924834
O O11 0.098009 0.796256 0.781981
O O12 0.000000 0.848237 0.681924
O O13 0.086412 0.887673 0.430124
O O14 0.500000 0.432901 0.718952
O O15 0.589673 0.500000 0.725694
O O16 0.430355 0.247469 0.716992
O O17 0.500000 0.810916 0.010297
#
# Coordination Sequence:
#
# PCOD9373946 Si02
#       7
#     8   8   8   8   8   8   8
#     4  10  20  34  55  80 109 151 189 235 287 344
#     4  10  20  36  57  80 108 145 192 226 267 337
#     4   9  19  35  54  81 114 150 196 245 298 359
#     4  10  20  31  50  78 106 139 175 220 278 331
#     4   9  18  33  51  72 100 137 180 218 259 321
#     4  10  21  34  50  80 114 145 185 228 287 339
#     4  10  19  32  52  80 115 149 184 236 298 352
#
# _framework density 20.381440000000001
#
# number of rings (size 3 to 8) (size 9 to 14) (size 15 to 20)
#    0.000    2.286    1.429    1.286    2.000    4.000 
#    0.000    1.429    0.000    1.714    0.000    0.000 
#    0.000    0.000    0.000    0.000    0.000    0.000 
#
# Total GULP energy -155971.663389 kJ/mol
# GULP energy per Si atom -5570.416550 kJ/mol
# Density = 2.033505 g / cm^3
# Si number density = 20.381440 Si / 1000 Ang^3
#
#
#
# Elastic Constant Matrix: (Units=GPa)
#
#
# Indices 1 2 3 4 5 6 
#
# 1 100.9377 42.4332 15.5840 0.0000 0.0000 0.0000
# 2 42.4332 86.0970 20.0140 0.0000 0.0000 0.0000
# 3 15.5840 20.0140 68.2430 0.0000 0.0000 0.0000
# 4 0.0000 0.0000 0.0000 19.9207 0.0000 0.0000
# 5 0.0000 0.0000 0.0000 0.0000 22.7780 0.0000
# 6 0.0000 0.0000 0.0000 0.0000 0.0000 19.5250
#
#
#
# Elastic Compliance Matrix: (Units=1/GPa)
#
#
# Indices 1 2 3 4 5 6 
#
# 1 0.012577 -0.005936 -0.001131 0.000000 0.000000 0.000000
# 2 -0.005936 0.015266 -0.003122 0.000000 0.000000 0.000000
# 3 -0.001131 -0.003122 0.015827 0.000000 0.000000 0.000000
# 4 0.000000 0.000000 0.000000 0.050199 0.000000 0.000000
# 5 0.000000 0.000000 0.000000 0.000000 0.043902 0.000000
# 6 0.000000 0.000000 0.000000 0.000000 0.000000 0.051216
#
#
# Mechanical properties :
#
#
# Convention : Reuss Voigt Hill
#
# Bulk Modulus (GPa) = 42.93123 45.70446 44.31785
# Shear Modulus (GPa) = 23.02775 24.26117 23.64446
#
# Velocity S-wave (km/s) = 3.36495 3.45390 3.40972
# Velocity P-wave (km/s) = 6.01721 6.19509 6.10680
#
# Compressibility (1/GPa) = 0.02329306
#
# Stress axis : x y z
#
# Youngs Moduli (GPa) = 79.50982 65.50562 63.18172
#
# Poissons Ratio (x) = 0.38882 0.07148
# Poissons Ratio (y) = 0.47194 0.19723
# Poissons Ratio (z) = 0.08995 0.20448
#
# Static dielectric constant tensor:
#      x y z
#    x 1.774240 0.000000 0.000000 
#    y 0.000000 1.745050 0.000000 
#    z 0.000000 0.000000 1.794940 
# 
# From -- ./inp_files/2459.got.cif
#   From: 2010.05.17/outbox.cif.g08.bks.cpg/sg44_2_cif.got.tgz:2459.got - 2010.06.03 19:37:08.
