data_PCOD9373922
_publ_section_title
;
Structure prediction by ZEFSAII (Michael W. Deem and Ramdas Pophale) SiO2 
 PCOD9373922
Probable space group: I M M 2
;
_chemical_formula_sum "Si O2"
_cell_formula_units_Z 64
_cell_length_a 18.022347
_cell_length_b 9.010549
_cell_length_c 21.225571
_cell_angle_alpha 90.000000
_cell_angle_beta 90.000000
_cell_angle_gamma 90.000000
_cell_volume 3446.846810
_symmetry_space_group_name_H-M "I M M 2"
_symmetry_group_IT_number 44
_symmetry_cell_setting 'orthorhombic'
loop_
_space_group_symop_operation_xyz
x,y,z
-x,-y,z
-x,y,z
x,-y,z
1/2+x,1/2+y,1/2+z
1/2-x,1/2-y,1/2+z
1/2-x,1/2+y,1/2+z
1/2+x,1/2-y,1/2+z
loop_
_atom_site_type_symbol
_atom_site_label
_atom_site_fract_x
_atom_site_fract_y
_atom_site_fract_z
Si Si1 0.581383 0.181028 0.554270
Si Si2 0.630722 0.822438 0.418489
Si Si3 0.800255 0.319334 0.155399
Si Si4 0.416758 0.823436 0.021548
Si Si5 0.377464 0.671101 0.290300
Si Si6 0.127058 0.179994 0.650676
Si Si7 0.306140 0.323424 0.922708
Si Si8 0.196711 0.672231 0.293832
O O1 0.500000 0.222837 0.577842
O O2 0.591481 0.229426 0.482191
O O3 0.646893 0.233081 0.599664
O O4 0.585218 0.000000 0.553468
O O5 0.600842 0.756576 0.353283
O O6 0.718321 0.786943 0.427466
O O7 0.624610 0.000000 0.414392
O O8 0.801349 0.500000 0.156282
O O9 0.714425 0.279144 0.146051
O O10 0.827351 0.273197 0.224858
O O11 0.500000 0.794211 0.996707
O O12 0.411194 0.753330 0.091082
O O13 0.406171 0.000000 0.025333
O O14 0.354957 0.753120 0.976294
O O15 0.400324 0.500000 0.295619
O O16 0.400113 0.725576 0.220659
O O17 0.286955 0.674797 0.290287
O O18 0.121278 0.000000 0.647611
O O19 0.313555 0.500000 0.928144
O O20 0.328530 0.266805 0.853315
O O21 0.175095 0.500000 0.302648
#
# Coordination Sequence:
#
# PCOD9373922 Si02
#       8
#     8   8   8   8   8   8   8   8
#     4   9  16  26  42  67  98 129 161 195 230 271
#     4   9  17  29  48  74 100 127 162 202 238 275
#     4   8  14  27  48  72  98 129 163 199 239 283
#     4  11  24  38  50  69  98 128 160 202 250 299
#     4   8  15  28  48  73  97 123 156 195 241 289
#     4   9  17  32  54  75  95 123 160 201 244 290
#     4  10  19  32  52  74  96 125 161 200 241 288
#     4   8  14  27  48  73 100 125 153 196 243 283
#
# _framework density 18.567696000000002
#
# number of rings (size 3 to 8) (size 9 to 14) (size 15 to 20)
#    0.000    3.000    0.000    3.000    0.000    4.000 
#    0.000    3.125    0.000    5.625    0.000    0.000 
#    0.000    0.000    0.000    0.000    0.000    0.000 
#
# Total GULP energy -178341.206955 kJ/mol
# GULP energy per Si atom -5573.162717 kJ/mol
# Density = 1.852544 g / cm^3
# Si number density = 18.567696 Si / 1000 Ang^3
#
#
#
# Elastic Constant Matrix: (Units=GPa)
#
#
# Indices 1 2 3 4 5 6 
#
# 1 42.8391 18.0548 27.2267 0.0000 0.0000 0.0000
# 2 18.0548 19.9336 18.1216 0.0000 0.0000 0.0000
# 3 27.2267 18.1216 101.6116 0.0000 0.0000 0.0000
# 4 0.0000 0.0000 0.0000 31.0672 0.0000 0.0000
# 5 0.0000 0.0000 0.0000 0.0000 -14.2224 0.0000
# 6 0.0000 0.0000 0.0000 0.0000 0.0000 10.9291
#
#
#
# Elastic Compliance Matrix: (Units=1/GPa)
#
#
# Indices 1 2 3 4 5 6 
#
# 1 0.039821 -0.031470 -0.005058 0.000000 0.000000 0.000000
# 2 -0.031470 0.084744 -0.006681 0.000000 0.000000 0.000000
# 3 -0.005058 -0.006681 0.012388 0.000000 0.000000 0.000000
# 4 0.000000 0.000000 0.000000 0.032188 0.000000 0.000000
# 5 0.000000 0.000000 0.000000 0.000000 -0.070311 0.000000
# 6 0.000000 0.000000 0.000000 0.000000 0.000000 0.091499
#
#
# Mechanical properties :
#
#
# Convention : Reuss Voigt Hill
#
# Bulk Modulus (GPa) = 19.78785 32.35449 26.07117
# Shear Modulus (GPa) = 17.03052 12.28684 14.65868
#
# Velocity S-wave (km/s) = 3.03184 2.57521 2.81280
# Velocity P-wave (km/s) = 4.78919 5.12886 4.96193
#
# Compressibility (1/GPa) = 0.05053607
#
# Stress axis : x y z
#
# Youngs Moduli (GPa) = 25.11267 11.80025 80.72268
#
# Poissons Ratio (x) = 0.37135 0.40826
# Poissons Ratio (y) = 0.79028 0.53932
# Poissons Ratio (z) = 0.12701 0.07884
#
# Static dielectric constant tensor:
#      x y z
#    x 1.639840 0.000000 0.000000 
#    y 0.000000 1.620900 0.000000 
#    z 0.000000 0.000000 1.653380 
# 
# From -- ./inp_files/24369.got.cif
#   From: 2010.05.17/outbox.cif.g08.bks.cpg/sg44_13_cif.got.tgz:24369.got - 2010.06.03 19:37:08.
