data_PCOD9373318
_publ_section_title
;
Structure prediction by ZEFSAII (Michael W. Deem and Ramdas Pophale) SiO2 
 PCOD9373318
Probable space group: I M M 2
;
_chemical_formula_sum "Si O2"
_cell_formula_units_Z 64
_cell_length_a 12.913106
_cell_length_b 13.812931
_cell_length_c 21.443796
_cell_angle_alpha 90.000000
_cell_angle_beta 90.000000
_cell_angle_gamma 90.000000
_cell_volume 3824.883621
_symmetry_space_group_name_H-M "I M M 2"
_symmetry_group_IT_number 44
_symmetry_cell_setting 'orthorhombic'
loop_
_space_group_symop_operation_xyz
x,y,z
-x,-y,z
-x,y,z
x,-y,z
1/2+x,1/2+y,1/2+z
1/2-x,1/2-y,1/2+z
1/2-x,1/2+y,1/2+z
1/2+x,1/2-y,1/2+z
loop_
_atom_site_type_symbol
_atom_site_label
_atom_site_fract_x
_atom_site_fract_y
_atom_site_fract_z
Si Si1 0.375834 0.112485 0.420050
Si Si2 0.618708 0.244029 0.300120
Si Si3 0.742754 0.887513 0.735468
Si Si4 0.678756 0.112593 0.186020
Si Si5 0.274926 0.770276 0.532672
Si Si6 0.382958 0.114316 0.042154
Si Si7 0.880415 0.230587 0.162366
Si Si8 0.115528 0.888018 0.614019
O O1 0.500000 0.111573 0.428399
O O2 0.355126 0.172553 0.357057
O O3 0.325404 0.170167 0.477172
O O4 0.341693 0.000000 0.416617
O O5 0.500000 0.279047 0.307577
O O6 0.702159 0.329824 0.291624
O O7 0.626101 0.179499 0.237495
O O8 0.650793 0.824065 0.704578
O O9 0.829598 0.884498 0.680917
O O10 0.717246 0.000000 0.747686
O O11 0.631011 0.126587 0.117177
O O12 0.797922 0.148126 0.181509
O O13 0.670031 0.000000 0.202262
O O14 0.212356 0.673816 0.513044
O O15 0.355204 0.750956 0.589338
O O16 0.185134 0.832658 0.565208
O O17 0.500000 0.144921 0.024560
O O18 0.373593 0.000000 0.029493
O O19 0.000000 0.205881 0.170616
O O20 0.000000 0.848729 0.617907
O O21 0.111488 0.000000 0.595778
#
# Coordination Sequence:
#
# PCOD9373318 Si02
#       8
#     8   8   8   8   8   8   8   8
#     4  10  21  35  50  69  94 125 159 193 229 273
#     4  10  19  31  49  72  97 124 154 189 231 280
#     4   9  18  31  48  72  99 124 152 191 238 284
#     4   9  17  29  48  74 100 125 153 189 237 288
#     4  10  18  30  47  67  95 129 163 195 229 273
#     4   9  17  29  48  75 102 125 152 192 242 290
#     4   9  18  30  46  70  97 125 159 197 235 276
#     4   9  16  26  44  72 100 122 148 188 239 287
#
# _framework density 16.732534000000001
#
# number of rings (size 3 to 8) (size 9 to 14) (size 15 to 20)
#    0.000    2.625    0.000    3.000    0.000    3.000 
#    0.000    0.625    0.000    7.875    0.000    0.000 
#    0.000    0.000    0.000    0.000    0.000    0.000 
#
# Total GULP energy -178322.652503 kJ/mol
# GULP energy per Si atom -5572.582891 kJ/mol
# Density = 1.669445 g / cm^3
# Si number density = 16.732534 Si / 1000 Ang^3
#
#
#
# Elastic Constant Matrix: (Units=GPa)
#
#
# Indices 1 2 3 4 5 6 
#
# 1 65.4807 8.5055 3.8460 0.0000 0.0000 0.0000
# 2 8.5055 79.8469 13.3032 0.0000 0.0000 0.0000
# 3 3.8460 13.3032 32.4580 0.0000 0.0000 0.0000
# 4 0.0000 0.0000 0.0000 21.8295 0.0000 0.0000
# 5 0.0000 0.0000 0.0000 0.0000 15.9449 0.0000
# 6 0.0000 0.0000 0.0000 0.0000 0.0000 21.0410
#
#
#
# Elastic Compliance Matrix: (Units=1/GPa)
#
#
# Indices 1 2 3 4 5 6 
#
# 1 0.015533 -0.001447 -0.001248 0.000000 0.000000 0.000000
# 2 -0.001447 0.013577 -0.005393 0.000000 0.000000 0.000000
# 3 -0.001248 -0.005393 0.033167 0.000000 0.000000 0.000000
# 4 0.000000 0.000000 0.000000 0.045810 0.000000 0.000000
# 5 0.000000 0.000000 0.000000 0.000000 0.062716 0.000000
# 6 0.000000 0.000000 0.000000 0.000000 0.000000 0.047526
#
#
# Mechanical properties :
#
#
# Convention : Reuss Voigt Hill
#
# Bulk Modulus (GPa) = 21.69101 25.45500 23.57300
# Shear Modulus (GPa) = 20.01036 21.90514 20.95775
#
# Velocity S-wave (km/s) = 3.46192 3.62212 3.54293
# Velocity P-wave (km/s) = 5.38251 5.72179 5.55474
#
# Compressibility (1/GPa) = 0.04610205
#
# Stress axis : x y z
#
# Youngs Moduli (GPa) = 64.37956 73.65611 30.15017
#
# Poissons Ratio (x) = 0.10656 0.03761
# Poissons Ratio (y) = 0.09314 0.16260
# Poissons Ratio (z) = 0.08032 0.39723
#
# Static dielectric constant tensor:
#      x y z
#    x 1.554230 0.000000 0.000000 
#    y 0.000000 1.607620 0.000000 
#    z 0.000000 0.000000 1.547940 
# 
# From -- ./inp_files/21455.got.cif
#   From: 2010.05.17/outbox.cif.g08.bks.cpg/sg44_11_cif.got.tgz:21455.got - 2010.06.03 19:37:08.
