data_PCOD9373942
_publ_section_title
;
Structure prediction by ZEFSAII (Michael W. Deem and Ramdas Pophale) SiO2 
 PCOD9373942
Probable space group: I M M 2
;
_chemical_formula_sum "Si O2"
_cell_formula_units_Z 64
_cell_length_a 7.992391
_cell_length_b 21.234585
_cell_length_c 20.318334
_cell_angle_alpha 90.000000
_cell_angle_beta 90.000000
_cell_angle_gamma 90.000000
_cell_volume 3448.328209
_symmetry_space_group_name_H-M "I M M 2"
_symmetry_group_IT_number 44
_symmetry_cell_setting 'orthorhombic'
loop_
_space_group_symop_operation_xyz
x,y,z
-x,-y,z
-x,y,z
x,-y,z
1/2+x,1/2+y,1/2+z
1/2-x,1/2-y,1/2+z
1/2-x,1/2+y,1/2+z
1/2+x,1/2-y,1/2+z
loop_
_atom_site_type_symbol
_atom_site_label
_atom_site_fract_x
_atom_site_fract_y
_atom_site_fract_z
Si Si1 0.797607 0.430362 0.771350
Si Si2 0.205005 0.569806 0.197515
Si Si3 0.198989 0.235190 0.920862
Si Si4 0.795458 0.380951 0.911844
Si Si5 0.193588 0.391326 0.055606
Si Si6 0.798231 0.311636 0.283062
Si Si7 0.800806 0.194032 0.195235
Si Si8 0.308889 0.748728 0.061123
O O1 0.741858 0.500000 0.750784
O O2 0.741254 0.416627 0.846390
O O3 0.741135 0.373562 0.725208
O O4 0.000000 0.429645 0.772019
O O5 0.251961 0.500000 0.220036
O O6 0.265842 0.580627 0.122601
O O7 0.261045 0.626504 0.244328
O O8 0.000000 0.572794 0.195820
O O9 0.253945 0.307452 0.906322
O O10 0.246020 0.193245 0.858690
O O11 0.000000 0.235916 0.928105
O O12 0.275422 0.218216 0.991370
O O13 0.000000 0.382763 0.913511
O O14 0.734964 0.405272 0.983065
O O15 0.200468 0.315306 0.063174
O O16 0.000000 0.411685 0.053578
O O17 0.738308 0.249168 0.244397
O O18 0.000000 0.311336 0.280989
O O19 0.728317 0.208004 0.123413
O O20 0.000000 0.200308 0.190499
O O21 0.500000 0.727382 0.063500
#
# Coordination Sequence:
#
# PCOD9373942 Si02
#       8
#     8   8   8   8   8   8   8   8
#     4  10  20  34  51  76 110 145 183 224 266 316
#     4   9  17  30  50  76 108 144 181 220 261 308
#     4  10  19  33  54  78 106 137 174 218 268 318
#     4   8  15  27  46  72 103 137 173 213 252 302
#     4   9  16  30  49  75 107 142 182 217 256 306
#     4  10  19  32  52  79 107 138 179 223 265 310
#     4  11  21  35  55  78 107 141 180 225 269 314
#     4  11  21  33  53  80 108 137 174 219 273 320
#
# _framework density 18.559718
#
# number of rings (size 3 to 8) (size 9 to 14) (size 15 to 20)
#    0.000    2.250    2.500    2.625    0.000    1.250 
#    0.000    2.500    0.000    2.250    0.000    1.750 
#    0.000    0.000    0.000    0.000    0.000    0.000 
#
# Total GULP energy -178542.300827 kJ/mol
# GULP energy per Si atom -5579.446901 kJ/mol
# Density = 1.851748 g / cm^3
# Si number density = 18.559718 Si / 1000 Ang^3
#
#
#
# Elastic Constant Matrix: (Units=GPa)
#
#
# Indices 1 2 3 4 5 6 
#
# 1 25.4068 2.4559 6.1633 0.0000 0.0000 0.0000
# 2 2.4559 91.0240 54.3306 0.0000 0.0000 0.0000
# 3 6.1633 54.3306 123.7212 0.0000 0.0000 0.0000
# 4 0.0000 0.0000 0.0000 22.0613 0.0000 0.0000
# 5 0.0000 0.0000 0.0000 0.0000 17.4577 0.0000
# 6 0.0000 0.0000 0.0000 0.0000 0.0000 12.0969
#
#
#
# Elastic Compliance Matrix: (Units=1/GPa)
#
#
# Indices 1 2 3 4 5 6 
#
# 1 0.039842 0.000149 -0.002050 0.000000 0.000000 0.000000
# 2 0.000149 0.014889 -0.006546 0.000000 0.000000 0.000000
# 3 -0.002050 -0.006546 0.011059 0.000000 0.000000 0.000000
# 4 0.000000 0.000000 0.000000 0.045328 0.000000 0.000000
# 5 0.000000 0.000000 0.000000 0.000000 0.057281 0.000000
# 6 0.000000 0.000000 0.000000 0.000000 0.000000 0.082666
#
#
# Mechanical properties :
#
#
# Convention : Reuss Voigt Hill
#
# Bulk Modulus (GPa) = 20.45136 40.67244 30.56190
# Shear Modulus (GPa) = 17.58954 22.13665 19.86309
#
# Velocity S-wave (km/s) = 3.08186 3.45733 3.27498
# Velocity P-wave (km/s) = 4.86898 6.15625 5.55006
#
# Compressibility (1/GPa) = 0.04889649
#
# Stress axis : x y z
#
# Youngs Moduli (GPa) = 25.09885 67.16293 90.42147
#
# Poissons Ratio (x) = -0.00998 0.18537
# Poissons Ratio (y) = -0.00373 0.59188
# Poissons Ratio (z) = 0.05145 0.43963
#
# Static dielectric constant tensor:
#      x y z
#    x 1.678240 0.000000 0.000000 
#    y 0.000000 1.625990 0.000000 
#    z 0.000000 0.000000 1.644470 
# 
# From -- ./inp_files/20785.got.cif
#   From: 2010.05.17/outbox.cif.g08.bks.cpg/sg44_11_cif.got.tgz:20785.got - 2010.06.03 19:37:08.
