data_PCOD9373810
_publ_section_title
;
Structure prediction by ZEFSAII (Michael W. Deem and Ramdas Pophale) SiO2 
 PCOD9373810
Probable space group: I M M 2
;
_chemical_formula_sum "Si O2"
_cell_formula_units_Z 64
_cell_length_a 18.297253
_cell_length_b 7.452866
_cell_length_c 21.138115
_cell_angle_alpha 90.000000
_cell_angle_beta 90.000000
_cell_angle_gamma 90.000000
_cell_volume 2882.540795
_symmetry_space_group_name_H-M "I M M 2"
_symmetry_group_IT_number 44
_symmetry_cell_setting 'orthorhombic'
loop_
_space_group_symop_operation_xyz
x,y,z
-x,-y,z
-x,y,z
x,-y,z
1/2+x,1/2+y,1/2+z
1/2-x,1/2-y,1/2+z
1/2-x,1/2+y,1/2+z
1/2+x,1/2-y,1/2+z
loop_
_atom_site_type_symbol
_atom_site_label
_atom_site_fract_x
_atom_site_fract_y
_atom_site_fract_z
Si Si1 0.378707 0.209669 0.278620
Si Si2 0.921182 0.791885 0.917373
Si Si3 0.290086 0.291767 0.498049
Si Si4 0.079391 0.718832 0.366786
Si Si5 0.218152 0.284294 0.135798
Si Si6 0.123197 0.720353 0.505186
Si Si7 0.706571 0.216697 0.774549
Si Si8 0.110745 0.293766 0.640973
O O1 0.411258 0.289743 0.342017
O O2 0.290487 0.225477 0.283279
O O3 0.404361 0.285538 0.210406
O O4 0.397404 0.000000 0.278821
O O5 0.849929 0.711490 0.951127
O O6 0.000000 0.711318 0.933448
O O7 0.922996 0.000000 0.937695
O O8 0.280164 0.500000 0.479711
O O9 0.316952 0.279018 0.570516
O O10 0.207714 0.217899 0.498629
O O11 0.081832 0.500000 0.365857
O O12 0.085429 0.771845 0.440114
O O13 0.148677 0.781169 0.326167
O O14 0.000000 0.773081 0.341373
O O15 0.223304 0.500000 0.133742
O O16 0.183701 0.233039 0.202978
O O17 0.300625 0.208556 0.137381
O O18 0.122548 0.500000 0.508783
O O19 0.090282 0.783044 0.572329
O O20 0.708227 0.000000 0.777895
O O21 0.085764 0.500000 0.642648
#
# Coordination Sequence:
#
# PCOD9373810 Si02
#       8
#     8   8   8   8   8   8   8   8
#     4  10  19  31  50  74  98 125 158 199 245 290
#     4  10  21  36  52  70  95 129 166 202 243 294
#     4   9  17  31  50  68  90 121 156 196 240 288
#     4   9  16  26  43  68  95 123 158 197 231 267
#     4   9  16  26  44  71  97 120 152 196 240 280
#     4   8  13  24  44  67  89 116 152 192 230 270
#     4   9  17  30  48  71  99 128 160 198 238 284
#     4   8  15  28  45  68  97 125 154 192 239 285
#
# _framework density 22.202635000000001
#
# number of rings (size 3 to 8) (size 9 to 14) (size 15 to 20)
#    0.000    3.000    0.000    2.250    0.000    3.750 
#    0.000    1.250    0.000    3.375    0.000    0.000 
#    0.000    0.000    0.000    0.000    0.000    0.000 
#
# Total GULP energy -178444.290623 kJ/mol
# GULP energy per Si atom -5576.384082 kJ/mol
# Density = 2.215210 g / cm^3
# Si number density = 22.202635 Si / 1000 Ang^3
#
#
#
# Elastic Constant Matrix: (Units=GPa)
#
#
# Indices 1 2 3 4 5 6 
#
# 1 85.0527 -0.1170 37.5771 0.0000 0.0000 0.0000
# 2 -0.1170 67.3697 -10.0134 0.0000 0.0000 0.0000
# 3 37.5771 -10.0134 102.0458 0.0000 0.0000 0.0000
# 4 0.0000 0.0000 0.0000 14.3922 0.0000 0.0000
# 5 0.0000 0.0000 0.0000 0.0000 -28.3995 0.0000
# 6 0.0000 0.0000 0.0000 0.0000 0.0000 -21.2057
#
#
#
# Elastic Compliance Matrix: (Units=1/GPa)
#
#
# Indices 1 2 3 4 5 6 
#
# 1 0.014080 -0.000757 -0.005259 0.000000 0.000000 0.000000
# 2 -0.000757 0.015104 0.001761 0.000000 0.000000 0.000000
# 3 -0.005259 0.001761 0.011909 0.000000 0.000000 0.000000
# 4 0.000000 0.000000 0.000000 0.069482 0.000000 0.000000
# 5 0.000000 0.000000 0.000000 0.000000 -0.035212 0.000000
# 6 0.000000 0.000000 0.000000 0.000000 0.000000 -0.047157
#
#
# Mechanical properties :
#
#
# Convention : Reuss Voigt Hill
#
# Bulk Modulus (GPa) = 30.69180 34.37352 32.53266
# Shear Modulus (GPa) = 105.09282 8.09218 56.59250
#
# Velocity S-wave (km/s) = 6.88740 1.91118 5.05415
# Velocity P-wave (km/s) = 8.78076 4.51503 6.98167
#
# Compressibility (1/GPa) = 0.03258199
#
# Stress axis : x y z
#
# Youngs Moduli (GPa) = 71.02341 66.20809 83.97087
#
# Poissons Ratio (x) = 0.05013 0.44161
# Poissons Ratio (y) = 0.05378 -0.14787
# Poissons Ratio (z) = 0.37352 -0.11659
#
# Static dielectric constant tensor:
#      x y z
#    x 1.805990 0.000000 0.000000 
#    y 0.000000 1.854820 0.000000 
#    z 0.000000 0.000000 1.842200 
# 
# From -- ./inp_files/23259.got.cif
#   From: 2010.05.17/outbox.cif.g08.bks.cpg/sg44_12_cif.got.tgz:23259.got - 2010.06.03 19:37:08.
