data_PCOD9373569
_publ_section_title
;
Structure prediction by ZEFSAII (Michael W. Deem and Ramdas Pophale) SiO2 
 PCOD9373569
Probable space group: I M M 2
;
_chemical_formula_sum "Si O2"
_cell_formula_units_Z 56
_cell_length_a 21.502792
_cell_length_b 8.521516
_cell_length_c 14.165938
_cell_angle_alpha 90.000000
_cell_angle_beta 90.000000
_cell_angle_gamma 90.000000
_cell_volume 2595.715284
_symmetry_space_group_name_H-M "I M M 2"
_symmetry_group_IT_number 44
_symmetry_cell_setting 'orthorhombic'
loop_
_space_group_symop_operation_xyz
x,y,z
-x,-y,z
-x,y,z
x,-y,z
1/2+x,1/2+y,1/2+z
1/2-x,1/2-y,1/2+z
1/2-x,1/2+y,1/2+z
1/2+x,1/2-y,1/2+z
loop_
_atom_site_type_symbol
_atom_site_label
_atom_site_fract_x
_atom_site_fract_y
_atom_site_fract_z
Si Si1 0.686126 0.678469 0.405090
Si Si2 0.572014 0.678930 0.673433
Si Si3 0.857801 0.192549 0.709233
Si Si4 0.000000 0.683179 0.482573
Si Si5 0.000000 0.184220 0.687321
Si Si6 0.122189 0.315773 0.356688
Si Si7 0.071978 0.323894 0.974417
Si Si8 0.709628 0.313575 0.015490
O O1 0.708134 0.500000 0.405188
O O2 0.685819 0.741481 0.297514
O O3 0.613241 0.692543 0.426791
O O4 0.719837 0.766503 0.491283
O O5 0.500000 0.688843 0.706449
O O6 0.582736 0.500000 0.641741
O O7 0.615665 0.723595 0.759623
O O8 0.577445 0.796211 0.586293
O O9 0.930621 0.246488 0.716376
O O10 0.824846 0.242745 0.610929
O O11 0.859239 0.000000 0.710019
O O12 0.000000 0.791637 0.574001
O O13 0.060023 0.709029 0.418299
O O14 0.000000 0.500000 0.513578
O O15 0.000000 0.000000 0.711372
O O16 0.128070 0.500000 0.336579
O O17 0.176251 0.256636 0.423753
O O18 0.092792 0.500000 0.949089
O O19 0.000000 0.307849 0.948821
O O20 0.704175 0.500000 0.015982
#
# Coordination Sequence:
#
# PCOD9373569 Si02
#       8
#     8   8   8   4   4   8   8   8
#     4  11  24  43  65  91 122 162 208 259 317 382
#     4  10  20  34  56  87 120 158 205 252 299 359
#     4   9  21  39  65  94 123 160 210 261 314 372
#     4  10  20  32  52  87 126 161 196 249 322 382
#     4  10  18  36  64  93 120 159 208 263 320 374
#     4  11  21  35  56  87 126 166 205 254 318 381
#     4  10  22  41  63  89 122 159 201 255 318 380
#     4  11  23  42  63  88 122 164 213 263 312 375
#
# _framework density 21.574014999999999
#
# number of rings (size 3 to 8) (size 9 to 14) (size 15 to 20)
#    0.000    1.714    2.143    2.143    1.000    3.143 
#    0.000    8.571    0.000    0.000    0.000    0.000 
#    0.000    0.000    0.000    0.000    0.000    0.000 
#
# Total GULP energy -156246.209626 kJ/mol
# GULP energy per Si atom -5580.221772 kJ/mol
# Density = 2.152491 g / cm^3
# Si number density = 21.574015 Si / 1000 Ang^3
#
#
#
# Elastic Constant Matrix: (Units=GPa)
#
#
# Indices 1 2 3 4 5 6 
#
# 1 60.5830 8.7887 14.2380 0.0000 0.0000 0.0000
# 2 8.7887 17.1047 -8.2183 0.0000 0.0000 0.0000
# 3 14.2380 -8.2183 57.2162 0.0000 0.0000 0.0000
# 4 0.0000 0.0000 0.0000 20.4566 0.0000 0.0000
# 5 0.0000 0.0000 0.0000 0.0000 21.3476 0.0000
# 6 0.0000 0.0000 0.0000 0.0000 0.0000 28.5299
#
#
#
# Elastic Compliance Matrix: (Units=1/GPa)
#
#
# Indices 1 2 3 4 5 6 
#
# 1 0.020133 -0.013697 -0.006977 0.000000 0.000000 0.000000
# 2 -0.013697 0.072116 0.013767 0.000000 0.000000 0.000000
# 3 -0.006977 0.013767 0.021191 0.000000 0.000000 0.000000
# 4 0.000000 0.000000 0.000000 0.048884 0.000000 0.000000
# 5 0.000000 0.000000 0.000000 0.000000 0.046844 0.000000
# 6 0.000000 0.000000 0.000000 0.000000 0.000000 0.035051
#
#
# Mechanical properties :
#
#
# Convention : Reuss Voigt Hill
#
# Bulk Modulus (GPa) = 10.03764 18.28009 14.15886
# Shear Modulus (GPa) = 17.16778 22.07316 19.62047
#
# Velocity S-wave (km/s) = 2.82399 3.20212 3.01898
# Velocity P-wave (km/s) = 3.91100 4.70776 4.32776
#
# Compressibility (1/GPa) = 0.09962502
#
# Stress axis : x y z
#
# Youngs Moduli (GPa) = 49.66937 13.86652 47.18919
#
# Poissons Ratio (x) = 0.18993 0.32926
# Poissons Ratio (y) = 0.68034 -0.64965
# Poissons Ratio (z) = 0.34657 -0.19090
#
# Static dielectric constant tensor:
#      x y z
#    x 1.132670 0.000000 0.000000 
#    y 0.000000 1.751170 0.000000 
#    z 0.000000 0.000000 1.786640 
# 
# From -- ./inp_files/19214.got.cif
#   From: 2010.05.17/outbox.cif.g08.bks.cpg/sg44_10_cif.got.tgz:19214.got - 2010.06.03 19:37:08.
