data_PCOD9373818
_publ_section_title
;
Structure prediction by ZEFSAII (Michael W. Deem and Ramdas Pophale) SiO2 
 PCOD9373818
Probable space group: I M M 2
;
_chemical_formula_sum "Si O2"
_cell_formula_units_Z 64
_cell_length_a 7.952629
_cell_length_b 16.892728
_cell_length_c 23.122477
_cell_angle_alpha 90.000000
_cell_angle_beta 90.000000
_cell_angle_gamma 90.000000
_cell_volume 3106.310523
_symmetry_space_group_name_H-M "I M M 2"
_symmetry_group_IT_number 44
_symmetry_cell_setting 'orthorhombic'
loop_
_space_group_symop_operation_xyz
x,y,z
-x,-y,z
-x,y,z
x,-y,z
1/2+x,1/2+y,1/2+z
1/2-x,1/2-y,1/2+z
1/2-x,1/2+y,1/2+z
1/2+x,1/2-y,1/2+z
loop_
_atom_site_type_symbol
_atom_site_label
_atom_site_fract_x
_atom_site_fract_y
_atom_site_fract_z
Si Si1 0.693301 0.409797 0.053980
Si Si2 0.798482 0.268772 0.400918
Si Si3 0.807805 0.588936 0.925974
Si Si4 0.806674 0.882403 0.111320
Si Si5 0.705448 0.583515 0.739116
Si Si6 0.296592 0.756277 0.774862
Si Si7 0.300229 0.286576 0.148805
Si Si8 0.300569 0.088080 0.981689
O O1 0.500000 0.386966 0.038238
O O2 0.691310 0.500000 0.072950
O O3 0.749206 0.357311 0.107077
O O4 0.798093 0.404837 0.995646
O O5 0.764310 0.174405 0.407475
O O6 0.739391 0.290161 0.336094
O O7 0.733600 0.333568 0.447729
O O8 0.000000 0.274668 0.402993
O O9 0.732397 0.500000 0.912394
O O10 0.000000 0.586962 0.906467
O O11 0.738435 0.915811 0.172047
O O12 0.795002 0.789493 0.124404
O O13 0.721873 0.901682 0.050710
O O14 0.000000 0.907251 0.106031
O O15 0.500000 0.585862 0.738516
O O16 0.757158 0.500000 0.766255
O O17 0.761146 0.664454 0.768645
O O18 0.500000 0.756001 0.774614
O O19 0.238694 0.797862 0.716180
O O20 0.500000 0.272384 0.143033
O O21 0.500000 0.085688 0.970316
O O22 0.232261 0.000000 0.965829
#
# Coordination Sequence:
#
# PCOD9373818 Si02
#       8
#     8   8   8   8   8   8   8   8
#     4   9  18  33  52  74 101 133 169 208 253 311
#     4  10  21  37  55  74 101 142 186 222 260 310
#     4  10  21  35  53  81 113 140 169 211 263 315
#     4  10  19  31  50  76 105 133 163 204 255 315
#     4   8  14  26  45  69  95 121 151 192 241 291
#     4   9  19  34  51  72  98 131 174 217 253 300
#     4  10  19  32  52  76 102 133 168 209 261 313
#     4  10  21  36  53  75 105 140 179 224 270 312
#
# _framework density 20.60322
#
# number of rings (size 3 to 8) (size 9 to 14) (size 15 to 20)
#    0.000    2.500    0.000    3.000    0.000    7.000 
#    0.000    1.875    0.000    4.125    0.000    0.000 
#    0.000    0.000    0.000    0.000    0.000    0.000 
#
# Total GULP energy -178295.681690 kJ/mol
# GULP energy per Si atom -5571.740053 kJ/mol
# Density = 2.055633 g / cm^3
# Si number density = 20.603220 Si / 1000 Ang^3
#
#
#
# Elastic Constant Matrix: (Units=GPa)
#
#
# Indices 1 2 3 4 5 6 
#
# 1 21.6692 11.9181 3.3769 0.0000 0.0000 0.0000
# 2 11.9181 70.1257 53.2209 0.0000 0.0000 0.0000
# 3 3.3769 53.2209 91.7234 0.0000 0.0000 0.0000
# 4 0.0000 0.0000 0.0000 -1.8195 0.0000 0.0000
# 5 0.0000 0.0000 0.0000 0.0000 19.2307 0.0000
# 6 0.0000 0.0000 0.0000 0.0000 0.0000 0.5730
#
#
#
# Elastic Compliance Matrix: (Units=1/GPa)
#
#
# Indices 1 2 3 4 5 6 
#
# 1 0.052582 -0.013343 0.005806 0.000000 0.000000 0.000000
# 2 -0.013343 0.028867 -0.016258 0.000000 0.000000 0.000000
# 3 0.005806 -0.016258 0.020122 0.000000 0.000000 0.000000
# 4 0.000000 0.000000 0.000000 -0.549599 0.000000 0.000001
# 5 0.000000 0.000000 0.000000 0.000000 0.052000 0.000000
# 6 0.000000 0.000000 0.000000 0.000001 0.000000 1.745251
#
#
# Mechanical properties :
#
#
# Convention : Reuss Voigt Hill
#
# Bulk Modulus (GPa) = 18.52500 35.61668 27.07084
# Shear Modulus (GPa) = 3.53405 11.26365 7.39885
#
# Velocity S-wave (km/s) = 1.31111 2.34068 1.89708
# Velocity P-wave (km/s) = 3.36197 4.96282 4.23866
#
# Compressibility (1/GPa) = 0.05398112
#
# Stress axis : x y z
#
# Youngs Moduli (GPa) = 19.01775 34.64202 49.69671
#
# Poissons Ratio (x) = 0.46223 -0.28855
# Poissons Ratio (y) = 0.25376 0.80798
# Poissons Ratio (z) = -0.11042 0.56321
#
# Static dielectric constant tensor:
#      x y z
#    x 1.769860 0.000000 0.000000 
#    y 0.000000 1.793010 0.000000 
#    z 0.000000 0.000000 1.731880 
# 
# From -- ./inp_files/25142.got.cif
#   From: 2010.05.17/outbox.cif.g08.bks.cpg/sg44_13_cif.got.tgz:25142.got - 2010.06.03 19:37:08.
