data_PCOD9373214
_publ_section_title
;
Structure prediction by ZEFSAII (Michael W. Deem and Ramdas Pophale) SiO2 
 PCOD9373214
Probable space group: I M M 2
;
_chemical_formula_sum "Si O2"
_cell_formula_units_Z 56
_cell_length_a 14.278692
_cell_length_b 8.695709
_cell_length_c 24.549243
_cell_angle_alpha 90.000000
_cell_angle_beta 90.000000
_cell_angle_gamma 90.000000
_cell_volume 3048.116264
_symmetry_space_group_name_H-M "I M M 2"
_symmetry_group_IT_number 44
_symmetry_cell_setting 'orthorhombic'
loop_
_space_group_symop_operation_xyz
x,y,z
-x,-y,z
-x,y,z
x,-y,z
1/2+x,1/2+y,1/2+z
1/2-x,1/2-y,1/2+z
1/2-x,1/2+y,1/2+z
1/2+x,1/2-y,1/2+z
loop_
_atom_site_type_symbol
_atom_site_label
_atom_site_fract_x
_atom_site_fract_y
_atom_site_fract_z
Si Si1 0.284292 0.816909 0.474580
Si Si2 0.300246 0.183835 0.743036
Si Si3 0.395743 0.314892 0.569804
Si Si4 0.291546 0.182625 0.870102
Si Si5 0.283405 0.815627 0.140903
Si Si6 0.000000 0.682645 0.359135
Si Si7 0.500000 0.321014 0.741433
Si Si8 0.604558 0.685574 0.045099
O O1 0.366549 0.741383 0.509788
O O2 0.275411 0.766982 0.412168
O O3 0.187209 0.765568 0.504165
O O4 0.291327 0.000000 0.478791
O O5 0.284713 0.228531 0.806439
O O6 0.224669 0.251685 0.701691
O O7 0.402242 0.245538 0.724301
O O8 0.301278 0.000000 0.740922
O O9 0.500000 0.261532 0.584976
O O10 0.395732 0.500000 0.570694
O O11 0.312252 0.263951 0.609736
O O12 0.400578 0.209939 0.887090
O O13 0.275143 0.000000 0.873226
O O14 0.366736 0.750036 0.104127
O O15 0.286388 0.000000 0.141388
O O16 0.000000 0.500000 0.341793
O O17 0.000000 0.790638 0.306351
O O18 0.500000 0.500000 0.726975
O O19 0.500000 0.735663 0.029364
O O20 0.605791 0.500000 0.046794
#
# Coordination Sequence:
#
# PCOD9373214 Si02
#       8
#     8   8   8   8   8   4   4   8
#     4  10  20  32  51  79 106 133 171 214 256 301
#     4  10  20  34  50  71 103 141 175 207 254 313
#     4   9  19  36  55  74 101 136 171 210 257 308
#     4   9  18  32  49  70 101 138 173 207 248 305
#     4  10  20  33  53  81 106 131 171 217 260 305
#     4   8  16  30  44  64  96 134 172 204 243 300
#     4  10  18  28  44  68  98 132 170 210 249 292
#     4   9  19  36  54  73 103 140 174 210 255 309
#
# _framework density 18.372001000000001
#
# number of rings (size 3 to 8) (size 9 to 14) (size 15 to 20)
#    0.000    2.571    0.000    2.786    2.000    4.571 
#    0.000    0.000    0.000    0.857    0.000    6.000 
#    0.000    0.000    0.000    0.000    0.000    0.000 
#
# Total GULP energy -156115.928599 kJ/mol
# GULP energy per Si atom -5575.568879 kJ/mol
# Density = 1.833019 g / cm^3
# Si number density = 18.372001 Si / 1000 Ang^3
#
#
#
# Elastic Constant Matrix: (Units=GPa)
#
#
# Indices 1 2 3 4 5 6 
#
# 1 37.5728 1.7402 0.3433 0.0000 0.0000 0.0000
# 2 1.7402 4.4280 -0.3117 0.0000 0.0000 0.0000
# 3 0.3433 -0.3117 63.1108 0.0000 0.0000 0.0000
# 4 0.0000 0.0000 0.0000 22.1486 0.0000 0.0000
# 5 0.0000 0.0000 0.0000 0.0000 25.1658 0.0000
# 6 0.0000 0.0000 0.0000 0.0000 0.0000 18.7264
#
#
#
# Elastic Compliance Matrix: (Units=1/GPa)
#
#
# Indices 1 2 3 4 5 6 
#
# 1 0.027111 -0.010669 -0.000200 0.000000 0.000000 0.000000
# 2 -0.010669 0.230113 0.001194 0.000000 0.000000 0.000000
# 3 -0.000200 0.001194 0.015852 0.000000 0.000000 0.000000
# 4 0.000000 0.000000 0.000000 0.045150 0.000000 0.000000
# 5 0.000000 0.000000 0.000000 0.000000 0.039736 0.000000
# 6 0.000000 0.000000 0.000000 0.000000 0.000000 0.053401
#
#
# Mechanical properties :
#
#
# Convention : Reuss Voigt Hill
#
# Bulk Modulus (GPa) = 3.94124 12.07279 8.00701
# Shear Modulus (GPa) = 9.70333 20.09749 14.90041
#
# Velocity S-wave (km/s) = 2.30066 3.31103 2.85096
# Velocity P-wave (km/s) = 3.03435 4.60465 3.89937
#
# Compressibility (1/GPa) = 0.25372754
#
# Stress axis : x y z
#
# Youngs Moduli (GPa) = 36.88547 4.34569 63.08294
#
# Poissons Ratio (x) = 0.04636 0.01263
# Poissons Ratio (y) = 0.39352 -0.07535
# Poissons Ratio (z) = 0.00738 -0.00519
#
# Static dielectric constant tensor:
#      x y z
#    x 1.643290 0.000000 0.000000 
#    y 0.000000 1.609890 0.000000 
#    z 0.000000 0.000000 1.650220 
# 
# From -- ./inp_files/24158.got.cif
#   From: 2010.05.17/outbox.cif.g08.bks.cpg/sg44_13_cif.got.tgz:24158.got - 2010.06.03 19:37:08.
