data_PCOD9373113
_publ_section_title
;
Structure prediction by ZEFSAII (Michael W. Deem and Ramdas Pophale) SiO2 
 PCOD9373113
Probable space group: I M M 2
;
_chemical_formula_sum "Si O2"
_cell_formula_units_Z 64
_cell_length_a 14.805795
_cell_length_b 22.891976
_cell_length_c 9.990805
_cell_angle_alpha 90.000000
_cell_angle_beta 90.000000
_cell_angle_gamma 90.000000
_cell_volume 3386.222541
_symmetry_space_group_name_H-M "I M M 2"
_symmetry_group_IT_number 44
_symmetry_cell_setting 'orthorhombic'
loop_
_space_group_symop_operation_xyz
x,y,z
-x,-y,z
-x,y,z
x,-y,z
1/2+x,1/2+y,1/2+z
1/2-x,1/2-y,1/2+z
1/2-x,1/2+y,1/2+z
1/2+x,1/2-y,1/2+z
loop_
_atom_site_type_symbol
_atom_site_label
_atom_site_fract_x
_atom_site_fract_y
_atom_site_fract_z
Si Si1 0.600741 0.934904 0.394620
Si Si2 0.140588 0.744742 0.075295
Si Si3 0.135012 0.309900 0.797884
Si Si4 0.852072 0.827834 0.299238
Si Si5 0.605194 0.430838 0.974594
Si Si6 0.353931 0.238440 0.022486
Si Si7 0.766349 0.432489 0.147268
Si Si8 0.604619 0.852851 0.799995
O O1 0.500000 0.934974 0.454284
O O2 0.605709 0.877702 0.302813
O O3 0.671782 0.927773 0.513961
O O4 0.614711 0.000000 0.333860
O O5 0.113450 0.803284 0.156815
O O6 0.248453 0.748543 0.051125
O O7 0.115488 0.694155 0.180078
O O8 0.105277 0.724445 0.931287
O O9 0.244565 0.315362 0.797639
O O10 0.105822 0.274510 0.667353
O O11 0.871744 0.893690 0.342240
O O12 0.889082 0.789170 0.423994
O O13 0.500000 0.424199 0.005694
O O14 0.624156 0.500000 0.955298
O O15 0.669949 0.409288 0.095279
O O16 0.368268 0.180259 0.935123
O O17 0.755845 0.500000 0.182586
O O18 0.820755 0.400486 0.262828
O O19 0.500000 0.872341 0.804729
#
# Coordination Sequence:
#
# PCOD9373113 Si02
#       8
#     8   8   8   8   8   8   8   8
#     4  10  19  30  49  77 107 143 186 228 268 320
#     4   9  18  32  53  77 105 146 188 229 271 329
#     4  10  17  32  53  78 112 150 188 228 275 330
#     4   9  17  32  52  79 111 142 181 233 283 339
#     4  10  20  34  56  86 114 141 185 245 299 344
#     4   9  20  34  53  78 113 151 186 229 284 330
#     4  10  19  34  56  81 110 146 190 234 278 332
#     4  11  21  35  55  83 116 151 187 230 282 339
#
# _framework density 18.900116000000001
#
# number of rings (size 3 to 8) (size 9 to 14) (size 15 to 20)
#    0.000    2.250    2.500    1.875    0.000    3.250 
#    0.000    0.625    0.000    3.000    0.000    0.875 
#    0.000   18.000    0.000    0.000    0.000    0.000 
#
# Total GULP energy -178282.227886 kJ/mol
# GULP energy per Si atom -5571.319621 kJ/mol
# Density = 1.885710 g / cm^3
# Si number density = 18.900116 Si / 1000 Ang^3
#
#
#
# Elastic Constant Matrix: (Units=GPa)
#
#
# Indices 1 2 3 4 5 6 
#
# 1 91.5956 17.5214 12.8293 0.0000 0.0000 0.0000
# 2 17.5214 68.7644 31.3907 0.0000 0.0000 0.0000
# 3 12.8293 31.3907 100.1870 -0.0001 0.0000 0.0001
# 4 0.0000 0.0000 -0.0001 25.3411 0.0000 0.0000
# 5 0.0000 0.0000 0.0000 0.0000 5.3092 0.0000
# 6 0.0000 0.0000 0.0001 0.0000 0.0000 2.7551
#
#
#
# Elastic Compliance Matrix: (Units=1/GPa)
#
#
# Indices 1 2 3 4 5 6 
#
# 1 0.011513 -0.002638 -0.000648 0.000000 0.000000 0.000000
# 2 -0.002638 0.017574 -0.005168 0.000000 0.000000 0.000000
# 3 -0.000648 -0.005168 0.011684 0.000000 0.000000 0.000000
# 4 0.000000 0.000000 0.000000 0.039462 0.000000 0.000000
# 5 0.000000 0.000000 0.000000 0.000000 0.188352 -0.000001
# 6 0.000000 0.000000 0.000000 0.000000 -0.000001 0.362966
#
#
# Mechanical properties :
#
#
# Convention : Reuss Voigt Hill
#
# Bulk Modulus (GPa) = 41.90708 42.66996 42.28852
# Shear Modulus (GPa) = 7.61717 19.93478 13.77598
#
# Velocity S-wave (km/s) = 2.00972 3.25121 2.70271
# Velocity P-wave (km/s) = 5.25417 6.05965 5.67123
#
# Compressibility (1/GPa) = 0.02386231
#
# Stress axis : x y z
#
# Youngs Moduli (GPa) = 86.85924 56.90248 85.58944
#
# Poissons Ratio (x) = 0.15010 0.05544
# Poissons Ratio (y) = 0.22912 0.44237
# Poissons Ratio (z) = 0.05627 0.29410
#
# Static dielectric constant tensor:
#      x y z
#    x 1.696420 0.000000 0.000000 
#    y 0.000000 1.710680 0.000000 
#    z 0.000000 0.000000 1.648650 
# 
# From -- ./inp_files/7577.got.cif
#   From: 2010.05.17/outbox.cif.g08.bks.cpg/sg44_4_cif.got.tgz:7577.got - 2010.06.03 19:37:08.
