data_PCOD9373198
_publ_section_title
;
Structure prediction by ZEFSAII (Michael W. Deem and Ramdas Pophale) SiO2 
 PCOD9373198
Probable space group: I M M 2
;
_chemical_formula_sum "Si O2"
_cell_formula_units_Z 56
_cell_length_a 7.936739
_cell_length_b 14.028214
_cell_length_c 32.989202
_cell_angle_alpha 90.000000
_cell_angle_beta 90.000000
_cell_angle_gamma 90.000000
_cell_volume 3672.960783
_symmetry_space_group_name_H-M "I M M 2"
_symmetry_group_IT_number 44
_symmetry_cell_setting 'orthorhombic'
loop_
_space_group_symop_operation_xyz
x,y,z
-x,-y,z
-x,y,z
x,-y,z
1/2+x,1/2+y,1/2+z
1/2-x,1/2-y,1/2+z
1/2-x,1/2+y,1/2+z
1/2+x,1/2-y,1/2+z
loop_
_atom_site_type_symbol
_atom_site_label
_atom_site_fract_x
_atom_site_fract_y
_atom_site_fract_z
Si Si1 0.500000 0.384193 0.260398
Si Si2 0.295900 0.107170 0.074999
Si Si3 0.189542 0.386313 0.203881
Si Si4 0.500000 0.384193 0.353025
Si Si5 0.700111 0.706078 0.492159
Si Si6 0.295900 0.892830 0.538423
Si Si7 0.200111 0.206078 0.621263
Si Si8 0.310458 0.113687 0.909542
O O1 0.500000 0.500000 0.261712
O O2 0.333640 0.356145 0.235394
O O3 0.500000 0.350076 0.306711
O O4 0.500000 0.109534 0.073969
O O5 0.241519 0.189453 0.106237
O O6 0.241869 0.000000 0.085005
O O7 0.233726 0.137597 0.030521
O O8 0.210974 0.500000 0.196397
O O9 0.212924 0.332666 0.161406
O O10 0.000000 0.371630 0.219471
O O11 0.500000 0.500000 0.351711
O O12 0.333640 0.356145 0.378028
O O13 0.500000 0.708921 0.484603
O O14 0.758481 0.810547 0.507185
O O15 0.787076 0.667334 0.452017
O O16 0.500000 0.890466 0.539453
O O17 0.233726 0.862403 0.582901
O O18 0.241869 0.000000 0.528417
O O19 0.000000 0.208921 0.628819
O O20 0.500000 0.128370 0.893951
O O21 0.289026 0.000000 0.917025
#
# Coordination Sequence:
#
# PCOD9373198 Si02
#       8
#     4   8   8   4   8   8   8   8
#     4   9  18  32  48  68  93 119 151 189 226 270
#     4   9  18  30  42  59  86 120 156 194 231 265
#     4  10  19  30  46  67  92 122 152 184 223 269
#     4   9  18  32  48  68  93 119 151 189 226 270
#     4  10  18  28  43  62  87 120 156 191 226 266
#     4   9  18  30  42  59  86 120 156 194 231 265
#     4  10  18  28  43  62  87 120 156 191 226 266
#     4  10  19  30  46  67  92 122 152 184 223 269
#
# _framework density 15.246556
#
# number of rings (size 3 to 8) (size 9 to 14) (size 15 to 20)
#    0.000    2.429    1.429    1.714    0.000    5.714 
#    0.000    2.857    0.000    0.000    0.000    0.000 
#    0.000    2.286    0.000    2.571    0.000    0.286 
#
# Total GULP energy -156118.116262 kJ/mol
# GULP energy per Si atom -5575.647009 kJ/mol
# Density = 1.521185 g / cm^3
# Si number density = 15.246556 Si / 1000 Ang^3
#
#
#
# Elastic Constant Matrix: (Units=GPa)
#
#
# Indices 1 2 3 4 5 6 
#
# 1 80.3363 28.8025 53.5414 0.0000 0.0000 0.0000
# 2 28.8025 70.4562 33.0608 0.0000 0.0000 0.0000
# 3 53.5414 33.0608 105.6596 0.0000 0.0000 0.0000
# 4 0.0000 0.0000 0.0000 16.0344 0.0000 0.0000
# 5 0.0000 0.0000 0.0000 0.0000 16.3436 0.0000
# 6 0.0000 0.0000 0.0000 0.0000 0.0000 13.3699
#
#
#
# Elastic Compliance Matrix: (Units=1/GPa)
#
#
# Indices 1 2 3 4 5 6 
#
# 1 0.019689 -0.003947 -0.008742 0.000000 0.000000 0.000000
# 2 -0.003947 0.017427 -0.003453 0.000000 0.000000 0.000000
# 3 -0.008742 -0.003453 0.014975 0.000000 0.000000 0.000000
# 4 0.000000 0.000000 0.000000 0.062366 0.000000 0.000000
# 5 0.000000 0.000000 0.000000 0.000000 0.061186 0.000000
# 6 0.000000 0.000000 0.000000 0.000000 0.000000 0.074795
#
#
# Mechanical properties :
#
#
# Convention : Reuss Voigt Hill
#
# Bulk Modulus (GPa) = 50.48717 54.14017 52.31367
# Shear Modulus (GPa) = 17.28170 18.55275 17.91722
#
# Velocity S-wave (km/s) = 3.37038 3.49212 3.43179
# Velocity P-wave (km/s) = 6.95209 7.20047 7.07737
#
# Compressibility (1/GPa) = 0.01980701
#
# Stress axis : x y z
#
# Youngs Moduli (GPa) = 50.78976 57.38269 66.77913
#
# Poissons Ratio (x) = 0.22647 0.58380
# Poissons Ratio (y) = 0.20045 0.23058
# Poissons Ratio (z) = 0.44401 0.19814
#
# Static dielectric constant tensor:
#      x y z
#    x 1.541890 0.000000 0.000000 
#    y 0.000000 1.507510 0.000000 
#    z 0.000000 0.000000 1.470960 
# 
# From -- ./inp_files/19671.got.cif
#   From: 2010.05.17/outbox.cif.g08.bks.cpg/sg44_10_cif.got.tgz:19671.got - 2010.06.03 19:37:08.
