data_PCOD9373788
_publ_section_title
;
Structure prediction by ZEFSAII (Michael W. Deem and Ramdas Pophale) SiO2 
 PCOD9373788
Probable space group: I M M 2
;
_chemical_formula_sum "Si O2"
_cell_formula_units_Z 64
_cell_length_a 14.910683
_cell_length_b 8.863642
_cell_length_c 28.850130
_cell_angle_alpha 90.000000
_cell_angle_beta 90.000000
_cell_angle_gamma 90.000000
_cell_volume 3812.918464
_symmetry_space_group_name_H-M "I M M 2"
_symmetry_group_IT_number 44
_symmetry_cell_setting 'orthorhombic'
loop_
_space_group_symop_operation_xyz
x,y,z
-x,-y,z
-x,y,z
x,-y,z
1/2+x,1/2+y,1/2+z
1/2-x,1/2-y,1/2+z
1/2-x,1/2+y,1/2+z
1/2+x,1/2-y,1/2+z
loop_
_atom_site_type_symbol
_atom_site_label
_atom_site_fract_x
_atom_site_fract_y
_atom_site_fract_z
Si Si1 0.213850 0.181229 0.873600
Si Si2 0.851325 0.671072 0.965674
Si Si3 0.395665 0.818102 0.184033
Si Si4 0.396030 0.681574 0.282851
Si Si5 0.708926 0.181742 0.093082
Si Si6 0.598343 0.682788 0.902188
Si Si7 0.903300 0.181617 0.059377
Si Si8 0.353410 0.329666 0.002283
O O1 0.156158 0.246295 0.916557
O O2 0.167101 0.226356 0.825490
O O3 0.314930 0.244620 0.878471
O O4 0.215818 0.000000 0.876848
O O5 0.884781 0.500000 0.960744
O O6 0.749177 0.662965 0.984380
O O7 0.899740 0.760334 0.006568
O O8 0.500000 0.776467 0.175665
O O9 0.368906 0.751177 0.233631
O O10 0.334163 0.766857 0.141312
O O11 0.391316 0.000000 0.186416
O O12 0.500000 0.725476 0.291730
O O13 0.393424 0.500000 0.279423
O O14 0.811989 0.233672 0.084748
O O15 0.709154 0.000000 0.092920
O O16 0.650008 0.236384 0.049380
O O17 0.500000 0.718180 0.882181
O O18 0.609278 0.500000 0.902253
O O19 0.598484 0.731007 0.956412
O O20 0.000000 0.228388 0.079685
O O21 0.900218 0.000000 0.058956
O O22 0.384835 0.500000 0.011782
#
# Coordination Sequence:
#
# PCOD9373788 Si02
#       8
#     8   8   8   8   8   8   8   8
#     4  10  19  31  49  72  96 123 157 197 239 283
#     4   9  17  29  44  64  92 124 157 192 228 268
#     4   9  18  32  49  69  91 114 145 189 238 283
#     4   9  19  35  52  70  92 118 150 190 238 290
#     4   9  17  29  45  66  92 120 150 188 232 274
#     4   9  18  32  48  68  98 133 165 196 229 269
#     4   9  17  29  45  65  92 127 161 190 224 270
#     4   8  15  27  42  62  89 121 155 188 220 258
#
# _framework density 16.785043999999999
#
# number of rings (size 3 to 8) (size 9 to 14) (size 15 to 20)
#    0.000    3.000    0.000    1.500    0.000    6.000 
#    0.000    1.250    0.000    0.750    0.000    1.750 
#    0.000    0.000    0.000    0.000    0.000    0.000 
#
# Total GULP energy -178176.718941 kJ/mol
# GULP energy per Si atom -5568.022467 kJ/mol
# Density = 1.674684 g / cm^3
# Si number density = 16.785044 Si / 1000 Ang^3
#
#
#
# Elastic Constant Matrix: (Units=GPa)
#
#
# Indices 1 2 3 4 5 6 
#
# 1 92.8093 20.9251 69.6327 0.0000 0.0000 0.0000
# 2 20.9251 18.0882 32.1426 0.0000 0.0000 0.0000
# 3 69.6327 32.1426 142.7227 0.0000 0.0000 0.0000
# 4 0.0000 0.0000 0.0000 26.7578 0.0000 0.0000
# 5 0.0000 0.0000 0.0000 0.0000 23.4852 0.0000
# 6 0.0000 0.0000 0.0000 0.0000 0.0000 13.5245
#
#
#
# Elastic Compliance Matrix: (Units=1/GPa)
#
#
# Indices 1 2 3 4 5 6 
#
# 1 0.017761 -0.008583 -0.006732 0.000000 0.000000 0.000000
# 2 -0.008583 0.096319 -0.017504 0.000000 0.000000 0.000000
# 3 -0.006732 -0.017504 0.014233 0.000000 0.000000 0.000000
# 4 0.000000 0.000000 0.000000 0.037372 0.000000 0.000000
# 5 0.000000 0.000000 0.000000 0.000000 0.042580 0.000000
# 6 0.000000 0.000000 0.000000 0.000000 0.000000 0.073940
#
#
# Mechanical properties :
#
#
# Convention : Reuss Voigt Hill
#
# Bulk Modulus (GPa) = 15.95567 55.44677 35.70122
# Shear Modulus (GPa) = 13.55979 21.48149 17.52064
#
# Velocity S-wave (km/s) = 2.84535 3.58131 3.23433
# Velocity P-wave (km/s) = 4.50791 7.08563 5.93833
#
# Compressibility (1/GPa) = 0.06267365
#
# Stress axis : x y z
#
# Youngs Moduli (GPa) = 56.30248 10.38214 70.25720
#
# Poissons Ratio (x) = 0.08911 0.47300
# Poissons Ratio (y) = 0.48326 1.22981
# Poissons Ratio (z) = 0.37905 0.18173
#
# Static dielectric constant tensor:
#      x y z
#    x 1.608080 0.000000 0.000000 
#    y 0.000000 1.573350 0.000000 
#    z 0.000000 0.000000 1.541830 
# 
# From -- ./inp_files/27535.got.cif
#   From: 2010.05.17/outbox.cif.g08.bks.cpg/sg44_14_cif.got.tgz:27535.got - 2010.06.03 19:37:08.
