data_PCOD9373066
_publ_section_title
;
Structure prediction by ZEFSAII (Michael W. Deem and Ramdas Pophale) SiO2 
 PCOD9373066
Probable space group: I M M 2
;
_chemical_formula_sum "Si O2"
_cell_formula_units_Z 56
_cell_length_a 30.308179
_cell_length_b 24.309287
_cell_length_c 5.132117
_cell_angle_alpha 90.000000
_cell_angle_beta 90.000000
_cell_angle_gamma 90.000000
_cell_volume 3781.190980
_symmetry_space_group_name_H-M "I M M 2"
_symmetry_group_IT_number 44
_symmetry_cell_setting 'orthorhombic'
loop_
_space_group_symop_operation_xyz
x,y,z
-x,-y,z
-x,y,z
x,-y,z
1/2+x,1/2+y,1/2+z
1/2-x,1/2-y,1/2+z
1/2-x,1/2+y,1/2+z
1/2+x,1/2-y,1/2+z
loop_
_atom_site_type_symbol
_atom_site_label
_atom_site_fract_x
_atom_site_fract_y
_atom_site_fract_z
Si Si1 0.594072 0.853868 0.954220
Si Si2 0.733059 0.678822 0.895761
Si Si3 0.691392 0.735834 0.395448
Si Si4 0.500000 0.147784 0.843995
Si Si5 0.000000 0.278068 0.844236
Si Si6 0.268730 0.062867 0.338893
Si Si7 0.595077 0.221063 0.453924
Si Si8 0.828131 0.562614 0.340026
O O1 0.546166 0.881087 0.905029
O O2 0.596320 0.804298 0.743488
O O3 0.633730 0.894472 0.896530
O O4 0.596316 0.828527 0.242499
O O5 0.709175 0.702364 0.641955
O O6 0.782425 0.705612 0.898116
O O7 0.736170 0.613203 0.893069
O O8 0.707611 0.703585 0.141651
O O9 0.639195 0.744506 0.407251
O O10 0.500000 0.170646 0.549720
O O11 0.500000 0.199224 0.049254
O O12 0.047354 0.250622 0.903180
O O13 0.307423 0.068158 0.553848
O O14 0.251595 0.000000 0.359893
O O15 0.289530 0.070483 0.052938
O O16 0.844259 0.500000 0.371571
#
# Coordination Sequence:
#
# PCOD9373066 Si02
#       8
#     8   8   8   4   4   8   8   8
#     4  10  17  28  43  58  81 106 139 176 209 251
#     4  10  19  30  42  63  88 112 140 169 206 255
#     4  10  19  28  43  64  89 113 135 168 212 253
#     4   8  16  26  39  58  76 104 136 170 211 250
#     4   8  16  28  42  60  81 104 141 172 196 248
#     4  10  20  33  47  61  81 111 145 178 209 243
#     4  10  18  29  45  63  82 112 140 168 209 250
#     4  10  19  29  43  61  77 102 142 182 215 245
#
# _framework density 14.810148
#
# number of rings (size 3 to 8) (size 9 to 14) (size 15 to 20)
#    0.000    2.286    0.000    4.286    0.000    2.286 
#    0.000    0.357    0.000    0.000    0.000    9.000 
#    0.000    0.000    0.000    3.857    0.000    0.000 
#
# Total GULP energy -156036.184276 kJ/mol
# GULP energy per Si atom -5572.720867 kJ/mol
# Density = 1.477644 g / cm^3
# Si number density = 14.810148 Si / 1000 Ang^3
#
#
#
# Elastic Constant Matrix: (Units=GPa)
#
#
# Indices 1 2 3 4 5 6 
#
# 1 94.1457 29.9652 4.4307 0.0000 0.0000 0.0000
# 2 29.9652 58.3869 4.3498 0.0000 0.0000 0.0000
# 3 4.4307 4.3498 66.6307 0.0000 0.0000 0.0000
# 4 0.0000 0.0000 0.0000 10.9508 0.0000 0.0000
# 5 0.0000 0.0000 0.0000 0.0000 12.1432 0.0000
# 6 0.0000 0.0000 0.0000 0.0000 0.0000 13.2497
#
#
#
# Elastic Compliance Matrix: (Units=1/GPa)
#
#
# Indices 1 2 3 4 5 6 
#
# 1 0.012707 -0.006490 -0.000421 0.000000 0.000000 0.000000
# 2 -0.006490 0.020526 -0.000908 0.000000 0.000000 0.000000
# 3 -0.000421 -0.000908 0.015095 0.000000 0.000000 0.000000
# 4 0.000000 0.000000 0.000000 0.091317 0.000000 0.000000
# 5 0.000000 0.000000 0.000000 0.000000 0.082351 0.000000
# 6 0.000000 0.000000 0.000000 0.000000 0.000000 0.075474
#
#
# Mechanical properties :
#
#
# Convention : Reuss Voigt Hill
#
# Bulk Modulus (GPa) = 30.59168 32.96164 31.77666
# Shear Modulus (GPa) = 15.43179 19.29657 17.36418
#
# Velocity S-wave (km/s) = 3.23146 3.61353 3.42782
# Velocity P-wave (km/s) = 5.88421 6.30195 6.09666
#
# Compressibility (1/GPa) = 0.03268863
#
# Stress axis : x y z
#
# Youngs Moduli (GPa) = 78.69410 48.71932 66.24533
#
# Poissons Ratio (x) = 0.31620 0.02791
# Poissons Ratio (y) = 0.51075 0.06018
# Poissons Ratio (z) = 0.03315 0.04426
#
# Static dielectric constant tensor:
#      x y z
#    x 1.514820 0.000000 0.000000 
#    y 0.000000 1.470850 0.000000 
#    z 0.000000 0.000000 1.494720 
# 
# From -- ./inp_files/2836.got.cif
#   From: 2010.05.17/outbox.cif.g08.bks.cpg/sg44_2_cif.got.tgz:2836.got - 2010.06.03 19:37:08.
