data_PCOD9373927
_publ_section_title
;
Structure prediction by ZEFSAII (Michael W. Deem and Ramdas Pophale) SiO2 
 PCOD9373927
Probable space group: I M M 2
;
_chemical_formula_sum "Si O2"
_cell_formula_units_Z 56
_cell_length_a 15.009043
_cell_length_b 7.665388
_cell_length_c 23.157607
_cell_angle_alpha 90.000000
_cell_angle_beta 90.000000
_cell_angle_gamma 90.000000
_cell_volume 2664.285884
_symmetry_space_group_name_H-M "I M M 2"
_symmetry_group_IT_number 44
_symmetry_cell_setting 'orthorhombic'
loop_
_space_group_symop_operation_xyz
x,y,z
-x,-y,z
-x,y,z
x,-y,z
1/2+x,1/2+y,1/2+z
1/2-x,1/2-y,1/2+z
1/2-x,1/2+y,1/2+z
1/2+x,1/2-y,1/2+z
loop_
_atom_site_type_symbol
_atom_site_label
_atom_site_fract_x
_atom_site_fract_y
_atom_site_fract_z
Si Si1 0.898190 0.212086 0.884850
Si Si2 0.213824 0.289664 0.553315
Si Si3 0.398775 0.789248 0.944744
Si Si4 0.101345 0.790778 0.666644
Si Si5 0.099470 0.794851 0.311491
Si Si6 0.789337 0.206828 0.776360
Si Si7 0.400563 0.713240 0.517566
O O1 0.830570 0.277210 0.836319
O O2 0.000000 0.256125 0.868603
O O3 0.892487 0.000000 0.886568
O O4 0.883608 0.267555 0.950924
O O5 0.215655 0.500000 0.550146
O O6 0.167752 0.226468 0.494078
O O7 0.154273 0.243363 0.607883
O O8 0.316273 0.229196 0.554995
O O9 0.500000 0.733851 0.958464
O O10 0.379718 0.734973 0.879288
O O11 0.396355 0.000000 0.945000
O O12 0.157942 0.722265 0.721104
O O13 0.000000 0.722957 0.665057
O O14 0.095608 0.000000 0.672676
O O15 0.183333 0.728936 0.275530
O O16 0.000000 0.720124 0.300806
O O17 0.094556 0.000000 0.301559
O O18 0.806201 0.000000 0.777597
O O19 0.500000 0.771178 0.534317
O O20 0.402282 0.500000 0.518006
#
# Coordination Sequence:
#
# PCOD9373927 Si02
#       7
#     8   8   8   8   8   8   8
#     4   8  13  24  47  77 102 123 154 201 253 301
#     4  10  19  32  52  76 102 136 178 217 251 293
#     4   9  17  30  50  76 103 132 170 214 257 303
#     4  10  22  38  54  75 103 133 167 209 257 307
#     4  10  21  35  51  75 106 136 167 207 256 306
#     4  10  19  33  54  76  99 131 170 209 250 301
#     4   8  14  25  44  73 103 126 155 201 252 297
#
# _framework density 21.018764999999998
#
# number of rings (size 3 to 8) (size 9 to 14) (size 15 to 20)
#    0.000    2.714    0.000    3.000    0.000    6.857 
#    0.000    2.143    0.000    4.286    0.000    2.000 
#    0.000    0.000    0.000    0.000    0.000    0.000 
#
# Total GULP energy -156240.314008 kJ/mol
# GULP energy per Si atom -5580.011215 kJ/mol
# Density = 2.097093 g / cm^3
# Si number density = 21.018765 Si / 1000 Ang^3
#
#
#
# Elastic Constant Matrix: (Units=GPa)
#
#
# Indices 1 2 3 4 5 6 
#
# 1 194.9020 4.2460 86.5223 0.0000 0.0000 0.0000
# 2 4.2460 33.0465 -0.5983 0.0000 0.0000 0.0000
# 3 86.5223 -0.5983 53.7842 0.0000 0.0000 0.0000
# 4 0.0000 0.0000 0.0000 13.4865 0.0000 0.0000
# 5 0.0000 0.0000 0.0000 0.0000 35.2499 0.0000
# 6 0.0000 0.0000 0.0000 0.0000 0.0000 8.6030
#
#
#
# Elastic Compliance Matrix: (Units=1/GPa)
#
#
# Indices 1 2 3 4 5 6 
#
# 1 0.018217 -0.002872 -0.029338 0.000000 0.000000 0.000000
# 2 -0.002872 0.030719 0.004962 0.000000 0.000000 0.000000
# 3 -0.029338 0.004962 0.065843 0.000000 0.000000 0.000000
# 4 0.000000 0.000000 0.000000 0.074148 0.000000 0.000000
# 5 0.000000 0.000000 0.000000 0.000000 0.028369 0.000000
# 6 0.000000 0.000000 0.000000 0.000000 0.000000 0.116239
#
#
# Mechanical properties :
#
#
# Convention : Reuss Voigt Hill
#
# Bulk Modulus (GPa) = 16.58817 51.34139 33.96478
# Shear Modulus (GPa) = 12.25111 24.23874 18.24493
#
# Velocity S-wave (km/s) = 2.41688 3.39956 2.94943
# Velocity P-wave (km/s) = 3.96202 6.31576 5.27193
#
# Compressibility (1/GPa) = 0.06028393
#
# Stress axis : x y z
#
# Youngs Moduli (GPa) = 54.89321 32.55288 15.18753
#
# Poissons Ratio (x) = 0.09349 0.44557
# Poissons Ratio (y) = 0.15764 -0.07535
# Poissons Ratio (z) = 1.61045 -0.16152
#
# Static dielectric constant tensor:
#      x y z
#    x 1.782780 0.000000 0.000000 
#    y 0.000000 1.801910 0.000000 
#    z 0.000000 0.000000 1.720670 
# 
# From -- ./inp_files/23062.got.cif
#   From: 2010.05.17/outbox.cif.g08.bks.cpg/sg44_12_cif.got.tgz:23062.got - 2010.06.03 19:37:08.
