data_PCOD9373636
_publ_section_title
;
Structure prediction by ZEFSAII (Michael W. Deem and Ramdas Pophale) SiO2 
 PCOD9373636
Probable space group: I M M 2
;
_chemical_formula_sum "Si O2"
_cell_formula_units_Z 56
_cell_length_a 8.874985
_cell_length_b 14.090138
_cell_length_c 29.955707
_cell_angle_alpha 90.000000
_cell_angle_beta 90.000000
_cell_angle_gamma 90.000000
_cell_volume 3745.954073
_symmetry_space_group_name_H-M "I M M 2"
_symmetry_group_IT_number 44
_symmetry_cell_setting 'orthorhombic'
loop_
_space_group_symop_operation_xyz
x,y,z
-x,-y,z
-x,y,z
x,-y,z
1/2+x,1/2+y,1/2+z
1/2-x,1/2-y,1/2+z
1/2-x,1/2+y,1/2+z
1/2+x,1/2-y,1/2+z
loop_
_atom_site_type_symbol
_atom_site_label
_atom_site_fract_x
_atom_site_fract_y
_atom_site_fract_z
Si Si1 0.817265 0.606247 0.853030
Si Si2 0.680372 0.109466 0.812758
Si Si3 0.318531 0.888958 0.173615
Si Si4 0.820437 0.387486 0.487218
Si Si5 0.181242 0.203665 0.900069
Si Si6 0.817894 0.283115 0.763649
Si Si7 0.173683 0.115219 0.080364
O O1 0.760525 0.500000 0.861210
O O2 0.772766 0.688330 0.887695
O O3 0.776436 0.644634 0.803790
O O4 0.000000 0.602710 0.853966
O O5 0.500000 0.119164 0.815755
O O6 0.752538 0.139530 0.860116
O O7 0.744996 0.183020 0.776596
O O8 0.716496 0.000000 0.802876
O O9 0.500000 0.885741 0.170064
O O10 0.272977 0.826788 0.216228
O O11 0.247969 0.855236 0.127030
O O12 0.277292 0.000000 0.180799
O O13 0.784782 0.500000 0.482269
O O14 0.743144 0.331437 0.447097
O O15 0.761105 0.355728 0.535700
O O16 0.000000 0.377424 0.484970
O O17 0.000000 0.197809 0.899106
O O18 0.000000 0.273779 0.764428
O O19 0.000000 0.144606 0.077960
O O20 0.178601 0.000000 0.080806
#
# Coordination Sequence:
#
# PCOD9373636 Si02
#       7
#     8   8   8   8   8   8   8
#     4   8  14  26  43  63  87 113 142 175 208 246
#     4  10  20  32  44  60  86 118 148 180 218 257
#     4   9  16  27  44  66  92 119 145 174 212 259
#     4  10  19  30  44  62  87 118 147 177 216 259
#     4  10  19  29  45  67  87 112 146 180 215 256
#     4   9  17  28  45  67  87 113 148 180 211 249
#     4   9  17  28  42  62  88 116 146 179 213 252
#
# _framework density 14.949462
#
# number of rings (size 3 to 8) (size 9 to 14) (size 15 to 20)
#    0.000    2.714    0.000    3.429    0.000    7.714 
#    0.000    0.000    0.000   14.143    0.000    1.000 
#    0.000    5.714    0.000    0.000    0.000    0.000 
#
# Total GULP energy -156029.744837 kJ/mol
# GULP energy per Si atom -5572.490887 kJ/mol
# Density = 1.491544 g / cm^3
# Si number density = 14.949462 Si / 1000 Ang^3
#
#
#
# Elastic Constant Matrix: (Units=GPa)
#
#
# Indices 1 2 3 4 5 6 
#
# 1 39.9362 39.0770 48.8341 0.0000 0.0000 0.0000
# 2 39.0770 101.2805 69.7479 0.0000 0.0000 0.0000
# 3 48.8341 69.7479 147.7455 0.0000 0.0000 0.0000
# 4 0.0000 0.0000 0.0000 23.6598 0.0000 0.0000
# 5 0.0000 0.0000 0.0000 0.0000 27.7652 0.0000
# 6 0.0000 0.0000 0.0000 0.0000 0.0000 13.9626
#
#
#
# Elastic Compliance Matrix: (Units=1/GPa)
#
#
# Indices 1 2 3 4 5 6 
#
# 1 0.049903 -0.011698 -0.010972 0.000000 0.000000 0.000000
# 2 -0.011698 0.017372 -0.004334 0.000000 0.000000 0.000000
# 3 -0.010972 -0.004334 0.012441 0.000000 0.000000 0.000000
# 4 0.000000 0.000000 0.000000 0.042266 0.000000 0.000000
# 5 0.000000 0.000000 0.000000 0.000000 0.036016 0.000000
# 6 0.000000 0.000000 0.000000 0.000000 0.000000 0.071620
#
#
# Mechanical properties :
#
#
# Convention : Reuss Voigt Hill
#
# Bulk Modulus (GPa) = 38.89969 67.14224 53.02096
# Shear Modulus (GPa) = 17.11183 21.83107 19.47145
#
# Velocity S-wave (km/s) = 3.38693 3.82557 3.61291
# Velocity P-wave (km/s) = 6.43213 8.03266 7.27654
#
# Compressibility (1/GPa) = 0.02570715
#
# Stress axis : x y z
#
# Youngs Moduli (GPa) = 20.03896 57.56402 80.37857
#
# Poissons Ratio (x) = 0.67339 0.88190
# Poissons Ratio (y) = 0.23442 0.34840
# Poissons Ratio (z) = 0.21987 0.24951
#
# Static dielectric constant tensor:
#      x y z
#    x 1.502160 0.000000 0.000000 
#    y 0.000000 1.487550 0.000000 
#    z 0.000000 0.000000 1.480670 
# 
# From -- ./inp_files/27217.got.cif
#   From: 2010.05.17/outbox.cif.g08.bks.cpg/sg44_14_cif.got.tgz:27217.got - 2010.06.03 19:37:08.
