data_PCOD9373978
_publ_section_title
;
Structure prediction by ZEFSAII (Michael W. Deem and Ramdas Pophale) SiO2 
 PCOD9373978
Probable space group: I M M 2
;
_chemical_formula_sum "Si O2"
_cell_formula_units_Z 64
_cell_length_a 8.173101
_cell_length_b 28.664678
_cell_length_c 12.972722
_cell_angle_alpha 90.000000
_cell_angle_beta 90.000000
_cell_angle_gamma 90.000000
_cell_volume 3039.240339
_symmetry_space_group_name_H-M "I M M 2"
_symmetry_group_IT_number 44
_symmetry_cell_setting 'orthorhombic'
loop_
_space_group_symop_operation_xyz
x,y,z
-x,-y,z
-x,y,z
x,-y,z
1/2+x,1/2+y,1/2+z
1/2-x,1/2-y,1/2+z
1/2-x,1/2+y,1/2+z
1/2+x,1/2-y,1/2+z
loop_
_atom_site_type_symbol
_atom_site_label
_atom_site_fract_x
_atom_site_fract_y
_atom_site_fract_z
Si Si1 0.192501 0.707076 0.913990
Si Si2 0.196856 0.447314 0.610889
Si Si3 0.191719 0.624195 0.780996
Si Si4 0.182640 0.181161 0.637831
Si Si5 0.697749 0.448625 0.945808
Si Si6 0.812448 0.070044 0.669791
Si Si7 0.303416 0.588935 0.390211
Si Si8 0.313217 0.805926 0.851397
O O1 0.257549 0.674196 0.820410
O O2 0.220250 0.761436 0.895094
O O3 0.000000 0.697240 0.923215
O O4 0.273917 0.693589 0.021908
O O5 0.258114 0.500000 0.633291
O O6 0.262525 0.406349 0.686412
O O7 0.236168 0.433847 0.493532
O O8 0.000000 0.448432 0.623825
O O9 0.215403 0.590537 0.879326
O O10 0.000000 0.631168 0.757261
O O11 0.181937 0.125433 0.649582
O O12 0.301276 0.198347 0.727419
O O13 0.000000 0.198487 0.662790
O O14 0.500000 0.439885 0.947216
O O15 0.724831 0.500000 0.900609
O O16 0.759018 0.448992 0.063863
O O17 0.739860 0.065017 0.783955
O O18 0.000000 0.052900 0.674921
O O19 0.500000 0.585219 0.389514
O O20 0.258906 0.643831 0.383052
O O21 0.500000 0.804232 0.885908
#
# Coordination Sequence:
#
# PCOD9373978 Si02
#       8
#     8   8   8   8   8   8   8   8
#     4  11  22  37  59  88 118 156 208 258 310 373
#     4  10  22  41  62  85 121 169 215 260 314 375
#     4  10  22  39  59  83 116 157 202 252 303 360
#     4  10  19  36  59  82 115 155 192 241 301 362
#     4  10  19  32  54  84 115 147 187 235 290 355
#     4   8  16  32  54  80 111 146 183 231 293 352
#     4  10  21  39  62  88 119 156 204 259 309 367
#     4  11  23  39  60  88 122 162 203 252 313 374
#
# _framework density 21.057893
#
# number of rings (size 3 to 8) (size 9 to 14) (size 15 to 20)
#    0.000    2.000    1.250    3.375    0.000    3.500 
#    0.000    5.625    0.000    0.000    0.000    0.000 
#    0.000    0.000    0.000    0.000    0.000    0.000 
#
# Total GULP energy -178531.992241 kJ/mol
# GULP energy per Si atom -5579.124758 kJ/mol
# Density = 2.100996 g / cm^3
# Si number density = 21.057893 Si / 1000 Ang^3
#
#
#
# Elastic Constant Matrix: (Units=GPa)
#
#
# Indices 1 2 3 4 5 6 
#
# 1 20.5028 -6.3259 -14.7961 -0.0010 0.0000 0.0000
# 2 -6.3259 53.7655 8.6112 -0.0022 0.0000 0.0000
# 3 -14.7961 8.6112 91.2043 -0.0076 0.0000 0.0001
# 4 -0.0010 -0.0022 -0.0076 210.8037 0.0002 0.0006
# 5 0.0000 0.0000 0.0000 0.0002 28.0041 0.0000
# 6 0.0000 0.0000 0.0001 0.0006 0.0000 3.2024
#
#
#
# Elastic Compliance Matrix: (Units=1/GPa)
#
#
# Indices 1 2 3 4 5 6 
#
# 1 0.056678 0.005276 0.008697 0.000001 0.000000 -0.000001
# 2 0.005276 0.019376 -0.000974 0.000000 0.000000 0.000000
# 3 0.008697 -0.000974 0.012467 0.000000 0.000000 -0.000001
# 4 0.000001 0.000000 0.000000 0.004744 0.000000 -0.000001
# 5 0.000000 0.000000 0.000000 0.000000 0.035709 0.000000
# 6 -0.000001 0.000000 -0.000001 -0.000001 0.000000 0.312269
#
#
# Mechanical properties :
#
#
# Convention : Reuss Voigt Hill
#
# Bulk Modulus (GPa) = 8.73220 15.60565 12.16893
# Shear Modulus (GPa) = 11.02735 60.26759 35.64747
#
# Velocity S-wave (km/s) = 2.29086 5.35557 4.11887
# Velocity P-wave (km/s) = 3.33963 6.75794 5.33024
#
# Compressibility (1/GPa) = 0.11451869
#
# Stress axis : x y z
#
# Youngs Moduli (GPa) = 17.64359 51.61038 80.21056
#
# Poissons Ratio (x) = -0.27228 -0.69757
# Poissons Ratio (y) = -0.09308 0.07809
# Poissons Ratio (z) = -0.15344 0.05024
#
# Static dielectric constant tensor:
#      x y z
#    x 1.738620 0.000000 0.000000 
#    y 0.000000 1.629550 0.000000 
#    z 0.000000 0.000000 1.764220 
# 
# From -- ./inp_files/11579.got.cif
#   From: 2010.05.17/outbox.cif.g08.bks.cpg/sg44_6_cif.got.tgz:11579.got - 2010.06.03 19:37:08.
