data_PCOD9373666
_publ_section_title
;
Structure prediction by ZEFSAII (Michael W. Deem and Ramdas Pophale) SiO2 
 PCOD9373666
Probable space group: I M M 2
;
_chemical_formula_sum "Si O2"
_cell_formula_units_Z 56
_cell_length_a 15.200289
_cell_length_b 7.382954
_cell_length_c 22.766394
_cell_angle_alpha 90.000000
_cell_angle_beta 90.000000
_cell_angle_gamma 90.000000
_cell_volume 2554.913819
_symmetry_space_group_name_H-M "I M M 2"
_symmetry_group_IT_number 44
_symmetry_cell_setting 'orthorhombic'
loop_
_space_group_symop_operation_xyz
x,y,z
-x,-y,z
-x,y,z
x,-y,z
1/2+x,1/2+y,1/2+z
1/2-x,1/2-y,1/2+z
1/2-x,1/2+y,1/2+z
1/2+x,1/2-y,1/2+z
loop_
_atom_site_type_symbol
_atom_site_label
_atom_site_fract_x
_atom_site_fract_y
_atom_site_fract_z
Si Si1 0.597957 0.720675 0.911710
Si Si2 0.099315 0.281434 0.983942
Si Si3 0.215739 0.721092 0.875518
Si Si4 0.281681 0.788373 0.156611
Si Si5 0.097564 0.212549 0.120826
Si Si6 0.598625 0.281762 0.047440
Si Si7 0.898913 0.278352 0.763806
O O1 0.500000 0.779940 0.893623
O O2 0.596854 0.500000 0.911050
O O3 0.682630 0.779049 0.874972
O O4 0.612044 0.774456 0.979928
O O5 0.101398 0.500000 0.984238
O O6 0.114259 0.223599 0.050776
O O7 0.000000 0.225986 0.967013
O O8 0.169602 0.220381 0.936152
O O9 0.215576 0.500000 0.875563
O O10 0.156643 0.777427 0.820735
O O11 0.183581 0.709474 0.152310
O O12 0.328923 0.777673 0.093591
O O13 0.347362 0.715140 0.205845
O O14 0.270872 0.000000 0.170946
O O15 0.000000 0.290010 0.131885
O O16 0.093065 0.000000 0.135623
O O17 0.500000 0.223314 0.065533
O O18 0.599815 0.500000 0.047362
O O19 0.901203 0.500000 0.763554
O O20 0.000000 0.218629 0.765328
#
# Coordination Sequence:
#
# PCOD9373666 Si02
#       7
#     8   8   8   8   8   8   8
#     4   8  14  24  38  59  86 112 138 170 210 256
#     4   9  16  26  44  69  89 107 139 180 217 257
#     4   9  15  24  40  61  85 111 138 173 216 254
#     4  10  19  30  45  64  87 118 152 182 214 255
#     4   9  18  31  44  61  89 120 146 177 220 264
#     4   9  17  29  46  68  93 118 142 175 222 266
#     4   9  17  28  41  59  83 109 140 179 217 251
#
# _framework density 21.918548000000001
#
# number of rings (size 3 to 8) (size 9 to 14) (size 15 to 20)
#    0.000    3.000    0.000    2.571    0.000    4.286 
#    0.000    0.714    0.000    5.143    0.000    2.000 
#    0.000    0.000    0.000    0.000    0.000    0.000 
#
# Total GULP energy -156294.652519 kJ/mol
# GULP energy per Si atom -5581.951876 kJ/mol
# Density = 2.186866 g / cm^3
# Si number density = 21.918548 Si / 1000 Ang^3
#
#
#
# Elastic Constant Matrix: (Units=GPa)
#
#
# Indices 1 2 3 4 5 6 
#
# 1 249.1315 9.6033 94.2368 0.0000 0.0000 0.0000
# 2 9.6033 74.7562 1.9755 0.0000 0.0000 0.0000
# 3 94.2368 1.9755 53.3196 0.0000 0.0000 0.0000
# 4 0.0000 0.0000 0.0000 6.1642 0.0000 0.0000
# 5 0.0000 0.0000 0.0000 0.0000 36.9646 0.0000
# 6 0.0000 0.0000 0.0000 0.0000 0.0000 -1.4923
#
#
#
# Elastic Compliance Matrix: (Units=1/GPa)
#
#
# Indices 1 2 3 4 5 6 
#
# 1 0.012184 -0.000997 -0.021496 0.000000 0.000000 0.000000
# 2 -0.000997 0.013472 0.001263 0.000000 0.000000 0.000000
# 3 -0.021496 0.001263 0.056700 0.000000 0.000000 0.000000
# 4 0.000000 0.000000 0.000000 0.162228 0.000000 0.000000
# 5 0.000000 0.000000 0.000000 0.000000 0.027053 0.000000
# 6 0.000000 0.000000 0.000000 0.000000 0.000000 -0.670084
#
#
# Mechanical properties :
#
#
# Convention : Reuss Voigt Hill
#
# Bulk Modulus (GPa) = 25.06575 65.42649 45.24612
# Shear Modulus (GPa) = -14.59049 26.42007 5.91479
#
# Velocity S-wave (km/s) = -2.58285 3.47562 1.64450
# Velocity P-wave (km/s) = 1.60182 6.78389 4.92885
#
# Compressibility (1/GPa) = 0.03989507
#
# Stress axis : x y z
#
# Youngs Moduli (GPa) = 82.07777 74.23063 17.63658
#
# Poissons Ratio (x) = 0.07401 0.37912
# Poissons Ratio (y) = 0.08184 -0.02228
# Poissons Ratio (z) = 1.76436 -0.09376
#
# Static dielectric constant tensor:
#      x y z
#    x 1.814330 0.000000 0.000000 
#    y 0.000000 1.874000 0.000000 
#    z 0.000000 0.000000 1.742950 
# 
# From -- ./inp_files/23052.got.cif
#   From: 2010.05.17/outbox.cif.g08.bks.cpg/sg44_12_cif.got.tgz:23052.got - 2010.06.03 19:37:08.
