data_PCOD9373774
_publ_section_title
;
Structure prediction by ZEFSAII (Michael W. Deem and Ramdas Pophale) SiO2 
 PCOD9373774
Probable space group: I M M 2
;
_chemical_formula_sum "Si O2"
_cell_formula_units_Z 64
_cell_length_a 8.543251
_cell_length_b 24.097033
_cell_length_c 19.719490
_cell_angle_alpha 90.000000
_cell_angle_beta 90.000000
_cell_angle_gamma 90.000000
_cell_volume 4059.592273
_symmetry_space_group_name_H-M "I M M 2"
_symmetry_group_IT_number 44
_symmetry_cell_setting 'orthorhombic'
loop_
_space_group_symop_operation_xyz
x,y,z
-x,-y,z
-x,y,z
x,-y,z
1/2+x,1/2+y,1/2+z
1/2-x,1/2-y,1/2+z
1/2-x,1/2+y,1/2+z
1/2+x,1/2-y,1/2+z
loop_
_atom_site_type_symbol
_atom_site_label
_atom_site_fract_x
_atom_site_fract_y
_atom_site_fract_z
Si Si1 0.689224 0.563239 0.603020
Si Si2 0.812783 0.833326 0.190609
Si Si3 0.187577 0.228178 0.607279
Si Si4 0.810223 0.063398 0.826956
Si Si5 0.313487 0.882469 0.965046
Si Si6 0.311289 0.226126 0.316587
Si Si7 0.310065 0.662806 0.235272
Si Si8 0.812610 0.756760 0.964856
O O1 0.500000 0.563358 0.599235
O O2 0.741173 0.500000 0.614326
O O3 0.734412 0.606773 0.661640
O O4 0.752646 0.586652 0.532110
O O5 0.736962 0.786026 0.142906
O O6 0.760696 0.819613 0.266945
O O7 0.000000 0.828172 0.185339
O O8 0.240347 0.180400 0.659924
O O9 0.259704 0.226225 0.532956
O O10 0.000000 0.227111 0.602311
O O11 0.752774 0.087514 0.898403
O O12 0.756192 0.105367 0.767877
O O13 0.000000 0.064137 0.827795
O O14 0.758918 0.000000 0.817742
O O15 0.500000 0.883698 0.963888
O O16 0.256499 0.818830 0.966003
O O17 0.500000 0.222095 0.312527
O O18 0.266435 0.286065 0.284665
O O19 0.264129 0.226723 0.395072
O O20 0.500000 0.661580 0.234246
O O21 0.000000 0.761964 0.963987
#
# Coordination Sequence:
#
# PCOD9373774 Si02
#       8
#     8   8   8   8   8   8   8   8
#     4  10  21  36  51  67  93 132 168 197 233 281
#     4  10  19  31  49  71  95 124 161 199 235 285
#     4  10  19  31  48  70  98 126 156 199 245 286
#     4  10  19  33  52  69  91 130 172 201 230 277
#     4  12  23  32  45  69 100 131 164 201 238 278
#     4   9  18  32  50  67  94 125 154 197 246 290
#     4   8  15  30  47  67  93 123 155 192 239 281
#     4  11  20  33  51  71  96 129 164 197 241 293
#
# _framework density 15.765129999999999
#
# number of rings (size 3 to 8) (size 9 to 14) (size 15 to 20)
#    0.000    2.000    2.500    3.375    0.000    3.500 
#    0.000    0.625    0.000    0.000    0.000    0.875 
#    0.000    5.000    0.000    0.000    0.000    0.000 
#
# Total GULP energy -178518.430070 kJ/mol
# GULP energy per Si atom -5578.700940 kJ/mol
# Density = 1.572925 g / cm^3
# Si number density = 15.765130 Si / 1000 Ang^3
#
#
#
# Elastic Constant Matrix: (Units=GPa)
#
#
# Indices 1 2 3 4 5 6 
#
# 1 17.4477 19.4499 16.0087 0.0000 0.0000 0.0000
# 2 19.4499 108.3460 78.6306 0.0000 0.0000 0.0000
# 3 16.0087 78.6306 140.6150 0.0000 0.0000 0.0000
# 4 0.0000 0.0000 0.0000 16.1585 0.0000 0.0000
# 5 0.0000 0.0000 0.0000 0.0000 25.6814 0.0000
# 6 0.0000 0.0000 0.0000 0.0000 0.0000 14.3363
#
#
#
# Elastic Compliance Matrix: (Units=1/GPa)
#
#
# Indices 1 2 3 4 5 6 
#
# 1 0.071874 -0.011721 -0.001629 0.000000 0.000000 0.000000
# 2 -0.011721 0.017445 -0.008421 0.000000 0.000000 0.000000
# 3 -0.001629 -0.008421 0.012006 0.000000 0.000000 0.000000
# 4 0.000000 0.000000 0.000000 0.061887 0.000000 0.000000
# 5 0.000000 0.000000 0.000000 0.000000 0.038939 0.000000
# 6 0.000000 0.000000 0.000000 0.000000 0.000000 0.069753
#
#
# Mechanical properties :
#
#
# Convention : Reuss Voigt Hill
#
# Bulk Modulus (GPa) = 17.30556 54.95415 36.12985
# Shear Modulus (GPa) = 14.93853 21.38987 18.16420
#
# Velocity S-wave (km/s) = 3.08160 3.68745 3.39805
# Velocity P-wave (km/s) = 4.86442 7.28447 6.19379
#
# Compressibility (1/GPa) = 0.05778491
#
# Stress axis : x y z
#
# Youngs Moduli (GPa) = 13.91322 57.32325 83.29309
#
# Poissons Ratio (x) = 0.67186 0.13566
# Poissons Ratio (y) = 0.16307 0.70138
# Poissons Ratio (z) = 0.02266 0.48270
#
# Static dielectric constant tensor:
#      x y z
#    x 1.540620 0.000000 0.000000 
#    y 0.000000 1.516190 0.000000 
#    z 0.000000 0.000000 1.528670 
# 
# From -- ./inp_files/20872.got.cif
#   From: 2010.05.17/outbox.cif.g08.bks.cpg/sg44_11_cif.got.tgz:20872.got - 2010.06.03 19:37:08.
