data_PCOD9373091
_publ_section_title
;
Structure prediction by ZEFSAII (Michael W. Deem and Ramdas Pophale) SiO2 
 PCOD9373091
Probable space group: I M M 2
;
_chemical_formula_sum "Si O2"
_cell_formula_units_Z 64
_cell_length_a 7.415380
_cell_length_b 20.559244
_cell_length_c 21.275450
_cell_angle_alpha 90.000000
_cell_angle_beta 90.000000
_cell_angle_gamma 90.000000
_cell_volume 3243.540364
_symmetry_space_group_name_H-M "I M M 2"
_symmetry_group_IT_number 44
_symmetry_cell_setting 'orthorhombic'
loop_
_space_group_symop_operation_xyz
x,y,z
-x,-y,z
-x,y,z
x,-y,z
1/2+x,1/2+y,1/2+z
1/2-x,1/2-y,1/2+z
1/2-x,1/2+y,1/2+z
1/2+x,1/2-y,1/2+z
loop_
_atom_site_type_symbol
_atom_site_label
_atom_site_fract_x
_atom_site_fract_y
_atom_site_fract_z
Si Si1 0.281177 0.071685 0.399860
Si Si2 0.292889 0.212475 0.205303
Si Si3 0.280774 0.928471 0.547446
Si Si4 0.780551 0.071699 0.010448
Si Si5 0.709798 0.209897 0.581172
Si Si6 0.782249 0.927764 0.157112
Si Si7 0.778888 0.292811 0.843284
Si Si8 0.279220 0.707959 0.461981
O O1 0.500000 0.071543 0.397542
O O2 0.234428 0.079455 0.473548
O O3 0.220140 0.134124 0.361231
O O4 0.220125 0.000000 0.378660
O O5 0.500000 0.232528 0.206397
O O6 0.216114 0.249779 0.145307
O O7 0.283197 0.134840 0.194327
O O8 0.215182 0.226270 0.274007
O O9 0.500000 0.931047 0.550885
O O10 0.217119 0.863653 0.582896
O O11 0.216559 0.000000 0.568158
O O12 0.720672 0.133553 0.970758
O O13 0.000000 0.071644 0.010070
O O14 0.721453 0.000000 0.989565
O O15 0.729093 0.079807 0.083778
O O16 0.500000 0.201905 0.565038
O O17 0.784226 0.251753 0.523087
O O18 0.000000 0.926456 0.158995
O O19 0.724051 0.000000 0.178340
O O20 0.724020 0.244123 0.898603
O O21 0.000000 0.293622 0.842234
O O22 0.500000 0.707633 0.462414
#
# Coordination Sequence:
#
# PCOD9373091 Si02
#       8
#     8   8   8   8   8   8   8   8
#     4   8  12  20  36  60  89 114 139 178 229 276
#     4  11  22  31  42  66 103 134 157 187 232 291
#     4   8  13  22  42  73  96 107 138 198 247 272
#     4   8  13  22  41  69  91 106 138 193 241 269
#     4  10  17  29  51  71  89 119 159 199 238 278
#     4   9  17  31  50  70  93 123 161 198 230 271
#     4   9  17  27  38  60  93 125 150 183 232 276
#     4   9  14  24  45  67  85 112 154 197 233 267
#
# _framework density 19.731527
#
# number of rings (size 3 to 8) (size 9 to 14) (size 15 to 20)
#    0.000    3.000    2.500    1.875    0.000    0.750 
#    0.000    1.250    0.000    2.625    0.000    1.750 
#    0.000    0.000    0.000    0.000    0.000    0.000 
#
# Total GULP energy -178455.480278 kJ/mol
# GULP energy per Si atom -5576.733759 kJ/mol
# Density = 1.968662 g / cm^3
# Si number density = 19.731527 Si / 1000 Ang^3
#
#
#
# Elastic Constant Matrix: (Units=GPa)
#
#
# Indices 1 2 3 4 5 6 
#
# 1 59.0344 1.3382 -2.6593 0.0000 0.0000 0.0000
# 2 1.3382 159.7156 80.7157 0.0000 0.0000 0.0000
# 3 -2.6593 80.7157 111.3903 0.0000 0.0000 0.0000
# 4 0.0000 0.0000 0.0000 22.7569 0.0000 0.0000
# 5 0.0000 0.0000 0.0000 0.0000 -1.5823 0.0000
# 6 0.0000 0.0000 0.0000 0.0000 0.0000 -5.8616
#
#
#
# Elastic Compliance Matrix: (Units=1/GPa)
#
#
# Indices 1 2 3 4 5 6 
#
# 1 0.016988 -0.000548 0.000803 0.000000 0.000000 0.000000
# 2 -0.000548 0.009896 -0.007184 0.000000 0.000000 0.000000
# 3 0.000803 -0.007184 0.014202 0.000000 0.000000 0.000000
# 4 0.000000 0.000000 0.000000 0.043943 0.000000 0.000000
# 5 0.000000 0.000000 0.000000 0.000000 -0.631985 0.000000
# 6 0.000000 0.000000 0.000000 0.000000 0.000000 -0.170601
#
#
# Mechanical properties :
#
#
# Convention : Reuss Voigt Hill
#
# Bulk Modulus (GPa) = 36.72745 54.32552 45.52649
# Shear Modulus (GPa) = -7.19817 19.77897 6.29040
#
# Velocity S-wave (km/s) = -1.91206 3.16951 1.78743
# Velocity P-wave (km/s) = 3.71206 6.40207 5.23287
#
# Compressibility (1/GPa) = 0.02722759
#
# Stress axis : x y z
#
# Youngs Moduli (GPa) = 58.86557 101.04657 70.41040
#
# Poissons Ratio (x) = 0.05537 -0.05651
# Poissons Ratio (y) = 0.03226 0.50584
# Poissons Ratio (z) = -0.04725 0.72594
#
# Static dielectric constant tensor:
#      x y z
#    x 1.772950 0.000000 0.000000 
#    y 0.000000 1.712000 0.000000 
#    z 0.000000 0.000000 1.658450 
# 
# From -- ./inp_files/23421.got.cif
#   From: 2010.05.17/outbox.cif.g08.bks.cpg/sg44_12_cif.got.tgz:23421.got - 2010.06.03 19:37:08.
