data_PCOD9373665
_publ_section_title
;
Structure prediction by ZEFSAII (Michael W. Deem and Ramdas Pophale) SiO2 
 PCOD9373665
Probable space group: I M M 2
;
_chemical_formula_sum "Si O2"
_cell_formula_units_Z 64
_cell_length_a 28.801535
_cell_length_b 7.842423
_cell_length_c 15.173126
_cell_angle_alpha 90.000000
_cell_angle_beta 90.000000
_cell_angle_gamma 90.000000
_cell_volume 3427.211939
_symmetry_space_group_name_H-M "I M M 2"
_symmetry_group_IT_number 44
_symmetry_cell_setting 'orthorhombic'
loop_
_space_group_symop_operation_xyz
x,y,z
-x,-y,z
-x,y,z
x,-y,z
1/2+x,1/2+y,1/2+z
1/2-x,1/2-y,1/2+z
1/2-x,1/2+y,1/2+z
1/2+x,1/2-y,1/2+z
loop_
_atom_site_type_symbol
_atom_site_label
_atom_site_fract_x
_atom_site_fract_y
_atom_site_fract_z
Si Si1 0.635954 0.290298 0.837390
Si Si2 0.360538 0.701061 0.274180
Si Si3 0.947182 0.208230 0.661796
Si Si4 0.221419 0.700628 0.648152
Si Si5 0.327047 0.295074 0.655436
Si Si6 0.173980 0.703179 0.958236
Si Si7 0.279043 0.300166 0.954491
Si Si8 0.052725 0.792039 0.460279
O O1 0.635547 0.500000 0.839408
O O2 0.641432 0.235426 0.736324
O O3 0.681706 0.230837 0.890248
O O4 0.590593 0.233216 0.890185
O O5 0.359311 0.500000 0.258113
O O6 0.407321 0.768458 0.228074
O O7 0.314984 0.773349 0.225898
O O8 0.356902 0.732518 0.378015
O O9 0.936003 0.258637 0.560948
O O10 0.000000 0.263281 0.681992
O O11 0.947672 0.000000 0.663695
O O12 0.224999 0.500000 0.630589
O O13 0.273546 0.764614 0.668622
O O14 0.205744 0.784185 0.556314
O O15 0.326224 0.500000 0.659861
O O16 0.341651 0.246427 0.557006
O O17 0.176100 0.500000 0.951496
O O18 0.226951 0.772906 0.947879
O O19 0.275051 0.500000 0.932772
O O20 0.000000 0.738130 0.440821
O O21 0.053069 0.000000 0.459679
#
# Coordination Sequence:
#
# PCOD9373665 Si02
#       8
#     8   8   8   8   8   8   8   8
#     4   9  15  25  44  66  89 118 151 185 223 270
#     4  11  20  30  49  72  93 122 158 192 235 290
#     4   8  15  28  46  70  97 120 147 188 233 278
#     4  10  19  30  44  66  97 127 156 192 230 270
#     4   9  18  32  47  64  90 126 163 195 228 269
#     4  10  20  33  47  65  92 123 157 198 237 273
#     4   9  17  30  47  67  92 124 158 189 226 273
#     4   8  13  22  39  66  96 118 138 175 228 275
#
# _framework density 18.674071000000001
#
# number of rings (size 3 to 8) (size 9 to 14) (size 15 to 20)
#    0.000    2.750    0.000    3.375    0.000    5.000 
#    0.000    0.625    0.000    2.250    0.000    3.500 
#    0.000    1.000    0.000    0.000    0.000    0.000 
#
# Total GULP energy -178479.349073 kJ/mol
# GULP energy per Si atom -5577.479659 kJ/mol
# Density = 1.863157 g / cm^3
# Si number density = 18.674071 Si / 1000 Ang^3
#
#
#
# Elastic Constant Matrix: (Units=GPa)
#
#
# Indices 1 2 3 4 5 6 
#
# 1 88.3897 6.5514 87.4757 0.0000 0.0000 0.0000
# 2 6.5514 18.6061 -1.3683 0.0000 0.0000 0.0000
# 3 87.4757 -1.3683 129.4229 0.0000 0.0000 0.0000
# 4 0.0000 0.0000 0.0000 17.6162 0.0000 0.0000
# 5 0.0000 0.0000 0.0000 0.0000 29.4289 0.0000
# 6 0.0000 0.0000 0.0000 0.0000 0.0000 6.4420
#
#
#
# Elastic Compliance Matrix: (Units=1/GPa)
#
#
# Indices 1 2 3 4 5 6 
#
# 1 0.038082 -0.015314 -0.025901 0.000000 0.000000 0.000000
# 2 -0.015314 0.059946 0.010984 0.000000 0.000000 0.000000
# 3 -0.025901 0.010984 0.025349 0.000000 0.000000 0.000000
# 4 0.000000 0.000000 0.000000 0.056766 0.000000 0.000000
# 5 0.000000 0.000000 0.000000 0.000000 0.033980 0.000000
# 6 0.000000 0.000000 0.000000 0.000000 0.000000 0.155232
#
#
# Mechanical properties :
#
#
# Convention : Reuss Voigt Hill
#
# Bulk Modulus (GPa) = 15.89434 46.85956 31.37695
# Shear Modulus (GPa) = 11.09170 20.28142 15.68656
#
# Velocity S-wave (km/s) = 2.43978 3.29914 2.90145
# Velocity P-wave (km/s) = 4.05791 6.29764 5.29749
#
# Compressibility (1/GPa) = 0.06291546
#
# Stress axis : x y z
#
# Youngs Moduli (GPa) = 26.25933 16.68173 39.44939
#
# Poissons Ratio (x) = 0.25546 1.02178
# Poissons Ratio (y) = 0.40213 -0.43332
# Poissons Ratio (z) = 0.68014 -0.18324
#
# Static dielectric constant tensor:
#      x y z
#    x 1.645730 0.000000 0.000000 
#    y 0.000000 1.692560 0.000000 
#    z 0.000000 0.000000 1.643860 
# 
# From -- ./inp_files/19690.got.cif
#   From: 2010.05.17/outbox.cif.g08.bks.cpg/sg44_10_cif.got.tgz:19690.got - 2010.06.03 19:37:08.
