data_PCOD9373154
_publ_section_title
;
Structure prediction by ZEFSAII (Michael W. Deem and Ramdas Pophale) SiO2 
 PCOD9373154
Probable space group: I M M 2
;
_chemical_formula_sum "Si O2"
_cell_formula_units_Z 64
_cell_length_a 8.780516
_cell_length_b 19.006184
_cell_length_c 27.097482
_cell_angle_alpha 90.000000
_cell_angle_beta 90.000000
_cell_angle_gamma 90.000000
_cell_volume 4522.138969
_symmetry_space_group_name_H-M "I M M 2"
_symmetry_group_IT_number 44
_symmetry_cell_setting 'orthorhombic'
loop_
_space_group_symop_operation_xyz
x,y,z
-x,-y,z
-x,y,z
x,-y,z
1/2+x,1/2+y,1/2+z
1/2-x,1/2-y,1/2+z
1/2-x,1/2+y,1/2+z
1/2+x,1/2-y,1/2+z
loop_
_atom_site_type_symbol
_atom_site_label
_atom_site_fract_x
_atom_site_fract_y
_atom_site_fract_z
Si Si1 0.817547 0.418419 0.834320
Si Si2 0.324860 0.206061 0.879918
Si Si3 0.683453 0.341395 0.929616
Si Si4 0.681240 0.665051 0.226057
Si Si5 0.816624 0.418120 0.136275
Si Si6 0.314735 0.918567 0.818734
Si Si7 0.824672 0.205777 0.277071
Si Si8 0.682692 0.917946 0.522016
O O1 0.776482 0.500000 0.826804
O O2 0.749057 0.390606 0.886065
O O3 0.755863 0.366941 0.791566
O O4 0.000000 0.412712 0.836845
O O5 0.500000 0.193460 0.894741
O O6 0.258715 0.261752 0.918585
O O7 0.259209 0.130910 0.863892
O O8 0.324673 0.249737 0.828424
O O9 0.500000 0.341396 0.925414
O O10 0.735053 0.370155 0.982109
O O11 0.500000 0.664913 0.228914
O O12 0.737922 0.633917 0.174367
O O13 0.748768 0.614032 0.268570
O O14 0.743121 0.743152 0.238223
O O15 0.775778 0.500000 0.146573
O O16 0.778430 0.403211 0.079100
O O17 0.000000 0.413052 0.141411
O O18 0.500000 0.912871 0.816248
O O19 0.275041 0.000000 0.824076
O O20 0.000000 0.194205 0.263237
O O21 0.500000 0.910620 0.516886
O O22 0.719654 0.000000 0.512434
#
# Coordination Sequence:
#
# PCOD9373154 Si02
#       8
#     8   8   8   8   8   8   8   8
#     4  10  19  29  42  62  88 114 140 172 209 247
#     4   7  13  25  38  55  77 101 132 168 201 235
#     4  10  18  27  41  59  82 113 144 172 206 250
#     4  11  20  28  41  61  85 110 136 169 210 251
#     4   9  18  32  46  58  77 108 142 174 211 254
#     4   9  16  27  43  59  78 109 145 174 201 239
#     4   9  17  30  45  59  79 108 142 174 202 241
#     4   9  18  31  44  58  78 105 139 179 216 247
#
# _framework density 14.152594000000001
#
# number of rings (size 3 to 8) (size 9 to 14) (size 15 to 20)
#    0.000    2.750    0.000    5.250    0.000    5.250 
#    0.000    1.875    0.000    0.000    0.000    0.000 
#    0.000    1.000    0.000    9.250    0.000    2.500 
#
# Total GULP energy -178206.202396 kJ/mol
# GULP energy per Si atom -5568.943825 kJ/mol
# Density = 1.412038 g / cm^3
# Si number density = 14.152594 Si / 1000 Ang^3
#
#
#
# Elastic Constant Matrix: (Units=GPa)
#
#
# Indices 1 2 3 4 5 6 
#
# 1 44.9174 40.5225 31.5835 0.0000 0.0000 0.0000
# 2 40.5225 117.3289 57.4280 0.0000 0.0000 0.0000
# 3 31.5835 57.4280 75.5756 0.0000 0.0000 0.0000
# 4 0.0000 0.0000 0.0000 27.3918 0.0000 0.0000
# 5 0.0000 0.0000 0.0000 0.0000 20.9629 0.0000
# 6 0.0000 0.0000 0.0000 0.0000 0.0000 19.6526
#
#
#
# Elastic Compliance Matrix: (Units=1/GPa)
#
#
# Indices 1 2 3 4 5 6 
#
# 1 0.035697 -0.008004 -0.008836 0.000000 0.000000 0.000000
# 2 -0.008004 0.015365 -0.008330 0.000000 0.000000 0.000000
# 3 -0.008836 -0.008330 0.023255 0.000000 0.000000 0.000000
# 4 0.000000 0.000000 0.000000 0.036507 0.000000 0.000000
# 5 0.000000 0.000000 0.000000 0.000000 0.047703 0.000000
# 6 0.000000 0.000000 0.000000 0.000000 0.000000 0.050884
#
#
# Mechanical properties :
#
#
# Convention : Reuss Voigt Hill
#
# Bulk Modulus (GPa) = 41.70928 55.21001 48.45964
# Shear Modulus (GPa) = 18.67462 20.82067 19.74765
#
# Velocity S-wave (km/s) = 3.63646 3.83973 3.73947
# Velocity P-wave (km/s) = 6.86782 7.66506 7.27737
#
# Compressibility (1/GPa) = 0.02397548
#
# Stress axis : x y z
#
# Youngs Moduli (GPa) = 28.01371 65.08350 43.00240
#
# Poissons Ratio (x) = 0.52093 0.37997
# Poissons Ratio (y) = 0.22422 0.35823
# Poissons Ratio (z) = 0.24753 0.54218
#
# Static dielectric constant tensor:
#      x y z
#    x 1.479510 0.000000 0.000000 
#    y 0.000000 1.482500 0.000000 
#    z 0.000000 0.000000 1.448760 
# 
# From -- ./inp_files/25227.got.cif
#   From: 2010.05.17/outbox.cif.g08.bks.cpg/sg44_13_cif.got.tgz:25227.got - 2010.06.03 19:37:08.
