data_PCOD9373814
_publ_section_title
;
Structure prediction by ZEFSAII (Michael W. Deem and Ramdas Pophale) SiO2 
 PCOD9373814
Probable space group: I M M 2
;
_chemical_formula_sum "Si O2"
_cell_formula_units_Z 64
_cell_length_a 8.696318
_cell_length_b 14.834033
_cell_length_c 28.860849
_cell_angle_alpha 90.000000
_cell_angle_beta 90.000000
_cell_angle_gamma 90.000000
_cell_volume 3723.091894
_symmetry_space_group_name_H-M "I M M 2"
_symmetry_group_IT_number 44
_symmetry_cell_setting 'orthorhombic'
loop_
_space_group_symop_operation_xyz
x,y,z
-x,-y,z
-x,y,z
x,-y,z
1/2+x,1/2+y,1/2+z
1/2-x,1/2-y,1/2+z
1/2-x,1/2+y,1/2+z
1/2+x,1/2-y,1/2+z
loop_
_atom_site_type_symbol
_atom_site_label
_atom_site_fract_x
_atom_site_fract_y
_atom_site_fract_z
Si Si1 0.684841 0.395051 0.620440
Si Si2 0.326285 0.644846 0.339735
Si Si3 0.683272 0.401050 0.901210
Si Si4 0.814832 0.212628 0.934469
Si Si5 0.186775 0.098441 0.740938
Si Si6 0.183821 0.394991 0.520175
Si Si7 0.674086 0.147558 0.306046
Si Si8 0.815516 0.210864 0.212349
O O1 0.500000 0.388576 0.615298
O O2 0.722148 0.500000 0.630000
O O3 0.762002 0.370013 0.571848
O O4 0.731283 0.334099 0.663894
O O5 0.500000 0.608866 0.344966
O O6 0.255564 0.651990 0.390736
O O7 0.255979 0.599051 0.294555
O O8 0.335595 0.748694 0.323213
O O9 0.500000 0.392461 0.904774
O O10 0.729671 0.500000 0.919544
O O11 0.758842 0.314908 0.926015
O O12 0.730804 0.398031 0.847029
O O13 0.000000 0.212464 0.932194
O O14 0.757819 0.168792 0.981680
O O15 0.254698 0.186806 0.716974
O O16 0.000000 0.107953 0.742295
O O17 0.222553 0.000000 0.720516
O O18 0.230194 0.500000 0.512637
O O19 0.000000 0.389800 0.517232
O O20 0.500000 0.112400 0.303690
O O21 0.749898 0.153538 0.255654
O O22 0.000000 0.211037 0.215447
#
# Coordination Sequence:
#
# PCOD9373814 Si02
#       8
#     8   8   8   8   8   8   8   8
#     4   9  19  36  55  74  97 126 162 205 256 313
#     4   7  13  26  43  65  91 122 162 201 232 268
#     4  10  20  33  50  74 106 141 175 213 254 294
#     4  10  19  32  53  77 102 135 172 208 249 301
#     4   9  17  30  48  70 100 138 175 207 240 286
#     4  10  21  36  54  77 103 129 161 206 259 311
#     4   9  17  30  47  68  97 133 172 208 242 289
#     4  10  19  31  50  75 102 132 167 210 258 304
#
# _framework density 17.190014000000001
#
# number of rings (size 3 to 8) (size 9 to 14) (size 15 to 20)
#    0.000    2.750    0.000    3.375    0.000    4.000 
#    0.000    3.125    0.000    0.750    0.000    3.500 
#    0.000    0.000    0.000    0.000    0.000    0.000 
#
# Total GULP energy -178250.567404 kJ/mol
# GULP energy per Si atom -5570.330231 kJ/mol
# Density = 1.715089 g / cm^3
# Si number density = 17.190014 Si / 1000 Ang^3
#
#
#
# Elastic Constant Matrix: (Units=GPa)
#
#
# Indices 1 2 3 4 5 6 
#
# 1 43.3325 29.4467 39.7958 0.0000 0.0000 0.0000
# 2 29.4467 95.7862 70.2119 0.0000 0.0000 0.0000
# 3 39.7958 70.2119 136.4329 0.0000 0.0000 0.0000
# 4 0.0000 0.0000 0.0000 23.4619 0.0000 0.0000
# 5 0.0000 0.0000 0.0000 0.0000 25.5889 0.0000
# 6 0.0000 0.0000 0.0000 0.0000 0.0000 14.2395
#
#
#
# Elastic Compliance Matrix: (Units=1/GPa)
#
#
# Indices 1 2 3 4 5 6 
#
# 1 0.032920 -0.004948 -0.007056 0.000000 0.000000 0.000000
# 2 -0.004948 0.017507 -0.007566 0.000000 0.000000 0.000000
# 3 -0.007056 -0.007566 0.013282 0.000000 0.000000 0.000000
# 4 0.000000 0.000000 0.000000 0.042622 0.000000 0.000000
# 5 0.000000 0.000000 0.000000 0.000000 0.039079 0.000000
# 6 0.000000 0.000000 0.000000 0.000000 0.000000 0.070227
#
#
# Mechanical properties :
#
#
# Convention : Reuss Voigt Hill
#
# Bulk Modulus (GPa) = 40.70361 61.60669 51.15515
# Shear Modulus (GPa) = 19.01373 21.73121 20.37247
#
# Velocity S-wave (km/s) = 3.32940 3.55938 3.44631
# Velocity P-wave (km/s) = 6.20564 7.26696 6.75717
#
# Compressibility (1/GPa) = 0.02456785
#
# Stress axis : x y z
#
# Youngs Moduli (GPa) = 30.37671 57.11892 75.29249
#
# Poissons Ratio (x) = 0.28264 0.53125
# Poissons Ratio (y) = 0.15031 0.56969
# Poissons Ratio (z) = 0.21433 0.43218
#
# Static dielectric constant tensor:
#      x y z
#    x 1.589930 0.000000 0.000000 
#    y 0.000000 1.605120 0.000000 
#    z 0.000000 0.000000 1.573920 
# 
# From -- ./inp_files/27347.got.cif
#   From: 2010.05.17/outbox.cif.g08.bks.cpg/sg44_14_cif.got.tgz:27347.got - 2010.06.03 19:37:08.
