data_PCOD9373826
_publ_section_title
;
Structure prediction by ZEFSAII (Michael W. Deem and Ramdas Pophale) SiO2 
 PCOD9373826
Probable space group: I M M 2
;
_chemical_formula_sum "Si O2"
_cell_formula_units_Z 64
_cell_length_a 8.993470
_cell_length_b 34.408942
_cell_length_c 12.142615
_cell_angle_alpha 90.000000
_cell_angle_beta 90.000000
_cell_angle_gamma 90.000000
_cell_volume 3757.602488
_symmetry_space_group_name_H-M "I M M 2"
_symmetry_group_IT_number 44
_symmetry_cell_setting 'orthorhombic'
loop_
_space_group_symop_operation_xyz
x,y,z
-x,-y,z
-x,y,z
x,-y,z
1/2+x,1/2+y,1/2+z
1/2-x,1/2-y,1/2+z
1/2-x,1/2+y,1/2+z
1/2+x,1/2-y,1/2+z
loop_
_atom_site_type_symbol
_atom_site_label
_atom_site_fract_x
_atom_site_fract_y
_atom_site_fract_z
Si Si1 0.821705 0.161998 0.526390
Si Si2 0.322439 0.733268 0.882057
Si Si3 0.170823 0.045456 0.439732
Si Si4 0.321083 0.685912 0.433854
Si Si5 0.821120 0.825744 0.186505
Si Si6 0.678258 0.044702 0.678742
Si Si7 0.178765 0.122118 0.759082
Si Si8 0.323515 0.112091 0.332503
O O1 0.785128 0.205949 0.487919
O O2 0.787894 0.147781 0.649348
O O3 0.735532 0.134822 0.440734
O O4 0.000000 0.157656 0.509286
O O5 0.500000 0.738824 0.881465
O O6 0.243715 0.774425 0.885599
O O7 0.282354 0.708289 0.773439
O O8 0.252832 0.050152 0.556833
O O9 0.255039 0.069691 0.347561
O O10 0.000000 0.058926 0.451039
O O11 0.170541 0.000000 0.414325
O O12 0.500000 0.687791 0.428174
O O13 0.277949 0.683153 0.561792
O O14 0.275492 0.648272 0.363155
O O15 0.743119 0.864395 0.230604
O O16 0.000000 0.830541 0.191994
O O17 0.500000 0.047711 0.673449
O O18 0.744175 0.080144 0.749518
O O19 0.715270 0.000000 0.713205
O O20 0.000000 0.116441 0.761551
O O21 0.500000 0.111584 0.330138
#
# Coordination Sequence:
#
# PCOD9373826 Si02
#       8
#     8   8   8   8   8   8   8   8
#     4   9  18  33  51  73 106 143 175 211 263 321
#     4   9  19  34  53  75 103 142 176 218 273 319
#     4  10  19  31  50  77 109 143 173 206 259 321
#     4  10  22  37  55  79 104 139 185 230 266 312
#     4   9  20  39  55  71 103 142 179 217 266 319
#     4  10  20  33  51  79 113 143 176 222 272 324
#     4  10  20  34  54  79 108 144 183 222 268 323
#     4  11  20  31  52  79 104 135 174 217 263 310
#
# _framework density 17.032138
#
# number of rings (size 3 to 8) (size 9 to 14) (size 15 to 20)
#    0.000    2.250    1.250    2.625    1.750    4.500 
#    0.000    0.000    0.000    0.750    0.000    1.750 
#    0.000    0.000    0.000    0.000    0.000    0.000 
#
# Total GULP energy -178482.927796 kJ/mol
# GULP energy per Si atom -5577.591494 kJ/mol
# Density = 1.699337 g / cm^3
# Si number density = 17.032138 Si / 1000 Ang^3
#
#
#
# Elastic Constant Matrix: (Units=GPa)
#
#
# Indices 1 2 3 4 5 6 
#
# 1 40.7564 42.3286 31.9310 0.0000 0.0000 0.0000
# 2 42.3286 134.9408 56.5570 0.0000 0.0000 0.0000
# 3 31.9310 56.5570 84.9111 0.0000 0.0000 0.0000
# 4 0.0000 0.0000 0.0000 23.0175 0.0000 0.0000
# 5 0.0000 0.0000 0.0000 0.0000 7.0472 0.0000
# 6 0.0000 0.0000 0.0000 0.0000 0.0000 32.4881
#
#
#
# Elastic Compliance Matrix: (Units=1/GPa)
#
#
# Indices 1 2 3 4 5 6 
#
# 1 0.041341 -0.008951 -0.009585 0.000000 0.000000 0.000000
# 2 -0.008951 0.012219 -0.004773 0.000000 0.000000 0.000000
# 3 -0.009585 -0.004773 0.018560 0.000000 0.000000 0.000000
# 4 0.000000 0.000000 0.000000 0.043445 0.000000 0.000000
# 5 0.000000 0.000000 0.000000 0.000000 0.141900 0.000000
# 6 0.000000 0.000000 0.000000 0.000000 0.000000 0.030780
#
#
# Mechanical properties :
#
#
# Convention : Reuss Voigt Hill
#
# Bulk Modulus (GPa) = 39.20920 58.02683 48.61802
# Shear Modulus (GPa) = 14.56184 21.16335 17.86260
#
# Velocity S-wave (km/s) = 2.92715 3.52881 3.24197
# Velocity P-wave (km/s) = 5.87324 7.12365 6.52845
#
# Compressibility (1/GPa) = 0.02550422
#
# Stress axis : x y z
#
# Youngs Moduli (GPa) = 24.18885 81.84185 53.87889
#
# Poissons Ratio (x) = 0.73256 0.51640
# Poissons Ratio (y) = 0.21651 0.25714
# Poissons Ratio (z) = 0.23184 0.39059
#
# Static dielectric constant tensor:
#      x y z
#    x 1.567450 0.000000 0.000000 
#    y 0.000000 1.592510 0.000000 
#    z 0.000000 0.000000 1.566100 
# 
# From -- ./inp_files/11564.got.cif
#   From: 2010.05.17/outbox.cif.g08.bks.cpg/sg44_6_cif.got.tgz:11564.got - 2010.06.03 19:37:08.
