data_PCOD9373436
_publ_section_title
;
Structure prediction by ZEFSAII (Michael W. Deem and Ramdas Pophale) SiO2 
 PCOD9373436
Probable space group: I M M 2
;
_chemical_formula_sum "Si O2"
_cell_formula_units_Z 58
_cell_length_a 7.361442
_cell_length_b 20.308517
_cell_length_c 16.612684
_cell_angle_alpha 90.000000
_cell_angle_beta 90.000000
_cell_angle_gamma 90.000000
_cell_volume 2483.595760
_symmetry_space_group_name_H-M "I M M 2"
_symmetry_group_IT_number 44
_symmetry_cell_setting 'orthorhombic'
loop_
_space_group_symop_operation_xyz
x,y,z
-x,-y,z
-x,y,z
x,-y,z
1/2+x,1/2+y,1/2+z
1/2-x,1/2-y,1/2+z
1/2-x,1/2+y,1/2+z
1/2+x,1/2-y,1/2+z
loop_
_atom_site_type_symbol
_atom_site_label
_atom_site_fract_x
_atom_site_fract_y
_atom_site_fract_z
Si Si1 0.781189 0.834687 0.503450
Si Si2 0.707213 0.389113 0.317502
Si Si3 0.221446 0.927524 0.644399
Si Si4 0.785460 0.110347 0.333489
Si Si5 0.785908 0.748892 0.249415
Si Si6 0.277561 0.574483 0.494952
Si Si7 0.000000 0.500000 0.786497
Si Si8 0.288205 0.704691 0.579572
O O1 0.715192 0.872035 0.583194
O O2 0.726991 0.876350 0.425739
O O3 0.724033 0.758639 0.508756
O O4 0.000000 0.833942 0.502611
O O5 0.500000 0.413613 0.320398
O O6 0.787675 0.418261 0.235403
O O7 0.705320 0.311108 0.299994
O O8 0.784115 0.408804 0.403854
O O9 0.000000 0.922968 0.646496
O O10 0.268351 0.000000 0.614335
O O11 0.767260 0.181479 0.292529
O O12 0.659003 0.057320 0.292214
O O13 0.000000 0.092205 0.331645
O O14 0.709971 0.760887 0.159517
O O15 0.000000 0.732775 0.244041
O O16 0.500000 0.576580 0.495556
O O17 0.224332 0.500000 0.517213
O O18 0.214804 0.633965 0.552388
O O19 0.500000 0.693615 0.598427
#
# Coordination Sequence:
#
# PCOD9373436 Si02
#       8
#     8   8   8   8   8   8   2   8
#     4  10  20  36  58  85 120 162 197 248 306 367
#     4  10  18  31  57  85 112 146 195 252 297 357
#     4   9  17  29  49  80 115 154 195 241 302 363
#     4  10  24  43  63  91 126 164 212 257 316 379
#     4  10  21  38  57  83 119 159 199 254 306 361
#     4   9  18  33  55  85 114 144 190 246 301 356
#     4  12  26  44  68  94 120 172 206 268 316 370
#     4  10  20  35  58  86 118 156 204 252 301 366
#
# _framework density 23.353237
#
# number of rings (size 3 to 8) (size 9 to 14) (size 15 to 20)
#    0.000    2.207    1.379    1.448    2.897    1.655 
#    1.241    0.000    0.000    3.724    0.000    0.000 
#    0.000    0.000    0.000    0.000    0.000    0.000 
#
# Total GULP energy -161788.474545 kJ/mol
# GULP energy per Si atom -5578.912915 kJ/mol
# Density = 2.330008 g / cm^3
# Si number density = 23.353237 Si / 1000 Ang^3
#
#
#
# Elastic Constant Matrix: (Units=GPa)
#
#
# Indices 1 2 3 4 5 6 
#
# 1 92.8236 11.1467 -1.6622 0.0000 0.0000 0.0000
# 2 11.1467 136.1416 -8.2447 0.0000 0.0000 0.0000
# 3 -1.6622 -8.2447 14.7876 0.0000 0.0000 0.0000
# 4 0.0000 0.0000 0.0000 16.2700 0.0000 0.0000
# 5 0.0000 0.0000 0.0000 0.0000 12.8983 0.0000
# 6 0.0000 0.0000 0.0000 0.0000 0.0000 6.7260
#
#
#
# Elastic Compliance Matrix: (Units=1/GPa)
#
#
# Indices 1 2 3 4 5 6 
#
# 1 0.010888 -0.000846 0.000752 0.000000 0.000000 0.000000
# 2 -0.000846 0.007668 0.004180 0.000000 0.000000 0.000000
# 3 0.000752 0.004180 0.070039 0.000000 0.000000 0.000000
# 4 0.000000 0.000000 0.000000 0.061463 0.000000 0.000000
# 5 0.000000 0.000000 0.000000 0.000000 0.077530 0.000000
# 6 0.000000 0.000000 0.000000 0.000000 0.000000 0.148677
#
#
# Mechanical properties :
#
#
# Convention : Reuss Voigt Hill
#
# Bulk Modulus (GPa) = 10.33403 27.35916 18.84659
# Shear Modulus (GPa) = 12.48916 23.34641 17.91778
#
# Velocity S-wave (km/s) = 2.31507 3.16525 2.77293
# Velocity P-wave (km/s) = 3.40305 5.00991 4.28252
#
# Compressibility (1/GPa) = 0.09676771
#
# Stress axis : x y z
#
# Youngs Moduli (GPa) = 91.84276 130.41727 14.27771
#
# Poissons Ratio (x) = 0.11032 -0.01074
# Poissons Ratio (y) = 0.07769 -0.05968
# Poissons Ratio (z) = -0.06909 -0.54514
#
# Static dielectric constant tensor:
#      x y z
#    x 1.924640 0.000000 0.000000 
#    y 0.000000 1.858720 0.000000 
#    z 0.000000 0.000000 1.905260 
# 
# From -- ./inp_files/20550.got.cif
#   From: 2010.05.17/outbox.cif.g08.bks.cpg/sg44_11_cif.got.tgz:20550.got - 2010.06.03 19:37:08.
