data_PCOD9373368
_publ_section_title
;
Structure prediction by ZEFSAII (Michael W. Deem and Ramdas Pophale) SiO2 
 PCOD9373368
Probable space group: I M M 2
;
_chemical_formula_sum "Si O2"
_cell_formula_units_Z 56
_cell_length_a 8.013226
_cell_length_b 22.099241
_cell_length_c 14.220544
_cell_angle_alpha 90.000000
_cell_angle_beta 90.000000
_cell_angle_gamma 90.000000
_cell_volume 2518.262278
_symmetry_space_group_name_H-M "I M M 2"
_symmetry_group_IT_number 44
_symmetry_cell_setting 'orthorhombic'
loop_
_space_group_symop_operation_xyz
x,y,z
-x,-y,z
-x,y,z
x,-y,z
1/2+x,1/2+y,1/2+z
1/2-x,1/2-y,1/2+z
1/2-x,1/2+y,1/2+z
1/2+x,1/2-y,1/2+z
loop_
_atom_site_type_symbol
_atom_site_label
_atom_site_fract_x
_atom_site_fract_y
_atom_site_fract_z
Si Si1 0.799363 0.861766 0.889620
Si Si2 0.297357 0.000000 0.122126
Si Si3 0.301009 0.116798 0.241814
Si Si4 0.199560 0.708312 0.578421
Si Si5 0.689977 0.931691 0.631763
Si Si6 0.191435 0.931654 0.427847
Si Si7 0.305080 0.500000 0.408126
Si Si8 0.810487 0.811864 0.701938
O O1 0.733383 0.817494 0.806328
O O2 0.000000 0.865517 0.879087
O O3 0.736045 0.932176 0.881901
O O4 0.767803 0.829126 0.989732
O O5 0.249542 0.941537 0.181623
O O6 0.500000 0.000000 0.109137
O O7 0.213434 0.000000 0.021085
O O8 0.500000 0.113379 0.255225
O O9 0.263558 0.172301 0.174651
O O10 0.221448 0.114464 0.343958
O O11 0.260096 0.774745 0.612300
O O12 0.000000 0.709641 0.561699
O O13 0.500000 0.922220 0.663839
O O14 0.696662 0.925057 0.519169
O O15 0.808347 0.881664 0.673217
O O16 0.741103 0.000000 0.655188
O O17 0.000000 0.928448 0.459460
O O18 0.221723 0.000000 0.390213
O O19 0.500000 0.500000 0.381008
O O20 0.000000 0.788781 0.713400
#
# Coordination Sequence:
#
# PCOD9373368 Si02
#       8
#     8   4   8   8   8   8   4   8
#     4  10  22  39  61  90 123 160 204 254 308 361
#     4  10  18  30  52  81 114 155 194 241 306 360
#     4  10  19  32  52  80 117 158 199 246 298 349
#     4  10  22  40  60  86 121 159 202 248 296 359
#     4  10  22  40  61  86 115 149 194 247 302 360
#     4  10  20  33  53  83 117 153 193 238 289 346
#     4  10  20  34  56  87 120 155 202 259 310 362
#     4  10  23  42  63  87 118 157 200 245 299 363
#
# _framework density 22.237556000000001
#
# number of rings (size 3 to 8) (size 9 to 14) (size 15 to 20)
#    0.000    2.000    2.143    0.857    1.000    4.857 
#    0.000    1.429    0.000    0.000    0.000    0.000 
#    0.000    0.000    0.000    0.000    0.000    0.000 
#
# Total GULP energy -156119.271730 kJ/mol
# GULP energy per Si atom -5575.688276 kJ/mol
# Density = 2.218694 g / cm^3
# Si number density = 22.237556 Si / 1000 Ang^3
#
#
#
# Elastic Constant Matrix: (Units=GPa)
#
#
# Indices 1 2 3 4 5 6 
#
# 1 19.9849 15.9044 10.6427 0.0000 0.0000 0.0000
# 2 15.9044 87.0951 26.6443 0.0000 0.0000 0.0000
# 3 10.6427 26.6443 70.3939 -0.0001 0.0000 0.0000
# 4 0.0000 0.0000 -0.0001 17.9945 0.0000 0.0000
# 5 0.0000 0.0000 0.0000 0.0000 25.5275 0.0000
# 6 0.0000 0.0000 0.0000 0.0000 0.0000 15.7444
#
#
#
# Elastic Compliance Matrix: (Units=1/GPa)
#
#
# Indices 1 2 3 4 5 6 
#
# 1 0.060444 -0.009321 -0.005610 0.000000 0.000000 0.000000
# 2 -0.009321 0.014423 -0.004050 0.000000 0.000000 0.000000
# 3 -0.005610 -0.004050 0.016587 0.000000 0.000000 0.000000
# 4 0.000000 0.000000 0.000000 0.055573 0.000000 0.000000
# 5 0.000000 0.000000 0.000000 0.000000 0.039173 0.000000
# 6 0.000000 0.000000 0.000000 0.000000 0.000000 0.063515
#
#
# Mechanical properties :
#
#
# Convention : Reuss Voigt Hill
#
# Bulk Modulus (GPa) = 18.69488 31.53964 25.11726
# Shear Modulus (GPa) = 16.36626 20.13878 18.25252
#
# Velocity S-wave (km/s) = 2.71583 3.01262 2.86806
# Velocity P-wave (km/s) = 4.27311 5.12981 4.72093
#
# Compressibility (1/GPa) = 0.05349057
#
# Stress axis : x y z
#
# Youngs Moduli (GPa) = 16.54437 69.33485 60.28880
#
# Poissons Ratio (x) = 0.64629 0.33823
# Poissons Ratio (y) = 0.15421 0.24416
# Poissons Ratio (z) = 0.09282 0.28079
#
# Static dielectric constant tensor:
#      x y z
#    x 1.805330 0.000000 0.000000 
#    y 0.000000 1.881800 0.000000 
#    z 0.000000 0.000000 1.834010 
# 
# From -- ./inp_files/16541.got.cif
#   From: 2010.05.17/outbox.cif.g08.bks.cpg/sg44_9_cif.got.tgz:16541.got - 2010.06.03 19:37:08.
