data_PCOD9373782
_publ_section_title
;
Structure prediction by ZEFSAII (Michael W. Deem and Ramdas Pophale) SiO2 
 PCOD9373782
Probable space group: I M M 2
;
_chemical_formula_sum "Si O2"
_cell_formula_units_Z 64
_cell_length_a 9.780845
_cell_length_b 28.222130
_cell_length_c 14.110354
_cell_angle_alpha 90.000000
_cell_angle_beta 90.000000
_cell_angle_gamma 90.000000
_cell_volume 3894.969615
_symmetry_space_group_name_H-M "I M M 2"
_symmetry_group_IT_number 44
_symmetry_cell_setting 'orthorhombic'
loop_
_space_group_symop_operation_xyz
x,y,z
-x,-y,z
-x,y,z
x,-y,z
1/2+x,1/2+y,1/2+z
1/2-x,1/2-y,1/2+z
1/2-x,1/2+y,1/2+z
1/2+x,1/2-y,1/2+z
loop_
_atom_site_type_symbol
_atom_site_label
_atom_site_fract_x
_atom_site_fract_y
_atom_site_fract_z
Si Si1 0.659528 0.669268 0.085450
Si Si2 0.161392 0.314304 0.265046
Si Si3 0.656790 0.341374 0.445239
Si Si4 0.160985 0.553940 0.770283
Si Si5 0.256525 0.704782 0.782341
Si Si6 0.643787 0.231637 0.477439
Si Si7 0.160110 0.635943 0.618436
Si Si8 0.150130 0.114590 0.395747
O O1 0.500000 0.674929 0.111434
O O2 0.758755 0.664957 0.174474
O O3 0.721375 0.714166 0.029691
O O4 0.670800 0.628945 0.005063
O O5 0.245849 0.335443 0.353892
O O6 0.177254 0.256333 0.263172
O O7 0.000000 0.324959 0.268725
O O8 0.500000 0.358460 0.427022
O O9 0.641958 0.287563 0.481149
O O10 0.739598 0.366591 0.529004
O O11 0.205954 0.500000 0.753817
O O12 0.179981 0.588697 0.681023
O O13 0.238834 0.579055 0.855948
O O14 0.000000 0.553646 0.790567
O O15 0.151053 0.715960 0.867631
O O16 0.196337 0.680247 0.688324
O O17 0.344159 0.663042 0.832735
O O18 0.500000 0.212841 0.518998
O O19 0.000000 0.639861 0.591362
O O20 0.000000 0.093733 0.384334
#
# Coordination Sequence:
#
# PCOD9373782 Si02
#       8
#     8   8   8   8   8   8   8   8
#     4  10  20  31  44  65  94 126 159 199 241 276
#     4  11  21  32  47  65  90 128 173 209 235 271
#     4  10  21  33  44  62  91 125 161 204 244 275
#     4   9  19  35  54  77 102 124 148 185 233 284
#     4   9  18  29  45  67  96 128 163 204 240 270
#     4   9  17  29  44  63  89 124 166 202 235 277
#     4  10  19  31  49  70  94 126 161 194 235 287
#     4   9  18  32  49  70  97 127 157 191 236 286
#
# _framework density 16.431450000000002
#
# number of rings (size 3 to 8) (size 9 to 14) (size 15 to 20)
#    0.000    2.375    0.000    2.625    0.000   13.250 
#    0.000    0.000    0.000    0.000    0.000    0.875 
#    0.000    5.000    0.000    0.000    0.000    0.000 
#
# Total GULP energy -178140.026411 kJ/mol
# GULP energy per Si atom -5566.875825 kJ/mol
# Density = 1.639405 g / cm^3
# Si number density = 16.431450 Si / 1000 Ang^3
#
#
#
# Elastic Constant Matrix: (Units=GPa)
#
#
# Indices 1 2 3 4 5 6 
#
# 1 136.1989 37.8980 67.3348 0.0000 0.0000 0.0000
# 2 37.8980 45.8006 29.4128 0.0000 0.0000 0.0000
# 3 67.3348 29.4128 85.4853 0.0001 0.0001 0.0003
# 4 0.0000 0.0000 0.0001 5.4450 0.0000 0.0000
# 5 0.0000 0.0000 0.0001 0.0000 -16.5193 0.0002
# 6 0.0000 0.0000 0.0003 0.0000 0.0002 50.8013
#
#
#
# Elastic Compliance Matrix: (Units=1/GPa)
#
#
# Indices 1 2 3 4 5 6 
#
# 1 0.012974 -0.005356 -0.008376 0.000000 0.000000 0.000000
# 2 -0.005356 0.030238 -0.006185 0.000000 0.000000 0.000000
# 3 -0.008376 -0.006185 0.020424 0.000000 0.000000 0.000000
# 4 0.000000 0.000000 0.000000 0.183655 0.000000 0.000000
# 5 0.000000 0.000000 0.000000 0.000000 -0.060535 0.000000
# 6 0.000000 0.000000 0.000000 0.000000 0.000000 0.019685
#
#
# Mechanical properties :
#
#
# Convention : Reuss Voigt Hill
#
# Bulk Modulus (GPa) = 42.01582 59.64176 50.82879
# Shear Modulus (GPa) = 19.66902 16.80134 18.23518
#
# Velocity S-wave (km/s) = 3.46357 3.20114 3.33494
# Velocity P-wave (km/s) = 6.45143 7.07384 6.76979
#
# Compressibility (1/GPa) = 0.02380056
#
# Stress axis : x y z
#
# Youngs Moduli (GPa) = 77.07972 33.07140 48.96271
#
# Poissons Ratio (x) = 0.17713 0.41012
# Poissons Ratio (y) = 0.41284 0.30284
# Poissons Ratio (z) = 0.64563 0.20455
#
# Static dielectric constant tensor:
#      x y z
#    x 1.587860 0.000000 0.000000 
#    y 0.000000 1.528370 0.000000 
#    z 0.000000 0.000000 1.581510 
# 
# From -- ./inp_files/17128.got.cif
#   From: 2010.05.17/outbox.cif.g08.bks.cpg/sg44_9_cif.got.tgz:17128.got - 2010.06.03 19:37:08.
