data_PCOD9373456
_publ_section_title
;
Structure prediction by ZEFSAII (Michael W. Deem and Ramdas Pophale) SiO2 
 PCOD9373456
Probable space group: I M M 2
;
_chemical_formula_sum "Si O2"
_cell_formula_units_Z 64
_cell_length_a 22.722309
_cell_length_b 17.221308
_cell_length_c 8.979643
_cell_angle_alpha 90.000000
_cell_angle_beta 90.000000
_cell_angle_gamma 90.000000
_cell_volume 3513.805081
_symmetry_space_group_name_H-M "I M M 2"
_symmetry_group_IT_number 44
_symmetry_cell_setting 'orthorhombic'
loop_
_space_group_symop_operation_xyz
x,y,z
-x,-y,z
-x,y,z
x,-y,z
1/2+x,1/2+y,1/2+z
1/2-x,1/2-y,1/2+z
1/2-x,1/2+y,1/2+z
1/2+x,1/2-y,1/2+z
loop_
_atom_site_type_symbol
_atom_site_label
_atom_site_fract_x
_atom_site_fract_y
_atom_site_fract_z
Si Si1 0.863142 0.179728 0.144190
Si Si2 0.929877 0.740999 0.409739
Si Si3 0.429885 0.089994 0.431071
Si Si4 0.353334 0.330857 0.146504
Si Si5 0.280745 0.406515 0.882606
Si Si6 0.071147 0.583742 0.283744
Si Si7 0.830238 0.705400 0.883891
Si Si8 0.566937 0.407962 0.390890
O O1 0.908955 0.218476 0.257866
O O2 0.818047 0.129906 0.244756
O O3 0.833941 0.245717 0.038454
O O4 0.900270 0.126245 0.033535
O O5 0.896670 0.781659 0.542702
O O6 0.909109 0.652587 0.388430
O O7 0.000000 0.744541 0.425889
O O8 0.500000 0.101367 0.410555
O O9 0.416442 0.095369 0.608686
O O10 0.391374 0.158219 0.359780
O O11 0.416597 0.000000 0.386635
O O12 0.320703 0.269403 0.254668
O O13 0.393896 0.383560 0.250847
O O14 0.313195 0.381270 0.035993
O O15 0.275698 0.500000 0.871826
O O16 0.219291 0.360448 0.885077
O O17 0.094392 0.500000 0.329181
O O18 0.000000 0.582489 0.291931
O O19 0.500000 0.377571 0.379164
O O20 0.564489 0.500000 0.401469
#
# Coordination Sequence:
#
# PCOD9373456 Si02
#       8
#     8   8   8   8   8   8   8   8
#     4  10  21  35  57  84 110 142 189 238 271 320
#     4  10  18  32  53  81 114 149 181 216 271 332
#     4   9  17  30  52  84 116 144 180 227 274 323
#     4  10  23  37  55  82 114 144 180 232 284 334
#     4  11  23  41  60  78 106 147 191 233 283 334
#     4   8  14  26  46  73 107 143 176 213 258 313
#     4  11  21  37  59  83 111 146 189 232 280 333
#     4  10  20  36  58  85 115 147 183 226 281 338
#
# _framework density 18.213873
#
# number of rings (size 3 to 8) (size 9 to 14) (size 15 to 20)
#    0.000    2.125    1.250    3.375    0.000    2.500 
#    0.000    1.250    0.000    7.500    0.000    0.000 
#    0.000    0.000    0.000    0.000    0.000    0.000 
#
# Total GULP energy -178450.577066 kJ/mol
# GULP energy per Si atom -5576.580533 kJ/mol
# Density = 1.817242 g / cm^3
# Si number density = 18.213873 Si / 1000 Ang^3
#
#
#
# Elastic Constant Matrix: (Units=GPa)
#
#
# Indices 1 2 3 4 5 6 
#
# 1 70.6538 41.8490 27.1771 0.0000 0.0000 0.0000
# 2 41.8490 117.9702 32.0646 0.0000 0.0000 0.0000
# 3 27.1771 32.0646 71.9047 0.0000 0.0000 0.0000
# 4 0.0000 0.0000 0.0000 17.0025 0.0000 0.0000
# 5 0.0000 0.0000 0.0000 0.0000 10.7006 0.0000
# 6 0.0000 0.0000 0.0000 0.0000 0.0000 33.1696
#
#
#
# Elastic Compliance Matrix: (Units=1/GPa)
#
#
# Indices 1 2 3 4 5 6 
#
# 1 0.019284 -0.005530 -0.004823 0.000000 0.000000 0.000000
# 2 -0.005530 0.011232 -0.002918 0.000000 0.000000 0.000000
# 3 -0.004823 -0.002918 0.017031 0.000000 0.000000 0.000000
# 4 0.000000 0.000000 0.000000 0.058815 0.000000 0.000000
# 5 0.000000 0.000000 0.000000 0.000000 0.093453 0.000000
# 6 0.000000 0.000000 0.000000 0.000000 0.000000 0.030148
#
#
# Mechanical properties :
#
#
# Convention : Reuss Voigt Hill
#
# Bulk Modulus (GPa) = 47.60756 51.41225 49.50990
# Shear Modulus (GPa) = 18.97484 22.80373 20.88929
#
# Velocity S-wave (km/s) = 3.23116 3.54220 3.39025
# Velocity P-wave (km/s) = 6.33367 6.70953 6.52431
#
# Compressibility (1/GPa) = 0.02100507
#
# Stress axis : x y z
#
# Youngs Moduli (GPa) = 51.85626 89.03367 58.71493
#
# Poissons Ratio (x) = 0.49236 0.28316
# Poissons Ratio (y) = 0.28677 0.17135
# Poissons Ratio (z) = 0.25008 0.25984
#
# Static dielectric constant tensor:
#      x y z
#    x 1.616850 0.000000 0.000000 
#    y 0.000000 1.636880 0.000000 
#    z 0.000000 0.000000 1.624660 
# 
# From -- ./inp_files/9462.got.cif
#   From: 2010.05.17/outbox.cif.g08.bks.cpg/sg44_5_cif.got.tgz:9462.got - 2010.06.03 19:37:08.
