data_PCOD9373502
_publ_section_title
;
Structure prediction by ZEFSAII (Michael W. Deem and Ramdas Pophale) SiO2 
 PCOD9373502
Probable space group: I M M 2
;
_chemical_formula_sum "Si O2"
_cell_formula_units_Z 34
_cell_length_a 15.269211
_cell_length_b 11.976645
_cell_length_c 6.865910
_cell_angle_alpha 90.000000
_cell_angle_beta 90.000000
_cell_angle_gamma 90.000000
_cell_volume 1255.595873
_symmetry_space_group_name_H-M "I M M 2"
_symmetry_group_IT_number 44
_symmetry_cell_setting 'orthorhombic'
loop_
_space_group_symop_operation_xyz
x,y,z
-x,-y,z
-x,y,z
x,-y,z
1/2+x,1/2+y,1/2+z
1/2-x,1/2-y,1/2+z
1/2-x,1/2+y,1/2+z
1/2+x,1/2-y,1/2+z
loop_
_atom_site_type_symbol
_atom_site_label
_atom_site_fract_x
_atom_site_fract_y
_atom_site_fract_z
Si Si1 0.605716 0.373759 0.491010
Si Si2 0.339127 0.348730 0.941963
Si Si3 0.500000 0.500000 0.061664
Si Si4 0.400560 0.119080 0.920054
Si Si5 0.638974 0.877779 0.472500
O O1 0.500000 0.379731 0.501291
O O2 0.632143 0.500000 0.417777
O O3 0.643032 0.367567 0.711484
O O4 0.624257 0.250606 0.398367
O O5 0.422306 0.404633 0.043891
O O6 0.340324 0.217928 0.984128
O O7 0.243204 0.386751 0.995737
O O8 0.500000 0.130470 0.992191
O O9 0.403658 0.124573 0.686170
O O10 0.363092 0.000000 0.972548
O O11 0.610202 0.000000 0.386403
#
# Coordination Sequence:
#
# PCOD9373502 Si02
#       5
#     8   8   2   8   8
#     4  10  18  33  52  72  96 127 158 196 239 282
#     4  11  17  29  49  73  94 122 158 197 234 278
#     4  12  16  28  50  72  94 118 164 194 240 276
#     4   9  18  32  48  69  95 122 152 196 244 281
#     4  10  19  27  44  75 101 119 154 198 237 279
#
# _framework density 27.078776999999999
#
# number of rings (size 3 to 8) (size 9 to 14) (size 15 to 20)
#    0.000    1.882    4.706    2.118    0.000    2.353 
#    0.000    0.000    0.000    0.000   24.471    0.000 
#    0.000    0.000    0.000    0.000    0.000    0.000 
#
# Total GULP energy -94740.402064 kJ/mol
# GULP energy per Si atom -5572.964827 kJ/mol
# Density = 2.701714 g / cm^3
# Si number density = 27.078777 Si / 1000 Ang^3
#
#
#
# Elastic Constant Matrix: (Units=GPa)
#
#
# Indices 1 2 3 4 5 6 
#
# 1 156.7106 40.7339 -1.6478 0.0000 0.0000 0.0000
# 2 40.7339 326.5627 21.5665 0.0000 0.0000 0.0000
# 3 -1.6478 21.5665 109.7616 0.0000 0.0000 0.0000
# 4 0.0000 0.0000 0.0000 -8.2464 0.0000 0.0000
# 5 0.0000 0.0000 0.0000 0.0000 -154.3940 0.0000
# 6 0.0000 0.0000 0.0000 0.0000 0.0000 -59.4888
#
#
#
# Elastic Compliance Matrix: (Units=1/GPa)
#
#
# Indices 1 2 3 4 5 6 
#
# 1 0.006603 -0.000841 0.000264 0.000000 0.000000 0.000000
# 2 -0.000841 0.003210 -0.000643 0.000000 0.000000 0.000000
# 3 0.000264 -0.000643 0.009241 0.000000 0.000000 0.000000
# 4 0.000000 0.000000 0.000000 -0.121265 0.000000 0.000000
# 5 0.000000 0.000000 0.000000 0.000000 -0.006477 0.000000
# 6 0.000000 0.000000 0.000000 0.000000 0.000000 -0.016810
#
#
# Mechanical properties :
#
#
# Convention : Reuss Voigt Hill
#
# Bulk Modulus (GPa) = 60.19263 79.37113 69.78188
# Shear Modulus (GPa) = -42.54567 -8.93369 -25.73968
#
# Velocity S-wave (km/s) = -3.96811 -1.81833 -3.08644
# Velocity P-wave (km/s) = 1.13243 4.99664 3.62276
#
# Compressibility (1/GPa) = 0.01661333
#
# Stress axis : x y z
#
# Youngs Moduli (GPa) = 151.45600 311.56653 108.21325
#
# Poissons Ratio (x) = 0.26204 -0.02861
# Poissons Ratio (y) = 0.12738 0.06961
# Poissons Ratio (z) = -0.04004 0.20042
#
# Static dielectric constant tensor:
#      x y z
#    x 1.962940 0.000000 0.000000 
#    y 0.000000 2.176440 0.000000 
#    z 0.000000 0.000000 2.169140 
# 
# From -- ./inp_files/11974.got.cif
#   From: 2010.05.17/outbox.cif.g08.bks.cpg/sg44_6_cif.got.tgz:11974.got - 2010.06.03 19:37:08.
