data_PCOD9373654
_publ_section_title
;
Structure prediction by ZEFSAII (Michael W. Deem and Ramdas Pophale) SiO2 
 PCOD9373654
Probable space group: I M M 2
;
_chemical_formula_sum "Si O2"
_cell_formula_units_Z 40
_cell_length_a 17.493731
_cell_length_b 28.595285
_cell_length_c 5.169345
_cell_angle_alpha 90.000000
_cell_angle_beta 90.000000
_cell_angle_gamma 90.000000
_cell_volume 2585.903960
_symmetry_space_group_name_H-M "I M M 2"
_symmetry_group_IT_number 44
_symmetry_cell_setting 'orthorhombic'
loop_
_space_group_symop_operation_xyz
x,y,z
-x,-y,z
-x,y,z
x,-y,z
1/2+x,1/2+y,1/2+z
1/2-x,1/2-y,1/2+z
1/2-x,1/2+y,1/2+z
1/2+x,1/2-y,1/2+z
loop_
_atom_site_type_symbol
_atom_site_label
_atom_site_fract_x
_atom_site_fract_y
_atom_site_fract_z
Si Si1 0.670794 0.197364 0.625000
Si Si2 0.408232 0.110457 0.364049
Si Si3 0.407684 0.947229 0.872113
Si Si4 0.089922 0.219528 0.368161
Si Si5 0.680977 0.293387 0.384820
O O1 0.632607 0.157373 0.457653
O O2 0.890064 0.273901 0.299468
O O3 0.702838 0.238749 0.439026
O O4 0.741741 0.181339 0.799969
O O5 0.500000 0.118537 0.355340
O O6 0.392689 0.072101 0.586647
O O7 0.382279 0.089439 0.090454
O O8 0.500000 0.949195 0.898630
O O9 0.378835 0.000000 0.910827
O O10 0.121948 0.207052 0.648272
O O11 0.000000 0.212090 0.347596
O O12 0.137796 0.192322 0.146509
#
# Coordination Sequence:
#
# PCOD9373654 Si02
#       5
#     8   8   8   8   8
#     4  10  20  32  43  64  87 115 151 186 225 263
#     4  10  20  28  46  67  82 111 153 194 214 247
#     4   9  18  32  44  60  86 112 140 181 233 269
#     4  10  19  30  44  60  80 113 152 186 213 250
#     4  10  20  31  44  58  88 120 139 188 231 263
#
# _framework density 15.468477999999999
#
# number of rings (size 3 to 8) (size 9 to 14) (size 15 to 20)
#    1.200    1.000    2.000    1.800    2.800    2.400 
#    0.000    0.000    0.000    0.000    0.000    0.000 
#    0.000    0.000    0.000    0.000    0.000   70.000 
#
# Total GULP energy -111375.680235 kJ/mol
# GULP energy per Si atom -5568.784012 kJ/mol
# Density = 1.543327 g / cm^3
# Si number density = 15.468478 Si / 1000 Ang^3
#
#
#
# Elastic Constant Matrix: (Units=GPa)
#
#
# Indices 1 2 3 4 5 6 
#
# 1 54.8100 -3.2259 15.5949 0.0001 -0.0003 0.0000
# 2 -3.2259 22.0066 -14.8575 -0.0002 0.0001 0.0000
# 3 15.5949 -14.8575 61.0955 0.0009 -0.0021 -0.0002
# 4 0.0001 -0.0002 0.0009 11.0217 0.0000 0.0000
# 5 -0.0003 0.0001 -0.0021 0.0000 19.3606 0.0000
# 6 0.0000 0.0000 -0.0002 0.0000 0.0000 7.3974
#
#
#
# Elastic Compliance Matrix: (Units=1/GPa)
#
#
# Indices 1 2 3 4 5 6 
#
# 1 0.019680 -0.000606 -0.005171 0.000000 0.000000 0.000000
# 2 -0.000606 0.054386 0.013380 0.000000 0.000001 0.000001
# 3 -0.005171 0.013380 0.020942 -0.000001 0.000002 0.000001
# 4 0.000000 0.000000 -0.000001 0.090730 0.000000 0.000000
# 5 0.000000 0.000001 0.000002 0.000000 0.051651 0.000000
# 6 0.000000 0.000001 0.000001 0.000000 0.000000 0.135182
#
#
# Mechanical properties :
#
#
# Convention : Reuss Voigt Hill
#
# Bulk Modulus (GPa) = 9.07321 14.77057 11.92189
# Shear Modulus (GPa) = 12.68704 16.91598 14.80151
#
# Velocity S-wave (km/s) = 2.86700 3.31052 3.09671
# Velocity P-wave (km/s) = 4.10340 4.91754 4.52880
#
# Compressibility (1/GPa) = 0.11021458
#
# Stress axis : x y z
#
# Youngs Moduli (GPa) = 50.81183 18.38719 47.75171
#
# Poissons Ratio (x) = 0.01115 0.24692
# Poissons Ratio (y) = 0.03080 -0.63894
# Poissons Ratio (z) = 0.26275 -0.24603
#
# Static dielectric constant tensor:
#      x y z
#    x 1.516830 0.000000 0.000000 
#    y 0.000000 1.511650 0.000000 
#    z 0.000000 0.000000 1.564640 
# 
# From -- ./inp_files/2061.got.cif
#   From: 2010.05.17/outbox.cif.g08.bks.cpg/sg44_2_cif.got.tgz:2061.got - 2010.06.03 19:37:08.
