data_PCOD9373119
_publ_section_title
;
Structure prediction by ZEFSAII (Michael W. Deem and Ramdas Pophale) SiO2 
 PCOD9373119
Probable space group: I M M 2
;
_chemical_formula_sum "Si O2"
_cell_formula_units_Z 48
_cell_length_a 13.484045
_cell_length_b 20.139085
_cell_length_c 7.426206
_cell_angle_alpha 90.000000
_cell_angle_beta 90.000000
_cell_angle_gamma 90.000000
_cell_volume 2016.633235
_symmetry_space_group_name_H-M "I M M 2"
_symmetry_group_IT_number 44
_symmetry_cell_setting 'orthorhombic'
loop_
_space_group_symop_operation_xyz
x,y,z
-x,-y,z
-x,y,z
x,-y,z
1/2+x,1/2+y,1/2+z
1/2-x,1/2-y,1/2+z
1/2-x,1/2+y,1/2+z
1/2+x,1/2-y,1/2+z
loop_
_atom_site_type_symbol
_atom_site_label
_atom_site_fract_x
_atom_site_fract_y
_atom_site_fract_z
Si Si1 0.642026 0.000000 0.962170
Si Si2 0.162652 0.853935 0.733038
Si Si3 0.351641 0.500000 0.255611
Si Si4 0.237274 0.886926 0.373928
Si Si5 0.105549 0.709722 0.720906
Si Si6 0.884701 0.500000 0.895733
Si Si7 0.115133 0.000000 0.315052
Si Si8 0.893746 0.647954 0.336641
O O1 0.600872 0.928379 0.904270
O O2 0.745795 0.000000 0.854614
O O3 0.627750 0.000000 0.178594
O O4 0.117441 0.923836 0.802183
O O5 0.159930 0.859721 0.517013
O O6 0.112829 0.785368 0.784555
O O7 0.282043 0.846178 0.761210
O O8 0.366505 0.500000 0.035168
O O9 0.298727 0.829341 0.285649
O O10 0.322371 0.935830 0.458063
O O11 0.173681 0.935436 0.246640
O O12 0.105788 0.697748 0.506976
O O13 0.000000 0.680262 0.784266
O O14 0.000000 0.500000 0.945902
O O15 0.000000 0.000000 0.276863
O O16 0.000000 0.660135 0.237260
#
# Coordination Sequence:
#
# PCOD9373119 Si02
#       8
#     4   8   4   8   8   4   4   8
#     4  10  17  32  57  86 115 146 187 234 292 351
#     4  10  21  38  54  80 116 151 197 246 299 342
#     4   8  19  36  57  82 111 150 197 246 284 341
#     4  10  21  36  58  91 118 152 194 246 290 345
#     4  11  22  37  58  84 114 153 198 243 301 360
#     4  11  19  32  58  89 119 155 193 238 301 361
#     4   9  19  38  64  89 119 161 201 234 285 349
#     4  10  20  34  56  84 113 151 191 232 291 358
#
# _framework density 23.802047000000002
#
# number of rings (size 3 to 8) (size 9 to 14) (size 15 to 20)
#    0.000    2.000    1.667    2.750    0.000    4.000 
#    0.000    0.833    0.000    3.000    0.000    0.000 
#    0.000    0.000    0.000    0.000    0.000    0.000 
#
# Total GULP energy -133645.970592 kJ/mol
# GULP energy per Si atom -5568.582108 kJ/mol
# Density = 2.374787 g / cm^3
# Si number density = 23.802047 Si / 1000 Ang^3
#
#
#
# Elastic Constant Matrix: (Units=GPa)
#
#
# Indices 1 2 3 4 5 6 
#
# 1 127.6326 43.7567 -6.5943 0.0000 0.0000 0.0000
# 2 43.7567 148.2526 0.3233 0.0000 0.0000 0.0000
# 3 -6.5943 0.3233 35.5889 0.0000 0.0000 0.0000
# 4 0.0000 0.0000 0.0000 20.8190 0.0000 0.0000
# 5 0.0000 0.0000 0.0000 0.0000 9.3981 0.0000
# 6 0.0000 0.0000 0.0000 0.0000 0.0000 -55.7060
#
#
#
# Elastic Compliance Matrix: (Units=1/GPa)
#
#
# Indices 1 2 3 4 5 6 
#
# 1 0.008814 -0.002605 0.001657 0.000000 0.000000 0.000000
# 2 -0.002605 0.007515 -0.000551 0.000000 0.000000 0.000000
# 3 0.001657 -0.000551 0.028411 0.000000 0.000000 0.000000
# 4 0.000000 0.000000 0.000000 0.048033 0.000000 0.000000
# 5 0.000000 0.000000 0.000000 0.000000 0.106404 0.000000
# 6 0.000000 0.000000 0.000000 0.000000 0.000000 -0.017951
#
#
# Mechanical properties :
#
#
# Convention : Reuss Voigt Hill
#
# Bulk Modulus (GPa) = 23.95707 42.93837 33.44772
# Shear Modulus (GPa) = 25.23501 13.16814 19.20157
#
# Velocity S-wave (km/s) = 3.25961 2.35465 2.84336
# Velocity P-wave (km/s) = 4.92481 5.04692 4.98624
#
# Compressibility (1/GPa) = 0.04174133
#
# Stress axis : x y z
#
# Youngs Moduli (GPa) = 113.46037 133.06193 35.19806
#
# Poissons Ratio (x) = 0.34662 -0.05831
# Poissons Ratio (y) = 0.29556 0.01939
# Poissons Ratio (z) = -0.18798 0.07331
#
# Static dielectric constant tensor:
#      x y z
#    x 1.919370 0.000000 0.000000 
#    y 0.000000 1.928290 0.000000 
#    z 0.000000 0.000000 1.962130 
# 
# From -- ./inp_files/7188.got.cif
#   From: 2010.05.17/outbox.cif.g08.bks.cpg/sg44_4_cif.got.tgz:7188.got - 2010.06.03 19:37:08.
