data_PCOD9373290
_publ_section_title
;
Structure prediction by ZEFSAII (Michael W. Deem and Ramdas Pophale) SiO2 
 PCOD9373290
Probable space group: I M M 2
;
_chemical_formula_sum "Si O2"
_cell_formula_units_Z 64
_cell_length_a 15.253663
_cell_length_b 7.772017
_cell_length_c 28.681527
_cell_angle_alpha 90.000000
_cell_angle_beta 90.000000
_cell_angle_gamma 90.000000
_cell_volume 3400.244592
_symmetry_space_group_name_H-M "I M M 2"
_symmetry_group_IT_number 44
_symmetry_cell_setting 'orthorhombic'
loop_
_space_group_symop_operation_xyz
x,y,z
-x,-y,z
-x,y,z
x,-y,z
1/2+x,1/2+y,1/2+z
1/2-x,1/2-y,1/2+z
1/2-x,1/2+y,1/2+z
1/2+x,1/2-y,1/2+z
loop_
_atom_site_type_symbol
_atom_site_label
_atom_site_fract_x
_atom_site_fract_y
_atom_site_fract_z
Si Si1 0.281999 0.206265 0.649270
Si Si2 0.899987 0.709892 0.507544
Si Si3 0.597303 0.703945 0.456855
Si Si4 0.722309 0.205559 0.924663
Si Si5 0.098807 0.795564 0.340120
Si Si6 0.900380 0.707372 0.233739
Si Si7 0.401486 0.207014 0.113519
Si Si8 0.100781 0.708024 0.063555
O O1 0.332207 0.271405 0.695127
O O2 0.179217 0.243927 0.645972
O O3 0.332102 0.270825 0.602849
O O4 0.291731 0.000000 0.648928
O O5 0.897305 0.500000 0.507692
O O6 0.833641 0.773941 0.468504
O O7 0.881598 0.766939 0.560466
O O8 0.000000 0.758767 0.495961
O O9 0.500000 0.778986 0.449308
O O10 0.591036 0.500000 0.447771
O O11 0.678681 0.774515 0.427390
O O12 0.619420 0.726011 0.511640
O O13 0.668884 0.234162 0.877588
O O14 0.728277 0.000000 0.931224
O O15 0.122252 0.752377 0.286856
O O16 0.000000 0.725174 0.349060
O O17 0.094334 0.000000 0.344230
O O18 0.902484 0.500000 0.230738
O O19 0.000000 0.769451 0.224615
O O20 0.500000 0.267209 0.125957
O O21 0.404700 0.000000 0.112099
O O22 0.104441 0.500000 0.061866
O O23 0.000000 0.755446 0.075433
#
# Coordination Sequence:
#
# PCOD9373290 Si02
#       8
#     8   8   8   8   8   8   8   8
#     4  10  19  30  48  73  97 123 159 200 236 273
#     4   8  14  25  42  65  91 120 158 196 224 263
#     4   9  18  31  46  68  98 129 163 201 233 265
#     4  10  18  29  49  71  92 125 164 196 231 279
#     4  10  21  35  50  72 100 122 145 188 242 288
#     4   9  18  34  54  73  95 124 155 186 227 284
#     4   9  18  32  48  67  95 131 166 198 233 274
#     4   9  17  29  45  68 100 133 160 189 232 284
#
# _framework density 18.822175999999999
#
# number of rings (size 3 to 8) (size 9 to 14) (size 15 to 20)
#    0.000    2.750    0.000    2.625    0.000    5.500 
#    0.000    0.625    0.000    5.250    0.000    1.750 
#    0.000    0.000    0.000    0.000    0.000    0.000 
#
# Total GULP energy -178489.235784 kJ/mol
# GULP energy per Si atom -5577.788618 kJ/mol
# Density = 1.877934 g / cm^3
# Si number density = 18.822176 Si / 1000 Ang^3
#
#
#
# Elastic Constant Matrix: (Units=GPa)
#
#
# Indices 1 2 3 4 5 6 
#
# 1 159.6135 5.3534 102.1152 0.0000 0.0000 0.0000
# 2 5.3534 23.5096 -2.7400 0.0000 0.0000 0.0000
# 3 102.1152 -2.7400 88.7903 0.0000 0.0000 0.0000
# 4 0.0000 0.0000 0.0000 14.6760 0.0000 0.0000
# 5 0.0000 0.0000 0.0000 0.0000 26.8826 0.0000
# 6 0.0000 0.0000 0.0000 0.0000 0.0000 13.4782
#
#
#
# Elastic Compliance Matrix: (Units=1/GPa)
#
#
# Indices 1 2 3 4 5 6 
#
# 1 0.025585 -0.009289 -0.029711 0.000000 0.000000 0.000000
# 2 -0.009289 0.046062 0.012104 0.000000 0.000000 0.000000
# 3 -0.029711 0.012104 0.045805 0.000000 0.000000 0.000000
# 4 0.000000 0.000000 0.000000 0.068139 0.000000 0.000000
# 5 0.000000 0.000000 0.000000 0.000000 0.037199 0.000000
# 6 0.000000 0.000000 0.000000 0.000000 0.000000 0.074194
#
#
# Mechanical properties :
#
#
# Convention : Reuss Voigt Hill
#
# Bulk Modulus (GPa) = 15.70825 53.48562 34.59693
# Shear Modulus (GPa) = 13.44108 22.15301 17.79705
#
# Velocity S-wave (km/s) = 2.67518 3.43441 3.07829
# Velocity P-wave (km/s) = 4.23153 6.64868 5.57273
#
# Compressibility (1/GPa) = 0.06366083
#
# Stress axis : x y z
#
# Youngs Moduli (GPa) = 39.08610 21.71008 21.83147
#
# Poissons Ratio (x) = 0.20165 0.64863
# Poissons Ratio (y) = 0.36305 -0.26425
# Poissons Ratio (z) = 1.16128 -0.26278
#
# Static dielectric constant tensor:
#      x y z
#    x 10.242020 0.000000 0.000000 
#    y 0.000000 1.693130 0.000000 
#    z 0.000000 0.000000 1.623510 
# 
# From -- ./inp_files/25164.got.cif
#   From: 2010.05.17/outbox.cif.g08.bks.cpg/sg44_13_cif.got.tgz:25164.got - 2010.06.03 19:37:08.
