data_PCOD9373373
_publ_section_title
;
Structure prediction by ZEFSAII (Michael W. Deem and Ramdas Pophale) SiO2 
 PCOD9373373
Probable space group: I M M 2
;
_chemical_formula_sum "Si O2"
_cell_formula_units_Z 40
_cell_length_a 9.174043
_cell_length_b 26.576273
_cell_length_c 8.733425
_cell_angle_alpha 90.000000
_cell_angle_beta 90.000000
_cell_angle_gamma 90.000000
_cell_volume 2129.312692
_symmetry_space_group_name_H-M "I M M 2"
_symmetry_group_IT_number 44
_symmetry_cell_setting 'orthorhombic'
loop_
_space_group_symop_operation_xyz
x,y,z
-x,-y,z
-x,y,z
x,-y,z
1/2+x,1/2+y,1/2+z
1/2-x,1/2-y,1/2+z
1/2-x,1/2+y,1/2+z
1/2+x,1/2-y,1/2+z
loop_
_atom_site_type_symbol
_atom_site_label
_atom_site_fract_x
_atom_site_fract_y
_atom_site_fract_z
Si Si1 0.329146 0.398107 0.602920
Si Si2 0.168200 0.110353 0.472749
Si Si3 0.830842 0.300949 0.472492
Si Si4 0.173728 0.500000 0.619532
Si Si5 0.331729 0.204716 0.606235
Si Si6 0.826824 0.000000 0.446539
O O1 0.500000 0.402585 0.566049
O O2 0.318188 0.391963 0.787887
O O3 0.258822 0.349211 0.527888
O O4 0.244409 0.448781 0.556027
O O5 0.272282 0.152348 0.540116
O O6 0.196803 0.053188 0.529118
O O7 0.000000 0.123255 0.508387
O O8 0.763521 0.250652 0.543938
O O9 0.823352 0.296683 0.289469
O O10 0.000000 0.306304 0.517747
O O11 0.224591 0.500000 0.797669
O O12 0.000000 0.500000 0.605896
O O13 0.500000 0.212259 0.561203
O O14 0.000000 0.000000 0.397938
#
# Coordination Sequence:
#
# PCOD9373373 Si02
#       6
#     8   8   8   4   8   4
#     4  10  20  36  58  84 113 146 185 227 271 321
#     4   9  18  34  57  83 111 144 183 226 269 320
#     4  11  24  40  57  80 109 142 183 229 276 329
#     4  10  18  30  53  84 115 148 184 222 268 320
#     4  11  24  39  56  81 111 143 181 227 278 331
#     4   8  16  32  53  80 113 146 184 228 270 318
#
# _framework density 18.785404
#
# number of rings (size 3 to 8) (size 9 to 14) (size 15 to 20)
#    0.000    2.000    0.000    5.100    0.000   12.000 
#    0.000    1.000    0.000    4.800    0.000    0.000 
#    0.000    0.000    0.000    0.000    0.000    0.000 
#
# Total GULP energy -111680.038661 kJ/mol
# GULP energy per Si atom -5584.001933 kJ/mol
# Density = 1.874265 g / cm^3
# Si number density = 18.785404 Si / 1000 Ang^3
#
#
#
# Elastic Constant Matrix: (Units=GPa)
#
#
# Indices 1 2 3 4 5 6 
#
# 1 150.5557 92.4476 36.3559 -0.0001 -0.0001 0.0000
# 2 92.4476 163.8089 31.1358 -0.0001 -0.0001 0.0000
# 3 36.3559 31.1358 18.9536 -0.0014 -0.0004 -0.0002
# 4 -0.0001 -0.0001 -0.0014 25.1668 -0.0001 -0.0001
# 5 -0.0001 -0.0001 -0.0004 -0.0001 25.7722 -0.0001
# 6 0.0000 0.0000 -0.0002 -0.0001 -0.0001 41.3524
#
#
#
# Elastic Compliance Matrix: (Units=1/GPa)
#
#
# Indices 1 2 3 4 5 6 
#
# 1 0.014022 -0.004073 -0.020206 -0.000001 0.000000 0.000000
# 2 -0.004073 0.010059 -0.008712 0.000000 0.000000 0.000000
# 3 -0.020206 -0.008712 0.105831 0.000006 0.000002 0.000001
# 4 -0.000001 0.000000 0.000006 0.039735 0.000000 0.000000
# 5 0.000000 0.000000 0.000002 0.000000 0.038802 0.000000
# 6 0.000000 0.000000 0.000001 0.000000 0.000000 0.024182
#
#
# Mechanical properties :
#
#
# Convention : Reuss Voigt Hill
#
# Bulk Modulus (GPa) = 15.64212 72.57744 44.10978
# Shear Modulus (GPa) = 15.62869 30.01686 22.82277
#
# Velocity S-wave (km/s) = 2.88750 4.00169 3.48935
# Velocity P-wave (km/s) = 4.41154 7.75050 6.30603
#
# Compressibility (1/GPa) = 0.06392994
#
# Stress axis : x y z
#
# Youngs Moduli (GPa) = 71.31401 99.41048 9.44902
#
# Poissons Ratio (x) = 0.40491 0.19093
# Poissons Ratio (y) = 0.29047 0.08232
# Poissons Ratio (z) = 1.44099 0.86607
#
# Static dielectric constant tensor:
#      x y z
#    x 1.630560 0.000000 0.000000 
#    y 0.000000 1.647230 0.000000 
#    z 0.000000 0.000000 1.639530 
# 
# From -- ./inp_files/4658.got.cif
#   From: 2010.05.17/outbox.cif.g08.bks.cpg/sg44_3_cif.got.tgz:4658.got - 2010.06.03 19:37:08.
