data_PCOD9373526
_publ_section_title
;
Structure prediction by ZEFSAII (Michael W. Deem and Ramdas Pophale) SiO2 
 PCOD9373526
Probable space group: I M M 2
;
_chemical_formula_sum "Si O2"
_cell_formula_units_Z 64
_cell_length_a 15.407508
_cell_length_b 15.996133
_cell_length_c 12.329574
_cell_angle_alpha 90.000000
_cell_angle_beta 90.000000
_cell_angle_gamma 90.000000
_cell_volume 3038.753554
_symmetry_space_group_name_H-M "I M M 2"
_symmetry_group_IT_number 44
_symmetry_cell_setting 'orthorhombic'
loop_
_space_group_symop_operation_xyz
x,y,z
-x,-y,z
-x,y,z
x,-y,z
1/2+x,1/2+y,1/2+z
1/2-x,1/2-y,1/2+z
1/2-x,1/2+y,1/2+z
1/2+x,1/2-y,1/2+z
loop_
_atom_site_type_symbol
_atom_site_label
_atom_site_fract_x
_atom_site_fract_y
_atom_site_fract_z
Si Si1 0.106398 0.092457 0.098180
Si Si2 0.104576 0.654041 0.331329
Si Si3 0.106398 0.407543 0.564827
Si Si4 0.395423 0.345962 0.831681
Si Si5 0.646920 0.407747 0.069930
Si Si6 0.603158 0.254011 0.453229
Si Si7 0.646917 0.907747 0.593080
Si Si8 0.396842 0.245989 0.209778
O O1 0.134149 0.108734 0.222179
O O2 0.000000 0.094376 0.097846
O O3 0.132906 0.000000 0.061757
O O4 0.138044 0.168067 0.022879
O O5 0.134150 0.608736 0.440829
O O6 0.135456 0.750001 0.331503
O O7 0.127308 0.610872 0.218630
O O8 0.000000 0.656363 0.336292
O O9 0.132906 0.500000 0.601249
O O10 0.138044 0.331933 0.640129
O O11 0.000000 0.405625 0.565161
O O12 0.500000 0.343643 0.826724
O O13 0.372685 0.389129 0.944379
O O14 0.612590 0.500000 0.099691
O O15 0.750001 0.408901 0.081508
O O16 0.614135 0.332011 0.144229
O O17 0.500000 0.268743 0.443551
O O18 0.614135 0.167988 0.518778
O O19 0.639666 0.250000 0.331504
O O20 0.612588 0.000000 0.563318
O O21 0.500000 0.231256 0.219457
#
# Coordination Sequence:
#
# PCOD9373526 Si02
#       8
#     8   8   8   8   8   8   8   8
#     4   9  17  31  55  87 115 138 175 233 292 339
#     4  10  18  33  61  89 112 144 188 241 296 339
#     4   9  17  31  55  87 115 138 175 233 292 339
#     4  10  18  33  61  89 112 144 188 241 296 339
#     4  11  24  39  56  82 118 157 193 233 285 344
#     4  10  21  38  59  83 113 151 193 236 285 341
#     4  11  24  39  56  82 118 157 193 233 285 344
#     4  10  21  38  59  83 113 151 193 236 285 341
#
# _framework density 21.061267999999998
#
# number of rings (size 3 to 8) (size 9 to 14) (size 15 to 20)
#    0.000    2.000    2.500    1.500    0.000    5.000 
#    0.000    2.500    0.000    0.750    0.000    0.000 
#    0.000    0.000    0.000    0.000    0.000    0.000 
#
# Total GULP energy -178749.242701 kJ/mol
# GULP energy per Si atom -5585.913834 kJ/mol
# Density = 2.101333 g / cm^3
# Si number density = 21.061268 Si / 1000 Ang^3
#
#
#
# Elastic Constant Matrix: (Units=GPa)
#
#
# Indices 1 2 3 4 5 6 
#
# 1 20.2339 -3.3431 1.9350 0.0000 0.0000 0.0000
# 2 -3.3431 199.3317 101.0256 0.0000 0.0000 0.0000
# 3 1.9350 101.0256 180.1307 0.0000 0.0000 0.0000
# 4 0.0000 0.0000 0.0000 15.6443 0.0000 0.0000
# 5 0.0000 0.0000 0.0000 0.0000 -39.8420 0.0000
# 6 0.0000 0.0000 0.0000 0.0000 0.0000 28.2516
#
#
#
# Elastic Compliance Matrix: (Units=1/GPa)
#
#
# Indices 1 2 3 4 5 6 
#
# 1 0.049812 0.001546 -0.001402 0.000000 0.000000 0.000000
# 2 0.001546 0.007057 -0.003975 0.000000 0.000000 0.000000
# 3 -0.001402 -0.003975 0.007796 0.000000 0.000000 0.000000
# 4 0.000000 0.000000 0.000000 0.063921 0.000000 0.000000
# 5 0.000000 0.000000 0.000000 0.000000 -0.025099 0.000000
# 6 0.000000 0.000000 0.000000 0.000000 0.000000 0.035396
#
#
# Mechanical properties :
#
#
# Convention : Reuss Voigt Hill
#
# Bulk Modulus (GPa) = 17.54290 66.54791 42.04541
# Shear Modulus (GPa) = 30.20332 20.81605 25.50969
#
# Velocity S-wave (km/s) = 3.79102 3.14723 3.48402
# Velocity P-wave (km/s) = 5.24500 6.69870 6.01592
#
# Compressibility (1/GPa) = 0.05700312
#
# Stress axis : x y z
#
# Youngs Moduli (GPa) = 20.07561 141.70173 128.27600
#
# Poissons Ratio (x) = -0.21908 0.17987
# Poissons Ratio (y) = -0.03104 0.50984
# Poissons Ratio (z) = 0.02815 0.56320
#
# Static dielectric constant tensor:
#      x y z
#    x 1.772490 0.000000 0.000000 
#    y 0.000000 1.763640 0.000000 
#    z 0.000000 0.000000 1.751160 
# 
# From -- ./inp_files/13996.got.cif
#   From: 2010.05.17/outbox.cif.g08.bks.cpg/sg44_7_cif.got.tgz:13996.got - 2010.06.03 19:37:08.
