data_PCOD9373966
_publ_section_title
;
Structure prediction by ZEFSAII (Michael W. Deem and Ramdas Pophale) SiO2 
 PCOD9373966
Probable space group: I M M 2
;
_chemical_formula_sum "Si O2"
_cell_formula_units_Z 64
_cell_length_a 21.276075
_cell_length_b 8.515307
_cell_length_c 20.345973
_cell_angle_alpha 90.000000
_cell_angle_beta 90.000000
_cell_angle_gamma 90.000000
_cell_volume 3686.126935
_symmetry_space_group_name_H-M "I M M 2"
_symmetry_group_IT_number 44
_symmetry_cell_setting 'orthorhombic'
loop_
_space_group_symop_operation_xyz
x,y,z
-x,-y,z
-x,y,z
x,-y,z
1/2+x,1/2+y,1/2+z
1/2-x,1/2-y,1/2+z
1/2-x,1/2+y,1/2+z
1/2+x,1/2-y,1/2+z
loop_
_atom_site_type_symbol
_atom_site_label
_atom_site_fract_x
_atom_site_fract_y
_atom_site_fract_z
Si Si1 0.310161 0.809930 0.489130
Si Si2 0.262875 0.190313 0.349982
Si Si3 0.734120 0.809648 0.204951
Si Si4 0.569520 0.189629 0.571486
Si Si5 0.570042 0.687913 0.985008
Si Si6 0.187794 0.311412 0.566112
Si Si7 0.120204 0.686957 0.349551
Si Si8 0.881231 0.188182 0.207553
O O1 0.303746 0.762802 0.412826
O O2 0.373307 0.754797 0.525446
O O3 0.248771 0.748306 0.526732
O O4 0.309018 0.000000 0.491634
O O5 0.286647 0.240647 0.277873
O O6 0.192338 0.255449 0.357665
O O7 0.258178 0.000000 0.349807
O O8 0.695812 0.755369 0.141537
O O9 0.807672 0.765269 0.198151
O O10 0.732342 0.000000 0.204156
O O11 0.500000 0.239582 0.549442
O O12 0.581468 0.247410 0.645463
O O13 0.571183 0.000000 0.571595
O O14 0.500000 0.736971 0.005886
O O15 0.573651 0.500000 0.985838
O O16 0.582219 0.744801 0.910732
O O17 0.624995 0.753615 0.030915
O O18 0.188479 0.500000 0.565082
O O19 0.118239 0.500000 0.351260
O O20 0.098153 0.746996 0.278273
O O21 0.884293 0.000000 0.208973
#
# Coordination Sequence:
#
# PCOD9373966 Si02
#       8
#     8   8   8   8   8   8   8   8
#     4  10  19  32  54  78 105 143 181 221 267 316
#     4   9  17  32  53  77 106 139 177 216 261 317
#     4   8  16  30  50  77 105 133 166 214 265 313
#     4  10  21  35  50  75 110 145 183 226 268 312
#     4  11  24  40  55  74 104 143 182 217 262 323
#     4  11  20  33  55  81 107 135 173 224 272 315
#     4  11  21  33  52  79 108 138 175 218 265 313
#     4  10  19  34  53  74 105 144 183 216 259 318
#
# _framework density 17.362397999999999
#
# number of rings (size 3 to 8) (size 9 to 14) (size 15 to 20)
#    0.000    2.000    2.500    3.000    0.000    1.750 
#    0.000    0.625    0.000    0.750    0.000    3.500 
#    0.000    0.000    0.000    0.000    0.000    0.000 
#
# Total GULP energy -178566.245908 kJ/mol
# GULP energy per Si atom -5580.195185 kJ/mol
# Density = 1.732288 g / cm^3
# Si number density = 17.362398 Si / 1000 Ang^3
#
#
#
# Elastic Constant Matrix: (Units=GPa)
#
#
# Indices 1 2 3 4 5 6 
#
# 1 120.0451 22.3267 79.9098 0.0000 0.0000 0.0000
# 2 22.3267 20.4025 22.6186 0.0000 0.0000 0.0000
# 3 79.9098 22.6186 139.2182 0.0000 0.0000 0.0000
# 4 0.0000 0.0000 0.0000 22.2660 0.0000 0.0000
# 5 0.0000 0.0000 0.0000 0.0000 19.8728 0.0000
# 6 0.0000 0.0000 0.0000 0.0000 0.0000 -5.9063
#
#
#
# Elastic Compliance Matrix: (Units=1/GPa)
#
#
# Indices 1 2 3 4 5 6 
#
# 1 0.014502 -0.008100 -0.007008 0.000000 0.000000 0.000000
# 2 -0.008100 0.064306 -0.005798 0.000000 0.000000 0.000000
# 3 -0.007008 -0.005798 0.012147 0.000000 0.000000 0.000000
# 4 0.000000 0.000000 0.000000 0.044911 0.000000 0.000000
# 5 0.000000 0.000000 0.000000 0.000000 0.050320 0.000000
# 6 0.000000 0.000000 0.000000 0.000000 0.000000 -0.169312
#
#
# Mechanical properties :
#
#
# Convention : Reuss Voigt Hill
#
# Bulk Modulus (GPa) = 20.34910 58.81955 39.58433
# Shear Modulus (GPa) = 66.60724 17.56723 42.08724
#
# Velocity S-wave (km/s) = 6.20050 3.18433 4.92880
# Velocity P-wave (km/s) = 7.93771 6.88992 7.43230
#
# Compressibility (1/GPa) = 0.04914222
#
# Stress axis : x y z
#
# Youngs Moduli (GPa) = 68.95826 15.55073 82.32266
#
# Poissons Ratio (x) = 0.12597 0.57689
# Poissons Ratio (y) = 0.55858 0.47732
# Poissons Ratio (z) = 0.48324 0.09017
#
# Static dielectric constant tensor:
#      x y z
#    x 1.582050 0.000000 0.000000 
#    y 0.000000 1.587120 0.000000 
#    z 0.000000 0.000000 1.606560 
# 
# From -- ./inp_files/23287.got.cif
#   From: 2010.05.17/outbox.cif.g08.bks.cpg/sg44_12_cif.got.tgz:23287.got - 2010.06.03 19:37:08.
