data_PCOD9373242
_publ_section_title
;
Structure prediction by ZEFSAII (Michael W. Deem and Ramdas Pophale) SiO2 
 PCOD9373242
Probable space group: I M M 2
;
_chemical_formula_sum "Si O2"
_cell_formula_units_Z 40
_cell_length_a 11.194200
_cell_length_b 7.413330
_cell_length_c 19.377387
_cell_angle_alpha 90.000000
_cell_angle_beta 90.000000
_cell_angle_gamma 90.000000
_cell_volume 1608.057625
_symmetry_space_group_name_H-M "I M M 2"
_symmetry_group_IT_number 44
_symmetry_cell_setting 'orthorhombic'
loop_
_space_group_symop_operation_xyz
x,y,z
-x,-y,z
-x,y,z
x,-y,z
1/2+x,1/2+y,1/2+z
1/2-x,1/2-y,1/2+z
1/2-x,1/2+y,1/2+z
1/2+x,1/2-y,1/2+z
loop_
_atom_site_type_symbol
_atom_site_label
_atom_site_fract_x
_atom_site_fract_y
_atom_site_fract_z
Si Si1 0.500000 0.213945 0.766600
Si Si2 0.500000 0.705017 0.605680
Si Si3 0.369793 0.220805 0.413792
Si Si4 0.127835 0.788621 0.481618
Si Si5 0.265301 0.788136 0.274535
Si Si6 0.242135 0.280926 0.618368
O O1 0.500000 0.298476 0.689860
O O2 0.626856 0.267834 0.798654
O O3 0.500000 0.000000 0.759062
O O4 0.500000 0.500000 0.580792
O O5 0.628825 0.788232 0.590342
O O6 0.500000 0.277151 0.440231
O O7 0.250917 0.287895 0.451732
O O8 0.351215 0.279064 0.334351
O O9 0.368635 0.000000 0.416068
O O10 0.142657 0.772207 0.564031
O O11 0.000000 0.710513 0.459710
O O12 0.126193 0.000000 0.463458
O O13 0.275272 0.715083 0.196777
O O14 0.289546 0.000000 0.268588
O O15 0.249510 0.500000 0.620411
#
# Coordination Sequence:
#
# PCOD9373242 Si02
#       6
#     4   4   8   8   8   8
#     4  10  18  28  48  82 118 146 177 218 273 332
#     4   8  16  32  52  78 110 144 185 224 267 322
#     4   9  19  36  59  84 106 138 191 241 273 319
#     4  10  22  37  54  81 114 147 182 225 282 336
#     4   9  18  34  58  82 108 144 188 234 278 323
#     4   9  18  33  55  83 110 141 182 227 276 330
#
# _framework density 24.874731000000001
#
# number of rings (size 3 to 8) (size 9 to 14) (size 15 to 20)
#    0.000    2.800    0.000    2.100    2.800    4.400 
#    0.000    3.000    0.000    1.800    0.000    0.000 
#    0.000    0.000    0.000    0.000    0.000    0.000 
#
# Total GULP energy -111716.047602 kJ/mol
# GULP energy per Si atom -5585.802380 kJ/mol
# Density = 2.481812 g / cm^3
# Si number density = 24.874731 Si / 1000 Ang^3
#
#
#
# Elastic Constant Matrix: (Units=GPa)
#
#
# Indices 1 2 3 4 5 6 
#
# 1 198.5702 -2.1317 65.7306 0.0000 0.0000 0.0000
# 2 -2.1317 93.8063 5.1335 0.0000 0.0000 0.0000
# 3 65.7306 5.1335 91.2511 0.0000 0.0000 0.0000
# 4 0.0000 0.0000 0.0000 8.0856 0.0000 0.0000
# 5 0.0000 0.0000 0.0000 0.0000 37.7948 0.0000
# 6 0.0000 0.0000 0.0000 0.0000 0.0000 0.0498
#
#
#
# Elastic Compliance Matrix: (Units=1/GPa)
#
#
# Indices 1 2 3 4 5 6 
#
# 1 0.006629 0.000413 -0.004798 0.000000 0.000000 0.000000
# 2 0.000413 0.010719 -0.000901 0.000000 0.000000 0.000000
# 3 -0.004798 -0.000901 0.014466 0.000000 0.000000 0.000000
# 4 0.000000 0.000000 0.000000 0.123676 0.000000 0.000000
# 5 0.000000 0.000000 0.000000 0.000000 0.026459 0.000000
# 6 0.000000 0.000000 0.000000 0.000000 0.000000 20.096003
#
#
# Mechanical properties :
#
#
# Convention : Reuss Voigt Hill
#
# Bulk Modulus (GPa) = 47.07608 57.89916 52.48762
# Shear Modulus (GPa) = 0.24636 30.17904 15.21270
#
# Velocity S-wave (km/s) = 0.31505 3.48694 2.47568
# Velocity P-wave (km/s) = 4.37020 6.28796 5.41466
#
# Compressibility (1/GPa) = 0.02124221
#
# Stress axis : x y z
#
# Youngs Moduli (GPa) = 150.85931 93.29274 69.12946
#
# Poissons Ratio (x) = -0.03855 0.33169
# Poissons Ratio (y) = -0.06234 0.06226
# Poissons Ratio (z) = 0.72383 0.08402
#
# Static dielectric constant tensor:
#      x y z
#    x 1.979690 0.000000 0.000000 
#    y 0.000000 1.969340 0.000000 
#    z 0.000000 0.000000 1.983920 
# 
# From -- ./inp_files/23609.got.cif
#   From: 2010.05.17/outbox.cif.g08.bks.cpg/sg44_12_cif.got.tgz:23609.got - 2010.06.03 19:37:08.
