data_PCOD9373378
_publ_section_title
;
Structure prediction by ZEFSAII (Michael W. Deem and Ramdas Pophale) SiO2 
 PCOD9373378
Probable space group: I M M 2
;
_chemical_formula_sum "Si O2"
_cell_formula_units_Z 26
_cell_length_a 17.033676
_cell_length_b 8.366712
_cell_length_c 7.316987
_cell_angle_alpha 90.000000
_cell_angle_beta 90.000000
_cell_angle_gamma 90.000000
_cell_volume 1042.786705
_symmetry_space_group_name_H-M "I M M 2"
_symmetry_group_IT_number 44
_symmetry_cell_setting 'orthorhombic'
loop_
_space_group_symop_operation_xyz
x,y,z
-x,-y,z
-x,y,z
x,-y,z
1/2+x,1/2+y,1/2+z
1/2-x,1/2-y,1/2+z
1/2-x,1/2+y,1/2+z
1/2+x,1/2-y,1/2+z
loop_
_atom_site_type_symbol
_atom_site_label
_atom_site_fract_x
_atom_site_fract_y
_atom_site_fract_z
Si Si1 0.830207 0.322679 0.724450
Si Si2 0.409725 0.500000 0.757612
Si Si3 0.500000 0.500000 0.410059
Si Si4 0.669694 0.820997 0.659732
Si Si5 0.500000 0.176447 0.195242
O O1 0.796171 0.500000 0.691101
O O2 0.763853 0.196938 0.675480
O O3 0.912291 0.316653 0.615651
O O4 0.848222 0.311336 0.941929
O O5 0.500000 0.500000 0.839200
O O6 0.426256 0.500000 0.541417
O O7 0.365913 0.329533 0.772183
O O8 0.500000 0.339133 0.303221
O O9 0.645367 0.000000 0.719564
O O10 0.500000 0.000000 0.288802
#
# Coordination Sequence:
#
# PCOD9373378 Si02
#       5
#     8   4   2   8   4
#     4  10  21  38  59  85 117 151 193 235 284 338
#     4  10  20  36  58  82 116 147 190 238 283 339
#     4  10  18  30  62  78 108 148 190 226 286 328
#     4  11  23  36  59  89 116 151 190 236 287 340
#     4  10  20  34  56  85 114 146 194 238 272 338
#
# _framework density 24.933191999999998
#
# number of rings (size 3 to 8) (size 9 to 14) (size 15 to 20)
#    0.462    1.231    4.615    0.000    4.308    0.615 
#    0.000    0.000    3.385    0.000    0.000    0.000 
#    0.000    0.000    0.000    0.000    0.000    0.000 
#
# Total GULP energy -72413.398934 kJ/mol
# GULP energy per Si atom -5570.261456 kJ/mol
# Density = 2.487644 g / cm^3
# Si number density = 24.933192 Si / 1000 Ang^3
#
#
#
# Elastic Constant Matrix: (Units=GPa)
#
#
# Indices 1 2 3 4 5 6 
#
# 1 146.2542 73.3955 16.0336 0.0000 0.0000 0.0000
# 2 73.3955 191.7164 45.5806 0.0000 0.0000 0.0000
# 3 16.0336 45.5806 71.0548 0.0000 0.0000 0.0000
# 4 0.0000 0.0000 0.0000 24.5229 0.0000 0.0000
# 5 0.0000 0.0000 0.0000 0.0000 15.5141 0.0000
# 6 0.0000 0.0000 0.0000 0.0000 0.0000 43.8041
#
#
#
# Elastic Compliance Matrix: (Units=1/GPa)
#
#
# Indices 1 2 3 4 5 6 
#
# 1 0.008466 -0.003288 0.000199 0.000000 0.000000 0.000000
# 2 -0.003288 0.007432 -0.004025 0.000000 0.000000 0.000000
# 3 0.000199 -0.004025 0.016611 0.000000 0.000000 0.000000
# 4 0.000000 0.000000 0.000000 0.040778 0.000000 0.000000
# 5 0.000000 0.000000 0.000000 0.000000 0.064458 0.000000
# 6 0.000000 0.000000 0.000000 0.000000 0.000000 0.022829
#
#
# Mechanical properties :
#
#
# Convention : Reuss Voigt Hill
#
# Bulk Modulus (GPa) = 54.70657 75.44942 65.07800
# Shear Modulus (GPa) = 27.64019 35.03593 31.33806
#
# Velocity S-wave (km/s) = 3.33313 3.75266 3.54910
# Velocity P-wave (km/s) = 6.06646 7.00735 6.55381
#
# Compressibility (1/GPa) = 0.01827934
#
# Stress axis : x y z
#
# Youngs Moduli (GPa) = 118.12262 134.55372 60.20101
#
# Poissons Ratio (x) = 0.44246 -0.01199
# Poissons Ratio (y) = 0.38842 0.24234
# Poissons Ratio (z) = -0.02352 0.54164
#
# Static dielectric constant tensor:
#      x y z
#    x 2.034650 0.000000 0.000000 
#    y 0.000000 1.965710 0.000000 
#    z 0.000000 0.000000 2.002570 
# 
# From -- ./inp_files/4061.got.cif
#   From: 2010.05.17/outbox.cif.g08.bks.cpg/sg44_3_cif.got.tgz:4061.got - 2010.06.03 19:37:08.
