data_PCOD9373239
_publ_section_title
;
Structure prediction by ZEFSAII (Michael W. Deem and Ramdas Pophale) SiO2 
 PCOD9373239
Probable space group: I M M 2
;
_chemical_formula_sum "Si O2"
_cell_formula_units_Z 64
_cell_length_a 14.817025
_cell_length_b 8.911103
_cell_length_c 28.846571
_cell_angle_alpha 90.000000
_cell_angle_beta 90.000000
_cell_angle_gamma 90.000000
_cell_volume 3808.786885
_symmetry_space_group_name_H-M "I M M 2"
_symmetry_group_IT_number 44
_symmetry_cell_setting 'orthorhombic'
loop_
_space_group_symop_operation_xyz
x,y,z
-x,-y,z
-x,y,z
x,-y,z
1/2+x,1/2+y,1/2+z
1/2-x,1/2-y,1/2+z
1/2-x,1/2+y,1/2+z
1/2+x,1/2-y,1/2+z
loop_
_atom_site_type_symbol
_atom_site_label
_atom_site_fract_x
_atom_site_fract_y
_atom_site_fract_z
Si Si1 0.102524 0.182640 0.064580
Si Si2 0.106244 0.177750 0.890845
Si Si3 0.606997 0.321661 0.831974
Si Si4 0.896701 0.180631 0.439165
Si Si5 0.224076 0.321928 0.251308
Si Si6 0.104614 0.320971 0.791715
Si Si7 0.224761 0.181122 0.979855
Si Si8 0.605084 0.319249 0.671203
O O1 0.122454 0.224635 0.117692
O O2 0.000000 0.230527 0.053217
O O3 0.101949 0.000000 0.063585
O O4 0.173480 0.233211 0.026146
O O5 0.126656 0.267248 0.844019
O O6 0.165534 0.223676 0.934765
O O7 0.000000 0.197510 0.901591
O O8 0.120985 0.000000 0.882156
O O9 0.500000 0.300474 0.823140
O O10 0.625535 0.500000 0.826875
O O11 0.623939 0.278566 0.885476
O O12 0.666632 0.231493 0.795942
O O13 0.823572 0.252985 0.472456
O O14 0.000000 0.225540 0.448849
O O15 0.892319 0.000000 0.441612
O O16 0.228043 0.500000 0.249637
O O17 0.323773 0.254432 0.257767
O O18 0.172187 0.257640 0.206804
O O19 0.112181 0.500000 0.789145
O O20 0.000000 0.278577 0.782924
O O21 0.228864 0.000000 0.980849
O O22 0.500000 0.282876 0.681739
O O23 0.613560 0.500000 0.674854
#
# Coordination Sequence:
#
# PCOD9373239 Si02
#       8
#     8   8   8   8   8   8   8   8
#     4   8  15  30  52  76 100 126 157 193 234 282
#     4   9  17  29  46  72 106 135 156 187 237 290
#     4   9  18  33  51  70  96 132 171 205 236 279
#     4   9  19  34  48  64  92 131 169 203 239 278
#     4  12  23  32  48  74 102 129 157 197 249 298
#     4  10  21  36  52  69  93 129 171 208 237 275
#     4  10  18  28  48  76 100 125 160 199 237 280
#     4   9  18  34  55  75  97 128 163 197 235 284
#
# _framework density 16.803250999999999
#
# number of rings (size 3 to 8) (size 9 to 14) (size 15 to 20)
#    0.000    2.500    0.000    4.500    0.000    7.500 
#    0.000    1.875    0.000    2.625    0.000    1.750 
#    0.000    0.000    0.000    0.000    0.000    0.000 
#
# Total GULP energy -178568.630936 kJ/mol
# GULP energy per Si atom -5580.269717 kJ/mol
# Density = 1.676501 g / cm^3
# Si number density = 16.803251 Si / 1000 Ang^3
#
#
#
# Elastic Constant Matrix: (Units=GPa)
#
#
# Indices 1 2 3 4 5 6 
#
# 1 121.9957 47.0962 100.6708 0.0000 0.0000 0.0000
# 2 47.0962 36.4848 42.6356 0.0000 0.0000 0.0000
# 3 100.6708 42.6356 108.9091 0.0000 0.0000 0.0000
# 4 0.0000 0.0000 0.0000 19.1140 0.0000 0.0000
# 5 0.0000 0.0000 0.0000 0.0000 32.4868 0.0000
# 6 0.0000 0.0000 0.0000 0.0000 0.0000 25.0515
#
#
#
# Elastic Compliance Matrix: (Units=1/GPa)
#
#
# Indices 1 2 3 4 5 6 
#
# 1 0.038527 -0.014959 -0.029756 0.000000 0.000000 0.000000
# 2 -0.014959 0.056329 -0.008224 0.000000 0.000000 0.000000
# 3 -0.029756 -0.008224 0.039907 0.000000 0.000000 0.000000
# 4 0.000000 0.000000 0.000000 0.052318 0.000000 0.000000
# 5 0.000000 0.000000 0.000000 0.000000 0.030782 0.000000
# 6 0.000000 0.000000 0.000000 0.000000 0.000000 0.039918
#
#
# Mechanical properties :
#
#
# Convention : Reuss Voigt Hill
#
# Bulk Modulus (GPa) = 34.62150 72.02166 53.32158
# Shear Modulus (GPa) = 13.39450 20.46295 16.92873
#
# Velocity S-wave (km/s) = 2.82643 3.49348 3.17751
# Velocity P-wave (km/s) = 5.59467 7.69593 6.72784
#
# Compressibility (1/GPa) = 0.02888379
#
# Stress axis : x y z
#
# Youngs Moduli (GPa) = 25.95578 17.75281 25.05830
#
# Poissons Ratio (x) = 0.26557 0.74565
# Poissons Ratio (y) = 0.38828 0.20607
# Poissons Ratio (z) = 0.77235 0.14600
#
# Static dielectric constant tensor:
#      x y z
#    x 1.569920 0.000000 0.000000 
#    y 0.000000 1.562750 0.000000 
#    z 0.000000 0.000000 1.552600 
# 
# From -- ./inp_files/27530.got.cif
#   From: 2010.05.17/outbox.cif.g08.bks.cpg/sg44_14_cif.got.tgz:27530.got - 2010.06.03 19:37:08.
