data_PCOD9373620
_publ_section_title
;
Structure prediction by ZEFSAII (Michael W. Deem and Ramdas Pophale) SiO2 
 PCOD9373620
Probable space group: I M M 2
;
_chemical_formula_sum "Si O2"
_cell_formula_units_Z 56
_cell_length_a 14.279373
_cell_length_b 7.745327
_cell_length_c 30.479205
_cell_angle_alpha 90.000000
_cell_angle_beta 90.000000
_cell_angle_gamma 90.000000
_cell_volume 3370.951710
_symmetry_space_group_name_H-M "I M M 2"
_symmetry_group_IT_number 44
_symmetry_cell_setting 'orthorhombic'
loop_
_space_group_symop_operation_xyz
x,y,z
-x,-y,z
-x,y,z
x,-y,z
1/2+x,1/2+y,1/2+z
1/2-x,1/2-y,1/2+z
1/2-x,1/2+y,1/2+z
1/2+x,1/2-y,1/2+z
loop_
_atom_site_type_symbol
_atom_site_label
_atom_site_fract_x
_atom_site_fract_y
_atom_site_fract_z
Si Si1 0.717880 0.294628 0.879320
Si Si2 0.106849 0.292310 0.465709
Si Si3 0.280181 0.202528 0.240683
Si Si4 0.393696 0.288156 0.793707
Si Si5 0.613790 0.199624 0.061107
Si Si6 0.108624 0.712451 0.656936
Si Si7 0.394357 0.295809 0.326422
O O1 0.719271 0.500000 0.876486
O O2 0.676552 0.246521 0.926261
O O3 0.647901 0.231983 0.840754
O O4 0.821567 0.234680 0.865935
O O5 0.101337 0.500000 0.469783
O O6 0.138521 0.224055 0.513615
O O7 0.000000 0.230824 0.456395
O O8 0.180659 0.272893 0.257347
O O9 0.328183 0.274749 0.197134
O O10 0.349301 0.216878 0.282440
O O11 0.265612 0.000000 0.232031
O O12 0.500000 0.231928 0.787495
O O13 0.393143 0.500000 0.793509
O O14 0.500000 0.197779 0.061364
O O15 0.640449 0.273380 0.108558
O O16 0.645775 0.000000 0.061196
O O17 0.109367 0.500000 0.656213
O O18 0.000000 0.761639 0.663824
O O19 0.500000 0.232188 0.334214
O O20 0.398185 0.500000 0.318893
#
# Coordination Sequence:
#
# PCOD9373620 Si02
#       7
#     8   8   8   8   8   8   8
#     4  10  19  29  43  61  80 106 140 173 206 247
#     4   9  16  26  41  61  85 112 141 172 207 249
#     4   9  16  25  41  63  82 106 141 174 204 240
#     4   8  14  24  36  53  79 106 130 160 198 236
#     4   7  11  20  34  54  80 108 136 167 204 244
#     4   8  12  19  34  57  82 105 134 172 206 239
#     4  10  20  32  44  59  82 109 134 165 208 255
#
# _framework density 16.612518999999999
#
# number of rings (size 3 to 8) (size 9 to 14) (size 15 to 20)
#    0.000    3.286    0.000    4.286    0.000    2.571 
#    0.000    0.000    0.000    4.714    0.000    3.000 
#    0.000    5.714    0.000    0.143    0.000    0.571 
#
# Total GULP energy -155868.014423 kJ/mol
# GULP energy per Si atom -5566.714801 kJ/mol
# Density = 1.657471 g / cm^3
# Si number density = 16.612519 Si / 1000 Ang^3
#
#
#
# Elastic Constant Matrix: (Units=GPa)
#
#
# Indices 1 2 3 4 5 6 
#
# 1 123.5881 0.2019 74.1250 0.0000 0.0000 0.0000
# 2 0.2019 22.3951 -4.6954 0.0000 0.0000 0.0000
# 3 74.1250 -4.6954 140.1484 0.0000 0.0000 0.0000
# 4 0.0000 0.0000 0.0000 10.1948 0.0000 0.0000
# 5 0.0000 0.0000 0.0000 0.0000 24.9587 0.0000
# 6 0.0000 0.0000 0.0000 0.0000 0.0000 5.2841
#
#
#
# Elastic Compliance Matrix: (Units=1/GPa)
#
#
# Indices 1 2 3 4 5 6 
#
# 1 0.011896 -0.001437 -0.006340 0.000000 0.000000 0.000000
# 2 -0.001437 0.045142 0.002272 0.000000 0.000000 0.000000
# 3 -0.006340 0.002272 0.010565 0.000000 0.000000 0.000000
# 4 0.000000 0.000000 0.000000 0.098089 0.000000 0.000000
# 5 0.000000 0.000000 0.000000 0.000000 0.040066 0.000000
# 6 0.000000 0.000000 0.000000 0.000000 0.000000 0.189247
#
#
# Mechanical properties :
#
#
# Convention : Reuss Voigt Hill
#
# Bulk Modulus (GPa) = 17.66971 47.26608 32.46789
# Shear Modulus (GPa) = 11.76807 22.52087 17.14447
#
# Velocity S-wave (km/s) = 2.66444 3.68592 3.21599
# Velocity P-wave (km/s) = 4.48610 6.82851 5.77727
#
# Compressibility (1/GPa) = 0.05659403
#
# Stress axis : x y z
#
# Youngs Moduli (GPa) = 84.05894 22.15234 94.65432
#
# Poissons Ratio (x) = 0.03182 0.60013
# Poissons Ratio (y) = 0.12076 -0.21507
# Poissons Ratio (z) = 0.53295 -0.05033
#
# Static dielectric constant tensor:
#      x y z
#    x 1.556150 0.000000 0.000000 
#    y 0.000000 1.625460 0.000000 
#    z 0.000000 0.000000 1.594900 
# 
# From -- ./inp_files/27214.got.cif
#   From: 2010.05.17/outbox.cif.g08.bks.cpg/sg44_14_cif.got.tgz:27214.got - 2010.06.03 19:37:08.
