data_PCOD9373600
_publ_section_title
;
Structure prediction by ZEFSAII (Michael W. Deem and Ramdas Pophale) SiO2 
 PCOD9373600
Probable space group: I M M 2
;
_chemical_formula_sum "Si O2"
_cell_formula_units_Z 56
_cell_length_a 14.108228
_cell_length_b 8.794795
_cell_length_c 29.974467
_cell_angle_alpha 90.000000
_cell_angle_beta 90.000000
_cell_angle_gamma 90.000000
_cell_volume 3719.201084
_symmetry_space_group_name_H-M "I M M 2"
_symmetry_group_IT_number 44
_symmetry_cell_setting 'orthorhombic'
loop_
_space_group_symop_operation_xyz
x,y,z
-x,-y,z
-x,y,z
x,-y,z
1/2+x,1/2+y,1/2+z
1/2-x,1/2-y,1/2+z
1/2-x,1/2+y,1/2+z
1/2+x,1/2-y,1/2+z
loop_
_atom_site_type_symbol
_atom_site_label
_atom_site_fract_x
_atom_site_fract_y
_atom_site_fract_z
Si Si1 0.888964 0.316028 0.284450
Si Si2 0.385046 0.824594 0.685539
Si Si3 0.609318 0.817759 0.958902
Si Si4 0.716157 0.182265 0.508575
Si Si5 0.705059 0.682853 0.871431
Si Si6 0.388958 0.680942 0.592435
Si Si7 0.393832 0.815506 0.419180
O O1 0.884689 0.500000 0.286102
O O2 0.855502 0.269774 0.234733
O O3 0.829546 0.245439 0.324351
O O4 0.000000 0.273533 0.289798
O O5 0.500000 0.824630 0.687364
O O6 0.358193 0.729315 0.642207
O O7 0.355141 0.000000 0.679648
O O8 0.500000 0.779821 0.968379
O O9 0.640087 0.748315 0.911245
O O10 0.618439 0.000000 0.956767
O O11 0.682814 0.752163 0.994944
O O12 0.673920 0.240725 0.554751
O O13 0.644734 0.227032 0.468220
O O14 0.723168 0.000000 0.508699
O O15 0.699651 0.500000 0.872291
O O16 0.812529 0.729815 0.884252
O O17 0.500000 0.726999 0.587065
O O18 0.383822 0.500000 0.587795
O O19 0.500000 0.758487 0.411156
O O20 0.396971 0.000000 0.418396
#
# Coordination Sequence:
#
# PCOD9373600 Si02
#       7
#     8   8   8   8   8   8   8
#     4   9  17  29  44  62  87 119 149 178 218 266
#     4   8  15  28  44  61  83 114 150 182 216 263
#     4  10  20  33  47  63  88 120 149 181 222 265
#     4  10  19  30  47  68  88 115 151 186 220 260
#     4  10  19  28  43  67  89 114 149 184 219 261
#     4  10  19  29  43  66  95 122 147 179 220 265
#     4   8  15  28  43  60  84 113 145 179 212 249
#
# _framework density 15.056998
#
# number of rings (size 3 to 8) (size 9 to 14) (size 15 to 20)
#    0.000    2.714    0.000    4.286    0.000    5.143 
#    0.000    1.429    0.000    8.571    0.000    1.000 
#    0.000    3.429    0.000    0.000    0.000    0.000 
#
# Total GULP energy -156027.647457 kJ/mol
# GULP energy per Si atom -5572.415981 kJ/mol
# Density = 1.502273 g / cm^3
# Si number density = 15.056998 Si / 1000 Ang^3
#
#
#
# Elastic Constant Matrix: (Units=GPa)
#
#
# Indices 1 2 3 4 5 6 
#
# 1 106.2147 37.1765 69.6755 0.0000 0.0000 0.0000
# 2 37.1765 40.1114 41.6771 0.0000 0.0000 0.0000
# 3 69.6755 41.6771 137.1154 0.0000 0.0000 0.0000
# 4 0.0000 0.0000 0.0000 28.0973 0.0000 0.0000
# 5 0.0000 0.0000 0.0000 0.0000 23.0268 0.0000
# 6 0.0000 0.0000 0.0000 0.0000 0.0000 18.6456
#
#
#
# Elastic Compliance Matrix: (Units=1/GPa)
#
#
# Indices 1 2 3 4 5 6 
#
# 1 0.016265 -0.009482 -0.005383 0.000000 0.000000 0.000000
# 2 -0.009482 0.041966 -0.007938 0.000000 0.000000 0.000000
# 3 -0.005383 -0.007938 0.012441 0.000000 0.000000 0.000000
# 4 0.000000 0.000000 0.000000 0.035591 0.000000 0.000000
# 5 0.000000 0.000000 0.000000 0.000000 0.043428 0.000000
# 6 0.000000 0.000000 0.000000 0.000000 0.000000 0.053632
#
#
# Mechanical properties :
#
#
# Convention : Reuss Voigt Hill
#
# Bulk Modulus (GPa) = 39.89253 64.49996 52.19625
# Shear Modulus (GPa) = 19.43390 22.94810 21.19100
#
# Velocity S-wave (km/s) = 3.59651 3.90818 3.75558
# Velocity P-wave (km/s) = 6.61804 7.95584 7.31758
#
# Compressibility (1/GPa) = 0.02506735
#
# Stress axis : x y z
#
# Youngs Moduli (GPa) = 61.48282 23.82884 80.37794
#
# Poissons Ratio (x) = 0.22593 0.43267
# Poissons Ratio (y) = 0.58295 0.63802
# Poissons Ratio (z) = 0.33096 0.18915
#
# Static dielectric constant tensor:
#      x y z
#    x 1.491150 0.000000 0.000000 
#    y 0.000000 1.504830 0.000000 
#    z 0.000000 0.000000 1.492060 
# 
# From -- ./inp_files/27233.got.cif
#   From: 2010.05.17/outbox.cif.g08.bks.cpg/sg44_14_cif.got.tgz:27233.got - 2010.06.03 19:37:08.
