data_PCOD9373440
_publ_section_title
;
Structure prediction by ZEFSAII (Michael W. Deem and Ramdas Pophale) SiO2 
 PCOD9373440
Probable space group: I M M 2
;
_chemical_formula_sum "Si O2"
_cell_formula_units_Z 64
_cell_length_a 7.774381
_cell_length_b 31.504732
_cell_length_c 14.888442
_cell_angle_alpha 90.000000
_cell_angle_beta 90.000000
_cell_angle_gamma 90.000000
_cell_volume 3646.622971
_symmetry_space_group_name_H-M "I M M 2"
_symmetry_group_IT_number 44
_symmetry_cell_setting 'orthorhombic'
loop_
_space_group_symop_operation_xyz
x,y,z
-x,-y,z
-x,y,z
x,-y,z
1/2+x,1/2+y,1/2+z
1/2-x,1/2-y,1/2+z
1/2-x,1/2+y,1/2+z
1/2+x,1/2-y,1/2+z
loop_
_atom_site_type_symbol
_atom_site_label
_atom_site_fract_x
_atom_site_fract_y
_atom_site_fract_z
Si Si1 0.704925 0.267037 0.319600
Si Si2 0.296889 0.715697 0.119605
Si Si3 0.710504 0.952009 0.439511
Si Si4 0.289723 0.952129 0.231476
Si Si5 0.208501 0.297687 0.508255
Si Si6 0.702801 0.868048 0.142842
Si Si7 0.801445 0.171374 0.330337
Si Si8 0.695797 0.867135 0.514264
O O1 0.500000 0.260097 0.315021
O O2 0.768017 0.282415 0.221984
O O3 0.741024 0.296762 0.404386
O O4 0.790106 0.221825 0.339999
O O5 0.500000 0.723429 0.124799
O O6 0.227795 0.754494 0.058259
O O7 0.274499 0.669976 0.074183
O O8 0.500000 0.950679 0.440200
O O9 0.761808 0.944279 0.335398
O O10 0.772812 0.914322 0.504014
O O11 0.761890 0.000000 0.463328
O O12 0.500000 0.951137 0.231310
O O13 0.226696 0.914669 0.166802
O O14 0.237516 0.000000 0.207244
O O15 0.272935 0.338627 0.563341
O O16 0.000000 0.297471 0.512408
O O17 0.500000 0.873394 0.125202
O O18 0.724798 0.841695 0.234862
O O19 0.702268 0.150168 0.412323
O O20 0.000000 0.158037 0.334898
O O21 0.500000 0.871435 0.544723
#
# Coordination Sequence:
#
# PCOD9373440 Si02
#       8
#     8   8   8   8   8   8   8   8
#     4  11  22  37  52  66  92 129 166 199 234 280
#     4  10  21  35  49  69  97 125 157 200 240 275
#     4   8  14  25  44  71  98 122 154 195 231 273
#     4   8  13  23  44  72  97 123 157 194 231 276
#     4  10  20  33  49  71  98 125 157 200 242 277
#     4  10  18  32  50  69  97 131 164 196 234 281
#     4  12  22  30  45  69 100 130 161 200 234 274
#     4  11  20  31  50  72  95 129 166 193 232 288
#
# _framework density 17.550484000000001
#
# number of rings (size 3 to 8) (size 9 to 14) (size 15 to 20)
#    0.000    2.000    3.750    2.625    0.000    1.500 
#    0.000    0.000    0.000    2.625    0.000    0.875 
#    0.000    5.000    0.000    0.000    0.000    0.000 
#
# Total GULP energy -178459.985062 kJ/mol
# GULP energy per Si atom -5576.874533 kJ/mol
# Density = 1.751054 g / cm^3
# Si number density = 17.550484 Si / 1000 Ang^3
#
#
#
# Elastic Constant Matrix: (Units=GPa)
#
#
# Indices 1 2 3 4 5 6 
#
# 1 27.7617 8.3014 3.9086 0.0000 0.0000 0.0001
# 2 8.3014 101.1376 24.1613 -0.0001 0.0000 -0.0001
# 3 3.9086 24.1613 69.0699 -0.0002 0.0000 0.0001
# 4 0.0000 -0.0001 -0.0002 16.7644 0.0000 0.0002
# 5 0.0000 0.0000 0.0000 0.0000 14.2461 -0.0001
# 6 0.0001 -0.0001 0.0001 0.0002 -0.0001 42.4675
#
#
#
# Elastic Compliance Matrix: (Units=1/GPa)
#
#
# Indices 1 2 3 4 5 6 
#
# 1 0.037007 -0.002769 -0.001126 0.000000 0.000000 0.000000
# 2 -0.002769 0.010996 -0.003690 0.000000 0.000000 0.000000
# 3 -0.001126 -0.003690 0.015833 0.000000 0.000000 0.000000
# 4 0.000000 0.000000 0.000000 0.059650 0.000000 0.000000
# 5 0.000000 0.000000 0.000000 0.000000 0.070194 0.000000
# 6 0.000000 0.000000 0.000000 0.000000 0.000000 0.023547
#
#
# Mechanical properties :
#
#
# Convention : Reuss Voigt Hill
#
# Bulk Modulus (GPa) = 20.54758 30.07907 25.31332
# Shear Modulus (GPa) = 20.11107 25.46880 22.78993
#
# Velocity S-wave (km/s) = 3.38878 3.81356 3.60743
# Velocity P-wave (km/s) = 5.20047 6.04705 5.63967
#
# Compressibility (1/GPa) = 0.04866753
#
# Stress axis : x y z
#
# Youngs Moduli (GPa) = 27.02175 90.93988 63.16097
#
# Poissons Ratio (x) = 0.25178 0.07110
# Poissons Ratio (y) = 0.07481 0.23306
# Poissons Ratio (z) = 0.03042 0.33556
#
# Static dielectric constant tensor:
#      x y z
#    x 1.649550 0.000000 0.000000 
#    y 0.000000 1.630860 0.000000 
#    z 0.000000 0.000000 1.579570 
# 
# From -- ./inp_files/17134.got.cif
#   From: 2010.05.17/outbox.cif.g08.bks.cpg/sg44_9_cif.got.tgz:17134.got - 2010.06.03 19:37:08.
