data_PCOD9373733
_publ_section_title
;
Structure prediction by ZEFSAII (Michael W. Deem and Ramdas Pophale) SiO2 
 PCOD9373733
Probable space group: I M M 2
;
_chemical_formula_sum "Si O2"
_cell_formula_units_Z 64
_cell_length_a 29.003408
_cell_length_b 9.569889
_cell_length_c 12.309811
_cell_angle_alpha 90.000000
_cell_angle_beta 90.000000
_cell_angle_gamma 90.000000
_cell_volume 3416.703696
_symmetry_space_group_name_H-M "I M M 2"
_symmetry_group_IT_number 44
_symmetry_cell_setting 'orthorhombic'
loop_
_space_group_symop_operation_xyz
x,y,z
-x,-y,z
-x,y,z
x,-y,z
1/2+x,1/2+y,1/2+z
1/2-x,1/2-y,1/2+z
1/2-x,1/2+y,1/2+z
1/2+x,1/2-y,1/2+z
loop_
_atom_site_type_symbol
_atom_site_label
_atom_site_fract_x
_atom_site_fract_y
_atom_site_fract_z
Si Si1 0.070821 0.340186 0.716070
Si Si2 0.446743 0.332922 0.434007
Si Si3 0.855212 0.161226 0.410258
Si Si4 0.783814 0.158150 0.792579
Si Si5 0.048192 0.153304 0.520197
Si Si6 0.157339 0.833531 0.013223
Si Si7 0.327244 0.840088 0.114659
Si Si8 0.680456 0.161451 0.723550
O O1 0.057080 0.500000 0.733198
O O2 0.059657 0.249636 0.821344
O O3 0.048600 0.269791 0.611334
O O4 0.124430 0.337794 0.680584
O O5 0.500000 0.302058 0.474852
O O6 0.445473 0.500000 0.415948
O O7 0.397970 0.302017 0.497607
O O8 0.908390 0.163379 0.444302
O O9 0.830596 0.244938 0.507886
O O10 0.851163 0.243842 0.299222
O O11 0.839421 0.000000 0.403028
O O12 0.793676 0.270173 0.699971
O O13 0.728477 0.158213 0.791662
O O14 0.798474 0.000000 0.759233
O O15 0.812776 0.188614 0.902124
O O16 0.000000 0.159253 0.458846
O O17 0.051451 0.000000 0.575213
O O18 0.179643 0.737799 0.106906
O O19 0.161120 0.000000 0.038408
O O20 0.316328 0.000000 0.086165
O O21 0.666135 0.000000 0.710803
#
# Coordination Sequence:
#
# PCOD9373733 Si02
#       8
#     8   8   8   8   8   8   8   8
#     4  10  19  30  48  81 121 155 186 230 290 352
#     4  10  20  35  58  85 114 154 202 248 293 348
#     4  10  21  38  60  84 115 154 196 238 289 344
#     4  10  22  40  62  88 116 152 193 238 291 351
#     4   9  18  33  54  80 111 151 198 243 285 337
#     4  10  22  42  64  86 119 158 200 247 299 357
#     4  10  20  34  56  86 120 154 190 234 286 344
#     4  11  25  42  61  88 119 152 198 247 297 353
#
# _framework density 18.731504000000001
#
# number of rings (size 3 to 8) (size 9 to 14) (size 15 to 20)
#    0.000    2.000    1.250    1.875    1.750    5.500 
#    0.000    0.625    0.000    3.750    0.000    0.000 
#    0.000    0.000    0.000    0.000    0.000    0.000 
#
# Total GULP energy -178213.293937 kJ/mol
# GULP energy per Si atom -5569.165436 kJ/mol
# Density = 1.868887 g / cm^3
# Si number density = 18.731504 Si / 1000 Ang^3
#
#
#
# Elastic Constant Matrix: (Units=GPa)
#
#
# Indices 1 2 3 4 5 6 
#
# 1 60.5970 33.1574 23.4846 0.0000 0.0000 0.0000
# 2 33.1574 98.3608 48.5613 0.0000 0.0000 0.0000
# 3 23.4846 48.5613 69.7055 0.0000 0.0000 0.0000
# 4 0.0000 0.0000 0.0000 28.9327 0.0000 0.0000
# 5 0.0000 0.0000 0.0000 0.0000 -89.4461 0.0000
# 6 0.0000 0.0000 0.0000 0.0000 0.0000 18.1572
#
#
#
# Elastic Compliance Matrix: (Units=1/GPa)
#
#
# Indices 1 2 3 4 5 6 
#
# 1 0.020698 -0.005388 -0.003220 0.000000 0.000000 0.000000
# 2 -0.005388 0.016899 -0.009958 0.000000 0.000000 0.000000
# 3 -0.003220 -0.009958 0.022368 0.000000 0.000000 0.000000
# 4 0.000000 0.000000 0.000000 0.034563 0.000000 0.000000
# 5 0.000000 0.000000 0.000000 0.000000 -0.011180 0.000000
# 6 0.000000 0.000000 0.000000 0.000000 0.000000 0.055075
#
#
# Mechanical properties :
#
#
# Convention : Reuss Voigt Hill
#
# Bulk Modulus (GPa) = 43.79336 48.78553 46.28945
# Shear Modulus (GPa) = 27.29764 -0.24057 13.52854
#
# Velocity S-wave (km/s) = 3.82162 -0.35876 2.69036
# Velocity P-wave (km/s) = 6.55006 5.09211 5.86655
#
# Compressibility (1/GPa) = 0.02283451
#
# Stress axis : x y z
#
# Youngs Moduli (GPa) = 48.31285 59.17499 44.70625
#
# Poissons Ratio (x) = 0.31881 0.14396
# Poissons Ratio (y) = 0.26029 0.44518
# Poissons Ratio (z) = 0.15558 0.58925
#
# Static dielectric constant tensor:
#      x y z
#    x 1.771140 0.000000 0.000000 
#    y 0.000000 1.654320 0.000000 
#    z 0.000000 0.000000 1.608270 
# 
# From -- ./inp_files/15075.got.cif
#   From: 2010.05.17/outbox.cif.g08.bks.cpg/sg44_8_cif.got.tgz:15075.got - 2010.06.03 19:37:08.
