data_PCOD9373002
_publ_section_title
;
Structure prediction by ZEFSAII (Michael W. Deem and Ramdas Pophale) SiO2 
 PCOD9373002
Probable space group: I M M 2
;
_chemical_formula_sum "Si O2"
_cell_formula_units_Z 56
_cell_length_a 7.399950
_cell_length_b 22.025195
_cell_length_c 14.646560
_cell_angle_alpha 90.000000
_cell_angle_beta 90.000000
_cell_angle_gamma 90.000000
_cell_volume 2387.174587
_symmetry_space_group_name_H-M "I M M 2"
_symmetry_group_IT_number 44
_symmetry_cell_setting 'orthorhombic'
loop_
_space_group_symop_operation_xyz
x,y,z
-x,-y,z
-x,y,z
x,-y,z
1/2+x,1/2+y,1/2+z
1/2-x,1/2-y,1/2+z
1/2-x,1/2+y,1/2+z
1/2+x,1/2-y,1/2+z
loop_
_atom_site_type_symbol
_atom_site_label
_atom_site_fract_x
_atom_site_fract_y
_atom_site_fract_z
Si Si1 0.293762 0.500000 0.114511
Si Si2 0.780939 0.500000 0.903139
Si Si3 0.781275 0.431725 0.404268
Si Si4 0.280643 0.119334 0.293497
Si Si5 0.214283 0.860662 0.633561
Si Si6 0.719563 0.930897 0.111643
Si Si7 0.216755 0.712016 0.945790
Si Si8 0.703192 0.688730 0.315525
O O1 0.500000 0.500000 0.148698
O O2 0.215559 0.568557 0.135783
O O3 0.293840 0.500000 0.004369
O O4 0.727301 0.558737 0.846594
O O5 0.000000 0.500000 0.910692
O O6 0.732309 0.500000 0.378178
O O7 0.722314 0.420687 0.508611
O O8 0.698898 0.381520 0.341389
O O9 0.000000 0.427538 0.400618
O O10 0.500000 0.120508 0.291521
O O11 0.218328 0.114887 0.189494
O O12 0.224025 0.173600 0.357289
O O13 0.229291 0.824907 0.536783
O O14 0.287923 0.816546 0.714375
O O15 0.000000 0.866371 0.648953
O O16 0.500000 0.929784 0.110297
O O17 0.769381 0.000000 0.137589
O O18 0.277259 0.778094 0.907358
O O19 0.000000 0.713499 0.955049
O O20 0.500000 0.714173 0.303126
#
# Coordination Sequence:
#
# PCOD9373002 Si02
#       8
#     4   4   8   8   8   8   8   8
#     4  10  20  34  54  81 114 148 186 235 286 339
#     4  10  16  26  50  81 106 138 182 229 284 331
#     4   9  19  35  56  83 110 140 187 242 288 332
#     4   9  15  25  47  78 108 137 175 225 277 326
#     4  10  22  39  59  84 114 151 193 234 285 345
#     4   8  13  24  45  76 108 133 165 214 268 320
#     4  10  21  37  56  82 113 144 188 238 279 333
#     4  10  23  40  58  81 112 151 191 230 283 351
#
# _framework density 23.458696
#
# number of rings (size 3 to 8) (size 9 to 14) (size 15 to 20)
#    0.000    2.571    2.143    0.857    1.000    2.571 
#    0.000    2.857    0.000    1.714    0.000    0.000 
#    0.000    0.000    0.000    0.000    0.000    0.000 
#
# Total GULP energy -156028.249290 kJ/mol
# GULP energy per Si atom -5572.437475 kJ/mol
# Density = 2.340530 g / cm^3
# Si number density = 23.458696 Si / 1000 Ang^3
#
#
#
# Elastic Constant Matrix: (Units=GPa)
#
#
# Indices 1 2 3 4 5 6 
#
# 1 78.1838 6.3910 2.7723 0.0000 0.0000 0.0000
# 2 6.3910 90.9789 44.2104 0.0000 0.0000 0.0001
# 3 2.7723 44.2104 89.6882 -0.0002 0.0001 0.0004
# 4 0.0000 0.0000 -0.0002 25.2048 0.0000 0.0001
# 5 0.0000 0.0000 0.0001 0.0000 7.5948 0.0001
# 6 0.0000 0.0001 0.0004 0.0001 0.0001 23.1595
#
#
#
# Elastic Compliance Matrix: (Units=1/GPa)
#
#
# Indices 1 2 3 4 5 6 
#
# 1 0.012865 -0.000934 0.000063 0.000000 0.000000 0.000000
# 2 -0.000934 0.014522 -0.007129 0.000000 0.000000 0.000000
# 3 0.000063 -0.007129 0.014662 0.000000 0.000000 0.000000
# 4 0.000000 0.000000 0.000000 0.039675 0.000000 0.000000
# 5 0.000000 0.000000 0.000000 0.000000 0.131670 -0.000001
# 6 0.000000 0.000000 0.000000 0.000000 -0.000001 0.043179
#
#
# Mechanical properties :
#
#
# Convention : Reuss Voigt Hill
#
# Bulk Modulus (GPa) = 38.39241 40.62204 39.50722
# Shear Modulus (GPa) = 17.77745 24.89030 21.33388
#
# Velocity S-wave (km/s) = 2.75584 3.26087 3.01894
# Velocity P-wave (km/s) = 5.15050 5.61531 5.38792
#
# Compressibility (1/GPa) = 0.02604681
#
# Stress axis : x y z
#
# Youngs Moduli (GPa) = 77.73324 68.86284 68.20312
#
# Poissons Ratio (x) = 0.06433 -0.00429
# Poissons Ratio (y) = 0.07262 0.48624
# Poissons Ratio (z) = -0.00489 0.49095
#
# Static dielectric constant tensor:
#      x y z
#    x 1.934290 0.000000 0.000000 
#    y 0.000000 1.961660 0.000000 
#    z 0.000000 0.000000 1.887900 
# 
# From -- ./inp_files/16592.got.cif
#   From: 2010.05.17/outbox.cif.g08.bks.cpg/sg44_9_cif.got.tgz:16592.got - 2010.06.03 19:37:08.
