data_PCOD9373664
_publ_section_title
;
Structure prediction by ZEFSAII (Michael W. Deem and Ramdas Pophale) SiO2 
 PCOD9373664
Probable space group: I M M 2
;
_chemical_formula_sum "Si O2"
_cell_formula_units_Z 56
_cell_length_a 7.310382
_cell_length_b 18.418311
_cell_length_c 18.928843
_cell_angle_alpha 90.000000
_cell_angle_beta 90.000000
_cell_angle_gamma 90.000000
_cell_volume 2548.671969
_symmetry_space_group_name_H-M "I M M 2"
_symmetry_group_IT_number 44
_symmetry_cell_setting 'orthorhombic'
loop_
_space_group_symop_operation_xyz
x,y,z
-x,-y,z
-x,y,z
x,-y,z
1/2+x,1/2+y,1/2+z
1/2-x,1/2-y,1/2+z
1/2-x,1/2+y,1/2+z
1/2+x,1/2-y,1/2+z
loop_
_atom_site_type_symbol
_atom_site_label
_atom_site_fract_x
_atom_site_fract_y
_atom_site_fract_z
Si Si1 0.221156 0.413500 0.755990
Si Si2 0.277502 0.915850 0.406244
Si Si3 0.281562 0.829208 0.972640
Si Si4 0.777372 0.415889 0.175113
Si Si5 0.781562 0.670791 0.039340
Si Si6 0.777502 0.584150 0.605736
Si Si7 0.777372 0.584111 0.336868
O O1 0.263719 0.500000 0.755990
O O2 0.283943 0.382741 0.831102
O O3 0.283943 0.382741 0.680878
O O4 0.000000 0.409212 0.755990
O O5 0.500000 0.911254 0.406972
O O6 0.210029 0.880877 0.477475
O O7 0.229899 0.000000 0.405673
O O8 0.500000 0.837057 0.968364
O O9 0.250000 0.750000 0.005990
O O10 0.210029 0.880877 0.034505
O O11 0.215181 0.858065 0.896315
O O12 0.726004 0.500000 0.157853
O O13 0.715181 0.358065 0.115665
O O14 0.719139 0.400405 0.255990
O O15 0.000000 0.415043 0.175722
O O16 0.000000 0.662943 0.043616
O O17 0.729898 0.500000 0.606307
O O18 0.000000 0.588746 0.605008
O O19 0.726004 0.500000 0.354127
O O20 0.000000 0.584957 0.336258
#
# Coordination Sequence:
#
# PCOD9373664 Si02
#       7
#     8   8   8   8   8   8   8
#     4   7  10  18  34  58  83 101 126 169 214 248
#     4   8  13  23  41  62  82 108 144 183 216 248
#     4  10  19  30  44  66  95 121 147 182 228 278
#     4   8  14  27  49  72  89 113 158 207 236 259
#     4  10  19  30  44  66  95 121 147 182 228 278
#     4   8  13  23  41  62  82 108 144 183 216 248
#     4   8  14  27  49  72  89 113 158 207 236 259
#
# _framework density 21.972225999999999
#
# number of rings (size 3 to 8) (size 9 to 14) (size 15 to 20)
#    0.000    3.571    0.000    3.429    0.000    3.429 
#    2.571    0.000    0.000    3.429    0.000    2.000 
#    0.000    3.429    0.000    0.000    0.000    0.000 
#
# Total GULP energy -155901.220857 kJ/mol
# GULP energy per Si atom -5567.900745 kJ/mol
# Density = 2.192222 g / cm^3
# Si number density = 21.972226 Si / 1000 Ang^3
#
#
#
# Elastic Constant Matrix: (Units=GPa)
#
#
# Indices 1 2 3 4 5 6 
#
# 1 90.0633 -2.0156 9.7064 0.0000 0.0000 0.0000
# 2 -2.0156 82.2513 102.0859 0.0000 0.0000 0.0000
# 3 9.7064 102.0859 244.3126 0.0000 0.0000 0.0000
# 4 0.0000 0.0000 0.0000 19.1414 0.0000 0.0000
# 5 0.0000 0.0000 0.0000 0.0000 -13.4643 0.0000
# 6 0.0000 0.0000 0.0000 0.0000 0.0000 8.1658
#
#
#
# Elastic Compliance Matrix: (Units=1/GPa)
#
#
# Indices 1 2 3 4 5 6 
#
# 1 0.011268 0.001728 -0.001170 0.000000 0.000000 0.000000
# 2 0.001728 0.025521 -0.010733 0.000000 0.000000 0.000000
# 3 -0.001170 -0.010733 0.008624 0.000000 0.000000 0.000000
# 4 0.000000 0.000000 0.000000 0.052243 0.000000 0.000000
# 5 0.000000 0.000000 0.000000 0.000000 -0.074271 0.000000
# 6 0.000000 0.000000 0.000000 0.000000 0.000000 0.122462
#
#
# Mechanical properties :
#
#
# Convention : Reuss Voigt Hill
#
# Bulk Modulus (GPa) = 39.89727 70.68673 55.29200
# Shear Modulus (GPa) = 28.64509 23.22530 25.93519
#
# Velocity S-wave (km/s) = 3.61459 3.25473 3.43937
# Velocity P-wave (km/s) = 5.96807 6.80919 6.40246
#
# Compressibility (1/GPa) = 0.02506437
#
# Stress axis : x y z
#
# Youngs Moduli (GPa) = 88.74666 39.18365 115.95319
#
# Poissons Ratio (x) = -0.06770 0.13562
# Poissons Ratio (y) = -0.15334 1.24447
# Poissons Ratio (z) = 0.10380 0.42054
#
# Static dielectric constant tensor:
#      x y z
#    x 1.873890 0.000000 0.000000 
#    y 0.000000 1.575530 0.000000 
#    z 0.000000 0.000000 1.853850 
# 
# From -- ./inp_files/20702.got.cif
#   From: 2010.05.17/outbox.cif.g08.bks.cpg/sg44_11_cif.got.tgz:20702.got - 2010.06.03 19:37:08.
