data_PCOD9373541
_publ_section_title
;
Structure prediction by ZEFSAII (Michael W. Deem and Ramdas Pophale) SiO2 
 PCOD9373541
Probable space group: I M M 2
;
_chemical_formula_sum "Si O2"
_cell_formula_units_Z 48
_cell_length_a 10.258018
_cell_length_b 8.206097
_cell_length_c 28.715800
_cell_angle_alpha 90.000000
_cell_angle_beta 90.000000
_cell_angle_gamma 90.000000
_cell_volume 2417.246961
_symmetry_space_group_name_H-M "I M M 2"
_symmetry_group_IT_number 44
_symmetry_cell_setting 'orthorhombic'
loop_
_space_group_symop_operation_xyz
x,y,z
-x,-y,z
-x,y,z
x,-y,z
1/2+x,1/2+y,1/2+z
1/2-x,1/2-y,1/2+z
1/2-x,1/2+y,1/2+z
1/2+x,1/2-y,1/2+z
loop_
_atom_site_type_symbol
_atom_site_label
_atom_site_fract_x
_atom_site_fract_y
_atom_site_fract_z
Si Si1 0.243578 0.191692 0.622720
Si Si2 0.741655 0.197822 0.840080
Si Si3 0.000000 0.195818 0.788623
Si Si4 0.000000 0.310882 0.682353
Si Si5 0.651268 0.197447 0.942127
Si Si6 0.000000 0.189248 0.171783
Si Si7 0.652243 0.197090 0.523216
Si Si8 0.500000 0.195430 0.774265
O O1 0.124899 0.268812 0.650864
O O2 0.373504 0.222354 0.652010
O O3 0.278858 0.254785 0.571074
O O4 0.215747 0.000000 0.618950
O O5 0.704159 0.254657 0.891748
O O6 0.625023 0.233968 0.805083
O O7 0.873434 0.258570 0.816113
O O8 0.750380 0.000000 0.843238
O O9 0.000000 0.228240 0.733291
O O10 0.000000 0.000000 0.792997
O O11 0.000000 0.500000 0.692649
O O12 0.500000 0.250874 0.949486
O O13 0.648697 0.000000 0.941734
O O14 0.754268 0.251984 0.981033
O O15 0.000000 0.207145 0.226900
O O16 0.000000 0.000000 0.157793
O O17 0.500000 0.252610 0.519948
O O18 0.647459 0.000000 0.525059
O O19 0.500000 0.000000 0.764271
#
# Coordination Sequence:
#
# PCOD9373541 Si02
#       8
#     8   8   4   4   8   4   8   4
#     4  11  23  44  67  87 119 169 216 249 297 379
#     4   9  18  34  58  86 116 155 208 254 288 352
#     4  10  20  36  59  86 117 163 216 251 293 366
#     4  12  26  42  61  94 133 161 200 265 323 362
#     4  10  21  38  61  93 128 159 198 251 308 362
#     4  12  24  38  61  96 129 155 196 263 323 364
#     4  10  23  43  64  89 119 156 206 256 302 363
#     4  10  18  34  59  82 113 161 206 245 295 366
#
# _framework density 19.857299999999999
#
# number of rings (size 3 to 8) (size 9 to 14) (size 15 to 20)
#    0.000    1.667    1.667    3.000    2.333    3.333 
#    0.000    1.667    0.000    0.000    0.000    0.000 
#    0.000    0.000    0.000    0.000    0.000    0.000 
#
# Total GULP energy -134023.696252 kJ/mol
# GULP energy per Si atom -5584.320677 kJ/mol
# Density = 1.981210 g / cm^3
# Si number density = 19.857300 Si / 1000 Ang^3
#
#
#
# Elastic Constant Matrix: (Units=GPa)
#
#
# Indices 1 2 3 4 5 6 
#
# 1 166.6574 -6.3145 66.3455 0.0000 0.0000 0.0000
# 2 -6.3145 5.5453 -6.5406 0.0000 0.0000 0.0000
# 3 66.3455 -6.5406 146.3743 0.0000 0.0000 0.0000
# 4 0.0000 0.0000 0.0000 25.5499 0.0000 0.0000
# 5 0.0000 0.0000 0.0000 0.0000 34.3182 0.0000
# 6 0.0000 0.0000 0.0000 0.0000 0.0000 20.0420
#
#
#
# Elastic Compliance Matrix: (Units=1/GPa)
#
#
# Indices 1 2 3 4 5 6 
#
# 1 0.007438 0.004743 -0.003159 0.000000 0.000000 0.000000
# 2 0.004743 0.193390 0.006492 0.000000 0.000000 0.000000
# 3 -0.003159 0.006492 0.008554 0.000000 0.000000 0.000000
# 4 0.000000 0.000000 0.000000 0.039139 0.000000 0.000000
# 5 0.000000 0.000000 0.000000 0.000000 0.029139 0.000000
# 6 0.000000 0.000000 0.000000 0.000000 0.000000 0.049895
#
#
# Mechanical properties :
#
#
# Convention : Reuss Voigt Hill
#
# Bulk Modulus (GPa) = 4.43395 47.28421 25.85908
# Shear Modulus (GPa) = 12.93388 33.65446 23.29417
#
# Velocity S-wave (km/s) = 2.55491 4.12128 3.42874
# Velocity P-wave (km/s) = 3.30774 6.81985 5.35964
#
# Compressibility (1/GPa) = 0.22553247
#
# Stress axis : x y z
#
# Youngs Moduli (GPa) = 134.44943 5.17090 116.90646
#
# Poissons Ratio (x) = -0.02453 0.36934
# Poissons Ratio (y) = -0.63771 -0.75891
# Poissons Ratio (z) = 0.42476 -0.03357
#
# Static dielectric constant tensor:
#      x y z
#    x 1.704270 0.000000 0.000000 
#    y 0.000000 1.706960 0.000000 
#    z 0.000000 0.000000 1.683390 
# 
# From -- ./inp_files/27029.got.cif
#   From: 2010.05.17/outbox.cif.g08.bks.cpg/sg44_14_cif.got.tgz:27029.got - 2010.06.03 19:37:08.
