data_PCOD9373650
_publ_section_title
;
Structure prediction by ZEFSAII (Michael W. Deem and Ramdas Pophale) SiO2 
 PCOD9373650
Probable space group: I M M 2
;
_chemical_formula_sum "Si O2"
_cell_formula_units_Z 52
_cell_length_a 7.510358
_cell_length_b 14.710358
_cell_length_c 27.261152
_cell_angle_alpha 90.000000
_cell_angle_beta 90.000000
_cell_angle_gamma 90.000000
_cell_volume 3011.813569
_symmetry_space_group_name_H-M "I M M 2"
_symmetry_group_IT_number 44
_symmetry_cell_setting 'orthorhombic'
loop_
_space_group_symop_operation_xyz
x,y,z
-x,-y,z
-x,y,z
x,-y,z
1/2+x,1/2+y,1/2+z
1/2-x,1/2-y,1/2+z
1/2-x,1/2+y,1/2+z
1/2+x,1/2-y,1/2+z
loop_
_atom_site_type_symbol
_atom_site_label
_atom_site_fract_x
_atom_site_fract_y
_atom_site_fract_z
Si Si1 0.287517 0.716266 0.175250
Si Si2 0.000000 0.893933 0.305490
Si Si3 0.213329 0.392012 0.969178
Si Si4 0.500000 0.287752 0.906165
Si Si5 0.000000 0.607662 0.353745
Si Si6 0.708563 0.607753 0.271169
Si Si7 0.287917 0.103500 0.222705
Si Si8 0.788488 0.600728 0.080523
O O1 0.500000 0.711980 0.177982
O O2 0.223867 0.660689 0.223058
O O3 0.235462 0.820743 0.183175
O O4 0.241225 0.670925 0.123970
O O5 0.827534 0.879196 0.271256
O O6 0.000000 0.829880 0.351834
O O7 0.000000 0.000000 0.320819
O O8 0.244781 0.500000 0.959328
O O9 0.328677 0.328300 0.934224
O O10 0.000000 0.377028 0.964483
O O11 0.272494 0.375345 0.025688
O O12 0.500000 0.179249 0.898088
O O13 0.829492 0.625197 0.318545
O O14 0.000000 0.500000 0.366939
O O15 0.500000 0.630398 0.279774
O O16 0.719539 0.500000 0.260758
O O17 0.500000 0.111318 0.232500
O O18 0.251662 0.000000 0.207090
O O19 0.718172 0.500000 0.093911
O O20 0.000000 0.592666 0.075331
#
# Coordination Sequence:
#
# PCOD9373650 Si02
#       8
#     8   4   8   4   4   8   8   8
#     4  10  19  29  48  76 101 135 176 206 245 301
#     4  10  20  32  50  78 102 132 176 216 259 306
#     4   9  20  38  55  77 108 134 163 213 271 322
#     4  12  22  34  58  80 100 138 184 218 262 314
#     4  10  22  36  52  76 106 142 180 218 259 302
#     4   9  18  32  48  72 108 139 167 208 256 308
#     4   9  19  34  48  68 105 141 170 210 253 296
#     4   9  19  33  50  75 105 133 162 203 257 312
#
# _framework density 17.265345
#
# number of rings (size 3 to 8) (size 9 to 14) (size 15 to 20)
#    0.000    2.462    0.000    3.000    3.231    2.154 
#    0.000    1.538    0.000    0.923    0.000    2.154 
#    0.000    0.000    0.000    0.000    0.000    0.000 
#
# Total GULP energy -144981.954517 kJ/mol
# GULP energy per Si atom -5576.229020 kJ/mol
# Density = 1.722605 g / cm^3
# Si number density = 17.265345 Si / 1000 Ang^3
#
#
#
# Elastic Constant Matrix: (Units=GPa)
#
#
# Indices 1 2 3 4 5 6 
#
# 1 70.2395 43.5743 34.1743 0.0000 0.0000 0.0000
# 2 43.5743 113.0438 87.7659 0.0000 0.0000 0.0000
# 3 34.1743 87.7659 91.0374 0.0000 0.0000 0.0000
# 4 0.0000 0.0000 0.0000 27.9610 0.0000 0.0000
# 5 0.0000 0.0000 0.0000 0.0000 26.1824 0.0000
# 6 0.0000 0.0000 0.0000 0.0000 0.0000 16.8684
#
#
#
# Elastic Compliance Matrix: (Units=1/GPa)
#
#
# Indices 1 2 3 4 5 6 
#
# 1 0.018713 -0.006995 -0.000281 0.000000 0.000000 0.000000
# 2 -0.006995 0.037787 -0.033803 0.000000 0.000000 0.000000
# 3 -0.000281 -0.033803 0.043678 0.000000 0.000000 0.000000
# 4 0.000000 0.000000 0.000000 0.035764 0.000000 0.000000
# 5 0.000000 0.000000 0.000000 0.000000 0.038194 0.000000
# 6 0.000000 0.000000 0.000000 0.000000 0.000000 0.059282
#
#
# Mechanical properties :
#
#
# Convention : Reuss Voigt Hill
#
# Bulk Modulus (GPa) = 55.49365 67.26108 61.37736
# Shear Modulus (GPa) = 15.54807 21.45612 18.50209
#
# Velocity S-wave (km/s) = 3.00415 3.52906 3.27713
# Velocity P-wave (km/s) = 6.65166 7.45973 7.06725
#
# Compressibility (1/GPa) = 0.01802008
#
# Stress axis : x y z
#
# Youngs Moduli (GPa) = 53.43805 26.46423 22.89468
#
# Poissons Ratio (x) = 0.18512 0.00643
# Poissons Ratio (y) = 0.37381 0.77391
# Poissons Ratio (z) = 0.01501 0.89457
#
# Static dielectric constant tensor:
#      x y z
#    x 1.617030 0.000000 0.000000 
#    y 0.000000 1.614430 0.000000 
#    z 0.000000 0.000000 1.569320 
# 
# From -- ./inp_files/22975.got.cif
#   From: 2010.05.17/outbox.cif.g08.bks.cpg/sg44_12_cif.got.tgz:22975.got - 2010.06.03 19:37:08.
