data_PCOD9373229
_publ_section_title
;
Structure prediction by ZEFSAII (Michael W. Deem and Ramdas Pophale) SiO2 
 PCOD9373229
Probable space group: I M M 2
;
_chemical_formula_sum "Si O2"
_cell_formula_units_Z 40
_cell_length_a 8.085373
_cell_length_b 21.734636
_cell_length_c 12.987246
_cell_angle_alpha 90.000000
_cell_angle_beta 90.000000
_cell_angle_gamma 90.000000
_cell_volume 2282.283014
_symmetry_space_group_name_H-M "I M M 2"
_symmetry_group_IT_number 44
_symmetry_cell_setting 'orthorhombic'
loop_
_space_group_symop_operation_xyz
x,y,z
-x,-y,z
-x,y,z
x,-y,z
1/2+x,1/2+y,1/2+z
1/2-x,1/2-y,1/2+z
1/2-x,1/2+y,1/2+z
1/2+x,1/2-y,1/2+z
loop_
_atom_site_type_symbol
_atom_site_label
_atom_site_fract_x
_atom_site_fract_y
_atom_site_fract_z
Si Si1 0.806442 0.692961 0.364110
Si Si2 0.305592 0.702413 0.139653
Si Si3 0.806099 0.327946 0.924826
Si Si4 0.202242 0.429966 0.764114
Si Si5 0.298283 0.840615 0.084956
O O1 0.724307 0.679807 0.254909
O O2 0.783302 0.765338 0.390063
O O3 0.742031 0.658384 0.466337
O O4 0.000000 0.679922 0.353678
O O5 0.500000 0.701487 0.117249
O O6 0.249526 0.774013 0.131236
O O7 0.218223 0.666394 0.047117
O O8 0.748784 0.386542 0.859563
O O9 0.000000 0.318495 0.901506
O O10 0.260287 0.500000 0.770784
O O11 0.255659 0.394912 0.660086
O O12 0.000000 0.431413 0.763462
O O13 0.500000 0.841242 0.083646
#
# Coordination Sequence:
#
# PCOD9373229 Si02
#       5
#     8   8   8   8   8
#     4  10  18  28  46  70  98 128 156 196 243 291
#     4  10  18  30  47  68  97 127 157 199 243 288
#     4  10  18  29  46  71  99 125 159 199 241 290
#     4   9  16  28  48  71  96 126 159 197 238 282
#     4   8  15  27  42  66  95 119 151 192 235 281
#
# _framework density 17.526309999999999
#
# number of rings (size 3 to 8) (size 9 to 14) (size 15 to 20)
#    0.000    2.600    2.000    3.000    0.000    0.000 
#    0.000    0.000    0.000    3.600    0.000    5.600 
#    0.000    0.000    0.000    0.000    0.000    0.000 
#
# Total GULP energy -111470.215739 kJ/mol
# GULP energy per Si atom -5573.510787 kJ/mol
# Density = 1.748642 g / cm^3
# Si number density = 17.526310 Si / 1000 Ang^3
#
#
#
# Elastic Constant Matrix: (Units=GPa)
#
#
# Indices 1 2 3 4 5 6 
#
# 1 13.7445 -1.7497 -5.9039 0.0000 0.0000 0.0000
# 2 -1.7497 89.3141 55.8117 0.0000 0.0000 0.0000
# 3 -5.9039 55.8117 139.8501 0.0000 0.0000 0.0000
# 4 0.0000 0.0000 0.0000 19.9447 0.0000 0.0000
# 5 0.0000 0.0000 0.0000 0.0000 23.4771 0.0000
# 6 0.0000 0.0000 0.0000 0.0000 0.0000 11.0053
#
#
#
# Elastic Compliance Matrix: (Units=1/GPa)
#
#
# Indices 1 2 3 4 5 6 
#
# 1 0.074130 -0.000671 0.003397 0.000000 0.000000 0.000000
# 2 -0.000671 0.014922 -0.005984 0.000000 0.000000 0.000000
# 3 0.003397 -0.005984 0.009682 0.000000 0.000000 0.000000
# 4 0.000000 0.000000 0.000000 0.050139 0.000000 0.000000
# 5 0.000000 0.000000 0.000000 0.000000 0.042595 0.000000
# 6 0.000000 0.000000 0.000000 0.000000 0.000000 0.090865
#
#
# Mechanical properties :
#
#
# Convention : Reuss Voigt Hill
#
# Bulk Modulus (GPa) = 10.84358 37.69167 24.26762
# Shear Modulus (GPa) = 15.64517 23.86879 19.75698
#
# Velocity S-wave (km/s) = 2.99100 3.69437 3.36114
# Velocity P-wave (km/s) = 4.25776 6.30479 5.37954
#
# Compressibility (1/GPa) = 0.09222048
#
# Stress axis : x y z
#
# Youngs Moduli (GPa) = 13.48975 67.01336 103.28588
#
# Poissons Ratio (x) = 0.04494 -0.35087
# Poissons Ratio (y) = 0.00905 0.61802
# Poissons Ratio (z) = -0.04583 0.40098
#
# Static dielectric constant tensor:
#      x y z
#    x 1.620110 0.000000 0.000000 
#    y 0.000000 1.565730 0.000000 
#    z 0.000000 0.000000 1.627460 
# 
# From -- ./inp_files/10989.got.cif
#   From: 2010.05.17/outbox.cif.g08.bks.cpg/sg44_6_cif.got.tgz:10989.got - 2010.06.03 19:37:08.
