data_PCOD9373846
_publ_section_title
;
Structure prediction by ZEFSAII (Michael W. Deem and Ramdas Pophale) SiO2 
 PCOD9373846
Probable space group: I M M 2
;
_chemical_formula_sum "Si O2"
_cell_formula_units_Z 64
_cell_length_a 25.795595
_cell_length_b 8.274326
_cell_length_c 15.550930
_cell_angle_alpha 90.000000
_cell_angle_beta 90.000000
_cell_angle_gamma 90.000000
_cell_volume 3319.208576
_symmetry_space_group_name_H-M "I M M 2"
_symmetry_group_IT_number 44
_symmetry_cell_setting 'orthorhombic'
loop_
_space_group_symop_operation_xyz
x,y,z
-x,-y,z
-x,y,z
x,-y,z
1/2+x,1/2+y,1/2+z
1/2-x,1/2-y,1/2+z
1/2-x,1/2+y,1/2+z
1/2+x,1/2-y,1/2+z
loop_
_atom_site_type_symbol
_atom_site_label
_atom_site_fract_x
_atom_site_fract_y
_atom_site_fract_z
Si Si1 0.605880 0.309443 0.095630
Si Si2 0.717327 0.190809 0.119105
Si Si3 0.441337 0.807934 0.273949
Si Si4 0.847618 0.195954 0.296469
Si Si5 0.864762 0.194503 0.920817
Si Si6 0.765764 0.806447 0.811995
Si Si7 0.166350 0.802851 0.100845
Si Si8 0.558370 0.697679 0.917327
O O1 0.597394 0.500000 0.102293
O O2 0.666799 0.276730 0.082666
O O3 0.587524 0.235811 0.185511
O O4 0.574176 0.248606 0.013214
O O5 0.720000 0.223569 0.221448
O O6 0.773637 0.245256 0.086229
O O7 0.712200 0.000000 0.103453
O O8 0.500000 0.741707 0.272606
O O9 0.409010 0.749147 0.355841
O O10 0.443875 0.000000 0.278648
O O11 0.793035 0.258586 0.333563
O O12 0.849972 0.249131 0.196394
O O13 0.897208 0.249383 0.350915
O O14 0.845741 0.000000 0.297611
O O15 0.809111 0.241986 0.880698
O O16 0.865769 0.000000 0.922302
O O17 0.867096 0.251779 0.019444
O O18 0.768530 0.000000 0.800504
O O19 0.166009 0.000000 0.102479
O O20 0.500000 0.748878 0.895775
O O21 0.558952 0.500000 0.917534
#
# Coordination Sequence:
#
# PCOD9373846 Si02
#       8
#     8   8   8   8   8   8   8   8
#     4  11  21  34  54  82 112 145 183 224 274 330
#     4  10  19  33  54  79 112 147 180 220 268 323
#     4  11  24  40  57  79 109 146 187 229 275 327
#     4   9  18  35  57  79 109 146 185 230 276 323
#     4  10  20  35  55  80 111 146 183 224 272 325
#     4  10  19  31  51  79 111 144 180 221 269 327
#     4   8  17  33  53  79 111 144 177 220 273 323
#     4   9  19  35  55  80 109 144 189 235 276 323
#
# _framework density 19.281704999999999
#
# number of rings (size 3 to 8) (size 9 to 14) (size 15 to 20)
#    0.000    2.250    1.250    2.625    1.750    2.000 
#    0.000    4.375    0.000    4.125    0.000    0.000 
#    0.000    0.000    0.000    0.000    0.000    0.000 
#
# Total GULP energy -178597.970328 kJ/mol
# GULP energy per Si atom -5581.186573 kJ/mol
# Density = 1.923782 g / cm^3
# Si number density = 19.281705 Si / 1000 Ang^3
#
#
#
# Elastic Constant Matrix: (Units=GPa)
#
#
# Indices 1 2 3 4 5 6 
#
# 1 114.7805 3.9347 50.4393 0.0000 0.0000 0.0000
# 2 3.9347 6.7217 9.2390 0.0000 0.0000 0.0000
# 3 50.4393 9.2390 81.9092 0.0000 0.0000 0.0000
# 4 0.0000 0.0000 0.0000 7.4729 0.0000 0.0000
# 5 0.0000 0.0000 0.0000 0.0000 29.5548 0.0000
# 6 0.0000 0.0000 0.0000 0.0000 0.0000 15.2777
#
#
#
# Elastic Compliance Matrix: (Units=1/GPa)
#
#
# Indices 1 2 3 4 5 6 
#
# 1 0.012022 0.003714 -0.007822 0.000000 0.000000 0.000000
# 2 0.003714 0.177216 -0.022276 0.000000 0.000000 0.000000
# 3 -0.007822 -0.022276 0.019538 0.000000 0.000000 0.000000
# 4 0.000000 0.000000 0.000000 0.133816 0.000000 0.000000
# 5 0.000000 0.000000 0.000000 0.000000 0.033836 0.000000
# 6 0.000000 0.000000 0.000000 0.000000 0.000000 0.065455
#
#
# Mechanical properties :
#
#
# Convention : Reuss Voigt Hill
#
# Bulk Modulus (GPa) = 6.40994 36.73749 21.57372
# Shear Modulus (GPa) = 9.14655 19.78098 14.46377
#
# Velocity S-wave (km/s) = 2.18035 3.20643 2.74182
# Velocity P-wave (km/s) = 3.10969 5.72736 4.60830
#
# Compressibility (1/GPa) = 0.15600766
#
# Stress axis : x y z
#
# Youngs Moduli (GPa) = 83.17814 5.64283 51.18182
#
# Poissons Ratio (x) = -0.02096 0.40036
# Poissons Ratio (y) = -0.30893 1.14013
# Poissons Ratio (z) = 0.65064 0.12570
#
# Static dielectric constant tensor:
#      x y z
#    x 1.672630 0.000000 0.000000 
#    y 0.000000 1.664760 0.000000 
#    z 0.000000 0.000000 1.683210 
# 
# From -- ./inp_files/19493.got.cif
#   From: 2010.05.17/outbox.cif.g08.bks.cpg/sg44_10_cif.got.tgz:19493.got - 2010.06.03 19:37:08.
