data_PCOD9373174
_publ_section_title
;
Structure prediction by ZEFSAII (Michael W. Deem and Ramdas Pophale) SiO2 
 PCOD9373174
Probable space group: I M M 2
;
_chemical_formula_sum "Si O2"
_cell_formula_units_Z 48
_cell_length_a 19.868919
_cell_length_b 7.660740
_cell_length_c 13.776339
_cell_angle_alpha 90.000000
_cell_angle_beta 90.000000
_cell_angle_gamma 90.000000
_cell_volume 2096.905136
_symmetry_space_group_name_H-M "I M M 2"
_symmetry_group_IT_number 44
_symmetry_cell_setting 'orthorhombic'
loop_
_space_group_symop_operation_xyz
x,y,z
-x,-y,z
-x,y,z
x,-y,z
1/2+x,1/2+y,1/2+z
1/2-x,1/2-y,1/2+z
1/2-x,1/2+y,1/2+z
1/2+x,1/2-y,1/2+z
loop_
_atom_site_type_symbol
_atom_site_label
_atom_site_fract_x
_atom_site_fract_y
_atom_site_fract_z
Si Si1 0.382153 0.699186 0.732660
Si Si2 0.500000 0.314298 0.577600
Si Si3 0.280029 0.290534 0.577339
Si Si4 0.853544 0.287516 0.661329
Si Si5 0.000000 0.691490 0.881860
Si Si6 0.148531 0.710099 0.873698
Si Si7 0.000000 0.790687 0.366830
Si Si8 0.000000 0.710412 0.593593
O O1 0.363412 0.500000 0.763176
O O2 0.436114 0.690274 0.645626
O O3 0.320138 0.779984 0.672514
O O4 0.429998 0.776705 0.817653
O O5 0.500000 0.500000 0.524967
O O6 0.500000 0.170829 0.497605
O O7 0.281579 0.500000 0.589255
O O8 0.202532 0.231772 0.583420
O O9 0.314371 0.258825 0.472980
O O10 0.856956 0.500000 0.658806
O O11 0.824464 0.240323 0.767768
O O12 0.929671 0.226572 0.640648
O O13 0.000000 0.500000 0.832144
O O14 0.071765 0.776818 0.865766
O O15 0.144541 0.500000 0.877369
O O16 0.000000 0.758935 0.480426
O O17 0.000000 0.000000 0.346143
O O18 0.000000 0.500000 0.599476
#
# Coordination Sequence:
#
# PCOD9373174 Si02
#       8
#     8   4   8   8   4   8   4   4
#     4   8  15  28  48  75 106 135 166 204 254 311
#     4   9  14  25  45  70 100 135 167 198 242 301
#     4  10  19  34  56  80 105 137 175 218 263 313
#     4   9  20  37  57  76 102 141 180 211 258 322
#     4  10  18  27  47  77 108 134 164 209 256 296
#     4  10  20  35  54  80 108 140 175 213 261 313
#     4   9  18  33  54  79 106 139 174 213 259 310
#     4  10  20  39  58  74 100 140 183 220 253 307
#
# _framework density 22.890877
#
# number of rings (size 3 to 8) (size 9 to 14) (size 15 to 20)
#    0.000    2.667    1.667    1.500    0.000    3.333 
#    0.000    6.667    0.000    1.000    0.000    0.000 
#    0.000    0.000    0.000    0.000    0.000    0.000 
#
# Total GULP energy -133615.195482 kJ/mol
# GULP energy per Si atom -5567.299812 kJ/mol
# Density = 2.283878 g / cm^3
# Si number density = 22.890877 Si / 1000 Ang^3
#
#
#
# Elastic Constant Matrix: (Units=GPa)
#
#
# Indices 1 2 3 4 5 6 
#
# 1 172.0218 4.0566 71.9054 0.0000 0.0000 0.0000
# 2 4.0566 44.4239 3.4954 0.0000 0.0000 0.0000
# 3 71.9054 3.4954 152.2627 0.0000 0.0000 0.0000
# 4 0.0000 0.0000 0.0000 16.2766 0.0000 0.0000
# 5 0.0000 0.0000 0.0000 0.0000 -17.4429 0.0000
# 6 0.0000 0.0000 0.0000 0.0000 0.0000 4.0454
#
#
#
# Elastic Compliance Matrix: (Units=1/GPa)
#
#
# Indices 1 2 3 4 5 6 
#
# 1 0.007250 -0.000393 -0.003415 0.000000 0.000000 0.000000
# 2 -0.000393 0.022572 -0.000332 0.000000 0.000000 0.000000
# 3 -0.003415 -0.000332 0.008188 0.000000 0.000000 0.000000
# 4 0.000000 0.000000 0.000000 0.061438 0.000000 0.000000
# 5 0.000000 0.000000 0.000000 0.000000 -0.057330 0.000000
# 6 0.000000 0.000000 0.000000 0.000000 0.000000 0.247194
#
#
# Mechanical properties :
#
#
# Convention : Reuss Voigt Hill
#
# Bulk Modulus (GPa) = 33.63694 58.62479 46.13087
# Shear Modulus (GPa) = 16.26000 19.85923 18.05961
#
# Velocity S-wave (km/s) = 2.66809 2.94863 2.81186
# Velocity P-wave (km/s) = 4.92117 6.10399 5.54422
#
# Compressibility (1/GPa) = 0.02972922
#
# Stress axis : x y z
#
# Youngs Moduli (GPa) = 137.93428 44.30172 122.13309
#
# Poissons Ratio (x) = 0.01743 0.41704
# Poissons Ratio (y) = 0.05426 0.04060
# Poissons Ratio (z) = 0.47100 0.01473
#
# Static dielectric constant tensor:
#      x y z
#    x 1.933130 0.000000 0.000000 
#    y 0.000000 1.925280 0.000000 
#    z 0.000000 0.000000 1.818210 
# 
# From -- ./inp_files/14299.got.cif
#   From: 2010.05.17/outbox.cif.g08.bks.cpg/sg44_8_cif.got.tgz:14299.got - 2010.06.03 19:37:08.
