data_PCOD9373919
_publ_section_title
;
Structure prediction by ZEFSAII (Michael W. Deem and Ramdas Pophale) SiO2 
 PCOD9373919
Probable space group: I M M 2
;
_chemical_formula_sum "Si O2"
_cell_formula_units_Z 56
_cell_length_a 13.445488
_cell_length_b 12.265679
_cell_length_c 18.909422
_cell_angle_alpha 90.000000
_cell_angle_beta 90.000000
_cell_angle_gamma 90.000000
_cell_volume 3118.504810
_symmetry_space_group_name_H-M "I M M 2"
_symmetry_group_IT_number 44
_symmetry_cell_setting 'orthorhombic'
loop_
_space_group_symop_operation_xyz
x,y,z
-x,-y,z
-x,y,z
x,-y,z
1/2+x,1/2+y,1/2+z
1/2-x,1/2-y,1/2+z
1/2-x,1/2+y,1/2+z
1/2+x,1/2-y,1/2+z
loop_
_atom_site_type_symbol
_atom_site_label
_atom_site_fract_x
_atom_site_fract_y
_atom_site_fract_z
Si Si1 0.115329 0.000000 0.419621
Si Si2 0.733586 0.692442 0.994313
Si Si3 0.709735 0.627978 0.279432
Si Si4 0.386282 0.500000 0.750428
Si Si5 0.618238 0.736858 0.731843
Si Si6 0.883250 0.130703 0.928427
Si Si7 0.112215 0.383858 0.097630
Si Si8 0.617592 0.629128 0.124745
O O1 0.171723 0.110961 0.443587
O O2 0.111842 0.000000 0.335077
O O3 0.000000 0.000000 0.446207
O O4 0.794843 0.796991 0.964646
O O5 0.820935 0.623195 0.029915
O O6 0.662735 0.705455 0.063440
O O7 0.733361 0.500000 0.282041
O O8 0.811257 0.696506 0.284360
O O9 0.635640 0.649094 0.344537
O O10 0.661657 0.650445 0.202611
O O11 0.500000 0.500000 0.723327
O O12 0.342663 0.385910 0.727051
O O13 0.500000 0.737905 0.751188
O O14 0.628104 0.792008 0.655490
O O15 0.000000 0.157864 0.946226
O O16 0.871248 0.000000 0.942393
O O17 0.127686 0.500000 0.135088
O O18 0.000000 0.377134 0.074063
O O19 0.500000 0.640478 0.127197
O O20 0.638888 0.500000 0.107570
#
# Coordination Sequence:
#
# PCOD9373919 Si02
#       8
#     4   8   8   4   8   8   8   8
#     4  11  22  36  59  87 119 152 189 244 294 345
#     4  12  20  35  57  84 116 152 191 236 296 351
#     4  10  19  35  60  86 112 145 188 241 297 346
#     4   9  20  36  50  73 109 148 186 222 273 345
#     4  10  19  33  53  81 114 147 186 234 286 343
#     4  10  23  42  60  83 117 157 200 243 291 354
#     4  10  19  32  51  79 113 144 182 240 294 336
#     4  10  19  33  57  89 116 142 184 239 298 349
#
# _framework density 17.957322999999999
#
# number of rings (size 3 to 8) (size 9 to 14) (size 15 to 20)
#    0.000    1.714    2.857    2.571    0.000    2.571 
#    1.286    0.714    0.000    3.429    0.000    1.000 
#    0.000    0.000    0.000    0.000    0.000    0.000 
#
# Total GULP energy -155878.353907 kJ/mol
# GULP energy per Si atom -5567.084068 kJ/mol
# Density = 1.791645 g / cm^3
# Si number density = 17.957323 Si / 1000 Ang^3
#
#
#
# Elastic Constant Matrix: (Units=GPa)
#
#
# Indices 1 2 3 4 5 6 
#
# 1 121.6226 49.9362 26.1158 0.0000 0.0000 0.0000
# 2 49.9362 100.8124 38.8866 0.0000 0.0000 0.0000
# 3 26.1158 38.8866 45.8697 0.0000 0.0000 0.0000
# 4 0.0000 0.0000 0.0000 -38.0768 0.0000 0.0000
# 5 0.0000 0.0000 0.0000 0.0000 28.8864 0.0000
# 6 0.0000 0.0000 0.0000 0.0000 0.0000 -142.4830
#
#
#
# Elastic Compliance Matrix: (Units=1/GPa)
#
#
# Indices 1 2 3 4 5 6 
#
# 1 0.010486 -0.004296 -0.002328 0.000000 0.000000 0.000000
# 2 -0.004296 0.016499 -0.011542 0.000000 0.000000 0.000000
# 3 -0.002328 -0.011542 0.032911 0.000000 0.000000 0.000000
# 4 0.000000 0.000000 0.000000 -0.026263 0.000000 0.000000
# 5 0.000000 0.000000 0.000000 0.000000 0.034618 0.000000
# 6 0.000000 0.000000 0.000000 0.000000 0.000000 -0.007018
#
#
# Mechanical properties :
#
#
# Convention : Reuss Voigt Hill
#
# Bulk Modulus (GPa) = 42.43632 55.35356 48.89494
# Shear Modulus (GPa) = 47.42922 -20.11030 13.65946
#
# Velocity S-wave (km/s) = 5.14485 -3.35011 2.76100
# Velocity P-wave (km/s) = 7.67957 3.99094 6.11978
#
# Compressibility (1/GPa) = 0.02356472
#
# Stress axis : x y z
#
# Youngs Moduli (GPa) = 95.36559 60.60825 30.38499
#
# Poissons Ratio (x) = 0.26038 0.07074
# Poissons Ratio (y) = 0.40970 0.35069
# Poissons Ratio (z) = 0.22202 0.69952
#
# Static dielectric constant tensor:
#      x y z
#    x 1.681920 0.000000 0.000000 
#    y 0.000000 1.644950 0.000000 
#    z 0.000000 0.000000 1.631840 
# 
# From -- ./inp_files/24178.got.cif
#   From: 2010.05.17/outbox.cif.g08.bks.cpg/sg44_13_cif.got.tgz:24178.got - 2010.06.03 19:37:08.
