data_PCOD9373849
_publ_section_title
;
Structure prediction by ZEFSAII (Michael W. Deem and Ramdas Pophale) SiO2 
 PCOD9373849
Probable space group: I M M 2
;
_chemical_formula_sum "Si O2"
_cell_formula_units_Z 48
_cell_length_a 9.378816
_cell_length_b 7.513845
_cell_length_c 35.454436
_cell_angle_alpha 90.000000
_cell_angle_beta 90.000000
_cell_angle_gamma 90.000000
_cell_volume 2498.508485
_symmetry_space_group_name_H-M "I M M 2"
_symmetry_group_IT_number 44
_symmetry_cell_setting 'orthorhombic'
loop_
_space_group_symop_operation_xyz
x,y,z
-x,-y,z
-x,y,z
x,-y,z
1/2+x,1/2+y,1/2+z
1/2-x,1/2-y,1/2+z
1/2-x,1/2+y,1/2+z
1/2+x,1/2-y,1/2+z
loop_
_atom_site_type_symbol
_atom_site_label
_atom_site_fract_x
_atom_site_fract_y
_atom_site_fract_z
Si Si1 0.168968 0.210287 0.993220
Si Si2 0.665043 0.795452 0.194573
Si Si3 0.335723 0.282354 0.343921
Si Si4 0.836452 0.715330 0.270038
Si Si5 0.170848 0.000000 0.634277
Si Si6 0.829781 0.500000 0.055249
Si Si7 0.836067 0.282945 0.417973
O O1 0.258393 0.267778 0.956700
O O2 0.000000 0.233914 0.985297
O O3 0.193443 0.000000 0.999825
O O4 0.204836 0.328724 0.029414
O O5 0.500000 0.750464 0.204447
O O6 0.760892 0.769918 0.231376
O O7 0.708520 0.668837 0.160340
O O8 0.670248 0.000000 0.182789
O O9 0.500000 0.225528 0.344054
O O10 0.335573 0.500000 0.343970
O O11 0.253516 0.224603 0.306290
O O12 0.252209 0.224876 0.381371
O O13 0.837566 0.500000 0.270837
O O14 0.000000 0.776005 0.271884
O O15 0.248739 0.000000 0.594558
O O16 0.000000 0.000000 0.628479
O O17 0.000000 0.500000 0.061866
O O18 0.836131 0.500000 0.417339
O O19 0.000000 0.224676 0.416579
#
# Coordination Sequence:
#
# PCOD9373849 Si02
#       7
#     8   8   8   8   4   4   8
#     4   9  18  34  55  78 107 144 182 222 272 329
#     4  10  21  38  60  83 109 146 188 228 277 339
#     4   9  16  26  45  74 108 149 192 231 274 327
#     4  10  19  31  51  80 113 148 188 234 283 332
#     4  10  22  40  60  84 114 144 180 230 282 336
#     4  10  22  38  58  84 112 142 182 228 274 334
#     4   9  16  27  46  75 109 143 184 231 276 324
#
# _framework density 19.211462000000001
#
# number of rings (size 3 to 8) (size 9 to 14) (size 15 to 20)
#    0.000    2.500    0.833    1.500    0.000    7.000 
#    0.000    0.000    1.833    0.000    0.000    0.000 
#    0.000    0.000    0.000    0.000    0.000    0.000 
#
# Total GULP energy -134054.554183 kJ/mol
# GULP energy per Si atom -5585.606424 kJ/mol
# Density = 1.916774 g / cm^3
# Si number density = 19.211462 Si / 1000 Ang^3
#
#
#
# Elastic Constant Matrix: (Units=GPa)
#
#
# Indices 1 2 3 4 5 6 
#
# 1 137.6448 44.9702 121.0019 0.0000 0.0000 0.0000
# 2 44.9702 72.8715 58.1320 0.0000 0.0000 0.0000
# 3 121.0019 58.1320 217.3942 0.0000 0.0000 0.0000
# 4 0.0000 0.0000 0.0000 -49.3784 0.0000 0.0000
# 5 0.0000 0.0000 0.0000 0.0000 45.2573 0.0000
# 6 0.0000 0.0000 0.0000 0.0000 0.0000 7.4176
#
#
#
# Elastic Compliance Matrix: (Units=1/GPa)
#
#
# Indices 1 2 3 4 5 6 
#
# 1 0.014811 -0.003259 -0.007372 0.000000 0.000000 0.000000
# 2 -0.003259 0.018161 -0.003042 0.000000 0.000000 0.000000
# 3 -0.007372 -0.003042 0.009517 0.000000 0.000000 0.000000
# 4 0.000000 0.000000 0.000000 -0.020252 0.000000 0.000000
# 5 0.000000 0.000000 0.000000 0.000000 0.022096 0.000000
# 6 0.000000 0.000000 0.000000 0.000000 0.000000 0.134815
#
#
# Mechanical properties :
#
#
# Convention : Reuss Voigt Hill
#
# Bulk Modulus (GPa) = 66.04366 97.34651 81.69509
# Shear Modulus (GPa) = 23.63601 14.24638 18.94119
#
# Velocity S-wave (km/s) = 3.51138 2.72611 3.14336
# Velocity P-wave (km/s) = 7.13383 7.79037 7.46932
#
# Compressibility (1/GPa) = 0.01514150
#
# Stress axis : x y z
#
# Youngs Moduli (GPa) = 67.51952 55.06332 105.07693
#
# Poissons Ratio (x) = 0.17944 0.77464
# Poissons Ratio (y) = 0.22003 0.31969
# Poissons Ratio (z) = 0.49776 0.16753
#
# Static dielectric constant tensor:
#      x y z
#    x 1.650100 0.000000 0.000000 
#    y 0.000000 1.714530 0.000000 
#    z 0.000000 0.000000 1.605880 
# 
# From -- ./inp_files/26912.got.cif
#   From: 2010.05.17/outbox.cif.g08.bks.cpg/sg44_14_cif.got.tgz:26912.got - 2010.06.03 19:37:08.
