data_PCOD9373333
_publ_section_title
;
Structure prediction by ZEFSAII (Michael W. Deem and Ramdas Pophale) SiO2 
 PCOD9373333
Probable space group: I M M 2
;
_chemical_formula_sum "Si O2"
_cell_formula_units_Z 64
_cell_length_a 15.046580
_cell_length_b 7.803729
_cell_length_c 25.089502
_cell_angle_alpha 90.000000
_cell_angle_beta 90.000000
_cell_angle_gamma 90.000000
_cell_volume 2945.995091
_symmetry_space_group_name_H-M "I M M 2"
_symmetry_group_IT_number 44
_symmetry_cell_setting 'orthorhombic'
loop_
_space_group_symop_operation_xyz
x,y,z
-x,-y,z
-x,y,z
x,-y,z
1/2+x,1/2+y,1/2+z
1/2-x,1/2-y,1/2+z
1/2-x,1/2+y,1/2+z
1/2+x,1/2-y,1/2+z
loop_
_atom_site_type_symbol
_atom_site_label
_atom_site_fract_x
_atom_site_fract_y
_atom_site_fract_z
Si Si1 0.696922 0.795041 0.670290
Si Si2 0.123592 0.303452 0.542094
Si Si3 0.097497 0.706716 0.662405
Si Si4 0.594531 0.304848 0.929298
Si Si5 0.244727 0.308128 0.363347
Si Si6 0.897842 0.710360 0.276832
Si Si7 0.677925 0.205137 0.550207
Si Si8 0.599741 0.292883 0.436955
O O1 0.802294 0.756132 0.680622
O O2 0.635387 0.734275 0.718483
O O3 0.661219 0.738949 0.611741
O O4 0.690934 0.000000 0.670213
O O5 0.095134 0.500000 0.537039
O O6 0.097943 0.239034 0.600350
O O7 0.090698 0.197584 0.492594
O O8 0.229176 0.294382 0.538474
O O9 0.096870 0.500000 0.664083
O O10 0.000000 0.763239 0.685264
O O11 0.500000 0.242342 0.908107
O O12 0.609562 0.500000 0.911779
O O13 0.674111 0.187390 0.911332
O O14 0.269997 0.500000 0.345359
O O15 0.180924 0.232140 0.317282
O O16 0.330028 0.226457 0.392570
O O17 0.898550 0.500000 0.279765
O O18 0.000000 0.765877 0.286739
O O19 0.618018 0.242020 0.498549
O O20 0.690334 0.000000 0.551622
O O21 0.500000 0.241383 0.422848
O O22 0.606606 0.500000 0.435597
#
# Coordination Sequence:
#
# PCOD9373333 Si02
#       8
#     8   8   8   8   8   8   8   8
#     4   9  19  34  54  82 112 143 182 231 282 327
#     4  10  18  30  49  73 104 143 184 222 263 319
#     4   9  18  32  50  74 107 147 186 222 265 320
#     4  11  22  32  46  74 110 143 175 219 273 324
#     4  10  20  36  58  79 103 141 184 227 274 327
#     4   9  18  35  59  84 109 139 182 234 281 328
#     4  10  19  32  52  79 112 147 182 222 277 333
#     4  10  21  36  54  79 111 145 182 228 278 329
#
# _framework density 21.724408
#
# number of rings (size 3 to 8) (size 9 to 14) (size 15 to 20)
#    0.000    2.250    1.250    1.875    0.000    4.000 
#    0.000    2.500    0.000    3.375    0.000    0.000 
#    0.000    0.000    0.000    0.000    0.000    0.000 
#
# Total GULP energy -178208.937928 kJ/mol
# GULP energy per Si atom -5569.029310 kJ/mol
# Density = 2.167496 g / cm^3
# Si number density = 21.724408 Si / 1000 Ang^3
#
#
#
# Elastic Constant Matrix: (Units=GPa)
#
#
# Indices 1 2 3 4 5 6 
#
# 1 158.0679 9.8357 72.9394 0.0000 0.0000 0.0000
# 2 9.8357 33.7640 7.4598 0.0000 0.0000 0.0000
# 3 72.9394 7.4598 125.9422 0.0000 0.0000 0.0000
# 4 0.0000 0.0000 0.0000 14.2146 0.0000 0.0000
# 5 0.0000 0.0000 0.0000 0.0000 20.0963 0.0000
# 6 0.0000 0.0000 0.0000 0.0000 0.0000 2.4178
#
#
#
# Elastic Compliance Matrix: (Units=1/GPa)
#
#
# Indices 1 2 3 4 5 6 
#
# 1 0.008702 -0.001440 -0.004955 0.000000 0.000000 0.000000
# 2 -0.001440 0.030248 -0.000957 0.000000 0.000000 0.000000
# 3 -0.004955 -0.000957 0.010866 0.000000 0.000000 0.000000
# 4 0.000000 0.000000 0.000000 0.070350 0.000000 0.000000
# 5 0.000000 0.000000 0.000000 0.000000 0.049760 0.000000
# 6 0.000000 0.000000 0.000000 0.000000 0.000000 0.413593
#
#
# Mechanical properties :
#
#
# Convention : Reuss Voigt Hill
#
# Bulk Modulus (GPa) = 28.48016 55.36043 41.92029
# Shear Modulus (GPa) = 8.19766 22.51500 15.35633
#
# Velocity S-wave (km/s) = 1.94465 3.22280 2.66159
# Velocity P-wave (km/s) = 4.26385 6.27590 5.36504
#
# Compressibility (1/GPa) = 0.03511217
#
# Stress axis : x y z
#
# Youngs Moduli (GPa) = 114.91207 33.05950 92.02729
#
# Poissons Ratio (x) = 0.04762 0.45596
# Poissons Ratio (y) = 0.16552 0.08812
# Poissons Ratio (z) = 0.56935 0.03165
#
# Static dielectric constant tensor:
#      x y z
#    x 1.788100 0.000000 0.000000 
#    y 0.000000 1.814150 0.000000 
#    z 0.000000 0.000000 1.839400 
# 
# From -- ./inp_files/25766.got.cif
#   From: 2010.05.17/outbox.cif.g08.bks.cpg/sg44_13_cif.got.tgz:25766.got - 2010.06.03 19:37:08.
