data_PCOD9373073
_publ_section_title
;
Structure prediction by ZEFSAII (Michael W. Deem and Ramdas Pophale) SiO2 
 PCOD9373073
Probable space group: I M M 2
;
_chemical_formula_sum "Si O2"
_cell_formula_units_Z 64
_cell_length_a 14.557226
_cell_length_b 16.087770
_cell_length_c 16.156668
_cell_angle_alpha 90.000000
_cell_angle_beta 90.000000
_cell_angle_gamma 90.000000
_cell_volume 3783.783456
_symmetry_space_group_name_H-M "I M M 2"
_symmetry_group_IT_number 44
_symmetry_cell_setting 'orthorhombic'
loop_
_space_group_symop_operation_xyz
x,y,z
-x,-y,z
-x,y,z
x,-y,z
1/2+x,1/2+y,1/2+z
1/2-x,1/2-y,1/2+z
1/2-x,1/2+y,1/2+z
1/2+x,1/2-y,1/2+z
loop_
_atom_site_type_symbol
_atom_site_label
_atom_site_fract_x
_atom_site_fract_y
_atom_site_fract_z
Si Si1 0.895432 0.599733 0.899650
Si Si2 0.393956 0.398887 0.828706
Si Si3 0.299111 0.405122 0.663249
Si Si4 0.606561 0.674779 0.147892
Si Si5 0.714449 0.600606 0.994570
Si Si6 0.888393 0.096043 0.820243
Si Si7 0.397413 0.861302 0.210669
Si Si8 0.892575 0.898299 0.999369
O O1 0.885445 0.500000 0.882815
O O2 0.882986 0.643341 0.810317
O O3 0.000000 0.615199 0.927058
O O4 0.818783 0.620932 0.967302
O O5 0.500000 0.374409 0.827234
O O6 0.389540 0.500000 0.827550
O O7 0.342323 0.367392 0.746587
O O8 0.345049 0.375336 0.913777
O O9 0.333881 0.500000 0.660909
O O10 0.190161 0.406976 0.673679
O O11 0.333719 0.367823 0.577037
O O12 0.500000 0.646970 0.132527
O O13 0.671640 0.645514 0.073920
O O14 0.640041 0.638069 0.235463
O O15 0.603635 0.772604 0.165582
O O16 0.708142 0.500000 0.006374
O O17 0.859968 0.132516 0.909188
O O18 0.000000 0.099033 0.822162
O O19 0.860680 0.000000 0.816422
O O20 0.500000 0.897598 0.200224
O O21 0.000000 0.877680 0.011792
O O22 0.888249 0.000000 0.994121
#
# Coordination Sequence:
#
# PCOD9373073 Si02
#       8
#     8   8   8   8   8   8   8   8
#     4   9  17  32  54  76  97 125 167 215 251 282
#     4   9  16  25  41  68  99 124 148 186 241 300
#     4  10  17  28  45  66  90 121 161 201 243 287
#     4  10  20  32  46  68 100 131 158 192 239 295
#     4  10  18  30  50  76  99 125 160 199 246 296
#     4   8  14  27  46  66  88 117 152 187 224 271
#     4  10  20  33  46  64  94 128 163 200 240 284
#     4   8  14  25  43  67  93 117 146 189 237 284
#
# _framework density 16.914287999999999
#
# number of rings (size 3 to 8) (size 9 to 14) (size 15 to 20)
#    0.000    2.750    1.250    2.250    0.000    3.500 
#    2.250    0.000    0.000    0.750    0.000    0.875 
#    0.000    3.000    0.000    0.000    0.000    0.000 
#
# Total GULP energy -178141.611722 kJ/mol
# GULP energy per Si atom -5566.925366 kJ/mol
# Density = 1.687579 g / cm^3
# Si number density = 16.914288 Si / 1000 Ang^3
#
#
#
# Elastic Constant Matrix: (Units=GPa)
#
#
# Indices 1 2 3 4 5 6 
#
# 1 100.6769 14.7776 75.3992 0.0000 0.0000 0.0000
# 2 14.7776 18.5047 28.0450 0.0000 0.0000 0.0000
# 3 75.3992 28.0450 157.0455 0.0000 0.0000 0.0000
# 4 0.0000 0.0000 0.0000 37.9944 0.0000 0.0000
# 5 0.0000 0.0000 0.0000 0.0000 22.9859 0.0000
# 6 0.0000 0.0000 0.0000 0.0000 0.0000 9.1126
#
#
#
# Elastic Compliance Matrix: (Units=1/GPa)
#
#
# Indices 1 2 3 4 5 6 
#
# 1 0.015540 -0.001512 -0.007191 0.000000 0.000000 0.000000
# 2 -0.001512 0.074240 -0.012532 0.000000 0.000000 0.000000
# 3 -0.007191 -0.012532 0.012058 0.000000 0.000000 0.000000
# 4 0.000000 0.000000 0.000000 0.026320 0.000000 0.000000
# 5 0.000000 0.000000 0.000000 0.000000 0.043505 0.000000
# 6 0.000000 0.000000 0.000000 0.000000 0.000000 0.109738
#
#
# Mechanical properties :
#
#
# Convention : Reuss Voigt Hill
#
# Bulk Modulus (GPa) = 16.84377 56.96343 36.90360
# Shear Modulus (GPa) = 14.54926 24.55228 19.55077
#
# Velocity S-wave (km/s) = 2.93606 3.81408 3.40350
# Velocity P-wave (km/s) = 4.63399 7.29021 6.10823
#
# Compressibility (1/GPa) = 0.05936912
#
# Stress axis : x y z
#
# Youngs Moduli (GPa) = 64.34932 13.46976 82.93231
#
# Poissons Ratio (x) = 0.02036 0.59637
# Poissons Ratio (y) = 0.09728 1.03931
# Poissons Ratio (z) = 0.46274 0.16880
#
# Static dielectric constant tensor:
#      x y z
#    x 1.577290 0.000000 0.000000 
#    y 0.000000 1.528000 0.000000 
#    z 0.000000 0.000000 1.586090 
# 
# From -- ./inp_files/18599.got.cif
#   From: 2010.05.17/outbox.cif.g08.bks.cpg/sg44_10_cif.got.tgz:18599.got - 2010.06.03 19:37:08.
