data_PCOD9373283
_publ_section_title
;
Structure prediction by ZEFSAII (Michael W. Deem and Ramdas Pophale) SiO2 
 PCOD9373283
Probable space group: I M M 2
;
_chemical_formula_sum "Si O2"
_cell_formula_units_Z 40
_cell_length_a 13.046498
_cell_length_b 14.030779
_cell_length_c 10.159911
_cell_angle_alpha 90.000000
_cell_angle_beta 90.000000
_cell_angle_gamma 90.000000
_cell_volume 1859.797415
_symmetry_space_group_name_H-M "I M M 2"
_symmetry_group_IT_number 44
_symmetry_cell_setting 'orthorhombic'
loop_
_space_group_symop_operation_xyz
x,y,z
-x,-y,z
-x,y,z
x,-y,z
1/2+x,1/2+y,1/2+z
1/2-x,1/2-y,1/2+z
1/2-x,1/2+y,1/2+z
1/2+x,1/2-y,1/2+z
loop_
_atom_site_type_symbol
_atom_site_label
_atom_site_fract_x
_atom_site_fract_y
_atom_site_fract_z
Si Si1 0.380520 0.697643 0.067070
Si Si2 0.668802 0.807226 0.672894
Si Si3 0.330722 0.608062 0.791963
Si Si4 0.389291 0.110818 0.395085
Si Si5 0.119417 0.397404 0.441780
O O1 0.500000 0.698127 0.106866
O O2 0.292174 0.675479 0.171622
O O3 0.369323 0.627271 0.941368
O O4 0.344720 0.801287 0.011925
O O5 0.635823 0.699475 0.708756
O O6 0.629959 0.831497 0.527896
O O7 0.626638 0.875694 0.786548
O O8 0.356842 0.500000 0.751853
O O9 0.207256 0.618942 0.800222
O O10 0.500000 0.134558 0.335643
O O11 0.390638 0.000000 0.434442
O O12 0.167514 0.500000 0.474824
O O13 0.000000 0.402764 0.476623
#
# Coordination Sequence:
#
# PCOD9373283 Si02
#       5
#     8   8   8   8   8
#     4   9  19  33  47  67  95 125 154 184 224 273
#     4  10  18  29  48  73  94 118 152 190 230 270
#     4   9  19  33  47  67  95 125 154 184 224 273
#     4   9  17  31  51  72  92 115 149 195 238 270
#     4   9  17  31  51  72  92 115 149 195 238 270
#
# _framework density 21.507719999999999
#
# number of rings (size 3 to 8) (size 9 to 14) (size 15 to 20)
#    0.000    2.800    0.000    1.200    0.000    5.200 
#    0.000    0.000    0.000    0.000    0.000    0.000 
#    0.000    0.000    0.000    0.000    0.000    0.000 
#
# Total GULP energy -111567.116799 kJ/mol
# GULP energy per Si atom -5578.355840 kJ/mol
# Density = 2.145877 g / cm^3
# Si number density = 21.507720 Si / 1000 Ang^3
#
#
#
# Elastic Constant Matrix: (Units=GPa)
#
#
# Indices 1 2 3 4 5 6 
#
# 1 74.1434 7.3298 -10.7552 0.0000 0.0000 0.0000
# 2 7.3298 94.1576 13.3637 0.0000 0.0000 0.0000
# 3 -10.7552 13.3637 27.1163 0.0000 0.0000 0.0000
# 4 0.0000 0.0000 0.0000 12.6767 0.0000 0.0000
# 5 0.0000 0.0000 0.0000 0.0000 6.8244 0.0000
# 6 0.0000 0.0000 0.0000 0.0000 0.0000 16.5626
#
#
#
# Elastic Compliance Matrix: (Units=1/GPa)
#
#
# Indices 1 2 3 4 5 6 
#
# 1 0.014694 -0.002119 0.006872 0.000000 0.000000 0.000000
# 2 -0.002119 0.011725 -0.006619 0.000000 0.000000 0.000000
# 3 0.006872 -0.006619 0.042866 0.000000 0.000000 0.000000
# 4 0.000000 0.000000 0.000000 0.078885 0.000000 0.000000
# 5 0.000000 0.000000 0.000000 0.000000 0.146533 0.000000
# 6 0.000000 0.000000 0.000000 0.000000 0.000000 0.060377
#
#
# Mechanical properties :
#
#
# Convention : Reuss Voigt Hill
#
# Bulk Modulus (GPa) = 15.25477 23.92154 19.58815
# Shear Modulus (GPa) = 13.13502 19.57802 16.35652
#
# Velocity S-wave (km/s) = 2.47394 3.02036 2.76070
# Velocity P-wave (km/s) = 3.90750 4.82803 4.39195
#
# Compressibility (1/GPa) = 0.06555328
#
# Stress axis : x y z
#
# Youngs Moduli (GPa) = 68.05592 85.28862 23.32850
#
# Poissons Ratio (x) = 0.18075 -0.16032
# Poissons Ratio (y) = 0.14423 0.15441
# Poissons Ratio (z) = -0.46771 0.56452
#
# Static dielectric constant tensor:
#      x y z
#    x 1.849440 0.000000 0.000000 
#    y 0.000000 1.837710 0.000000 
#    z 0.000000 0.000000 1.778420 
# 
# From -- ./inp_files/6830.got.cif
#   From: 2010.05.17/outbox.cif.g08.bks.cpg/sg44_4_cif.got.tgz:6830.got - 2010.06.03 19:37:08.
