data_PCOD9373408
_publ_section_title
;
Structure prediction by ZEFSAII (Michael W. Deem and Ramdas Pophale) SiO2 
 PCOD9373408
Probable space group: I M M 2
;
_chemical_formula_sum "Si O2"
_cell_formula_units_Z 56
_cell_length_a 25.310154
_cell_length_b 8.719295
_cell_length_c 14.682098
_cell_angle_alpha 90.000000
_cell_angle_beta 90.000000
_cell_angle_gamma 90.000000
_cell_volume 3240.143745
_symmetry_space_group_name_H-M "I M M 2"
_symmetry_group_IT_number 44
_symmetry_cell_setting 'orthorhombic'
loop_
_space_group_symop_operation_xyz
x,y,z
-x,-y,z
-x,y,z
x,-y,z
1/2+x,1/2+y,1/2+z
1/2-x,1/2-y,1/2+z
1/2-x,1/2+y,1/2+z
1/2+x,1/2-y,1/2+z
loop_
_atom_site_type_symbol
_atom_site_label
_atom_site_fract_x
_atom_site_fract_y
_atom_site_fract_z
Si Si1 0.392482 0.320575 0.438900
Si Si2 0.500000 0.180902 0.392857
Si Si3 0.783489 0.815043 0.260543
Si Si4 0.316668 0.684608 0.954182
Si Si5 0.711299 0.686599 0.552487
Si Si6 0.897629 0.677623 0.590143
Si Si7 0.000000 0.182616 0.687079
Si Si8 0.661763 0.823539 0.276632
O O1 0.401285 0.500000 0.454595
O O2 0.447629 0.233222 0.446136
O O3 0.342600 0.270140 0.500026
O O4 0.373361 0.288599 0.336054
O O5 0.500000 0.252732 0.290630
O O6 0.500000 0.000000 0.380346
O O7 0.816262 0.763084 0.348380
O O8 0.793273 0.760941 0.157720
O O9 0.722687 0.781633 0.284541
O O10 0.788441 0.000000 0.256411
O O11 0.314417 0.500000 0.956870
O O12 0.263642 0.747216 0.004043
O O13 0.368479 0.742694 0.006277
O O14 0.715739 0.500000 0.550289
O O15 0.909762 0.500000 0.570011
O O16 0.948979 0.758535 0.631661
O O17 0.855088 0.680319 0.672162
O O18 0.000000 0.000000 0.692491
O O19 0.653917 0.000000 0.308819
#
# Coordination Sequence:
#
# PCOD9373408 Si02
#       8
#     8   4   8   8   8   8   4   8
#     4  11  22  34  54  82 112 142 185 236 274 322
#     4  12  24  38  56  77 112 153 182 217 280 344
#     4   9  18  34  53  76 110 150 185 220 269 329
#     4  11  21  33  54  82 111 146 188 232 272 323
#     4  10  20  36  55  78 110 148 185 228 283 334
#     4  11  22  37  56  79 113 153 184 218 278 337
#     4  12  24  38  58  85 112 139 186 235 270 322
#     4  10  18  31  53  77 111 151 182 213 265 338
#
# _framework density 17.283183000000001
#
# number of rings (size 3 to 8) (size 9 to 14) (size 15 to 20)
#    0.000    1.429    4.286    2.571    0.000    1.143 
#    0.000    1.429    0.000    0.857    0.000    3.000 
#    0.000    0.000    0.000    0.000    0.000    0.000 
#
# Total GULP energy -156242.605374 kJ/mol
# GULP energy per Si atom -5580.093049 kJ/mol
# Density = 1.724385 g / cm^3
# Si number density = 17.283183 Si / 1000 Ang^3
#
#
#
# Elastic Constant Matrix: (Units=GPa)
#
#
# Indices 1 2 3 4 5 6 
#
# 1 69.0343 29.3955 20.3328 0.0000 0.0000 0.0000
# 2 29.3955 65.1359 14.2394 0.0000 0.0000 0.0000
# 3 20.3328 14.2394 58.3293 0.0000 0.0000 0.0000
# 4 0.0000 0.0000 0.0000 19.7249 0.0000 0.0000
# 5 0.0000 0.0000 0.0000 0.0000 23.4633 0.0000
# 6 0.0000 0.0000 0.0000 0.0000 0.0000 23.9644
#
#
#
# Elastic Compliance Matrix: (Units=1/GPa)
#
#
# Indices 1 2 3 4 5 6 
#
# 1 0.019133 -0.007581 -0.004819 0.000000 0.000000 0.000000
# 2 -0.007581 0.019222 -0.002050 0.000000 0.000000 0.000000
# 3 -0.004819 -0.002050 0.019324 0.000000 0.000000 0.000000
# 4 0.000000 0.000000 0.000000 0.050697 0.000000 0.000000
# 5 0.000000 0.000000 0.000000 0.000000 0.042620 0.000000
# 6 0.000000 0.000000 0.000000 0.000000 0.000000 0.041729
#
#
# Mechanical properties :
#
#
# Convention : Reuss Voigt Hill
#
# Bulk Modulus (GPa) = 34.74675 35.60387 35.17531
# Shear Modulus (GPa) = 21.62467 21.99931 21.81199
#
# Velocity S-wave (km/s) = 3.54106 3.57161 3.55637
# Velocity P-wave (km/s) = 6.07181 6.13625 6.10411
#
# Compressibility (1/GPa) = 0.02877967
#
# Stress axis : x y z
#
# Youngs Moduli (GPa) = 52.26576 52.02382 51.74861
#
# Poissons Ratio (x) = 0.39440 0.24936
# Poissons Ratio (y) = 0.39624 0.10607
# Poissons Ratio (z) = 0.25186 0.10664
#
# Static dielectric constant tensor:
#      x y z
#    x 1.591800 0.000000 0.000000 
#    y 0.000000 1.594200 0.000000 
#    z 0.000000 0.000000 1.591200 
# 
# From -- ./inp_files/19274.got.cif
#   From: 2010.05.17/outbox.cif.g08.bks.cpg/sg44_10_cif.got.tgz:19274.got - 2010.06.03 19:37:08.
