data_PCOD9373899
_publ_section_title
;
Structure prediction by ZEFSAII (Michael W. Deem and Ramdas Pophale) SiO2 
 PCOD9373899
Probable space group: I M M 2
;
_chemical_formula_sum "Si O2"
_cell_formula_units_Z 64
_cell_length_a 8.505432
_cell_length_b 23.987775
_cell_length_c 19.841013
_cell_angle_alpha 90.000000
_cell_angle_beta 90.000000
_cell_angle_gamma 90.000000
_cell_volume 4048.090238
_symmetry_space_group_name_H-M "I M M 2"
_symmetry_group_IT_number 44
_symmetry_cell_setting 'orthorhombic'
loop_
_space_group_symop_operation_xyz
x,y,z
-x,-y,z
-x,y,z
x,-y,z
1/2+x,1/2+y,1/2+z
1/2-x,1/2-y,1/2+z
1/2-x,1/2+y,1/2+z
1/2+x,1/2-y,1/2+z
loop_
_atom_site_type_symbol
_atom_site_label
_atom_site_fract_x
_atom_site_fract_y
_atom_site_fract_z
Si Si1 0.687149 0.620879 0.764190
Si Si2 0.688243 0.752574 0.262806
Si Si3 0.691285 0.725642 0.409315
Si Si4 0.312043 0.935832 0.128343
Si Si5 0.190493 0.436365 0.899914
Si Si6 0.189849 0.159900 0.037657
Si Si7 0.810597 0.728103 0.119611
Si Si8 0.191402 0.663803 0.990628
O O1 0.500000 0.622589 0.767355
O O2 0.750896 0.683921 0.763116
O O3 0.739048 0.589624 0.696294
O O4 0.753511 0.588766 0.829069
O O5 0.500000 0.754356 0.263729
O O6 0.743383 0.723324 0.332078
O O7 0.743726 0.724033 0.194132
O O8 0.500000 0.724846 0.409735
O O9 0.741023 0.678647 0.462755
O O10 0.737649 0.785473 0.440976
O O11 0.500000 0.934268 0.135123
O O12 0.261252 0.896158 0.067102
O O13 0.262649 0.000000 0.119495
O O14 0.243566 0.500000 0.908209
O O15 0.243891 0.394379 0.958965
O O16 0.000000 0.436117 0.899508
O O17 0.231899 0.211814 0.086872
O O18 0.000000 0.155666 0.038536
O O19 0.000000 0.726839 0.123145
O O20 0.758152 0.681611 0.065527
O O21 0.000000 0.663481 0.991417
#
# Coordination Sequence:
#
# PCOD9373899 Si02
#       8
#     8   8   8   8   8   8   8   8
#     4  12  23  33  45  66  97 131 164 192 226 272
#     4  11  19  30  50  72  96 125 157 193 233 276
#     4   8  15  28  48  69  92 122 152 187 236 283
#     4  11  23  36  49  67  93 126 161 195 232 274
#     4  10  19  32  51  71  91 123 166 201 228 265
#     4   9  17  31  50  70  91 120 157 195 233 276
#     4   9  17  29  47  69  95 124 154 191 236 281
#     4   8  14  28  47  67  93 124 153 189 235 277
#
# _framework density 15.809924000000001
#
# number of rings (size 3 to 8) (size 9 to 14) (size 15 to 20)
#    0.000    2.250    2.500    3.750    0.000    2.750 
#    0.000    1.875    0.000    0.000    0.000    0.875 
#    0.000    3.000    0.000    0.000    0.000    0.000 
#
# Total GULP energy -178446.439559 kJ/mol
# GULP energy per Si atom -5576.451236 kJ/mol
# Density = 1.577394 g / cm^3
# Si number density = 15.809924 Si / 1000 Ang^3
#
#
#
# Elastic Constant Matrix: (Units=GPa)
#
#
# Indices 1 2 3 4 5 6 
#
# 1 15.3532 13.4518 20.4542 0.0000 0.0000 0.0000
# 2 13.4518 87.5060 73.6742 0.0000 0.0000 0.0000
# 3 20.4542 73.6742 155.6470 0.0000 0.0000 0.0000
# 4 0.0000 0.0000 0.0000 17.1170 0.0000 0.0000
# 5 0.0000 0.0000 0.0000 0.0000 23.2864 0.0000
# 6 0.0000 0.0000 0.0000 0.0000 0.0000 10.9895
#
#
#
# Elastic Compliance Matrix: (Units=1/GPa)
#
#
# Indices 1 2 3 4 5 6 
#
# 1 0.080677 -0.005779 -0.007867 0.000000 0.000000 0.000000
# 2 -0.005779 0.019413 -0.008430 0.000000 0.000000 0.000000
# 3 -0.007867 -0.008430 0.011449 0.000000 0.000000 0.000000
# 4 0.000000 0.000000 0.000000 0.058422 0.000000 0.000000
# 5 0.000000 0.000000 0.000000 0.000000 0.042943 0.000000
# 6 0.000000 0.000000 0.000000 0.000000 0.000000 0.090996
#
#
# Mechanical properties :
#
#
# Convention : Reuss Voigt Hill
#
# Bulk Modulus (GPa) = 14.83937 52.62962 33.73450
# Shear Modulus (GPa) = 13.49481 20.34031 16.91756
#
# Velocity S-wave (km/s) = 2.92475 3.59075 3.27472
# Velocity P-wave (km/s) = 4.56202 7.11003 5.97347
#
# Compressibility (1/GPa) = 0.06738830
#
# Stress axis : x y z
#
# Youngs Moduli (GPa) = 12.39517 51.51078 87.34571
#
# Poissons Ratio (x) = 0.29767 0.68713
# Poissons Ratio (y) = 0.07163 0.73630
# Poissons Ratio (z) = 0.09751 0.43422
#
# Static dielectric constant tensor:
#      x y z
#    x 1.544460 0.000000 0.000000 
#    y 0.000000 1.513530 0.000000 
#    z 0.000000 0.000000 1.538930 
# 
# From -- ./inp_files/20858.got.cif
#   From: 2010.05.17/outbox.cif.g08.bks.cpg/sg44_11_cif.got.tgz:20858.got - 2010.06.03 19:37:08.
