data_PCOD9373894
_publ_section_title
;
Structure prediction by ZEFSAII (Michael W. Deem and Ramdas Pophale) SiO2 
 PCOD9373894
Probable space group: I M M 2
;
_chemical_formula_sum "Si O2"
_cell_formula_units_Z 64
_cell_length_a 20.096418
_cell_length_b 7.580237
_cell_length_c 21.631457
_cell_angle_alpha 90.000000
_cell_angle_beta 90.000000
_cell_angle_gamma 90.000000
_cell_volume 3295.241225
_symmetry_space_group_name_H-M "I M M 2"
_symmetry_group_IT_number 44
_symmetry_cell_setting 'orthorhombic'
loop_
_space_group_symop_operation_xyz
x,y,z
-x,-y,z
-x,y,z
x,-y,z
1/2+x,1/2+y,1/2+z
1/2-x,1/2-y,1/2+z
1/2-x,1/2+y,1/2+z
1/2+x,1/2-y,1/2+z
loop_
_atom_site_type_symbol
_atom_site_label
_atom_site_fract_x
_atom_site_fract_y
_atom_site_fract_z
Si Si1 0.425501 0.708021 0.891580
Si Si2 0.073674 0.284758 0.629442
Si Si3 0.573776 0.786737 0.746426
Si Si4 0.783394 0.296577 0.435656
Si Si5 0.789691 0.286642 0.190326
Si Si6 0.707986 0.790327 0.069037
Si Si7 0.283783 0.292982 0.313066
Si Si8 0.426207 0.787065 0.273146
O O1 0.500000 0.775485 0.906580
O O2 0.424098 0.500000 0.904595
O O3 0.415748 0.733743 0.817856
O O4 0.362960 0.792790 0.925416
O O5 0.074443 0.500000 0.628971
O O6 0.136023 0.219616 0.590374
O O7 0.082002 0.232079 0.701312
O O8 0.000000 0.229413 0.608457
O O9 0.500000 0.725651 0.727874
O O10 0.635139 0.727310 0.704605
O O11 0.573825 0.000000 0.745643
O O12 0.760364 0.500000 0.437219
O O13 0.769517 0.216851 0.502904
O O14 0.749397 0.215476 0.374734
O O15 0.788765 0.500000 0.190417
O O16 0.758518 0.232253 0.125482
O O17 0.745391 0.221219 0.248449
O O18 0.698920 0.000000 0.060057
O O19 0.265549 0.500000 0.312151
O O20 0.363079 0.276092 0.311352
O O21 0.500000 0.729758 0.293504
O O22 0.425274 0.000000 0.273883
#
# Coordination Sequence:
#
# PCOD9373894 Si02
#       8
#     8   8   8   8   8   8   8   8
#     4  10  20  32  48  74 106 137 170 210 254 298
#     4   8  14  26  44  68  96 122 154 196 235 277
#     4   9  17  32  54  76 100 133 171 209 251 302
#     4  10  21  36  51  72 102 137 175 210 247 302
#     4  10  19  32  51  75 102 131 166 210 254 297
#     4  10  20  33  52  74  98 132 171 207 248 299
#     4  10  19  32  50  74 102 131 167 206 247 297
#     4   9  17  30  50  75 100 125 160 206 249 291
#
# _framework density 19.421946999999999
#
# number of rings (size 3 to 8) (size 9 to 14) (size 15 to 20)
#    0.000    2.500    2.500    1.125    0.000    3.000 
#    0.000    1.250    0.000    1.125    0.000    3.500 
#    0.000    0.000    0.000    0.000    0.000    0.000 
#
# Total GULP energy -178516.335888 kJ/mol
# GULP energy per Si atom -5578.635496 kJ/mol
# Density = 1.937774 g / cm^3
# Si number density = 19.421947 Si / 1000 Ang^3
#
#
#
# Elastic Constant Matrix: (Units=GPa)
#
#
# Indices 1 2 3 4 5 6 
#
# 1 101.7910 -6.5179 64.6838 0.0000 0.0000 0.0000
# 2 -6.5179 41.8355 1.6963 0.0000 0.0000 0.0000
# 3 64.6838 1.6963 128.4974 0.0000 0.0000 0.0000
# 4 0.0000 0.0000 0.0000 7.6656 0.0000 0.0000
# 5 0.0000 0.0000 0.0000 0.0000 20.7634 0.0000
# 6 0.0000 0.0000 0.0000 0.0000 0.0000 13.5046
#
#
#
# Elastic Compliance Matrix: (Units=1/GPa)
#
#
# Indices 1 2 3 4 5 6 
#
# 1 0.014721 0.002595 -0.007445 0.000000 0.000000 0.000000
# 2 0.002595 0.024374 -0.001628 0.000000 0.000000 0.000000
# 3 -0.007445 -0.001628 0.011551 0.000000 0.000000 0.000000
# 4 0.000000 0.000000 0.000000 0.130452 0.000000 0.000000
# 5 0.000000 0.000000 0.000000 0.000000 0.048162 0.000000
# 6 0.000000 0.000000 0.000000 0.000000 0.000000 0.074049
#
#
# Mechanical properties :
#
#
# Convention : Reuss Voigt Hill
#
# Bulk Modulus (GPa) = 26.53167 43.53870 35.03519
# Shear Modulus (GPa) = 15.20555 22.53751 18.87153
#
# Velocity S-wave (km/s) = 2.80108 3.41018 3.12053
# Velocity P-wave (km/s) = 4.91444 6.16212 5.57330
#
# Compressibility (1/GPa) = 0.03769080
#
# Stress axis : x y z
#
# Youngs Moduli (GPa) = 67.93043 41.02815 86.57070
#
# Poissons Ratio (x) = -0.10648 0.64448
# Poissons Ratio (y) = -0.17630 0.14096
# Poissons Ratio (z) = 0.50571 0.06680
#
# Static dielectric constant tensor:
#      x y z
#    x 1.688600 0.000000 0.000000 
#    y 0.000000 1.734320 0.000000 
#    z 0.000000 0.000000 1.678660 
# 
# From -- ./inp_files/20758.got.cif
#   From: 2010.05.17/outbox.cif.g08.bks.cpg/sg44_11_cif.got.tgz:20758.got - 2010.06.03 19:37:08.
