data_PCOD9373386
_publ_section_title
;
Structure prediction by ZEFSAII (Michael W. Deem and Ramdas Pophale) SiO2 
 PCOD9373386
Probable space group: I M M 2
;
_chemical_formula_sum "Si O2"
_cell_formula_units_Z 48
_cell_length_a 13.081551
_cell_length_b 14.248400
_cell_length_c 9.807648
_cell_angle_alpha 90.000000
_cell_angle_beta 90.000000
_cell_angle_gamma 90.000000
_cell_volume 1828.058998
_symmetry_space_group_name_H-M "I M M 2"
_symmetry_group_IT_number 44
_symmetry_cell_setting 'orthorhombic'
loop_
_space_group_symop_operation_xyz
x,y,z
-x,-y,z
-x,y,z
x,-y,z
1/2+x,1/2+y,1/2+z
1/2-x,1/2-y,1/2+z
1/2-x,1/2+y,1/2+z
1/2+x,1/2-y,1/2+z
loop_
_atom_site_type_symbol
_atom_site_label
_atom_site_fract_x
_atom_site_fract_y
_atom_site_fract_z
Si Si1 0.887438 0.146697 0.961270
Si Si2 0.329272 0.146223 0.083535
Si Si3 0.677764 0.363432 0.166674
Si Si4 0.387490 0.185695 0.785190
Si Si5 0.611037 0.131488 0.376520
Si Si6 0.346190 0.599568 0.879104
O O1 0.871871 0.107287 0.809133
O O2 0.883518 0.258849 0.926327
O O3 0.000000 0.124320 0.015839
O O4 0.789425 0.120263 0.052906
O O5 0.330143 0.253495 0.132549
O O6 0.385202 0.105939 0.214320
O O7 0.381300 0.142223 0.936860
O O8 0.799986 0.366441 0.199320
O O9 0.619448 0.402056 0.035979
O O10 0.500000 0.175060 0.727317
O O11 0.369379 0.299138 0.809597
O O12 0.500000 0.099761 0.426184
O O13 0.724543 0.098499 0.409162
O O14 0.375655 0.500000 0.812729
#
# Coordination Sequence:
#
# PCOD9373386 Si02
#       6
#     8   8   8   8   8   8
#     4   9  16  28  53  79 102 133 184 237 270 315
#     4   9  15  31  49  78 103 132 187 231 268 310
#     4   9  17  33  50  77 108 142 189 224 272 332
#     4  10  19  33  55  81 108 144 189 233 273 327
#     4  10  18  31  49  72 107 147 180 220 275 334
#     4  11  22  36  53  83 119 145 178 232 292 342
#
# _framework density 26.257356999999999
#
# number of rings (size 3 to 8) (size 9 to 14) (size 15 to 20)
#    0.000    2.333    6.667    0.500    0.000    6.000 
#    0.000    0.000    0.000    4.000    0.000    0.000 
#    0.000    0.000    0.000    0.000    0.000    0.000 
#
# Total GULP energy -133721.763471 kJ/mol
# GULP energy per Si atom -5571.740145 kJ/mol
# Density = 2.619759 g / cm^3
# Si number density = 26.257357 Si / 1000 Ang^3
#
#
#
# Elastic Constant Matrix: (Units=GPa)
#
#
# Indices 1 2 3 4 5 6 
#
# 1 185.0782 21.8595 14.2111 0.0000 0.0000 0.0000
# 2 21.8595 76.2650 -17.0939 0.0000 0.0000 0.0000
# 3 14.2111 -17.0939 106.4129 0.0000 0.0000 0.0000
# 4 0.0000 0.0000 0.0000 -7.4792 0.0000 0.0000
# 5 0.0000 0.0000 0.0000 0.0000 4.2107 0.0000
# 6 0.0000 0.0000 0.0000 0.0000 0.0000 10.2560
#
#
#
# Elastic Compliance Matrix: (Units=1/GPa)
#
#
# Indices 1 2 3 4 5 6 
#
# 1 0.005706 -0.001874 -0.001063 0.000000 0.000000 0.000000
# 2 -0.001874 0.014217 0.002534 0.000000 0.000000 0.000000
# 3 -0.001063 0.002534 0.009946 0.000000 0.000000 0.000000
# 4 0.000000 0.000000 0.000000 -0.133704 0.000000 0.000000
# 5 0.000000 0.000000 0.000000 0.000000 0.237490 0.000000
# 6 0.000000 0.000000 0.000000 0.000000 0.000000 0.097504
#
#
# Mechanical properties :
#
#
# Convention : Reuss Voigt Hill
#
# Bulk Modulus (GPa) = 34.40658 45.07882 39.74270
# Shear Modulus (GPa) = 20.69083 24.64947 22.67015
#
# Velocity S-wave (km/s) = 2.81018 3.06725 2.94153
# Velocity P-wave (km/s) = 4.86431 5.45430 5.16773
#
# Compressibility (1/GPa) = 0.02906421
#
# Stress axis : x y z
#
# Youngs Moduli (GPa) = 175.25245 70.33718 100.53907
#
# Poissons Ratio (x) = 0.13180 0.10688
# Poissons Ratio (y) = 0.32838 -0.25477
# Poissons Ratio (z) = 0.18630 -0.17824
#
# Static dielectric constant tensor:
#      x y z
#    x 2.173790 0.000000 0.000000 
#    y 0.000000 2.191890 0.000000 
#    z 0.000000 0.000000 2.137150 
# 
# From -- ./inp_files/13289.got.cif
#   From: 2010.05.17/outbox.cif.g08.bks.cpg/sg44_7_cif.got.tgz:13289.got - 2010.06.03 19:37:08.
