data_PCOD9373833
_publ_section_title
;
Structure prediction by ZEFSAII (Michael W. Deem and Ramdas Pophale) SiO2 
 PCOD9373833
Probable space group: I M M 2
;
_chemical_formula_sum "Si O2"
_cell_formula_units_Z 40
_cell_length_a 8.419176
_cell_length_b 11.137979
_cell_length_c 23.053520
_cell_angle_alpha 90.000000
_cell_angle_beta 90.000000
_cell_angle_gamma 90.000000
_cell_volume 2161.788636
_symmetry_space_group_name_H-M "I M M 2"
_symmetry_group_IT_number 44
_symmetry_cell_setting 'orthorhombic'
loop_
_space_group_symop_operation_xyz
x,y,z
-x,-y,z
-x,y,z
x,-y,z
1/2+x,1/2+y,1/2+z
1/2-x,1/2-y,1/2+z
1/2-x,1/2+y,1/2+z
1/2+x,1/2-y,1/2+z
loop_
_atom_site_type_symbol
_atom_site_label
_atom_site_fract_x
_atom_site_fract_y
_atom_site_fract_z
Si Si1 0.809904 0.364971 0.213010
Si Si2 0.175654 0.500000 0.720947
Si Si3 0.306423 0.000000 0.034482
Si Si4 0.182773 0.299517 0.622156
Si Si5 0.692990 0.764064 0.835512
Si Si6 0.816610 0.000000 0.341327
Si Si7 0.189561 0.000000 0.903044
O O1 0.748282 0.500000 0.219955
O O2 0.768121 0.314151 0.149746
O O3 0.754024 0.288625 0.268969
O O4 0.000000 0.366873 0.217458
O O5 0.185912 0.389668 0.676964
O O6 0.304696 0.500000 0.771036
O O7 0.000000 0.500000 0.748787
O O8 0.252941 0.119879 0.069280
O O9 0.500000 0.000000 0.037685
O O10 0.249279 0.000000 0.969150
O O11 0.000000 0.269044 0.609043
O O12 0.500000 0.760570 0.836369
O O13 0.750436 0.632223 0.856912
O O14 0.747283 0.879172 0.872014
O O15 0.000000 0.000000 0.360139
O O16 0.000000 0.000000 0.900838
#
# Coordination Sequence:
#
# PCOD9373833 Si02
#       7
#     8   4   4   8   8   4   4
#     4  10  19  31  50  79 115 152 184 223 282 339
#     4   9  16  26  44  74 110 135 159 209 270 318
#     4   9  20  40  62  80 106 145 188 236 285 337
#     4   9  18  32  52  79 106 138 178 223 277 330
#     4  10  20  36  56  82 118 156 192 233 284 345
#     4  10  19  31  53  82 109 147 190 223 272 338
#     4  12  25  39  59  86 111 149 201 244 289 337
#
# _framework density 18.503198000000001
#
# number of rings (size 3 to 8) (size 9 to 14) (size 15 to 20)
#    0.000    2.200    3.000    2.100    0.000    2.800 
#    0.000    2.000    2.200    0.000    0.000    0.000 
#    0.000    0.000    0.000    0.000    0.000    0.000 
#
# Total GULP energy -111352.313789 kJ/mol
# GULP energy per Si atom -5567.615689 kJ/mol
# Density = 1.846108 g / cm^3
# Si number density = 18.503198 Si / 1000 Ang^3
#
#
#
# Elastic Constant Matrix: (Units=GPa)
#
#
# Indices 1 2 3 4 5 6 
#
# 1 7.8173 17.5737 8.9525 0.0000 0.0000 0.0000
# 2 17.5737 152.7967 50.2503 0.0000 0.0000 0.0000
# 3 8.9525 50.2503 97.2840 0.0000 0.0000 0.0000
# 4 0.0000 0.0000 0.0000 27.1236 0.0000 0.0000
# 5 0.0000 0.0000 0.0000 0.0000 24.0684 0.0000
# 6 0.0000 0.0000 0.0000 0.0000 0.0000 19.2029
#
#
#
# Elastic Compliance Matrix: (Units=1/GPa)
#
#
# Indices 1 2 3 4 5 6 
#
# 1 0.176325 -0.018001 -0.006928 0.000000 0.000000 0.000000
# 2 -0.018001 0.009722 -0.003365 0.000000 0.000000 0.000000
# 3 -0.006928 -0.003365 0.012655 0.000000 0.000000 0.000000
# 4 0.000000 0.000000 0.000000 0.036868 0.000000 0.000000
# 5 0.000000 0.000000 0.000000 0.000000 0.041548 0.000000
# 6 0.000000 0.000000 0.000000 0.000000 0.000000 0.052075
#
#
# Mechanical properties :
#
#
# Convention : Reuss Voigt Hill
#
# Bulk Modulus (GPa) = 7.03668 45.71678 26.37673
# Shear Modulus (GPa) = 11.54328 26.15375 18.84851
#
# Velocity S-wave (km/s) = 2.50041 3.76370 3.19511
# Velocity P-wave (km/s) = 3.48530 6.60669 5.28184
#
# Compressibility (1/GPa) = 0.14211255
#
# Stress axis : x y z
#
# Youngs Moduli (GPa) = 5.67136 102.86270 79.02105
#
# Poissons Ratio (x) = 1.85167 0.54745
# Poissons Ratio (y) = 0.10209 0.26591
# Poissons Ratio (z) = 0.03929 0.34613
#
# Static dielectric constant tensor:
#      x y z
#    x 1.663930 0.000000 0.000000 
#    y 0.000000 1.727590 0.000000 
#    z 0.000000 0.000000 1.596450 
# 
# From -- ./inp_files/22817.got.cif
#   From: 2010.05.17/outbox.cif.g08.bks.cpg/sg44_12_cif.got.tgz:22817.got - 2010.06.03 19:37:08.
