data_PCOD9373175
_publ_section_title
;
Structure prediction by ZEFSAII (Michael W. Deem and Ramdas Pophale) SiO2 
 PCOD9373175
Probable space group: I M M 2
;
_chemical_formula_sum "Si O2"
_cell_formula_units_Z 64
_cell_length_a 19.026114
_cell_length_b 8.366791
_cell_length_c 27.358907
_cell_angle_alpha 90.000000
_cell_angle_beta 90.000000
_cell_angle_gamma 90.000000
_cell_volume 4355.196538
_symmetry_space_group_name_H-M "I M M 2"
_symmetry_group_IT_number 44
_symmetry_cell_setting 'orthorhombic'
loop_
_space_group_symop_operation_xyz
x,y,z
-x,-y,z
-x,y,z
x,-y,z
1/2+x,1/2+y,1/2+z
1/2-x,1/2-y,1/2+z
1/2-x,1/2+y,1/2+z
1/2+x,1/2-y,1/2+z
loop_
_atom_site_type_symbol
_atom_site_label
_atom_site_fract_x
_atom_site_fract_y
_atom_site_fract_z
Si Si1 0.919423 0.805122 0.102640
Si Si2 0.212275 0.686563 0.864814
Si Si3 0.918873 0.806753 0.911580
Si Si4 0.334194 0.304804 0.509333
Si Si5 0.419630 0.689743 0.895303
Si Si6 0.170383 0.312301 0.303962
Si Si7 0.701442 0.186865 0.955501
Si Si8 0.918787 0.806839 0.213963
O O1 0.867198 0.749947 0.060260
O O2 0.902595 0.756841 0.158178
O O3 0.000000 0.757573 0.091808
O O4 0.918616 0.000000 0.102120
O O5 0.220799 0.500000 0.876615
O O6 0.131224 0.734730 0.869739
O O7 0.256269 0.724469 0.816280
O O8 0.251248 0.789805 0.906714
O O9 0.000000 0.758037 0.908678
O O10 0.915864 0.000000 0.909011
O O11 0.884527 0.758958 0.963847
O O12 0.332987 0.500000 0.509477
O O13 0.254473 0.252546 0.497411
O O14 0.500000 0.742958 0.900931
O O15 0.418783 0.500000 0.887079
O O16 0.383183 0.768227 0.848043
O O17 0.371017 0.727894 0.942055
O O18 0.183015 0.500000 0.304573
O O19 0.133824 0.261050 0.253863
O O20 0.687543 0.000000 0.962911
O O21 0.000000 0.760395 0.224526
O O22 0.916232 0.000000 0.215960
#
# Coordination Sequence:
#
# PCOD9373175 Si02
#       8
#     8   8   8   8   8   8   8   8
#     4   8  13  22  38  59  81 105 134 166 195 225
#     4  10  18  28  41  56  78 105 134 167 199 235
#     4   9  16  26  41  61  85 110 136 166 197 231
#     4   8  13  22  38  60  82 106 136 165 193 226
#     4  10  19  29  41  57  78 104 134 166 199 238
#     4  11  20  29  42  57  76 104 136 167 202 242
#     4   9  16  26  40  58  80 104 132 165 199 235
#     4   9  17  28  41  58  80 105 134 167 200 234
#
# _framework density 14.695088
#
# number of rings (size 3 to 8) (size 9 to 14) (size 15 to 20)
#    0.000    2.750    0.000    6.750    0.000    4.500 
#    0.000    0.000    0.000    3.750    0.000    3.500 
#    0.000    1.000    0.000    9.250    0.000    3.125 
#
# Total GULP energy -178199.588810 kJ/mol
# GULP energy per Si atom -5568.737150 kJ/mol
# Density = 1.466164 g / cm^3
# Si number density = 14.695088 Si / 1000 Ang^3
#
#
#
# Elastic Constant Matrix: (Units=GPa)
#
#
# Indices 1 2 3 4 5 6 
#
# 1 101.3243 10.6057 49.5953 0.0000 0.0000 0.0000
# 2 10.6057 19.0211 6.9589 0.0000 0.0000 0.0000
# 3 49.5953 6.9589 79.1408 0.0000 0.0000 0.0000
# 4 0.0000 0.0000 0.0000 12.4508 0.0000 0.0000
# 5 0.0000 0.0000 0.0000 0.0000 27.6969 0.0000
# 6 0.0000 0.0000 0.0000 0.0000 0.0000 10.4121
#
#
#
# Elastic Compliance Matrix: (Units=1/GPa)
#
#
# Indices 1 2 3 4 5 6 
#
# 1 0.014679 -0.004979 -0.008761 0.000000 0.000000 0.000000
# 2 -0.004979 0.056010 -0.001805 0.000000 0.000000 0.000000
# 3 -0.008761 -0.001805 0.018285 0.000000 0.000000 0.000000
# 4 0.000000 0.000000 0.000000 0.080316 0.000000 0.000000
# 5 0.000000 0.000000 0.000000 0.000000 0.036105 0.000000
# 6 0.000000 0.000000 0.000000 0.000000 0.000000 0.096043
#
#
# Mechanical properties :
#
#
# Convention : Reuss Voigt Hill
#
# Bulk Modulus (GPa) = 17.27612 37.08956 27.18284
# Shear Modulus (GPa) = 14.21180 18.93371 16.57276
#
# Velocity S-wave (km/s) = 3.11322 3.59338 3.36188
# Velocity P-wave (km/s) = 4.97039 6.52002 5.79722
#
# Compressibility (1/GPa) = 0.05788338
#
# Stress axis : x y z
#
# Youngs Moduli (GPa) = 68.12602 17.85408 54.69090
#
# Poissons Ratio (x) = 0.08890 0.47914
# Poissons Ratio (y) = 0.33922 0.09869
# Poissons Ratio (z) = 0.59684 0.03222
#
# Static dielectric constant tensor:
#      x y z
#    x 1.506970 0.000000 0.000000 
#    y 0.000000 1.505480 0.000000 
#    z 0.000000 0.000000 1.483400 
# 
# From -- ./inp_files/26603.got.cif
#   From: 2010.05.17/outbox.cif.g08.bks.cpg/sg44_14_cif.got.tgz:26603.got - 2010.06.03 19:37:08.
