data_PCOD9373337
_publ_section_title
;
Structure prediction by ZEFSAII (Michael W. Deem and Ramdas Pophale) SiO2 
 PCOD9373337
Probable space group: I M M 2
;
_chemical_formula_sum "Si O2"
_cell_formula_units_Z 52
_cell_length_a 15.379525
_cell_length_b 8.233448
_cell_length_c 24.849442
_cell_angle_alpha 90.000000
_cell_angle_beta 90.000000
_cell_angle_gamma 90.000000
_cell_volume 3146.598348
_symmetry_space_group_name_H-M "I M M 2"
_symmetry_group_IT_number 44
_symmetry_cell_setting 'orthorhombic'
loop_
_space_group_symop_operation_xyz
x,y,z
-x,-y,z
-x,y,z
x,-y,z
1/2+x,1/2+y,1/2+z
1/2-x,1/2-y,1/2+z
1/2-x,1/2+y,1/2+z
1/2+x,1/2-y,1/2+z
loop_
_atom_site_type_symbol
_atom_site_label
_atom_site_fract_x
_atom_site_fract_y
_atom_site_fract_z
Si Si1 0.897165 0.693700 0.433620
Si Si2 0.398062 0.693569 0.812391
Si Si3 0.097998 0.500000 0.602814
Si Si4 0.216551 0.500000 0.707186
Si Si5 0.744058 0.825043 0.733441
Si Si6 0.334368 0.315157 0.042566
Si Si7 0.904713 0.000000 0.153626
Si Si8 0.664893 0.822294 0.613165
O O1 0.884113 0.500000 0.437838
O O2 0.878068 0.751162 0.373214
O O3 0.842532 0.785456 0.479006
O O4 0.000000 0.726667 0.443560
O O5 0.500000 0.725768 0.802589
O O6 0.383465 0.500000 0.808324
O O7 0.339549 0.791565 0.770462
O O8 0.166874 0.500000 0.650943
O O9 0.113429 0.335363 0.568810
O O10 0.000000 0.500000 0.623446
O O11 0.197486 0.334705 0.738387
O O12 0.320873 0.500000 0.693189
O O13 0.715520 0.828367 0.670681
O O14 0.782609 0.000000 0.746634
O O15 0.364633 0.500000 0.055327
O O16 0.237484 0.302157 0.067131
O O17 0.894198 0.163568 0.118756
O O18 0.000000 0.000000 0.180367
O O19 0.622359 0.000000 0.606897
#
# Coordination Sequence:
#
# PCOD9373337 Si02
#       8
#     8   8   4   4   8   8   4   8
#     4  10  20  32  46  69 102 138 176 214 249 301
#     4  10  20  32  46  69 102 138 176 213 249 302
#     4  12  22  34  54  78 104 140 176 215 265 311
#     4  10  20  36  48  74 106 132 172 221 243 315
#     4  10  18  31  50  66  91 133 167 206 256 288
#     4  11  20  34  53  72 102 142 176 218 260 303
#     4  10  18  30  50  70  98 130 162 206 256 296
#     4   9  19  33  49  71  99 134 172 215 256 302
#
# _framework density 16.525782
#
# number of rings (size 3 to 8) (size 9 to 14) (size 15 to 20)
#    0.000    1.846    4.615    1.385    0.000    5.538 
#    0.000    3.077    0.000    0.000    0.000    0.000 
#    0.000    1.231    0.000    0.000    0.000    0.000 
#
# Total GULP energy -144862.263423 kJ/mol
# GULP energy per Si atom -5571.625516 kJ/mol
# Density = 1.648817 g / cm^3
# Si number density = 16.525782 Si / 1000 Ang^3
#
#
#
# Elastic Constant Matrix: (Units=GPa)
#
#
# Indices 1 2 3 4 5 6 
#
# 1 30.3483 13.9511 23.3641 0.0000 0.0000 0.0000
# 2 13.9511 138.9900 18.9941 0.0000 0.0000 0.0000
# 3 23.3641 18.9941 82.0670 0.0000 0.0000 0.0000
# 4 0.0000 0.0000 0.0000 23.4832 0.0000 0.0000
# 5 0.0000 0.0000 0.0000 0.0000 -3.3898 0.0000
# 6 0.0000 0.0000 0.0000 0.0000 0.0000 8.3509
#
#
#
# Elastic Compliance Matrix: (Units=1/GPa)
#
#
# Indices 1 2 3 4 5 6 
#
# 1 0.043188 -0.002741 -0.011661 0.000000 0.000000 0.000000
# 2 -0.002741 0.007604 -0.000979 0.000000 0.000000 0.000000
# 3 -0.011661 -0.000979 0.015732 0.000000 0.000000 0.000000
# 4 0.000000 0.000000 0.000000 0.042584 0.000000 0.000000
# 5 0.000000 0.000000 0.000000 0.000000 -0.295000 0.000000
# 6 0.000000 0.000000 0.000000 0.000000 0.000000 0.119748
#
#
# Mechanical properties :
#
#
# Convention : Reuss Voigt Hill
#
# Bulk Modulus (GPa) = 27.96411 40.44710 34.20561
# Shear Modulus (GPa) = -213.11863 18.69526 -97.21169
#
# Velocity S-wave (km/s) = -11.36843 3.36710 -7.67802
# Velocity P-wave (km/s) = 12.46449 6.29641 7.60653
#
# Compressibility (1/GPa) = 0.03576012
#
# Stress axis : x y z
#
# Youngs Moduli (GPa) = 23.15436 131.51360 63.56605
#
# Poissons Ratio (x) = 0.36054 0.74124
# Poissons Ratio (y) = 0.06348 0.06226
# Poissons Ratio (z) = 0.27000 0.12880
#
# Static dielectric constant tensor:
#      x y z
#    x 1.527020 0.000000 0.000000 
#    y 0.000000 1.651380 0.000000 
#    z 0.000000 0.000000 1.546930 
# 
# From -- ./inp_files/25663.got.cif
#   From: 2010.05.17/outbox.cif.g08.bks.cpg/sg44_13_cif.got.tgz:25663.got - 2010.06.03 19:37:08.
