data_PCOD9373451
_publ_section_title
;
Structure prediction by ZEFSAII (Michael W. Deem and Ramdas Pophale) SiO2 
 PCOD9373451
Probable space group: I M M 2
;
_chemical_formula_sum "Si O2"
_cell_formula_units_Z 48
_cell_length_a 17.054244
_cell_length_b 8.489011
_cell_length_c 19.196927
_cell_angle_alpha 90.000000
_cell_angle_beta 90.000000
_cell_angle_gamma 90.000000
_cell_volume 2779.209477
_symmetry_space_group_name_H-M "I M M 2"
_symmetry_group_IT_number 44
_symmetry_cell_setting 'orthorhombic'
loop_
_space_group_symop_operation_xyz
x,y,z
-x,-y,z
-x,y,z
x,-y,z
1/2+x,1/2+y,1/2+z
1/2-x,1/2-y,1/2+z
1/2-x,1/2+y,1/2+z
1/2+x,1/2-y,1/2+z
loop_
_atom_site_type_symbol
_atom_site_label
_atom_site_fract_x
_atom_site_fract_y
_atom_site_fract_z
Si Si1 0.167334 0.811686 0.398440
Si Si2 0.089483 0.190233 0.951346
Si Si3 0.812478 0.190208 0.816928
Si Si4 0.766260 0.689911 0.034442
Si Si5 0.500000 0.690881 0.084435
Si Si6 0.500000 0.186629 0.926636
Si Si7 0.839452 0.807660 0.659769
O O1 0.227167 0.745742 0.341494
O O2 0.204616 0.764102 0.473459
O O3 0.079601 0.749806 0.392527
O O4 0.166999 0.000000 0.396179
O O5 0.126634 0.242626 0.877119
O O6 0.000000 0.244840 0.959676
O O7 0.089081 0.000000 0.951154
O O8 0.149716 0.245871 0.010683
O O9 0.831748 0.246048 0.739240
O O10 0.814164 0.000000 0.816542
O O11 0.770176 0.500000 0.034670
O O12 0.730698 0.742318 0.108201
O O13 0.500000 0.500000 0.079817
O O14 0.578203 0.739483 0.125314
O O15 0.500000 0.754968 0.006499
O O16 0.500000 0.000000 0.924938
O O17 0.838869 0.000000 0.660545
#
# Coordination Sequence:
#
# PCOD9373451 Si02
#       7
#     8   8   8   8   4   4   8
#     4  10  19  34  53  74 102 137 173 208 252 310
#     4   9  18  31  48  73 100 127 162 207 254 298
#     4   9  18  32  51  76 104 132 166 209 256 303
#     4   9  17  31  51  73  96 131 172 206 243 293
#     4  10  18  32  52  78 108 141 172 203 248 309
#     4  12  22  32  52  80 106 131 168 219 262 301
#     4   9  17  30  52  77 103 134 169 205 246 300
#
# _framework density 17.271099
#
# number of rings (size 3 to 8) (size 9 to 14) (size 15 to 20)
#    0.000    2.500    1.667    1.250    1.167    1.000 
#    0.000    1.667    1.833    0.000    0.000    0.000 
#    0.000    0.000    0.000    0.000    0.000    0.000 
#
# Total GULP energy -133837.394818 kJ/mol
# GULP energy per Si atom -5576.558117 kJ/mol
# Density = 1.723179 g / cm^3
# Si number density = 17.271099 Si / 1000 Ang^3
#
#
#
# Elastic Constant Matrix: (Units=GPa)
#
#
# Indices 1 2 3 4 5 6 
#
# 1 161.3341 14.3218 56.3632 0.0000 0.0000 0.0000
# 2 14.3218 6.9808 8.6817 0.0000 0.0000 0.0000
# 3 56.3632 8.6817 88.7043 0.0000 0.0000 0.0000
# 4 0.0000 0.0000 0.0000 19.2102 0.0000 0.0000
# 5 0.0000 0.0000 0.0000 0.0000 18.3677 0.0000
# 6 0.0000 0.0000 0.0000 0.0000 0.0000 24.7590
#
#
#
# Elastic Compliance Matrix: (Units=1/GPa)
#
#
# Indices 1 2 3 4 5 6 
#
# 1 0.008859 -0.012724 -0.004384 0.000000 0.000000 0.000000
# 2 -0.012724 0.181376 -0.009667 0.000000 0.000000 0.000000
# 3 -0.004384 -0.009667 0.015005 0.000000 0.000000 0.000000
# 4 0.000000 0.000000 0.000000 0.052056 0.000000 0.000000
# 5 0.000000 0.000000 0.000000 0.000000 0.054443 0.000000
# 6 0.000000 0.000000 0.000000 0.000000 0.000000 0.040389
#
#
# Mechanical properties :
#
#
# Convention : Reuss Voigt Hill
#
# Bulk Modulus (GPa) = 6.59233 46.19473 26.39353
# Shear Modulus (GPa) = 10.95908 24.31089 17.63498
#
# Velocity S-wave (km/s) = 2.52173 3.75588 3.19888
# Velocity P-wave (km/s) = 3.50771 6.75379 5.38135
#
# Compressibility (1/GPa) = 0.15169142
#
# Stress axis : x y z
#
# Youngs Moduli (GPa) = 112.87452 5.51339 66.64370
#
# Poissons Ratio (x) = 0.07015 0.29217
# Poissons Ratio (y) = 1.43618 0.64425
# Poissons Ratio (z) = 0.49484 0.05330
#
# Static dielectric constant tensor:
#      x y z
#    x 1.575660 0.000000 0.000000 
#    y 0.000000 1.595520 0.000000 
#    z 0.000000 0.000000 1.576940 
# 
# From -- ./inp_files/20347.got.cif
#   From: 2010.05.17/outbox.cif.g08.bks.cpg/sg44_11_cif.got.tgz:20347.got - 2010.06.03 19:37:08.
