data_PCOD9373443
_publ_section_title
;
Structure prediction by ZEFSAII (Michael W. Deem and Ramdas Pophale) SiO2 
 PCOD9373443
Probable space group: I M M 2
;
_chemical_formula_sum "Si O2"
_cell_formula_units_Z 36
_cell_length_a 9.922287
_cell_length_b 13.380255
_cell_length_c 15.177107
_cell_angle_alpha 90.000000
_cell_angle_beta 90.000000
_cell_angle_gamma 90.000000
_cell_volume 2014.954163
_symmetry_space_group_name_H-M "I M M 2"
_symmetry_group_IT_number 44
_symmetry_cell_setting 'orthorhombic'
loop_
_space_group_symop_operation_xyz
x,y,z
-x,-y,z
-x,y,z
x,-y,z
1/2+x,1/2+y,1/2+z
1/2-x,1/2-y,1/2+z
1/2-x,1/2+y,1/2+z
1/2+x,1/2-y,1/2+z
loop_
_atom_site_type_symbol
_atom_site_label
_atom_site_fract_x
_atom_site_fract_y
_atom_site_fract_z
Si Si1 0.206118 0.186815 0.042980
Si Si2 0.500000 0.619929 0.205007
Si Si3 0.709647 0.883803 0.635634
Si Si4 0.500000 0.380092 0.401337
Si Si5 0.000000 0.112793 0.186972
Si Si6 0.000000 0.379307 0.485721
Si Si7 0.500000 0.180713 0.779913
O O1 0.170709 0.302635 0.062858
O O2 0.129954 0.129997 0.123297
O O3 0.130825 0.153643 0.954673
O O4 0.363229 0.161532 0.031273
O O5 0.500000 0.500000 0.213959
O O6 0.636134 0.643284 0.155291
O O7 0.500000 0.661790 0.303163
O O8 0.626235 0.864456 0.725310
O O9 0.695096 0.000000 0.611229
O O10 0.500000 0.500000 0.399851
O O11 0.000000 0.200472 0.259462
O O12 0.000000 0.000000 0.221017
O O13 0.000000 0.346333 0.382392
O O14 0.000000 0.500000 0.489201
#
# Coordination Sequence:
#
# PCOD9373443 Si02
#       7
#     8   4   8   4   4   4   4
#     4  10  20  31  50  76 100 128 164 199 247 295
#     4   9  18  31  51  70  93 125 158 195 242 285
#     4  10  19  34  51  72  99 131 164 201 241 292
#     4  10  18  32  50  72  97 127 161 200 242 291
#     4   9  18  37  54  69  96 137 173 197 231 299
#     4  12  21  32  50  79 106 122 153 215 263 284
#     4  10  21  32  52  78 100 127 166 205 251 293
#
# _framework density 17.866410999999999
#
# number of rings (size 3 to 8) (size 9 to 14) (size 15 to 20)
#    0.000    2.000    0.000    6.333    0.000    1.778 
#    0.000    1.111    0.000    0.000    0.000    9.333 
#    0.000    0.000    0.000    0.000    0.000    0.000 
#
# Total GULP energy -100373.469302 kJ/mol
# GULP energy per Si atom -5576.303850 kJ/mol
# Density = 1.782575 g / cm^3
# Si number density = 17.866411 Si / 1000 Ang^3
#
#
#
# Elastic Constant Matrix: (Units=GPa)
#
#
# Indices 1 2 3 4 5 6 
#
# 1 121.1442 22.0215 10.4823 0.0000 0.0000 0.0000
# 2 22.0215 138.7358 37.8026 0.0000 0.0000 0.0000
# 3 10.4823 37.8026 47.4125 0.0000 0.0000 0.0000
# 4 0.0000 0.0000 0.0000 23.1720 0.0000 0.0000
# 5 0.0000 0.0000 0.0000 0.0000 11.7778 0.0000
# 6 0.0000 0.0000 0.0000 0.0000 0.0000 22.3353
#
#
#
# Elastic Compliance Matrix: (Units=1/GPa)
#
#
# Indices 1 2 3 4 5 6 
#
# 1 0.008539 -0.001074 -0.001031 0.000000 0.000000 0.000000
# 2 -0.001074 0.009344 -0.007212 0.000000 0.000000 0.000000
# 3 -0.001031 -0.007212 0.027070 0.000000 0.000000 0.000000
# 4 0.000000 0.000000 0.000000 0.043156 0.000000 0.000000
# 5 0.000000 0.000000 0.000000 0.000000 0.084906 0.000000
# 6 0.000000 0.000000 0.000000 0.000000 0.000000 0.044772
#
#
# Mechanical properties :
#
#
# Convention : Reuss Voigt Hill
#
# Bulk Modulus (GPa) = 37.99846 49.76725 43.88285
# Shear Modulus (GPa) = 20.39198 27.25608 23.82403
#
# Velocity S-wave (km/s) = 3.38206 3.91006 3.65561
# Velocity P-wave (km/s) = 6.04693 6.94985 6.51406
#
# Compressibility (1/GPa) = 0.02631686
#
# Stress axis : x y z
#
# Youngs Moduli (GPa) = 117.10744 107.02410 36.94133
#
# Poissons Ratio (x) = 0.11499 0.03810
# Poissons Ratio (y) = 0.12582 0.26643
# Poissons Ratio (z) = 0.12077 0.77189
#
# Static dielectric constant tensor:
#      x y z
#    x 1.310630 0.000000 0.000000 
#    y 0.000000 1.616170 0.000000 
#    z 0.000000 0.000000 1.587400 
# 
# From -- ./inp_files/15766.got.cif
#   From: 2010.05.17/outbox.cif.g08.bks.cpg/sg44_8_cif.got.tgz:15766.got - 2010.06.03 19:37:08.
