data_PCOD9373754
_publ_section_title
;
Structure prediction by ZEFSAII (Michael W. Deem and Ramdas Pophale) SiO2 
 PCOD9373754
Probable space group: I M M 2
;
_chemical_formula_sum "Si O2"
_cell_formula_units_Z 64
_cell_length_a 14.794143
_cell_length_b 21.588522
_cell_length_c 9.580961
_cell_angle_alpha 90.000000
_cell_angle_beta 90.000000
_cell_angle_gamma 90.000000
_cell_volume 3060.002598
_symmetry_space_group_name_H-M "I M M 2"
_symmetry_group_IT_number 44
_symmetry_cell_setting 'orthorhombic'
loop_
_space_group_symop_operation_xyz
x,y,z
-x,-y,z
-x,y,z
x,-y,z
1/2+x,1/2+y,1/2+z
1/2-x,1/2-y,1/2+z
1/2-x,1/2+y,1/2+z
1/2+x,1/2-y,1/2+z
loop_
_atom_site_type_symbol
_atom_site_label
_atom_site_fract_x
_atom_site_fract_y
_atom_site_fract_z
Si Si1 0.890836 0.929470 0.674150
Si Si2 0.651631 0.430868 0.491867
Si Si3 0.605593 0.205237 0.148659
Si Si4 0.849254 0.432822 0.626202
Si Si5 0.396202 0.688197 0.658446
Si Si6 0.890190 0.433553 0.951450
Si Si7 0.610727 0.201668 0.468253
Si Si8 0.610775 0.679378 0.969496
O O1 0.848997 0.918637 0.826580
O O2 0.861156 0.879532 0.560938
O O3 0.000000 0.924323 0.691662
O O4 0.871245 0.000000 0.630184
O O5 0.611516 0.500000 0.511268
O O6 0.751042 0.432551 0.557718
O O7 0.604417 0.374775 0.570729
O O8 0.500000 0.219651 0.162626
O O9 0.611546 0.134911 0.092710
O O10 0.641378 0.209259 0.307372
O O11 0.640998 0.257553 0.044803
O O12 0.891704 0.500000 0.586027
O O13 0.850424 0.433289 0.794936
O O14 0.500000 0.706546 0.683268
O O15 0.355553 0.743662 0.567265
O O16 0.355625 0.677222 0.810854
O O17 0.866285 0.500000 0.018430
O O18 0.865233 0.367819 0.018133
O O19 0.000000 0.432621 0.935373
O O20 0.500000 0.204593 0.465557
O O21 0.500000 0.677187 0.966990
#
# Coordination Sequence:
#
# PCOD9373754 Si02
#       8
#     8   8   8   8   8   8   8   8
#     4   9  17  31  51  73  96 125 163 201 239 290
#     4  10  20  32  47  68  95 125 157 200 248 290
#     4   9  16  29  50  72  96 127 160 194 235 285
#     4   9  17  29  46  70  98 123 155 201 244 280
#     4  10  19  31  47  68  97 129 161 199 241 285
#     4   8  13  24  46  75 102 128 161 200 240 284
#     4   8  14  25  45  71  95 123 158 194 231 273
#     4   9  18  31  48  71  97 124 157 201 244 281
#
# _framework density 20.915015
#
# number of rings (size 3 to 8) (size 9 to 14) (size 15 to 20)
#    0.000    3.000    0.000    2.250    0.000    4.000 
#    0.000    5.000    0.000    0.750    0.000    8.750 
#    0.000    0.000    0.000    0.000    0.000    0.000 
#
# Total GULP energy -178309.907664 kJ/mol
# GULP energy per Si atom -5572.184614 kJ/mol
# Density = 2.086741 g / cm^3
# Si number density = 20.915015 Si / 1000 Ang^3
#
#
#
# Elastic Constant Matrix: (Units=GPa)
#
#
# Indices 1 2 3 4 5 6 
#
# 1 51.2984 -1.5095 11.6887 0.0000 0.0000 0.0000
# 2 -1.5095 192.4961 104.0820 0.0000 0.0000 0.0000
# 3 11.6887 104.0820 90.7856 -0.0003 0.0000 0.0000
# 4 0.0000 0.0000 -0.0003 -5.3825 0.0000 0.0000
# 5 0.0000 0.0000 0.0000 0.0000 -5.5087 0.0000
# 6 0.0000 0.0000 0.0000 0.0000 0.0000 -41.5394
#
#
#
# Elastic Compliance Matrix: (Units=1/GPa)
#
#
# Indices 1 2 3 4 5 6 
#
# 1 0.021388 0.004358 -0.007750 0.000000 0.000000 0.000000
# 2 0.004358 0.014555 -0.017248 0.000001 0.000000 0.000000
# 3 -0.007750 -0.017248 0.031787 -0.000002 0.000000 0.000000
# 4 0.000000 0.000001 -0.000002 -0.185789 0.000000 0.000000
# 5 0.000000 0.000000 0.000000 0.000000 -0.181531 0.000000
# 6 0.000000 0.000000 0.000000 0.000000 0.000000 -0.024074
#
#
# Mechanical properties :
#
#
# Convention : Reuss Voigt Hill
#
# Bulk Modulus (GPa) = 37.80718 62.56694 50.18706
# Shear Modulus (GPa) = -18.27701 4.20182 -7.03760
#
# Velocity S-wave (km/s) = -2.95934 1.41893 -1.83634
# Velocity P-wave (km/s) = 2.53750 5.71527 4.42172
#
# Compressibility (1/GPa) = 0.02645000
#
# Stress axis : x y z
#
# Youngs Moduli (GPa) = 46.75517 68.70565 31.45984
#
# Poissons Ratio (x) = -0.29944 0.24382
# Poissons Ratio (y) = -0.20377 0.54261
# Poissons Ratio (z) = 0.36237 1.18501
#
# Static dielectric constant tensor:
#      x y z
#    x 1.827870 0.000000 0.000000 
#    y 0.000000 1.785050 0.000000 
#    z 0.000000 0.000000 1.709730 
# 
# From -- ./inp_files/8515.got.cif
#   From: 2010.05.17/outbox.cif.g08.bks.cpg/sg44_5_cif.got.tgz:8515.got - 2010.06.03 19:37:08.
