data_PCOD9373537
_publ_section_title
;
Structure prediction by ZEFSAII (Michael W. Deem and Ramdas Pophale) SiO2 
 PCOD9373537
Probable space group: I M M 2
;
_chemical_formula_sum "Si O2"
_cell_formula_units_Z 64
_cell_length_a 32.003626
_cell_length_b 7.368480
_cell_length_c 12.330271
_cell_angle_alpha 90.000000
_cell_angle_beta 90.000000
_cell_angle_gamma 90.000000
_cell_volume 2907.700810
_symmetry_space_group_name_H-M "I M M 2"
_symmetry_group_IT_number 44
_symmetry_cell_setting 'orthorhombic'
loop_
_space_group_symop_operation_xyz
x,y,z
-x,-y,z
-x,y,z
x,-y,z
1/2+x,1/2+y,1/2+z
1/2-x,1/2-y,1/2+z
1/2-x,1/2+y,1/2+z
1/2+x,1/2-y,1/2+z
loop_
_atom_site_type_symbol
_atom_site_label
_atom_site_fract_x
_atom_site_fract_y
_atom_site_fract_z
Si Si1 0.794641 0.278240 0.072830
Si Si2 0.871611 0.722172 0.922978
Si Si3 0.045968 0.721647 0.530723
Si Si4 0.545801 0.778818 0.553707
Si Si5 0.701157 0.291574 0.037645
Si Si6 0.428957 0.220932 0.792206
Si Si7 0.878397 0.291054 0.678256
Si Si8 0.167735 0.719152 0.301192
O O1 0.794586 0.500000 0.069132
O O2 0.808209 0.223626 0.193449
O O3 0.830258 0.219651 0.988152
O O4 0.747740 0.215207 0.049093
O O5 0.870782 0.500000 0.924702
O O6 0.872225 0.785046 0.798533
O O7 0.913936 0.778506 0.984884
O O8 0.047786 0.500000 0.528552
O O9 0.051306 0.779907 0.405707
O O10 0.084335 0.786991 0.604471
O O11 0.000000 0.773032 0.571079
O O12 0.500000 0.722965 0.512834
O O13 0.550952 0.721220 0.679042
O O14 0.546557 0.000000 0.553000
O O15 0.703111 0.500000 0.073075
O O16 0.687705 0.282899 0.912689
O O17 0.664384 0.209571 0.110221
O O18 0.380461 0.274720 0.793217
O O19 0.430709 0.000000 0.791686
O O20 0.890594 0.500000 0.696352
O O21 0.168035 0.500000 0.304224
#
# Coordination Sequence:
#
# PCOD9373537 Si02
#       8
#     8   8   8   8   8   8   8   8
#     4   9  19  34  51  73 102 135 169 211 261 306
#     4   9  17  30  47  70 102 137 171 208 252 305
#     4   9  16  26  43  72 104 130 165 212 254 294
#     4   9  15  23  40  71 107 135 160 202 261 312
#     4  11  23  36  52  77 106 135 171 218 263 301
#     4   9  14  24  44  71 102 132 162 200 252 306
#     4  10  20  34  53  75 102 141 178 210 254 307
#     4  10  18  34  58  77  99 135 174 209 254 311
#
# _framework density 22.010515999999999
#
# number of rings (size 3 to 8) (size 9 to 14) (size 15 to 20)
#    0.000    2.500    2.500    0.750    1.750    2.000 
#    0.000    3.125    0.000    1.125    0.000    0.000 
#    0.000    1.000    0.000    0.000    0.000    0.000 
#
# Total GULP energy -178755.773917 kJ/mol
# GULP energy per Si atom -5586.117935 kJ/mol
# Density = 2.196042 g / cm^3
# Si number density = 22.010516 Si / 1000 Ang^3
#
#
#
# Elastic Constant Matrix: (Units=GPa)
#
#
# Indices 1 2 3 4 5 6 
#
# 1 205.8851 -2.2687 96.8473 0.0000 0.0000 0.0000
# 2 -2.2687 74.6132 -3.8295 0.0000 0.0000 0.0000
# 3 96.8473 -3.8295 175.2862 0.0000 0.0000 0.0000
# 4 0.0000 0.0000 0.0000 -13.2860 0.0000 0.0000
# 5 0.0000 0.0000 0.0000 0.0000 104.5777 0.0000
# 6 0.0000 0.0000 0.0000 0.0000 0.0000 2.8018
#
#
#
# Elastic Compliance Matrix: (Units=1/GPa)
#
#
# Indices 1 2 3 4 5 6 
#
# 1 0.006563 0.000013 -0.003626 0.000000 0.000000 0.000000
# 2 0.000013 0.013418 0.000286 0.000000 0.000000 0.000000
# 3 -0.003626 0.000286 0.007714 0.000000 0.000000 0.000000
# 4 0.000000 0.000000 0.000000 -0.075267 0.000000 0.000000
# 5 0.000000 0.000000 0.000000 0.000000 0.009562 0.000000
# 6 0.000000 0.000000 0.000000 0.000000 0.000000 0.356915
#
#
# Mechanical properties :
#
#
# Convention : Reuss Voigt Hill
#
# Bulk Modulus (GPa) = 47.52479 70.80917 59.16698
# Shear Modulus (GPa) = 15.03435 43.15440 29.09437
#
# Velocity S-wave (km/s) = 2.61636 4.43270 3.63966
# Velocity P-wave (km/s) = 5.54670 7.64453 6.67850
#
# Compressibility (1/GPa) = 0.02104165
#
# Stress axis : x y z
#
# Youngs Moduli (GPa) = 152.37571 74.52933 129.62738
#
# Poissons Ratio (x) = -0.00100 0.46999
# Poissons Ratio (y) = -0.00205 -0.03703
# Poissons Ratio (z) = 0.55246 -0.02129
#
# Static dielectric constant tensor:
#      x y z
#    x 1.771370 0.000000 0.000000 
#    y 0.000000 1.876130 0.000000 
#    z 0.000000 0.000000 1.750890 
# 
# From -- ./inp_files/15079.got.cif
#   From: 2010.05.17/outbox.cif.g08.bks.cpg/sg44_8_cif.got.tgz:15079.got - 2010.06.03 19:37:08.
