data_PCOD9373265
_publ_section_title
;
Structure prediction by ZEFSAII (Michael W. Deem and Ramdas Pophale) SiO2 
 PCOD9373265
Probable space group: I M M 2
;
_chemical_formula_sum "Si O2"
_cell_formula_units_Z 64
_cell_length_a 14.958442
_cell_length_b 7.619460
_cell_length_c 25.105964
_cell_angle_alpha 90.000000
_cell_angle_beta 90.000000
_cell_angle_gamma 90.000000
_cell_volume 2861.458535
_symmetry_space_group_name_H-M "I M M 2"
_symmetry_group_IT_number 44
_symmetry_cell_setting 'orthorhombic'
loop_
_space_group_symop_operation_xyz
x,y,z
-x,-y,z
-x,y,z
x,-y,z
1/2+x,1/2+y,1/2+z
1/2-x,1/2-y,1/2+z
1/2-x,1/2+y,1/2+z
1/2+x,1/2-y,1/2+z
loop_
_atom_site_type_symbol
_atom_site_label
_atom_site_fract_x
_atom_site_fract_y
_atom_site_fract_z
Si Si1 0.839272 0.299852 0.392470
Si Si2 0.373865 0.296935 0.388423
Si Si3 0.102117 0.714269 0.277126
Si Si4 0.594874 0.201897 0.271855
Si Si5 0.901908 0.297510 0.007169
Si Si6 0.254139 0.695880 0.202139
Si Si7 0.101854 0.784854 0.616942
Si Si8 0.699143 0.708238 0.011413
O O1 0.872120 0.500000 0.394236
O O2 0.732966 0.294189 0.384455
O O3 0.878407 0.221056 0.337668
O O4 0.845188 0.232943 0.453167
O O5 0.401292 0.500000 0.390328
O O6 0.407171 0.209479 0.335140
O O7 0.401871 0.207400 0.442930
O O8 0.114637 0.500000 0.278679
O O9 0.168124 0.779809 0.230468
O O10 0.000000 0.751445 0.264113
O O11 0.500000 0.269715 0.251118
O O12 0.676784 0.312282 0.251203
O O13 0.606042 0.000000 0.255520
O O14 0.901355 0.500000 0.025514
O O15 0.801815 0.219544 0.018011
O O16 0.000000 0.222367 0.024133
O O17 0.228628 0.500000 0.183398
O O18 0.318781 0.774519 0.156828
O O19 0.134145 0.731193 0.558204
O O20 0.000000 0.726082 0.627733
O O21 0.100517 0.000000 0.620214
O O22 0.709883 0.500000 0.017508
#
# Coordination Sequence:
#
# PCOD9373265 Si02
#       8
#     8   8   8   8   8   8   8   8
#     4   9  17  31  49  73 104 137 170 207 252 303
#     4  10  18  29  46  70  99 134 174 211 247 302
#     4   9  17  31  52  78 107 134 164 211 266 313
#     4  11  22  32  45  70 103 136 168 208 261 312
#     4   9  17  29  44  65  98 137 169 203 254 307
#     4  10  19  35  56  76  99 134 176 215 260 313
#     4   9  18  33  54  78 103 131 169 220 266 303
#     4   9  18  32  50  73 100 134 171 211 257 305
#
# _framework density 22.366216999999999
#
# number of rings (size 3 to 8) (size 9 to 14) (size 15 to 20)
#    0.000    2.500    1.250    1.500    0.000    4.250 
#    0.000    1.250    0.000    5.625    0.000    0.000 
#    0.000    2.000    0.000    0.000    0.000    0.000 
#
# Total GULP energy -178266.730025 kJ/mol
# GULP energy per Si atom -5570.835313 kJ/mol
# Density = 2.231531 g / cm^3
# Si number density = 22.366217 Si / 1000 Ang^3
#
#
#
# Elastic Constant Matrix: (Units=GPa)
#
#
# Indices 1 2 3 4 5 6 
#
# 1 145.6616 6.6334 68.7214 0.0000 0.0000 0.0000
# 2 6.6334 50.9496 -1.1764 0.0000 0.0000 0.0000
# 3 68.7214 -1.1764 126.5690 0.0000 0.0000 0.0000
# 4 0.0000 0.0000 0.0000 11.3653 0.0000 0.0000
# 5 0.0000 0.0000 0.0000 0.0000 19.8248 0.0000
# 6 0.0000 0.0000 0.0000 0.0000 0.0000 -3.5079
#
#
#
# Elastic Compliance Matrix: (Units=1/GPa)
#
#
# Indices 1 2 3 4 5 6 
#
# 1 0.009319 -0.001330 -0.005072 0.000000 0.000000 0.000000
# 2 -0.001330 0.019821 0.000907 0.000000 0.000000 0.000000
# 3 -0.005072 0.000907 0.010663 0.000000 0.000000 0.000000
# 4 0.000000 0.000000 0.000000 0.087987 0.000000 0.000000
# 5 0.000000 0.000000 0.000000 0.000000 0.050442 0.000000
# 6 0.000000 0.000000 0.000000 0.000000 0.000000 -0.285071
#
#
# Mechanical properties :
#
#
# Convention : Reuss Voigt Hill
#
# Bulk Modulus (GPa) = 34.70823 52.39298 43.55060
# Shear Modulus (GPa) = -57.97579 22.13656 -17.91962
#
# Velocity S-wave (km/s) = -5.09680 3.14941 -2.83360
# Velocity P-wave (km/s) = 4.36861 6.05813 2.96785
#
# Compressibility (1/GPa) = 0.02881161
#
# Stress axis : x y z
#
# Youngs Moduli (GPa) = 107.31074 50.45055 93.78103
#
# Poissons Ratio (x) = 0.06712 0.47566
# Poissons Ratio (y) = 0.14276 -0.08502
# Poissons Ratio (z) = 0.54428 -0.04574
#
# Static dielectric constant tensor:
#      x y z
#    x 1.861020 0.000000 0.000000 
#    y 0.000000 1.910810 0.000000 
#    z 0.000000 0.000000 1.836370 
# 
# From -- ./inp_files/25763.got.cif
#   From: 2010.05.17/outbox.cif.g08.bks.cpg/sg44_13_cif.got.tgz:25763.got - 2010.06.03 19:37:08.
