data_PCOD9373985
_publ_section_title
;
Structure prediction by ZEFSAII (Michael W. Deem and Ramdas Pophale) SiO2 
 PCOD9373985
Probable space group: I M M 2
;
_chemical_formula_sum "Si O2"
_cell_formula_units_Z 48
_cell_length_a 7.967547
_cell_length_b 18.988698
_cell_length_c 15.379389
_cell_angle_alpha 90.000000
_cell_angle_beta 90.000000
_cell_angle_gamma 90.000000
_cell_volume 2326.799187
_symmetry_space_group_name_H-M "I M M 2"
_symmetry_group_IT_number 44
_symmetry_cell_setting 'orthorhombic'
loop_
_space_group_symop_operation_xyz
x,y,z
-x,-y,z
-x,y,z
x,-y,z
1/2+x,1/2+y,1/2+z
1/2-x,1/2-y,1/2+z
1/2-x,1/2+y,1/2+z
1/2+x,1/2-y,1/2+z
loop_
_atom_site_type_symbol
_atom_site_label
_atom_site_fract_x
_atom_site_fract_y
_atom_site_fract_z
Si Si1 0.702911 0.109551 0.306090
Si Si2 0.299574 0.259730 0.248579
Si Si3 0.308051 0.500000 0.463141
Si Si4 0.197966 0.345244 0.408146
Si Si5 0.303229 0.575275 0.994474
Si Si6 0.798965 0.500000 0.658537
Si Si7 0.206538 0.229440 0.549764
O O1 0.500000 0.106470 0.317466
O O2 0.762309 0.189342 0.296106
O O3 0.784508 0.076671 0.390647
O O4 0.740446 0.067050 0.218468
O O5 0.500000 0.253072 0.242295
O O6 0.262692 0.323911 0.312799
O O7 0.238370 0.260219 0.149482
O O8 0.500000 0.500000 0.435700
O O9 0.231808 0.426311 0.430887
O O10 0.291274 0.500000 0.567302
O O11 0.263907 0.290404 0.482477
O O12 0.000000 0.334681 0.406656
O O13 0.500000 0.575513 0.017975
O O14 0.231059 0.500000 0.025997
O O15 0.234385 0.650925 0.023895
O O16 0.000000 0.500000 0.641603
O O17 0.000000 0.230249 0.547914
#
# Coordination Sequence:
#
# PCOD9373985 Si02
#       7
#     8   8   4   8   8   4   8
#     4  10  19  32  55  83 117 154 190 236 295 356
#     4  10  20  36  58  86 116 152 201 249 294 349
#     4  12  26  42  60  87 118 151 196 253 304 350
#     4  11  22  41  65  86 118 161 201 245 297 357
#     4  10  19  33  55  83 116 152 196 242 288 347
#     4  10  20  36  58  87 120 159 196 235 296 364
#     4   9  19  37  60  85 117 159 200 241 294 354
#
# _framework density 20.629196
#
# number of rings (size 3 to 8) (size 9 to 14) (size 15 to 20)
#    0.000    1.833    2.500    2.250    0.000    3.333 
#    1.500    4.167    0.000    0.000    0.000    0.000 
#    0.000    0.000    0.000    0.000    0.000    0.000 
#
# Total GULP energy -133929.282226 kJ/mol
# GULP energy per Si atom -5580.386759 kJ/mol
# Density = 2.058224 g / cm^3
# Si number density = 20.629196 Si / 1000 Ang^3
#
#
#
# Elastic Constant Matrix: (Units=GPa)
#
#
# Indices 1 2 3 4 5 6 
#
# 1 11.8985 -4.7882 -1.8493 0.0000 0.0000 0.0000
# 2 -4.7882 133.0033 27.6574 0.0000 0.0000 0.0000
# 3 -1.8493 27.6574 72.9877 0.0000 0.0000 0.0000
# 4 0.0000 0.0000 0.0000 51.3651 0.0000 0.0000
# 5 0.0000 0.0000 0.0000 0.0000 23.2967 0.0000
# 6 0.0000 0.0000 0.0000 0.0000 0.0000 14.4228
#
#
#
# Elastic Compliance Matrix: (Units=1/GPa)
#
#
# Indices 1 2 3 4 5 6 
#
# 1 0.085359 0.002848 0.001084 0.000000 0.000000 0.000000
# 2 0.002848 0.008257 -0.003057 0.000000 0.000000 0.000000
# 3 0.001084 -0.003057 0.014887 0.000000 0.000000 0.000000
# 4 0.000000 0.000000 0.000000 0.019468 0.000000 0.000000
# 5 0.000000 0.000000 0.000000 0.000000 0.042924 0.000000
# 6 0.000000 0.000000 0.000000 0.000000 0.000000 0.069335
#
#
# Mechanical properties :
#
#
# Convention : Reuss Voigt Hill
#
# Bulk Modulus (GPa) = 9.07019 28.88103 18.97561
# Shear Modulus (GPa) = 18.16659 30.94156 24.55408
#
# Velocity S-wave (km/s) = 2.97075 3.87705 3.45376
# Velocity P-wave (km/s) = 4.02163 5.83716 5.01228
#
# Compressibility (1/GPa) = 0.11025133
#
# Stress axis : x y z
#
# Youngs Moduli (GPa) = 11.71529 121.11330 67.17434
#
# Poissons Ratio (x) = -0.34488 -0.07280
# Poissons Ratio (y) = -0.03336 0.20532
# Poissons Ratio (z) = -0.01270 0.37019
#
# Static dielectric constant tensor:
#      x y z
#    x 1.752860 0.000000 0.000000 
#    y 0.000000 1.654460 0.000000 
#    z 0.000000 0.000000 1.708340 
# 
# From -- ./inp_files/16121.got.cif
#   From: 2010.05.17/outbox.cif.g08.bks.cpg/sg44_9_cif.got.tgz:16121.got - 2010.06.03 19:37:08.
