data_PCOD9373838
_publ_section_title
;
Structure prediction by ZEFSAII (Michael W. Deem and Ramdas Pophale) SiO2 
 PCOD9373838
Probable space group: I M M 2
;
_chemical_formula_sum "Si O2"
_cell_formula_units_Z 64
_cell_length_a 31.255990
_cell_length_b 8.187431
_cell_length_c 14.837284
_cell_angle_alpha 90.000000
_cell_angle_beta 90.000000
_cell_angle_gamma 90.000000
_cell_volume 3796.953879
_symmetry_space_group_name_H-M "I M M 2"
_symmetry_group_IT_number 44
_symmetry_cell_setting 'orthorhombic'
loop_
_space_group_symop_operation_xyz
x,y,z
-x,-y,z
-x,y,z
x,-y,z
1/2+x,1/2+y,1/2+z
1/2-x,1/2-y,1/2+z
1/2-x,1/2+y,1/2+z
1/2+x,1/2-y,1/2+z
loop_
_atom_site_type_symbol
_atom_site_label
_atom_site_fract_x
_atom_site_fract_y
_atom_site_fract_z
Si Si1 0.365259 0.194002 0.421360
Si Si2 0.210815 0.802820 0.433461
Si Si3 0.048956 0.802841 0.844573
Si Si4 0.206961 0.808681 0.051201
Si Si5 0.234621 0.689438 0.238033
Si Si6 0.048606 0.800174 0.636716
Si Si7 0.867995 0.810537 0.549671
Si Si8 0.328352 0.189329 0.228334
O O1 0.415149 0.236047 0.411427
O O2 0.337038 0.276089 0.498352
O O3 0.345168 0.244994 0.325200
O O4 0.359662 0.000000 0.429928
O O5 0.252971 0.749086 0.489313
O O6 0.213023 0.740331 0.331515
O O7 0.167562 0.740471 0.482300
O O8 0.210780 0.000000 0.434213
O O9 0.057891 0.750151 0.740561
O O10 0.000000 0.754840 0.865309
O O11 0.050887 0.000000 0.845660
O O12 0.208155 0.718568 0.147108
O O13 0.212221 0.000000 0.067325
O O14 0.247103 0.500000 0.243520
O O15 0.277506 0.795025 0.228379
O O16 0.084720 0.740045 0.567569
O O17 0.000000 0.751715 0.615450
O O18 0.049899 0.000000 0.636777
O O19 0.846709 0.796945 0.648125
O O20 0.873420 0.000000 0.524193
O O21 0.340823 0.000000 0.214246
#
# Coordination Sequence:
#
# PCOD9373838 Si02
#       8
#     8   8   8   8   8   8   8   8
#     4  11  22  34  50  75 107 142 178 216 257 313
#     4  11  22  35  51  76 105 135 176 216 255 311
#     4   9  17  30  50  75 104 138 177 217 258 310
#     4  12  24  37  55  76 102 136 174 218 263 310
#     4  12  24  38  54  72 100 138 176 218 263 308
#     4   8  14  26  46  73 102 133 170 209 251 302
#     4  10  19  31  51  74 102 138 175 213 255 303
#     4  11  21  31  48  72 104 138 173 215 254 300
#
# _framework density 16.855618
#
# number of rings (size 3 to 8) (size 9 to 14) (size 15 to 20)
#    0.000    1.500    3.750    4.125    0.000    1.750 
#    0.000    0.000    0.000    0.375    0.000    0.875 
#    0.000    5.000    0.000    0.000    0.000    0.000 
#
# Total GULP energy -178577.226059 kJ/mol
# GULP energy per Si atom -5580.538314 kJ/mol
# Density = 1.681725 g / cm^3
# Si number density = 16.855618 Si / 1000 Ang^3
#
#
#
# Elastic Constant Matrix: (Units=GPa)
#
#
# Indices 1 2 3 4 5 6 
#
# 1 113.6246 -0.7810 42.2443 0.0000 0.0000 0.0000
# 2 -0.7810 30.6680 7.2245 0.0000 0.0000 0.0000
# 3 42.2443 7.2245 76.4439 0.0000 0.0000 0.0000
# 4 0.0000 0.0000 0.0000 18.5826 0.0000 0.0000
# 5 0.0000 0.0000 0.0000 0.0000 18.9089 0.0000
# 6 0.0000 0.0000 0.0000 0.0000 0.0000 25.6713
#
#
#
# Elastic Compliance Matrix: (Units=1/GPa)
#
#
# Indices 1 2 3 4 5 6 
#
# 1 0.011171 0.001778 -0.006341 0.000000 0.000000 0.000000
# 2 0.001778 0.033633 -0.004161 0.000000 0.000000 0.000000
# 3 -0.006341 -0.004161 0.016979 0.000000 0.000000 0.000000
# 4 0.000000 0.000000 0.000000 0.053814 0.000000 0.000000
# 5 0.000000 0.000000 0.000000 0.000000 0.052885 0.000000
# 6 0.000000 0.000000 0.000000 0.000000 0.000000 0.038954
#
#
# Mechanical properties :
#
#
# Convention : Reuss Voigt Hill
#
# Bulk Modulus (GPa) = 22.55595 35.34579 28.95087
# Shear Modulus (GPa) = 20.86273 24.10248 22.48260
#
# Velocity S-wave (km/s) = 3.52196 3.78555 3.65613
# Velocity P-wave (km/s) = 5.47264 6.33423 5.91913
#
# Compressibility (1/GPa) = 0.04433419
#
# Stress axis : x y z
#
# Youngs Moduli (GPa) = 89.51967 29.73287 58.89619
#
# Poissons Ratio (x) = -0.05287 0.37347
# Poissons Ratio (y) = -0.15919 0.24508
# Poissons Ratio (z) = 0.56766 0.12373
#
# Static dielectric constant tensor:
#      x y z
#    x 1.597370 0.000000 0.000000 
#    y 0.000000 1.597630 0.000000 
#    z 0.000000 0.000000 1.553510 
# 
# From -- ./inp_files/19706.got.cif
#   From: 2010.05.17/outbox.cif.g08.bks.cpg/sg44_10_cif.got.tgz:19706.got - 2010.06.03 19:37:08.
