data_PCOD9373524
_publ_section_title
;
Structure prediction by ZEFSAII (Michael W. Deem and Ramdas Pophale) SiO2 
 PCOD9373524
Probable space group: I M M 2
;
_chemical_formula_sum "Si O2"
_cell_formula_units_Z 58
_cell_length_a 7.597027
_cell_length_b 18.110284
_cell_length_c 17.653535
_cell_angle_alpha 90.000000
_cell_angle_beta 90.000000
_cell_angle_gamma 90.000000
_cell_volume 2428.849547
_symmetry_space_group_name_H-M "I M M 2"
_symmetry_group_IT_number 44
_symmetry_cell_setting 'orthorhombic'
loop_
_space_group_symop_operation_xyz
x,y,z
-x,-y,z
-x,y,z
x,-y,z
1/2+x,1/2+y,1/2+z
1/2-x,1/2-y,1/2+z
1/2-x,1/2+y,1/2+z
1/2+x,1/2-y,1/2+z
loop_
_atom_site_type_symbol
_atom_site_label
_atom_site_fract_x
_atom_site_fract_y
_atom_site_fract_z
Si Si1 0.807791 0.611285 0.461440
Si Si2 0.207175 0.849720 0.124101
Si Si3 0.212918 0.819529 0.587127
Si Si4 0.214385 0.083934 0.731520
Si Si5 0.702198 0.627103 0.789922
Si Si6 0.788344 0.213188 0.845145
Si Si7 0.500000 0.500000 0.423705
Si Si8 0.715173 0.581771 0.951238
O O1 0.793129 0.612445 0.551763
O O2 0.776757 0.693587 0.429010
O O3 0.652460 0.563251 0.428010
O O4 0.000000 0.586160 0.438893
O O5 0.224997 0.761332 0.112713
O O6 0.278813 0.876213 0.205419
O O7 0.000000 0.867304 0.121034
O O8 0.259852 0.879883 0.651125
O O9 0.275322 0.853671 0.507459
O O10 0.000000 0.814887 0.585114
O O11 0.268605 0.143518 0.794026
O O12 0.000000 0.080501 0.736177
O O13 0.276902 0.000000 0.741483
O O14 0.500000 0.601267 0.783926
O O15 0.706628 0.713356 0.811633
O O16 0.780020 0.589780 0.864865
O O17 0.000000 0.220453 0.842757
O O18 0.500000 0.586324 0.948846
O O19 0.759300 0.500000 0.980433
#
# Coordination Sequence:
#
# PCOD9373524 Si02
#       8
#     8   8   8   8   8   8   2   8
#     4  12  26  45  71  97 133 178 226 280 341 407
#     4  11  22  40  60  91 130 172 225 279 328 396
#     4  10  18  33  60  90 121 161 213 268 329 400
#     4   9  18  30  52  86 126 171 215 268 328 394
#     4  10  21  37  60  93 129 172 222 277 334 399
#     4  11  21  37  63  93 134 176 222 273 331 402
#     4  12  26  52  68 102 136 172 226 280 344 410
#     4   9  18  34  58  89 119 154 207 270 334 397
#
# _framework density 23.879618000000001
#
# number of rings (size 3 to 8) (size 9 to 14) (size 15 to 20)
#    0.000    1.655    2.759    2.276    0.966    3.310 
#    1.241    0.000    0.000    4.552    0.000    0.000 
#    0.000    0.000    0.000    0.000    0.000    0.000 
#
# Total GULP energy -161935.085558 kJ/mol
# GULP energy per Si atom -5583.968468 kJ/mol
# Density = 2.382527 g / cm^3
# Si number density = 23.879618 Si / 1000 Ang^3
#
#
#
# Elastic Constant Matrix: (Units=GPa)
#
#
# Indices 1 2 3 4 5 6 
#
# 1 103.6036 4.5941 7.1007 0.0000 0.0000 0.0000
# 2 4.5941 56.1912 -11.0082 0.0000 0.0000 0.0000
# 3 7.1007 -11.0082 113.2476 0.0000 0.0000 0.0000
# 4 0.0000 0.0000 0.0000 11.0777 0.0000 0.0000
# 5 0.0000 0.0000 0.0000 0.0000 -17.8746 0.0000
# 6 0.0000 0.0000 0.0000 0.0000 0.0000 33.1904
#
#
#
# Elastic Compliance Matrix: (Units=1/GPa)
#
#
# Indices 1 2 3 4 5 6 
#
# 1 0.009742 -0.000934 -0.000702 0.000000 0.000000 0.000000
# 2 -0.000934 0.018231 0.001831 0.000000 0.000000 0.000000
# 3 -0.000702 0.001831 0.009052 0.000000 0.000000 0.000000
# 4 0.000000 0.000000 0.000000 0.090271 0.000000 0.000000
# 5 0.000000 0.000000 0.000000 0.000000 -0.055945 0.000000
# 6 0.000000 0.000000 0.000000 0.000000 0.000000 0.030129
#
#
# Mechanical properties :
#
#
# Convention : Reuss Voigt Hill
#
# Bulk Modulus (GPa) = 26.72675 30.49062 28.60869
# Shear Modulus (GPa) = 44.02895 23.43577 33.73236
#
# Velocity S-wave (km/s) = 4.29859 3.13615 3.76254
# Velocity P-wave (km/s) = 5.98780 5.09020 5.55715
#
# Compressibility (1/GPa) = 0.03741570
#
# Stress axis : x y z
#
# Youngs Moduli (GPa) = 102.65181 54.85044 110.47087
#
# Poissons Ratio (x) = 0.05123 0.07751
# Poissons Ratio (y) = 0.09587 -0.20224
# Poissons Ratio (z) = 0.07202 -0.10042
#
# Static dielectric constant tensor:
#      x y z
#    x 1.882750 0.000000 0.000000 
#    y 0.000000 1.890450 0.000000 
#    z 0.000000 0.000000 1.955330 
# 
# From -- ./inp_files/20582.got.cif
#   From: 2010.05.17/outbox.cif.g08.bks.cpg/sg44_11_cif.got.tgz:20582.got - 2010.06.03 19:37:08.
