data_PCOD9373018
_publ_section_title
;
Structure prediction by ZEFSAII (Michael W. Deem and Ramdas Pophale) SiO2 
 PCOD9373018
Probable space group: I M M 2
;
_chemical_formula_sum "Si O2"
_cell_formula_units_Z 48
_cell_length_a 23.951183
_cell_length_b 20.531571
_cell_length_c 5.453545
_cell_angle_alpha 90.000000
_cell_angle_beta 90.000000
_cell_angle_gamma 90.000000
_cell_volume 2681.810281
_symmetry_space_group_name_H-M "I M M 2"
_symmetry_group_IT_number 44
_symmetry_cell_setting 'orthorhombic'
loop_
_space_group_symop_operation_xyz
x,y,z
-x,-y,z
-x,y,z
x,-y,z
1/2+x,1/2+y,1/2+z
1/2-x,1/2-y,1/2+z
1/2-x,1/2+y,1/2+z
1/2+x,1/2-y,1/2+z
loop_
_atom_site_type_symbol
_atom_site_label
_atom_site_fract_x
_atom_site_fract_y
_atom_site_fract_z
Si Si1 0.873638 0.420728 0.615290
Si Si2 0.435576 0.920652 0.615290
Si Si3 0.743660 0.397030 0.615343
Si Si4 0.315499 0.569850 0.115343
Si Si5 0.302960 0.249657 0.615347
Si Si6 0.823488 0.785469 0.615346
O O1 0.872657 0.500000 0.615287
O O2 0.904613 0.400412 0.365123
O O3 0.809898 0.398234 0.615326
O O4 0.904624 0.400412 0.865433
O O5 0.500000 0.899646 0.615316
O O6 0.435459 0.000000 0.615291
O O7 0.720838 0.428347 0.364530
O O8 0.719287 0.324144 0.615346
O O9 0.720841 0.428346 0.866164
O O10 0.346522 0.500000 0.115337
O O11 0.346023 0.640610 0.115342
O O12 0.245506 0.208766 0.615347
O O13 0.335905 0.245953 0.362183
O O14 0.335905 0.245953 0.868510
#
# Coordination Sequence:
#
# PCOD9373018 Si02
#       6
#     8   8   8   8   8   8
#     4  10  17  24  34  46  59  73  91 116 148 180
#     4   9  17  27  36  44  55  73  95 116 139 172
#     4  10  18  25  34  47  63  79  95 121 155 186
#     4  10  17  24  33  46  64  81  98 121 152 184
#     4   8  14  24  34  44  57  75  99 120 142 173
#     4   8  14  23  34  44  56  77 100 120 141 171
#
# _framework density 17.898356
#
# number of rings (size 3 to 8) (size 9 to 14) (size 15 to 20)
#    0.000    2.833    0.000    3.000    0.000    3.333 
#    0.000    0.000    0.000    0.000    0.000    0.000 
#    0.000    0.000    0.000    0.000    0.000    0.000 
#
# Total GULP energy -133670.451885 kJ/mol
# GULP energy per Si atom -5569.602162 kJ/mol
# Density = 1.785762 g / cm^3
# Si number density = 17.898356 Si / 1000 Ang^3
#
#
#
# Elastic Constant Matrix: (Units=GPa)
#
#
# Indices 1 2 3 4 5 6 
#
# 1 25.4237 -15.1410 13.1503 0.0000 0.0000 0.0000
# 2 -15.1410 68.0077 -0.4184 0.0000 0.0000 0.0000
# 3 13.1503 -0.4184 177.4216 0.0000 0.0000 0.0000
# 4 0.0000 0.0000 0.0000 -69.6703 0.0000 0.0000
# 5 0.0000 0.0000 0.0000 0.0000 -21.2560 0.0000
# 6 0.0000 0.0000 0.0000 0.0000 0.0000 8.6539
#
#
#
# Elastic Compliance Matrix: (Units=1/GPa)
#
#
# Indices 1 2 3 4 5 6 
#
# 1 0.047412 0.010534 -0.003489 0.000000 0.000000 0.000000
# 2 0.010534 0.017045 -0.000741 0.000000 0.000000 0.000000
# 3 -0.003489 -0.000741 0.005893 0.000000 0.000000 0.000000
# 4 0.000000 0.000000 0.000000 -0.014353 0.000000 0.000000
# 5 0.000000 0.000000 0.000000 0.000000 -0.047045 0.000000
# 6 0.000000 0.000000 0.000000 0.000000 0.000000 0.115554
#
#
# Mechanical properties :
#
#
# Convention : Reuss Voigt Hill
#
# Bulk Modulus (GPa) = 12.05421 29.55942 20.80682
# Shear Modulus (GPa) = 35.82954 1.76299 18.79627
#
# Velocity S-wave (km/s) = 4.47904 0.99355 3.24414
# Velocity P-wave (km/s) = 5.78779 4.22696 5.06783
#
# Compressibility (1/GPa) = 0.08295856
#
# Stress axis : x y z
#
# Youngs Moduli (GPa) = 21.09178 58.66841 169.68800
#
# Poissons Ratio (x) = -0.61802 0.59209
# Poissons Ratio (y) = -0.22218 0.12567
# Poissons Ratio (z) = 0.07360 0.04345
#
# Static dielectric constant tensor:
#      x y z
#    x 1.537170 0.000000 0.000000 
#    y 0.000000 1.690320 0.000000 
#    z 0.000000 0.000000 1.740620 
# 
# From -- ./inp_files/2436.got.cif
#   From: 2010.05.17/outbox.cif.g08.bks.cpg/sg44_2_cif.got.tgz:2436.got - 2010.06.03 19:37:08.
