data_PCOD9373277
_publ_section_title
;
Structure prediction by ZEFSAII (Michael W. Deem and Ramdas Pophale) SiO2 
 PCOD9373277
Probable space group: I M M 2
;
_chemical_formula_sum "Si O2"
_cell_formula_units_Z 64
_cell_length_a 14.800140
_cell_length_b 8.523327
_cell_length_c 24.887986
_cell_angle_alpha 90.000000
_cell_angle_beta 90.000000
_cell_angle_gamma 90.000000
_cell_volume 3139.530655
_symmetry_space_group_name_H-M "I M M 2"
_symmetry_group_IT_number 44
_symmetry_cell_setting 'orthorhombic'
loop_
_space_group_symop_operation_xyz
x,y,z
-x,-y,z
-x,y,z
x,-y,z
1/2+x,1/2+y,1/2+z
1/2-x,1/2-y,1/2+z
1/2-x,1/2+y,1/2+z
1/2+x,1/2-y,1/2+z
loop_
_atom_site_type_symbol
_atom_site_label
_atom_site_fract_x
_atom_site_fract_y
_atom_site_fract_z
Si Si1 0.159503 0.179371 0.198360
Si Si2 0.600822 0.325237 0.317990
Si Si3 0.126177 0.322361 0.709547
Si Si4 0.263005 0.178540 0.389133
Si Si5 0.598904 0.689416 0.092288
Si Si6 0.102300 0.809103 0.315520
Si Si7 0.398003 0.686511 0.477024
Si Si8 0.306522 0.812776 0.581664
O O1 0.265764 0.174414 0.210769
O O2 0.117573 0.245848 0.253749
O O3 0.157490 0.266732 0.141128
O O4 0.126062 0.000000 0.190813
O O5 0.500000 0.315168 0.340495
O O6 0.636317 0.500000 0.330181
O O7 0.596365 0.297529 0.254872
O O8 0.664303 0.192209 0.341280
O O9 0.095730 0.500000 0.719801
O O10 0.097586 0.263624 0.651401
O O11 0.173398 0.247159 0.360566
O O12 0.318093 0.257139 0.437439
O O13 0.243790 0.000000 0.404940
O O14 0.500000 0.730671 0.066574
O O15 0.601127 0.500000 0.095412
O O16 0.700202 0.736174 0.072364
O O17 0.000000 0.774819 0.331369
O O18 0.114083 0.000000 0.312888
O O19 0.500000 0.748360 0.465454
O O20 0.401898 0.500000 0.472744
O O21 0.368328 0.735789 0.536531
O O22 0.309589 0.000000 0.576591
#
# Coordination Sequence:
#
# PCOD9373277 Si02
#       8
#     8   8   8   8   8   8   8   8
#     4   9  17  33  55  83 121 161 198 238 289 346
#     4  11  22  33  48  74 110 152 192 231 284 347
#     4  10  18  29  47  76 112 151 196 241 281 331
#     4  11  22  39  62  88 115 147 191 244 294 343
#     4   9  18  33  52  78 116 158 194 231 285 349
#     4   9  18  35  60  89 121 157 195 234 285 353
#     4  11  25  45  66  87 114 153 197 242 301 366
#     4  10  21  37  60  90 120 155 200 251 297 342
#
# _framework density 20.385211999999999
#
# number of rings (size 3 to 8) (size 9 to 14) (size 15 to 20)
#    0.000    2.000    1.250    2.625    0.000    6.750 
#    0.000    1.875    0.000    6.750    0.000    0.000 
#    0.000    0.000    0.000    0.000    0.000    0.000 
#
# Total GULP energy -178318.649871 kJ/mol
# GULP energy per Si atom -5572.457808 kJ/mol
# Density = 2.033881 g / cm^3
# Si number density = 20.385212 Si / 1000 Ang^3
#
#
#
# Elastic Constant Matrix: (Units=GPa)
#
#
# Indices 1 2 3 4 5 6 
#
# 1 117.7124 17.2261 52.2000 0.0000 0.0000 0.0000
# 2 17.2261 24.4343 20.1531 0.0000 0.0000 0.0000
# 3 52.2000 20.1531 95.5612 0.0000 0.0000 0.0000
# 4 0.0000 0.0000 0.0000 28.9471 0.0000 0.0000
# 5 0.0000 0.0000 0.0000 0.0000 5.7141 0.0000
# 6 0.0000 0.0000 0.0000 0.0000 0.0000 16.9620
#
#
#
# Elastic Compliance Matrix: (Units=1/GPa)
#
#
# Indices 1 2 3 4 5 6 
#
# 1 0.011457 -0.003529 -0.005514 0.000000 0.000000 0.000000
# 2 -0.003529 0.050631 -0.008750 0.000000 0.000000 0.000000
# 3 -0.005514 -0.008750 0.015322 0.000000 0.000000 0.000000
# 4 0.000000 0.000000 0.000000 0.034546 0.000000 0.000000
# 5 0.000000 0.000000 0.000000 0.000000 0.175005 0.000000
# 6 0.000000 0.000000 0.000000 0.000000 0.000000 0.058955
#
#
# Mechanical properties :
#
#
# Convention : Reuss Voigt Hill
#
# Bulk Modulus (GPa) = 23.90999 46.31848 35.11424
# Shear Modulus (GPa) = 12.64405 20.19990 16.42198
#
# Velocity S-wave (km/s) = 2.49320 3.15129 2.84136
# Velocity P-wave (km/s) = 4.47689 6.00098 5.29407
#
# Compressibility (1/GPa) = 0.04182352
#
# Stress axis : x y z
#
# Youngs Moduli (GPa) = 87.28313 19.75075 65.26649
#
# Poissons Ratio (x) = 0.06970 0.35988
# Poissons Ratio (y) = 0.30804 0.57107
# Poissons Ratio (z) = 0.48128 0.17282
#
# Static dielectric constant tensor:
#      x y z
#    x 1.769920 0.000000 0.000000 
#    y 0.000000 1.712430 0.000000 
#    z 0.000000 0.000000 1.734170 
# 
# From -- ./inp_files/25097.got.cif
#   From: 2010.05.17/outbox.cif.g08.bks.cpg/sg44_13_cif.got.tgz:25097.got - 2010.06.03 19:37:08.
