data_PCOD9373254
_publ_section_title
;
Structure prediction by ZEFSAII (Michael W. Deem and Ramdas Pophale) SiO2 
 PCOD9373254
Probable space group: I M M 2
;
_chemical_formula_sum "Si O2"
_cell_formula_units_Z 64
_cell_length_a 18.769689
_cell_length_b 9.050993
_cell_length_c 27.010954
_cell_angle_alpha 90.000000
_cell_angle_beta 90.000000
_cell_angle_gamma 90.000000
_cell_volume 4588.737654
_symmetry_space_group_name_H-M "I M M 2"
_symmetry_group_IT_number 44
_symmetry_cell_setting 'orthorhombic'
loop_
_space_group_symop_operation_xyz
x,y,z
-x,-y,z
-x,y,z
x,-y,z
1/2+x,1/2+y,1/2+z
1/2-x,1/2-y,1/2+z
1/2-x,1/2+y,1/2+z
1/2+x,1/2-y,1/2+z
loop_
_atom_site_type_symbol
_atom_site_label
_atom_site_fract_x
_atom_site_fract_y
_atom_site_fract_z
Si Si1 0.581040 0.322820 0.753450
Si Si2 0.084035 0.175257 0.547472
Si Si3 0.296685 0.830572 0.699876
Si Si4 0.083696 0.323666 0.745410
Si Si5 0.333444 0.322732 0.853481
Si Si6 0.415998 0.176283 0.943474
Si Si7 0.656719 0.679031 0.150448
Si Si8 0.705789 0.329162 0.302278
O O1 0.500000 0.268703 0.749919
O O2 0.580612 0.500000 0.750922
O O3 0.633122 0.261597 0.711228
O O4 0.615558 0.283487 0.806658
O O5 0.102284 0.265216 0.498235
O O6 0.127908 0.216401 0.596304
O O7 0.000000 0.198098 0.557866
O O8 0.094191 0.000000 0.538152
O O9 0.239217 0.778361 0.659508
O O10 0.250808 0.827683 0.750833
O O11 0.316085 0.000000 0.689586
O O12 0.095200 0.500000 0.744322
O O13 0.109945 0.254198 0.693377
O O14 0.132630 0.251679 0.788021
O O15 0.000000 0.294485 0.752287
O O16 0.329337 0.500000 0.856406
O O17 0.368499 0.255308 0.902283
O O18 0.256183 0.254747 0.841057
O O19 0.500000 0.211761 0.935161
O O20 0.407816 0.000000 0.940591
O O21 0.652240 0.500000 0.156768
O O22 0.694599 0.500000 0.315972
#
# Coordination Sequence:
#
# PCOD9373254 Si02
#       8
#     8   8   8   8   8   8   8   8
#     4   9  17  27  39  57  80 106 136 167 198 236
#     4   9  17  29  44  60  79 106 140 175 209 245
#     4   8  15  26  39  57  79 103 132 166 202 240
#     4  10  19  28  40  61  87 113 142 174 206 243
#     4  10  18  29  45  61  80 108 141 174 209 248
#     4  10  20  31  42  59  84 111 140 175 210 244
#     4   9  17  29  44  60  80 109 143 175 209 250
#     4   9  17  29  43  59  81 108 138 171 207 247
#
# _framework density 13.947190000000001
#
# number of rings (size 3 to 8) (size 9 to 14) (size 15 to 20)
#    0.000    2.750    0.000    3.000    0.000    7.000 
#    0.000    1.250    0.000    0.000    0.000    0.000 
#    0.000    1.000    0.000    5.250    0.000    4.875 
#
# Total GULP energy -178270.155344 kJ/mol
# GULP energy per Si atom -5570.942355 kJ/mol
# Density = 1.391545 g / cm^3
# Si number density = 13.947190 Si / 1000 Ang^3
#
#
#
# Elastic Constant Matrix: (Units=GPa)
#
#
# Indices 1 2 3 4 5 6 
#
# 1 110.2908 53.5008 60.2908 0.0000 0.0000 0.0000
# 2 53.5008 53.1672 43.4457 0.0000 0.0000 0.0000
# 3 60.2908 43.4457 88.1916 0.0000 0.0000 0.0000
# 4 0.0000 0.0000 0.0000 20.3036 0.0000 0.0000
# 5 0.0000 0.0000 0.0000 0.0000 27.6381 0.0000
# 6 0.0000 0.0000 0.0000 0.0000 0.0000 23.7585
#
#
#
# Elastic Compliance Matrix: (Units=1/GPa)
#
#
# Indices 1 2 3 4 5 6 
#
# 1 0.019515 -0.014622 -0.006138 0.000000 0.000000 0.000000
# 2 -0.014622 0.042437 -0.010910 0.000000 0.000000 0.000000
# 3 -0.006138 -0.010910 0.020910 0.000000 0.000000 0.000000
# 4 0.000000 0.000000 0.000000 0.049252 0.000000 0.000000
# 5 0.000000 0.000000 0.000000 0.000000 0.036182 0.000000
# 6 0.000000 0.000000 0.000000 0.000000 0.000000 0.042090
#
#
# Mechanical properties :
#
#
# Convention : Reuss Voigt Hill
#
# Bulk Modulus (GPa) = 51.22286 62.90268 57.06277
# Shear Modulus (GPa) = 17.84223 20.63418 19.23821
#
# Velocity S-wave (km/s) = 3.58057 3.85054 3.71800
# Velocity P-wave (km/s) = 7.34166 8.06023 7.70932
#
# Compressibility (1/GPa) = 0.01952253
#
# Stress axis : x y z
#
# Youngs Moduli (GPa) = 51.24172 23.56422 47.82491
#
# Poissons Ratio (x) = 0.34456 0.29356
# Poissons Ratio (y) = 0.74926 0.52175
# Poissons Ratio (z) = 0.31453 0.25708
#
# Static dielectric constant tensor:
#      x y z
#    x 1.458410 0.000000 0.000000 
#    y 0.000000 1.469920 0.000000 
#    z 0.000000 0.000000 1.436050 
# 
# From -- ./inp_files/25228.got.cif
#   From: 2010.05.17/outbox.cif.g08.bks.cpg/sg44_13_cif.got.tgz:25228.got - 2010.06.03 19:37:08.
