data_PCOD9373021
_publ_section_title
;
Structure prediction by ZEFSAII (Michael W. Deem and Ramdas Pophale) SiO2 
 PCOD9373021
Probable space group: I M M 2
;
_chemical_formula_sum "Si O2"
_cell_formula_units_Z 46
_cell_length_a 7.975106
_cell_length_b 17.106503
_cell_length_c 20.533134
_cell_angle_alpha 90.000000
_cell_angle_beta 90.000000
_cell_angle_gamma 90.000000
_cell_volume 2801.256927
_symmetry_space_group_name_H-M "I M M 2"
_symmetry_group_IT_number 44
_symmetry_cell_setting 'orthorhombic'
loop_
_space_group_symop_operation_xyz
x,y,z
-x,-y,z
-x,y,z
x,-y,z
1/2+x,1/2+y,1/2+z
1/2-x,1/2-y,1/2+z
1/2-x,1/2+y,1/2+z
1/2+x,1/2-y,1/2+z
loop_
_atom_site_type_symbol
_atom_site_label
_atom_site_fract_x
_atom_site_fract_y
_atom_site_fract_z
Si Si1 0.186407 0.000000 0.794780
Si Si2 0.191337 0.801134 0.428981
Si Si3 0.200545 0.627852 0.394980
Si Si4 0.000000 0.500000 0.198545
Si Si5 0.299238 0.587381 0.542794
Si Si6 0.315154 0.748556 0.081896
Si Si7 0.000000 0.406919 0.953092
Si Si8 0.000000 0.352283 0.104758
O O1 0.210901 0.075250 0.841313
O O2 0.334677 0.000000 0.742859
O O3 0.000000 0.000000 0.766303
O O4 0.235362 0.720618 0.391807
O O5 0.188476 0.775731 0.505310
O O6 0.333836 0.866375 0.423300
O O7 0.000000 0.824896 0.412367
O O8 0.253967 0.599142 0.466748
O O9 0.000000 0.617323 0.389247
O O10 0.000000 0.575988 0.153395
O O11 0.500000 0.594311 0.548679
O O12 0.247811 0.500000 0.562480
O O13 0.216866 0.658674 0.581536
O O14 0.500000 0.729921 0.107557
O O15 0.164346 0.701048 0.113569
O O16 0.000000 0.384766 0.030306
O O17 0.000000 0.500000 0.945843
#
# Coordination Sequence:
#
# PCOD9373021 Si02
#       8
#     4   8   8   2   8   8   4   4
#     4  12  24  36  52  76 104 136 182 220 250 301
#     4   8  17  28  44  70  99 129 165 199 245 314
#     4  10  18  31  47  69 103 142 169 202 253 306
#     4  12  26  42  54  72  98 142 190 234 252 292
#     4  10  17  24  42  76 111 141 167 191 245 323
#     4   9  17  30  48  70  94 131 173 209 253 312
#     4  10  18  30  50  74  96 131 169 204 253 308
#     4  10  20  38  53  62  93 134 180 228 260 274
#
# _framework density 16.421199000000001
#
# number of rings (size 3 to 8) (size 9 to 14) (size 15 to 20)
#    0.000    2.261    3.043    2.087    4.870    2.087 
#    0.000    0.000    0.000    0.000    0.000    0.000 
#    0.000    2.783    0.348    0.000    0.000    0.000 
#
# Total GULP energy -128227.029469 kJ/mol
# GULP energy per Si atom -5575.088238 kJ/mol
# Density = 1.638382 g / cm^3
# Si number density = 16.421199 Si / 1000 Ang^3
#
#
#
# Elastic Constant Matrix: (Units=GPa)
#
#
# Indices 1 2 3 4 5 6 
#
# 1 139.7328 85.3710 26.3977 0.0000 0.0000 0.0000
# 2 85.3710 139.9519 22.9078 0.0000 0.0000 0.0000
# 3 26.3977 22.9078 31.2542 0.0000 0.0000 0.0000
# 4 0.0000 0.0000 0.0000 10.1014 0.0000 0.0000
# 5 0.0000 0.0000 0.0000 0.0000 9.3102 0.0000
# 6 0.0000 0.0000 0.0000 0.0000 0.0000 14.1724
#
#
#
# Elastic Compliance Matrix: (Units=1/GPa)
#
#
# Indices 1 2 3 4 5 6 
#
# 1 0.012189 -0.006534 -0.005506 0.000000 0.000000 0.000000
# 2 -0.006534 0.011622 -0.003000 0.000000 0.000000 0.000000
# 3 -0.005506 -0.003000 0.038845 0.000000 0.000000 0.000000
# 4 0.000000 0.000000 0.000000 0.098996 0.000000 0.000000
# 5 0.000000 0.000000 0.000000 0.000000 0.107409 0.000000
# 6 0.000000 0.000000 0.000000 0.000000 0.000000 0.070560
#
#
# Mechanical properties :
#
#
# Convention : Reuss Voigt Hill
#
# Bulk Modulus (GPa) = 30.69689 64.47686 47.58687
# Shear Modulus (GPa) = 13.13865 18.46764 15.80315
#
# Velocity S-wave (km/s) = 2.83168 3.35718 3.10556
# Velocity P-wave (km/s) = 5.42450 7.37409 6.47311
#
# Compressibility (1/GPa) = 0.03257659
#
# Stress axis : x y z
#
# Youngs Moduli (GPa) = 82.04440 86.04372 25.74367
#
# Poissons Ratio (x) = 0.56220 0.14173
# Poissons Ratio (y) = 0.53607 0.07723
# Poissons Ratio (z) = 0.45170 0.25811
#
# Static dielectric constant tensor:
#      x y z
#    x 1.591150 0.000000 0.000000 
#    y 0.000000 1.558560 0.000000 
#    z 0.000000 0.000000 1.507970 
# 
# From -- ./inp_files/24887.got.cif
#   From: 2010.05.17/outbox.cif.g08.bks.cpg/sg44_13_cif.got.tgz:24887.got - 2010.06.03 19:37:08.
