data_PCOD9373821
_publ_section_title
;
Structure prediction by ZEFSAII (Michael W. Deem and Ramdas Pophale) SiO2 
 PCOD9373821
Probable space group: I M M 2
;
_chemical_formula_sum "Si O2"
_cell_formula_units_Z 52
_cell_length_a 7.328829
_cell_length_b 15.940848
_cell_length_c 19.691655
_cell_angle_alpha 90.000000
_cell_angle_beta 90.000000
_cell_angle_gamma 90.000000
_cell_volume 2300.531730
_symmetry_space_group_name_H-M "I M M 2"
_symmetry_group_IT_number 44
_symmetry_cell_setting 'orthorhombic'
loop_
_space_group_symop_operation_xyz
x,y,z
-x,-y,z
-x,y,z
x,-y,z
1/2+x,1/2+y,1/2+z
1/2-x,1/2-y,1/2+z
1/2-x,1/2+y,1/2+z
1/2+x,1/2-y,1/2+z
loop_
_atom_site_type_symbol
_atom_site_label
_atom_site_fract_x
_atom_site_fract_y
_atom_site_fract_z
Si Si1 0.277529 0.403348 0.353690
Si Si2 0.284179 0.164224 0.560648
Si Si3 0.722366 0.873551 0.214191
Si Si4 0.722262 0.340453 0.498260
Si Si5 0.781397 0.182636 0.715154
Si Si6 0.278581 0.000000 0.327815
Si Si7 0.751526 0.000000 0.091332
Si Si8 0.224083 0.500000 0.982199
O O1 0.500000 0.403348 0.352962
O O2 0.221185 0.500000 0.362157
O O3 0.224822 0.348071 0.419090
O O4 0.215498 0.367115 0.281179
O O5 0.500000 0.168407 0.547971
O O6 0.214106 0.255213 0.535425
O O7 0.258203 0.147979 0.640508
O O8 0.214204 0.084681 0.519098
O O9 0.500000 0.876723 0.209540
O O10 0.784501 0.778476 0.213922
O O11 0.775487 0.919810 0.283368
O O12 0.784573 0.927441 0.150088
O O13 0.500000 0.343054 0.501362
O O14 0.781348 0.425268 0.535724
O O15 0.000000 0.186106 0.721472
O O16 0.216660 0.000000 0.404379
O O17 0.500000 0.000000 0.329432
O O18 0.000000 0.500000 0.983783
#
# Coordination Sequence:
#
# PCOD9373821 Si02
#       8
#     8   8   8   8   8   4   4   4
#     4   9  18  31  49  75 103 130 168 218 259 295
#     4  10  21  36  53  77 104 137 170 213 259 306
#     4   9  18  30  47  74 105 133 167 210 257 302
#     4  10  19  31  50  77 105 130 169 217 261 300
#     4  10  20  34  53  77 102 137 174 210 250 302
#     4   8  15  28  47  73 100 127 163 215 256 293
#     4  11  16  29  48  71 104 132 161 202 262 307
#     4   9  19  33  52  74 100 131 174 215 260 302
#
# _framework density 22.603469
#
# number of rings (size 3 to 8) (size 9 to 14) (size 15 to 20)
#    0.000    2.462    2.308    0.923    3.231    0.000 
#    0.000    0.000    0.000    2.769    0.000    9.692 
#    0.000    0.000    0.000    0.000    0.000    0.000 
#
# Total GULP energy -144755.767473 kJ/mol
# GULP energy per Si atom -5567.529518 kJ/mol
# Density = 2.255202 g / cm^3
# Si number density = 22.603469 Si / 1000 Ang^3
#
#
#
# Elastic Constant Matrix: (Units=GPa)
#
#
# Indices 1 2 3 4 5 6 
#
# 1 86.8267 6.7411 -4.2315 0.0000 0.0000 0.0000
# 2 6.7411 110.3809 86.2874 0.0000 0.0000 0.0000
# 3 -4.2315 86.2874 220.1292 0.0000 0.0000 0.0000
# 4 0.0000 0.0000 0.0000 15.5408 0.0000 0.0000
# 5 0.0000 0.0000 0.0000 0.0000 40.1920 0.0000
# 6 0.0000 0.0000 0.0000 0.0000 0.0000 -13.8390
#
#
#
# Elastic Compliance Matrix: (Units=1/GPa)
#
#
# Indices 1 2 3 4 5 6 
#
# 1 0.011652 -0.001278 0.000725 0.000000 0.000000 0.000000
# 2 -0.001278 0.013202 -0.005200 0.000000 0.000000 0.000000
# 3 0.000725 -0.005200 0.006595 0.000000 0.000000 0.000000
# 4 0.000000 0.000000 0.000000 0.064347 0.000000 0.000000
# 5 0.000000 0.000000 0.000000 0.000000 0.024881 0.000000
# 6 0.000000 0.000000 0.000000 0.000000 0.000000 -0.072259
#
#
# Mechanical properties :
#
#
# Convention : Reuss Voigt Hill
#
# Bulk Modulus (GPa) = 50.14284 66.10343 58.12313
# Shear Modulus (GPa) = 75.10832 30.28142 52.69487
#
# Velocity S-wave (km/s) = 5.77069 3.66413 4.83356
# Velocity P-wave (km/s) = 8.16290 6.87092 7.54461
#
# Compressibility (1/GPa) = 0.01994303
#
# Stress axis : x y z
#
# Youngs Moduli (GPa) = 85.82380 75.74408 151.63154
#
# Poissons Ratio (x) = 0.09683 -0.10995
# Poissons Ratio (y) = 0.10972 0.78844
# Poissons Ratio (z) = -0.06223 0.39385
#
# Static dielectric constant tensor:
#      x y z
#    x 1.863910 0.000000 0.000000 
#    y 0.000000 1.770500 0.000000 
#    z 0.000000 0.000000 1.791420 
# 
# From -- ./inp_files/21400.got.cif
#   From: 2010.05.17/outbox.cif.g08.bks.cpg/sg44_11_cif.got.tgz:21400.got - 2010.06.03 19:37:08.
