data_PCOD9373991
_publ_section_title
;
Structure prediction by ZEFSAII (Michael W. Deem and Ramdas Pophale) SiO2 
 PCOD9373991
Probable space group: I M M 2
;
_chemical_formula_sum "Si O2"
_cell_formula_units_Z 52
_cell_length_a 8.157261
_cell_length_b 20.370383
_cell_length_c 16.175269
_cell_angle_alpha 90.000000
_cell_angle_beta 90.000000
_cell_angle_gamma 90.000000
_cell_volume 2687.788335
_symmetry_space_group_name_H-M "I M M 2"
_symmetry_group_IT_number 44
_symmetry_cell_setting 'orthorhombic'
loop_
_space_group_symop_operation_xyz
x,y,z
-x,-y,z
-x,y,z
x,-y,z
1/2+x,1/2+y,1/2+z
1/2-x,1/2-y,1/2+z
1/2-x,1/2+y,1/2+z
1/2+x,1/2-y,1/2+z
loop_
_atom_site_type_symbol
_atom_site_label
_atom_site_fract_x
_atom_site_fract_y
_atom_site_fract_z
Si Si1 0.183871 0.885693 0.326190
Si Si2 0.000000 0.173340 0.746029
Si Si3 0.809081 0.374668 0.471670
Si Si4 0.500000 0.419195 0.086666
Si Si5 0.194685 0.424343 0.646975
Si Si6 0.825997 0.576704 0.991231
Si Si7 0.000000 0.930898 0.889068
Si Si8 0.686163 0.770195 0.826307
O O1 0.221734 0.903063 0.231824
O O2 0.303284 0.916914 0.393094
O O3 0.192382 0.807544 0.339310
O O4 0.000000 0.908886 0.345374
O O5 0.000000 0.125696 0.667818
O O6 0.000000 0.125905 0.823971
O O7 0.169436 0.212893 0.761169
O O8 0.777931 0.374720 0.570249
O O9 0.667424 0.422841 0.439683
O O10 0.791674 0.309951 0.413436
O O11 0.000000 0.396545 0.461651
O O12 0.500000 0.500000 0.099264
O O13 0.337580 0.399436 0.035778
O O14 0.242013 0.500000 0.625521
O O15 0.000000 0.424607 0.661935
O O16 0.832885 0.500000 0.011868
O O17 0.000000 0.607656 0.016165
O O18 0.000000 0.000000 0.844679
O O19 0.500000 0.787051 0.797591
#
# Coordination Sequence:
#
# PCOD9373991 Si02
#       8
#     8   4   8   4   8   8   4   8
#     4  11  22  37  57  85 116 155 197 239 287 345
#     4  10  21  38  62  82 115 158 188 236 298 334
#     4   9  19  38  57  78 114 155 188 237 285 336
#     4  10  21  40  61  90 119 144 195 250 291 349
#     4  10  21  35  55  86 118 150 191 237 290 349
#     4  10  21  38  60  86 117 151 189 240 299 356
#     4  10  19  32  57  88 111 146 193 232 285 347
#     4   9  21  40  58  82 117 153 199 240 278 345
#
# _framework density 19.346761000000001
#
# number of rings (size 3 to 8) (size 9 to 14) (size 15 to 20)
#    0.000    2.154    0.769    1.615    3.231    3.692 
#    2.769    0.000    0.000    2.769    0.000    0.000 
#    0.000    0.000    0.000    0.000    0.000    0.000 
#
# Total GULP energy -144770.337525 kJ/mol
# GULP energy per Si atom -5568.089905 kJ/mol
# Density = 1.930273 g / cm^3
# Si number density = 19.346761 Si / 1000 Ang^3
#
#
#
# Elastic Constant Matrix: (Units=GPa)
#
#
# Indices 1 2 3 4 5 6 
#
# 1 125.1822 18.2005 50.3762 0.0000 0.0000 0.0000
# 2 18.2005 34.5104 3.8614 0.0000 0.0000 0.0000
# 3 50.3762 3.8614 84.2428 0.0000 0.0000 0.0000
# 4 0.0000 0.0000 0.0000 24.6718 0.0000 0.0000
# 5 0.0000 0.0000 0.0000 0.0000 18.2855 0.0000
# 6 0.0000 0.0000 0.0000 0.0000 0.0000 149.9032
#
#
#
# Elastic Compliance Matrix: (Units=1/GPa)
#
#
# Indices 1 2 3 4 5 6 
#
# 1 0.011402 -0.005278 -0.006576 0.000000 0.000000 0.000000
# 2 -0.005278 0.031569 0.001709 0.000000 0.000000 0.000000
# 3 -0.006576 0.001709 0.015725 0.000000 0.000000 0.000000
# 4 0.000000 0.000000 0.000000 0.040532 0.000000 0.000000
# 5 0.000000 0.000000 0.000000 0.000000 0.054688 0.000000
# 6 0.000000 0.000000 0.000000 0.000000 0.000000 0.006671
#
#
# Mechanical properties :
#
#
# Convention : Reuss Voigt Hill
#
# Bulk Modulus (GPa) = 26.03787 43.20127 34.61957
# Shear Modulus (GPa) = 25.81587 50.00524 37.91056
#
# Velocity S-wave (km/s) = 3.65688 5.08949 4.43146
# Velocity P-wave (km/s) = 5.59625 7.54425 6.64205
#
# Compressibility (1/GPa) = 0.03840560
#
# Stress axis : x y z
#
# Youngs Moduli (GPa) = 87.70245 31.67677 63.59399
#
# Poissons Ratio (x) = 0.16718 0.41822
# Poissons Ratio (y) = 0.46286 -0.10868
# Poissons Ratio (z) = 0.57677 -0.05413
#
# Static dielectric constant tensor:
#      x y z
#    x 1.748500 0.000000 0.000000 
#    y 0.000000 1.711930 0.000000 
#    z 0.000000 0.000000 1.654150 
# 
# From -- ./inp_files/16412.got.cif
#   From: 2010.05.17/outbox.cif.g08.bks.cpg/sg44_9_cif.got.tgz:16412.got - 2010.06.03 19:37:08.
