data_PCOD9373194
_publ_section_title
;
Structure prediction by ZEFSAII (Michael W. Deem and Ramdas Pophale) SiO2 
 PCOD9373194
Probable space group: I M M 2
;
_chemical_formula_sum "Si O2"
_cell_formula_units_Z 64
_cell_length_a 9.096327
_cell_length_b 26.552897
_cell_length_c 18.630475
_cell_angle_alpha 90.000000
_cell_angle_beta 90.000000
_cell_angle_gamma 90.000000
_cell_volume 4499.890054
_symmetry_space_group_name_H-M "I M M 2"
_symmetry_group_IT_number 44
_symmetry_cell_setting 'orthorhombic'
loop_
_space_group_symop_operation_xyz
x,y,z
-x,-y,z
-x,y,z
x,-y,z
1/2+x,1/2+y,1/2+z
1/2-x,1/2-y,1/2+z
1/2-x,1/2+y,1/2+z
1/2+x,1/2-y,1/2+z
loop_
_atom_site_type_symbol
_atom_site_label
_atom_site_fract_x
_atom_site_fract_y
_atom_site_fract_z
Si Si1 0.826233 0.756320 0.344480
Si Si2 0.673107 0.059237 0.334473
Si Si3 0.826348 0.792513 0.553202
Si Si4 0.174172 0.940259 0.183515
Si Si5 0.674563 0.702591 0.469493
Si Si6 0.827873 0.738947 0.693080
Si Si7 0.824987 0.642552 0.589511
Si Si8 0.327915 0.361441 0.928891
O O1 0.741616 0.714580 0.391554
O O2 0.769446 0.758336 0.263502
O O3 0.800389 0.810927 0.381716
O O4 0.000000 0.746967 0.347963
O O5 0.500000 0.066895 0.322040
O O6 0.760423 0.072601 0.261822
O O7 0.729861 0.094106 0.398368
O O8 0.697957 0.000000 0.348925
O O9 0.722728 0.751865 0.515090
O O10 0.804666 0.785347 0.637759
O O11 0.802218 0.844480 0.511277
O O12 0.000000 0.778723 0.539451
O O13 0.255434 0.906782 0.124628
O O14 0.000000 0.930419 0.182556
O O15 0.198076 0.000000 0.172530
O O16 0.500000 0.697157 0.466951
O O17 0.749474 0.657827 0.514579
O O18 0.798975 0.688651 0.645923
O O19 0.000000 0.737830 0.713575
O O20 0.000000 0.638170 0.580625
O O21 0.500000 0.374423 0.920700
#
# Coordination Sequence:
#
# PCOD9373194 Si02
#       8
#     8   8   8   8   8   8   8   8
#     4  10  19  29  41  60  86 112 140 173 207 245
#     4  10  20  31  42  59  84 112 142 178 217 252
#     4   8  16  30  43  58  83 110 137 172 211 249
#     4  10  20  32  45  62  84 110 143 180 212 246
#     4  10  18  28  43  61  82 109 141 173 206 246
#     4   9  17  28  42  61  84 110 139 170 205 247
#     4  10  19  31  46  62  84 113 143 175 212 252
#     4   9  17  29  44  59  79 111 145 176 210 247
#
# _framework density 14.222569999999999
#
# number of rings (size 3 to 8) (size 9 to 14) (size 15 to 20)
#    0.000    2.500    0.000    4.875    0.000    8.500 
#    0.000    0.000    0.000    0.000    0.000    0.000 
#    0.000    1.000    0.000    5.250    0.000    4.875 
#
# Total GULP energy -178320.573810 kJ/mol
# GULP energy per Si atom -5572.517932 kJ/mol
# Density = 1.419020 g / cm^3
# Si number density = 14.222570 Si / 1000 Ang^3
#
#
#
# Elastic Constant Matrix: (Units=GPa)
#
#
# Indices 1 2 3 4 5 6 
#
# 1 75.2281 36.5829 44.3187 0.0000 0.0000 0.0000
# 2 36.5829 39.2070 21.5990 0.0000 0.0000 0.0000
# 3 44.3187 21.5990 62.1300 0.0000 0.0000 0.0000
# 4 0.0000 0.0000 0.0000 26.0074 0.0000 0.0000
# 5 0.0000 0.0000 0.0000 0.0000 26.0762 0.0000
# 6 0.0000 0.0000 0.0000 0.0000 0.0000 22.2223
#
#
#
# Elastic Compliance Matrix: (Units=1/GPa)
#
#
# Indices 1 2 3 4 5 6 
#
# 1 0.033935 -0.022670 -0.016325 0.000000 0.000000 0.000000
# 2 -0.022670 0.046692 -0.000061 0.000000 0.000000 0.000000
# 3 -0.016325 -0.000061 0.027762 0.000000 0.000000 0.000000
# 4 0.000000 0.000000 0.000000 0.038451 0.000000 0.000000
# 5 0.000000 0.000000 0.000000 0.000000 0.038349 0.000000
# 6 0.000000 0.000000 0.000000 0.000000 0.000000 0.045000
#
#
# Mechanical properties :
#
#
# Convention : Reuss Voigt Hill
#
# Bulk Modulus (GPa) = 33.02985 42.39626 37.71305
# Shear Modulus (GPa) = 15.70385 19.79883 17.75134
#
# Velocity S-wave (km/s) = 3.32648 3.73509 3.53669
# Velocity P-wave (km/s) = 6.16668 6.96241 6.57659
#
# Compressibility (1/GPa) = 0.03027565
#
# Stress axis : x y z
#
# Youngs Moduli (GPa) = 29.46818 21.41692 36.02073
#
# Poissons Ratio (x) = 0.48552 0.58805
# Poissons Ratio (y) = 0.66805 0.00220
# Poissons Ratio (z) = 0.48108 0.00131
#
# Static dielectric constant tensor:
#      x y z
#    x 1.471280 0.000000 0.000000 
#    y 0.000000 1.462890 0.000000 
#    z 0.000000 0.000000 1.472940 
# 
# From -- ./inp_files/20842.got.cif
#   From: 2010.05.17/outbox.cif.g08.bks.cpg/sg44_11_cif.got.tgz:20842.got - 2010.06.03 19:37:08.
