data_PCOD9373884
_publ_section_title
;
Structure prediction by ZEFSAII (Michael W. Deem and Ramdas Pophale) SiO2 
 PCOD9373884
Probable space group: I M M 2
;
_chemical_formula_sum "Si O2"
_cell_formula_units_Z 64
_cell_length_a 30.992246
_cell_length_b 8.987022
_cell_length_c 14.788501
_cell_angle_alpha 90.000000
_cell_angle_beta 90.000000
_cell_angle_gamma 90.000000
_cell_volume 4119.011557
_symmetry_space_group_name_H-M "I M M 2"
_symmetry_group_IT_number 44
_symmetry_cell_setting 'orthorhombic'
loop_
_space_group_symop_operation_xyz
x,y,z
-x,-y,z
-x,y,z
x,-y,z
1/2+x,1/2+y,1/2+z
1/2-x,1/2-y,1/2+z
1/2-x,1/2+y,1/2+z
1/2+x,1/2-y,1/2+z
loop_
_atom_site_type_symbol
_atom_site_label
_atom_site_fract_x
_atom_site_fract_y
_atom_site_fract_z
Si Si1 0.321028 0.827452 0.202210
Si Si2 0.630409 0.677712 0.369154
Si Si3 0.771398 0.678573 0.194059
Si Si4 0.296094 0.679213 0.511977
Si Si5 0.049822 0.176614 0.597548
Si Si6 0.709967 0.819023 0.899869
Si Si7 0.628368 0.827388 0.013235
Si Si8 0.449741 0.176147 0.294872
O O1 0.345424 0.743591 0.281916
O O2 0.276337 0.745216 0.184674
O O3 0.348807 0.824661 0.111198
O O4 0.313554 0.000000 0.226454
O O5 0.627307 0.500000 0.361831
O O6 0.661346 0.712940 0.453544
O O7 0.583151 0.749383 0.364748
O O8 0.770449 0.500000 0.189799
O O9 0.786976 0.722253 0.294644
O O10 0.797105 0.744414 0.109383
O O11 0.293120 0.500000 0.522554
O O12 0.252961 0.726997 0.455686
O O13 0.084278 0.238065 0.526165
O O14 0.057040 0.253455 0.695268
O O15 0.000000 0.206966 0.572025
O O16 0.055166 0.000000 0.608668
O O17 0.709886 0.000000 0.904806
O O18 0.665225 0.768773 0.945314
O O19 0.618925 0.000000 0.990909
O O20 0.500000 0.199028 0.318221
O O21 0.441227 0.000000 0.288948
#
# Coordination Sequence:
#
# PCOD9373884 Si02
#       8
#     8   8   8   8   8   8   8   8
#     4  11  20  30  48  72 101 135 168 205 246 289
#     4  11  21  33  51  72  99 136 171 205 246 294
#     4  11  21  34  51  72  98 132 172 211 245 288
#     4  10  20  36  51  69 101 135 165 203 250 296
#     4  10  20  32  47  70 101 131 160 201 248 295
#     4   9  18  34  50  67  97 132 165 201 245 288
#     4  10  19  32  50  69  94 134 170 201 242 290
#     4  10  20  33  49  71 101 133 164 202 248 298
#
# _framework density 15.537708
#
# number of rings (size 3 to 8) (size 9 to 14) (size 15 to 20)
#    0.000    1.750    3.750    1.875    0.000    3.000 
#    0.000    1.250    0.000    0.000    0.000    0.875 
#    0.000    1.000    0.000    0.000    0.000    0.000 
#
# Total GULP energy -178516.173417 kJ/mol
# GULP energy per Si atom -5578.630419 kJ/mol
# Density = 1.550234 g / cm^3
# Si number density = 15.537708 Si / 1000 Ang^3
#
#
#
# Elastic Constant Matrix: (Units=GPa)
#
#
# Indices 1 2 3 4 5 6 
#
# 1 103.7373 50.0369 45.0340 0.0000 0.0000 0.0000
# 2 50.0369 52.5755 30.5392 0.0000 0.0000 0.0000
# 3 45.0340 30.5392 66.5294 0.0000 0.0000 0.0000
# 4 0.0000 0.0000 0.0000 22.1103 0.0000 0.0000
# 5 0.0000 0.0000 0.0000 0.0000 11.4330 0.0000
# 6 0.0000 0.0000 0.0000 0.0000 0.0000 25.5666
#
#
#
# Elastic Compliance Matrix: (Units=1/GPa)
#
#
# Indices 1 2 3 4 5 6 
#
# 1 0.019650 -0.014966 -0.006432 0.000000 0.000000 0.000000
# 2 -0.014966 0.037333 -0.007007 0.000000 0.000000 0.000000
# 3 -0.006432 -0.007007 0.022601 0.000000 0.000000 0.000000
# 4 0.000000 0.000000 0.000000 0.045228 0.000000 0.000000
# 5 0.000000 0.000000 0.000000 0.000000 0.087466 0.000000
# 6 0.000000 0.000000 0.000000 0.000000 0.000000 0.039113
#
#
# Mechanical properties :
#
#
# Convention : Reuss Voigt Hill
#
# Bulk Modulus (GPa) = 43.90547 52.67360 48.28954
# Shear Modulus (GPa) = 15.83315 18.30412 17.06863
#
# Velocity S-wave (km/s) = 3.19566 3.43599 3.31800
# Velocity P-wave (km/s) = 6.47573 7.05092 6.76944
#
# Compressibility (1/GPa) = 0.02277620
#
# Stress axis : x y z
#
# Youngs Moduli (GPa) = 50.88951 26.78566 44.24585
#
# Poissons Ratio (x) = 0.40087 0.28458
# Poissons Ratio (y) = 0.76160 0.31003
# Poissons Ratio (z) = 0.32731 0.18769
#
# Static dielectric constant tensor:
#      x y z
#    x 1.591170 0.000000 0.000000 
#    y 0.000000 1.524400 0.000000 
#    z 0.000000 0.000000 1.505490 
# 
# From -- ./inp_files/17119.got.cif
#   From: 2010.05.17/outbox.cif.g08.bks.cpg/sg44_9_cif.got.tgz:17119.got - 2010.06.03 19:37:08.
