data_PCOD9373423
_publ_section_title
;
Structure prediction by ZEFSAII (Michael W. Deem and Ramdas Pophale) SiO2 
 PCOD9373423
Probable space group: I M M 2
;
_chemical_formula_sum "Si O2"
_cell_formula_units_Z 58
_cell_length_a 16.063245
_cell_length_b 7.360518
_cell_length_c 19.876401
_cell_angle_alpha 90.000000
_cell_angle_beta 90.000000
_cell_angle_gamma 90.000000
_cell_volume 2350.062499
_symmetry_space_group_name_H-M "I M M 2"
_symmetry_group_IT_number 44
_symmetry_cell_setting 'orthorhombic'
loop_
_space_group_symop_operation_xyz
x,y,z
-x,-y,z
-x,y,z
x,-y,z
1/2+x,1/2+y,1/2+z
1/2-x,1/2-y,1/2+z
1/2-x,1/2+y,1/2+z
1/2+x,1/2-y,1/2+z
loop_
_atom_site_type_symbol
_atom_site_label
_atom_site_fract_x
_atom_site_fract_y
_atom_site_fract_z
Si Si1 0.281892 0.783379 0.457040
Si Si2 0.907482 0.278509 0.843664
Si Si3 0.409959 0.220571 0.100830
Si Si4 0.594578 0.220590 0.573311
Si Si5 0.500000 0.500000 0.791847
Si Si6 0.882731 0.707553 0.229798
Si Si7 0.803854 0.280661 0.717911
Si Si8 0.590546 0.782914 0.945726
O O1 0.343454 0.716499 0.399492
O O2 0.327028 0.717423 0.526900
O O3 0.187641 0.750861 0.430543
O O4 0.286697 0.000000 0.462228
O O5 0.908021 0.500000 0.846049
O O6 0.874362 0.228794 0.770624
O O7 0.000000 0.215670 0.856723
O O8 0.500000 0.270931 0.130217
O O9 0.333360 0.284020 0.144914
O O10 0.408829 0.277524 0.023916
O O11 0.407144 0.000000 0.099802
O O12 0.500000 0.273799 0.550467
O O13 0.602548 0.271655 0.652193
O O14 0.595655 0.000000 0.572336
O O15 0.427991 0.341252 0.780417
O O16 0.910974 0.500000 0.236105
O O17 0.784543 0.710690 0.239912
O O18 0.798383 0.500000 0.716633
O O19 0.500000 0.709096 0.918012
O O20 0.583313 0.000000 0.941224
#
# Coordination Sequence:
#
# PCOD9373423 Si02
#       8
#     8   8   8   8   2   8   8   8
#     4  10  19  32  53  80 109 147 194 238 283 342
#     4   9  18  33  56  84 114 150 192 236 285 344
#     4   8  14  26  48  79 110 140 178 226 285 350
#     4   9  17  31  51  78 116 153 185 227 285 347
#     4  12  22  40  60  86 118 156 198 240 296 360
#     4  11  22  37  58  86 120 158 192 242 299 355
#     4  10  18  31  54  83 112 147 193 237 284 350
#     4   9  18  33  51  72 102 138 176 227 289 348
#
# _framework density 24.680194
#
# number of rings (size 3 to 8) (size 9 to 14) (size 15 to 20)
#    0.000    2.483    1.379    2.690    0.000    3.586 
#    1.241    0.690    1.517    4.552    0.000    0.000 
#    0.000    0.000    0.000    0.000    0.000    0.000 
#
# Total GULP energy -161660.822953 kJ/mol
# GULP energy per Si atom -5574.511136 kJ/mol
# Density = 2.462402 g / cm^3
# Si number density = 24.680194 Si / 1000 Ang^3
#
#
#
# Elastic Constant Matrix: (Units=GPa)
#
#
# Indices 1 2 3 4 5 6 
#
# 1 219.0848 2.1271 36.0000 0.0000 0.0000 0.0000
# 2 2.1271 97.5094 -10.2269 0.0000 0.0000 0.0000
# 3 36.0000 -10.2269 46.2263 0.0000 0.0000 0.0000
# 4 0.0000 0.0000 0.0000 -19.2088 0.0000 0.0000
# 5 0.0000 0.0000 0.0000 0.0000 -93.7882 0.0000
# 6 0.0000 0.0000 0.0000 0.0000 0.0000 134.5620
#
#
#
# Elastic Compliance Matrix: (Units=1/GPa)
#
#
# Indices 1 2 3 4 5 6 
#
# 1 0.005264 -0.000558 -0.004223 0.000000 0.000000 0.000000
# 2 -0.000558 0.010558 0.002770 0.000000 0.000000 0.000000
# 3 -0.004223 0.002770 0.025534 0.000000 0.000000 0.000000
# 4 0.000000 0.000000 0.000000 -0.052059 0.000000 0.000000
# 5 0.000000 0.000000 0.000000 0.000000 -0.010662 0.000000
# 6 0.000000 0.000000 0.000000 0.000000 0.000000 0.007432
#
#
# Mechanical properties :
#
#
# Convention : Reuss Voigt Hill
#
# Bulk Modulus (GPa) = 26.78416 46.51344 36.64880
# Shear Modulus (GPa) = 1975.30836 26.64103 1000.97470
#
# Velocity S-wave (km/s) = 28.32136 3.28906 20.16082
# Velocity P-wave (km/s) = 32.86855 5.77159 23.59717
#
# Compressibility (1/GPa) = 0.03733550
#
# Stress axis : x y z
#
# Youngs Moduli (GPa) = 189.97967 94.71382 39.16340
#
# Poissons Ratio (x) = 0.05282 0.16537
# Poissons Ratio (y) = 0.10595 -0.10849
# Poissons Ratio (z) = 0.80222 -0.26237
#
# Static dielectric constant tensor:
#      x y z
#    x 1.989480 0.000000 0.000000 
#    y 0.000000 1.980730 0.000000 
#    z 0.000000 0.000000 1.980010 
# 
# From -- ./inp_files/25686.got.cif
#   From: 2010.05.17/outbox.cif.g08.bks.cpg/sg44_13_cif.got.tgz:25686.got - 2010.06.03 19:37:08.
