data_PCOD9373517
_publ_section_title
;
Structure prediction by ZEFSAII (Michael W. Deem and Ramdas Pophale) SiO2 
 PCOD9373517
Probable space group: I M M 2
;
_chemical_formula_sum "Si O2"
_cell_formula_units_Z 64
_cell_length_a 16.994822
_cell_length_b 19.837014
_cell_length_c 9.778461
_cell_angle_alpha 90.000000
_cell_angle_beta 90.000000
_cell_angle_gamma 90.000000
_cell_volume 3296.578547
_symmetry_space_group_name_H-M "I M M 2"
_symmetry_group_IT_number 44
_symmetry_cell_setting 'orthorhombic'
loop_
_space_group_symop_operation_xyz
x,y,z
-x,-y,z
-x,y,z
x,-y,z
1/2+x,1/2+y,1/2+z
1/2-x,1/2-y,1/2+z
1/2-x,1/2+y,1/2+z
1/2+x,1/2-y,1/2+z
loop_
_atom_site_type_symbol
_atom_site_label
_atom_site_fract_x
_atom_site_fract_y
_atom_site_fract_z
Si Si1 0.239105 0.425319 0.224180
Si Si2 0.204443 0.207202 0.877066
Si Si3 0.825686 0.924745 0.429741
Si Si4 0.834963 0.426163 0.768663
Si Si5 0.909204 0.290676 0.676854
Si Si6 0.087067 0.761213 0.090443
Si Si7 0.910566 0.396946 0.056931
Si Si8 0.130203 0.221013 0.399228
O O1 0.252804 0.500000 0.283028
O O2 0.263636 0.362910 0.317749
O O3 0.149096 0.418483 0.175093
O O4 0.286744 0.420906 0.080656
O O5 0.143009 0.241124 0.771327
O O6 0.277397 0.257905 0.899042
O O7 0.156695 0.198628 0.017540
O O8 0.755102 0.918111 0.319003
O O9 0.878867 0.859162 0.416164
O O10 0.860146 0.000000 0.414923
O O11 0.844091 0.500000 0.703756
O O12 0.867616 0.363592 0.683625
O O13 0.882894 0.425402 0.911756
O O14 0.906889 0.260865 0.524818
O O15 0.000000 0.295464 0.723975
O O16 0.095131 0.683927 0.042639
O O17 0.096626 0.759833 0.252552
O O18 0.000000 0.786141 0.053544
O O19 0.000000 0.414994 0.086585
#
# Coordination Sequence:
#
# PCOD9373517 Si02
#       8
#     8   8   8   8   8   8   8   8
#     4  10  20  36  58  89 121 155 203 256 302 356
#     4  12  21  39  64  89 115 159 207 255 295 359
#     4   9  18  34  60  91 120 150 197 258 309 355
#     4  10  20  35  58  91 127 162 203 248 303 372
#     4  12  24  38  61  92 124 158 203 254 308 363
#     4  11  23  38  60  91 126 158 197 253 312 365
#     4  10  18  33  57  91 128 162 200 247 309 375
#     4  12  22  39  64  89 122 160 204 253 304 367
#
# _framework density 19.414068
#
# number of rings (size 3 to 8) (size 9 to 14) (size 15 to 20)
#    0.000    1.250    5.000    3.750    0.000    1.750 
#    0.000    1.250    0.000    4.500    0.000    0.000 
#    0.000    0.000    0.000    0.000    0.000    0.000 
#
# Total GULP energy -178785.824499 kJ/mol
# GULP energy per Si atom -5587.057016 kJ/mol
# Density = 1.936988 g / cm^3
# Si number density = 19.414068 Si / 1000 Ang^3
#
#
#
# Elastic Constant Matrix: (Units=GPa)
#
#
# Indices 1 2 3 4 5 6 
#
# 1 40.0138 10.6473 9.1979 0.0000 0.0000 0.0000
# 2 10.6473 137.7396 28.6574 0.0000 0.0000 0.0000
# 3 9.1979 28.6574 60.8749 0.0000 0.0000 0.0000
# 4 0.0000 0.0000 0.0000 24.3133 0.0000 0.0000
# 5 0.0000 0.0000 0.0000 0.0000 7.2520 0.0000
# 6 0.0000 0.0000 0.0000 0.0000 0.0000 12.5803
#
#
#
# Elastic Compliance Matrix: (Units=1/GPa)
#
#
# Indices 1 2 3 4 5 6 
#
# 1 0.026108 -0.001327 -0.003320 0.000000 0.000000 0.000000
# 2 -0.001327 0.008116 -0.003620 0.000000 0.000000 0.000000
# 3 -0.003320 -0.003620 0.018633 0.000000 0.000000 0.000000
# 4 0.000000 0.000000 0.000000 0.041130 0.000000 0.000000
# 5 0.000000 0.000000 0.000000 0.000000 0.137892 0.000000
# 6 0.000000 0.000000 0.000000 0.000000 0.000000 0.079489
#
#
# Mechanical properties :
#
#
# Convention : Reuss Voigt Hill
#
# Bulk Modulus (GPa) = 27.53161 37.29259 32.41210
# Shear Modulus (GPa) = 14.70547 21.50418 18.10483
#
# Velocity S-wave (km/s) = 2.75519 3.33176 3.05710
# Velocity P-wave (km/s) = 4.93290 5.83538 5.40301
#
# Compressibility (1/GPa) = 0.03632188
#
# Stress axis : x y z
#
# Youngs Moduli (GPa) = 38.30287 123.21557 53.66843
#
# Poissons Ratio (x) = 0.16356 0.17817
# Poissons Ratio (y) = 0.05084 0.19428
# Poissons Ratio (z) = 0.12716 0.44605
#
# Static dielectric constant tensor:
#      x y z
#    x 1.688350 0.000000 0.000000 
#    y 0.000000 1.694180 0.000000 
#    z 0.000000 0.000000 1.674450 
# 
# From -- ./inp_files/9033.got.cif
#   From: 2010.05.17/outbox.cif.g08.bks.cpg/sg44_5_cif.got.tgz:9033.got - 2010.06.03 19:37:08.
