data_PCOD9373241
_publ_section_title
;
Structure prediction by ZEFSAII (Michael W. Deem and Ramdas Pophale) SiO2 
 PCOD9373241
Probable space group: I M M 2
;
_chemical_formula_sum "Si O2"
_cell_formula_units_Z 48
_cell_length_a 19.333269
_cell_length_b 7.312113
_cell_length_c 15.196289
_cell_angle_alpha 90.000000
_cell_angle_beta 90.000000
_cell_angle_gamma 90.000000
_cell_volume 2148.254510
_symmetry_space_group_name_H-M "I M M 2"
_symmetry_group_IT_number 44
_symmetry_cell_setting 'orthorhombic'
loop_
_space_group_symop_operation_xyz
x,y,z
-x,-y,z
-x,y,z
x,-y,z
1/2+x,1/2+y,1/2+z
1/2-x,1/2-y,1/2+z
1/2-x,1/2+y,1/2+z
1/2+x,1/2-y,1/2+z
loop_
_atom_site_type_symbol
_atom_site_label
_atom_site_fract_x
_atom_site_fract_y
_atom_site_fract_z
Si Si1 0.260088 0.279588 0.947290
Si Si2 0.925496 0.277136 0.192576
Si Si3 0.500000 0.707518 0.152852
Si Si4 0.890690 0.278364 0.997318
Si Si5 0.225892 0.711295 0.242718
Si Si6 0.000000 0.278337 0.855527
Si Si7 0.652726 0.723683 0.111210
O O1 0.260664 0.500000 0.944725
O O2 0.188131 0.220071 0.990671
O O3 0.260902 0.218079 0.846675
O O4 0.320164 0.223935 0.014404
O O5 0.925544 0.500000 0.198890
O O6 0.851638 0.211854 0.229311
O O7 0.000000 0.217001 0.230281
O O8 0.923139 0.225610 0.089785
O O9 0.500000 0.500000 0.117550
O O10 0.500000 0.704140 0.258340
O O11 0.574432 0.788634 0.126828
O O12 0.891924 0.500000 0.996668
O O13 0.934067 0.220440 0.912867
O O14 0.220775 0.500000 0.213661
O O15 0.290123 0.784491 0.184346
O O16 0.000000 0.500000 0.849527
O O17 0.651001 0.500000 0.116542
#
# Coordination Sequence:
#
# PCOD9373241 Si02
#       7
#     8   8   4   8   8   4   8
#     4  10  19  33  52  74  98 131 169 203 241 289
#     4   9  15  27  49  74  97 123 158 199 241 290
#     4  10  20  34  50  69  96 134 172 199 232 285
#     4   9  15  26  48  74  97 122 158 199 242 294
#     4  10  19  33  53  76  99 127 165 206 246 291
#     4  10  18  28  48  79 102 118 152 207 260 295
#     4   9  18  34  54  71  96 135 173 201 233 292
#
# _framework density 22.343720000000001
#
# number of rings (size 3 to 8) (size 9 to 14) (size 15 to 20)
#    0.000    2.500    2.500    1.000    0.000    0.000 
#    1.500    1.667    0.000    1.000    0.000    0.000 
#    0.000    0.000    0.000    0.000    0.000    0.000 
#
# Total GULP energy -133943.055320 kJ/mol
# GULP energy per Si atom -5580.960638 kJ/mol
# Density = 2.229286 g / cm^3
# Si number density = 22.343720 Si / 1000 Ang^3
#
#
#
# Elastic Constant Matrix: (Units=GPa)
#
#
# Indices 1 2 3 4 5 6 
#
# 1 194.3272 9.6978 36.7288 0.0000 0.0000 0.0000
# 2 9.6978 88.5561 -9.6001 0.0000 0.0000 0.0000
# 3 36.7288 -9.6001 61.2624 0.0000 0.0000 0.0000
# 4 0.0000 0.0000 0.0000 16.1100 0.0000 0.0000
# 5 0.0000 0.0000 0.0000 0.0000 29.7344 0.0000
# 6 0.0000 0.0000 0.0000 0.0000 0.0000 -11.7048
#
#
#
# Elastic Compliance Matrix: (Units=1/GPa)
#
#
# Indices 1 2 3 4 5 6 
#
# 1 0.005897 -0.001047 -0.003700 0.000000 0.000000 0.000000
# 2 -0.001047 0.011673 0.002457 0.000000 0.000000 0.000000
# 3 -0.003700 0.002457 0.018926 0.000000 0.000000 0.000000
# 4 0.000000 0.000000 0.000000 0.062073 0.000000 0.000000
# 5 0.000000 0.000000 0.000000 0.000000 0.033631 0.000000
# 6 0.000000 0.000000 0.000000 0.000000 0.000000 -0.085435
#
#
# Mechanical properties :
#
#
# Convention : Reuss Voigt Hill
#
# Bulk Modulus (GPa) = 31.33073 46.42207 38.87640
# Shear Modulus (GPa) = 80.66438 27.31585 53.99012
#
# Velocity S-wave (km/s) = 6.01498 3.50026 4.92097
# Velocity P-wave (km/s) = 7.89256 6.09567 7.05159
#
# Compressibility (1/GPa) = 0.03191755
#
# Stress axis : x y z
#
# Youngs Moduli (GPa) = 169.56383 85.66583 52.83628
#
# Poissons Ratio (x) = 0.08968 0.19548
# Poissons Ratio (y) = 0.17752 -0.12981
# Poissons Ratio (z) = 0.62735 -0.21047
#
# Static dielectric constant tensor:
#      x y z
#    x 1.845990 0.000000 0.000000 
#    y 0.000000 1.874280 0.000000 
#    z 0.000000 0.000000 1.747430 
# 
# From -- ./inp_files/12408.got.cif
#   From: 2010.05.17/outbox.cif.g08.bks.cpg/sg44_7_cif.got.tgz:12408.got - 2010.06.03 19:37:08.
