data_PCOD9373186
_publ_section_title
;
Structure prediction by ZEFSAII (Michael W. Deem and Ramdas Pophale) SiO2 
 PCOD9373186
Probable space group: I M M 2
;
_chemical_formula_sum "Si O2"
_cell_formula_units_Z 56
_cell_length_a 30.157009
_cell_length_b 8.554472
_cell_length_c 14.081804
_cell_angle_alpha 90.000000
_cell_angle_beta 90.000000
_cell_angle_gamma 90.000000
_cell_volume 3632.785621
_symmetry_space_group_name_H-M "I M M 2"
_symmetry_group_IT_number 44
_symmetry_cell_setting 'orthorhombic'
loop_
_space_group_symop_operation_xyz
x,y,z
-x,-y,z
-x,y,z
x,-y,z
1/2+x,1/2+y,1/2+z
1/2-x,1/2-y,1/2+z
1/2-x,1/2+y,1/2+z
1/2+x,1/2-y,1/2+z
loop_
_atom_site_type_symbol
_atom_site_label
_atom_site_fract_x
_atom_site_fract_y
_atom_site_fract_z
Si Si1 0.000000 0.685377 0.988430
Si Si2 0.768499 0.689277 0.494868
Si Si3 0.270749 0.811628 0.208226
Si Si4 0.816673 0.311519 0.305536
Si Si5 0.500000 0.314290 0.703065
Si Si6 0.907756 0.687842 0.209926
Si Si7 0.593289 0.314157 0.494821
Si Si8 0.319447 0.812278 0.397434
O O1 0.953628 0.755370 0.952563
O O2 0.000000 0.500000 0.978029
O O3 0.000000 0.731244 0.100012
O O4 0.764890 0.500000 0.493414
O O5 0.781182 0.738658 0.601101
O O6 0.803070 0.735421 0.412464
O O7 0.720989 0.758687 0.464977
O O8 0.222247 0.752061 0.238286
O O9 0.304553 0.762137 0.291283
O O10 0.269885 0.000000 0.209879
O O11 0.815627 0.500000 0.301143
O O12 0.864814 0.261352 0.269504
O O13 0.500000 0.500000 0.689835
O O14 0.453736 0.259960 0.747850
O O15 0.911034 0.500000 0.211336
O O16 0.901813 0.741579 0.100564
O O17 0.591869 0.500000 0.504536
O O18 0.634955 0.261469 0.432661
O O19 0.322998 0.000000 0.400416
#
# Coordination Sequence:
#
# PCOD9373186 Si02
#       8
#     4   8   8   8   4   8   8   8
#     4  10  18  30  46  64  87 114 141 176 215 256
#     4   9  17  31  46  63  86 115 146 181 218 255
#     4   9  18  30  45  62  86 115 145 179 215 252
#     4   9  18  29  44  64  87 113 145 178 214 256
#     4  10  18  28  42  62  87 116 145 176 211 256
#     4  10  18  29  44  64  89 117 144 177 215 256
#     4  11  20  30  44  64  89 118 146 176 211 255
#     4  10  19  30  43  64  88 115 147 179 214 256
#
# _framework density 15.415168
#
# number of rings (size 3 to 8) (size 9 to 14) (size 15 to 20)
#    0.000    2.286    0.000    6.000    0.000    4.571 
#    0.000    0.000    0.000    0.000    0.000    1.000 
#    0.000    4.571    0.000    0.000    0.000    0.000 
#
# Total GULP energy -156101.606355 kJ/mol
# GULP energy per Si atom -5575.057370 kJ/mol
# Density = 1.538008 g / cm^3
# Si number density = 15.415168 Si / 1000 Ang^3
#
#
#
# Elastic Constant Matrix: (Units=GPa)
#
#
# Indices 1 2 3 4 5 6 
#
# 1 147.5020 23.5351 56.3508 0.0000 0.0000 0.0000
# 2 23.5351 31.0003 15.4614 0.0000 0.0000 0.0000
# 3 56.3508 15.4614 87.5358 0.0000 0.0000 0.0000
# 4 0.0000 0.0000 0.0000 8.0594 0.0000 0.0000
# 5 0.0000 0.0000 0.0000 0.0000 21.6133 0.0000
# 6 0.0000 0.0000 0.0000 0.0000 0.0000 25.3022
#
#
#
# Elastic Compliance Matrix: (Units=1/GPa)
#
#
# Indices 1 2 3 4 5 6 
#
# 1 0.009551 -0.004589 -0.005338 0.000000 0.000000 0.000000
# 2 -0.004589 0.037579 -0.003684 0.000000 0.000000 0.000000
# 3 -0.005338 -0.003684 0.015511 0.000000 0.000000 0.000000
# 4 0.000000 0.000000 0.000000 0.124079 0.000000 0.000000
# 5 0.000000 0.000000 0.000000 0.000000 0.046268 0.000000
# 6 0.000000 0.000000 0.000000 0.000000 0.000000 0.039522
#
#
# Mechanical properties :
#
#
# Convention : Reuss Voigt Hill
#
# Bulk Modulus (GPa) = 28.23256 50.74808 39.49032
# Shear Modulus (GPa) = 16.04950 22.37437 19.21194
#
# Velocity S-wave (km/s) = 3.23019 3.81393 3.53413
# Velocity P-wave (km/s) = 5.68038 7.23789 6.50591
#
# Compressibility (1/GPa) = 0.03542010
#
# Stress axis : x y z
#
# Youngs Moduli (GPa) = 104.70111 26.61083 64.47137
#
# Poissons Ratio (x) = 0.12211 0.34414
# Poissons Ratio (y) = 0.48045 0.23748
# Poissons Ratio (z) = 0.55888 0.09802
#
# Static dielectric constant tensor:
#      x y z
#    x 1.521560 0.000000 0.000000 
#    y 0.000000 1.520920 0.000000 
#    z 0.000000 0.000000 1.513320 
# 
# From -- ./inp_files/19677.got.cif
#   From: 2010.05.17/outbox.cif.g08.bks.cpg/sg44_10_cif.got.tgz:19677.got - 2010.06.03 19:37:08.
