data_PCOD9373744
_publ_section_title
;
Structure prediction by ZEFSAII (Michael W. Deem and Ramdas Pophale) SiO2 
 PCOD9373744
Probable space group: I M M 2
;
_chemical_formula_sum "Si O2"
_cell_formula_units_Z 52
_cell_length_a 7.798493
_cell_length_b 13.088231
_cell_length_c 33.902522
_cell_angle_alpha 90.000000
_cell_angle_beta 90.000000
_cell_angle_gamma 90.000000
_cell_volume 3460.378815
_symmetry_space_group_name_H-M "I M M 2"
_symmetry_group_IT_number 44
_symmetry_cell_setting 'orthorhombic'
loop_
_space_group_symop_operation_xyz
x,y,z
-x,-y,z
-x,y,z
x,-y,z
1/2+x,1/2+y,1/2+z
1/2-x,1/2-y,1/2+z
1/2-x,1/2+y,1/2+z
1/2+x,1/2-y,1/2+z
loop_
_atom_site_type_symbol
_atom_site_label
_atom_site_fract_x
_atom_site_fract_y
_atom_site_fract_z
Si Si1 0.000000 0.378852 0.317420
Si Si2 0.209250 0.382450 0.708704
Si Si3 0.199545 0.620601 0.867755
Si Si4 0.298977 0.123910 0.122494
Si Si5 0.702235 0.759572 0.286590
Si Si6 0.813319 0.124069 0.036878
Si Si7 0.500000 0.123984 0.980831
Si Si8 0.500000 0.757599 0.898815
O O1 0.169199 0.331616 0.296956
O O2 0.000000 0.336505 0.362184
O O3 0.000000 0.500000 0.316394
O O4 0.265856 0.500000 0.714324
O O5 0.267225 0.343791 0.665557
O O6 0.254604 0.313264 0.745759
O O7 0.000000 0.385096 0.707146
O O8 0.234957 0.500000 0.870068
O O9 0.218620 0.659533 0.822571
O O10 0.332823 0.686273 0.893128
O O11 0.000000 0.637966 0.878731
O O12 0.500000 0.149632 0.119375
O O13 0.212961 0.159019 0.082053
O O14 0.287835 0.000000 0.123456
O O15 0.500000 0.730802 0.284529
O O16 0.000000 0.155684 0.022547
O O17 0.808015 0.000000 0.038550
O O18 0.663793 0.153373 0.007274
O O19 0.500000 0.181224 0.939441
O O20 0.500000 0.000000 0.975535
#
# Coordination Sequence:
#
# PCOD9373744 Si02
#       8
#     4   8   8   8   8   8   4   4
#     4  10  21  35  47  62  87 117 156 199 235 261
#     4   8  13  22  40  65  94 125 150 176 211 257
#     4   9  17  30  49  70  94 121 145 175 221 274
#     4   8  12  21  37  57  85 120 148 171 208 258
#     4   9  17  30  47  67  91 121 153 183 217 261
#     4   9  16  26  40  57  80 116 154 182 215 262
#     4  10  19  31  45  60  85 121 158 193 225 257
#     4  10  20  32  48  68  88 116 152 194 226 266
#
# _framework density 15.027256
#
# number of rings (size 3 to 8) (size 9 to 14) (size 15 to 20)
#    0.000    3.077    0.769    1.846    0.000    2.769 
#    1.385    1.154    0.000    2.769    0.000    0.000 
#    0.000    2.462    0.923    0.000    0.000    0.000 
#
# Total GULP energy -144749.587279 kJ/mol
# GULP energy per Si atom -5567.291818 kJ/mol
# Density = 1.499305 g / cm^3
# Si number density = 15.027256 Si / 1000 Ang^3
#
#
#
# Elastic Constant Matrix: (Units=GPa)
#
#
# Indices 1 2 3 4 5 6 
#
# 1 93.2058 45.8264 67.1285 0.0000 0.0000 0.0000
# 2 45.8264 73.9016 47.2416 0.0000 0.0000 0.0000
# 3 67.1285 47.2416 122.4860 0.0000 0.0000 0.0000
# 4 0.0000 0.0000 0.0000 21.5032 0.0000 0.0000
# 5 0.0000 0.0000 0.0000 0.0000 1.4666 0.0000
# 6 0.0000 0.0000 0.0000 0.0000 0.0000 11.0401
#
#
#
# Elastic Compliance Matrix: (Units=1/GPa)
#
#
# Indices 1 2 3 4 5 6 
#
# 1 0.020293 -0.007266 -0.008319 0.000000 0.000000 0.000000
# 2 -0.007266 0.020561 -0.003948 0.000000 0.000000 0.000000
# 3 -0.008319 -0.003948 0.014246 0.000000 0.000000 0.000000
# 4 0.000000 0.000000 0.000000 0.046505 0.000000 0.000000
# 5 0.000000 0.000000 0.000000 0.000000 0.681857 0.000000
# 6 0.000000 0.000000 0.000000 0.000000 0.000000 0.090579
#
#
# Mechanical properties :
#
#
# Convention : Reuss Voigt Hill
#
# Bulk Modulus (GPa) = 62.36755 67.77628 65.07192
# Shear Modulus (GPa) = 5.44395 15.42843 10.43619
#
# Velocity S-wave (km/s) = 1.90541 3.20769 2.63817
# Velocity P-wave (km/s) = 6.81424 7.67588 7.25786
#
# Compressibility (1/GPa) = 0.01603398
#
# Stress axis : x y z
#
# Youngs Moduli (GPa) = 49.27838 48.63643 70.19327
#
# Poissons Ratio (x) = 0.35337 0.58396
# Poissons Ratio (y) = 0.35803 0.27714
# Poissons Ratio (z) = 0.40996 0.19203
#
# Static dielectric constant tensor:
#      x y z
#    x 1.535050 0.000000 0.000000 
#    y 0.000000 1.452440 0.000000 
#    z 0.000000 0.000000 1.504240 
# 
# From -- ./inp_files/27136.got.cif
#   From: 2010.05.17/outbox.cif.g08.bks.cpg/sg44_14_cif.got.tgz:27136.got - 2010.06.03 19:37:08.
