data_PCOD9373778
_publ_section_title
;
Structure prediction by ZEFSAII (Michael W. Deem and Ramdas Pophale) SiO2 
 PCOD9373778
Probable space group: I M M 2
;
_chemical_formula_sum "Si O2"
_cell_formula_units_Z 64
_cell_length_a 27.531680
_cell_length_b 9.116895
_cell_length_c 15.098385
_cell_angle_alpha 90.000000
_cell_angle_beta 90.000000
_cell_angle_gamma 90.000000
_cell_volume 3789.746509
_symmetry_space_group_name_H-M "I M M 2"
_symmetry_group_IT_number 44
_symmetry_cell_setting 'orthorhombic'
loop_
_space_group_symop_operation_xyz
x,y,z
-x,-y,z
-x,y,z
x,-y,z
1/2+x,1/2+y,1/2+z
1/2-x,1/2-y,1/2+z
1/2-x,1/2+y,1/2+z
1/2+x,1/2-y,1/2+z
loop_
_atom_site_type_symbol
_atom_site_label
_atom_site_fract_x
_atom_site_fract_y
_atom_site_fract_z
Si Si1 0.715783 0.673593 0.225510
Si Si2 0.169271 0.825853 0.030680
Si Si3 0.716343 0.826241 0.041251
Si Si4 0.368355 0.824217 0.904593
Si Si5 0.443528 0.175260 0.217992
Si Si6 0.359634 0.824468 0.354548
Si Si7 0.169089 0.325251 0.215609
Si Si8 0.442515 0.326210 0.033418
O O1 0.706499 0.500000 0.232474
O O2 0.702889 0.733837 0.128025
O O3 0.685066 0.759128 0.298370
O O4 0.773598 0.698051 0.235405
O O5 0.227300 0.798015 0.018841
O O6 0.156397 0.761501 0.126794
O O7 0.161769 0.000000 0.027578
O O8 0.141700 0.746378 0.951246
O O9 0.711867 0.000000 0.062222
O O10 0.680744 0.793321 0.960235
O O11 0.360578 0.781173 0.802750
O O12 0.375556 0.000000 0.907353
O O13 0.411637 0.744999 0.955289
O O14 0.500000 0.211649 0.236005
O O15 0.407953 0.212312 0.298468
O O16 0.428336 0.255173 0.127603
O O17 0.440330 0.000000 0.203277
O O18 0.355637 0.000000 0.360559
O O19 0.162990 0.500000 0.200937
O O20 0.500000 0.298035 0.021643
O O21 0.434711 0.500000 0.036597
#
# Coordination Sequence:
#
# PCOD9373778 Si02
#       8
#     8   8   8   8   8   8   8   8
#     4  10  19  31  48  72 103 135 165 199 241 290
#     4  10  20  34  51  71  99 134 168 203 244 290
#     4   9  18  32  48  71 103 134 164 199 239 285
#     4  10  19  32  52  73  96 130 169 204 239 286
#     4   9  19  36  55  74  98 129 163 198 240 292
#     4  11  21  32  50  74  99 129 166 207 247 289
#     4   9  19  35  51  70  99 133 168 206 244 283
#     4  10  21  35  51  75 105 130 155 196 248 296
#
# _framework density 16.887672999999999
#
# number of rings (size 3 to 8) (size 9 to 14) (size 15 to 20)
#    0.000    2.250    0.000    3.000    0.000    8.750 
#    0.000    1.250    0.000    0.750    0.000    1.750 
#    0.000    0.000    0.000    0.000    0.000    0.000 
#
# Total GULP energy -178654.175801 kJ/mol
# GULP energy per Si atom -5582.942994 kJ/mol
# Density = 1.684924 g / cm^3
# Si number density = 16.887673 Si / 1000 Ang^3
#
#
#
# Elastic Constant Matrix: (Units=GPa)
#
#
# Indices 1 2 3 4 5 6 
#
# 1 60.2017 47.2806 74.6894 0.0000 0.0000 0.0000
# 2 47.2806 53.9096 74.8252 0.0000 0.0000 0.0000
# 3 74.6894 74.8252 166.6020 0.0000 0.0000 0.0000
# 4 0.0000 0.0000 0.0000 29.1635 0.0000 0.0000
# 5 0.0000 0.0000 0.0000 0.0000 25.2872 0.0000
# 6 0.0000 0.0000 0.0000 0.0000 0.0000 21.7336
#
#
#
# Elastic Compliance Matrix: (Units=1/GPa)
#
#
# Indices 1 2 3 4 5 6 
#
# 1 0.057388 -0.038823 -0.008291 0.000000 0.000000 0.000000
# 2 -0.038823 0.075516 -0.016511 0.000000 0.000000 0.000000
# 3 -0.008291 -0.016511 0.017135 0.000000 0.000000 0.000000
# 4 0.000000 0.000000 0.000000 0.034289 0.000000 0.000000
# 5 0.000000 0.000000 0.000000 0.000000 0.039546 0.000000
# 6 0.000000 0.000000 0.000000 0.000000 0.000000 0.046012
#
#
# Mechanical properties :
#
#
# Convention : Reuss Voigt Hill
#
# Bulk Modulus (GPa) = 43.88346 74.92263 59.40304
# Shear Modulus (GPa) = 12.35383 20.83139 16.59261
#
# Velocity S-wave (km/s) = 2.70761 3.51597 3.13793
# Velocity P-wave (km/s) = 5.98471 7.80668 6.95561
#
# Compressibility (1/GPa) = 0.02278763
#
# Stress axis : x y z
#
# Youngs Moduli (GPa) = 17.42537 13.24219 58.36012
#
# Poissons Ratio (x) = 0.51410 0.48386
# Poissons Ratio (y) = 0.67651 0.96361
# Poissons Ratio (z) = 0.14447 0.21865
#
# Static dielectric constant tensor:
#      x y z
#    x 1.565650 0.000000 0.000000 
#    y 0.000000 1.558580 0.000000 
#    z 0.000000 0.000000 1.552670 
# 
# From -- ./inp_files/16796.got.cif
#   From: 2010.05.17/outbox.cif.g08.bks.cpg/sg44_9_cif.got.tgz:16796.got - 2010.06.03 19:37:08.
