data_PCOD9373192
_publ_section_title
;
Structure prediction by ZEFSAII (Michael W. Deem and Ramdas Pophale) SiO2 
 PCOD9373192
Probable space group: I M M 2
;
_chemical_formula_sum "Si O2"
_cell_formula_units_Z 64
_cell_length_a 19.019269
_cell_length_b 8.748662
_cell_length_c 27.196388
_cell_angle_alpha 90.000000
_cell_angle_beta 90.000000
_cell_angle_gamma 90.000000
_cell_volume 4525.292830
_symmetry_space_group_name_H-M "I M M 2"
_symmetry_group_IT_number 44
_symmetry_cell_setting 'orthorhombic'
loop_
_space_group_symop_operation_xyz
x,y,z
-x,-y,z
-x,y,z
x,-y,z
1/2+x,1/2+y,1/2+z
1/2-x,1/2-y,1/2+z
1/2-x,1/2+y,1/2+z
1/2+x,1/2-y,1/2+z
loop_
_atom_site_type_symbol
_atom_site_label
_atom_site_fract_x
_atom_site_fract_y
_atom_site_fract_z
Si Si1 0.418700 0.183022 0.808050
Si Si2 0.582658 0.817671 0.998735
Si Si3 0.292500 0.176002 0.355375
Si Si4 0.793546 0.824085 0.252054
Si Si5 0.081861 0.816038 0.604763
Si Si6 0.163007 0.183361 0.702766
Si Si7 0.918863 0.685885 0.796093
Si Si8 0.656293 0.315557 0.904102
O O1 0.500000 0.224617 0.799749
O O2 0.366361 0.242711 0.765697
O O3 0.391889 0.252968 0.859679
O O4 0.413338 0.000000 0.811242
O O5 0.500000 0.779619 0.991435
O O6 0.626847 0.739456 0.955833
O O7 0.590032 0.000000 0.995807
O O8 0.601748 0.759599 0.053091
O O9 0.249964 0.176451 0.303616
O O10 0.367972 0.242035 0.340286
O O11 0.236074 0.242075 0.393423
O O12 0.304527 0.000000 0.370143
O O13 0.741439 0.743509 0.213752
O O14 0.805299 0.000000 0.238479
O O15 0.131099 0.770708 0.650176
O O16 0.000000 0.776294 0.615400
O O17 0.085228 0.000000 0.599630
O O18 0.112833 0.249713 0.745514
O O19 0.162402 0.000000 0.705962
O O20 0.913739 0.500000 0.794282
O O21 0.000000 0.727658 0.802057
O O22 0.656376 0.500000 0.901219
#
# Coordination Sequence:
#
# PCOD9373192 Si02
#       8
#     8   8   8   8   8   8   8   8
#     4  10  19  29  42  62  87 112 140 174 209 245
#     4  10  20  31  42  58  80 105 137 178 215 245
#     4   7  13  25  38  55  77 102 134 167 197 234
#     4   9  17  29  43  59  81 109 141 172 203 245
#     4   9  18  31  44  59  81 109 140 172 207 249
#     4  10  18  28  43  61  83 110 139 172 209 247
#     4   9  16  26  41  60  83 111 141 171 202 240
#     4  10  18  28  43  59  80 112 144 172 206 250
#
# _framework density 14.142732000000001
#
# number of rings (size 3 to 8) (size 9 to 14) (size 15 to 20)
#    0.000    2.750    0.000    4.125    0.000    5.000 
#    0.000    1.875    0.000    0.000    0.000    0.000 
#    0.000    1.000    0.000    7.750    0.000    1.875 
#
# Total GULP energy -178196.957986 kJ/mol
# GULP energy per Si atom -5568.654937 kJ/mol
# Density = 1.411054 g / cm^3
# Si number density = 14.142732 Si / 1000 Ang^3
#
#
#
# Elastic Constant Matrix: (Units=GPa)
#
#
# Indices 1 2 3 4 5 6 
#
# 1 127.1160 38.5200 67.7019 0.0000 0.0000 0.0000
# 2 38.5200 37.2329 30.8319 0.0000 0.0000 0.0000
# 3 67.7019 30.8319 89.7795 0.0000 0.0000 0.0000
# 4 0.0000 0.0000 0.0000 20.3036 0.0000 0.0000
# 5 0.0000 0.0000 0.0000 0.0000 27.4576 0.0000
# 6 0.0000 0.0000 0.0000 0.0000 0.0000 19.0687
#
#
#
# Elastic Compliance Matrix: (Units=1/GPa)
#
#
# Indices 1 2 3 4 5 6 
#
# 1 0.014856 -0.008514 -0.008279 0.000000 0.000000 0.000000
# 2 -0.008514 0.042410 -0.008144 0.000000 0.000000 0.000000
# 3 -0.008279 -0.008144 0.020178 0.000000 0.000000 0.000000
# 4 0.000000 0.000000 0.000000 0.049252 0.000000 0.000000
# 5 0.000000 0.000000 0.000000 0.000000 0.036420 0.000000
# 6 0.000000 0.000000 0.000000 0.000000 0.000000 0.052442
#
#
# Mechanical properties :
#
#
# Convention : Reuss Voigt Hill
#
# Bulk Modulus (GPa) = 36.27066 58.69289 47.48177
# Shear Modulus (GPa) = 18.20673 21.17096 19.68885
#
# Velocity S-wave (km/s) = 3.59187 3.87324 3.73520
# Velocity P-wave (km/s) = 6.55010 7.84813 7.22831
#
# Compressibility (1/GPa) = 0.02757049
#
# Stress axis : x y z
#
# Youngs Moduli (GPa) = 67.31147 23.57919 49.55792
#
# Poissons Ratio (x) = 0.20076 0.41030
# Poissons Ratio (y) = 0.57310 0.40360
# Poissons Ratio (z) = 0.55728 0.19203
#
# Static dielectric constant tensor:
#      x y z
#    x 1.484920 0.000000 0.000000 
#    y 0.000000 1.480030 0.000000 
#    z 0.000000 0.000000 1.441960 
# 
# From -- ./inp_files/25876.got.cif
#   From: 2010.05.17/outbox.cif.g08.bks.cpg/sg44_13_cif.got.tgz:25876.got - 2010.06.03 19:37:08.
