data_PCOD9373138
_publ_section_title
;
Structure prediction by ZEFSAII (Michael W. Deem and Ramdas Pophale) SiO2 
 PCOD9373138
Probable space group: I M M 2
;
_chemical_formula_sum "Si O2"
_cell_formula_units_Z 56
_cell_length_a 7.617685
_cell_length_b 13.960676
_cell_length_c 33.769507
_cell_angle_alpha 90.000000
_cell_angle_beta 90.000000
_cell_angle_gamma 90.000000
_cell_volume 3591.320616
_symmetry_space_group_name_H-M "I M M 2"
_symmetry_group_IT_number 44
_symmetry_cell_setting 'orthorhombic'
loop_
_space_group_symop_operation_xyz
x,y,z
-x,-y,z
-x,y,z
x,-y,z
1/2+x,1/2+y,1/2+z
1/2-x,1/2-y,1/2+z
1/2-x,1/2+y,1/2+z
1/2+x,1/2-y,1/2+z
loop_
_atom_site_type_symbol
_atom_site_label
_atom_site_fract_x
_atom_site_fract_y
_atom_site_fract_z
Si Si1 0.714212 0.610843 0.437890
Si Si2 0.287713 0.302651 0.141076
Si Si3 0.500000 0.883577 0.790398
Si Si4 0.796033 0.804237 0.019486
Si Si5 0.500000 0.115709 0.698669
Si Si6 0.705359 0.106083 0.102525
Si Si7 0.288889 0.393408 0.056154
Si Si8 0.298148 0.616743 0.350432
O O1 0.500000 0.612731 0.436743
O O2 0.766834 0.500000 0.442558
O O3 0.775194 0.667951 0.476450
O O4 0.767587 0.645928 0.394252
O O5 0.500000 0.304845 0.147768
O O6 0.171758 0.343677 0.176418
O O7 0.228956 0.194856 0.128868
O O8 0.250680 0.365451 0.101669
O O9 0.500000 0.854980 0.744724
O O10 0.329739 0.852584 0.815379
O O11 0.500000 0.000000 0.790655
O O12 0.716222 0.860611 0.056747
O O13 0.779602 0.692074 0.028971
O O14 0.000000 0.831404 0.019708
O O15 0.500000 0.000000 0.696235
O O16 0.500000 0.099978 0.112162
O O17 0.783320 0.000000 0.107546
O O18 0.500000 0.392276 0.052628
O O19 0.224713 0.500000 0.047148
O O20 0.500000 0.647041 0.344724
O O21 0.298590 0.500000 0.351407
#
# Coordination Sequence:
#
# PCOD9373138 Si02
#       8
#     8   8   4   8   4   8   8   8
#     4   8  14  25  40  59  87 120 147 172 210 264
#     4   9  19  34  48  66  90 119 156 192 229 275
#     4   9  18  30  42  65  89 109 149 190 222 273
#     4  10  18  26  40  66  92 113 149 193 224 260
#     4  11  22  32  47  69  93 119 156 200 233 271
#     4   9  18  32  46  62  90 123 152 184 226 274
#     4   9  18  32  45  56  80 120 159 192 227 266
#     4   8  14  27  44  59  83 118 147 175 218 269
#
# _framework density 15.593149
#
# number of rings (size 3 to 8) (size 9 to 14) (size 15 to 20)
#    0.000    3.000    0.000    3.000    4.000    2.571 
#    2.571    1.429    0.000    0.000    0.000    0.000 
#    0.000    2.286    0.000    5.000    0.000    0.000 
#
# Total GULP energy -155945.915973 kJ/mol
# GULP energy per Si atom -5569.496999 kJ/mol
# Density = 1.555766 g / cm^3
# Si number density = 15.593149 Si / 1000 Ang^3
#
#
#
# Elastic Constant Matrix: (Units=GPa)
#
#
# Indices 1 2 3 4 5 6 
#
# 1 53.5785 14.6406 42.8653 0.0000 0.0000 0.0000
# 2 14.6406 75.8925 42.8584 0.0000 0.0000 0.0000
# 3 42.8653 42.8584 138.1633 0.0000 0.0000 0.0000
# 4 0.0000 0.0000 0.0000 18.2527 0.0000 0.0000
# 5 0.0000 0.0000 0.0000 0.0000 26.5332 0.0000
# 6 0.0000 0.0000 0.0000 0.0000 0.0000 11.2423
#
#
#
# Elastic Compliance Matrix: (Units=1/GPa)
#
#
# Indices 1 2 3 4 5 6 
#
# 1 0.024844 -0.000533 -0.007543 0.000000 0.000000 0.000000
# 2 -0.000533 0.015986 -0.004794 0.000000 0.000000 0.000000
# 3 -0.007543 -0.004794 0.011065 0.000000 0.000000 0.000000
# 4 0.000000 0.000000 0.000000 0.054787 0.000000 0.000000
# 5 0.000000 0.000000 0.000000 0.000000 0.037689 0.000000
# 6 0.000000 0.000000 0.000000 0.000000 0.000000 0.088950
#
#
# Mechanical properties :
#
#
# Convention : Reuss Voigt Hill
#
# Bulk Modulus (GPa) = 38.23097 52.04033 45.13565
# Shear Modulus (GPa) = 18.67215 22.35697 20.51456
#
# Velocity S-wave (km/s) = 3.46419 3.79062 3.63107
# Velocity P-wave (km/s) = 6.36960 7.25291 6.82556
#
# Compressibility (1/GPa) = 0.02615680
#
# Stress axis : x y z
#
# Youngs Moduli (GPa) = 40.25070 62.55299 90.37630
#
# Poissons Ratio (x) = 0.03336 0.68167
# Poissons Ratio (y) = 0.02147 0.43322
# Poissons Ratio (z) = 0.30359 0.29985
#
# Static dielectric constant tensor:
#      x y z
#    x 1.570310 0.000000 0.000000 
#    y 0.000000 1.523750 0.000000 
#    z 0.000000 0.000000 1.512680 
# 
# From -- ./inp_files/27258.got.cif
#   From: 2010.05.17/outbox.cif.g08.bks.cpg/sg44_14_cif.got.tgz:27258.got - 2010.06.03 19:37:08.
