data_PCOD9373080
_publ_section_title
;
Structure prediction by ZEFSAII (Michael W. Deem and Ramdas Pophale) SiO2 
 PCOD9373080
Probable space group: I M M 2
;
_chemical_formula_sum "Si O2"
_cell_formula_units_Z 64
_cell_length_a 30.071409
_cell_length_b 7.864266
_cell_length_c 12.734831
_cell_angle_alpha 90.000000
_cell_angle_beta 90.000000
_cell_angle_gamma 90.000000
_cell_volume 3011.654572
_symmetry_space_group_name_H-M "I M M 2"
_symmetry_group_IT_number 44
_symmetry_cell_setting 'orthorhombic'
loop_
_space_group_symop_operation_xyz
x,y,z
-x,-y,z
-x,y,z
x,-y,z
1/2+x,1/2+y,1/2+z
1/2-x,1/2-y,1/2+z
1/2-x,1/2+y,1/2+z
1/2+x,1/2-y,1/2+z
loop_
_atom_site_type_symbol
_atom_site_label
_atom_site_fract_x
_atom_site_fract_y
_atom_site_fract_z
Si Si1 0.449087 0.707387 0.672090
Si Si2 0.157465 0.305522 0.852112
Si Si3 0.954480 0.698485 0.707336
Si Si4 0.804637 0.805579 0.446865
Si Si5 0.847257 0.208094 0.229120
Si Si6 0.214229 0.800798 0.031269
Si Si7 0.638941 0.205989 0.127022
Si Si8 0.566453 0.304796 0.434352
O O1 0.500000 0.757880 0.708706
O O2 0.448660 0.500000 0.675670
O O3 0.400102 0.759785 0.720284
O O4 0.445303 0.760606 0.549398
O O5 0.141046 0.500000 0.845105
O O6 0.199217 0.292866 0.925811
O O7 0.166404 0.251313 0.733015
O O8 0.119203 0.203672 0.912724
O O9 0.954659 0.500000 0.680151
O O10 0.909792 0.767853 0.659964
O O11 0.952429 0.711901 0.833033
O O12 0.000000 0.779715 0.669868
O O13 0.821047 0.734511 0.334492
O O14 0.767266 0.719560 0.521444
O O15 0.846919 0.795059 0.522007
O O16 0.790963 0.000000 0.429474
O O17 0.847908 0.000000 0.230587
O O18 0.815890 0.259910 0.129715
O O19 0.204546 0.000000 0.022008
O O20 0.640408 0.000000 0.112616
O O21 0.551978 0.500000 0.429864
#
# Coordination Sequence:
#
# PCOD9373080 Si02
#       8
#     8   8   8   8   8   8   8   8
#     4   9  16  29  53  83 113 149 191 230 281 346
#     4  10  20  35  56  83 115 151 186 228 284 344
#     4   9  18  33  53  78 112 155 196 236 290 348
#     4  11  24  40  59  84 114 151 197 244 290 344
#     4   9  20  39  58  81 118 155 186 237 297 349
#     4  11  22  39  62  86 114 149 188 232 292 354
#     4   9  20  38  57  79 113 153 192 234 285 339
#     4  10  17  28  49  81 117 150 185 233 286 341
#
# _framework density 21.250775000000001
#
# number of rings (size 3 to 8) (size 9 to 14) (size 15 to 20)
#    0.000    2.250    1.250    2.625    1.750    3.250 
#    0.000    2.500    0.000    0.750    0.000    0.000 
#    0.000    0.000    0.000    0.000    0.000    0.000 
#
# Total GULP energy -178140.815338 kJ/mol
# GULP energy per Si atom -5566.900479 kJ/mol
# Density = 2.120241 g / cm^3
# Si number density = 21.250775 Si / 1000 Ang^3
#
#
#
# Elastic Constant Matrix: (Units=GPa)
#
#
# Indices 1 2 3 4 5 6 
#
# 1 99.9773 3.9319 47.4660 0.0000 0.0000 0.0000
# 2 3.9319 30.5826 8.1017 0.0000 0.0000 0.0000
# 3 47.4660 8.1017 103.2059 0.0000 0.0000 0.0000
# 4 0.0000 0.0000 0.0000 19.5819 0.0000 0.0000
# 5 0.0000 0.0000 0.0000 0.0000 -7.3283 0.0000
# 6 0.0000 0.0000 0.0000 0.0000 0.0000 27.0669
#
#
#
# Elastic Compliance Matrix: (Units=1/GPa)
#
#
# Indices 1 2 3 4 5 6 
#
# 1 0.012797 -0.000088 -0.005878 0.000000 0.000000 0.000000
# 2 -0.000088 0.033393 -0.002581 0.000000 0.000000 0.000000
# 3 -0.005878 -0.002581 0.012596 0.000000 0.000000 0.000000
# 4 0.000000 0.000000 0.000000 0.051068 0.000000 0.000000
# 5 0.000000 0.000000 0.000000 0.000000 -0.136458 0.000000
# 6 0.000000 0.000000 0.000000 0.000000 0.000000 0.036945
#
#
# Mechanical properties :
#
#
# Convention : Reuss Voigt Hill
#
# Bulk Modulus (GPa) = 23.98605 39.19612 31.59108
# Shear Modulus (GPa) = 120.96985 19.48185 70.22585
#
# Velocity S-wave (km/s) = 7.55305 3.03109 5.75482
# Velocity P-wave (km/s) = 9.34753 5.54388 7.68475
#
# Compressibility (1/GPa) = 0.04169090
#
# Stress axis : x y z
#
# Youngs Moduli (GPa) = 78.14546 29.94602 79.39295
#
# Poissons Ratio (x) = 0.00263 0.46671
# Poissons Ratio (y) = 0.00687 0.20491
# Poissons Ratio (z) = 0.45938 0.07729
#
# Static dielectric constant tensor:
#      x y z
#    x 1.875690 0.000000 0.000000 
#    y 0.000000 1.789770 0.000000 
#    z 0.000000 0.000000 1.734470 
# 
# From -- ./inp_files/15109.got.cif
#   From: 2010.05.17/outbox.cif.g08.bks.cpg/sg44_8_cif.got.tgz:15109.got - 2010.06.03 19:37:08.
