data_PCOD9373402
_publ_section_title
;
Structure prediction by ZEFSAII (Michael W. Deem and Ramdas Pophale) SiO2 
 PCOD9373402
Probable space group: I M M 2
;
_chemical_formula_sum "Si O2"
_cell_formula_units_Z 56
_cell_length_a 7.427946
_cell_length_b 17.289220
_cell_length_c 18.900588
_cell_angle_alpha 90.000000
_cell_angle_beta 90.000000
_cell_angle_gamma 90.000000
_cell_volume 2427.277632
_symmetry_space_group_name_H-M "I M M 2"
_symmetry_group_IT_number 44
_symmetry_cell_setting 'orthorhombic'
loop_
_space_group_symop_operation_xyz
x,y,z
-x,-y,z
-x,y,z
x,-y,z
1/2+x,1/2+y,1/2+z
1/2-x,1/2-y,1/2+z
1/2-x,1/2+y,1/2+z
1/2+x,1/2-y,1/2+z
loop_
_atom_site_type_symbol
_atom_site_label
_atom_site_fract_x
_atom_site_fract_y
_atom_site_fract_z
Si Si1 0.720631 0.411119 0.185280
Si Si2 0.219522 0.912580 0.945459
Si Si3 0.216079 0.863838 0.100963
Si Si4 0.286100 0.309076 0.316977
Si Si5 0.283940 0.668069 0.906650
Si Si6 0.286738 0.305404 0.062563
Si Si7 0.219866 0.000000 0.364700
Si Si8 0.720219 0.500000 0.702278
O O1 0.500000 0.411273 0.185319
O O2 0.775739 0.500000 0.197471
O O3 0.781319 0.351194 0.246372
O O4 0.780578 0.376439 0.109926
O O5 0.284956 0.854925 0.885465
O O6 0.000000 0.909364 0.946566
O O7 0.269884 0.000000 0.928006
O O8 0.281534 0.891081 0.023830
O O9 0.260201 0.773743 0.105839
O O10 0.000000 0.869881 0.100519
O O11 0.279942 0.923261 0.160384
O O12 0.500000 0.320316 0.314743
O O13 0.258821 0.219892 0.337894
O O14 0.500000 0.667463 0.909063
O O15 0.220980 0.580017 0.899504
O O16 0.215285 0.701083 0.982168
O O17 0.500000 0.316525 0.055531
O O18 0.276047 0.000000 0.283077
O O19 0.000000 0.000000 0.366728
O O20 0.500000 0.500000 0.701866
#
# Coordination Sequence:
#
# PCOD9373402 Si02
#       8
#     8   8   8   8   8   8   4   4
#     4   9  19  35  56  81 106 137 177 219 261 309
#     4   9  15  26  47  74 101 130 168 210 252 301
#     4  10  18  31  52  78 105 136 173 215 260 308
#     4  10  19  33  55  81 107 133 171 222 269 311
#     4  10  21  36  55  78 105 141 180 217 258 309
#     4  10  21  35  53  78 109 140 174 216 264 315
#     4   9  20  36  53  75 102 140 185 220 251 299
#     4   9  18  32  53  79 104 134 179 222 255 305
#
# _framework density 23.071116
#
# number of rings (size 3 to 8) (size 9 to 14) (size 15 to 20)
#    0.000    2.429    2.143    0.429    3.000    1.714 
#    0.000    0.714    0.000    4.714    0.000    0.000 
#    0.000    0.000    0.000    0.000    0.000    0.000 
#
# Total GULP energy -156381.260225 kJ/mol
# GULP energy per Si atom -5585.045008 kJ/mol
# Density = 2.301861 g / cm^3
# Si number density = 23.071116 Si / 1000 Ang^3
#
#
#
# Elastic Constant Matrix: (Units=GPa)
#
#
# Indices 1 2 3 4 5 6 
#
# 1 72.4294 -9.1390 4.7992 0.0000 0.0000 0.0000
# 2 -9.1390 141.2460 42.4402 0.0000 0.0000 0.0000
# 3 4.7992 42.4402 88.4626 0.0000 0.0000 0.0000
# 4 0.0000 0.0000 0.0000 35.9415 0.0000 0.0000
# 5 0.0000 0.0000 0.0000 0.0000 0.8267 0.0000
# 6 0.0000 0.0000 0.0000 0.0000 0.0000 9.8684
#
#
#
# Elastic Compliance Matrix: (Units=1/GPa)
#
#
# Indices 1 2 3 4 5 6 
#
# 1 0.014067 0.001331 -0.001402 0.000000 0.000000 0.000000
# 2 0.001331 0.008398 -0.004101 0.000000 0.000000 0.000000
# 3 -0.001402 -0.004101 0.013348 0.000000 0.000000 0.000000
# 4 0.000000 0.000000 0.000000 0.027823 0.000000 0.000000
# 5 0.000000 0.000000 0.000000 0.000000 1.209674 0.000000
# 6 0.000000 0.000000 0.000000 0.000000 0.000000 0.101334
#
#
# Mechanical properties :
#
#
# Convention : Reuss Voigt Hill
#
# Bulk Modulus (GPa) = 36.40341 42.03767 39.22054
# Shear Modulus (GPa) = 3.59158 26.92981 15.26070
#
# Velocity S-wave (km/s) = 1.24905 3.42021 2.57468
# Velocity P-wave (km/s) = 4.23004 5.81873 5.08679
#
# Compressibility (1/GPa) = 0.02746995
#
# Stress axis : x y z
#
# Youngs Moduli (GPa) = 71.08615 119.07124 74.91809
#
# Poissons Ratio (x) = -0.15854 0.10503
# Poissons Ratio (y) = -0.09465 0.30727
# Poissons Ratio (z) = 0.09966 0.48835
#
# Static dielectric constant tensor:
#      x y z
#    x 1.895970 0.000000 0.000000 
#    y 0.000000 1.855730 0.000000 
#    z 0.000000 0.000000 1.846680 
# 
# From -- ./inp_files/23134.got.cif
#   From: 2010.05.17/outbox.cif.g08.bks.cpg/sg44_12_cif.got.tgz:23134.got - 2010.06.03 19:37:08.
