data_PCOD9373905
_publ_section_title
;
Structure prediction by ZEFSAII (Michael W. Deem and Ramdas Pophale) SiO2 
 PCOD9373905
Probable space group: I M M 2
;
_chemical_formula_sum "Si O2"
_cell_formula_units_Z 48
_cell_length_a 11.213665
_cell_length_b 7.263662
_cell_length_c 25.047951
_cell_angle_alpha 90.000000
_cell_angle_beta 90.000000
_cell_angle_gamma 90.000000
_cell_volume 2040.212526
_symmetry_space_group_name_H-M "I M M 2"
_symmetry_group_IT_number 44
_symmetry_cell_setting 'orthorhombic'
loop_
_space_group_symop_operation_xyz
x,y,z
-x,-y,z
-x,y,z
x,-y,z
1/2+x,1/2+y,1/2+z
1/2-x,1/2-y,1/2+z
1/2-x,1/2+y,1/2+z
1/2+x,1/2-y,1/2+z
loop_
_atom_site_type_symbol
_atom_site_label
_atom_site_fract_x
_atom_site_fract_y
_atom_site_fract_z
Si Si1 0.748769 0.778094 0.818600
Si Si2 0.133178 0.210628 0.426626
Si Si3 0.138770 0.275544 0.992400
Si Si4 0.368711 0.776560 0.711709
Si Si5 0.000000 0.775751 0.660348
Si Si6 0.752639 0.223511 0.605423
Si Si7 0.500000 0.724305 0.286959
O O1 0.659655 0.710505 0.863624
O O2 0.715465 0.718736 0.759098
O O3 0.885474 0.720368 0.821345
O O4 0.742118 0.000000 0.821004
O O5 0.256680 0.286694 0.451530
O O6 0.000000 0.289529 0.437252
O O7 0.127258 0.000000 0.446135
O O8 0.133864 0.500000 0.990403
O O9 0.000000 0.215496 0.985231
O O10 0.195114 0.220154 0.049596
O O11 0.500000 0.718561 0.725813
O O12 0.332449 0.717186 0.653386
O O13 0.364690 0.000000 0.710566
O O14 0.883651 0.719829 0.626270
O O15 0.000000 0.718839 0.723577
O O16 0.000000 0.000000 0.662555
O O17 0.756452 0.000000 0.603280
O O18 0.500000 0.500000 0.283986
#
# Coordination Sequence:
#
# PCOD9373905 Si02
#       7
#     8   8   8   8   4   8   4
#     4  10  19  32  51  74 101 132 167 206 248 297
#     4  10  22  37  51  71 100 133 170 212 254 295
#     4   9  18  31  46  65  93 131 169 203 244 297
#     4   9  15  23  39  65  94 121 151 194 245 292
#     4   9  14  22  38  65  99 131 155 188 245 300
#     4   9  15  23  39  63  94 125 155 194 243 295
#     4   9  16  28  45  73 107 133 161 202 249 296
#
# _framework density 23.526961
#
# number of rings (size 3 to 8) (size 9 to 14) (size 15 to 20)
#    0.000    2.667    1.667    1.000    2.333    3.000 
#    0.000    0.000    0.000    0.000    0.000    1.167 
#    0.000    2.667    0.000    0.000    0.000    0.000 
#
# Total GULP energy -133873.069382 kJ/mol
# GULP energy per Si atom -5578.044558 kJ/mol
# Density = 2.347341 g / cm^3
# Si number density = 23.526961 Si / 1000 Ang^3
#
#
#
# Elastic Constant Matrix: (Units=GPa)
#
#
# Indices 1 2 3 4 5 6 
#
# 1 167.6357 4.6644 26.4229 0.0000 0.0000 0.0000
# 2 4.6644 102.3993 -5.3233 0.0000 0.0000 0.0000
# 3 26.4229 -5.3233 78.6362 0.0000 0.0000 0.0000
# 4 0.0000 0.0000 0.0000 -17.3465 0.0000 0.0000
# 5 0.0000 0.0000 0.0000 0.0000 37.5221 0.0000
# 6 0.0000 0.0000 0.0000 0.0000 0.0000 -33.3163
#
#
#
# Elastic Compliance Matrix: (Units=1/GPa)
#
#
# Indices 1 2 3 4 5 6 
#
# 1 0.006315 -0.000399 -0.002149 0.000000 0.000000 0.000000
# 2 -0.000399 0.009825 0.000799 0.000000 0.000000 0.000000
# 3 -0.002149 0.000799 0.013493 0.000000 0.000000 0.000000
# 4 0.000000 0.000000 0.000000 -0.057649 0.000000 0.000000
# 5 0.000000 0.000000 0.000000 0.000000 0.026651 0.000000
# 6 0.000000 0.000000 0.000000 0.000000 0.000000 -0.030015
#
#
# Mechanical properties :
#
#
# Convention : Reuss Voigt Hill
#
# Bulk Modulus (GPa) = 38.26218 44.46657 41.36437
# Shear Modulus (GPa) = -260.83252 18.89901 -120.96676
#
# Velocity S-wave (km/s) = -10.54069 2.83731 -7.17829
# Velocity P-wave (km/s) = 11.48229 5.44749 7.14730
#
# Compressibility (1/GPa) = 0.02613547
#
# Stress axis : x y z
#
# Youngs Moduli (GPa) = 158.34914 101.77661 74.11252
#
# Poissons Ratio (x) = 0.04065 0.15927
# Poissons Ratio (y) = 0.06324 -0.05924
# Poissons Ratio (z) = 0.34030 -0.08135
#
# Static dielectric constant tensor:
#      x y z
#    x 1.912420 0.000000 0.000000 
#    y 0.000000 2.041270 0.000000 
#    z 0.000000 0.000000 1.817650 
# 
# From -- ./inp_files/23738.got.cif
#   From: 2010.05.17/outbox.cif.g08.bks.cpg/sg44_12_cif.got.tgz:23738.got - 2010.06.03 19:37:08.
