data_PCOD9373245
_publ_section_title
;
Structure prediction by ZEFSAII (Michael W. Deem and Ramdas Pophale) SiO2 
 PCOD9373245
Probable space group: I M M 2
;
_chemical_formula_sum "Si O2"
_cell_formula_units_Z 40
_cell_length_a 12.425560
_cell_length_b 11.644670
_cell_length_c 12.869532
_cell_angle_alpha 90.000000
_cell_angle_beta 90.000000
_cell_angle_gamma 90.000000
_cell_volume 1862.112478
_symmetry_space_group_name_H-M "I M M 2"
_symmetry_group_IT_number 44
_symmetry_cell_setting 'orthorhombic'
loop_
_space_group_symop_operation_xyz
x,y,z
-x,-y,z
-x,y,z
x,-y,z
1/2+x,1/2+y,1/2+z
1/2-x,1/2-y,1/2+z
1/2-x,1/2+y,1/2+z
1/2+x,1/2-y,1/2+z
loop_
_atom_site_type_symbol
_atom_site_label
_atom_site_fract_x
_atom_site_fract_y
_atom_site_fract_z
Si Si1 0.177553 0.625765 0.290730
Si Si2 0.621444 0.627396 0.135705
Si Si3 0.621444 0.872604 0.388353
Si Si4 0.250000 0.305267 0.512029
Si Si5 0.177553 0.874235 0.233328
O O1 0.128067 0.500000 0.266123
O O2 0.289808 0.629444 0.226207
O O3 0.205864 0.628719 0.412496
O O4 0.125457 0.750000 0.262029
O O5 0.500000 0.644226 0.174140
O O6 0.626876 0.500000 0.087504
O O7 0.655593 0.722594 0.053758
O O8 0.500000 0.855774 0.349919
O O9 0.655593 0.777406 0.470301
O O10 0.710192 0.870556 0.297851
O O11 0.626876 0.000000 0.436555
O O12 0.294135 0.371281 0.611562
O O13 0.128066 0.000000 0.257935
#
# Coordination Sequence:
#
# PCOD9373245 Si02
#       5
#     8   8   8   8   8
#     4   9  18  31  49  74 105 138 170 209 258 309
#     4   9  18  33  53  78 107 139 176 216 260 313
#     4   9  18  33  53  78 107 139 176 216 260 313
#     4  10  18  28  50  78 107 136 171 216 267 310
#     4   9  18  31  49  74 105 138 170 209 258 309
#
# _framework density 21.480978
#
# number of rings (size 3 to 8) (size 9 to 14) (size 15 to 20)
#    0.000    2.800    0.000    1.200    0.000    8.800 
#    0.000    0.000    0.000   21.600    0.000   11.200 
#    0.000    0.000    0.000    0.000    0.000    0.000 
#
# Total GULP energy -111421.585021 kJ/mol
# GULP energy per Si atom -5571.079251 kJ/mol
# Density = 2.143209 g / cm^3
# Si number density = 21.480978 Si / 1000 Ang^3
#
#
#
# Elastic Constant Matrix: (Units=GPa)
#
#
# Indices 1 2 3 4 5 6 
#
# 1 85.5831 17.9805 12.5483 0.0000 0.0000 0.0000
# 2 17.9805 202.7485 25.9734 0.0000 0.0000 0.0000
# 3 12.5483 25.9734 77.8897 0.0000 0.0000 0.0000
# 4 0.0000 0.0000 0.0000 -165.7984 0.0000 0.0000
# 5 0.0000 0.0000 0.0000 0.0000 -0.5594 0.0000
# 6 0.0000 0.0000 0.0000 0.0000 0.0000 -13.2095
#
#
#
# Elastic Compliance Matrix: (Units=1/GPa)
#
#
# Indices 1 2 3 4 5 6 
#
# 1 0.012109 -0.000861 -0.001664 0.000000 0.000000 0.000000
# 2 -0.000861 0.005214 -0.001600 0.000000 0.000000 0.000000
# 3 -0.001664 -0.001600 0.013640 0.000000 0.000000 0.000000
# 4 0.000000 0.000000 0.000000 -0.006031 0.000000 0.000000
# 5 0.000000 0.000000 0.000000 0.000000 -1.787695 0.000000
# 6 0.000000 0.000000 0.000000 0.000000 0.000000 -0.075703
#
#
# Mechanical properties :
#
#
# Convention : Reuss Voigt Hill
#
# Bulk Modulus (GPa) = 44.02532 53.24731 48.63632
# Shear Modulus (GPa) = -2.74326 -15.26553 -9.00440
#
# Velocity S-wave (km/s) = -1.13130 -2.66870 -2.04961
# Velocity P-wave (km/s) = 4.33971 3.91740 4.13395
#
# Compressibility (1/GPa) = 0.02271420
#
# Stress axis : x y z
#
# Youngs Moduli (GPa) = 82.58083 191.80950 73.31272
#
# Poissons Ratio (x) = 0.16510 0.12198
# Poissons Ratio (y) = 0.07108 0.11729
# Poissons Ratio (z) = 0.13740 0.30687
#
# Static dielectric constant tensor:
#      x y z
#    x 1.732080 0.000000 0.000000 
#    y 0.000000 1.873670 0.000000 
#    z 0.000000 0.000000 1.762680 
# 
# From -- ./inp_files/12985.got.cif
#   From: 2010.05.17/outbox.cif.g08.bks.cpg/sg44_7_cif.got.tgz:12985.got - 2010.06.03 19:37:08.
