data_PCOD9373784
_publ_section_title
;
Structure prediction by ZEFSAII (Michael W. Deem and Ramdas Pophale) SiO2 
 PCOD9373784
Probable space group: I M M 2
;
_chemical_formula_sum "Si O2"
_cell_formula_units_Z 64
_cell_length_a 7.589560
_cell_length_b 29.459992
_cell_length_c 13.466422
_cell_angle_alpha 90.000000
_cell_angle_beta 90.000000
_cell_angle_gamma 90.000000
_cell_volume 3010.935437
_symmetry_space_group_name_H-M "I M M 2"
_symmetry_group_IT_number 44
_symmetry_cell_setting 'orthorhombic'
loop_
_space_group_symop_operation_xyz
x,y,z
-x,-y,z
-x,y,z
x,-y,z
1/2+x,1/2+y,1/2+z
1/2-x,1/2-y,1/2+z
1/2-x,1/2+y,1/2+z
1/2+x,1/2-y,1/2+z
loop_
_atom_site_type_symbol
_atom_site_label
_atom_site_fract_x
_atom_site_fract_y
_atom_site_fract_z
Si Si1 0.714038 0.257752 0.771500
Si Si2 0.716612 0.121793 0.076956
Si Si3 0.209928 0.448786 0.412468
Si Si4 0.802293 0.301805 0.429846
Si Si5 0.291239 0.448390 0.192549
Si Si6 0.286443 0.222237 0.559331
Si Si7 0.211043 0.379112 0.016709
Si Si8 0.293433 0.137821 0.299172
O O1 0.500000 0.257844 0.778021
O O2 0.782338 0.211990 0.826261
O O3 0.760984 0.249076 0.658157
O O4 0.779495 0.307306 0.803850
O O5 0.500000 0.122983 0.081737
O O6 0.779765 0.123219 0.190964
O O7 0.772478 0.080245 0.006397
O O8 0.776352 0.165364 0.012222
O O9 0.282493 0.500000 0.412476
O O10 0.239580 0.429264 0.301504
O O11 0.000000 0.451300 0.423935
O O12 0.803883 0.251246 0.474303
O O13 0.000000 0.319402 0.411109
O O14 0.500000 0.451831 0.194769
O O15 0.217198 0.500000 0.184653
O O16 0.247465 0.417800 0.097451
O O17 0.500000 0.224104 0.546520
O O18 0.231451 0.170018 0.557590
O O19 0.000000 0.376874 0.008112
O O20 0.279350 0.382655 0.902652
O O21 0.500000 0.125904 0.296576
#
# Coordination Sequence:
#
# PCOD9373784 Si02
#       8
#     8   8   8   8   8   8   8   8
#     4  10  20  31  46  71 104 143 181 220 265 310
#     4   9  18  32  53  79 108 139 177 221 265 314
#     4   9  18  35  60  84 106 136 173 217 271 324
#     4  10  19  31  49  71 100 141 180 215 261 314
#     4  10  22  40  60  82 108 135 168 217 271 322
#     4  10  20  33  49  73 106 140 178 221 259 304
#     4  10  21  35  55  80 108 143 181 220 264 313
#     4  10  19  34  53  75 106 146 183 220 262 307
#
# _framework density 21.255852999999998
#
# number of rings (size 3 to 8) (size 9 to 14) (size 15 to 20)
#    0.000    2.250    2.500    0.375    1.750    1.750 
#    0.000    1.875    0.000    2.250    0.000    1.750 
#    0.000    0.000    0.000    0.000    0.000    0.000 
#
# Total GULP energy -178320.716299 kJ/mol
# GULP energy per Si atom -5572.522384 kJ/mol
# Density = 2.120747 g / cm^3
# Si number density = 21.255853 Si / 1000 Ang^3
#
#
#
# Elastic Constant Matrix: (Units=GPa)
#
#
# Indices 1 2 3 4 5 6 
#
# 1 42.1907 -3.5115 -3.6076 0.0000 0.0000 0.0000
# 2 -3.5115 75.7274 49.3466 0.0000 0.0000 0.0000
# 3 -3.6076 49.3466 136.5066 0.0000 0.0000 0.0000
# 4 0.0000 0.0000 0.0000 35.3612 0.0000 0.0000
# 5 0.0000 0.0000 0.0000 0.0000 2.3445 0.0000
# 6 0.0000 0.0000 0.0000 0.0000 0.0000 17.3381
#
#
#
# Elastic Compliance Matrix: (Units=1/GPa)
#
#
# Indices 1 2 3 4 5 6 
#
# 1 0.023803 0.000908 0.000301 0.000000 0.000000 0.000000
# 2 0.000908 0.017309 -0.006233 0.000000 0.000000 0.000000
# 3 0.000301 -0.006233 0.009587 0.000000 0.000000 0.000000
# 4 0.000000 0.000000 0.000000 0.028280 0.000000 0.000000
# 5 0.000000 0.000000 0.000000 0.000000 0.426526 0.000000
# 6 0.000000 0.000000 0.000000 0.000000 0.000000 0.057676
#
#
# Mechanical properties :
#
#
# Convention : Reuss Voigt Hill
#
# Bulk Modulus (GPa) = 24.60024 37.65330 31.12677
# Shear Modulus (GPa) = 8.52107 25.15526 16.83817
#
# Velocity S-wave (km/s) = 2.00437 3.44386 2.81760
# Velocity P-wave (km/s) = 4.11767 5.79365 5.02601
#
# Compressibility (1/GPa) = 0.04065001
#
# Stress axis : x y z
#
# Youngs Moduli (GPa) = 42.01120 57.77302 104.30920
#
# Poissons Ratio (x) = -0.05244 -0.03139
# Poissons Ratio (y) = -0.03813 0.65018
# Poissons Ratio (z) = -0.01264 0.36011
#
# Static dielectric constant tensor:
#      x y z
#    x 1.810870 0.000000 0.000000 
#    y 0.000000 1.769460 0.000000 
#    z 0.000000 0.000000 1.816300 
# 
# From -- ./inp_files/11489.got.cif
#   From: 2010.05.17/outbox.cif.g08.bks.cpg/sg44_6_cif.got.tgz:11489.got - 2010.06.03 19:37:08.
