data_PCOD9373731
_publ_section_title
;
Structure prediction by ZEFSAII (Michael W. Deem and Ramdas Pophale) SiO2 
 PCOD9373731
Probable space group: I M M 2
;
_chemical_formula_sum "Si O2"
_cell_formula_units_Z 64
_cell_length_a 8.889190
_cell_length_b 20.539212
_cell_length_c 17.270026
_cell_angle_alpha 90.000000
_cell_angle_beta 90.000000
_cell_angle_gamma 90.000000
_cell_volume 3153.108810
_symmetry_space_group_name_H-M "I M M 2"
_symmetry_group_IT_number 44
_symmetry_cell_setting 'orthorhombic'
loop_
_space_group_symop_operation_xyz
x,y,z
-x,-y,z
-x,y,z
x,-y,z
1/2+x,1/2+y,1/2+z
1/2-x,1/2-y,1/2+z
1/2-x,1/2+y,1/2+z
1/2+x,1/2-y,1/2+z
loop_
_atom_site_type_symbol
_atom_site_label
_atom_site_fract_x
_atom_site_fract_y
_atom_site_fract_z
Si Si1 0.824205 0.251145 0.975430
Si Si2 0.832008 0.576527 0.575827
Si Si3 0.334661 0.572906 0.013687
Si Si4 0.319665 0.576048 0.249210
Si Si5 0.171068 0.616623 0.876897
Si Si6 0.821062 0.376607 0.409292
Si Si7 0.825599 0.334413 0.118730
Si Si8 0.827511 0.078986 0.227496
O O1 0.818453 0.313000 0.917578
O O2 0.727194 0.195714 0.934942
O O3 0.000000 0.231490 0.980992
O O4 0.775630 0.273813 0.062842
O O5 0.845228 0.500000 0.590381
O O6 0.783364 0.584506 0.487625
O O7 0.718810 0.600485 0.641131
O O8 0.000000 0.605774 0.583903
O O9 0.500000 0.603665 0.026943
O O10 0.342967 0.500000 0.042431
O O11 0.292475 0.574573 0.923965
O O12 0.199593 0.608136 0.056527
O O13 0.500000 0.576702 0.244689
O O14 0.271591 0.500000 0.232629
O O15 0.263703 0.595793 0.334711
O O16 0.258915 0.633182 0.191726
O O17 0.218042 0.613249 0.788218
O O18 0.000000 0.592942 0.886089
O O19 0.000000 0.380713 0.395236
O O20 0.000000 0.324391 0.138112
O O21 0.000000 0.095742 0.243287
O O22 0.812759 0.000000 0.234548
#
# Coordination Sequence:
#
# PCOD9373731 Si02
#       8
#     8   8   8   8   8   8   8   8
#     4   9  21  41  60  82 117 158 201 247 295 354
#     4   9  19  37  59  83 112 145 184 233 289 350
#     4  10  19  30  48  77 113 151 191 238 295 357
#     4  11  24  41  64  95 129 164 203 254 315 371
#     4  10  20  34  53  77 109 152 197 241 288 342
#     4  11  23  40  64  91 117 154 201 248 302 361
#     4  10  21  38  60  86 118 158 202 250 301 358
#     4  10  20  33  52  82 116 148 187 236 289 345
#
# _framework density 20.297428
#
# number of rings (size 3 to 8) (size 9 to 14) (size 15 to 20)
#    0.000    2.000    0.000    4.125    0.000   10.250 
#    2.250    1.250    0.000    0.000    0.000    0.000 
#    0.000    0.000    0.000    0.000    0.000    0.000 
#
# Total GULP energy -178263.256019 kJ/mol
# GULP energy per Si atom -5570.726751 kJ/mol
# Density = 2.025123 g / cm^3
# Si number density = 20.297428 Si / 1000 Ang^3
#
#
#
# Elastic Constant Matrix: (Units=GPa)
#
#
# Indices 1 2 3 4 5 6 
#
# 1 54.1015 13.6147 35.2123 0.0000 0.0000 0.0000
# 2 13.6147 31.6560 7.5715 0.0000 0.0000 0.0000
# 3 35.2123 7.5715 110.3939 0.0000 0.0000 0.0000
# 4 0.0000 0.0000 0.0000 38.3227 0.0000 0.0000
# 5 0.0000 0.0000 0.0000 0.0000 23.8630 0.0000
# 6 0.0000 0.0000 0.0000 0.0000 0.0000 22.3315
#
#
#
# Elastic Compliance Matrix: (Units=1/GPa)
#
#
# Indices 1 2 3 4 5 6 
#
# 1 0.025746 -0.009261 -0.007577 0.000000 0.000000 0.000000
# 2 -0.009261 0.035447 0.000523 0.000000 0.000000 0.000000
# 3 -0.007577 0.000523 0.011439 0.000000 0.000000 0.000000
# 4 0.000000 0.000000 0.000000 0.026094 0.000000 0.000000
# 5 0.000000 0.000000 0.000000 0.000000 0.041906 0.000000
# 6 0.000000 0.000000 0.000000 0.000000 0.000000 0.044780
#
#
# Mechanical properties :
#
#
# Convention : Reuss Voigt Hill
#
# Bulk Modulus (GPa) = 24.99823 34.32762 29.66293
# Shear Modulus (GPa) = 21.60980 26.22029 23.91505
#
# Velocity S-wave (km/s) = 3.26645 3.59807 3.43626
# Velocity P-wave (km/s) = 5.15451 5.84897 5.51269
#
# Compressibility (1/GPa) = 0.04000283
#
# Stress axis : x y z
#
# Youngs Moduli (GPa) = 38.84142 28.21078 87.41678
#
# Poissons Ratio (x) = 0.26125 0.66235
# Poissons Ratio (y) = 0.35969 -0.04569
# Poissons Ratio (z) = 0.29430 -0.01474
#
# Static dielectric constant tensor:
#      x y z
#    x 1.721210 0.000000 0.000000 
#    y 0.000000 1.736760 0.000000 
#    z 0.000000 0.000000 1.744960 
# 
# From -- ./inp_files/16876.got.cif
#   From: 2010.05.17/outbox.cif.g08.bks.cpg/sg44_9_cif.got.tgz:16876.got - 2010.06.03 19:37:08.
