data_PCOD9373729
_publ_section_title
;
Structure prediction by ZEFSAII (Michael W. Deem and Ramdas Pophale) SiO2 
 PCOD9373729
Probable space group: I M M 2
;
_chemical_formula_sum "Si O2"
_cell_formula_units_Z 56
_cell_length_a 28.318732
_cell_length_b 7.831921
_cell_length_c 14.718199
_cell_angle_alpha 90.000000
_cell_angle_beta 90.000000
_cell_angle_gamma 90.000000
_cell_volume 3264.350414
_symmetry_space_group_name_H-M "I M M 2"
_symmetry_group_IT_number 44
_symmetry_cell_setting 'orthorhombic'
loop_
_space_group_symop_operation_xyz
x,y,z
-x,-y,z
-x,y,z
x,-y,z
1/2+x,1/2+y,1/2+z
1/2-x,1/2-y,1/2+z
1/2-x,1/2+y,1/2+z
1/2+x,1/2-y,1/2+z
loop_
_atom_site_type_symbol
_atom_site_label
_atom_site_fract_x
_atom_site_fract_y
_atom_site_fract_z
Si Si1 0.618883 0.299347 0.009500
Si Si2 0.056234 0.500000 0.590211
Si Si3 0.814283 0.806302 0.680557
Si Si4 0.714385 0.308136 0.666084
Si Si5 0.192914 0.791261 0.362153
Si Si6 0.443902 0.000000 0.309128
Si Si7 0.879715 0.192556 0.852945
Si Si8 0.289811 0.198807 0.460928
O O1 0.603782 0.500000 0.004912
O O2 0.660504 0.291281 0.084391
O O3 0.579644 0.167275 0.043962
O O4 0.645848 0.246361 0.917588
O O5 0.065449 0.500000 0.699461
O O6 0.000000 0.500000 0.577865
O O7 0.769881 0.686380 0.690277
O O8 0.853140 0.780954 0.757034
O O9 0.795976 0.000000 0.690062
O O10 0.696169 0.500000 0.652222
O O11 0.691744 0.233260 0.757609
O O12 0.712060 0.215522 0.569638
O O13 0.241253 0.734894 0.413811
O O14 0.194770 0.000000 0.361896
O O15 0.419650 0.835290 0.354662
O O16 0.500000 0.000000 0.320651
O O17 0.837125 0.213333 0.924373
O O18 0.898519 0.000000 0.856550
O O19 0.293601 0.000000 0.436033
#
# Coordination Sequence:
#
# PCOD9373729 Si02
#       8
#     8   4   8   8   8   4   8   8
#     4  10  20  37  55  76 111 153 187 228 281 329
#     4  11  24  38  58  87 111 143 195 238 281 343
#     4  10  19  30  48  76 111 148 188 225 269 327
#     4  11  21  31  48  77 113 152 196 232 267 323
#     4   9  19  33  50  73 110 154 192 229 272 332
#     4  11  24  40  60  85 115 149 189 240 291 337
#     4  11  22  37  57  81 111 153 193 228 280 338
#     4  11  20  34  52  77 115 152 189 231 275 332
#
# _framework density 17.155021999999999
#
# number of rings (size 3 to 8) (size 9 to 14) (size 15 to 20)
#    0.000    1.571    5.000    0.857    2.000    0.571 
#    3.857    1.429    0.000    0.000    0.000    2.000 
#    0.000    3.429    0.000    0.000    0.000    0.000 
#
# Total GULP energy -156180.479765 kJ/mol
# GULP energy per Si atom -5577.874277 kJ/mol
# Density = 1.711598 g / cm^3
# Si number density = 17.155022 Si / 1000 Ang^3
#
#
#
# Elastic Constant Matrix: (Units=GPa)
#
#
# Indices 1 2 3 4 5 6 
#
# 1 70.5921 44.3757 9.3103 0.0000 0.0000 0.0000
# 2 44.3757 70.3999 3.1864 0.0000 0.0000 0.0000
# 3 9.3103 3.1864 53.0038 0.0000 0.0000 0.0000
# 4 0.0000 0.0000 0.0000 20.0838 0.0000 0.0000
# 5 0.0000 0.0000 0.0000 0.0000 18.3207 0.0000
# 6 0.0000 0.0000 0.0000 0.0000 0.0000 9.3211
#
#
#
# Elastic Compliance Matrix: (Units=1/GPa)
#
#
# Indices 1 2 3 4 5 6 
#
# 1 0.024032 -0.014998 -0.003320 0.000000 0.000000 0.000000
# 2 -0.014998 0.023603 0.001215 0.000000 0.000000 0.000000
# 3 -0.003320 0.001215 0.019377 0.000000 0.000000 0.000000
# 4 0.000000 0.000000 0.000000 0.049791 0.000000 0.000000
# 5 0.000000 0.000000 0.000000 0.000000 0.054583 0.000000
# 6 0.000000 0.000000 0.000000 0.000000 0.000000 0.107283
#
#
# Mechanical properties :
#
#
# Convention : Reuss Voigt Hill
#
# Bulk Modulus (GPa) = 30.48077 34.19341 32.33709
# Shear Modulus (GPa) = 15.44120 18.68668 17.06394
#
# Velocity S-wave (km/s) = 3.00342 3.30401 3.15729
# Velocity P-wave (km/s) = 5.46203 5.87627 5.67293
#
# Compressibility (1/GPa) = 0.03280757
#
# Stress axis : x y z
#
# Youngs Moduli (GPa) = 41.61182 42.36710 51.60865
#
# Poissons Ratio (x) = 0.63541 0.17132
# Poissons Ratio (y) = 0.62409 -0.06273
# Poissons Ratio (z) = 0.13814 -0.05150
#
# Static dielectric constant tensor:
#      x y z
#    x 1.544090 0.000000 0.000000 
#    y 0.000000 1.618930 0.000000 
#    z 0.000000 0.000000 1.614260 
# 
# From -- ./inp_files/19266.got.cif
#   From: 2010.05.17/outbox.cif.g08.bks.cpg/sg44_10_cif.got.tgz:19266.got - 2010.06.03 19:37:08.
