data_PCOD9373878
_publ_section_title
;
Structure prediction by ZEFSAII (Michael W. Deem and Ramdas Pophale) SiO2 
 PCOD9373878
Probable space group: I M M 2
;
_chemical_formula_sum "Si O2"
_cell_formula_units_Z 40
_cell_length_a 7.352567
_cell_length_b 10.708916
_cell_length_c 23.633687
_cell_angle_alpha 90.000000
_cell_angle_beta 90.000000
_cell_angle_gamma 90.000000
_cell_volume 1860.869776
_symmetry_space_group_name_H-M "I M M 2"
_symmetry_group_IT_number 44
_symmetry_cell_setting 'orthorhombic'
loop_
_space_group_symop_operation_xyz
x,y,z
-x,-y,z
-x,y,z
x,-y,z
1/2+x,1/2+y,1/2+z
1/2-x,1/2-y,1/2+z
1/2-x,1/2+y,1/2+z
1/2+x,1/2-y,1/2+z
loop_
_atom_site_type_symbol
_atom_site_label
_atom_site_fract_x
_atom_site_fract_y
_atom_site_fract_z
Si Si1 0.284951 0.759045 0.326260
Si Si2 0.778152 0.500000 0.626317
Si Si3 0.722790 0.500000 0.274908
Si Si4 0.722719 0.000000 0.257361
Si Si5 0.221361 0.000000 0.644084
Si Si6 0.718275 0.356856 0.950167
Si Si7 0.277926 0.739966 0.071196
O O1 0.500000 0.756392 0.314980
O O2 0.214166 0.625845 0.305685
O O3 0.261037 0.785936 0.392410
O O4 0.214201 0.876716 0.290464
O O5 0.723053 0.500000 0.691953
O O6 0.719266 0.373382 0.595255
O O7 0.000000 0.500000 0.625882
O O8 0.500000 0.500000 0.275993
O O9 0.777291 0.500000 0.209265
O O10 0.500000 0.000000 0.258536
O O11 0.278391 0.124678 0.611033
O O12 0.000000 0.000000 0.643439
O O13 0.500000 0.363475 0.954084
O O14 0.785422 0.500000 0.947380
O O15 0.781475 0.289430 0.007271
O O16 0.500000 0.740815 0.071505
#
# Coordination Sequence:
#
# PCOD9373878 Si02
#       7
#     8   4   4   4   4   8   8
#     4  10  19  32  49  72  98 126 158 193 232 278
#     4   9  16  25  40  67  97 119 144 191 244 276
#     4   9  18  29  45  71 101 125 152 193 240 282
#     4   9  16  27  45  69  97 123 154 193 232 278
#     4   9  14  25  44  65  91 123 150 183 234 282
#     4  10  19  32  49  70  95 125 162 198 231 277
#     4   9  16  26  42  65  93 121 151 189 234 279
#
# _framework density 21.495324
#
# number of rings (size 3 to 8) (size 9 to 14) (size 15 to 20)
#    0.000    2.600    2.000    1.200    0.000    5.600 
#    0.000    1.500    0.000    0.000    0.000    8.400 
#    0.000    0.000    0.000    0.000    0.000    0.000 
#
# Total GULP energy -111765.200415 kJ/mol
# GULP energy per Si atom -5588.260021 kJ/mol
# Density = 2.144640 g / cm^3
# Si number density = 21.495324 Si / 1000 Ang^3
#
#
#
# Elastic Constant Matrix: (Units=GPa)
#
#
# Indices 1 2 3 4 5 6 
#
# 1 79.2198 9.7055 -4.4077 0.0000 0.0000 0.0000
# 2 9.7055 262.1762 168.2831 0.0000 0.0000 0.0000
# 3 -4.4077 168.2831 234.5054 0.0000 0.0000 0.0000
# 4 0.0000 0.0000 0.0000 -194.3106 0.0000 0.0000
# 5 0.0000 0.0000 0.0000 0.0000 15.9530 0.0000
# 6 0.0000 0.0000 0.0000 0.0000 0.0000 -10.8093
#
#
#
# Elastic Compliance Matrix: (Units=1/GPa)
#
#
# Indices 1 2 3 4 5 6 
#
# 1 0.012826 -0.001167 0.001079 0.000000 0.000000 0.000000
# 2 -0.001167 0.007178 -0.005173 0.000000 0.000000 0.000000
# 3 0.001079 -0.005173 0.007997 0.000000 0.000000 0.000000
# 4 0.000000 0.000000 0.000000 -0.005146 0.000000 0.000000
# 5 0.000000 0.000000 0.000000 0.000000 0.062684 0.000000
# 6 0.000000 0.000000 0.000000 0.000000 0.000000 -0.092513
#
#
# Mechanical properties :
#
#
# Convention : Reuss Voigt Hill
#
# Bulk Modulus (GPa) = 57.21513 102.56257 79.88885
# Shear Modulus (GPa) = 533.42130 -11.01202 261.20464
#
# Velocity S-wave (km/s) = 15.77009 -2.26586 11.03543
# Velocity P-wave (km/s) = 18.92801 6.40094 14.12872
#
# Compressibility (1/GPa) = 0.01747789
#
# Stress axis : x y z
#
# Youngs Moduli (GPa) = 77.96591 139.32227 125.05465
#
# Poissons Ratio (x) = 0.16261 -0.13489
# Poissons Ratio (y) = 0.09100 0.64686
# Poissons Ratio (z) = -0.08410 0.72066
#
# Static dielectric constant tensor:
#      x y z
#    x 1.862810 0.000000 0.000000 
#    y 0.000000 1.750000 0.000000 
#    z 0.000000 0.000000 1.718010 
# 
# From -- ./inp_files/22844.got.cif
#   From: 2010.05.17/outbox.cif.g08.bks.cpg/sg44_12_cif.got.tgz:22844.got - 2010.06.03 19:37:08.
