data_PCOD9373207
_publ_section_title
;
Structure prediction by ZEFSAII (Michael W. Deem and Ramdas Pophale) SiO2 
 PCOD9373207
Probable space group: I M M 2
;
_chemical_formula_sum "Si O2"
_cell_formula_units_Z 64
_cell_length_a 19.434987
_cell_length_b 7.903557
_cell_length_c 22.390608
_cell_angle_alpha 90.000000
_cell_angle_beta 90.000000
_cell_angle_gamma 90.000000
_cell_volume 3439.321154
_symmetry_space_group_name_H-M "I M M 2"
_symmetry_group_IT_number 44
_symmetry_cell_setting 'orthorhombic'
loop_
_space_group_symop_operation_xyz
x,y,z
-x,-y,z
-x,y,z
x,-y,z
1/2+x,1/2+y,1/2+z
1/2-x,1/2-y,1/2+z
1/2-x,1/2+y,1/2+z
1/2+x,1/2-y,1/2+z
loop_
_atom_site_type_symbol
_atom_site_label
_atom_site_fract_x
_atom_site_fract_y
_atom_site_fract_z
Si Si1 0.280593 0.204817 0.611910
Si Si2 0.577837 0.193278 0.121748
Si Si3 0.925022 0.702428 0.064502
Si Si4 0.421981 0.292414 0.306984
Si Si5 0.130202 0.204730 0.936755
Si Si6 0.816427 0.190161 0.709490
Si Si7 0.723592 0.798443 0.982853
Si Si8 0.925073 0.798866 0.485223
O O1 0.357716 0.268137 0.598901
O O2 0.247572 0.269925 0.673729
O O3 0.236827 0.246372 0.552085
O O4 0.281275 0.000000 0.615889
O O5 0.500000 0.222750 0.142117
O O6 0.628313 0.315646 0.155797
O O7 0.597643 0.000000 0.135331
O O8 0.578074 0.217051 0.050883
O O9 0.925725 0.500000 0.073032
O O10 0.000000 0.770199 0.081722
O O11 0.911510 0.736050 0.994592
O O12 0.500000 0.238058 0.291987
O O13 0.421835 0.500000 0.303704
O O14 0.402892 0.242288 0.374401
O O15 0.361310 0.231558 0.262861
O O16 0.209231 0.262885 0.946644
O O17 0.130128 0.000000 0.937299
O O18 0.796674 0.000000 0.728670
O O19 0.649400 0.742661 0.958144
O O20 0.724158 0.000000 0.981866
O O21 0.000000 0.747785 0.458464
O O22 0.926919 0.000000 0.492710
#
# Coordination Sequence:
#
# PCOD9373207 Si02
#       8
#     8   8   8   8   8   8   8   8
#     4   9  17  28  42  62  87 115 147 183 224 273
#     4  10  19  28  39  58  86 118 148 180 216 253
#     4   9  17  29  45  65  89 115 143 182 233 280
#     4   9  17  29  45  65  89 119 157 194 221 254
#     4   9  18  31  47  66  88 117 152 189 228 270
#     4  10  18  28  44  63  85 118 156 187 217 259
#     4  10  18  28  44  65  88 115 147 185 231 274
#     4  10  19  29  42  61  86 116 148 180 216 265
#
# _framework density 18.608324
#
# number of rings (size 3 to 8) (size 9 to 14) (size 15 to 20)
#    0.000    2.500    1.250    1.875    0.000    3.250 
#    0.000    0.625    0.000    2.250    0.000    0.875 
#    0.000    5.000    0.000    1.250    0.000    1.875 
#
# Total GULP energy -178238.277847 kJ/mol
# GULP energy per Si atom -5569.946183 kJ/mol
# Density = 1.856597 g / cm^3
# Si number density = 18.608324 Si / 1000 Ang^3
#
#
#
# Elastic Constant Matrix: (Units=GPa)
#
#
# Indices 1 2 3 4 5 6 
#
# 1 150.0128 12.1970 42.0831 0.0000 0.0000 0.0000
# 2 12.1970 21.6321 -1.6736 0.0000 0.0000 0.0000
# 3 42.0831 -1.6736 62.6206 0.0000 0.0000 0.0000
# 4 0.0000 0.0000 0.0000 11.1544 0.0000 0.0000
# 5 0.0000 0.0000 0.0000 0.0000 23.8497 0.0000
# 6 0.0000 0.0000 0.0000 0.0000 0.0000 -7.3789
#
#
#
# Elastic Compliance Matrix: (Units=1/GPa)
#
#
# Indices 1 2 3 4 5 6 
#
# 1 0.008810 -0.005437 -0.006066 0.000000 0.000000 0.000000
# 2 -0.005437 0.049678 0.004981 0.000000 0.000000 0.000000
# 3 -0.006066 0.004981 0.020179 0.000000 0.000000 0.000000
# 4 0.000000 0.000000 0.000000 0.089651 0.000000 0.000000
# 5 0.000000 0.000000 0.000000 0.000000 0.041929 0.000000
# 6 0.000000 0.000000 0.000000 0.000000 0.000000 -0.135522
#
#
# Mechanical properties :
#
#
# Convention : Reuss Voigt Hill
#
# Bulk Modulus (GPa) = 15.23819 37.71984 26.47902
# Shear Modulus (GPa) = 45.60279 17.63562 31.61920
#
# Velocity S-wave (km/s) = 4.95579 3.08186 4.12660
# Velocity P-wave (km/s) = 6.39947 5.74267 6.07994
#
# Compressibility (1/GPa) = 0.06562458
#
# Stress axis : x y z
#
# Youngs Moduli (GPa) = 113.51070 20.12953 49.55721
#
# Poissons Ratio (x) = 0.10944 0.30060
# Poissons Ratio (y) = 0.61711 -0.24686
# Poissons Ratio (z) = 0.68853 -0.10027
#
# Static dielectric constant tensor:
#      x y z
#    x 1.730050 0.000000 0.000000 
#    y 0.000000 1.683380 0.000000 
#    z 0.000000 0.000000 1.625730 
# 
# From -- ./inp_files/24466.got.cif
#   From: 2010.05.17/outbox.cif.g08.bks.cpg/sg44_13_cif.got.tgz:24466.got - 2010.06.03 19:37:08.
