data_PCOD9373151
_publ_section_title
;
Structure prediction by ZEFSAII (Michael W. Deem and Ramdas Pophale) SiO2 
 PCOD9373151
Probable space group: I M M 2
;
_chemical_formula_sum "Si O2"
_cell_formula_units_Z 64
_cell_length_a 26.989309
_cell_length_b 9.199372
_cell_length_c 18.857097
_cell_angle_alpha 90.000000
_cell_angle_beta 90.000000
_cell_angle_gamma 90.000000
_cell_volume 4681.928549
_symmetry_space_group_name_H-M "I M M 2"
_symmetry_group_IT_number 44
_symmetry_cell_setting 'orthorhombic'
loop_
_space_group_symop_operation_xyz
x,y,z
-x,-y,z
-x,y,z
x,-y,z
1/2+x,1/2+y,1/2+z
1/2-x,1/2-y,1/2+z
1/2-x,1/2+y,1/2+z
1/2+x,1/2-y,1/2+z
loop_
_atom_site_type_symbol
_atom_site_label
_atom_site_fract_x
_atom_site_fract_y
_atom_site_fract_z
Si Si1 0.260584 0.824195 0.109080
Si Si2 0.557138 0.174968 0.956130
Si Si3 0.651612 0.674304 0.195881
Si Si4 0.696272 0.666616 0.735722
Si Si5 0.253295 0.826263 0.943598
Si Si6 0.300370 0.167902 0.322624
Si Si7 0.853609 0.326258 0.358185
Si Si8 0.556792 0.673782 0.105493
O O1 0.307873 0.743181 0.142294
O O2 0.213072 0.784487 0.157549
O O3 0.267634 0.000000 0.116421
O O4 0.253476 0.790485 0.026638
O O5 0.500000 0.210460 0.938774
O O6 0.596190 0.222596 0.896658
O O7 0.561043 0.000000 0.963089
O O8 0.568934 0.246372 0.031848
O O9 0.657924 0.500000 0.198920
O O10 0.662217 0.744088 0.272536
O O11 0.597489 0.708661 0.164651
O O12 0.679597 0.500000 0.732415
O O13 0.748254 0.670690 0.779184
O O14 0.658146 0.758274 0.781946
O O15 0.212561 0.743094 0.897001
O O16 0.307141 0.791277 0.909817
O O17 0.246184 0.000000 0.936007
O O18 0.314940 0.000000 0.330562
O O19 0.855139 0.500000 0.351068
O O20 0.500000 0.711585 0.124764
O O21 0.558794 0.500000 0.093658
#
# Coordination Sequence:
#
# PCOD9373151 Si02
#       8
#     8   8   8   8   8   8   8   8
#     4   9  17  28  41  58  81 106 131 162 197 232
#     4   9  17  28  41  57  77 102 133 166 197 229
#     4  10  18  27  41  58  77 105 137 164 193 231
#     4   8  15  26  38  53  74 101 129 156 188 225
#     4   9  16  26  40  57  78 103 130 158 191 232
#     4   9  17  28  40  55  77 102 129 162 195 228
#     4   9  16  25  38  55  75 101 130 159 190 224
#     4   9  18  30  41  56  79 104 131 164 197 227
#
# _framework density 13.669581000000001
#
# number of rings (size 3 to 8) (size 9 to 14) (size 15 to 20)
#    0.000    3.000    0.000    2.250    0.000    6.000 
#    0.000    2.500    0.000    0.000    0.000    0.000 
#    0.000    1.000    0.000    4.750    0.000    2.750 
#
# Total GULP energy -178149.818640 kJ/mol
# GULP energy per Si atom -5567.181833 kJ/mol
# Density = 1.363847 g / cm^3
# Si number density = 13.669581 Si / 1000 Ang^3
#
#
#
# Elastic Constant Matrix: (Units=GPa)
#
#
# Indices 1 2 3 4 5 6 
#
# 1 69.2201 33.6991 46.8241 0.0000 0.0000 0.0000
# 2 33.6991 32.7184 39.3237 0.0000 0.0000 0.0000
# 3 46.8241 39.3237 100.2024 0.0000 0.0000 0.0000
# 4 0.0000 0.0000 0.0000 23.2083 0.0000 0.0000
# 5 0.0000 0.0000 0.0000 0.0000 25.9307 0.0000
# 6 0.0000 0.0000 0.0000 0.0000 0.0000 14.8874
#
#
#
# Elastic Compliance Matrix: (Units=1/GPa)
#
#
# Indices 1 2 3 4 5 6 
#
# 1 0.029624 -0.026260 -0.003538 0.000000 0.000000 0.000000
# 2 -0.026260 0.081129 -0.019567 0.000000 0.000000 0.000000
# 3 -0.003538 -0.019567 0.019312 0.000000 0.000000 0.000000
# 4 0.000000 0.000000 0.000000 0.043088 0.000000 0.000000
# 5 0.000000 0.000000 0.000000 0.000000 0.038564 0.000000
# 6 0.000000 0.000000 0.000000 0.000000 0.000000 0.067171
#
#
# Mechanical properties :
#
#
# Convention : Reuss Voigt Hill
#
# Bulk Modulus (GPa) = 31.91350 49.09274 40.50312
# Shear Modulus (GPa) = 12.88453 18.29157 15.58805
#
# Velocity S-wave (km/s) = 3.07346 3.66200 3.38056
# Velocity P-wave (km/s) = 5.99933 7.33977 6.70314
#
# Compressibility (1/GPa) = 0.03133471
#
# Stress axis : x y z
#
# Youngs Moduli (GPa) = 33.75607 12.32612 51.78190
#
# Poissons Ratio (x) = 0.32369 0.18318
# Poissons Ratio (y) = 0.88645 1.01321
# Poissons Ratio (z) = 0.11941 0.24118
#
# Static dielectric constant tensor:
#      x y z
#    x 1.439830 0.000000 0.000000 
#    y 0.000000 1.459430 0.000000 
#    z 0.000000 0.000000 1.443190 
# 
# From -- ./inp_files/20854.got.cif
#   From: 2010.05.17/outbox.cif.g08.bks.cpg/sg44_11_cif.got.tgz:20854.got - 2010.06.03 19:37:08.
