data_PCOD9373615
_publ_section_title
;
Structure prediction by ZEFSAII (Michael W. Deem and Ramdas Pophale) SiO2 
 PCOD9373615
Probable space group: I M M 2
;
_chemical_formula_sum "Si O2"
_cell_formula_units_Z 56
_cell_length_a 14.098195
_cell_length_b 8.968383
_cell_length_c 29.994757
_cell_angle_alpha 90.000000
_cell_angle_beta 90.000000
_cell_angle_gamma 90.000000
_cell_volume 3792.477457
_symmetry_space_group_name_H-M "I M M 2"
_symmetry_group_IT_number 44
_symmetry_cell_setting 'orthorhombic'
loop_
_space_group_symop_operation_xyz
x,y,z
-x,-y,z
-x,y,z
x,-y,z
1/2+x,1/2+y,1/2+z
1/2-x,1/2-y,1/2+z
1/2-x,1/2+y,1/2+z
1/2+x,1/2-y,1/2+z
loop_
_atom_site_type_symbol
_atom_site_label
_atom_site_fract_x
_atom_site_fract_y
_atom_site_fract_z
Si Si1 0.391474 0.179358 0.951240
Si Si2 0.390489 0.820563 0.407322
Si Si3 0.284036 0.178343 0.860040
Si Si4 0.888343 0.177722 0.276882
Si Si5 0.615127 0.827968 0.684820
Si Si6 0.890301 0.317967 0.086569
Si Si7 0.717590 0.179403 0.498261
O O1 0.500000 0.228058 0.956662
O O2 0.352569 0.217768 0.901861
O O3 0.318411 0.250497 0.985943
O O4 0.387935 0.000000 0.955018
O O5 0.500000 0.777004 0.401979
O O6 0.318399 0.743448 0.373214
O O7 0.352940 0.783839 0.457140
O O8 0.383911 0.000000 0.402492
O O9 0.327135 0.246548 0.815363
O O10 0.279930 0.000000 0.856766
O O11 0.857963 0.233159 0.227841
O O12 0.000000 0.218702 0.282563
O O13 0.881013 0.000000 0.279764
O O14 0.500000 0.828606 0.682904
O O15 0.644695 0.772100 0.635785
O O16 0.645413 0.000000 0.690683
O O17 0.891065 0.500000 0.087138
O O18 0.000000 0.271321 0.080309
O O19 0.826749 0.270035 0.045031
O O20 0.726085 0.000000 0.499407
#
# Coordination Sequence:
#
# PCOD9373615 Si02
#       7
#     8   8   8   8   8   8   8
#     4   9  18  31  43  57  82 114 144 175 211 249
#     4   9  17  29  44  63  89 117 142 172 210 249
#     4  10  19  30  45  63  83 111 147 180 210 249
#     4  10  19  29  42  62  88 114 140 174 215 257
#     4   8  14  25  41  60  83 112 142 169 202 248
#     4   8  13  23  41  64  88 113 140 169 202 244
#     4   9  16  26  43  66  87 110 143 176 205 241
#
# _framework density 14.766073
#
# number of rings (size 3 to 8) (size 9 to 14) (size 15 to 20)
#    0.000    3.000    0.000    2.571    0.000    4.286 
#    0.000    0.714    0.000    2.143    0.000    1.000 
#    0.000    5.714    0.000    0.000    0.000    0.000 
#
# Total GULP energy -155957.950886 kJ/mol
# GULP energy per Si atom -5569.926817 kJ/mol
# Density = 1.473246 g / cm^3
# Si number density = 14.766073 Si / 1000 Ang^3
#
#
#
# Elastic Constant Matrix: (Units=GPa)
#
#
# Indices 1 2 3 4 5 6 
#
# 1 112.3529 33.9931 72.4506 0.0000 0.0000 0.0000
# 2 33.9931 22.7774 38.8621 0.0000 0.0000 0.0000
# 3 72.4506 38.8621 141.3479 0.0000 0.0000 0.0000
# 4 0.0000 0.0000 0.0000 20.0508 0.0000 0.0000
# 5 0.0000 0.0000 0.0000 0.0000 24.7086 0.0000
# 6 0.0000 0.0000 0.0000 0.0000 0.0000 19.6987
#
#
#
# Elastic Compliance Matrix: (Units=1/GPa)
#
#
# Indices 1 2 3 4 5 6 
#
# 1 0.016996 -0.019780 -0.003273 0.000000 0.000000 0.000000
# 2 -0.019780 0.105715 -0.018927 0.000000 0.000000 0.000000
# 3 -0.003273 -0.018927 0.013956 0.000000 0.000000 0.000000
# 4 0.000000 0.000000 0.000000 0.049873 0.000000 0.000000
# 5 0.000000 0.000000 0.000000 0.000000 0.040472 0.000000
# 6 0.000000 0.000000 0.000000 0.000000 0.000000 0.050765
#
#
# Mechanical properties :
#
#
# Convention : Reuss Voigt Hill
#
# Bulk Modulus (GPa) = 18.97268 63.00997 40.99133
# Shear Modulus (GPa) = 13.18198 21.63643 17.40920
#
# Velocity S-wave (km/s) = 2.99108 3.83205 3.43738
# Velocity P-wave (km/s) = 4.98051 7.89584 6.60113
#
# Compressibility (1/GPa) = 0.05270736
#
# Stress axis : x y z
#
# Youngs Moduli (GPa) = 58.83798 9.45940 71.65277
#
# Poissons Ratio (x) = 0.18711 0.23454
# Poissons Ratio (y) = 1.16381 1.35615
# Poissons Ratio (z) = 0.19259 0.17903
#
# Static dielectric constant tensor:
#      x y z
#    x 1.466760 0.000000 0.000000 
#    y 0.000000 1.494640 0.000000 
#    z 0.000000 0.000000 1.490830 
# 
# From -- ./inp_files/27219.got.cif
#   From: 2010.05.17/outbox.cif.g08.bks.cpg/sg44_14_cif.got.tgz:27219.got - 2010.06.03 19:37:08.
