data_PCOD9373523
_publ_section_title
;
Structure prediction by ZEFSAII (Michael W. Deem and Ramdas Pophale) SiO2 
 PCOD9373523
Probable space group: I M M 2
;
_chemical_formula_sum "Si O2"
_cell_formula_units_Z 58
_cell_length_a 7.404999
_cell_length_b 18.844232
_cell_length_c 17.731453
_cell_angle_alpha 90.000000
_cell_angle_beta 90.000000
_cell_angle_gamma 90.000000
_cell_volume 2474.273888
_symmetry_space_group_name_H-M "I M M 2"
_symmetry_group_IT_number 44
_symmetry_cell_setting 'orthorhombic'
loop_
_space_group_symop_operation_xyz
x,y,z
-x,-y,z
-x,y,z
x,-y,z
1/2+x,1/2+y,1/2+z
1/2-x,1/2-y,1/2+z
1/2-x,1/2+y,1/2+z
1/2+x,1/2-y,1/2+z
loop_
_atom_site_type_symbol
_atom_site_label
_atom_site_fract_x
_atom_site_fract_y
_atom_site_fract_z
Si Si1 0.720663 0.333013 0.194900
Si Si2 0.716902 0.421825 0.515738
Si Si3 0.794711 0.891622 0.539886
Si Si4 0.779929 0.144206 0.861762
Si Si5 0.500000 0.000000 0.489214
Si Si6 0.285928 0.826825 0.157454
Si Si7 0.282132 0.799237 0.415867
Si Si8 0.279013 0.081104 0.297826
O O1 0.500000 0.330978 0.194975
O O2 0.771115 0.382600 0.125099
O O3 0.779103 0.363775 0.275369
O O4 0.783029 0.252155 0.177613
O O5 0.500000 0.424301 0.512846
O O6 0.781653 0.500000 0.540842
O O7 0.780342 0.405220 0.430619
O O8 0.758473 0.359263 0.574648
O O9 0.657252 0.939402 0.494375
O O10 0.788545 0.815534 0.498961
O O11 0.000000 0.917189 0.539140
O O12 0.726183 0.223798 0.884430
O O13 0.000000 0.140404 0.860650
O O14 0.500000 0.821809 0.169399
O O15 0.221790 0.885405 0.218051
O O16 0.500000 0.798231 0.417102
O O17 0.220928 0.862407 0.360687
O O18 0.500000 0.078987 0.301034
O O19 0.219419 0.000000 0.308773
#
# Coordination Sequence:
#
# PCOD9373523 Si02
#       8
#     8   8   8   8   2   8   8   8
#     4   9  18  36  61  91 120 151 206 264 311 374
#     4  10  21  35  53  80 116 158 203 250 304 369
#     4  11  24  41  66  94 125 167 217 266 320 381
#     4   9  17  34  60  88 118 160 210 254 314 385
#     4  12  26  48  64  90 132 172 210 268 324 390
#     4  10  18  34  59  85 117 154 197 251 309 376
#     4  10  18  33  60  88 123 162 207 258 318 387
#     4   9  17  27  49  83 117 160 204 243 300 378
#
# _framework density 23.441220999999999
#
# number of rings (size 3 to 8) (size 9 to 14) (size 15 to 20)
#    0.000    2.207    2.069    1.448    0.966    0.828 
#    2.483    0.690    3.034    0.828    0.000    0.000 
#    0.000    0.000    0.000    0.000    0.000    0.000 
#
# Total GULP energy -161802.674482 kJ/mol
# GULP energy per Si atom -5579.402568 kJ/mol
# Density = 2.338787 g / cm^3
# Si number density = 23.441221 Si / 1000 Ang^3
#
#
#
# Elastic Constant Matrix: (Units=GPa)
#
#
# Indices 1 2 3 4 5 6 
#
# 1 88.9707 5.3619 -7.4876 0.0000 0.0000 0.0000
# 2 5.3619 39.0764 -11.5582 0.0000 0.0000 0.0000
# 3 -7.4876 -11.5582 107.2315 0.0000 0.0000 0.0000
# 4 0.0000 0.0000 0.0000 9.2719 0.0000 0.0000
# 5 0.0000 0.0000 0.0000 0.0000 2.9980 0.0000
# 6 0.0000 0.0000 0.0000 0.0000 0.0000 60.8746
#
#
#
# Elastic Compliance Matrix: (Units=1/GPa)
#
#
# Indices 1 2 3 4 5 6 
#
# 1 0.011377 -0.001370 0.000647 0.000000 0.000000 0.000000
# 2 -0.001370 0.026599 0.002771 0.000000 0.000000 0.000000
# 3 0.000647 0.002771 0.009669 0.000000 0.000000 0.000000
# 4 0.000000 0.000000 0.000000 0.107853 0.000000 0.000000
# 5 0.000000 0.000000 0.000000 0.000000 0.333555 0.000000
# 6 0.000000 0.000000 0.000000 0.000000 0.000000 0.016427
#
#
# Mechanical properties :
#
#
# Convention : Reuss Voigt Hill
#
# Bulk Modulus (GPa) = 19.32689 23.10119 21.21404
# Shear Modulus (GPa) = 9.64077 31.22638 20.43357
#
# Velocity S-wave (km/s) = 2.03019 3.65377 2.95565
# Velocity P-wave (km/s) = 3.70922 5.26084 4.55163
#
# Compressibility (1/GPa) = 0.05174139
#
# Stress axis : x y z
#
# Youngs Moduli (GPa) = 87.89943 37.59600 103.41802
#
# Poissons Ratio (x) = 0.05150 -0.06689
# Poissons Ratio (y) = 0.12040 -0.28661
# Poissons Ratio (z) = -0.05685 -0.10419
#
# Static dielectric constant tensor:
#      x y z
#    x 1.902180 0.000000 0.000000 
#    y 0.000000 1.888380 0.000000 
#    z 0.000000 0.000000 1.902370 
# 
# From -- ./inp_files/20595.got.cif
#   From: 2010.05.17/outbox.cif.g08.bks.cpg/sg44_11_cif.got.tgz:20595.got - 2010.06.03 19:37:08.
