data_PCOD9373063
_publ_section_title
;
Structure prediction by ZEFSAII (Michael W. Deem and Ramdas Pophale) SiO2 
 PCOD9373063
Probable space group: I M M 2
;
_chemical_formula_sum "Si O2"
_cell_formula_units_Z 40
_cell_length_a 8.844071
_cell_length_b 11.068522
_cell_length_c 22.917747
_cell_angle_alpha 90.000000
_cell_angle_beta 90.000000
_cell_angle_gamma 90.000000
_cell_volume 2243.436460
_symmetry_space_group_name_H-M "I M M 2"
_symmetry_group_IT_number 44
_symmetry_cell_setting 'orthorhombic'
loop_
_space_group_symop_operation_xyz
x,y,z
-x,-y,z
-x,y,z
x,-y,z
1/2+x,1/2+y,1/2+z
1/2-x,1/2-y,1/2+z
1/2-x,1/2+y,1/2+z
1/2+x,1/2-y,1/2+z
loop_
_atom_site_type_symbol
_atom_site_label
_atom_site_fract_x
_atom_site_fract_y
_atom_site_fract_z
Si Si1 0.816780 0.500000 0.699680
Si Si2 0.665506 0.000000 0.511865
Si Si3 0.676904 0.500000 0.128656
Si Si4 0.672631 0.196640 0.410711
Si Si5 0.179934 0.000000 0.328275
Si Si6 0.815237 0.265758 0.624452
Si Si7 0.822096 0.642880 0.498101
O O1 0.747018 0.500000 0.763640
O O2 0.771545 0.378932 0.664553
O O3 0.000000 0.500000 0.703471
O O4 0.797255 0.000000 0.558765
O O5 0.672734 0.888474 0.467977
O O6 0.500000 0.000000 0.541692
O O7 0.500000 0.500000 0.143526
O O8 0.737577 0.367000 0.145878
O O9 0.500000 0.214159 0.391415
O O10 0.760920 0.119004 0.362639
O O11 0.744744 0.316186 0.437992
O O12 0.000000 0.000000 0.327904
O O13 0.765898 0.293466 0.557880
O O14 0.000000 0.263338 0.623418
O O15 0.806325 0.500000 0.507151
O O16 0.000000 0.672209 0.493062
#
# Coordination Sequence:
#
# PCOD9373063 Si02
#       7
#     4   4   4   8   4   8   8
#     4  10  19  37  58  77 109 151 189 232 280 332
#     4   9  17  27  42  70 104 133 163 209 264 318
#     4  10  17  27  48  77 105 139 182 219 261 325
#     4  10  20  34  52  78 109 141 180 226 284 339
#     4  11  23  39  60  82 102 137 194 246 285 333
#     4   9  17  29  51  81 111 146 186 226 273 331
#     4  10  18  30  51  82 116 150 186 226 278 336
#
# _framework density 17.829789000000002
#
# number of rings (size 3 to 8) (size 9 to 14) (size 15 to 20)
#    0.000    2.200    3.000    2.100    0.000    2.000 
#    0.000    2.000    2.200    0.000    0.000    0.000 
#    0.000    0.000    0.000    0.000    0.000    0.000 
#
# Total GULP energy -111371.021436 kJ/mol
# GULP energy per Si atom -5568.551072 kJ/mol
# Density = 1.778921 g / cm^3
# Si number density = 17.829789 Si / 1000 Ang^3
#
#
#
# Elastic Constant Matrix: (Units=GPa)
#
#
# Indices 1 2 3 4 5 6 
#
# 1 41.9279 30.5264 30.4043 0.0000 0.0000 0.0000
# 2 30.5264 102.4554 52.3919 0.0000 0.0000 0.0000
# 3 30.4043 52.3919 95.0823 0.0000 0.0000 0.0000
# 4 0.0000 0.0000 0.0000 22.0321 0.0000 0.0000
# 5 0.0000 0.0000 0.0000 0.0000 25.0130 0.0000
# 6 0.0000 0.0000 0.0000 0.0000 0.0000 15.8670
#
#
#
# Elastic Compliance Matrix: (Units=1/GPa)
#
#
# Indices 1 2 3 4 5 6 
#
# 1 0.033752 -0.006317 -0.007312 0.000000 0.000000 0.000000
# 2 -0.006317 0.014772 -0.006119 0.000000 0.000000 0.000000
# 3 -0.007312 -0.006119 0.016227 0.000000 0.000000 0.000000
# 4 0.000000 0.000000 0.000000 0.045388 0.000000 0.000000
# 5 0.000000 0.000000 0.000000 0.000000 0.039979 0.000000
# 6 0.000000 0.000000 0.000000 0.000000 0.000000 0.063024
#
#
# Mechanical properties :
#
#
# Convention : Reuss Voigt Hill
#
# Bulk Modulus (GPa) = 39.59789 51.79009 45.69399
# Shear Modulus (GPa) = 19.15282 20.99196 20.07239
#
# Velocity S-wave (km/s) = 3.28106 3.43498 3.35890
# Velocity P-wave (km/s) = 6.05069 6.69643 6.38173
#
# Compressibility (1/GPa) = 0.02525387
#
# Stress axis : x y z
#
# Youngs Moduli (GPa) = 29.62765 67.69631 61.62484
#
# Poissons Ratio (x) = 0.42766 0.45060
# Poissons Ratio (y) = 0.18717 0.37711
# Poissons Ratio (z) = 0.21663 0.41426
#
# Static dielectric constant tensor:
#      x y z
#    x 1.638050 0.000000 0.000000 
#    y 0.000000 1.687110 0.000000 
#    z 0.000000 0.000000 1.572320 
# 
# From -- ./inp_files/22833.got.cif
#   From: 2010.05.17/outbox.cif.g08.bks.cpg/sg44_12_cif.got.tgz:22833.got - 2010.06.03 19:37:08.
