data_PCOD9373284
_publ_section_title
;
Structure prediction by ZEFSAII (Michael W. Deem and Ramdas Pophale) SiO2 
 PCOD9373284
Probable space group: I M M 2
;
_chemical_formula_sum "Si O2"
_cell_formula_units_Z 48
_cell_length_a 23.139170
_cell_length_b 22.099860
_cell_length_c 5.232399
_cell_angle_alpha 90.000000
_cell_angle_beta 90.000000
_cell_angle_gamma 90.000000
_cell_volume 2675.704526
_symmetry_space_group_name_H-M "I M M 2"
_symmetry_group_IT_number 44
_symmetry_cell_setting 'orthorhombic'
loop_
_space_group_symop_operation_xyz
x,y,z
-x,-y,z
-x,y,z
x,-y,z
1/2+x,1/2+y,1/2+z
1/2-x,1/2-y,1/2+z
1/2-x,1/2+y,1/2+z
1/2+x,1/2-y,1/2+z
loop_
_atom_site_type_symbol
_atom_site_label
_atom_site_fract_x
_atom_site_fract_y
_atom_site_fract_z
Si Si1 0.437311 0.642741 0.734080
Si Si2 0.692027 0.195294 0.169667
Si Si3 0.906531 0.927113 0.739529
Si Si4 0.223211 0.930447 0.790009
Si Si5 0.826187 0.771744 0.170095
Si Si6 0.293409 0.929996 0.304859
O O1 0.500000 0.674615 0.733939
O O2 0.435192 0.597563 0.494593
O O3 0.381342 0.685600 0.712391
O O4 0.432115 0.603026 0.988908
O O5 0.762861 0.196044 0.180377
O O6 0.671274 0.238642 0.397107
O O7 0.669224 0.126994 0.210899
O O8 0.675400 0.223082 0.898513
O O9 0.839899 0.903959 0.758373
O O10 0.908921 0.000000 0.728941
O O11 0.268551 0.908282 0.579286
O O12 0.216474 0.000000 0.708455
O O13 0.245056 0.931702 0.079966
O O14 0.315304 0.000000 0.323137
#
# Coordination Sequence:
#
# PCOD9373284 Si02
#       6
#     8   8   8   8   8   8
#     4  12  25  39  54  72 101 136 174 221 258 296
#     4  10  19  33  54  75 100 131 164 211 251 299
#     4  11  22  36  54  74  98 134 179 221 258 289
#     4   9  17  28  45  70 101 134 164 200 245 297
#     4  10  21  35  52  74  99 133 175 206 247 299
#     4  10  18  29  48  77 108 133 162 203 260 314
#
# _framework density 17.939202000000002
#
# number of rings (size 3 to 8) (size 9 to 14) (size 15 to 20)
#    0.000    1.667    0.000    6.000    0.000    7.333 
#    0.000    0.000    0.000    0.000    0.000    0.000 
#    0.000    4.000    0.000    0.000    0.000    0.000 
#
# Total GULP energy -133821.195368 kJ/mol
# GULP energy per Si atom -5575.883140 kJ/mol
# Density = 1.789837 g / cm^3
# Si number density = 17.939202 Si / 1000 Ang^3
#
#
#
# Elastic Constant Matrix: (Units=GPa)
#
#
# Indices 1 2 3 4 5 6 
#
# 1 63.1379 20.8265 12.2621 0.0000 0.0000 0.0000
# 2 20.8265 81.0736 6.8084 0.0000 0.0000 0.0000
# 3 12.2621 6.8084 84.9889 0.0000 0.0000 0.0000
# 4 0.0000 0.0000 0.0000 22.2147 0.0000 0.0000
# 5 0.0000 0.0000 0.0000 0.0000 24.4865 0.0000
# 6 0.0000 0.0000 0.0000 0.0000 0.0000 13.3613
#
#
#
# Elastic Compliance Matrix: (Units=1/GPa)
#
#
# Indices 1 2 3 4 5 6 
#
# 1 0.017706 -0.004363 -0.002205 0.000000 0.000000 0.000000
# 2 -0.004363 0.013493 -0.000451 0.000000 0.000000 0.000000
# 3 -0.002205 -0.000451 0.012121 0.000000 0.000000 0.000000
# 4 0.000000 0.000000 0.000000 0.045015 0.000000 0.000000
# 5 0.000000 0.000000 0.000000 0.000000 0.040839 0.000000
# 6 0.000000 0.000000 0.000000 0.000000 0.000000 0.074843
#
#
# Mechanical properties :
#
#
# Convention : Reuss Voigt Hill
#
# Bulk Modulus (GPa) = 34.15266 34.33273 34.24269
# Shear Modulus (GPa) = 21.94753 24.63272 23.29012
#
# Velocity S-wave (km/s) = 3.50156 3.70959 3.60708
# Velocity P-wave (km/s) = 5.95208 6.12601 6.03967
#
# Compressibility (1/GPa) = 0.02928030
#
# Stress axis : x y z
#
# Youngs Moduli (GPa) = 56.47862 74.11129 82.50453
#
# Poissons Ratio (x) = 0.32336 0.18193
# Poissons Ratio (y) = 0.24643 0.03724
# Poissons Ratio (z) = 0.12454 0.03346
#
# Static dielectric constant tensor:
#      x y z
#    x 1.618870 0.000000 0.000000 
#    y 0.000000 1.665280 0.000000 
#    z 0.000000 0.000000 1.625640 
# 
# From -- ./inp_files/2387.got.cif
#   From: 2010.05.17/outbox.cif.g08.bks.cpg/sg44_2_cif.got.tgz:2387.got - 2010.06.03 19:37:08.
