data_PCOD9373049
_publ_section_title
;
Structure prediction by ZEFSAII (Michael W. Deem and Ramdas Pophale) SiO2 
 PCOD9373049
Probable space group: I M M 2
;
_chemical_formula_sum "Si O2"
_cell_formula_units_Z 64
_cell_length_a 15.164508
_cell_length_b 7.643097
_cell_length_c 28.967924
_cell_angle_alpha 90.000000
_cell_angle_beta 90.000000
_cell_angle_gamma 90.000000
_cell_volume 3357.492632
_symmetry_space_group_name_H-M "I M M 2"
_symmetry_group_IT_number 44
_symmetry_cell_setting 'orthorhombic'
loop_
_space_group_symop_operation_xyz
x,y,z
-x,-y,z
-x,y,z
x,-y,z
1/2+x,1/2+y,1/2+z
1/2-x,1/2-y,1/2+z
1/2-x,1/2+y,1/2+z
1/2+x,1/2-y,1/2+z
loop_
_atom_site_type_symbol
_atom_site_label
_atom_site_fract_x
_atom_site_fract_y
_atom_site_fract_z
Si Si1 0.401390 0.708853 0.151730
Si Si2 0.602475 0.288623 0.255579
Si Si3 0.598484 0.790294 0.525361
Si Si4 0.223835 0.206293 0.109093
Si Si5 0.100037 0.285870 0.920173
Si Si6 0.100509 0.786568 0.190158
Si Si7 0.226217 0.705023 0.840598
Si Si8 0.900049 0.214120 0.295547
O O1 0.500000 0.775021 0.140870
O O2 0.407779 0.500000 0.155824
O O3 0.375684 0.772265 0.203376
O O4 0.325451 0.744250 0.115061
O O5 0.500000 0.241043 0.264369
O O6 0.607975 0.500000 0.256906
O O7 0.666732 0.218362 0.294641
O O8 0.500000 0.726134 0.539240
O O9 0.673437 0.747893 0.562022
O O10 0.616506 0.730147 0.472985
O O11 0.593484 0.000000 0.523326
O O12 0.168128 0.281881 0.152188
O O13 0.220551 0.000000 0.114243
O O14 0.101167 0.500000 0.919439
O O15 0.170721 0.220445 0.883246
O O16 0.000000 0.234023 0.907522
O O17 0.119578 0.732123 0.242664
O O18 0.000000 0.735372 0.178739
O O19 0.102284 0.000000 0.190123
O O20 0.239119 0.500000 0.850883
O O21 0.322408 0.778374 0.828568
O O22 0.000000 0.267651 0.306930
O O23 0.899044 0.000000 0.295796
#
# Coordination Sequence:
#
# PCOD9373049 Si02
#       8
#     8   8   8   8   8   8   8   8
#     4   9  19  35  50  64  90 129 164 190 223 276
#     4   9  18  31  45  65  96 128 153 183 228 278
#     4   9  18  33  50  66  90 126 160 188 229 290
#     4  11  20  29  47  73  95 116 150 198 245 282
#     4   8  15  28  45  66  91 118 151 193 237 278
#     4   8  14  24  37  58  92 125 145 169 216 275
#     4  10  17  26  46  71  91 118 159 201 236 270
#     4   8  14  24  38  60  91 121 146 177 220 265
#
# _framework density 19.061844000000001
#
# number of rings (size 3 to 8) (size 9 to 14) (size 15 to 20)
#    0.000    3.000    0.000    4.125    0.000    3.250 
#    0.000    1.875    0.000    1.875    0.000    7.000 
#    0.000    0.000    0.000    0.000    0.000    0.000 
#
# Total GULP energy -178467.560213 kJ/mol
# GULP energy per Si atom -5577.111257 kJ/mol
# Density = 1.901846 g / cm^3
# Si number density = 19.061844 Si / 1000 Ang^3
#
#
#
# Elastic Constant Matrix: (Units=GPa)
#
#
# Indices 1 2 3 4 5 6 
#
# 1 144.6951 2.6918 104.5169 0.0000 0.0000 0.0000
# 2 2.6918 35.4719 3.2062 0.0000 0.0000 0.0000
# 3 104.5169 3.2062 103.6819 0.0000 0.0000 0.0000
# 4 0.0000 0.0000 0.0000 12.6288 0.0000 0.0000
# 5 0.0000 0.0000 0.0000 0.0000 36.0260 0.0000
# 6 0.0000 0.0000 0.0000 0.0000 0.0000 6.1182
#
#
#
# Elastic Compliance Matrix: (Units=1/GPa)
#
#
# Indices 1 2 3 4 5 6 
#
# 1 0.025427 0.000388 -0.025644 0.000000 0.000000 0.000000
# 2 0.000388 0.028276 -0.001266 0.000000 0.000000 0.000000
# 3 -0.025644 -0.001266 0.035534 0.000000 0.000000 0.000000
# 4 0.000000 0.000000 0.000000 0.079184 0.000000 0.000000
# 5 0.000000 0.000000 0.000000 0.000000 0.027758 0.000000
# 6 0.000000 0.000000 0.000000 0.000000 0.000000 0.163446
#
#
# Mechanical properties :
#
#
# Convention : Reuss Voigt Hill
#
# Bulk Modulus (GPa) = 27.62812 56.07540 41.85176
# Shear Modulus (GPa) = 11.77212 22.51687 17.14449
#
# Velocity S-wave (km/s) = 2.48780 3.44067 3.00228
# Velocity P-wave (km/s) = 4.77259 6.72798 5.83281
#
# Compressibility (1/GPa) = 0.03619500
#
# Stress axis : x y z
#
# Youngs Moduli (GPa) = 39.32830 35.36531 28.14182
#
# Poissons Ratio (x) = -0.01373 0.72166
# Poissons Ratio (y) = -0.01527 0.03562
# Poissons Ratio (z) = 1.00853 0.04477
#
# Static dielectric constant tensor:
#      x y z
#    x 1.534120 0.000000 0.000000 
#    y 0.000000 1.715020 0.000000 
#    z 0.000000 0.000000 1.658130 
# 
# From -- ./inp_files/27509.got.cif
#   From: 2010.05.17/outbox.cif.g08.bks.cpg/sg44_14_cif.got.tgz:27509.got - 2010.06.03 19:37:08.
