data_PCOD9373417
_publ_section_title
;
Structure prediction by ZEFSAII (Michael W. Deem and Ramdas Pophale) SiO2 
 PCOD9373417
Probable space group: I M M 2
;
_chemical_formula_sum "Si O2"
_cell_formula_units_Z 64
_cell_length_a 21.665466
_cell_length_b 7.900071
_cell_length_c 20.121360
_cell_angle_alpha 90.000000
_cell_angle_beta 90.000000
_cell_angle_gamma 90.000000
_cell_volume 3443.946215
_symmetry_space_group_name_H-M "I M M 2"
_symmetry_group_IT_number 44
_symmetry_cell_setting 'orthorhombic'
loop_
_space_group_symop_operation_xyz
x,y,z
-x,-y,z
-x,y,z
x,-y,z
1/2+x,1/2+y,1/2+z
1/2-x,1/2-y,1/2+z
1/2-x,1/2+y,1/2+z
1/2+x,1/2-y,1/2+z
loop_
_atom_site_type_symbol
_atom_site_label
_atom_site_fract_x
_atom_site_fract_y
_atom_site_fract_z
Si Si1 0.762070 0.795195 0.024730
Si Si2 0.688351 0.292336 0.385624
Si Si3 0.881568 0.801403 0.523737
Si Si4 0.567448 0.700715 0.310033
Si Si5 0.932348 0.699588 0.385340
Si Si6 0.811962 0.701799 0.311141
Si Si7 0.878335 0.298293 0.672959
Si Si8 0.764336 0.795566 0.172298
O O1 0.691301 0.738299 0.015392
O O2 0.783072 0.740101 0.098100
O O3 0.760577 0.000000 0.024799
O O4 0.802642 0.741164 0.962146
O O5 0.687927 0.500000 0.383211
O O6 0.625895 0.230546 0.350917
O O7 0.749242 0.233519 0.345880
O O8 0.917431 0.715555 0.463447
O O9 0.898551 0.744936 0.598212
O O10 0.891605 0.000000 0.518161
O O11 0.500000 0.772694 0.326205
O O12 0.565531 0.500000 0.323368
O O13 0.581506 0.723870 0.232095
O O14 0.934997 0.500000 0.369456
O O15 0.874031 0.772016 0.344760
O O16 0.000000 0.773400 0.371055
O O17 0.812041 0.500000 0.322847
O O18 0.805326 0.733326 0.232963
O O19 0.878542 0.500000 0.679713
O O20 0.807059 0.238690 0.681422
O O21 0.764262 0.000000 0.173644
#
# Coordination Sequence:
#
# PCOD9373417 Si02
#       8
#     8   8   8   8   8   8   8   8
#     4   9  17  33  53  74 102 135 171 206 247 297
#     4   9  16  30  53  75  98 130 168 208 247 293
#     4  11  21  32  50  76 105 133 166 208 254 296
#     4  10  20  33  50  75 104 133 167 210 255 293
#     4  10  21  37  54  72  97 133 173 208 247 301
#     4  10  18  31  54  76  97 129 167 205 249 297
#     4  10  20  34  51  71 101 140 176 203 240 297
#     4   9  18  30  49  76 102 128 162 208 251 292
#
# _framework density 18.583333
#
# number of rings (size 3 to 8) (size 9 to 14) (size 15 to 20)
#    0.000    2.250    2.500    2.250    0.000    3.500 
#    0.000    0.625    0.000    0.750    0.000    1.750 
#    0.000    0.000    0.000    0.000    0.000    0.000 
#
# Total GULP energy -178536.007001 kJ/mol
# GULP energy per Si atom -5579.250219 kJ/mol
# Density = 1.854104 g / cm^3
# Si number density = 18.583333 Si / 1000 Ang^3
#
#
#
# Elastic Constant Matrix: (Units=GPa)
#
#
# Indices 1 2 3 4 5 6 
#
# 1 139.9973 8.4705 76.5561 0.0000 0.0000 0.0000
# 2 8.4705 16.7787 -4.2388 0.0000 0.0000 0.0000
# 3 76.5561 -4.2388 100.8514 0.0000 0.0000 0.0000
# 4 0.0000 0.0000 0.0000 21.6777 0.0000 0.0000
# 5 0.0000 0.0000 0.0000 0.0000 -18.0994 0.0000
# 6 0.0000 0.0000 0.0000 0.0000 0.0000 3.3582
#
#
#
# Elastic Compliance Matrix: (Units=1/GPa)
#
#
# Indices 1 2 3 4 5 6 
#
# 1 0.013577 -0.009559 -0.010708 0.000000 0.000000 0.000000
# 2 -0.009559 0.066969 0.010071 0.000000 0.000000 0.000000
# 3 -0.010708 0.010071 0.018467 0.000000 0.000000 0.000000
# 4 0.000000 0.000000 0.000000 0.046130 0.000000 0.000000
# 5 0.000000 0.000000 0.000000 0.000000 -0.055250 0.000000
# 6 0.000000 0.000000 0.000000 0.000000 0.000000 0.297778
#
#
# Mechanical properties :
#
#
# Convention : Reuss Voigt Hill
#
# Bulk Modulus (GPa) = 12.71918 46.57811 29.64865
# Shear Modulus (GPa) = 11.51356 13.17659 12.34507
#
# Velocity S-wave (km/s) = 2.49180 2.66570 2.58022
# Velocity P-wave (km/s) = 3.89076 5.88162 4.98656
#
# Compressibility (1/GPa) = 0.07862143
#
# Stress axis : x y z
#
# Youngs Moduli (GPa) = 73.65434 14.93217 54.14984
#
# Poissons Ratio (x) = 0.14274 0.57984
# Poissons Ratio (y) = 0.70408 -0.54535
# Poissons Ratio (z) = 0.78869 -0.15038
#
# Static dielectric constant tensor:
#      x y z
#    x 1.653090 0.000000 0.000000 
#    y 0.000000 1.660550 0.000000 
#    z 0.000000 0.000000 1.645560 
# 
# From -- ./inp_files/22278.got.cif
#   From: 2010.05.17/outbox.cif.g08.bks.cpg/sg44_12_cif.got.tgz:22278.got - 2010.06.03 19:37:08.
