data_PCOD9373693
_publ_section_title
;
Structure prediction by ZEFSAII (Michael W. Deem and Ramdas Pophale) SiO2 
 PCOD9373693
Probable space group: I M M 2
;
_chemical_formula_sum "Si O2"
_cell_formula_units_Z 64
_cell_length_a 31.529630
_cell_length_b 7.864018
_cell_length_c 15.116435
_cell_angle_alpha 90.000000
_cell_angle_beta 90.000000
_cell_angle_gamma 90.000000
_cell_volume 3748.113677
_symmetry_space_group_name_H-M "I M M 2"
_symmetry_group_IT_number 44
_symmetry_cell_setting 'orthorhombic'
loop_
_space_group_symop_operation_xyz
x,y,z
-x,-y,z
-x,y,z
x,-y,z
1/2+x,1/2+y,1/2+z
1/2-x,1/2-y,1/2+z
1/2-x,1/2+y,1/2+z
1/2+x,1/2-y,1/2+z
loop_
_atom_site_type_symbol
_atom_site_label
_atom_site_fract_x
_atom_site_fract_y
_atom_site_fract_z
Si Si1 0.323361 0.707294 0.851830
Si Si2 0.726322 0.794756 0.346386
Si Si3 0.793508 0.796052 0.041782
Si Si4 0.367817 0.297389 0.028868
Si Si5 0.547909 0.797454 0.949255
Si Si6 0.367239 0.707977 0.669130
Si Si7 0.452446 0.703188 0.747571
Si Si8 0.209534 0.296539 0.649069
O O1 0.323972 0.500000 0.853740
O O2 0.274965 0.762333 0.854959
O O3 0.344408 0.757455 0.760353
O O4 0.347922 0.770892 0.937300
O O5 0.704780 0.742644 0.437928
O O6 0.710688 0.733081 0.250413
O O7 0.725642 0.000000 0.344078
O O8 0.835875 0.733547 0.091686
O O9 0.749769 0.732233 0.089693
O O10 0.792627 0.000000 0.051865
O O11 0.365619 0.500000 0.027910
O O12 0.335765 0.238766 0.104653
O O13 0.417126 0.249825 0.022029
O O14 0.500000 0.735501 0.968389
O O15 0.559555 0.730753 0.850867
O O16 0.546805 0.000000 0.942785
O O17 0.368450 0.500000 0.665313
O O18 0.415683 0.767335 0.682140
O O19 0.500000 0.773657 0.735070
O O20 0.454562 0.500000 0.735687
O O21 0.214864 0.500000 0.652692
#
# Coordination Sequence:
#
# PCOD9373693 Si02
#       8
#     8   8   8   8   8   8   8   8
#     4   9  15  25  44  67  91 123 156 187 230 276
#     4  10  19  33  48  64  94 130 161 195 237 285
#     4  10  19  30  47  68  91 123 162 199 236 283
#     4  11  20  31  50  71  94 126 163 201 235 279
#     4  10  20  32  46  68 100 130 155 190 236 285
#     4   9  15  27  45  66  93 125 157 190 235 284
#     4   9  16  27  46  70  94 124 163 199 233 281
#     4  10  20  32  47  67  93 126 160 196 241 290
#
# _framework density 17.075254999999999
#
# number of rings (size 3 to 8) (size 9 to 14) (size 15 to 20)
#    0.000    2.250    3.750    0.750    0.000    1.250 
#    0.000    0.625    0.000    0.000    0.000    0.875 
#    0.000    3.000    0.000    0.000    0.000    0.000 
#
# Total GULP energy -178329.003504 kJ/mol
# GULP energy per Si atom -5572.781359 kJ/mol
# Density = 1.703639 g / cm^3
# Si number density = 17.075255 Si / 1000 Ang^3
#
#
#
# Elastic Constant Matrix: (Units=GPa)
#
#
# Indices 1 2 3 4 5 6 
#
# 1 127.1149 4.0785 66.4395 0.0000 0.0000 0.0000
# 2 4.0785 20.3720 5.2001 0.0000 0.0000 0.0000
# 3 66.4395 5.2001 108.3780 0.0000 0.0000 0.0000
# 4 0.0000 0.0000 0.0000 17.5334 0.0000 0.0000
# 5 0.0000 0.0000 0.0000 0.0000 21.1325 0.0000
# 6 0.0000 0.0000 0.0000 0.0000 0.0000 11.6681
#
#
#
# Elastic Compliance Matrix: (Units=1/GPa)
#
#
# Indices 1 2 3 4 5 6 
#
# 1 0.011581 -0.000513 -0.007075 0.000000 0.000000 0.000000
# 2 -0.000513 0.049718 -0.002071 0.000000 0.000000 0.000000
# 3 -0.007075 -0.002071 0.013664 0.000000 0.000000 0.000000
# 4 0.000000 0.000000 0.000000 0.057034 0.000000 0.000000
# 5 0.000000 0.000000 0.000000 0.000000 0.047320 0.000000
# 6 0.000000 0.000000 0.000000 0.000000 0.000000 0.085704
#
#
# Mechanical properties :
#
#
# Convention : Reuss Voigt Hill
#
# Bulk Modulus (GPa) = 17.97099 45.25569 31.61334
# Shear Modulus (GPa) = 16.50772 22.07657 19.29214
#
# Velocity S-wave (km/s) = 3.11265 3.59959 3.36494
# Velocity P-wave (km/s) = 4.84413 6.62097 5.80099
#
# Compressibility (1/GPa) = 0.05564523
#
# Stress axis : x y z
#
# Youngs Moduli (GPa) = 86.34570 20.11328 73.18672
#
# Poissons Ratio (x) = 0.01031 0.51781
# Poissons Ratio (y) = 0.04426 0.15159
# Poissons Ratio (z) = 0.61091 0.04166
#
# Static dielectric constant tensor:
#      x y z
#    x 1.632560 0.000000 0.000000 
#    y 0.000000 1.624850 0.000000 
#    z 0.000000 0.000000 1.570210 
# 
# From -- ./inp_files/17158.got.cif
#   From: 2010.05.17/outbox.cif.g08.bks.cpg/sg44_9_cif.got.tgz:17158.got - 2010.06.03 19:37:08.
