data_PCOD9373426
_publ_section_title
;
Structure prediction by ZEFSAII (Michael W. Deem and Ramdas Pophale) SiO2 
 PCOD9373426
Probable space group: I M M 2
;
_chemical_formula_sum "Si O2"
_cell_formula_units_Z 56
_cell_length_a 8.483182
_cell_length_b 14.853268
_cell_length_c 23.200293
_cell_angle_alpha 90.000000
_cell_angle_beta 90.000000
_cell_angle_gamma 90.000000
_cell_volume 2923.305956
_symmetry_space_group_name_H-M "I M M 2"
_symmetry_group_IT_number 44
_symmetry_cell_setting 'orthorhombic'
loop_
_space_group_symop_operation_xyz
x,y,z
-x,-y,z
-x,y,z
x,-y,z
1/2+x,1/2+y,1/2+z
1/2-x,1/2-y,1/2+z
1/2-x,1/2+y,1/2+z
1/2+x,1/2-y,1/2+z
loop_
_atom_site_type_symbol
_atom_site_label
_atom_site_fract_x
_atom_site_fract_y
_atom_site_fract_z
Si Si1 0.808310 0.102782 0.807370
Si Si2 0.187926 0.101587 0.239239
Si Si3 0.809574 0.102529 0.939581
Si Si4 0.690209 0.282519 0.199233
Si Si5 0.188344 0.785929 0.475915
Si Si6 0.312544 0.895590 0.367601
Si Si7 0.192655 0.103826 0.588205
O O1 0.758056 0.120029 0.873076
O O2 0.752500 0.170657 0.758461
O O3 0.000000 0.106573 0.807940
O O4 0.765356 0.000000 0.792346
O O5 0.255883 0.179699 0.199396
O O6 0.237614 0.121638 0.305226
O O7 0.000000 0.102181 0.235637
O O8 0.244983 0.000000 0.226188
O O9 0.743365 0.182681 0.977875
O O10 0.000000 0.105833 0.940573
O O11 0.762836 0.000000 0.954500
O O12 0.500000 0.284424 0.200014
O O13 0.742983 0.341058 0.144666
O O14 0.252357 0.831194 0.417648
O O15 0.243503 0.844177 0.530632
O O16 0.000000 0.788806 0.474639
O O17 0.500000 0.884967 0.361741
O O18 0.277596 0.000000 0.382824
O O19 0.000000 0.102841 0.588386
O O20 0.244520 0.000000 0.589100
#
# Coordination Sequence:
#
# PCOD9373426 Si02
#       7
#     8   8   8   8   8   8   8
#     4   8  14  26  48  77 102 124 156 202 256 309
#     4  10  21  36  53  76 108 141 171 211 267 323
#     4   9  18  33  52  75 104 136 172 217 268 323
#     4  10  18  31  55  80 101 132 174 217 257 305
#     4  11  21  33  52  77 108 145 181 222 271 318
#     4  10  20  34  54  80 108 139 178 222 266 318
#     4   9  19  35  54  78 107 139 177 218 261 313
#
# _framework density 19.156395
#
# number of rings (size 3 to 8) (size 9 to 14) (size 15 to 20)
#    0.000    2.429    0.000    3.857    0.000    5.429 
#    0.000    2.143    0.000    8.571    0.000    0.000 
#    0.000    0.000    0.000    0.000    0.000    0.000 
#
# Total GULP energy -156286.376083 kJ/mol
# GULP energy per Si atom -5581.656289 kJ/mol
# Density = 1.911279 g / cm^3
# Si number density = 19.156395 Si / 1000 Ang^3
#
#
#
# Elastic Constant Matrix: (Units=GPa)
#
#
# Indices 1 2 3 4 5 6 
#
# 1 8.9065 18.9489 7.8950 0.0000 0.0000 0.0000
# 2 18.9489 166.2720 81.2630 0.0000 0.0000 0.0000
# 3 7.8950 81.2630 58.2233 0.0000 0.0000 0.0000
# 4 0.0000 0.0000 0.0000 35.2491 0.0000 0.0000
# 5 0.0000 0.0000 0.0000 0.0000 11.4044 0.0000
# 6 0.0000 0.0000 0.0000 0.0000 0.0000 26.8586
#
#
#
# Elastic Compliance Matrix: (Units=1/GPa)
#
#
# Indices 1 2 3 4 5 6 
#
# 1 0.150462 -0.022575 0.011105 0.000000 0.000000 0.000000
# 2 -0.022575 0.022308 -0.028074 0.000000 0.000000 0.000000
# 3 0.011105 -0.028074 0.054853 0.000000 0.000000 0.000000
# 4 0.000000 0.000000 0.000000 0.028370 0.000000 0.000000
# 5 0.000000 0.000000 0.000000 0.000000 0.087686 0.000000
# 6 0.000000 0.000000 0.000000 0.000000 0.000000 0.037232
#
#
# Mechanical properties :
#
#
# Convention : Reuss Voigt Hill
#
# Bulk Modulus (GPa) = 6.73238 49.95728 28.34483
# Shear Modulus (GPa) = 9.81338 23.05541 16.43439
#
# Velocity S-wave (km/s) = 2.26581 3.47296 2.93218
# Velocity P-wave (km/s) = 3.21982 6.49748 5.12760
#
# Compressibility (1/GPa) = 0.14853578
#
# Stress axis : x y z
#
# Youngs Moduli (GPa) = 6.64619 44.82755 18.23067
#
# Poissons Ratio (x) = 1.01197 -0.20246
# Poissons Ratio (y) = 0.15004 0.51181
# Poissons Ratio (z) = -0.07381 1.25849
#
# Static dielectric constant tensor:
#      x y z
#    x 1.663270 0.000000 0.000000 
#    y 0.000000 1.679730 0.000000 
#    z 0.000000 0.000000 1.648410 
# 
# From -- ./inp_files/23031.got.cif
#   From: 2010.05.17/outbox.cif.g08.bks.cpg/sg44_12_cif.got.tgz:23031.got - 2010.06.03 19:37:08.
