data_PCOD9373262
_publ_section_title
;
Structure prediction by ZEFSAII (Michael W. Deem and Ramdas Pophale) SiO2 
 PCOD9373262
Probable space group: I M M 2
;
_chemical_formula_sum "Si O2"
_cell_formula_units_Z 64
_cell_length_a 17.585776
_cell_length_b 13.584704
_cell_length_c 11.450474
_cell_angle_alpha 90.000000
_cell_angle_beta 90.000000
_cell_angle_gamma 90.000000
_cell_volume 2735.490317
_symmetry_space_group_name_H-M "I M M 2"
_symmetry_group_IT_number 44
_symmetry_cell_setting 'orthorhombic'
loop_
_space_group_symop_operation_xyz
x,y,z
-x,-y,z
-x,y,z
x,-y,z
1/2+x,1/2+y,1/2+z
1/2-x,1/2-y,1/2+z
1/2-x,1/2+y,1/2+z
1/2+x,1/2-y,1/2+z
loop_
_atom_site_type_symbol
_atom_site_label
_atom_site_fract_x
_atom_site_fract_y
_atom_site_fract_z
Si Si1 0.607288 0.388114 0.858650
Si Si2 0.585623 0.383382 0.126483
Si Si3 0.776772 0.612885 0.932326
Si Si4 0.643851 0.381692 0.618347
Si Si5 0.296408 0.760868 0.116208
Si Si6 0.910071 0.388895 0.201760
Si Si7 0.410381 0.881000 0.955850
Si Si8 0.587303 0.772725 0.456369
O O1 0.580381 0.500000 0.859936
O O2 0.589870 0.351042 0.728619
O O3 0.584257 0.352192 0.987560
O O4 0.698730 0.389954 0.861108
O O5 0.500000 0.372671 0.171676
O O6 0.606151 0.500000 0.129530
O O7 0.646860 0.312545 0.187031
O O8 0.797092 0.500000 0.955774
O O9 0.747795 0.676872 0.041348
O O10 0.848993 0.670639 0.880677
O O11 0.648244 0.500000 0.614241
O O12 0.725714 0.331937 0.641636
O O13 0.611334 0.335908 0.498331
O O14 0.354968 0.831976 0.048450
O O15 0.879327 0.500000 0.189154
O O16 0.881482 0.347529 0.326193
O O17 0.905152 0.332807 0.080042
O O18 0.000000 0.397333 0.224642
O O19 0.500000 0.856846 0.973543
O O20 0.405036 0.000000 0.958482
O O21 0.500000 0.778665 0.416976
#
# Coordination Sequence:
#
# PCOD9373262 Si02
#       8
#     8   8   8   8   8   8   8   8
#     4   8  16  31  48  67  96 132 162 192 234 284
#     4   9  17  29  49  78 104 125 154 197 250 299
#     4   9  18  32  49  69  94 126 162 200 242 288
#     4  10  21  34  47  68 100 134 166 200 237 282
#     4  10  18  29  46  68  95 131 168 194 233 285
#     4   8  15  27  42  65  96 122 146 185 237 287
#     4   9  17  28  43  65  95 131 164 194 232 280
#     4  10  20  31  49  74  95 122 159 200 249 296
#
# _framework density 23.396170999999999
#
# number of rings (size 3 to 8) (size 9 to 14) (size 15 to 20)
#    0.000    2.875    0.000    3.000    3.500    1.500 
#    0.000    1.250    0.000    1.500    0.000    3.500 
#    0.000    0.000    0.000    0.000    0.000    0.000 
#
# Total GULP energy -178194.285728 kJ/mol
# GULP energy per Si atom -5568.571429 kJ/mol
# Density = 2.334292 g / cm^3
# Si number density = 23.396171 Si / 1000 Ang^3
#
#
#
# Elastic Constant Matrix: (Units=GPa)
#
#
# Indices 1 2 3 4 5 6 
#
# 1 154.0337 42.5684 4.2066 0.0000 0.0000 0.0000
# 2 42.5684 140.3153 16.9161 0.0000 0.0000 0.0000
# 3 4.2066 16.9161 17.2076 0.0000 0.0000 0.0000
# 4 0.0000 0.0000 0.0000 15.1674 0.0000 0.0000
# 5 0.0000 0.0000 0.0000 0.0000 0.7853 0.0000
# 6 0.0000 0.0000 0.0000 0.0000 0.0000 24.8572
#
#
#
# Elastic Compliance Matrix: (Units=1/GPa)
#
#
# Indices 1 2 3 4 5 6 
#
# 1 0.007089 -0.002203 0.000432 0.000000 0.000000 0.000000
# 2 -0.002203 0.008769 -0.008082 0.000000 0.000000 0.000000
# 3 0.000432 -0.008082 0.065953 0.000000 0.000000 0.000000
# 4 0.000000 0.000000 0.000000 0.065931 0.000000 0.000000
# 5 0.000000 0.000000 0.000000 0.000000 1.273476 0.000000
# 6 0.000000 0.000000 0.000000 0.000000 0.000000 0.040230
#
#
# Mechanical properties :
#
#
# Convention : Reuss Voigt Hill
#
# Bulk Modulus (GPa) = 16.10136 48.77097 32.43617
# Shear Modulus (GPa) = 3.32921 24.68634 14.00778
#
# Velocity S-wave (km/s) = 1.19418 3.25182 2.44953
# Velocity P-wave (km/s) = 2.96621 5.91524 4.67913
#
# Compressibility (1/GPa) = 0.06210656
#
# Stress axis : x y z
#
# Youngs Moduli (GPa) = 141.06295 114.03179 15.16220
#
# Poissons Ratio (x) = 0.25119 -0.00656
# Poissons Ratio (y) = 0.31073 0.12255
# Poissons Ratio (z) = -0.06101 0.92166
#
# Static dielectric constant tensor:
#      x y z
#    x 1.933200 0.000000 0.000000 
#    y 0.000000 1.905450 0.000000 
#    z 0.000000 0.000000 1.955920 
# 
# From -- ./inp_files/19023.got.cif
#   From: 2010.05.17/outbox.cif.g08.bks.cpg/sg44_10_cif.got.tgz:19023.got - 2010.06.03 19:37:08.
