data_PCOD9373525
_publ_section_title
;
Structure prediction by ZEFSAII (Michael W. Deem and Ramdas Pophale) SiO2 
 PCOD9373525
Probable space group: I M M 2
;
_chemical_formula_sum "Si O2"
_cell_formula_units_Z 64
_cell_length_a 31.812220
_cell_length_b 8.342726
_cell_length_c 12.330821
_cell_angle_alpha 90.000000
_cell_angle_beta 90.000000
_cell_angle_gamma 90.000000
_cell_volume 3272.607722
_symmetry_space_group_name_H-M "I M M 2"
_symmetry_group_IT_number 44
_symmetry_cell_setting 'orthorhombic'
loop_
_space_group_symop_operation_xyz
x,y,z
-x,-y,z
-x,y,z
x,-y,z
1/2+x,1/2+y,1/2+z
1/2-x,1/2-y,1/2+z
1/2-x,1/2+y,1/2+z
1/2+x,1/2-y,1/2+z
loop_
_atom_site_type_symbol
_atom_site_label
_atom_site_fract_x
_atom_site_fract_y
_atom_site_fract_z
Si Si1 0.626648 0.191498 0.173790
Si Si2 0.931171 0.190774 0.300135
Si Si3 0.163730 0.306132 0.298389
Si Si4 0.953755 0.194023 0.539068
Si Si5 0.546352 0.695945 0.560635
Si Si6 0.204199 0.306548 0.526346
Si Si7 0.798126 0.308724 0.068284
Si Si8 0.126302 0.808501 0.920122
O O1 0.585173 0.247503 0.109983
O O2 0.625961 0.246206 0.297791
O O3 0.627552 0.000000 0.170261
O O4 0.668564 0.250168 0.111045
O O5 0.881776 0.226503 0.300703
O O6 0.949042 0.251829 0.414346
O O7 0.948685 0.251694 0.185389
O O8 0.938873 0.000000 0.299879
O O9 0.158527 0.500000 0.298881
O O10 0.189056 0.260920 0.405987
O O11 0.187212 0.258676 0.188491
O O12 0.000000 0.241924 0.580231
O O13 0.952158 0.000000 0.538002
O O14 0.500000 0.742002 0.519813
O O15 0.547900 0.500000 0.561833
O O16 0.585705 0.751059 0.488549
O O17 0.205547 0.500000 0.531111
O O18 0.250502 0.243266 0.548857
O O19 0.800720 0.500000 0.062256
O O20 0.831220 0.239483 0.982291
O O21 0.123876 0.000000 0.916993
#
# Coordination Sequence:
#
# PCOD9373525 Si02
#       8
#     8   8   8   8   8   8   8   8
#     4  11  24  42  62  86 119 159 204 253 302 355
#     4  10  18  33  60  91 120 152 194 244 293 349
#     4  10  21  39  61  87 121 155 189 242 300 352
#     4  10  21  37  60  91 123 157 199 247 299 358
#     4   9  18  34  58  88 118 151 193 240 290 344
#     4  10  23  42  62  86 118 157 198 244 299 357
#     4  11  24  40  62  91 121 154 196 246 298 354
#     4  11  23  40  62  87 120 160 200 246 300 356
#
# _framework density 19.556269
#
# number of rings (size 3 to 8) (size 9 to 14) (size 15 to 20)
#    0.000    1.750    2.500    1.500    1.750    4.250 
#    0.000    1.250    0.000    3.750    0.000    0.000 
#    0.000    0.000    0.000    0.000    0.000    0.000 
#
# Total GULP energy -178746.657643 kJ/mol
# GULP energy per Si atom -5585.833051 kJ/mol
# Density = 1.951176 g / cm^3
# Si number density = 19.556269 Si / 1000 Ang^3
#
#
#
# Elastic Constant Matrix: (Units=GPa)
#
#
# Indices 1 2 3 4 5 6 
#
# 1 159.8365 18.9935 76.9720 0.0000 0.0000 0.0000
# 2 18.9935 16.7165 23.1814 0.0000 0.0000 0.0000
# 3 76.9720 23.1814 155.1194 0.0000 0.0000 0.0000
# 4 0.0000 0.0000 0.0000 24.9012 0.0000 0.0000
# 5 0.0000 0.0000 0.0000 0.0000 62.7497 0.0000
# 6 0.0000 0.0000 0.0000 0.0000 0.0000 24.0896
#
#
#
# Elastic Compliance Matrix: (Units=1/GPa)
#
#
# Indices 1 2 3 4 5 6 
#
# 1 0.008517 -0.004814 -0.003507 0.000000 0.000000 0.000000
# 2 -0.004814 0.078180 -0.009294 0.000000 0.000000 0.000000
# 3 -0.003507 -0.009294 0.009576 0.000000 0.000000 0.000000
# 4 0.000000 0.000000 0.000000 0.040159 0.000000 0.000000
# 5 0.000000 0.000000 0.000000 0.000000 0.015936 0.000000
# 6 0.000000 0.000000 0.000000 0.000000 0.000000 0.041512
#
#
# Mechanical properties :
#
#
# Convention : Reuss Voigt Hill
#
# Bulk Modulus (GPa) = 16.38225 63.32957 39.85591
# Shear Modulus (GPa) = 20.04343 36.51647 28.27995
#
# Velocity S-wave (km/s) = 3.20490 4.32586 3.80686
# Velocity P-wave (km/s) = 4.70003 7.57656 6.30455
#
# Compressibility (1/GPa) = 0.06104168
#
# Stress axis : x y z
#
# Youngs Moduli (GPa) = 117.40821 12.79102 104.42985
#
# Poissons Ratio (x) = 0.06158 0.36623
# Poissons Ratio (y) = 0.56523 0.97062
# Poissons Ratio (z) = 0.41174 0.11889
#
# Static dielectric constant tensor:
#      x y z
#    x 1.664300 0.000000 0.000000 
#    y 0.000000 1.687860 0.000000 
#    z 0.000000 0.000000 1.684040 
# 
# From -- ./inp_files/11438.got.cif
#   From: 2010.05.17/outbox.cif.g08.bks.cpg/sg44_6_cif.got.tgz:11438.got - 2010.06.03 19:37:08.
