data_PCOD9373556
_publ_section_title
;
Structure prediction by ZEFSAII (Michael W. Deem and Ramdas Pophale) SiO2 
 PCOD9373556
Probable space group: I M M 2
;
_chemical_formula_sum "Si O2"
_cell_formula_units_Z 48
_cell_length_a 8.649259
_cell_length_b 18.558650
_cell_length_c 15.045163
_cell_angle_alpha 90.000000
_cell_angle_beta 90.000000
_cell_angle_gamma 90.000000
_cell_volume 2415.028058
_symmetry_space_group_name_H-M "I M M 2"
_symmetry_group_IT_number 44
_symmetry_cell_setting 'orthorhombic'
loop_
_space_group_symop_operation_xyz
x,y,z
-x,-y,z
-x,y,z
x,-y,z
1/2+x,1/2+y,1/2+z
1/2-x,1/2-y,1/2+z
1/2-x,1/2+y,1/2+z
1/2+x,1/2-y,1/2+z
loop_
_atom_site_type_symbol
_atom_site_label
_atom_site_fract_x
_atom_site_fract_y
_atom_site_fract_z
Si Si1 0.318949 0.622528 0.293800
Si Si2 0.184333 0.652661 0.895609
Si Si3 0.816512 0.265523 0.541889
Si Si4 0.181358 0.920258 0.994820
Si Si5 0.686522 0.500000 0.956905
Si Si6 0.319605 0.736295 0.737180
Si Si7 0.812739 0.000000 0.660296
O O1 0.500000 0.643987 0.280393
O O2 0.312795 0.582631 0.387681
O O3 0.211079 0.691442 0.293313
O O4 0.267247 0.570130 0.215252
O O5 0.239532 0.675956 0.797476
O O6 0.000000 0.652559 0.899564
O O7 0.243903 0.710877 0.969161
O O8 0.250930 0.573762 0.915735
O O9 0.770074 0.348914 0.525159
O O10 0.755778 0.250223 0.641230
O O11 0.000000 0.256582 0.537938
O O12 0.000000 0.912878 0.020157
O O13 0.235258 0.000000 0.024393
O O14 0.500000 0.500000 0.953611
O O15 0.738745 0.500000 0.059768
O O16 0.500000 0.721208 0.726784
O O17 0.000000 0.000000 0.661193
#
# Coordination Sequence:
#
# PCOD9373556 Si02
#       7
#     8   8   8   8   4   8   4
#     4  10  18  34  61  92 127 165 205 253 315 386
#     4  12  25  45  69  95 132 174 218 272 329 388
#     4  12  25  43  67  96 130 172 220 271 328 389
#     4  10  20  37  63  94 131 171 210 256 319 387
#     4  11  23  41  65  96 133 172 217 267 326 389
#     4  12  25  42  65  95 126 167 220 272 328 389
#     4   9  18  33  59  94 127 164 205 251 312 385
#
# _framework density 19.875544999999999
#
# number of rings (size 3 to 8) (size 9 to 14) (size 15 to 20)
#    0.000    1.000    2.500    5.750    0.000    1.667 
#    1.500    1.250    0.000    0.000    0.000    0.000 
#    0.000    0.000    0.000    0.000    0.000    0.000 
#
# Total GULP energy -134126.415628 kJ/mol
# GULP energy per Si atom -5588.600651 kJ/mol
# Density = 1.983031 g / cm^3
# Si number density = 19.875545 Si / 1000 Ang^3
#
#
#
# Elastic Constant Matrix: (Units=GPa)
#
#
# Indices 1 2 3 4 5 6 
#
# 1 123.7602 35.8758 23.2074 0.0000 0.0000 0.0000
# 2 35.8758 110.9666 12.4617 0.0000 0.0000 0.0000
# 3 23.2074 12.4617 54.9323 0.0000 0.0000 0.0000
# 4 0.0000 0.0000 0.0000 31.6958 0.0000 0.0000
# 5 0.0000 0.0000 0.0000 0.0000 27.5682 0.0000
# 6 0.0000 0.0000 0.0000 0.0000 0.0000 12.8529
#
#
#
# Elastic Compliance Matrix: (Units=1/GPa)
#
#
# Indices 1 2 3 4 5 6 
#
# 1 0.009498 -0.002688 -0.003403 0.000000 0.000000 0.000000
# 2 -0.002688 0.010008 -0.001135 0.000000 0.000000 0.000000
# 3 -0.003403 -0.001135 0.019899 0.000000 0.000000 0.000000
# 4 0.000000 0.000000 0.000000 0.031550 0.000000 0.000000
# 5 0.000000 0.000000 0.000000 0.000000 0.036274 0.000000
# 6 0.000000 0.000000 0.000000 0.000000 0.000000 0.077803
#
#
# Mechanical properties :
#
#
# Convention : Reuss Voigt Hill
#
# Bulk Modulus (GPa) = 40.07428 48.08318 44.07873
# Shear Modulus (GPa) = 24.06147 28.96433 26.51290
#
# Velocity S-wave (km/s) = 3.48315 3.82158 3.65628
# Velocity P-wave (km/s) = 6.03182 6.61191 6.32851
#
# Compressibility (1/GPa) = 0.02495366
#
# Stress axis : x y z
#
# Youngs Moduli (GPa) = 105.29065 99.91675 50.25350
#
# Poissons Ratio (x) = 0.26862 0.17099
# Poissons Ratio (y) = 0.28307 0.05702
# Poissons Ratio (z) = 0.35826 0.11337
#
# Static dielectric constant tensor:
#      x y z
#    x 1.675790 0.000000 0.000000 
#    y 0.000000 1.719430 0.000000 
#    z 0.000000 0.000000 1.694990 
# 
# From -- ./inp_files/16199.got.cif
#   From: 2010.05.17/outbox.cif.g08.bks.cpg/sg44_9_cif.got.tgz:16199.got - 2010.06.03 19:37:08.
