data_PCOD9373228
_publ_section_title
;
Structure prediction by ZEFSAII (Michael W. Deem and Ramdas Pophale) SiO2 
 PCOD9373228
Probable space group: I M M 2
;
_chemical_formula_sum "Si O2"
_cell_formula_units_Z 64
_cell_length_a 7.506856
_cell_length_b 21.271880
_cell_length_c 20.488487
_cell_angle_alpha 90.000000
_cell_angle_beta 90.000000
_cell_angle_gamma 90.000000
_cell_volume 3271.702817
_symmetry_space_group_name_H-M "I M M 2"
_symmetry_group_IT_number 44
_symmetry_cell_setting 'orthorhombic'
loop_
_space_group_symop_operation_xyz
x,y,z
-x,-y,z
-x,y,z
x,-y,z
1/2+x,1/2+y,1/2+z
1/2-x,1/2-y,1/2+z
1/2-x,1/2+y,1/2+z
1/2+x,1/2-y,1/2+z
loop_
_atom_site_type_symbol
_atom_site_label
_atom_site_fract_x
_atom_site_fract_y
_atom_site_fract_z
Si Si1 0.717847 0.192067 0.275090
Si Si2 0.212037 0.809885 0.861775
Si Si3 0.717670 0.930540 0.352216
Si Si4 0.703333 0.106867 0.634158
Si Si5 0.785177 0.764139 0.997792
Si Si6 0.782464 0.382351 0.992295
Si Si7 0.792742 0.748926 0.641130
Si Si8 0.785401 0.569215 0.275220
O O1 0.500000 0.190905 0.276473
O O2 0.778380 0.251046 0.318994
O O3 0.777299 0.126697 0.306576
O O4 0.772141 0.206691 0.200970
O O5 0.278666 0.804280 0.936020
O O6 0.241584 0.874556 0.824059
O O7 0.000000 0.801053 0.865755
O O8 0.500000 0.929378 0.352285
O O9 0.773127 0.917601 0.427000
O O10 0.773755 0.000000 0.331358
O O11 0.500000 0.083393 0.632403
O O12 0.781974 0.092895 0.562667
O O13 0.700858 0.182940 0.638895
O O14 0.783695 0.082547 0.701739
O O15 0.732458 0.691195 0.986596
O O16 0.000000 0.765520 0.999775
O O17 0.723508 0.781889 0.070078
O O18 0.000000 0.384061 0.994336
O O19 0.000000 0.763229 0.653450
O O20 0.726222 0.500000 0.296712
O O21 0.000000 0.568994 0.271037
#
# Coordination Sequence:
#
# PCOD9373228 Si02
#       8
#     8   8   8   8   8   8   8   8
#     4   9  16  27  43  67  96 124 156 197 240 277
#     4  10  18  32  53  71  93 127 166 207 245 289
#     4   9  15  23  39  65  95 124 154 190 233 279
#     4   9  17  29  45  66  97 131 162 191 230 287
#     4   9  17  30  49  70  95 124 157 200 247 287
#     4   8  13  23  39  62  91 122 153 186 223 271
#     4  10  18  28  46  70  98 126 157 200 244 283
#     4  10  21  34  47  69 103 134 161 203 254 299
#
# _framework density 19.561679000000002
#
# number of rings (size 3 to 8) (size 9 to 14) (size 15 to 20)
#    0.000    2.750    2.500    1.125    0.000    1.250 
#    0.000    2.500    0.000    0.750    0.000    1.750 
#    0.000   13.250    0.000    0.000    0.000    0.000 
#
# Total GULP energy -178487.738727 kJ/mol
# GULP energy per Si atom -5577.741835 kJ/mol
# Density = 1.951716 g / cm^3
# Si number density = 19.561679 Si / 1000 Ang^3
#
#
#
# Elastic Constant Matrix: (Units=GPa)
#
#
# Indices 1 2 3 4 5 6 
#
# 1 52.1563 -2.6297 0.4333 0.0000 0.0000 0.0000
# 2 -2.6297 122.5446 80.7552 0.0000 0.0000 0.0000
# 3 0.4333 80.7552 148.9745 0.0000 0.0000 0.0000
# 4 0.0000 0.0000 0.0000 23.0484 0.0000 0.0000
# 5 0.0000 0.0000 0.0000 0.0000 12.0906 0.0000
# 6 0.0000 0.0000 0.0000 0.0000 0.0000 6.9074
#
#
#
# Elastic Compliance Matrix: (Units=1/GPa)
#
#
# Indices 1 2 3 4 5 6 
#
# 1 0.019212 0.000699 -0.000435 0.000000 0.000000 0.000000
# 2 0.000699 0.012721 -0.006898 0.000000 0.000000 0.000000
# 3 -0.000435 -0.006898 0.010453 0.000000 0.000000 0.000000
# 4 0.000000 0.000000 0.000000 0.043387 0.000000 0.000000
# 5 0.000000 0.000000 0.000000 0.000000 0.082709 0.000000
# 6 0.000000 0.000000 0.000000 0.000000 0.000000 0.144772
#
#
# Mechanical properties :
#
#
# Convention : Reuss Voigt Hill
#
# Bulk Modulus (GPa) = 34.34248 53.42143 43.88196
# Shear Modulus (GPa) = 14.87094 24.75041 19.81067
#
# Velocity S-wave (km/s) = 2.76018 3.56089 3.18579
# Velocity P-wave (km/s) = 5.26804 6.65396 6.00114
#
# Compressibility (1/GPa) = 0.02911846
#
# Stress axis : x y z
#
# Youngs Moduli (GPa) = 52.05086 78.61195 95.66788
#
# Poissons Ratio (x) = -0.05492 0.04158
# Poissons Ratio (y) = -0.03637 0.65988
# Poissons Ratio (z) = 0.02262 0.54223
#
# Static dielectric constant tensor:
#      x y z
#    x 1.777040 0.000000 0.000000 
#    y 0.000000 1.655620 0.000000 
#    z 0.000000 0.000000 1.705650 
# 
# From -- ./inp_files/23415.got.cif
#   From: 2010.05.17/outbox.cif.g08.bks.cpg/sg44_12_cif.got.tgz:23415.got - 2010.06.03 19:37:08.
