data_PCOD9373632
_publ_section_title
;
Structure prediction by ZEFSAII (Michael W. Deem and Ramdas Pophale) SiO2 
 PCOD9373632
Probable space group: I M M 2
;
_chemical_formula_sum "Si O2"
_cell_formula_units_Z 40
_cell_length_a 8.418827
_cell_length_b 10.035769
_cell_length_c 26.590827
_cell_angle_alpha 90.000000
_cell_angle_beta 90.000000
_cell_angle_gamma 90.000000
_cell_volume 2246.643099
_symmetry_space_group_name_H-M "I M M 2"
_symmetry_group_IT_number 44
_symmetry_cell_setting 'orthorhombic'
loop_
_space_group_symop_operation_xyz
x,y,z
-x,-y,z
-x,y,z
x,-y,z
1/2+x,1/2+y,1/2+z
1/2-x,1/2-y,1/2+z
1/2-x,1/2+y,1/2+z
1/2+x,1/2-y,1/2+z
loop_
_atom_site_type_symbol
_atom_site_label
_atom_site_fract_x
_atom_site_fract_y
_atom_site_fract_z
Si Si1 0.692019 0.211465 0.409810
Si Si2 0.806111 0.500000 0.106317
Si Si3 0.187638 0.500000 0.717685
Si Si4 0.693899 0.000000 0.491615
Si Si5 0.808229 0.282161 0.186584
Si Si6 0.808934 0.000000 0.881983
Si Si7 0.308318 0.000000 0.768447
Si Si8 0.188466 0.000000 0.331244
O O1 0.500000 0.211793 0.409826
O O2 0.743647 0.128243 0.458811
O O3 0.750034 0.362729 0.406452
O O4 0.745836 0.128108 0.361119
O O5 0.758444 0.369965 0.138400
O O6 0.000000 0.500000 0.106030
O O7 0.750678 0.500000 0.048949
O O8 0.240928 0.634711 0.689991
O O9 0.262663 0.500000 0.773366
O O10 0.000000 0.500000 0.723258
O O11 0.500000 0.000000 0.492692
O O12 0.763021 0.370397 0.235515
O O13 0.000000 0.274642 0.186337
O O14 0.765298 0.000000 0.823282
O O15 0.000000 0.000000 0.886278
O O16 0.500000 0.000000 0.772723
O O17 0.000000 0.000000 0.334871
#
# Coordination Sequence:
#
# PCOD9373632 Si02
#       8
#     8   4   4   4   8   4   4   4
#     4   9  18  32  49  73 104 133 164 201 241 288
#     4   8  15  31  56  79  95 120 163 210 250 289
#     4  12  23  33  47  71 103 134 163 197 244 295
#     4   8  14  29  53  75  97 126 161 204 248 288
#     4   9  18  33  51  73  99 125 160 204 246 289
#     4  10  19  29  44  69 101 132 159 193 236 284
#     4   9  18  31  48  69  95 129 163 196 236 285
#     4  11  21  33  50  71  97 133 173 204 238 285
#
# _framework density 17.804341999999998
#
# number of rings (size 3 to 8) (size 9 to 14) (size 15 to 20)
#    0.000    2.600    0.000    4.800    0.000    4.800 
#    0.000    2.500    0.000    9.600    0.000    1.400 
#    0.000    0.000    0.000    0.000    0.000    0.000 
#
# Total GULP energy -111565.318273 kJ/mol
# GULP energy per Si atom -5578.265914 kJ/mol
# Density = 1.776382 g / cm^3
# Si number density = 17.804342 Si / 1000 Ang^3
#
#
#
# Elastic Constant Matrix: (Units=GPa)
#
#
# Indices 1 2 3 4 5 6 
#
# 1 8.9056 15.6065 3.8885 0.0000 0.0000 0.0000
# 2 15.6065 186.5670 76.1373 0.0000 0.0000 0.0000
# 3 3.8885 76.1373 128.5079 0.0000 0.0000 0.0000
# 4 0.0000 0.0000 0.0000 1.5115 0.0000 0.0000
# 5 0.0000 0.0000 0.0000 0.0000 16.4688 0.0000
# 6 0.0000 0.0000 0.0000 0.0000 0.0000 9.0945
#
#
#
# Elastic Compliance Matrix: (Units=1/GPa)
#
#
# Indices 1 2 3 4 5 6 
#
# 1 0.132680 -0.012477 0.003378 0.000000 0.000000 0.000000
# 2 -0.012477 0.008243 -0.004506 0.000000 0.000000 0.000000
# 3 0.003378 -0.004506 0.010349 0.000000 0.000000 0.000000
# 4 0.000000 0.000000 0.000000 0.661609 0.000000 0.000000
# 5 0.000000 0.000000 0.000000 0.000000 0.060721 0.000000
# 6 0.000000 0.000000 0.000000 0.000000 0.000000 0.109956
#
#
# Mechanical properties :
#
#
# Convention : Reuss Voigt Hill
#
# Bulk Modulus (GPa) = 8.06058 57.24944 32.65501
# Shear Modulus (GPa) = 4.75230 20.63818 12.69524
#
# Velocity S-wave (km/s) = 1.63554 3.40835 2.67318
# Velocity P-wave (km/s) = 2.84671 6.90751 5.28287
#
# Compressibility (1/GPa) = 0.12406059
#
# Stress axis : x y z
#
# Youngs Moduli (GPa) = 7.53694 121.32092 96.62697
#
# Poissons Ratio (x) = 1.51375 -0.32638
# Poissons Ratio (y) = 0.09404 0.43540
# Poissons Ratio (z) = -0.02546 0.54667
#
# Static dielectric constant tensor:
#      x y z
#    x 1.614200 0.000000 0.000000 
#    y 0.000000 1.619770 0.000000 
#    z 0.000000 0.000000 1.585150 
# 
# From -- ./inp_files/26008.got.cif
#   From: 2010.05.17/outbox.cif.g08.bks.cpg/sg44_14_cif.got.tgz:26008.got - 2010.06.03 19:37:08.
