data_PCOD9373635
_publ_section_title
;
Structure prediction by ZEFSAII (Michael W. Deem and Ramdas Pophale) SiO2 
 PCOD9373635
Probable space group: I M M 2
;
_chemical_formula_sum "Si O2"
_cell_formula_units_Z 64
_cell_length_a 21.892759
_cell_length_b 9.432991
_cell_length_c 15.841311
_cell_angle_alpha 90.000000
_cell_angle_beta 90.000000
_cell_angle_gamma 90.000000
_cell_volume 3271.455646
_symmetry_space_group_name_H-M "I M M 2"
_symmetry_group_IT_number 44
_symmetry_cell_setting 'orthorhombic'
loop_
_space_group_symop_operation_xyz
x,y,z
-x,-y,z
-x,y,z
x,-y,z
1/2+x,1/2+y,1/2+z
1/2-x,1/2-y,1/2+z
1/2-x,1/2+y,1/2+z
1/2+x,1/2-y,1/2+z
loop_
_atom_site_type_symbol
_atom_site_label
_atom_site_fract_x
_atom_site_fract_y
_atom_site_fract_z
Si Si1 0.933819 0.331308 0.827540
Si Si2 0.928453 0.830769 0.510279
Si Si3 0.103929 0.163235 0.989139
Si Si4 0.799177 0.668974 0.761744
Si Si5 0.574238 0.836638 0.655616
Si Si6 0.320201 0.828993 0.078173
Si Si7 0.574254 0.338497 0.817092
Si Si8 0.241899 0.162974 0.918782
O O1 0.931523 0.500000 0.844655
O O2 0.930693 0.246667 0.915185
O O3 0.871403 0.297939 0.777915
O O4 0.000000 0.301143 0.786296
O O5 0.885941 0.743185 0.572175
O O6 0.911240 0.795401 0.412871
O O7 0.000000 0.799727 0.521449
O O8 0.920159 0.000000 0.520111
O O9 0.174068 0.163598 0.958709
O O10 0.083638 0.000000 0.996674
O O11 0.096343 0.244015 0.076979
O O12 0.791440 0.500000 0.770785
O O13 0.786455 0.709846 0.665132
O O14 0.760778 0.746778 0.833635
O O15 0.500000 0.833963 0.654522
O O16 0.594884 0.766040 0.743595
O O17 0.593527 0.000000 0.648671
O O18 0.325655 0.000000 0.078009
O O19 0.284648 0.783929 0.994088
O O20 0.500000 0.342686 0.814124
O O21 0.595751 0.500000 0.802308
O O22 0.258095 0.000000 0.899318
#
# Coordination Sequence:
#
# PCOD9373635 Si02
#       8
#     8   8   8   8   8   8   8   8
#     4   9  17  30  49  74 105 137 172 219 272 326
#     4   9  19  36  57  83 114 145 179 221 271 330
#     4  10  19  31  48  69  99 141 183 225 274 326
#     4   9  19  36  58  82 109 144 185 228 276 333
#     4  10  19  29  44  70 104 139 178 226 276 325
#     4  10  21  38  60  85 113 145 185 231 280 332
#     4   8  15  30  49  68  97 137 176 214 258 312
#     4   9  20  39  57  76 108 145 183 233 281 322
#
# _framework density 19.563155999999999
#
# number of rings (size 3 to 8) (size 9 to 14) (size 15 to 20)
#    0.000    2.750    0.000    1.875    0.000    5.250 
#    2.250    2.500    0.000    0.000    0.000    0.000 
#    0.000    0.000    0.000    0.000    0.000    0.000 
#
# Total GULP energy -178492.577733 kJ/mol
# GULP energy per Si atom -5577.893054 kJ/mol
# Density = 1.951863 g / cm^3
# Si number density = 19.563156 Si / 1000 Ang^3
#
#
#
# Elastic Constant Matrix: (Units=GPa)
#
#
# Indices 1 2 3 4 5 6 
#
# 1 33.5276 11.6846 26.1590 0.0000 0.0000 0.0000
# 2 11.6846 39.0141 52.4826 0.0000 0.0000 0.0000
# 3 26.1590 52.4826 131.6856 0.0000 0.0000 0.0000
# 4 0.0000 0.0000 0.0000 30.5740 0.0000 0.0000
# 5 0.0000 0.0000 0.0000 0.0000 17.8691 0.0000
# 6 0.0000 0.0000 0.0000 0.0000 0.0000 9.7088
#
#
#
# Elastic Compliance Matrix: (Units=1/GPa)
#
#
# Indices 1 2 3 4 5 6 
#
# 1 0.035406 -0.002463 -0.006052 0.000000 0.000000 0.000000
# 2 -0.002463 0.055428 -0.021601 0.000000 0.000000 0.000000
# 3 -0.006052 -0.021601 0.017405 0.000000 0.000000 0.000000
# 4 0.000000 0.000000 0.000000 0.032708 0.000000 0.000000
# 5 0.000000 0.000000 0.000000 0.000000 0.055962 0.000000
# 6 0.000000 0.000000 0.000000 0.000000 0.000000 0.102999
#
#
# Mechanical properties :
#
#
# Convention : Reuss Voigt Hill
#
# Bulk Modulus (GPa) = 20.83029 42.76441 31.79735
# Shear Modulus (GPa) = 13.29282 19.22378 16.25830
#
# Velocity S-wave (km/s) = 2.60952 3.13813 2.88595
# Velocity P-wave (km/s) = 4.44413 5.91926 5.23392
#
# Compressibility (1/GPa) = 0.04800702
#
# Stress axis : x y z
#
# Youngs Moduli (GPa) = 28.24354 18.04144 57.45463
#
# Poissons Ratio (x) = 0.04444 0.34770
# Poissons Ratio (y) = 0.06957 1.24109
# Poissons Ratio (z) = 0.17092 0.38972
#
# Static dielectric constant tensor:
#      x y z
#    x 1.716860 0.000000 0.000000 
#    y 0.000000 1.658110 0.000000 
#    z 0.000000 0.000000 1.669980 
# 
# From -- ./inp_files/19463.got.cif
#   From: 2010.05.17/outbox.cif.g08.bks.cpg/sg44_10_cif.got.tgz:19463.got - 2010.06.03 19:37:08.
