data_PCOD9373176
_publ_section_title
;
Structure prediction by ZEFSAII (Michael W. Deem and Ramdas Pophale) SiO2 
 PCOD9373176
Probable space group: I M M 2
;
_chemical_formula_sum "Si O2"
_cell_formula_units_Z 64
_cell_length_a 22.879128
_cell_length_b 19.326738
_cell_length_c 7.078186
_cell_angle_alpha 90.000000
_cell_angle_beta 90.000000
_cell_angle_gamma 90.000000
_cell_volume 3129.824588
_symmetry_space_group_name_H-M "I M M 2"
_symmetry_group_IT_number 44
_symmetry_cell_setting 'orthorhombic'
loop_
_space_group_symop_operation_xyz
x,y,z
-x,-y,z
-x,y,z
x,-y,z
1/2+x,1/2+y,1/2+z
1/2-x,1/2-y,1/2+z
1/2-x,1/2+y,1/2+z
1/2+x,1/2-y,1/2+z
loop_
_atom_site_type_symbol
_atom_site_label
_atom_site_fract_x
_atom_site_fract_y
_atom_site_fract_z
Si Si1 0.432875 0.923842 0.813900
Si Si2 0.194975 0.575080 0.720312
Si Si3 0.277582 0.920580 0.770577
Si Si4 0.817723 0.177977 0.834734
Si Si5 0.768454 0.797882 0.255523
Si Si6 0.434707 0.897391 0.359304
Si Si7 0.566404 0.260515 0.432887
Si Si8 0.635707 0.199011 0.781005
O O1 0.500000 0.924530 0.867379
O O2 0.431440 0.915575 0.584528
O O3 0.404605 0.854063 0.896210
O O4 0.407813 0.000000 0.860819
O O5 0.216682 0.500000 0.777558
O O6 0.205753 0.581292 0.494818
O O7 0.235425 0.633022 0.817205
O O8 0.126150 0.578366 0.769308
O O9 0.211709 0.891610 0.756800
O O10 0.284660 0.000000 0.707176
O O11 0.320256 0.859765 0.691398
O O12 0.797395 0.185209 0.053699
O O13 0.886827 0.189725 0.832787
O O14 0.783321 0.242175 0.743847
O O15 0.820901 0.757133 0.361464
O O16 0.500000 0.921935 0.299357
O O17 0.434633 0.814635 0.336134
O O18 0.500000 0.286180 0.446407
O O19 0.593592 0.238932 0.636298
#
# Coordination Sequence:
#
# PCOD9373176 Si02
#       8
#     8   8   8   8   8   8   8   8
#     4   9  16  25  39  60  85 111 137 169 210 250
#     4  10  18  28  41  57  82 114 148 181 215 261
#     4   9  18  29  42  61  86 119 148 174 218 273
#     4   9  16  29  47  64  86 115 148 188 226 267
#     4   9  17  28  43  62  83 111 151 183 225 266
#     4   9  16  26  39  57  82 108 137 172 206 247
#     4   9  16  27  46  67  84 108 147 187 225 262
#     4   9  16  27  42  59  82 110 142 180 214 258
#
# _framework density 20.448430999999999
#
# number of rings (size 3 to 8) (size 9 to 14) (size 15 to 20)
#    0.000    2.875    1.250    1.875    0.000    0.750 
#    0.000    1.250    0.000    1.875    0.000    0.000 
#    0.000    1.500    0.000    0.000    0.000   32.625 
#
# Total GULP energy -178236.452850 kJ/mol
# GULP energy per Si atom -5569.889152 kJ/mol
# Density = 2.040189 g / cm^3
# Si number density = 20.448431 Si / 1000 Ang^3
#
#
#
# Elastic Constant Matrix: (Units=GPa)
#
#
# Indices 1 2 3 4 5 6 
#
# 1 171.9709 67.8915 7.3058 0.0000 0.0000 0.0000
# 2 67.8915 97.8595 -5.1208 0.0000 0.0000 0.0000
# 3 7.3058 -5.1208 58.3706 0.0000 0.0000 0.0000
# 4 0.0000 0.0000 0.0000 5.9867 0.0000 0.0000
# 5 0.0000 0.0000 0.0000 0.0000 17.3033 0.0000
# 6 0.0000 0.0000 0.0000 0.0000 0.0000 9.5139
#
#
#
# Elastic Compliance Matrix: (Units=1/GPa)
#
#
# Indices 1 2 3 4 5 6 
#
# 1 0.008141 -0.005727 -0.001521 0.000000 0.000000 0.000000
# 2 -0.005727 0.014295 0.001971 0.000000 0.000000 0.000000
# 3 -0.001521 0.001971 0.017495 0.000000 0.000000 0.000000
# 4 0.000000 0.000000 0.000000 0.167036 0.000000 0.000000
# 5 0.000000 0.000000 0.000000 0.000000 0.057792 0.000000
# 6 0.000000 0.000000 0.000000 0.000000 0.000000 0.105110
#
#
# Mechanical properties :
#
#
# Convention : Reuss Voigt Hill
#
# Bulk Modulus (GPa) = 34.04170 52.03935 43.04052
# Shear Modulus (GPa) = 12.81338 23.76907 18.29122
#
# Velocity S-wave (km/s) = 2.50595 3.41308 2.99407
# Velocity P-wave (km/s) = 5.00568 6.40597 5.74862
#
# Compressibility (1/GPa) = 0.02937574
#
# Stress axis : x y z
#
# Youngs Moduli (GPa) = 122.84080 69.95323 57.15843
#
# Poissons Ratio (x) = 0.40064 0.08696
# Poissons Ratio (y) = 0.70354 -0.11266
# Poissons Ratio (z) = 0.18688 -0.13787
#
# Static dielectric constant tensor:
#      x y z
#    x 1.779190 0.000000 0.000000 
#    y 0.000000 1.737820 0.000000 
#    z 0.000000 0.000000 1.819900 
# 
# From -- ./inp_files/9503.got.cif
#   From: 2010.05.17/outbox.cif.g08.bks.cpg/sg44_5_cif.got.tgz:9503.got - 2010.06.03 19:37:08.
