data_PCOD9373444
_publ_section_title
;
Structure prediction by ZEFSAII (Michael W. Deem and Ramdas Pophale) SiO2 
 PCOD9373444
Probable space group: I M M 2
;
_chemical_formula_sum "Si O2"
_cell_formula_units_Z 64
_cell_length_a 19.219948
_cell_length_b 21.065400
_cell_length_c 9.234040
_cell_angle_alpha 90.000000
_cell_angle_beta 90.000000
_cell_angle_gamma 90.000000
_cell_volume 3738.640187
_symmetry_space_group_name_H-M "I M M 2"
_symmetry_group_IT_number 44
_symmetry_cell_setting 'orthorhombic'
loop_
_space_group_symop_operation_xyz
x,y,z
-x,-y,z
-x,y,z
x,-y,z
1/2+x,1/2+y,1/2+z
1/2-x,1/2-y,1/2+z
1/2-x,1/2+y,1/2+z
1/2+x,1/2-y,1/2+z
loop_
_atom_site_type_symbol
_atom_site_label
_atom_site_fract_x
_atom_site_fract_y
_atom_site_fract_z
Si Si1 0.922846 0.573871 0.281250
Si Si2 0.577855 0.734278 0.884086
Si Si3 0.685885 0.073471 0.552299
Si Si4 0.868311 0.361463 0.534528
Si Si5 0.918872 0.362094 0.860844
Si Si6 0.773038 0.191374 0.081525
Si Si7 0.217469 0.819282 0.430197
Si Si8 0.079204 0.230816 0.037759
O O1 0.926513 0.500000 0.241709
O O2 0.856221 0.599144 0.192987
O O3 0.904033 0.581477 0.449018
O O4 0.000000 0.601985 0.250229
O O5 0.500000 0.719036 0.929837
O O6 0.578954 0.742433 0.710594
O O7 0.602393 0.800362 0.950549
O O8 0.634043 0.683146 0.936065
O O9 0.626257 0.082627 0.431915
O O10 0.747523 0.118694 0.498133
O O11 0.706023 0.000000 0.570268
O O12 0.893363 0.354931 0.697817
O O13 0.784577 0.358964 0.528635
O O14 0.000000 0.376487 0.867128
O O15 0.908005 0.295983 0.949055
O O16 0.768543 0.189501 0.257350
O O17 0.747042 0.259201 0.019546
O O18 0.852480 0.185983 0.023957
O O19 0.000000 0.208876 0.999854
#
# Coordination Sequence:
#
# PCOD9373444 Si02
#       8
#     8   8   8   8   8   8   8   8
#     4  10  22  38  53  70  97 139 185 215 242 296
#     4   9  18  31  51  75 102 134 163 204 256 310
#     4  11  22  37  52  70  99 136 178 213 248 301
#     4  11  20  31  50  74 105 133 166 212 259 299
#     4  11  20  31  48  73 104 134 169 206 248 295
#     4  10  18  32  50  75 104 132 166 207 258 306
#     4  10  20  33  52  78 101 132 170 208 258 306
#     4   9  17  30  49  72 102 136 170 201 242 306
#
# _framework density 17.118524000000001
#
# number of rings (size 3 to 8) (size 9 to 14) (size 15 to 20)
#    0.000    1.875    2.500    2.250    3.500    2.250 
#    0.000    0.000    0.000    0.375    0.000    0.000 
#    0.000    1.500    0.000    0.000    0.000    0.000 
#
# Total GULP energy -178242.616352 kJ/mol
# GULP energy per Si atom -5570.081761 kJ/mol
# Density = 1.707956 g / cm^3
# Si number density = 17.118524 Si / 1000 Ang^3
#
#
#
# Elastic Constant Matrix: (Units=GPa)
#
#
# Indices 1 2 3 4 5 6 
#
# 1 120.3371 21.0500 34.7955 0.0000 0.0000 0.0000
# 2 21.0500 30.7574 10.6516 0.0000 0.0000 0.0000
# 3 34.7955 10.6516 49.1635 0.0000 0.0000 0.0000
# 4 0.0000 0.0000 0.0000 14.7875 0.0000 0.0000
# 5 0.0000 0.0000 0.0000 0.0000 23.1643 0.0000
# 6 0.0000 0.0000 0.0000 0.0000 0.0000 15.1984
#
#
#
# Elastic Compliance Matrix: (Units=1/GPa)
#
#
# Indices 1 2 3 4 5 6 
#
# 1 0.011199 -0.005319 -0.006774 0.000000 0.000000 0.000000
# 2 -0.005319 0.037676 -0.004398 0.000000 0.000000 0.000000
# 3 -0.006774 -0.004398 0.026087 0.000000 0.000000 0.000000
# 4 0.000000 0.000000 0.000000 0.067625 0.000000 0.000000
# 5 0.000000 0.000000 0.000000 0.000000 0.043170 0.000000
# 6 0.000000 0.000000 0.000000 0.000000 0.000000 0.065796
#
#
# Mechanical properties :
#
#
# Convention : Reuss Voigt Hill
#
# Bulk Modulus (GPa) = 23.82066 37.02805 30.42436
# Shear Modulus (GPa) = 16.74883 19.54742 18.14813
#
# Velocity S-wave (km/s) = 3.13134 3.38285 3.25952
# Velocity P-wave (km/s) = 5.19799 6.07746 5.65485
#
# Compressibility (1/GPa) = 0.04198037
#
# Stress axis : x y z
#
# Youngs Moduli (GPa) = 89.29371 26.54230 38.33271
#
# Poissons Ratio (x) = 0.14117 0.25966
# Poissons Ratio (y) = 0.47492 0.16860
# Poissons Ratio (z) = 0.60486 0.11674
#
# Static dielectric constant tensor:
#      x y z
#    x 1.639400 0.000000 0.000000 
#    y 0.000000 1.584370 0.000000 
#    z 0.000000 0.000000 1.631570 
# 
# From -- ./inp_files/8456.got.cif
#   From: 2010.05.17/outbox.cif.g08.bks.cpg/sg44_5_cif.got.tgz:8456.got - 2010.06.03 19:37:08.
