data_PCOD9373629
_publ_section_title
;
Structure prediction by ZEFSAII (Michael W. Deem and Ramdas Pophale) SiO2 
 PCOD9373629
Probable space group: I M M 2
;
_chemical_formula_sum "Si O2"
_cell_formula_units_Z 64
_cell_length_a 8.940946
_cell_length_b 14.162125
_cell_length_c 30.312596
_cell_angle_alpha 90.000000
_cell_angle_beta 90.000000
_cell_angle_gamma 90.000000
_cell_volume 3838.265625
_symmetry_space_group_name_H-M "I M M 2"
_symmetry_group_IT_number 44
_symmetry_cell_setting 'orthorhombic'
loop_
_space_group_symop_operation_xyz
x,y,z
-x,-y,z
-x,y,z
x,-y,z
1/2+x,1/2+y,1/2+z
1/2-x,1/2-y,1/2+z
1/2-x,1/2+y,1/2+z
1/2+x,1/2-y,1/2+z
loop_
_atom_site_type_symbol
_atom_site_label
_atom_site_fract_x
_atom_site_fract_y
_atom_site_fract_z
Si Si1 0.676206 0.813853 0.828600
Si Si2 0.819556 0.109657 0.562152
Si Si3 0.168020 0.887692 0.743274
Si Si4 0.330044 0.885625 0.655283
Si Si5 0.179312 0.111277 0.919219
Si Si6 0.324732 0.251159 0.984808
Si Si7 0.674026 0.601568 0.834387
Si Si8 0.669056 0.106401 0.425841
O O1 0.500000 0.832777 0.833209
O O2 0.747191 0.872111 0.788957
O O3 0.752577 0.838045 0.875577
O O4 0.695557 0.704279 0.813900
O O5 0.762328 0.133704 0.611000
O O6 0.769771 0.192047 0.528321
O O7 0.000000 0.108696 0.560954
O O8 0.771414 0.000000 0.551972
O O9 0.254144 0.850155 0.700241
O O10 0.000000 0.848825 0.745982
O O11 0.156943 0.000000 0.736873
O O12 0.500000 0.851433 0.651402
O O13 0.335697 0.000000 0.658194
O O14 0.240335 0.161587 0.963661
O O15 0.000000 0.119496 0.917540
O O16 0.218494 0.000000 0.918024
O O17 0.500000 0.229844 0.989518
O O18 0.294177 0.330582 0.948016
O O19 0.500000 0.602368 0.850262
O O20 0.692311 0.500000 0.810516
O O21 0.788961 0.601202 0.874785
O O22 0.500000 0.143374 0.432403
O O23 0.674218 0.000000 0.443596
#
# Coordination Sequence:
#
# PCOD9373629 Si02
#       8
#     8   8   8   8   8   8   8   8
#     4  11  21  33  52  76  99 130 171 212 252 298
#     4   9  18  32  50  74 105 137 165 196 242 301
#     4  10  20  33  50  72 101 137 171 206 250 298
#     4   9  17  30  49  74 103 132 164 204 247 293
#     4  11  24  39  52  68  96 133 171 215 262 303
#     4  11  21  33  50  72  97 131 170 207 247 295
#     4   9  18  32  48  67  94 128 163 200 246 296
#     4  10  19  29  44  67  95 127 162 200 240 285
#
# _framework density 16.674196999999999
#
# number of rings (size 3 to 8) (size 9 to 14) (size 15 to 20)
#    0.000    2.000    1.250    3.000    0.000    7.500 
#    0.000    1.250    0.000    0.000    0.000    0.875 
#    0.000    5.000    0.000    0.000    0.000    0.000 
#
# Total GULP energy -178150.281430 kJ/mol
# GULP energy per Si atom -5567.196295 kJ/mol
# Density = 1.663625 g / cm^3
# Si number density = 16.674197 Si / 1000 Ang^3
#
#
#
# Elastic Constant Matrix: (Units=GPa)
#
#
# Indices 1 2 3 4 5 6 
#
# 1 47.2844 21.3357 27.5487 0.0000 0.0000 0.0000
# 2 21.3357 66.8731 19.5779 0.0000 0.0000 0.0000
# 3 27.5487 19.5779 81.8568 0.0000 0.0000 0.0000
# 4 0.0000 0.0000 0.0000 16.1813 0.0000 0.0000
# 5 0.0000 0.0000 0.0000 0.0000 19.9535 0.0000
# 6 0.0000 0.0000 0.0000 0.0000 0.0000 11.2451
#
#
#
# Elastic Compliance Matrix: (Units=1/GPa)
#
#
# Indices 1 2 3 4 5 6 
#
# 1 0.028972 -0.006870 -0.008107 0.000000 0.000000 0.000000
# 2 -0.006870 0.017709 -0.001923 0.000000 0.000000 0.000000
# 3 -0.008107 -0.001923 0.015405 0.000000 0.000000 0.000000
# 4 0.000000 0.000000 0.000000 0.061800 0.000000 0.000000
# 5 0.000000 0.000000 0.000000 0.000000 0.050116 0.000000
# 6 0.000000 0.000000 0.000000 0.000000 0.000000 0.088928
#
#
# Mechanical properties :
#
#
# Convention : Reuss Voigt Hill
#
# Bulk Modulus (GPa) = 35.35531 36.99322 36.17427
# Shear Modulus (GPa) = 16.33140 17.97945 17.15542
#
# Velocity S-wave (km/s) = 3.13300 3.28728 3.21107
# Velocity P-wave (km/s) = 5.85980 6.05329 5.95733
#
# Compressibility (1/GPa) = 0.02828429
#
# Stress axis : x y z
#
# Youngs Moduli (GPa) = 34.51616 56.46972 64.91408
#
# Poissons Ratio (x) = 0.38794 0.52628
# Poissons Ratio (y) = 0.23712 0.12485
# Poissons Ratio (z) = 0.27983 0.10861
#
# Static dielectric constant tensor:
#      x y z
#    x 1.579520 0.000000 0.000000 
#    y 0.000000 1.603100 0.000000 
#    z 0.000000 0.000000 1.545380 
# 
# From -- ./inp_files/27351.got.cif
#   From: 2010.05.17/outbox.cif.g08.bks.cpg/sg44_14_cif.got.tgz:27351.got - 2010.06.03 19:37:08.
