data_PCOD9373501
_publ_section_title
;
Structure prediction by ZEFSAII (Michael W. Deem and Ramdas Pophale) SiO2 
 PCOD9373501
Probable space group: I M M 2
;
_chemical_formula_sum "Si O2"
_cell_formula_units_Z 38
_cell_length_a 14.665760
_cell_length_b 15.956353
_cell_length_c 7.348736
_cell_angle_alpha 90.000000
_cell_angle_beta 90.000000
_cell_angle_gamma 90.000000
_cell_volume 1719.692729
_symmetry_space_group_name_H-M "I M M 2"
_symmetry_group_IT_number 44
_symmetry_cell_setting 'orthorhombic'
loop_
_space_group_symop_operation_xyz
x,y,z
-x,-y,z
-x,y,z
x,-y,z
1/2+x,1/2+y,1/2+z
1/2-x,1/2-y,1/2+z
1/2-x,1/2+y,1/2+z
1/2+x,1/2-y,1/2+z
loop_
_atom_site_type_symbol
_atom_site_label
_atom_site_fract_x
_atom_site_fract_y
_atom_site_fract_z
Si Si1 0.148457 0.350230 0.808380
Si Si2 0.500000 0.643252 0.087355
Si Si3 0.500000 0.791205 0.811878
Si Si4 0.797401 0.904092 0.566323
Si Si5 0.000000 0.779111 0.925329
Si Si6 0.326487 0.100481 0.896669
Si Si7 0.500000 0.000000 0.366113
O O1 0.177656 0.363748 0.599885
O O2 0.088973 0.269002 0.850691
O O3 0.080003 0.426573 0.858088
O O4 0.237813 0.348776 0.931500
O O5 0.596145 0.605341 0.031773
O O6 0.500000 0.637403 0.307775
O O7 0.500000 0.736121 0.995132
O O8 0.500000 0.728530 0.641091
O O9 0.587697 0.851824 0.806396
O O10 0.761713 0.886354 0.770735
O O11 0.771138 0.000000 0.529117
O O12 0.344978 0.000000 0.906268
#
# Coordination Sequence:
#
# PCOD9373501 Si02
#       7
#     8   4   4   8   4   8   2
#     4  11  20  39  65 100 136 161 204 275 335 388
#     4  12  28  46  65  87 141 181 226 270 312 395
#     4  12  23  42  64 103 130 177 211 266 341 398
#     4  11  25  45  68  97 125 180 227 271 323 388
#     4  11  24  41  62  99 136 170 209 269 337 396
#     4  11  22  38  68 102 134 164 214 271 339 393
#     4  10  18  32  66 100 134 150 190 270 342 372
#
# _framework density 22.096969999999999
#
# number of rings (size 3 to 8) (size 9 to 14) (size 15 to 20)
#    0.000    0.842    6.316    1.263    0.000    3.368 
#    0.000    0.000    0.000    3.789    0.000    0.000 
#    0.000    0.000    0.000    0.000    0.000    0.000 
#
# Total GULP energy -105949.311923 kJ/mol
# GULP energy per Si atom -5576.279575 kJ/mol
# Density = 2.204668 g / cm^3
# Si number density = 22.096970 Si / 1000 Ang^3
#
#
#
# Elastic Constant Matrix: (Units=GPa)
#
#
# Indices 1 2 3 4 5 6 
#
# 1 150.9849 7.7912 38.4506 0.0000 0.0000 0.0000
# 2 7.7912 11.3085 -2.1337 0.0000 0.0000 0.0000
# 3 38.4506 -2.1337 108.2056 0.0000 0.0000 0.0000
# 4 0.0000 0.0000 0.0000 9.0121 0.0000 0.0000
# 5 0.0000 0.0000 0.0000 0.0000 19.1914 0.0000
# 6 0.0000 0.0000 0.0000 0.0000 0.0000 28.2573
#
#
#
# Elastic Compliance Matrix: (Units=1/GPa)
#
#
# Indices 1 2 3 4 5 6 
#
# 1 0.007643 -0.005800 -0.002830 0.000000 0.000000 0.000000
# 2 -0.005800 0.093160 0.003898 0.000000 0.000000 0.000000
# 3 -0.002830 0.003898 0.010324 0.000000 0.000000 0.000000
# 4 0.000000 0.000000 0.000000 0.110962 0.000000 0.000000
# 5 0.000000 0.000000 0.000000 0.000000 0.052107 0.000000
# 6 0.000000 0.000000 0.000000 0.000000 0.000000 0.035389
#
#
# Mechanical properties :
#
#
# Convention : Reuss Voigt Hill
#
# Bulk Modulus (GPa) = 9.83640 39.85724 24.84682
# Shear Modulus (GPa) = 14.16680 26.38489 20.27584
#
# Velocity S-wave (km/s) = 2.53478 3.45925 3.03245
# Velocity P-wave (km/s) = 3.60943 5.83368 4.85076
#
# Compressibility (1/GPa) = 0.10166321
#
# Stress axis : x y z
#
# Youngs Moduli (GPa) = 130.83392 10.73418 96.85880
#
# Poissons Ratio (x) = 0.06226 0.27415
# Poissons Ratio (y) = 0.75884 -0.37756
# Poissons Ratio (z) = 0.37031 -0.04184
#
# Static dielectric constant tensor:
#      x y z
#    x 1.763980 0.000000 0.000000 
#    y 0.000000 1.855980 0.000000 
#    z 0.000000 0.000000 1.831630 
# 
# From -- ./inp_files/5684.got.cif
#   From: 2010.05.17/outbox.cif.g08.bks.cpg/sg44_3_cif.got.tgz:5684.got - 2010.06.03 19:37:08.
