data_PCOD9373668
_publ_section_title
;
Structure prediction by ZEFSAII (Michael W. Deem and Ramdas Pophale) SiO2 
 PCOD9373668
Probable space group: I M M 2
;
_chemical_formula_sum "Si O2"
_cell_formula_units_Z 48
_cell_length_a 8.209214
_cell_length_b 24.599266
_cell_length_c 14.293093
_cell_angle_alpha 90.000000
_cell_angle_beta 90.000000
_cell_angle_gamma 90.000000
_cell_volume 2886.356331
_symmetry_space_group_name_H-M "I M M 2"
_symmetry_group_IT_number 44
_symmetry_cell_setting 'orthorhombic'
loop_
_space_group_symop_operation_xyz
x,y,z
-x,-y,z
-x,y,z
x,-y,z
1/2+x,1/2+y,1/2+z
1/2-x,1/2-y,1/2+z
1/2-x,1/2+y,1/2+z
1/2+x,1/2-y,1/2+z
loop_
_atom_site_type_symbol
_atom_site_label
_atom_site_fract_x
_atom_site_fract_y
_atom_site_fract_z
Si Si1 0.305168 0.166475 0.854370
Si Si2 0.197130 0.666405 0.931312
Si Si3 0.303009 0.773083 0.038135
Si Si4 0.696268 0.226976 0.248242
Si Si5 0.694854 0.438426 0.249169
Si Si6 0.303560 0.061260 0.537967
O O1 0.500000 0.168732 0.853238
O O2 0.241693 0.212805 0.783551
O O3 0.251190 0.107474 0.820705
O O4 0.248194 0.184668 0.957963
O O5 0.254972 0.685516 0.828723
O O6 0.000000 0.665240 0.929365
O O7 0.249343 0.713816 0.002483
O O8 0.255889 0.608298 0.968652
O O9 0.500000 0.774104 0.039688
O O10 0.243325 0.783412 0.143291
O O11 0.500000 0.223667 0.246401
O O12 0.500000 0.438488 0.246490
O O13 0.751059 0.500000 0.271676
O O14 0.757340 0.425313 0.144778
O O15 0.500000 0.060285 0.532562
O O16 0.243528 0.000000 0.517957
#
# Coordination Sequence:
#
# PCOD9373668 Si02
#       6
#     8   8   8   8   8   8
#     4  10  19  30  45  66  90 115 145 180 218 258
#     4   9  17  28  44  65  88 115 146 179 215 256
#     4   9  18  30  44  63  88 116 144 177 216 258
#     4   9  17  30  46  64  89 119 148 178 214 257
#     4  10  20  32  46  65  88 115 146 178 215 260
#     4   9  17  29  45  66  91 117 145 179 218 257
#
# _framework density 16.629964999999999
#
# number of rings (size 3 to 8) (size 9 to 14) (size 15 to 20)
#    0.000    2.667    0.000    2.000    0.000    5.667 
#    0.000    0.000    0.000    1.000    0.000    4.667 
#    0.000    2.667    0.000    0.000    0.000    0.000 
#
# Total GULP energy -133777.101518 kJ/mol
# GULP energy per Si atom -5574.045897 kJ/mol
# Density = 1.659211 g / cm^3
# Si number density = 16.629965 Si / 1000 Ang^3
#
#
#
# Elastic Constant Matrix: (Units=GPa)
#
#
# Indices 1 2 3 4 5 6 
#
# 1 5.1629 7.4316 10.2854 0.0000 0.0000 0.0000
# 2 7.4316 126.0852 90.5043 0.0000 0.0000 0.0000
# 3 10.2854 90.5043 144.8061 0.0000 0.0000 0.0000
# 4 0.0000 0.0000 0.0000 22.5786 0.0000 0.0000
# 5 0.0000 0.0000 0.0000 0.0000 12.3301 0.0000
# 6 0.0000 0.0000 0.0000 0.0000 0.0000 16.3954
#
#
#
# Elastic Compliance Matrix: (Units=1/GPa)
#
#
# Indices 1 2 3 4 5 6 
#
# 1 0.226355 -0.003266 -0.014036 0.000000 0.000000 0.000000
# 2 -0.003266 0.014432 -0.008788 0.000000 0.000000 0.000000
# 3 -0.014036 -0.008788 0.013395 0.000000 0.000000 0.000000
# 4 0.000000 0.000000 0.000000 0.044290 0.000000 0.000000
# 5 0.000000 0.000000 0.000000 0.000000 0.081102 0.000000
# 6 0.000000 0.000000 0.000000 0.000000 0.000000 0.060993
#
#
# Mechanical properties :
#
#
# Convention : Reuss Voigt Hill
#
# Bulk Modulus (GPa) = 4.95048 54.72186 29.83617
# Shear Modulus (GPa) = 8.92729 21.44968 15.18848
#
# Velocity S-wave (km/s) = 2.31945 3.59530 3.02540
# Velocity P-wave (km/s) = 3.18692 7.08604 5.49402
#
# Compressibility (1/GPa) = 0.20200052
#
# Stress axis : x y z
#
# Youngs Moduli (GPa) = 4.41785 69.29269 74.65407
#
# Poissons Ratio (x) = 0.22634 1.04785
# Poissons Ratio (y) = 0.01443 0.65604
# Poissons Ratio (z) = 0.06201 0.60893
#
# Static dielectric constant tensor:
#      x y z
#    x 1.579430 0.000000 0.000000 
#    y 0.000000 1.560940 0.000000 
#    z 0.000000 0.000000 1.567730 
# 
# From -- ./inp_files/11164.got.cif
#   From: 2010.05.17/outbox.cif.g08.bks.cpg/sg44_6_cif.got.tgz:11164.got - 2010.06.03 19:37:08.
