data_PCOD9373164
_publ_section_title
;
Structure prediction by ZEFSAII (Michael W. Deem and Ramdas Pophale) SiO2 
 PCOD9373164
Probable space group: I M M 2
;
_chemical_formula_sum "Si O2"
_cell_formula_units_Z 56
_cell_length_a 22.840591
_cell_length_b 8.700650
_cell_length_c 18.362982
_cell_angle_alpha 90.000000
_cell_angle_beta 90.000000
_cell_angle_gamma 90.000000
_cell_volume 3649.238468
_symmetry_space_group_name_H-M "I M M 2"
_symmetry_group_IT_number 44
_symmetry_cell_setting 'orthorhombic'
loop_
_space_group_symop_operation_xyz
x,y,z
-x,-y,z
-x,y,z
x,-y,z
1/2+x,1/2+y,1/2+z
1/2-x,1/2-y,1/2+z
1/2-x,1/2+y,1/2+z
1/2+x,1/2-y,1/2+z
loop_
_atom_site_type_symbol
_atom_site_label
_atom_site_fract_x
_atom_site_fract_y
_atom_site_fract_z
Si Si1 0.815683 0.817449 0.242720
Si Si2 0.932117 0.814669 0.526461
Si Si3 0.845114 0.814833 0.398403
Si Si4 0.780440 0.182688 0.946681
Si Si5 0.720827 0.818214 0.600083
Si Si6 0.309853 0.683859 0.289152
Si Si7 0.847050 0.683066 0.647115
O O1 0.854292 0.774763 0.313267
O O2 0.821762 0.735082 0.165304
O O3 0.750668 0.768976 0.268899
O O4 0.818526 0.000000 0.231708
O O5 0.897986 0.775115 0.451950
O O6 0.897201 0.738117 0.592576
O O7 0.000000 0.770523 0.524381
O O8 0.928630 0.000000 0.534615
O O9 0.785702 0.736527 0.427394
O O10 0.836059 0.000000 0.401361
O O11 0.818971 0.216221 0.874549
O O12 0.780027 0.000000 0.958189
O O13 0.799066 0.265217 0.020530
O O14 0.784584 0.742275 0.615407
O O15 0.728499 0.000000 0.602619
O O16 0.302041 0.500000 0.281243
O O17 0.353697 0.743908 0.227612
O O18 0.845025 0.500000 0.652133
#
# Coordination Sequence:
#
# PCOD9373164 Si02
#       7
#     8   8   8   8   8   8   8
#     4   9  16  26  40  59  82 109 144 177 212 256
#     4  10  20  33  48  65  86 116 153 188 223 261
#     4   9  17  29  44  60  82 114 145 180 219 257
#     4  10  18  27  42  64  87 114 144 177 214 258
#     4  11  19  27  41  61  87 117 146 175 214 261
#     4   9  17  28  42  60  83 111 143 174 214 263
#     4  11  20  30  44  61  84 114 148 184 222 257
#
# _framework density 15.345667000000001
#
# number of rings (size 3 to 8) (size 9 to 14) (size 15 to 20)
#    0.000    2.143    1.429    5.571    0.000    2.571 
#    0.000    0.000    0.000    0.000    0.000    0.000 
#    0.000    1.143    0.000    8.857    0.000    2.143 
#
# Total GULP energy -156007.753511 kJ/mol
# GULP energy per Si atom -5571.705483 kJ/mol
# Density = 1.531074 g / cm^3
# Si number density = 15.345667 Si / 1000 Ang^3
#
#
#
# Elastic Constant Matrix: (Units=GPa)
#
#
# Indices 1 2 3 4 5 6 
#
# 1 43.2578 17.2575 38.8566 0.0000 0.0000 0.0000
# 2 17.2575 51.9919 43.9189 0.0000 0.0000 0.0000
# 3 38.8566 43.9189 157.1630 0.0000 0.0000 0.0000
# 4 0.0000 0.0000 0.0000 26.2716 0.0000 0.0000
# 5 0.0000 0.0000 0.0000 0.0000 12.5936 0.0000
# 6 0.0000 0.0000 0.0000 0.0000 0.0000 10.0331
#
#
#
# Elastic Compliance Matrix: (Units=1/GPa)
#
#
# Indices 1 2 3 4 5 6 
#
# 1 0.030656 -0.004939 -0.006199 0.000000 0.000000 0.000000
# 2 -0.004939 0.025973 -0.006037 0.000000 0.000000 0.000000
# 3 -0.006199 -0.006037 0.009582 0.000000 0.000000 0.000000
# 4 0.000000 0.000000 0.000000 0.038064 0.000000 0.000000
# 5 0.000000 0.000000 0.000000 0.000000 0.079406 0.000000
# 6 0.000000 0.000000 0.000000 0.000000 0.000000 0.099671
#
#
# Mechanical properties :
#
#
# Convention : Reuss Voigt Hill
#
# Bulk Modulus (GPa) = 31.38625 50.27545 40.83085
# Shear Modulus (GPa) = 15.22897 19.93829 17.58363
#
# Velocity S-wave (km/s) = 3.15365 3.60846 3.38869
# Velocity P-wave (km/s) = 5.81016 7.08480 6.47890
#
# Compressibility (1/GPa) = 0.03186109
#
# Stress axis : x y z
#
# Youngs Moduli (GPa) = 32.62001 38.50201 104.35709
#
# Poissons Ratio (x) = 0.19016 0.64692
# Poissons Ratio (y) = 0.16111 0.62999
# Poissons Ratio (z) = 0.20222 0.23243
#
# Static dielectric constant tensor:
#      x y z
#    x 1.467540 0.000000 0.000000 
#    y 0.000000 1.513860 0.000000 
#    z 0.000000 0.000000 1.575450 
# 
# From -- ./inp_files/20698.got.cif
#   From: 2010.05.17/outbox.cif.g08.bks.cpg/sg44_11_cif.got.tgz:20698.got - 2010.06.03 19:37:08.
