data_PCOD9373736
_publ_section_title
;
Structure prediction by ZEFSAII (Michael W. Deem and Ramdas Pophale) SiO2 
 PCOD9373736
Probable space group: I M M 2
;
_chemical_formula_sum "Si O2"
_cell_formula_units_Z 64
_cell_length_a 17.026548
_cell_length_b 7.705381
_cell_length_c 22.626588
_cell_angle_alpha 90.000000
_cell_angle_beta 90.000000
_cell_angle_gamma 90.000000
_cell_volume 2968.518732
_symmetry_space_group_name_H-M "I M M 2"
_symmetry_group_IT_number 44
_symmetry_cell_setting 'orthorhombic'
loop_
_space_group_symop_operation_xyz
x,y,z
-x,-y,z
-x,y,z
x,-y,z
1/2+x,1/2+y,1/2+z
1/2-x,1/2-y,1/2+z
1/2-x,1/2+y,1/2+z
1/2+x,1/2-y,1/2+z
loop_
_atom_site_type_symbol
_atom_site_label
_atom_site_fract_x
_atom_site_fract_y
_atom_site_fract_z
Si Si1 0.295230 0.291418 0.983160
Si Si2 0.410513 0.299006 0.080963
Si Si3 0.878825 0.292829 0.023595
Si Si4 0.082518 0.204877 0.892132
Si Si5 0.748114 0.795950 0.854467
Si Si6 0.586788 0.294990 0.657470
Si Si7 0.262954 0.299342 0.729065
Si Si8 0.912126 0.300921 0.714163
O O1 0.301485 0.500000 0.979255
O O2 0.295946 0.225073 0.916531
O O3 0.359643 0.224876 0.028254
O O4 0.212343 0.250135 0.013597
O O5 0.500000 0.302643 0.061468
O O6 0.385689 0.500000 0.092637
O O7 0.407164 0.202829 0.143001
O O8 0.889498 0.500000 0.024146
O O9 0.906356 0.224380 0.086607
O O10 0.916106 0.224333 0.963047
O O11 0.163754 0.277603 0.866896
O O12 0.000000 0.279818 0.869954
O O13 0.083294 0.000000 0.878871
O O14 0.711250 0.708524 0.797296
O O15 0.753254 0.000000 0.841964
O O16 0.500000 0.224333 0.674846
O O17 0.585987 0.500000 0.671622
O O18 0.666746 0.223954 0.688399
O O19 0.252331 0.500000 0.710031
O O20 0.173565 0.222103 0.730580
O O21 0.913417 0.500000 0.735537
O O22 0.000000 0.224377 0.728409
#
# Coordination Sequence:
#
# PCOD9373736 Si02
#       8
#     8   8   8   8   8   8   8   8
#     4   9  18  33  51  72 101 133 162 197 245 298
#     4   9  17  30  50  76 102 128 161 200 242 291
#     4  10  19  30  49  78 106 130 159 199 248 297
#     4   9  18  33  51  72 101 133 161 193 238 295
#     4  10  21  35  52  73  95 125 168 210 246 289
#     4  10  21  36  53  73  98 132 172 208 245 293
#     4  10  21  37  54  71  97 134 171 207 248 293
#     4   9  18  32  51  77 106 133 161 196 244 301
#
# _framework density 21.559574000000001
#
# number of rings (size 3 to 8) (size 9 to 14) (size 15 to 20)
#    0.000    2.500    0.000    1.875    0.000    5.000 
#    0.000    0.625    0.000    3.750    0.000    0.000 
#    0.000    0.000    0.000    0.000    0.000    0.000 
#
# Total GULP energy -178409.317573 kJ/mol
# GULP energy per Si atom -5575.291174 kJ/mol
# Density = 2.151050 g / cm^3
# Si number density = 21.559574 Si / 1000 Ang^3
#
#
#
# Elastic Constant Matrix: (Units=GPa)
#
#
# Indices 1 2 3 4 5 6 
#
# 1 76.0735 15.7333 50.3675 0.0000 0.0000 0.0000
# 2 15.7333 36.5936 -4.5462 0.0000 0.0000 0.0000
# 3 50.3675 -4.5462 98.0624 0.0000 0.0000 0.0000
# 4 0.0000 0.0000 0.0000 18.7436 0.0000 0.0000
# 5 0.0000 0.0000 0.0000 0.0000 18.3698 0.0000
# 6 0.0000 0.0000 0.0000 0.0000 0.0000 -1.1748
#
#
#
# Elastic Compliance Matrix: (Units=1/GPa)
#
#
# Indices 1 2 3 4 5 6 
#
# 1 0.024254 -0.012045 -0.013016 0.000000 0.000000 0.000000
# 2 -0.012045 0.033467 0.007738 0.000000 0.000000 0.000000
# 3 -0.013016 0.007738 0.017242 0.000000 0.000000 0.000000
# 4 0.000000 0.000000 0.000000 0.053351 0.000000 0.000000
# 5 0.000000 0.000000 0.000000 0.000000 0.054437 0.000000
# 6 0.000000 0.000000 0.000000 0.000000 0.000000 -0.851216
#
#
# Mechanical properties :
#
#
# Convention : Reuss Voigt Hill
#
# Bulk Modulus (GPa) = 24.80315 37.09318 30.94817
# Shear Modulus (GPa) = -8.05958 17.13271 4.53656
#
# Velocity S-wave (km/s) = -1.93556 2.82204 1.45216
# Velocity P-wave (km/s) = 2.55622 5.27834 4.14700
#
# Compressibility (1/GPa) = 0.04031746
#
# Stress axis : x y z
#
# Youngs Moduli (GPa) = 41.23030 29.87999 57.99900
#
# Poissons Ratio (x) = 0.35990 0.75491
# Poissons Ratio (y) = 0.49662 -0.44881
# Poissons Ratio (z) = 0.53665 -0.23122
#
# Static dielectric constant tensor:
#      x y z
#    x 1.853780 0.000000 0.000000 
#    y 0.000000 1.804970 0.000000 
#    z 0.000000 0.000000 1.750510 
# 
# From -- ./inp_files/23282.got.cif
#   From: 2010.05.17/outbox.cif.g08.bks.cpg/sg44_12_cif.got.tgz:23282.got - 2010.06.03 19:37:08.
