data_PCOD9373122
_publ_section_title
;
Structure prediction by ZEFSAII (Michael W. Deem and Ramdas Pophale) SiO2 
 PCOD9373122
Probable space group: I M M 2
;
_chemical_formula_sum "Si O2"
_cell_formula_units_Z 48
_cell_length_a 14.904915
_cell_length_b 20.353804
_cell_length_c 9.272108
_cell_angle_alpha 90.000000
_cell_angle_beta 90.000000
_cell_angle_gamma 90.000000
_cell_volume 2812.895339
_symmetry_space_group_name_H-M "I M M 2"
_symmetry_group_IT_number 44
_symmetry_cell_setting 'orthorhombic'
loop_
_space_group_symop_operation_xyz
x,y,z
-x,-y,z
-x,y,z
x,-y,z
1/2+x,1/2+y,1/2+z
1/2-x,1/2-y,1/2+z
1/2-x,1/2+y,1/2+z
1/2+x,1/2-y,1/2+z
loop_
_atom_site_type_symbol
_atom_site_label
_atom_site_fract_x
_atom_site_fract_y
_atom_site_fract_z
Si Si1 0.806411 0.075640 0.315550
Si Si2 0.000000 0.792728 0.652030
Si Si3 0.702199 0.314053 0.264424
Si Si4 0.183342 0.077107 0.980580
Si Si5 0.000000 0.297064 0.889752
Si Si6 0.000000 0.137578 0.350921
Si Si7 0.305417 0.812954 0.470250
Si Si8 0.000000 0.153556 0.029324
O O1 0.750320 0.127379 0.405214
O O2 0.910715 0.093081 0.345764
O O3 0.790356 0.000000 0.353720
O O4 0.782923 0.084044 0.145453
O O5 0.901334 0.819436 0.705036
O O6 0.000000 0.717992 0.716824
O O7 0.000000 0.811863 0.483461
O O8 0.727448 0.378749 0.356364
O O9 0.707403 0.252675 0.374034
O O10 0.768533 0.301969 0.130851
O O11 0.181065 0.000000 0.945823
O O12 0.084824 0.109033 0.993244
O O13 0.089699 0.328513 0.950779
O O14 0.000000 0.221714 0.946369
O O15 0.000000 0.172949 0.196646
#
# Coordination Sequence:
#
# PCOD9373122 Si02
#       8
#     8   4   8   8   4   4   8   4
#     4  10  21  36  56  83 113 147 184 225 281 337
#     4  10  18  34  50  82 114 138 178 216 269 334
#     4  11  21  35  55  82 111 149 184 227 277 334
#     4  10  19  34  55  81 113 146 176 219 280 346
#     4  10  22  37  53  74 114 149 187 229 268 326
#     4  10  19  32  54  86 118 146 163 224 279 347
#     4  11  22  36  57  77 110 148 190 232 273 322
#     4  10  17  33  52  80 116 147 179 203 274 349
#
# _framework density 17.064268999999999
#
# number of rings (size 3 to 8) (size 9 to 14) (size 15 to 20)
#    0.000    1.667    5.000    1.500    2.333    2.667 
#    0.000    0.417    0.000    0.000    0.000    1.167 
#    0.000    0.000    0.000    0.000    0.000    0.000 
#
# Total GULP energy -133657.507115 kJ/mol
# GULP energy per Si atom -5569.062796 kJ/mol
# Density = 1.702543 g / cm^3
# Si number density = 17.064269 Si / 1000 Ang^3
#
#
#
# Elastic Constant Matrix: (Units=GPa)
#
#
# Indices 1 2 3 4 5 6 
#
# 1 71.7361 37.2837 36.9749 0.0000 0.0000 0.0000
# 2 37.2837 67.4912 47.5189 0.0000 0.0000 0.0000
# 3 36.9749 47.5189 122.2933 0.0000 0.0000 0.0000
# 4 0.0000 0.0000 0.0000 31.1667 0.0000 0.0000
# 5 0.0000 0.0000 0.0000 0.0000 20.6820 0.0000
# 6 0.0000 0.0000 0.0000 0.0000 0.0000 3.2180
#
#
#
# Elastic Compliance Matrix: (Units=1/GPa)
#
#
# Indices 1 2 3 4 5 6 
#
# 1 0.020062 -0.009378 -0.002422 0.000000 0.000000 0.000000
# 2 -0.009378 0.024780 -0.006793 0.000000 0.000000 0.000000
# 3 -0.002422 -0.006793 0.011549 0.000000 0.000000 0.000000
# 4 0.000000 0.000000 0.000000 0.032086 0.000000 0.000000
# 5 0.000000 0.000000 0.000000 0.000000 0.048351 0.000000
# 6 0.000000 0.000000 0.000000 0.000000 0.000000 0.310756
#
#
# Mechanical properties :
#
#
# Convention : Reuss Voigt Hill
#
# Bulk Modulus (GPa) = 52.06843 56.11953 54.09398
# Shear Modulus (GPa) = 10.17974 20.32954 15.25464
#
# Velocity S-wave (km/s) = 2.44509 3.45534 2.99315
# Velocity P-wave (km/s) = 6.20892 6.99126 6.61167
#
# Compressibility (1/GPa) = 0.01920550
#
# Stress axis : x y z
#
# Youngs Moduli (GPa) = 49.84508 40.35465 86.58735
#
# Poissons Ratio (x) = 0.37843 0.20971
# Poissons Ratio (y) = 0.46743 0.58823
# Poissons Ratio (z) = 0.12072 0.27415
#
# Static dielectric constant tensor:
#      x y z
#    x 1.599310 0.000000 0.000000 
#    y 0.000000 1.541580 0.000000 
#    z 0.000000 0.000000 1.636410 
# 
# From -- ./inp_files/7166.got.cif
#   From: 2010.05.17/outbox.cif.g08.bks.cpg/sg44_4_cif.got.tgz:7166.got - 2010.06.03 19:37:08.
