data_PCOD9373809
_publ_section_title
;
Structure prediction by ZEFSAII (Michael W. Deem and Ramdas Pophale) SiO2 
 PCOD9373809
Probable space group: I M M 2
;
_chemical_formula_sum "Si O2"
_cell_formula_units_Z 64
_cell_length_a 30.733977
_cell_length_b 8.828861
_cell_length_c 14.652696
_cell_angle_alpha 90.000000
_cell_angle_beta 90.000000
_cell_angle_gamma 90.000000
_cell_volume 3975.950609
_symmetry_space_group_name_H-M "I M M 2"
_symmetry_group_IT_number 44
_symmetry_cell_setting 'orthorhombic'
loop_
_space_group_symop_operation_xyz
x,y,z
-x,-y,z
-x,y,z
x,-y,z
1/2+x,1/2+y,1/2+z
1/2-x,1/2-y,1/2+z
1/2-x,1/2+y,1/2+z
1/2+x,1/2-y,1/2+z
loop_
_atom_site_type_symbol
_atom_site_label
_atom_site_fract_x
_atom_site_fract_y
_atom_site_fract_z
Si Si1 0.365360 0.323354 0.611790
Si Si2 0.788613 0.319413 0.599275
Si Si3 0.206400 0.320087 0.988513
Si Si4 0.725129 0.322637 0.296823
Si Si5 0.685792 0.670197 0.802329
Si Si6 0.050155 0.680896 0.411914
Si Si7 0.133268 0.175948 0.489414
Si Si8 0.450042 0.318282 0.710940
O O1 0.365741 0.500000 0.582500
O O2 0.337202 0.226640 0.541984
O O3 0.340372 0.317463 0.708731
O O4 0.414280 0.273035 0.636207
O O5 0.784252 0.500000 0.598176
O O6 0.747918 0.249736 0.542655
O O7 0.787286 0.257262 0.702206
O O8 0.833522 0.266970 0.552927
O O9 0.211831 0.500000 0.986129
O O10 0.205147 0.252772 0.886873
O O11 0.715340 0.500000 0.293017
O O12 0.776801 0.293779 0.306815
O O13 0.705814 0.500000 0.805290
O O14 0.654303 0.682571 0.888278
O O15 0.054998 0.500000 0.413226
O O16 0.085339 0.755788 0.478301
O O17 0.057669 0.739728 0.308476
O O18 0.000000 0.719253 0.434698
O O19 0.131930 0.000000 0.517140
O O20 0.500000 0.288402 0.684107
O O21 0.444970 0.500000 0.724553
#
# Coordination Sequence:
#
# PCOD9373809 Si02
#       8
#     8   8   8   8   8   8   8   8
#     4  10  19  33  51  75 105 140 179 217 260 311
#     4  12  24  38  55  77 106 139 176 220 264 314
#     4  12  24  37  53  76 105 140 180 219 261 313
#     4  12  24  38  55  75 102 140 180 222 265 309
#     4  10  19  31  50  74 106 141 176 218 259 304
#     4  10  20  32  48  74 108 142 177 218 264 314
#     4  11  21  35  54  77 105 141 182 219 260 317
#     4   9  17  31  51  74 103 139 177 218 265 315
#
# _framework density 16.096779999999999
#
# number of rings (size 3 to 8) (size 9 to 14) (size 15 to 20)
#    0.000    1.250    3.750    4.125    0.000    1.750 
#    0.000    0.000    0.000    0.000    0.000    0.875 
#    0.000    5.000    0.000    0.000    0.000    0.000 
#
# Total GULP energy -178718.434482 kJ/mol
# GULP energy per Si atom -5584.951078 kJ/mol
# Density = 1.606014 g / cm^3
# Si number density = 16.096780 Si / 1000 Ang^3
#
#
#
# Elastic Constant Matrix: (Units=GPa)
#
#
# Indices 1 2 3 4 5 6 
#
# 1 96.1317 44.6928 26.7631 0.0000 0.0000 0.0000
# 2 44.6928 113.6566 41.2491 0.0000 0.0000 0.0000
# 3 26.7631 41.2491 73.7107 0.0000 0.0000 0.0000
# 4 0.0000 0.0000 0.0000 24.0647 0.0000 0.0000
# 5 0.0000 0.0000 0.0000 0.0000 20.8153 0.0000
# 6 0.0000 0.0000 0.0000 0.0000 0.0000 22.6544
#
#
#
# Elastic Compliance Matrix: (Units=1/GPa)
#
#
# Indices 1 2 3 4 5 6 
#
# 1 0.013044 -0.004279 -0.002341 0.000000 0.000000 0.000000
# 2 -0.004279 0.012445 -0.005410 0.000000 0.000000 0.000000
# 3 -0.002341 -0.005410 0.017444 0.000000 0.000000 0.000000
# 4 0.000000 0.000000 0.000000 0.041555 0.000000 0.000000
# 5 0.000000 0.000000 0.000000 0.000000 0.048041 0.000000
# 6 0.000000 0.000000 0.000000 0.000000 0.000000 0.044142
#
#
# Mechanical properties :
#
#
# Convention : Reuss Voigt Hill
#
# Bulk Modulus (GPa) = 52.99189 56.54542 54.76865
# Shear Modulus (GPa) = 24.15191 24.89315 24.52253
#
# Velocity S-wave (km/s) = 3.87773 3.93678 3.90737
# Velocity P-wave (km/s) = 7.28294 7.47456 7.37937
#
# Compressibility (1/GPa) = 0.01887081
#
# Stress axis : x y z
#
# Youngs Moduli (GPa) = 76.66504 80.35462 57.32533
#
# Poissons Ratio (x) = 0.34388 0.13421
# Poissons Ratio (y) = 0.32809 0.31015
# Poissons Ratio (z) = 0.17948 0.43475
#
# Static dielectric constant tensor:
#      x y z
#    x 1.549440 0.000000 0.000000 
#    y 0.000000 1.553190 0.000000 
#    z 0.000000 0.000000 1.523830 
# 
# From -- ./inp_files/19705.got.cif
#   From: 2010.05.17/outbox.cif.g08.bks.cpg/sg44_10_cif.got.tgz:19705.got - 2010.06.03 19:37:08.
