data_PCOD9373305
_publ_section_title
;
Structure prediction by ZEFSAII (Michael W. Deem and Ramdas Pophale) SiO2 
 PCOD9373305
Probable space group: I M M 2
;
_chemical_formula_sum "Si O2"
_cell_formula_units_Z 64
_cell_length_a 28.295423
_cell_length_b 8.884014
_cell_length_c 14.926645
_cell_angle_alpha 90.000000
_cell_angle_beta 90.000000
_cell_angle_gamma 90.000000
_cell_volume 3752.214256
_symmetry_space_group_name_H-M "I M M 2"
_symmetry_group_IT_number 44
_symmetry_cell_setting 'orthorhombic'
loop_
_space_group_symop_operation_xyz
x,y,z
-x,-y,z
-x,y,z
x,-y,z
1/2+x,1/2+y,1/2+z
1/2-x,1/2-y,1/2+z
1/2-x,1/2+y,1/2+z
1/2+x,1/2-y,1/2+z
loop_
_atom_site_type_symbol
_atom_site_label
_atom_site_fract_x
_atom_site_fract_y
_atom_site_fract_z
Si Si1 0.673907 0.820210 0.232580
Si Si2 0.135884 0.321593 0.100767
Si Si3 0.216063 0.821605 0.222356
Si Si4 0.444055 0.319945 0.720864
Si Si5 0.053869 0.183282 0.425144
Si Si6 0.635954 0.681186 0.057999
Si Si7 0.724053 0.678467 0.930465
Si Si8 0.174415 0.178746 0.925882
O O1 0.728760 0.782841 0.208794
O O2 0.641433 0.758733 0.153511
O O3 0.663288 0.746636 0.328364
O O4 0.671214 0.000000 0.240500
O O5 0.135560 0.500000 0.091805
O O6 0.180613 0.270070 0.160874
O O7 0.089415 0.263711 0.151756
O O8 0.142226 0.246065 0.004027
O O9 0.207057 0.796552 0.328237
O O10 0.209670 0.000000 0.204286
O O11 0.500000 0.294186 0.706775
O O12 0.435796 0.500000 0.714312
O O13 0.432917 0.273027 0.823519
O O14 0.091102 0.231970 0.499514
O O15 0.000000 0.231454 0.442695
O O16 0.054093 0.000000 0.424914
O O17 0.633533 0.500000 0.069014
O O18 0.682663 0.714077 0.999355
O O19 0.735621 0.500000 0.937085
O O20 0.771587 0.771086 0.946332
O O21 0.171150 0.000000 0.924052
#
# Coordination Sequence:
#
# PCOD9373305 Si02
#       8
#     8   8   8   8   8   8   8   8
#     4  10  21  36  51  70 100 135 170 212 258 299
#     4  12  23  33  50  76 106 137 169 208 255 304
#     4   9  18  33  51  72 101 137 174 209 247 296
#     4   9  18  35  58  80 103 134 171 208 249 300
#     4   8  15  30  53  79 105 133 166 204 244 289
#     4  10  18  29  50  77 102 132 170 207 245 295
#     4   9  18  32  50  74 105 136 168 210 255 297
#     4  11  22  36  53  71  96 132 174 215 253 300
#
# _framework density 17.056595999999999
#
# number of rings (size 3 to 8) (size 9 to 14) (size 15 to 20)
#    0.000    2.250    0.000    5.625    0.000    7.250 
#    0.000    1.875    0.000    1.875    0.000    1.750 
#    0.000    0.000    0.000    0.000    0.000    0.000 
#
# Total GULP energy -178670.411215 kJ/mol
# GULP energy per Si atom -5583.450350 kJ/mol
# Density = 1.701777 g / cm^3
# Si number density = 17.056596 Si / 1000 Ang^3
#
#
#
# Elastic Constant Matrix: (Units=GPa)
#
#
# Indices 1 2 3 4 5 6 
#
# 1 74.2796 48.8960 83.6532 0.0000 0.0000 0.0000
# 2 48.8960 65.5169 62.8863 0.0000 0.0000 0.0000
# 3 83.6532 62.8863 129.3455 0.0000 0.0000 0.0000
# 4 0.0000 0.0000 0.0000 26.8442 0.0000 0.0000
# 5 0.0000 0.0000 0.0000 0.0000 28.6681 0.0000
# 6 0.0000 0.0000 0.0000 0.0000 0.0000 20.2954
#
#
#
# Elastic Compliance Matrix: (Units=1/GPa)
#
#
# Indices 1 2 3 4 5 6 
#
# 1 0.054820 -0.012903 -0.029181 0.000000 0.000000 0.000000
# 2 -0.012903 0.031656 -0.007045 0.000000 0.000000 0.000000
# 3 -0.029181 -0.007045 0.030029 0.000000 0.000000 0.000000
# 4 0.000000 0.000000 0.000000 0.037252 0.000000 0.000000
# 5 0.000000 0.000000 0.000000 0.000000 0.034882 0.000000
# 6 0.000000 0.000000 0.000000 0.000000 0.000000 0.049272
#
#
# Mechanical properties :
#
#
# Convention : Reuss Voigt Hill
#
# Bulk Modulus (GPa) = 54.80868 73.33479 64.07174
# Shear Modulus (GPa) = 14.60911 20.07529 17.34220
#
# Velocity S-wave (km/s) = 2.92979 3.43444 3.19210
# Velocity P-wave (km/s) = 6.60667 7.66912 7.15764
#
# Compressibility (1/GPa) = 0.01824528
#
# Stress axis : x y z
#
# Youngs Moduli (GPa) = 18.24160 31.58973 33.30107
#
# Poissons Ratio (x) = 0.40762 0.97175
# Poissons Ratio (y) = 0.23538 0.23462
# Poissons Ratio (z) = 0.53230 0.22257
#
# Static dielectric constant tensor:
#      x y z
#    x 1.566540 0.000000 0.000000 
#    y 0.000000 1.569780 0.000000 
#    z 0.000000 0.000000 1.572760 
# 
# From -- ./inp_files/19693.got.cif
#   From: 2010.05.17/outbox.cif.g08.bks.cpg/sg44_10_cif.got.tgz:19693.got - 2010.06.03 19:37:08.
