data_PCOD9373341
_publ_section_title
;
Structure prediction by ZEFSAII (Michael W. Deem and Ramdas Pophale) SiO2 
 PCOD9373341
Probable space group: I M M 2
;
_chemical_formula_sum "Si O2"
_cell_formula_units_Z 48
_cell_length_a 17.088202
_cell_length_b 7.898454
_cell_length_c 19.350709
_cell_angle_alpha 90.000000
_cell_angle_beta 90.000000
_cell_angle_gamma 90.000000
_cell_volume 2611.772497
_symmetry_space_group_name_H-M "I M M 2"
_symmetry_group_IT_number 44
_symmetry_cell_setting 'orthorhombic'
loop_
_space_group_symop_operation_xyz
x,y,z
-x,-y,z
-x,y,z
x,-y,z
1/2+x,1/2+y,1/2+z
1/2-x,1/2-y,1/2+z
1/2-x,1/2+y,1/2+z
1/2+x,1/2-y,1/2+z
loop_
_atom_site_type_symbol
_atom_site_label
_atom_site_fract_x
_atom_site_fract_y
_atom_site_fract_z
Si Si1 0.662267 0.208035 0.841780
Si Si2 0.231291 0.196711 0.963503
Si Si3 0.412588 0.201930 0.555036
Si Si4 0.000000 0.297606 0.571155
Si Si5 0.170920 0.200336 0.593312
Si Si6 0.186561 0.706604 0.185212
Si Si7 0.000000 0.293476 0.412040
O O1 0.731041 0.267289 0.893298
O O2 0.671917 0.264323 0.762928
O O3 0.578807 0.260067 0.873284
O O4 0.663340 0.000000 0.842520
O O5 0.216173 0.000000 0.951933
O O6 0.151678 0.268982 0.995559
O O7 0.297454 0.215048 0.023047
O O8 0.500000 0.268911 0.541959
O O9 0.375594 0.265864 0.627374
O O10 0.418425 0.000000 0.562484
O O11 0.080469 0.237857 0.604964
O O12 0.000000 0.500000 0.570179
O O13 0.000000 0.235940 0.491466
O O14 0.228609 0.254272 0.654879
O O15 0.182053 0.000000 0.583516
O O16 0.183067 0.500000 0.186567
O O17 0.000000 0.500000 0.412966
#
# Coordination Sequence:
#
# PCOD9373341 Si02
#       7
#     8   8   8   4   8   8   4
#     4   9  16  27  46  73 100 125 157 201 243 284
#     4  10  18  30  50  73  98 129 164 202 245 289
#     4   9  18  32  50  73  97 125 162 204 247 291
#     4  11  19  31  51  77 101 126 165 206 242 289
#     4  10  19  32  49  73 101 132 165 200 245 292
#     4   8  16  29  47  71  98 125 159 200 243 289
#     4   9  16  25  43  75 103 120 149 194 244 285
#
# _framework density 18.378325
#
# number of rings (size 3 to 8) (size 9 to 14) (size 15 to 20)
#    0.000    2.667    1.667    2.250    1.167    0.333 
#    0.000    0.000    1.833   10.000    0.000    0.000 
#    0.000    0.000    0.000    0.000    0.000    0.000 
#
# Total GULP energy -133805.151863 kJ/mol
# GULP energy per Si atom -5575.214661 kJ/mol
# Density = 1.833650 g / cm^3
# Si number density = 18.378325 Si / 1000 Ang^3
#
#
#
# Elastic Constant Matrix: (Units=GPa)
#
#
# Indices 1 2 3 4 5 6 
#
# 1 167.2714 5.1384 69.3415 0.0000 0.0000 0.0000
# 2 5.1384 16.2508 9.9249 0.0000 0.0000 0.0000
# 3 69.3415 9.9249 106.2295 0.0000 0.0000 0.0000
# 4 0.0000 0.0000 0.0000 13.1980 0.0000 0.0000
# 5 0.0000 0.0000 0.0000 0.0000 17.8137 0.0000
# 6 0.0000 0.0000 0.0000 0.0000 0.0000 20.9109
#
#
#
# Elastic Compliance Matrix: (Units=1/GPa)
#
#
# Indices 1 2 3 4 5 6 
#
# 1 0.008204 0.000717 -0.005422 0.000000 0.000000 0.000000
# 2 0.000717 0.065322 -0.006571 0.000000 0.000000 0.000000
# 3 -0.005422 -0.006571 0.013567 0.000000 0.000000 0.000000
# 4 0.000000 0.000000 0.000000 0.075769 0.000000 0.000000
# 5 0.000000 0.000000 0.000000 0.000000 0.056137 0.000000
# 6 0.000000 0.000000 0.000000 0.000000 0.000000 0.047822
#
#
# Mechanical properties :
#
#
# Convention : Reuss Voigt Hill
#
# Bulk Modulus (GPa) = 15.49413 50.95126 33.22269
# Shear Modulus (GPa) = 16.08307 24.07431 20.07869
#
# Velocity S-wave (km/s) = 2.96144 3.62322 3.30892
# Velocity P-wave (km/s) = 4.48803 6.72959 5.71969
#
# Compressibility (1/GPa) = 0.06454058
#
# Stress axis : x y z
#
# Youngs Moduli (GPa) = 121.89136 15.30884 73.70879
#
# Poissons Ratio (x) = -0.01098 0.39967
# Poissons Ratio (y) = -0.08745 0.48436
# Poissons Ratio (z) = 0.66092 0.10060
#
# Static dielectric constant tensor:
#      x y z
#    x 1.639980 0.000000 0.000000 
#    y 0.000000 1.679900 0.000000 
#    z 0.000000 0.000000 1.616600 
# 
# From -- ./inp_files/24304.got.cif
#   From: 2010.05.17/outbox.cif.g08.bks.cpg/sg44_13_cif.got.tgz:24304.got - 2010.06.03 19:37:08.
