data_PCOD9373454
_publ_section_title
;
Structure prediction by ZEFSAII (Michael W. Deem and Ramdas Pophale) SiO2 
 PCOD9373454
Probable space group: I M M 2
;
_chemical_formula_sum "Si O2"
_cell_formula_units_Z 64
_cell_length_a 7.501005
_cell_length_b 20.364328
_cell_length_c 21.341959
_cell_angle_alpha 90.000000
_cell_angle_beta 90.000000
_cell_angle_gamma 90.000000
_cell_volume 3260.046687
_symmetry_space_group_name_H-M "I M M 2"
_symmetry_group_IT_number 44
_symmetry_cell_setting 'orthorhombic'
loop_
_space_group_symop_operation_xyz
x,y,z
-x,-y,z
-x,y,z
x,-y,z
1/2+x,1/2+y,1/2+z
1/2-x,1/2-y,1/2+z
1/2-x,1/2+y,1/2+z
1/2+x,1/2-y,1/2+z
loop_
_atom_site_type_symbol
_atom_site_label
_atom_site_fract_x
_atom_site_fract_y
_atom_site_fract_z
Si Si1 0.292966 0.072527 0.381470
Si Si2 0.214362 0.212906 0.204909
Si Si3 0.212110 0.927083 0.526336
Si Si4 0.783177 0.072194 0.015226
Si Si5 0.287455 0.208808 0.584187
Si Si6 0.783077 0.927586 0.162076
Si Si7 0.787656 0.288631 0.843554
Si Si8 0.281445 0.709045 0.463389
O O1 0.500000 0.068688 0.362760
O O2 0.287776 0.084627 0.456566
O O3 0.212886 0.137190 0.349898
O O4 0.213333 0.000000 0.369860
O O5 0.280887 0.258377 0.148049
O O6 0.280125 0.137758 0.196758
O O7 0.258154 0.237290 0.274032
O O8 0.000000 0.210473 0.200061
O O9 0.255209 0.867941 0.572768
O O10 0.000000 0.928305 0.518767
O O11 0.271452 0.000000 0.546610
O O12 0.723299 0.134489 0.975575
O O13 0.000000 0.072342 0.014141
O O14 0.723684 0.000000 0.994216
O O15 0.735166 0.079766 0.088574
O O16 0.500000 0.218106 0.584789
O O17 0.222130 0.247613 0.522798
O O18 0.000000 0.928219 0.164917
O O19 0.722844 0.000000 0.183936
O O20 0.720280 0.242433 0.899225
O O21 0.000000 0.294109 0.853560
O O22 0.500000 0.708979 0.463239
#
# Coordination Sequence:
#
# PCOD9373454 Si02
#       8
#     8   8   8   8   8   8   8   8
#     4   9  17  31  50  70  95 133 175 203 233 290
#     4  10  20  32  48  71  99 130 166 205 241 285
#     4  10  20  32  49  76 104 125 153 203 260 302
#     4   8  12  20  40  69  95 116 146 193 240 278
#     4  10  18  32  53  73  94 127 169 207 241 287
#     4   8  13  23  41  67  97 124 149 185 235 281
#     4  10  20  32  46  66  97 134 165 200 245 288
#     4   9  15  27  46  68  93 124 162 199 237 283
#
# _framework density 19.631622
#
# number of rings (size 3 to 8) (size 9 to 14) (size 15 to 20)
#    0.000    2.750    2.500    1.125    0.000    2.250 
#    0.000    0.000    0.000    0.750    0.000    1.750 
#    0.000    1.500    0.000    0.000    0.000    0.000 
#
# Total GULP energy -178509.609291 kJ/mol
# GULP energy per Si atom -5578.425290 kJ/mol
# Density = 1.958694 g / cm^3
# Si number density = 19.631622 Si / 1000 Ang^3
#
#
#
# Elastic Constant Matrix: (Units=GPa)
#
#
# Indices 1 2 3 4 5 6 
#
# 1 51.7690 -1.5989 -1.3073 0.0000 0.0000 0.0000
# 2 -1.5989 132.7888 75.9383 0.0000 0.0000 0.0000
# 3 -1.3073 75.9383 119.9896 0.0000 0.0000 0.0000
# 4 0.0000 0.0000 0.0000 23.5654 0.0000 0.0000
# 5 0.0000 0.0000 0.0000 0.0000 3.1629 0.0000
# 6 0.0000 0.0000 0.0000 0.0000 0.0000 74.0993
#
#
#
# Elastic Compliance Matrix: (Units=1/GPa)
#
#
# Indices 1 2 3 4 5 6 
#
# 1 0.019325 0.000176 0.000099 0.000000 0.000000 0.000000
# 2 0.000176 0.011804 -0.007468 0.000000 0.000000 0.000000
# 3 0.000099 -0.007468 0.013062 0.000000 0.000000 0.000000
# 4 0.000000 0.000000 0.000000 0.042435 0.000000 0.000000
# 5 0.000000 0.000000 0.000000 0.000000 0.316166 0.000000
# 6 0.000000 0.000000 0.000000 0.000000 0.000000 0.013495
#
#
# Mechanical properties :
#
#
# Convention : Reuss Voigt Hill
#
# Bulk Modulus (GPa) = 33.55309 50.06797 41.81053
# Shear Modulus (GPa) = 11.34797 35.59987 23.47392
#
# Velocity S-wave (km/s) = 2.40687 4.26302 3.46167
# Velocity P-wave (km/s) = 4.98522 7.05622 6.10912
#
# Compressibility (1/GPa) = 0.02980352
#
# Stress axis : x y z
#
# Youngs Moduli (GPa) = 51.74769 84.71791 76.55959
#
# Poissons Ratio (x) = -0.01491 -0.00759
# Poissons Ratio (y) = -0.00911 0.57178
# Poissons Ratio (z) = -0.00513 0.63271
#
# Static dielectric constant tensor:
#      x y z
#    x 1.758390 0.000000 0.000000 
#    y 0.000000 1.731780 0.000000 
#    z 0.000000 0.000000 1.664430 
# 
# From -- ./inp_files/23424.got.cif
#   From: 2010.05.17/outbox.cif.g08.bks.cpg/sg44_12_cif.got.tgz:23424.got - 2010.06.03 19:37:08.
