data_PCOD9373955
_publ_section_title
;
Structure prediction by ZEFSAII (Michael W. Deem and Ramdas Pophale) SiO2 
 PCOD9373955
Probable space group: I M M 2
;
_chemical_formula_sum "Si O2"
_cell_formula_units_Z 48
_cell_length_a 7.474890
_cell_length_b 8.360587
_cell_length_c 34.354483
_cell_angle_alpha 90.000000
_cell_angle_beta 90.000000
_cell_angle_gamma 90.000000
_cell_volume 2146.965144
_symmetry_space_group_name_H-M "I M M 2"
_symmetry_group_IT_number 44
_symmetry_cell_setting 'orthorhombic'
loop_
_space_group_symop_operation_xyz
x,y,z
-x,-y,z
-x,y,z
x,-y,z
1/2+x,1/2+y,1/2+z
1/2-x,1/2-y,1/2+z
1/2-x,1/2+y,1/2+z
1/2+x,1/2-y,1/2+z
loop_
_atom_site_type_symbol
_atom_site_label
_atom_site_fract_x
_atom_site_fract_y
_atom_site_fract_z
Si Si1 0.785967 0.500000 0.887130
Si Si2 0.706565 0.181295 0.019748
Si Si3 0.215221 0.000000 0.478571
Si Si4 0.716518 0.321805 0.770427
Si Si5 0.282827 0.183688 0.689581
Si Si6 0.290734 0.326225 0.349655
Si Si7 0.291183 0.310038 0.607953
O O1 0.752618 0.500000 0.932943
O O2 0.713337 0.665188 0.868807
O O3 0.000000 0.500000 0.879818
O O4 0.500000 0.169182 0.007378
O O5 0.709429 0.220811 0.065801
O O6 0.784175 0.000000 0.015123
O O7 0.785279 0.334181 0.997403
O O8 0.000000 0.000000 0.485107
O O9 0.500000 0.317266 0.770120
O O10 0.774347 0.500000 0.781872
O O11 0.778017 0.284408 0.726698
O O12 0.777786 0.199749 0.803283
O O13 0.500000 0.202632 0.687819
O O14 0.216025 0.229910 0.646792
O O15 0.243014 0.000000 0.697674
O O16 0.500000 0.330633 0.360413
O O17 0.213401 0.500000 0.360233
O O18 0.500000 0.264450 0.604406
O O19 0.280942 0.500000 0.614606
#
# Coordination Sequence:
#
# PCOD9373955 Si02
#       7
#     4   8   4   8   8   8   8
#     4  10  22  40  58  82 112 140 174 222 274 326
#     4   9  19  36  55  76 106 141 173 213 268 320
#     4  10  22  38  58  82 108 138 176 220 266 324
#     4  10  19  32  53  79 108 144 186 228 271 320
#     4   9  17  28  44  71 106 141 178 223 269 310
#     4  10  21  38  59  81 109 145 180 219 272 328
#     4   9  17  30  49  73 101 136 180 223 263 311
#
# _framework density 22.357139
#
# number of rings (size 3 to 8) (size 9 to 14) (size 15 to 20)
#    0.000    2.500    0.833    1.000    1.167    5.000 
#    0.000    0.833    0.000    3.000    0.000    0.000 
#    0.000    0.000    0.000    0.000    0.000    0.000 
#
# Total GULP energy -133948.297185 kJ/mol
# GULP energy per Si atom -5581.179049 kJ/mol
# Density = 2.230625 g / cm^3
# Si number density = 22.357139 Si / 1000 Ang^3
#
#
#
# Elastic Constant Matrix: (Units=GPa)
#
#
# Indices 1 2 3 4 5 6 
#
# 1 61.9110 15.1339 -9.0870 0.0000 0.0000 0.0000
# 2 15.1339 170.4877 84.5304 0.0000 0.0000 0.0000
# 3 -9.0870 84.5304 110.7797 0.0000 0.0000 0.0000
# 4 0.0000 0.0000 0.0000 18.3060 0.0000 0.0000
# 5 0.0000 0.0000 0.0000 0.0000 11.5881 0.0000
# 6 0.0000 0.0000 0.0000 0.0000 0.0000 -1.4642
#
#
#
# Elastic Compliance Matrix: (Units=1/GPa)
#
#
# Indices 1 2 3 4 5 6 
#
# 1 0.017677 -0.003681 0.004258 0.000000 0.000000 0.000000
# 2 -0.003681 0.010201 -0.008086 0.000000 0.000000 0.000000
# 3 0.004258 -0.008086 0.015546 0.000000 0.000000 0.000000
# 4 0.000000 0.000000 0.000000 0.054627 0.000000 0.000000
# 5 0.000000 0.000000 0.000000 0.000000 0.086295 0.000000
# 6 0.000000 0.000000 0.000000 0.000000 0.000000 -0.682976
#
#
# Mechanical properties :
#
#
# Convention : Reuss Voigt Hill
#
# Bulk Modulus (GPa) = 35.20096 58.25922 46.73009
# Shear Modulus (GPa) = -10.54533 22.52607 5.99037
#
# Velocity S-wave (km/s) = -2.17417 3.17765 1.63866
# Velocity P-wave (km/s) = 3.07837 6.29112 4.95250
#
# Compressibility (1/GPa) = 0.02840831
#
# Stress axis : x y z
#
# Youngs Moduli (GPa) = 56.57080 98.02497 64.32370
#
# Poissons Ratio (x) = 0.36079 -0.27392
# Poissons Ratio (y) = 0.20821 0.52013
# Poissons Ratio (z) = -0.24090 0.79264
#
# Static dielectric constant tensor:
#      x y z
#    x 1.903340 0.000000 0.000000 
#    y 0.000000 1.843460 0.000000 
#    z 0.000000 0.000000 1.778980 
# 
# From -- ./inp_files/26908.got.cif
#   From: 2010.05.17/outbox.cif.g08.bks.cpg/sg44_14_cif.got.tgz:26908.got - 2010.06.03 19:37:08.
