data_PCOD9373866
_publ_section_title
;
Structure prediction by ZEFSAII (Michael W. Deem and Ramdas Pophale) SiO2 
 PCOD9373866
Probable space group: I M M 2
;
_chemical_formula_sum "Si O2"
_cell_formula_units_Z 64
_cell_length_a 8.913867
_cell_length_b 21.264827
_cell_length_c 20.046058
_cell_angle_alpha 90.000000
_cell_angle_beta 90.000000
_cell_angle_gamma 90.000000
_cell_volume 3799.767172
_symmetry_space_group_name_H-M "I M M 2"
_symmetry_group_IT_number 44
_symmetry_cell_setting 'orthorhombic'
loop_
_space_group_symop_operation_xyz
x,y,z
-x,-y,z
-x,y,z
x,-y,z
1/2+x,1/2+y,1/2+z
1/2-x,1/2-y,1/2+z
1/2-x,1/2+y,1/2+z
1/2+x,1/2-y,1/2+z
loop_
_atom_site_type_symbol
_atom_site_label
_atom_site_fract_x
_atom_site_fract_y
_atom_site_fract_z
Si Si1 0.180481 0.430358 0.005890
Si Si2 0.680792 0.811429 0.417664
Si Si3 0.678484 0.259666 0.789130
Si Si4 0.179839 0.815134 0.000404
Si Si5 0.321041 0.381277 0.138310
Si Si6 0.821044 0.756376 0.138044
Si Si7 0.321111 0.070391 0.920974
Si Si8 0.820054 0.120805 0.789030
O O1 0.221135 0.500000 0.981070
O O2 0.246289 0.420208 0.079427
O O3 0.000000 0.426591 0.010327
O O4 0.229444 0.373142 0.958384
O O5 0.500000 0.813014 0.410817
O O6 0.755641 0.804453 0.345686
O O7 0.718475 0.748510 0.459729
O O8 0.500000 0.252057 0.797826
O O9 0.706439 0.280834 0.712843
O O10 0.757299 0.191706 0.796579
O O11 0.258083 0.874969 0.968080
O O12 0.000000 0.823153 0.995223
O O13 0.219076 0.802222 0.077519
O O14 0.500000 0.383890 0.132238
O O15 0.264870 0.309456 0.130725
O O16 0.281081 0.401038 0.213991
O O17 0.000000 0.743047 0.132007
O O18 0.500000 0.076348 0.916078
O O19 0.250492 0.080569 0.847932
O O20 0.284324 0.000000 0.944908
O O21 0.000000 0.122052 0.795263
#
# Coordination Sequence:
#
# PCOD9373866 Si02
#       8
#     8   8   8   8   8   8   8   8
#     4  10  21  37  55  74 102 143 182 213 253 308
#     4  10  19  33  54  79 106 136 175 217 257 306
#     4  10  19  31  53  81 107 135 170 215 263 305
#     4  10  19  34  57  79 103 136 174 217 259 305
#     4  10  20  32  50  77 108 139 173 214 258 302
#     4   9  18  34  54  78 106 136 173 213 255 309
#     4  11  24  38  52  75 106 138 175 218 261 308
#     4  10  20  34  51  74 105 142 178 210 251 307
#
# _framework density 16.843136000000001
#
# number of rings (size 3 to 8) (size 9 to 14) (size 15 to 20)
#    0.000    2.000    2.500    1.500    0.000    4.750 
#    0.000    2.500    0.000    0.750    0.000    3.500 
#    0.000    0.000    0.000    0.000    0.000    0.000 
#
# Total GULP energy -178580.616640 kJ/mol
# GULP energy per Si atom -5580.644270 kJ/mol
# Density = 1.680480 g / cm^3
# Si number density = 16.843136 Si / 1000 Ang^3
#
#
#
# Elastic Constant Matrix: (Units=GPa)
#
#
# Indices 1 2 3 4 5 6 
#
# 1 28.0354 38.7872 36.6237 0.0000 0.0000 0.0000
# 2 38.7872 112.6987 65.2716 0.0000 0.0000 0.0000
# 3 36.6237 65.2716 107.8100 0.0000 0.0000 0.0000
# 4 0.0000 0.0000 0.0000 22.0164 0.0000 0.0000
# 5 0.0000 0.0000 0.0000 0.0000 28.9351 0.0000
# 6 0.0000 0.0000 0.0000 0.0000 0.0000 19.7393
#
#
#
# Elastic Compliance Matrix: (Units=1/GPa)
#
#
# Indices 1 2 3 4 5 6 
#
# 1 0.084586 -0.019203 -0.017108 0.000000 0.000000 0.000000
# 2 -0.019203 0.018024 -0.004389 0.000000 0.000000 0.000000
# 3 -0.017108 -0.004389 0.017745 0.000000 0.000000 0.000000
# 4 0.000000 0.000000 0.000000 0.045421 0.000000 0.000000
# 5 0.000000 0.000000 0.000000 0.000000 0.034560 0.000000
# 6 0.000000 0.000000 0.000000 0.000000 0.000000 0.050660
#
#
# Mechanical properties :
#
#
# Convention : Reuss Voigt Hill
#
# Bulk Modulus (GPa) = 25.67123 58.87879 42.27501
# Shear Modulus (GPa) = 14.47673 21.32892 17.90282
#
# Velocity S-wave (km/s) = 2.93491 3.56241 3.26377
# Velocity P-wave (km/s) = 5.17295 7.20792 6.27349
#
# Compressibility (1/GPa) = 0.03895412
#
# Stress axis : x y z
#
# Youngs Moduli (GPa) = 11.82227 55.48053 56.35510
#
# Poissons Ratio (x) = 1.06540 0.96413
# Poissons Ratio (y) = 0.22703 0.24735
# Poissons Ratio (z) = 0.20226 0.24351
#
# Static dielectric constant tensor:
#      x y z
#    x 1.561980 0.000000 0.000000 
#    y 0.000000 1.556200 0.000000 
#    z 0.000000 0.000000 1.578150 
# 
# From -- ./inp_files/23247.got.cif
#   From: 2010.05.17/outbox.cif.g08.bks.cpg/sg44_12_cif.got.tgz:23247.got - 2010.06.03 19:37:08.
