data_PCOD9373123
_publ_section_title
;
Structure prediction by ZEFSAII (Michael W. Deem and Ramdas Pophale) SiO2 
 PCOD9373123
Probable space group: I M M 2
;
_chemical_formula_sum "Si O2"
_cell_formula_units_Z 58
_cell_length_a 16.266542
_cell_length_b 13.073300
_cell_length_c 13.105852
_cell_angle_alpha 90.000000
_cell_angle_beta 90.000000
_cell_angle_gamma 90.000000
_cell_volume 2787.056195
_symmetry_space_group_name_H-M "I M M 2"
_symmetry_group_IT_number 44
_symmetry_cell_setting 'orthorhombic'
loop_
_space_group_symop_operation_xyz
x,y,z
-x,-y,z
-x,y,z
x,-y,z
1/2+x,1/2+y,1/2+z
1/2-x,1/2-y,1/2+z
1/2-x,1/2+y,1/2+z
1/2+x,1/2-y,1/2+z
loop_
_atom_site_type_symbol
_atom_site_label
_atom_site_fract_x
_atom_site_fract_y
_atom_site_fract_z
Si Si1 0.360113 0.333194 0.573920
Si Si2 0.817904 0.613318 0.126581
Si Si3 0.857707 0.116774 0.856066
Si Si4 0.876459 0.163210 0.634501
Si Si5 0.822218 0.319679 0.351782
Si Si6 0.000000 0.000000 0.550155
Si Si7 0.094936 0.887722 0.300436
Si Si8 0.834680 0.386278 0.572196
O O1 0.358244 0.210092 0.571796
O O2 0.396659 0.371852 0.467352
O O3 0.401412 0.370740 0.677952
O O4 0.264530 0.370344 0.582803
O O5 0.837915 0.500000 0.089715
O O6 0.719357 0.630699 0.124264
O O7 0.842763 0.626231 0.245445
O O8 0.903454 0.139176 0.751146
O O9 0.776586 0.186732 0.856826
O O10 0.827365 0.000000 0.848300
O O11 0.877688 0.285405 0.617701
O O12 0.929087 0.090828 0.562082
O O13 0.857713 0.206022 0.349555
O O14 0.851015 0.378902 0.451222
O O15 0.000000 0.887155 0.332907
O O16 0.129205 0.000000 0.323855
O O17 0.855934 0.500000 0.610400
#
# Coordination Sequence:
#
# PCOD9373123 Si02
#       8
#     8   8   8   8   8   2   8   8
#     4   9  18  30  55  81 108 138 172 217 274 312
#     4   9  15  30  53  80 104 133 171 222 261 308
#     4  10  17  33  54  80 105 130 175 227 264 306
#     4  10  20  33  53  76 106 140 176 217 264 306
#     4   9  17  31  54  75 100 140 178 216 264 303
#     4  12  20  40  50  76 108 142 174 226 252 332
#     4  10  20  35  49  76 115 146 171 210 268 336
#     4  10  19  35  56  81 104 134 183 230 265 308
#
# _framework density 20.810487999999999
#
# number of rings (size 3 to 8) (size 9 to 14) (size 15 to 20)
#    0.000    2.345    1.379    4.966    0.000    0.000 
#    3.724    3.103    0.000   14.483    0.000    0.000 
#    0.000    0.000    0.000    0.000    0.000    0.000 
#
# Total GULP energy -161586.039401 kJ/mol
# GULP energy per Si atom -5571.932393 kJ/mol
# Density = 2.076312 g / cm^3
# Si number density = 20.810488 Si / 1000 Ang^3
#
#
#
# Elastic Constant Matrix: (Units=GPa)
#
#
# Indices 1 2 3 4 5 6 
#
# 1 38.5035 31.9330 3.2280 0.0000 0.0000 0.0000
# 2 31.9330 191.6962 9.1009 0.0000 0.0000 0.0000
# 3 3.2280 9.1009 54.8611 0.0000 0.0000 0.0000
# 4 0.0000 0.0000 0.0000 18.2577 0.0000 0.0000
# 5 0.0000 0.0000 0.0000 0.0000 6.1727 0.0000
# 6 0.0000 0.0000 0.0000 0.0000 0.0000 1.3454
#
#
#
# Elastic Compliance Matrix: (Units=1/GPa)
#
#
# Indices 1 2 3 4 5 6 
#
# 1 0.030184 -0.004983 -0.000949 0.000000 0.000000 0.000000
# 2 -0.004983 0.006081 -0.000716 0.000000 0.000000 0.000000
# 3 -0.000949 -0.000716 0.018402 0.000000 0.000000 0.000000
# 4 0.000000 0.000000 0.000000 0.054771 0.000000 0.000000
# 5 0.000000 0.000000 0.000000 0.000000 0.162004 0.000000
# 6 0.000000 0.000000 0.000000 0.000000 0.000000 0.743251
#
#
# Mechanical properties :
#
#
# Convention : Reuss Voigt Hill
#
# Bulk Modulus (GPa) = 24.17140 41.50941 32.84041
# Shear Modulus (GPa) = 4.79948 21.20842 13.00395
#
# Velocity S-wave (km/s) = 1.52029 3.19583 2.50246
# Velocity P-wave (km/s) = 3.83692 5.79720 4.91576
#
# Compressibility (1/GPa) = 0.04137120
#
# Stress axis : x y z
#
# Youngs Moduli (GPa) = 33.13020 164.45648 54.34068
#
# Poissons Ratio (x) = 0.81949 0.05159
# Poissons Ratio (y) = 0.16509 0.03888
# Poissons Ratio (z) = 0.03145 0.11767
#
# Static dielectric constant tensor:
#      x y z
#    x 1.751540 0.000000 0.000000 
#    y 0.000000 1.731560 0.000000 
#    z 0.000000 0.000000 1.816340 
# 
# From -- ./inp_files/18948.got.cif
#   From: 2010.05.17/outbox.cif.g08.bks.cpg/sg44_10_cif.got.tgz:18948.got - 2010.06.03 19:37:08.
