data_PCOD9373000
_publ_section_title
;
Structure prediction by ZEFSAII (Michael W. Deem and Ramdas Pophale) SiO2 
 PCOD9373000
Probable space group: I M M 2
;
_chemical_formula_sum "Si O2"
_cell_formula_units_Z 58
_cell_length_a 17.566484
_cell_length_b 19.422667
_cell_length_c 8.850615
_cell_angle_alpha 90.000000
_cell_angle_beta 90.000000
_cell_angle_gamma 90.000000
_cell_volume 3019.723357
_symmetry_space_group_name_H-M "I M M 2"
_symmetry_group_IT_number 44
_symmetry_cell_setting 'orthorhombic'
loop_
_space_group_symop_operation_xyz
x,y,z
-x,-y,z
-x,y,z
x,-y,z
1/2+x,1/2+y,1/2+z
1/2-x,1/2-y,1/2+z
1/2-x,1/2+y,1/2+z
1/2+x,1/2-y,1/2+z
loop_
_atom_site_type_symbol
_atom_site_label
_atom_site_fract_x
_atom_site_fract_y
_atom_site_fract_z
Si Si1 0.589436 0.575247 0.419700
Si Si2 0.585853 0.158102 0.128539
Si Si3 0.293968 0.080585 0.334798
Si Si4 0.846725 0.258810 0.378594
Si Si5 0.088274 0.218955 0.862226
Si Si6 0.500000 0.500000 0.884620
Si Si7 0.293754 0.200408 0.561074
Si Si8 0.882602 0.111368 0.270906
O O1 0.500000 0.568929 0.383503
O O2 0.624673 0.500000 0.393095
O O3 0.617587 0.641827 0.329802
O O4 0.595604 0.594419 0.597134
O O5 0.500000 0.130325 0.141804
O O6 0.648478 0.109831 0.207389
O O7 0.589171 0.229528 0.222653
O O8 0.604795 0.182293 0.959800
O O9 0.305065 0.125638 0.486571
O O10 0.207033 0.094789 0.285187
O O11 0.305691 0.000000 0.357447
O O12 0.784916 0.230696 0.498083
O O13 0.891440 0.191131 0.319237
O O14 0.801132 0.291351 0.238709
O O15 0.139984 0.252408 0.989733
O O16 0.000000 0.213733 0.912018
O O17 0.433562 0.560482 0.870792
#
# Coordination Sequence:
#
# PCOD9373000 Si02
#       8
#     8   8   8   8   8   2   8   8
#     4  10  16  26  47  79 118 156 197 233 280 343
#     4  10  23  40  59  86 117 158 215 267 320 377
#     4  10  21  40  62  88 121 163 206 256 324 380
#     4  11  22  37  60  87 122 163 212 262 310 369
#     4   9  18  32  53  79 115 153 198 249 303 359
#     4  12  20  32  52 100 132 164 206 232 294 368
#     4  10  20  35  60  87 118 161 206 251 307 377
#     4  11  19  31  57  86 128 165 200 244 287 372
#
# _framework density 19.207058
#
# number of rings (size 3 to 8) (size 9 to 14) (size 15 to 20)
#    0.000    1.793    3.448    2.483    0.966    0.828 
#    0.000    0.690    1.517    2.483    0.000    0.000 
#    0.000    0.000    0.000    0.000    0.000    0.000 
#
# Total GULP energy -161519.593770 kJ/mol
# GULP energy per Si atom -5569.641164 kJ/mol
# Density = 1.916334 g / cm^3
# Si number density = 19.207058 Si / 1000 Ang^3
#
#
#
# Elastic Constant Matrix: (Units=GPa)
#
#
# Indices 1 2 3 4 5 6 
#
# 1 96.5478 35.4944 14.8941 0.0000 0.0000 0.0000
# 2 35.4944 117.7513 5.4988 0.0000 0.0000 0.0000
# 3 14.8941 5.4988 35.2867 0.0000 0.0000 0.0000
# 4 0.0000 0.0000 0.0000 9.9807 0.0000 0.0000
# 5 0.0000 0.0000 0.0000 0.0000 15.0139 0.0000
# 6 0.0000 0.0000 0.0000 0.0000 0.0000 30.7542
#
#
#
# Elastic Compliance Matrix: (Units=1/GPa)
#
#
# Indices 1 2 3 4 5 6 
#
# 1 0.012369 -0.003510 -0.004674 0.000000 0.000000 0.000000
# 2 -0.003510 0.009551 -0.000007 0.000000 0.000000 0.000000
# 3 -0.004674 -0.000007 0.030313 0.000000 0.000000 0.000000
# 4 0.000000 0.000000 0.000000 0.100193 0.000000 0.000000
# 5 0.000000 0.000000 0.000000 0.000000 0.066605 0.000000
# 6 0.000000 0.000000 0.000000 0.000000 0.000000 0.032516
#
#
# Mechanical properties :
#
#
# Convention : Reuss Voigt Hill
#
# Bulk Modulus (GPa) = 27.89279 40.15116 34.02198
# Shear Modulus (GPa) = 17.86485 24.06299 20.96392
#
# Velocity S-wave (km/s) = 3.05309 3.54336 3.30732
# Velocity P-wave (km/s) = 5.19444 6.13924 5.68650
#
# Compressibility (1/GPa) = 0.03585156
#
# Stress axis : x y z
#
# Youngs Moduli (GPa) = 80.84697 104.70229 32.98900
#
# Poissons Ratio (x) = 0.36753 0.15418
# Poissons Ratio (y) = 0.28379 0.00022
# Poissons Ratio (z) = 0.37786 0.00070
#
# Static dielectric constant tensor:
#      x y z
#    x 1.682930 0.000000 0.000000 
#    y 0.000000 1.689220 0.000000 
#    z 0.000000 0.000000 1.695320 
# 
# From -- ./inp_files/8331.got.cif
#   From: 2010.05.17/outbox.cif.g08.bks.cpg/sg44_5_cif.got.tgz:8331.got - 2010.06.03 19:37:08.
