data_PCOD9373342
_publ_section_title
;
Structure prediction by ZEFSAII (Michael W. Deem and Ramdas Pophale) SiO2 
 PCOD9373342
Probable space group: I M M 2
;
_chemical_formula_sum "Si O2"
_cell_formula_units_Z 48
_cell_length_a 7.389552
_cell_length_b 11.101903
_cell_length_c 25.513086
_cell_angle_alpha 90.000000
_cell_angle_beta 90.000000
_cell_angle_gamma 90.000000
_cell_volume 2093.044833
_symmetry_space_group_name_H-M "I M M 2"
_symmetry_group_IT_number 44
_symmetry_cell_setting 'orthorhombic'
loop_
_space_group_symop_operation_xyz
x,y,z
-x,-y,z
-x,y,z
x,-y,z
1/2+x,1/2+y,1/2+z
1/2-x,1/2-y,1/2+z
1/2-x,1/2+y,1/2+z
1/2+x,1/2-y,1/2+z
loop_
_atom_site_type_symbol
_atom_site_label
_atom_site_fract_x
_atom_site_fract_y
_atom_site_fract_z
Si Si1 0.785011 0.000000 0.625000
Si Si2 0.721602 0.758419 0.153919
Si Si3 0.719028 0.000000 0.498964
Si Si4 0.220350 0.635632 0.763348
Si Si5 0.797128 0.262804 0.941616
Si Si6 0.207459 0.641304 0.544370
Si Si7 0.278779 0.360967 0.336141
O O1 0.718738 0.879973 0.653415
O O2 0.759749 0.000000 0.561471
O O3 0.000000 0.000000 0.631862
O O4 0.500000 0.762629 0.153733
O O5 0.776651 0.836372 0.203649
O O6 0.783368 0.805701 0.097717
O O7 0.784653 0.116390 0.466781
O O8 0.500000 0.000000 0.498000
O O9 0.278404 0.500000 0.779661
O O10 0.276023 0.753047 0.796824
O O11 0.000000 0.634211 0.765198
O O12 0.805237 0.176849 0.991662
O O13 0.000000 0.297431 0.924032
O O14 0.718773 0.188644 0.893154
O O15 0.203911 0.500000 0.550436
O O16 0.000000 0.685307 0.538857
O O17 0.500000 0.365938 0.334949
O O18 0.219954 0.500000 0.326540
#
# Coordination Sequence:
#
# PCOD9373342 Si02
#       7
#     4   8   4   8   8   8   8
#     4  10  18  30  50  74 100 130 162 199 246 298
#     4   9  17  28  44  68  99 127 157 198 245 293
#     4  10  20  32  48  72 100 132 168 203 242 298
#     4   9  17  28  44  67  97 130 160 196 247 299
#     4  10  20  33  49  70 101 132 163 205 251 296
#     4  10  19  31  49  72  98 129 164 203 247 298
#     4   9  18  30  45  66  94 128 165 203 245 295
#
# _framework density 22.933097
#
# number of rings (size 3 to 8) (size 9 to 14) (size 15 to 20)
#    0.000    2.500    1.667    1.000    2.333    3.000 
#    0.000    0.000    0.000    0.000    0.000    2.333 
#    0.000    2.667    0.000    0.000    0.000    0.000 
#
# Total GULP energy -133886.882862 kJ/mol
# GULP energy per Si atom -5578.620119 kJ/mol
# Density = 2.288090 g / cm^3
# Si number density = 22.933097 Si / 1000 Ang^3
#
#
#
# Elastic Constant Matrix: (Units=GPa)
#
#
# Indices 1 2 3 4 5 6 
#
# 1 75.6571 3.0391 -5.7833 0.0000 0.0000 0.0000
# 2 3.0391 154.4261 37.4722 0.0000 0.0000 0.0000
# 3 -5.7833 37.4722 88.4732 0.0000 0.0000 0.0000
# 4 0.0000 0.0000 0.0000 41.6149 0.0000 0.0000
# 5 0.0000 0.0000 0.0000 0.0000 21.8388 0.0000
# 6 0.0000 0.0000 0.0000 0.0000 0.0000 -4.4766
#
#
#
# Elastic Compliance Matrix: (Units=1/GPa)
#
#
# Indices 1 2 3 4 5 6 
#
# 1 0.013322 -0.000528 0.001094 0.000000 0.000000 0.000000
# 2 -0.000528 0.007238 -0.003100 0.000000 0.000000 0.000000
# 3 0.001094 -0.003100 0.012687 0.000000 0.000000 0.000000
# 4 0.000000 0.000000 0.000000 0.024030 0.000000 0.000000
# 5 0.000000 0.000000 0.000000 0.000000 0.045790 0.000000
# 6 0.000000 0.000000 0.000000 0.000000 0.000000 -0.223382
#
#
# Mechanical properties :
#
#
# Convention : Reuss Voigt Hill
#
# Bulk Modulus (GPa) = 35.48494 43.11249 39.29872
# Shear Modulus (GPa) = -47.23508 30.71731 -8.25888
#
# Velocity S-wave (km/s) = -4.54330 3.66379 -1.89977
# Velocity P-wave (km/s) = 3.46631 6.06118 3.51586
#
# Compressibility (1/GPa) = 0.02818097
#
# Stress axis : x y z
#
# Youngs Moduli (GPa) = 75.06161 138.15484 78.81793
#
# Poissons Ratio (x) = 0.07291 -0.08626
# Poissons Ratio (y) = 0.03961 0.24435
# Poissons Ratio (z) = -0.08215 0.42831
#
# Static dielectric constant tensor:
#      x y z
#    x 1.950530 0.000000 0.000000 
#    y 0.000000 1.874670 0.000000 
#    z 0.000000 0.000000 1.809340 
# 
# From -- ./inp_files/23735.got.cif
#   From: 2010.05.17/outbox.cif.g08.bks.cpg/sg44_12_cif.got.tgz:23735.got - 2010.06.03 19:37:08.
