data_PCOD9373359
_publ_section_title
;
Structure prediction by ZEFSAII (Michael W. Deem and Ramdas Pophale) SiO2 
 PCOD9373359
Probable space group: I M M 2
;
_chemical_formula_sum "Si O2"
_cell_formula_units_Z 40
_cell_length_a 27.078423
_cell_length_b 8.157591
_cell_length_c 9.334555
_cell_angle_alpha 90.000000
_cell_angle_beta 90.000000
_cell_angle_gamma 90.000000
_cell_volume 2061.953724
_symmetry_space_group_name_H-M "I M M 2"
_symmetry_group_IT_number 44
_symmetry_cell_setting 'orthorhombic'
loop_
_space_group_symop_operation_xyz
x,y,z
-x,-y,z
-x,y,z
x,-y,z
1/2+x,1/2+y,1/2+z
1/2-x,1/2-y,1/2+z
1/2-x,1/2+y,1/2+z
1/2+x,1/2-y,1/2+z
loop_
_atom_site_type_symbol
_atom_site_label
_atom_site_fract_x
_atom_site_fract_y
_atom_site_fract_z
Si Si1 0.396666 0.804736 0.316220
Si Si2 0.000000 0.189244 0.846833
Si Si3 0.892708 0.700758 0.148539
Si Si4 0.699896 0.696104 0.148766
Si Si5 0.296307 0.198158 0.820671
Si Si6 0.500000 0.809926 0.665404
O O1 0.448885 0.728556 0.268400
O O2 0.387629 0.750759 0.481575
O O3 0.350487 0.757887 0.219759
O O4 0.402123 0.000000 0.316477
O O5 0.000000 0.298467 0.991483
O O6 0.000000 0.000000 0.891092
O O7 0.893803 0.500000 0.150552
O O8 0.845992 0.755351 0.240377
O O9 0.946296 0.759741 0.205426
O O10 0.699924 0.500000 0.155051
O O11 0.747382 0.756896 0.238187
O O12 0.704110 0.749459 0.984801
O O13 0.296524 0.000000 0.814878
O O14 0.500000 0.000000 0.709495
#
# Coordination Sequence:
#
# PCOD9373359 Si02
#       6
#     8   4   8   8   8   4
#     4  10  19  35  58  81 108 145 184 221 268 323
#     4  10  18  30  51  82 115 142 176 222 266 314
#     4   8  15  30  54  80 104 136 181 226 263 313
#     4  11  23  37  54  79 108 140 182 230 276 324
#     4  10  21  37  55  76 106 143 181 223 275 330
#     4   8  14  28  51  78 107 142 184 222 260 314
#
# _framework density 19.399077999999999
#
# number of rings (size 3 to 8) (size 9 to 14) (size 15 to 20)
#    0.000    2.400    0.000    4.500    0.000    3.200 
#    0.000    6.000    0.000    2.400    0.000    0.000 
#    0.000    0.000    0.000    0.000    0.000    0.000 
#
# Total GULP energy -111576.996192 kJ/mol
# GULP energy per Si atom -5578.849810 kJ/mol
# Density = 1.935492 g / cm^3
# Si number density = 19.399078 Si / 1000 Ang^3
#
#
#
# Elastic Constant Matrix: (Units=GPa)
#
#
# Indices 1 2 3 4 5 6 
#
# 1 226.3294 22.5307 94.9463 0.0000 0.0000 0.0000
# 2 22.5307 29.0757 13.0471 0.0000 0.0000 0.0000
# 3 94.9463 13.0471 106.2549 0.0000 0.0000 0.0000
# 4 0.0000 0.0000 0.0000 21.4613 0.0000 0.0000
# 5 0.0000 0.0000 0.0000 0.0000 33.6872 0.0000
# 6 0.0000 0.0000 0.0000 0.0000 0.0000 14.9143
#
#
#
# Elastic Compliance Matrix: (Units=1/GPa)
#
#
# Indices 1 2 3 4 5 6 
#
# 1 0.007289 -0.002885 -0.006159 0.000000 0.000000 0.000000
# 2 -0.002885 0.037540 -0.002032 0.000000 0.000000 0.000000
# 3 -0.006159 -0.002032 0.015165 0.000000 0.000000 0.000000
# 4 0.000000 0.000000 0.000000 0.046596 0.000000 0.000000
# 5 0.000000 0.000000 0.000000 0.000000 0.029685 0.000000
# 6 0.000000 0.000000 0.000000 0.000000 0.000000 0.067050
#
#
# Mechanical properties :
#
#
# Convention : Reuss Voigt Hill
#
# Bulk Modulus (GPa) = 26.42551 69.18979 47.80765
# Shear Modulus (GPa) = 21.00046 29.42163 25.21104
#
# Velocity S-wave (km/s) = 3.29378 3.89864 3.60891
# Velocity P-wave (km/s) = 5.30254 7.48397 6.48563
#
# Compressibility (1/GPa) = 0.03784221
#
# Stress axis : x y z
#
# Youngs Moduli (GPa) = 137.18558 26.63824 65.94268
#
# Poissons Ratio (x) = 0.07684 0.40617
# Poissons Ratio (y) = 0.39573 0.13399
# Poissons Ratio (z) = 0.84498 0.05413
#
# Static dielectric constant tensor:
#      x y z
#    x 1.712980 0.000000 0.000000 
#    y 0.000000 1.685620 0.000000 
#    z 0.000000 0.000000 1.637040 
# 
# From -- ./inp_files/4632.got.cif
#   From: 2010.05.17/outbox.cif.g08.bks.cpg/sg44_3_cif.got.tgz:4632.got - 2010.06.03 19:37:08.
