data_PCOD9373472
_publ_section_title
;
Structure prediction by ZEFSAII (Michael W. Deem and Ramdas Pophale) SiO2 
 PCOD9373472
Probable space group: I M M 2
;
_chemical_formula_sum "Si O2"
_cell_formula_units_Z 48
_cell_length_a 10.636796
_cell_length_b 8.452589
_cell_length_c 29.161001
_cell_angle_alpha 90.000000
_cell_angle_beta 90.000000
_cell_angle_gamma 90.000000
_cell_volume 2621.820834
_symmetry_space_group_name_H-M "I M M 2"
_symmetry_group_IT_number 44
_symmetry_cell_setting 'orthorhombic'
loop_
_space_group_symop_operation_xyz
x,y,z
-x,-y,z
-x,y,z
x,-y,z
1/2+x,1/2+y,1/2+z
1/2-x,1/2-y,1/2+z
1/2-x,1/2+y,1/2+z
1/2+x,1/2-y,1/2+z
loop_
_atom_site_type_symbol
_atom_site_label
_atom_site_fract_x
_atom_site_fract_y
_atom_site_fract_z
Si Si1 0.744541 0.693211 0.506940
Si Si2 0.756947 0.189092 0.716449
Si Si3 0.500000 0.808659 0.668503
Si Si4 0.500000 0.691472 0.564565
Si Si5 0.500000 0.193401 0.056077
Si Si6 0.352572 0.690585 0.409643
Si Si7 0.000000 0.310377 0.661976
Si Si8 0.853933 0.688783 0.810323
O O1 0.744361 0.500000 0.506729
O O2 0.624722 0.742557 0.537240
O O3 0.874197 0.745258 0.529937
O O4 0.723659 0.743365 0.454399
O O5 0.626465 0.245787 0.694181
O O6 0.875803 0.253007 0.688076
O O7 0.774147 0.240968 0.768945
O O8 0.759337 0.000000 0.714280
O O9 0.500000 0.752126 0.616228
O O10 0.500000 0.000000 0.668913
O O11 0.500000 0.500000 0.565276
O O12 0.500000 0.243885 0.109094
O O13 0.500000 0.000000 0.056146
O O14 0.500000 0.732081 0.416605
O O15 0.345808 0.500000 0.406849
O O16 0.311781 0.760380 0.360996
O O17 0.000000 0.500000 0.662514
O O18 0.853154 0.500000 0.806871
O O19 0.000000 0.743076 0.805154
#
# Coordination Sequence:
#
# PCOD9373472 Si02
#       8
#     8   8   4   4   4   8   4   8
#     4   9  16  29  49  76 105 136 175 216 257 311
#     4  11  22  38  58  79 108 146 183 223 271 323
#     4  10  24  40  53  78 113 145 183 225 269 324
#     4  10  18  32  55  78 101 138 183 220 261 310
#     4   9  18  29  46  75 110 138 167 216 268 307
#     4   9  16  29  51  76 101 133 176 218 259 312
#     4  11  21  35  56  85 112 141 185 229 268 317
#     4  10  20  34  54  81 109 134 173 225 272 322
#
# _framework density 18.307884999999999
#
# number of rings (size 3 to 8) (size 9 to 14) (size 15 to 20)
#    0.000    2.167    1.667    2.250    0.000    3.333 
#    0.000    1.667    0.000    5.000    0.000    0.000 
#    0.000    0.000    0.000    0.000    0.000    0.000 
#
# Total GULP energy -133976.029950 kJ/mol
# GULP energy per Si atom -5582.334581 kJ/mol
# Density = 1.826622 g / cm^3
# Si number density = 18.307885 Si / 1000 Ang^3
#
#
#
# Elastic Constant Matrix: (Units=GPa)
#
#
# Indices 1 2 3 4 5 6 
#
# 1 152.2001 22.6302 101.9594 0.0000 0.0000 0.0000
# 2 22.6302 16.5628 27.2180 0.0000 0.0000 0.0000
# 3 101.9594 27.2180 193.6659 0.0000 0.0000 0.0000
# 4 0.0000 0.0000 0.0000 29.0509 0.0000 0.0000
# 5 0.0000 0.0000 0.0000 0.0000 -3.2713 0.0000
# 6 0.0000 0.0000 0.0000 0.0000 0.0000 1.2153
#
#
#
# Elastic Compliance Matrix: (Units=1/GPa)
#
#
# Indices 1 2 3 4 5 6 
#
# 1 0.010740 -0.006999 -0.004671 0.000000 0.000000 0.000000
# 2 -0.006999 0.083069 -0.007990 0.000000 0.000000 0.000000
# 3 -0.004671 -0.007990 0.008745 0.000000 0.000000 0.000000
# 4 0.000000 0.000000 0.000000 0.034422 0.000000 0.000000
# 5 0.000000 0.000000 0.000000 0.000000 -0.305687 0.000000
# 6 0.000000 0.000000 0.000000 0.000000 0.000000 0.822869
#
#
# Mechanical properties :
#
#
# Convention : Reuss Voigt Hill
#
# Bulk Modulus (GPa) = 15.81392 74.00490 44.90941
# Shear Modulus (GPa) = 6.99736 19.44037 13.21886
#
# Velocity S-wave (km/s) = 1.95713 3.26215 2.68998
# Velocity P-wave (km/s) = 3.70994 7.39588 5.85075
#
# Compressibility (1/GPa) = 0.06323544
#
# Stress axis : x y z
#
# Youngs Moduli (GPa) = 93.11215 12.03820 114.34644
#
# Poissons Ratio (x) = 0.08425 0.53406
# Poissons Ratio (y) = 0.65167 0.91362
# Poissons Ratio (z) = 0.43488 0.09618
#
# Static dielectric constant tensor:
#      x y z
#    x 1.614240 0.000000 0.000000 
#    y 0.000000 1.629000 0.000000 
#    z 0.000000 0.000000 1.613460 
# 
# From -- ./inp_files/27017.got.cif
#   From: 2010.05.17/outbox.cif.g08.bks.cpg/sg44_14_cif.got.tgz:27017.got - 2010.06.03 19:37:08.
