data_PCOD9373184
_publ_section_title
;
Structure prediction by ZEFSAII (Michael W. Deem and Ramdas Pophale) SiO2 
 PCOD9373184
Probable space group: I M M 2
;
_chemical_formula_sum "Si O2"
_cell_formula_units_Z 56
_cell_length_a 8.738533
_cell_length_b 22.843366
_cell_length_c 18.345825
_cell_angle_alpha 90.000000
_cell_angle_beta 90.000000
_cell_angle_gamma 90.000000
_cell_volume 3662.147862
_symmetry_space_group_name_H-M "I M M 2"
_symmetry_group_IT_number 44
_symmetry_cell_setting 'orthorhombic'
loop_
_space_group_symop_operation_xyz
x,y,z
-x,-y,z
-x,y,z
x,-y,z
1/2+x,1/2+y,1/2+z
1/2-x,1/2-y,1/2+z
1/2-x,1/2+y,1/2+z
1/2+x,1/2-y,1/2+z
loop_
_atom_site_type_symbol
_atom_site_label
_atom_site_fract_x
_atom_site_fract_y
_atom_site_fract_z
Si Si1 0.681974 0.315309 0.573640
Si Si2 0.682845 0.310117 0.119781
Si Si3 0.181527 0.280459 0.430694
Si Si4 0.315629 0.067812 0.348104
Si Si5 0.316779 0.346705 0.730026
Si Si6 0.682318 0.279170 0.277272
Si Si7 0.183446 0.654475 0.978113
O O1 0.500000 0.316658 0.562931
O O2 0.733849 0.250643 0.599384
O O3 0.763371 0.322568 0.496136
O O4 0.721902 0.354237 0.644185
O O5 0.500000 0.303005 0.111329
O O6 0.714432 0.318306 0.205452
O O7 0.744872 0.353779 0.058370
O O8 0.238050 0.299282 0.351228
O O9 0.254467 0.216282 0.446590
O O10 0.000000 0.274638 0.432569
O O11 0.500000 0.071197 0.340360
O O12 0.239940 0.100875 0.280268
O O13 0.275599 0.103836 0.421116
O O14 0.271546 0.000000 0.352505
O O15 0.500000 0.339846 0.735316
O O16 0.240335 0.286543 0.758707
O O17 0.500000 0.276791 0.287976
O O18 0.000000 0.658335 0.983748
#
# Coordination Sequence:
#
# PCOD9373184 Si02
#       7
#     8   8   8   8   8   8   8
#     4   9  17  28  41  59  84 112 143 174 214 263
#     4   9  17  27  41  60  82 110 144 176 211 258
#     4  11  19  26  41  64  88 114 146 178 211 257
#     4  10  21  34  47  63  85 118 155 187 222 263
#     4  10  19  30  45  63  83 112 147 186 223 257
#     4  10  18  28  42  61  87 118 145 174 214 261
#     4  10  18  29  44  59  82 114 145 181 221 257
#
# _framework density 15.291573
#
# number of rings (size 3 to 8) (size 9 to 14) (size 15 to 20)
#    0.000    2.143    1.429    5.143    0.000    4.286 
#    0.000    0.000    0.000    0.000    0.000    0.000 
#    0.000    1.143    0.000    8.571    0.000    4.429 
#
# Total GULP energy -156013.078869 kJ/mol
# GULP energy per Si atom -5571.895674 kJ/mol
# Density = 1.525677 g / cm^3
# Si number density = 15.291573 Si / 1000 Ang^3
#
#
#
# Elastic Constant Matrix: (Units=GPa)
#
#
# Indices 1 2 3 4 5 6 
#
# 1 51.3208 16.1173 46.5712 0.0000 0.0000 0.0000
# 2 16.1173 43.7508 38.6374 0.0000 0.0000 0.0000
# 3 46.5712 38.6374 158.7817 0.0000 0.0000 0.0000
# 4 0.0000 0.0000 0.0000 12.9889 0.0000 0.0000
# 5 0.0000 0.0000 0.0000 0.0000 29.9001 0.0000
# 6 0.0000 0.0000 0.0000 0.0000 0.0000 10.2027
#
#
#
# Elastic Compliance Matrix: (Units=1/GPa)
#
#
# Indices 1 2 3 4 5 6 
#
# 1 0.027031 -0.003765 -0.007012 0.000000 0.000000 0.000000
# 2 -0.003765 0.029638 -0.006107 0.000000 0.000000 0.000000
# 3 -0.007012 -0.006107 0.009841 0.000000 0.000000 0.000000
# 4 0.000000 0.000000 0.000000 0.076989 0.000000 0.000000
# 5 0.000000 0.000000 0.000000 0.000000 0.033445 0.000000
# 6 0.000000 0.000000 0.000000 0.000000 0.000000 0.098013
#
#
# Mechanical properties :
#
#
# Convention : Reuss Voigt Hill
#
# Bulk Modulus (GPa) = 30.54421 50.72279 40.63350
# Shear Modulus (GPa) = 15.64265 20.78684 18.21474
#
# Velocity S-wave (km/s) = 3.20184 3.69096 3.45507
# Velocity P-wave (km/s) = 5.80405 7.16984 6.52279
#
# Compressibility (1/GPa) = 0.03273943
#
# Stress axis : x y z
#
# Youngs Moduli (GPa) = 36.99477 33.74099 101.61805
#
# Poissons Ratio (x) = 0.12705 0.71254
# Poissons Ratio (y) = 0.13930 0.62063
# Poissons Ratio (z) = 0.25941 0.20607
#
# Static dielectric constant tensor:
#      x y z
#    x 1.511700 0.000000 0.000000 
#    y 0.000000 1.465390 0.000000 
#    z 0.000000 0.000000 1.571890 
# 
# From -- ./inp_files/20688.got.cif
#   From: 2010.05.17/outbox.cif.g08.bks.cpg/sg44_11_cif.got.tgz:20688.got - 2010.06.03 19:37:08.
