data_PCOD9373641
_publ_section_title
;
Structure prediction by ZEFSAII (Michael W. Deem and Ramdas Pophale) SiO2 
 PCOD9373641
Probable space group: I M M 2
;
_chemical_formula_sum "Si O2"
_cell_formula_units_Z 64
_cell_length_a 14.939013
_cell_length_b 7.471422
_cell_length_c 25.080153
_cell_angle_alpha 90.000000
_cell_angle_beta 90.000000
_cell_angle_gamma 90.000000
_cell_volume 2799.338090
_symmetry_space_group_name_H-M "I M M 2"
_symmetry_group_IT_number 44
_symmetry_cell_setting 'orthorhombic'
loop_
_space_group_symop_operation_xyz
x,y,z
-x,-y,z
-x,y,z
x,-y,z
1/2+x,1/2+y,1/2+z
1/2-x,1/2-y,1/2+z
1/2-x,1/2+y,1/2+z
1/2+x,1/2-y,1/2+z
loop_
_atom_site_type_symbol
_atom_site_label
_atom_site_fract_x
_atom_site_fract_y
_atom_site_fract_z
Si Si1 0.843623 0.201437 0.169080
Si Si2 0.594249 0.715183 0.048941
Si Si3 0.397794 0.282197 0.552612
Si Si4 0.858456 0.784186 0.665470
Si Si5 0.248014 0.699905 0.475058
Si Si6 0.399084 0.790679 0.895538
Si Si7 0.402594 0.285407 0.283016
Si Si8 0.192265 0.787560 0.286404
O O1 0.879511 0.282508 0.113491
O O2 0.737539 0.195697 0.160339
O O3 0.843405 0.284313 0.228879
O O4 0.882145 0.000000 0.172517
O O5 0.500000 0.768454 0.023766
O O6 0.604433 0.500000 0.042951
O O7 0.591789 0.753828 0.111260
O O8 0.677490 0.808837 0.023152
O O9 0.500000 0.244575 0.539487
O O10 0.384846 0.500000 0.554483
O O11 0.333078 0.216229 0.505126
O O12 0.902228 0.730652 0.720798
O O13 0.846312 0.000000 0.668265
O O14 0.274307 0.500000 0.455995
O O15 0.184423 0.786935 0.429865
O O16 0.500000 0.716022 0.901842
O O17 0.367977 0.779830 0.834554
O O18 0.403049 0.000000 0.911012
O O19 0.500000 0.221760 0.306043
O O20 0.405742 0.500000 0.286920
O O21 0.298945 0.242270 0.298570
O O22 0.182580 0.000000 0.282744
#
# Coordination Sequence:
#
# PCOD9373641 Si02
#       8
#     8   8   8   8   8   8   8   8
#     4   9  17  31  51  77 109 143 179 217 267 324
#     4  10  19  29  45  73 107 141 175 214 266 323
#     4   9  17  31  54  82 110 139 172 217 272 328
#     4   9  16  27  45  71 106 144 180 216 258 314
#     4  10  20  36  57  78 104 139 181 228 274 322
#     4  10  22  40  59  79 106 141 184 235 285 336
#     4   9  17  31  52  77 109 151 191 224 266 323
#     4  10  21  35  55  83 113 146 186 233 282 332
#
# _framework density 22.862546999999999
#
# number of rings (size 3 to 8) (size 9 to 14) (size 15 to 20)
#    0.000    2.500    1.250    1.125    0.000    4.250 
#    0.000    1.875    0.000    6.000    0.000    0.000 
#    0.000    0.000    0.000    0.000    0.000    0.000 
#
# Total GULP energy -178219.476045 kJ/mol
# GULP energy per Si atom -5569.358626 kJ/mol
# Density = 2.281051 g / cm^3
# Si number density = 22.862547 Si / 1000 Ang^3
#
#
#
# Elastic Constant Matrix: (Units=GPa)
#
#
# Indices 1 2 3 4 5 6 
#
# 1 145.4109 5.0200 64.1438 0.0000 0.0000 0.0000
# 2 5.0200 58.7184 3.1907 0.0000 0.0000 0.0000
# 3 64.1438 3.1907 120.1412 0.0000 0.0000 0.0000
# 4 0.0000 0.0000 0.0000 9.0341 0.0000 0.0000
# 5 0.0000 0.0000 0.0000 0.0000 0.7500 0.0000
# 6 0.0000 0.0000 0.0000 0.0000 0.0000 -67.1231
#
#
#
# Elastic Compliance Matrix: (Units=1/GPa)
#
#
# Indices 1 2 3 4 5 6 
#
# 1 0.009011 -0.000510 -0.004797 0.000000 0.000000 0.000000
# 2 -0.000510 0.017084 -0.000182 0.000000 0.000000 0.000000
# 3 -0.004797 -0.000182 0.010890 0.000000 0.000000 0.000000
# 4 0.000000 0.000000 0.000000 0.110692 0.000000 0.000000
# 5 0.000000 0.000000 0.000000 0.000000 1.333348 0.000000
# 6 0.000000 0.000000 0.000000 0.000000 0.000000 -0.014898
#
#
# Mechanical properties :
#
#
# Convention : Reuss Voigt Hill
#
# Bulk Modulus (GPa) = 38.45098 52.10883 45.27991
# Shear Modulus (GPa) = 3.36525 5.32660 4.34593
#
# Velocity S-wave (km/s) = 1.21456 1.52804 1.38022
# Velocity P-wave (km/s) = 4.33840 5.09460 4.73163
#
# Compressibility (1/GPa) = 0.02600714
#
# Stress axis : x y z
#
# Youngs Moduli (GPa) = 110.97670 58.53468 91.82974
#
# Poissons Ratio (x) = 0.02983 0.44055
# Poissons Ratio (y) = 0.05656 0.01668
# Poissons Ratio (z) = 0.53240 0.01063
#
# Static dielectric constant tensor:
#      x y z
#    x 1.847600 0.000000 0.000000 
#    y 0.000000 1.921840 0.000000 
#    z 0.000000 0.000000 1.888490 
# 
# From -- ./inp_files/25161.got.cif
#   From: 2010.05.17/outbox.cif.g08.bks.cpg/sg44_13_cif.got.tgz:25161.got - 2010.06.03 19:37:08.
