data_PCOD9373626
_publ_section_title
;
Structure prediction by ZEFSAII (Michael W. Deem and Ramdas Pophale) SiO2 
 PCOD9373626
Probable space group: I M M 2
;
_chemical_formula_sum "Si O2"
_cell_formula_units_Z 56
_cell_length_a 9.050681
_cell_length_b 18.782947
_cell_length_c 21.671603
_cell_angle_alpha 90.000000
_cell_angle_beta 90.000000
_cell_angle_gamma 90.000000
_cell_volume 3684.139169
_symmetry_space_group_name_H-M "I M M 2"
_symmetry_group_IT_number 44
_symmetry_cell_setting 'orthorhombic'
loop_
_space_group_symop_operation_xyz
x,y,z
-x,-y,z
-x,y,z
x,-y,z
1/2+x,1/2+y,1/2+z
1/2-x,1/2-y,1/2+z
1/2-x,1/2+y,1/2+z
1/2+x,1/2-y,1/2+z
loop_
_atom_site_type_symbol
_atom_site_label
_atom_site_fract_x
_atom_site_fract_y
_atom_site_fract_z
Si Si1 0.820552 0.650810 0.337380
Si Si2 0.322537 0.918892 0.457763
Si Si3 0.676026 0.416810 0.458167
Si Si4 0.829527 0.707133 0.524899
Si Si5 0.330286 0.706706 0.894787
Si Si6 0.679876 0.918128 0.707364
Si Si7 0.678283 0.162887 0.583747
O O1 0.748656 0.606693 0.393191
O O2 0.778351 0.733884 0.346027
O O3 0.777545 0.618690 0.271583
O O4 0.000000 0.647258 0.343758
O O5 0.500000 0.918874 0.454882
O O6 0.261233 0.864247 0.407070
O O7 0.282345 0.887409 0.525292
O O8 0.270113 0.000000 0.450993
O O9 0.500000 0.405423 0.454979
O O10 0.704913 0.500000 0.469179
O O11 0.745147 0.365813 0.510265
O O12 0.826854 0.749779 0.459532
O O13 0.750366 0.760369 0.572113
O O14 0.000000 0.694691 0.541054
O O15 0.500000 0.688100 0.881506
O O16 0.500000 0.919326 0.706367
O O17 0.726116 0.874179 0.647144
O O18 0.730070 0.000000 0.704850
O O19 0.500000 0.169914 0.583840
#
# Coordination Sequence:
#
# PCOD9373626 Si02
#       7
#     8   8   8   8   8   8   8
#     4   9  17  29  44  62  87 119 152 181 209 250
#     4   9  16  25  39  60  83 106 134 170 212 255
#     4  10  19  29  43  65  90 113 140 178 222 262
#     4   9  17  29  44  61  83 112 144 175 211 259
#     4   8  15  26  39  57  80 107 139 173 209 248
#     4   9  16  26  43  66  89 117 152 182 208 245
#     4   9  16  27  43  62  86 114 143 176 210 247
#
# _framework density 15.200294
#
# number of rings (size 3 to 8) (size 9 to 14) (size 15 to 20)
#    0.000    3.000    0.000    2.571    0.000    7.143 
#    0.000    0.714    0.000    2.143    0.000    1.000 
#    0.000    3.429    0.000    0.000    0.000    0.000 
#
# Total GULP energy -155908.091288 kJ/mol
# GULP energy per Si atom -5568.146117 kJ/mol
# Density = 1.516570 g / cm^3
# Si number density = 15.200294 Si / 1000 Ang^3
#
#
#
# Elastic Constant Matrix: (Units=GPa)
#
#
# Indices 1 2 3 4 5 6 
#
# 1 32.7388 52.8907 23.8706 0.0000 0.0000 0.0000
# 2 52.8907 153.6583 70.8659 0.0000 0.0000 0.0000
# 3 23.8706 70.8659 81.0752 0.0000 0.0000 0.0000
# 4 0.0000 0.0000 0.0000 25.2472 0.0000 0.0000
# 5 0.0000 0.0000 0.0000 0.0000 14.5348 0.0000
# 6 0.0000 0.0000 0.0000 0.0000 0.0000 22.9489
#
#
#
# Elastic Compliance Matrix: (Units=1/GPa)
#
#
# Indices 1 2 3 4 5 6 
#
# 1 0.068834 -0.024036 0.000743 0.000000 0.000000 0.000000
# 2 -0.024036 0.019296 -0.009790 0.000000 0.000000 0.000000
# 3 0.000743 -0.009790 0.020672 0.000000 0.000000 0.000000
# 4 0.000000 0.000000 0.000000 0.039608 0.000000 0.000000
# 5 0.000000 0.000000 0.000000 0.000000 0.068801 0.000000
# 6 0.000000 0.000000 0.000000 0.000000 0.000000 0.043575
#
#
# Mechanical properties :
#
#
# Convention : Reuss Voigt Hill
#
# Bulk Modulus (GPa) = 23.45368 62.52518 42.98943
# Shear Modulus (GPa) = 14.65568 20.53587 17.59577
#
# Velocity S-wave (km/s) = 3.10848 3.67961 3.40603
# Velocity P-wave (km/s) = 5.32417 7.69910 6.61902
#
# Compressibility (1/GPa) = 0.04263724
#
# Stress axis : x y z
#
# Youngs Moduli (GPa) = 14.52766 51.82353 48.37367
#
# Poissons Ratio (x) = 1.24563 -0.03593
# Poissons Ratio (y) = 0.34919 0.47356
# Poissons Ratio (z) = -0.01079 0.50733
#
# Static dielectric constant tensor:
#      x y z
#    x 1.514480 0.000000 0.000000 
#    y 0.000000 1.509810 0.000000 
#    z 0.000000 0.000000 1.490090 
# 
# From -- ./inp_files/23217.got.cif
#   From: 2010.05.17/outbox.cif.g08.bks.cpg/sg44_12_cif.got.tgz:23217.got - 2010.06.03 19:37:08.
