data_PCOD9373088
_publ_section_title
;
Structure prediction by ZEFSAII (Michael W. Deem and Ramdas Pophale) SiO2 
 PCOD9373088
Probable space group: I M M 2
;
_chemical_formula_sum "Si O2"
_cell_formula_units_Z 40
_cell_length_a 8.192219
_cell_length_b 21.633650
_cell_length_c 13.145295
_cell_angle_alpha 90.000000
_cell_angle_beta 90.000000
_cell_angle_gamma 90.000000
_cell_volume 2329.709065
_symmetry_space_group_name_H-M "I M M 2"
_symmetry_group_IT_number 44
_symmetry_cell_setting 'orthorhombic'
loop_
_space_group_symop_operation_xyz
x,y,z
-x,-y,z
-x,y,z
x,-y,z
1/2+x,1/2+y,1/2+z
1/2-x,1/2-y,1/2+z
1/2-x,1/2+y,1/2+z
1/2+x,1/2-y,1/2+z
loop_
_atom_site_type_symbol
_atom_site_label
_atom_site_fract_x
_atom_site_fract_y
_atom_site_fract_z
Si Si1 0.803274 0.836683 0.252870
Si Si2 0.803694 0.070032 0.081580
Si Si3 0.304442 0.798929 0.466386
Si Si4 0.195156 0.660930 0.407268
Si Si5 0.801021 0.698232 0.190683
O O1 0.742753 0.890425 0.178475
O O2 0.751201 0.838942 0.370128
O O3 0.750414 0.769488 0.210354
O O4 0.000000 0.836751 0.250034
O O5 0.000000 0.067350 0.090124
O O6 0.740740 0.000000 0.078837
O O7 0.764270 0.108692 0.980546
O O8 0.500000 0.796636 0.466679
O O9 0.242299 0.728945 0.448463
O O10 0.247789 0.820715 0.577937
O O11 0.252679 0.659853 0.289532
O O12 0.000000 0.656325 0.408186
O O13 0.000000 0.697556 0.191529
#
# Coordination Sequence:
#
# PCOD9373088 Si02
#       5
#     8   8   8   8   8
#     4   9  17  31  46  68  99 127 159 200 247 293
#     4  10  20  35  53  70  96 134 169 203 244 291
#     4  10  17  29  49  72  98 128 160 198 243 295
#     4  10  19  31  47  71 100 129 162 200 244 293
#     4   8  15  28  46  67  97 127 151 192 246 292
#
# _framework density 17.169525
#
# number of rings (size 3 to 8) (size 9 to 14) (size 15 to 20)
#    0.000    2.600    2.000    2.400    0.000    1.200 
#    0.000    3.000    0.000    1.200    0.000    5.600 
#    0.000    0.000    0.000    0.000    0.000    0.000 
#
# Total GULP energy -111441.030461 kJ/mol
# GULP energy per Si atom -5572.051523 kJ/mol
# Density = 1.713045 g / cm^3
# Si number density = 17.169525 Si / 1000 Ang^3
#
#
#
# Elastic Constant Matrix: (Units=GPa)
#
#
# Indices 1 2 3 4 5 6 
#
# 1 8.0871 6.6562 4.5619 0.0000 0.0000 0.0000
# 2 6.6562 93.3477 74.3683 0.0000 0.0000 0.0000
# 3 4.5619 74.3683 195.9392 0.0000 0.0000 0.0000
# 4 0.0000 0.0000 0.0000 13.5692 0.0000 0.0000
# 5 0.0000 0.0000 0.0000 0.0000 25.7344 0.0000
# 6 0.0000 0.0000 0.0000 0.0000 0.0000 34.3055
#
#
#
# Elastic Compliance Matrix: (Units=1/GPa)
#
#
# Indices 1 2 3 4 5 6 
#
# 1 0.131432 -0.009939 0.000712 0.000000 0.000000 0.000000
# 2 -0.009939 0.016108 -0.005882 0.000000 0.000000 0.000000
# 3 0.000712 -0.005882 0.007320 0.000000 0.000000 0.000000
# 4 0.000000 0.000000 0.000000 0.073696 0.000000 0.000000
# 5 0.000000 0.000000 0.000000 0.000000 0.038858 0.000000
# 6 0.000000 0.000000 0.000000 0.000000 0.000000 0.029150
#
#
# Mechanical properties :
#
#
# Convention : Reuss Voigt Hill
#
# Bulk Modulus (GPa) = 8.02304 52.06076 30.04190
# Shear Modulus (GPa) = 13.57481 28.84100 21.20791
#
# Velocity S-wave (km/s) = 2.81487 4.10296 3.51836
# Velocity P-wave (km/s) = 3.90482 7.26864 5.83441
#
# Compressibility (1/GPa) = 0.12464106
#
# Stress axis : x y z
#
# Youngs Moduli (GPa) = 7.60849 62.08246 136.61919
#
# Poissons Ratio (x) = 0.61706 -0.09733
# Poissons Ratio (y) = 0.07562 0.80362
# Poissons Ratio (z) = -0.00542 0.36518
#
# Static dielectric constant tensor:
#      x y z
#    x 1.603590 0.000000 0.000000 
#    y 0.000000 1.554500 0.000000 
#    z 0.000000 0.000000 1.627700 
# 
# From -- ./inp_files/10990.got.cif
#   From: 2010.05.17/outbox.cif.g08.bks.cpg/sg44_6_cif.got.tgz:10990.got - 2010.06.03 19:37:08.
