data_PCOD9373519
_publ_section_title
;
Structure prediction by ZEFSAII (Michael W. Deem and Ramdas Pophale) SiO2 
 PCOD9373519
Probable space group: I M M 2
;
_chemical_formula_sum "Si O2"
_cell_formula_units_Z 64
_cell_length_a 16.024894
_cell_length_b 8.305281
_cell_length_c 24.552865
_cell_angle_alpha 90.000000
_cell_angle_beta 90.000000
_cell_angle_gamma 90.000000
_cell_volume 3267.771437
_symmetry_space_group_name_H-M "I M M 2"
_symmetry_group_IT_number 44
_symmetry_cell_setting 'orthorhombic'
loop_
_space_group_symop_operation_xyz
x,y,z
-x,-y,z
-x,y,z
x,-y,z
1/2+x,1/2+y,1/2+z
1/2-x,1/2-y,1/2+z
1/2-x,1/2+y,1/2+z
1/2+x,1/2-y,1/2+z
loop_
_atom_site_type_symbol
_atom_site_label
_atom_site_fract_x
_atom_site_fract_y
_atom_site_fract_z
Si Si1 0.249082 0.808021 0.018380
Si Si2 0.661404 0.804758 0.331749
Si Si3 0.592325 0.308258 0.950103
Si Si4 0.592533 0.305572 0.714885
Si Si5 0.852111 0.690573 0.333043
Si Si6 0.907078 0.303642 0.714386
Si Si7 0.749762 0.302732 0.642993
Si Si8 0.592483 0.194185 0.448463
O O1 0.250047 0.748291 0.080596
O O2 0.246028 0.000000 0.019920
O O3 0.332010 0.759456 0.985693
O O4 0.167132 0.749013 0.986940
O O5 0.754333 0.735195 0.332597
O O6 0.615300 0.757125 0.276254
O O7 0.613577 0.756075 0.386500
O O8 0.668055 0.000000 0.331653
O O9 0.500000 0.247679 0.965997
O O10 0.593545 0.500000 0.956018
O O11 0.608117 0.267359 0.886862
O O12 0.500000 0.251601 0.697723
O O13 0.593872 0.500000 0.713789
O O14 0.609315 0.252908 0.776753
O O15 0.667722 0.249443 0.676145
O O16 0.862636 0.500000 0.336372
O O17 0.907302 0.500000 0.713229
O O18 0.832989 0.250332 0.674762
O O19 0.000000 0.249077 0.699419
O O20 0.749450 0.500000 0.643350
O O21 0.500000 0.251751 0.464286
O O22 0.591598 0.000000 0.448874
#
# Coordination Sequence:
#
# PCOD9373519 Si02
#       8
#     8   8   8   8   8   8   8   8
#     4  11  23  38  59  88 120 153 193 248 301 337
#     4  10  18  33  59  85 114 148 186 232 283 349
#     4  11  24  42  63  85 113 155 201 241 289 355
#     4  10  20  37  61  85 112 152 197 235 277 339
#     4  12  23  35  57  89 122 151 183 235 300 353
#     4   9  16  29  55  87 112 139 181 231 279 331
#     4   9  19  35  55  84 116 148 191 237 283 335
#     4  10  21  37  59  87 117 153 196 239 286 346
#
# _framework density 19.585211999999999
#
# number of rings (size 3 to 8) (size 9 to 14) (size 15 to 20)
#    0.000    1.750    2.500    2.625    0.000    5.500 
#    0.000    3.750    0.000    1.125    0.000    0.000 
#    0.000    0.000    0.000    0.000    0.000    0.000 
#
# Total GULP energy -178770.733647 kJ/mol
# GULP energy per Si atom -5586.585426 kJ/mol
# Density = 1.954064 g / cm^3
# Si number density = 19.585212 Si / 1000 Ang^3
#
#
#
# Elastic Constant Matrix: (Units=GPa)
#
#
# Indices 1 2 3 4 5 6 
#
# 1 208.6939 18.5163 95.3498 0.0000 0.0000 0.0000
# 2 18.5163 11.0539 11.9365 0.0000 0.0000 0.0000
# 3 95.3498 11.9365 161.6813 0.0000 0.0000 0.0000
# 4 0.0000 0.0000 0.0000 21.6498 0.0000 0.0000
# 5 0.0000 0.0000 0.0000 0.0000 -2.7246 0.0000
# 6 0.0000 0.0000 0.0000 0.0000 0.0000 -2.1653
#
#
#
# Elastic Compliance Matrix: (Units=1/GPa)
#
#
# Indices 1 2 3 4 5 6 
#
# 1 0.007168 -0.008087 -0.003630 0.000000 0.000000 0.000000
# 2 -0.008087 0.107427 -0.003162 0.000000 0.000000 0.000000
# 3 -0.003630 -0.003162 0.008559 0.000000 0.000000 0.000000
# 4 0.000000 0.000000 0.000000 0.046190 0.000000 0.000000
# 5 0.000000 0.000000 0.000000 0.000000 -0.367029 0.000000
# 6 0.000000 0.000000 0.000000 0.000000 0.000000 -0.461840
#
#
# Mechanical properties :
#
#
# Convention : Reuss Voigt Hill
#
# Bulk Modulus (GPa) = 10.70710 70.33716 40.52213
# Shear Modulus (GPa) = -8.35232 20.39375 6.02072
#
# Velocity S-wave (km/s) = -2.06733 3.23039 1.75522
# Velocity P-wave (km/s) = 0.46870 7.06437 4.98426
#
# Compressibility (1/GPa) = 0.09339595
#
# Stress axis : x y z
#
# Youngs Moduli (GPa) = 139.51397 9.30869 116.83274
#
# Poissons Ratio (x) = 0.07528 0.42411
# Poissons Ratio (y) = 1.12821 0.36942
# Poissons Ratio (z) = 0.50645 0.02943
#
# Static dielectric constant tensor:
#      x y z
#    x 1.709250 0.000000 0.000000 
#    y 0.000000 1.677340 0.000000 
#    z 0.000000 0.000000 1.662790 
# 
# From -- ./inp_files/25092.got.cif
#   From: 2010.05.17/outbox.cif.g08.bks.cpg/sg44_13_cif.got.tgz:25092.got - 2010.06.03 19:37:08.
