data_PCOD9373658
_publ_section_title
;
Structure prediction by ZEFSAII (Michael W. Deem and Ramdas Pophale) SiO2 
 PCOD9373658
Probable space group: I M M 2
;
_chemical_formula_sum "Si O2"
_cell_formula_units_Z 64
_cell_length_a 7.398359
_cell_length_b 29.301925
_cell_length_c 14.713507
_cell_angle_alpha 90.000000
_cell_angle_beta 90.000000
_cell_angle_gamma 90.000000
_cell_volume 3189.684691
_symmetry_space_group_name_H-M "I M M 2"
_symmetry_group_IT_number 44
_symmetry_cell_setting 'orthorhombic'
loop_
_space_group_symop_operation_xyz
x,y,z
-x,-y,z
-x,y,z
x,-y,z
1/2+x,1/2+y,1/2+z
1/2-x,1/2-y,1/2+z
1/2-x,1/2+y,1/2+z
1/2+x,1/2-y,1/2+z
loop_
_atom_site_type_symbol
_atom_site_label
_atom_site_fract_x
_atom_site_fract_y
_atom_site_fract_z
Si Si1 0.279855 0.552191 0.545000
Si Si2 0.787623 0.696542 0.054431
Si Si3 0.708755 0.618902 0.195284
Si Si4 0.220526 0.799820 0.044841
Si Si5 0.779283 0.127076 0.899060
Si Si6 0.721416 0.552177 0.041097
Si Si7 0.717467 0.626348 0.897474
Si Si8 0.220339 0.874215 0.190991
O O1 0.500000 0.551356 0.545110
O O2 0.217907 0.500000 0.543191
O O3 0.226490 0.582747 0.458109
O O4 0.224836 0.580945 0.634115
O O5 0.711896 0.664550 0.134244
O O6 0.715762 0.747903 0.049622
O O7 0.000000 0.699294 0.072894
O O8 0.762570 0.669949 0.959496
O O9 0.500000 0.606205 0.209888
O O10 0.785993 0.625448 0.295613
O O11 0.785255 0.579290 0.130598
O O12 0.274049 0.830311 0.131515
O O13 0.000000 0.798900 0.043419
O O14 0.277495 0.828286 0.955881
O O15 0.000000 0.128161 0.898750
O O16 0.500000 0.552810 0.041875
O O17 0.778698 0.500000 0.038141
O O18 0.778440 0.582157 0.954485
O O19 0.500000 0.624281 0.893673
O O20 0.783913 0.627491 0.794446
O O21 0.000000 0.874425 0.192220
#
# Coordination Sequence:
#
# PCOD9373658 Si02
#       8
#     8   8   8   8   8   8   8   8
#     4   8  13  21  36  63  95 118 137 168 211 255
#     4  10  19  30  44  61  83 112 145 180 216 253
#     4   9  17  29  45  64  86 113 143 175 211 250
#     4   8  15  27  41  59  83 110 139 173 215 257
#     4   8  14  25  40  59  86 116 142 170 208 255
#     4   8  14  24  38  59  85 108 133 167 204 241
#     4   9  17  29  45  64  86 113 143 175 211 250
#     4   8  14  25  40  59  86 116 142 170 208 255
#
# _framework density 20.064679999999999
#
# number of rings (size 3 to 8) (size 9 to 14) (size 15 to 20)
#    0.000    3.500    0.000    2.625    0.000    2.000 
#    0.000    5.000    0.000    7.500    0.000    2.625 
#    0.000    1.000    0.000    0.000    0.000    0.000 
#
# Total GULP energy -178428.598105 kJ/mol
# GULP energy per Si atom -5575.893691 kJ/mol
# Density = 2.001901 g / cm^3
# Si number density = 20.064680 Si / 1000 Ang^3
#
#
#
# Elastic Constant Matrix: (Units=GPa)
#
#
# Indices 1 2 3 4 5 6 
#
# 1 65.0030 -5.1611 -3.2535 0.0000 0.0000 0.0000
# 2 -5.1611 200.6450 94.8252 0.0000 0.0000 0.0000
# 3 -3.2535 94.8252 188.2824 -0.0001 0.0000 0.0000
# 4 0.0000 0.0000 -0.0001 5.9950 0.0000 0.0000
# 5 0.0000 0.0000 0.0000 0.0000 -10.0601 0.0000
# 6 0.0000 0.0000 0.0000 0.0000 0.0000 8.1792
#
#
#
# Elastic Compliance Matrix: (Units=1/GPa)
#
#
# Indices 1 2 3 4 5 6 
#
# 1 0.015416 0.000355 0.000088 0.000000 0.000000 0.000000
# 2 0.000355 0.006549 -0.003292 0.000000 0.000000 0.000000
# 3 0.000088 -0.003292 0.006971 0.000000 0.000000 0.000000
# 4 0.000000 0.000000 0.000000 0.166807 0.000000 0.000000
# 5 0.000000 0.000000 0.000000 0.000000 -0.099403 0.000000
# 6 0.000000 0.000000 0.000000 0.000000 0.000000 0.122261
#
#
# Mechanical properties :
#
#
# Convention : Reuss Voigt Hill
#
# Bulk Modulus (GPa) = 43.03428 69.63906 56.33667
# Shear Modulus (GPa) = 21.54751 25.32415 23.43583
#
# Velocity S-wave (km/s) = 3.28060 3.55650 3.42133
# Velocity P-wave (km/s) = 5.98700 7.18662 6.61406
#
# Compressibility (1/GPa) = 0.02323729
#
# Stress axis : x y z
#
# Youngs Moduli (GPa) = 64.86563 152.69688 143.45763
#
# Poissons Ratio (x) = -0.05424 -0.01255
# Poissons Ratio (y) = -0.02304 0.47228
# Poissons Ratio (z) = -0.00568 0.50270
#
# Static dielectric constant tensor:
#      x y z
#    x 1.781260 0.000000 0.000000 
#    y 0.000000 1.675480 0.000000 
#    z 0.000000 0.000000 1.686450 
# 
# From -- ./inp_files/17078.got.cif
#   From: 2010.05.17/outbox.cif.g08.bks.cpg/sg44_9_cif.got.tgz:17078.got - 2010.06.03 19:37:08.
