data_PCOD9373370
_publ_section_title
;
Structure prediction by ZEFSAII (Michael W. Deem and Ramdas Pophale) SiO2 
 PCOD9373370
Probable space group: I M M 2
;
_chemical_formula_sum "Si O2"
_cell_formula_units_Z 64
_cell_length_a 33.374767
_cell_length_b 7.602758
_cell_length_c 12.295719
_cell_angle_alpha 90.000000
_cell_angle_beta 90.000000
_cell_angle_gamma 90.000000
_cell_volume 3119.919143
_symmetry_space_group_name_H-M "I M M 2"
_symmetry_group_IT_number 44
_symmetry_cell_setting 'orthorhombic'
loop_
_space_group_symop_operation_xyz
x,y,z
-x,-y,z
-x,y,z
x,-y,z
1/2+x,1/2+y,1/2+z
1/2-x,1/2-y,1/2+z
1/2-x,1/2+y,1/2+z
1/2+x,1/2-y,1/2+z
loop_
_atom_site_type_symbol
_atom_site_label
_atom_site_fract_x
_atom_site_fract_y
_atom_site_fract_z
Si Si1 0.546029 0.288438 0.410970
Si Si2 0.316235 0.206861 0.361293
Si Si3 0.850407 0.294398 0.279556
Si Si4 0.401211 0.299613 0.980358
Si Si5 0.376608 0.211510 0.544399
Si Si6 0.452464 0.710302 0.171938
Si Si7 0.774359 0.287580 0.417722
Si Si8 0.824220 0.285676 0.617734
O O1 0.500000 0.227068 0.429677
O O2 0.543922 0.500000 0.402740
O O3 0.578410 0.246664 0.502837
O O4 0.560880 0.223284 0.291303
O O5 0.345655 0.280641 0.453226
O O6 0.269746 0.224789 0.390759
O O7 0.322006 0.279084 0.240309
O O8 0.325610 0.000000 0.354030
O O9 0.841891 0.500000 0.262681
O O10 0.886060 0.282185 0.367999
O O11 0.864287 0.219889 0.163690
O O12 0.809808 0.222145 0.336625
O O13 0.412678 0.500000 0.954605
O O14 0.433986 0.216187 0.060811
O O15 0.362364 0.292106 0.057402
O O16 0.372826 0.000000 0.548922
O O17 0.500000 0.731798 0.171204
O O18 0.443606 0.500000 0.169480
O O19 0.774309 0.500000 0.411890
O O20 0.786889 0.239435 0.540649
O O21 0.827679 0.500000 0.615748
#
# Coordination Sequence:
#
# PCOD9373370 Si02
#       8
#     8   8   8   8   8   8   8   8
#     4   9  18  34  56  81 109 139 171 214 267 316
#     4  10  21  34  52  77 102 131 171 217 258 305
#     4   9  20  38  53  68 103 146 174 208 265 316
#     4  10  18  30  53  79  97 126 174 214 247 299
#     4  10  21  36  54  77 105 142 181 217 261 315
#     4   8  15  29  50  77 108 134 158 203 266 316
#     4   9  19  34  51  70  97 136 171 207 260 311
#     4   9  19  35  50  69 101 133 159 200 262 309
#
# _framework density 20.513352999999999
#
# number of rings (size 3 to 8) (size 9 to 14) (size 15 to 20)
#    0.000    2.750    0.000    2.625    1.750    3.750 
#    0.000    1.250    0.000    5.250    0.000    0.000 
#    0.000    0.000    0.000    0.000    0.000    0.000 
#
# Total GULP energy -178392.906955 kJ/mol
# GULP energy per Si atom -5574.778342 kJ/mol
# Density = 2.046666 g / cm^3
# Si number density = 20.513353 Si / 1000 Ang^3
#
#
#
# Elastic Constant Matrix: (Units=GPa)
#
#
# Indices 1 2 3 4 5 6 
#
# 1 68.8048 -3.0115 68.7133 0.0000 0.0000 0.0000
# 2 -3.0115 40.6169 6.9247 0.0000 0.0000 0.0000
# 3 68.7133 6.9247 182.0678 0.0000 0.0000 0.0000
# 4 0.0000 0.0000 0.0000 20.2101 0.0000 0.0000
# 5 0.0000 0.0000 0.0000 0.0000 23.2494 0.0000
# 6 0.0000 0.0000 0.0000 0.0000 0.0000 17.5687
#
#
#
# Elastic Compliance Matrix: (Units=1/GPa)
#
#
# Indices 1 2 3 4 5 6 
#
# 1 0.023760 0.003312 -0.009093 0.000000 0.000000 0.000000
# 2 0.003312 0.025243 -0.002210 0.000000 0.000000 0.000000
# 3 -0.009093 -0.002210 0.009008 0.000000 0.000000 0.000000
# 4 0.000000 0.000000 0.000000 0.049480 0.000000 0.000000
# 5 0.000000 0.000000 0.000000 0.000000 0.043012 0.000000
# 6 0.000000 0.000000 0.000000 0.000000 0.000000 0.056920
#
#
# Mechanical properties :
#
#
# Convention : Reuss Voigt Hill
#
# Bulk Modulus (GPa) = 23.79341 48.52694 36.16018
# Shear Modulus (GPa) = 21.06026 26.79650 23.92838
#
# Velocity S-wave (km/s) = 3.20763 3.61819 3.41908
# Velocity P-wave (km/s) = 5.03415 6.41582 5.76652
#
# Compressibility (1/GPa) = 0.04202845
#
# Stress axis : x y z
#
# Youngs Moduli (GPa) = 42.08794 39.61551 111.00908
#
# Poissons Ratio (x) = -0.13120 1.00941
# Poissons Ratio (y) = -0.13939 0.24533
# Poissons Ratio (z) = 0.38271 0.08755
#
# Static dielectric constant tensor:
#      x y z
#    x 1.719890 0.000000 0.000000 
#    y 0.000000 1.737110 0.000000 
#    z 0.000000 0.000000 1.762160 
# 
# From -- ./inp_files/15077.got.cif
#   From: 2010.05.17/outbox.cif.g08.bks.cpg/sg44_8_cif.got.tgz:15077.got - 2010.06.03 19:37:08.
