data_PCOD9373743
_publ_section_title
;
Structure prediction by ZEFSAII (Michael W. Deem and Ramdas Pophale) SiO2 
 PCOD9373743
Probable space group: I M M 2
;
_chemical_formula_sum "Si O2"
_cell_formula_units_Z 58
_cell_length_a 7.333712
_cell_length_b 16.277787
_cell_length_c 19.354521
_cell_angle_alpha 90.000000
_cell_angle_beta 90.000000
_cell_angle_gamma 90.000000
_cell_volume 2310.476948
_symmetry_space_group_name_H-M "I M M 2"
_symmetry_group_IT_number 44
_symmetry_cell_setting 'orthorhombic'
loop_
_space_group_symop_operation_xyz
x,y,z
-x,-y,z
-x,y,z
x,-y,z
1/2+x,1/2+y,1/2+z
1/2-x,1/2-y,1/2+z
1/2-x,1/2+y,1/2+z
1/2+x,1/2-y,1/2+z
loop_
_atom_site_type_symbol
_atom_site_label
_atom_site_fract_x
_atom_site_fract_y
_atom_site_fract_z
Si Si1 0.000000 0.500000 0.853431
Si Si2 0.715480 0.412684 0.541203
Si Si3 0.716348 0.774814 0.695820
Si Si4 0.782262 0.908919 0.580624
Si Si5 0.717693 0.409624 0.706000
Si Si6 0.292461 0.805108 0.924480
Si Si7 0.222550 0.409795 0.303251
Si Si8 0.722097 0.621811 0.919781
O O1 0.838582 0.570438 0.866161
O O2 0.500000 0.410609 0.529028
O O3 0.789330 0.500000 0.514675
O O4 0.739364 0.411985 0.622812
O O5 0.792489 0.334503 0.502938
O O6 0.500000 0.764132 0.703126
O O7 0.734461 0.825945 0.623381
O O8 0.788132 0.683698 0.716601
O O9 0.784399 0.841114 0.750327
O O10 0.734214 0.903247 0.499269
O O11 0.000000 0.911566 0.583605
O O12 0.715597 0.000000 0.606367
O O13 0.500000 0.411765 0.722235
O O14 0.795275 0.500000 0.729842
O O15 0.500000 0.795728 0.901319
O O16 0.218277 0.878789 0.878500
O O17 0.216483 0.715889 0.914090
O O18 0.289509 0.500000 0.287089
O O19 0.000000 0.413278 0.299707
O O20 0.500000 0.613122 0.911032
#
# Coordination Sequence:
#
# PCOD9373743 Si02
#       8
#     2   8   8   8   8   8   8   8
#     4  12  22  36  64  82 114 160 186 228 308 344
#     4   9  17  29  47  75 107 137 175 225 277 337
#     4  10  19  30  53  81 103 137 193 237 272 336
#     4  10  20  34  50  75 116 148 173 223 282 338
#     4   8  15  29  48  73 106 134 162 217 280 325
#     4  10  20  34  53  73 106 145 183 230 284 337
#     4   9  18  33  51  77 110 144 182 233 284 337
#     4  10  22  37  55  86 118 150 192 239 284 353
#
# _framework density 25.103041000000001
#
# number of rings (size 3 to 8) (size 9 to 14) (size 15 to 20)
#    0.000    2.483    0.690    2.690    1.931    1.655 
#    0.000    0.690    1.517    3.724    0.000    0.000 
#    0.000    0.000    0.000    0.000    0.000    0.000 
#
# Total GULP energy -161564.934384 kJ/mol
# GULP energy per Si atom -5571.204634 kJ/mol
# Density = 2.504591 g / cm^3
# Si number density = 25.103041 Si / 1000 Ang^3
#
#
#
# Elastic Constant Matrix: (Units=GPa)
#
#
# Indices 1 2 3 4 5 6 
#
# 1 97.0316 21.5515 -4.1160 0.0000 0.0000 0.0000
# 2 21.5515 251.1040 23.1116 0.0000 0.0000 0.0000
# 3 -4.1160 23.1116 44.1393 0.0000 0.0000 0.0000
# 4 0.0000 0.0000 0.0000 47.5441 0.0000 0.0000
# 5 0.0000 0.0000 0.0000 0.0000 -40.9569 0.0000
# 6 0.0000 0.0000 0.0000 0.0000 0.0000 17.6637
#
#
#
# Elastic Compliance Matrix: (Units=1/GPa)
#
#
# Indices 1 2 3 4 5 6 
#
# 1 0.010605 -0.001052 0.001540 0.000000 0.000000 0.000000
# 2 -0.001052 0.004288 -0.002344 0.000000 0.000000 0.000000
# 3 0.001540 -0.002344 0.024026 0.000000 0.000000 0.000000
# 4 0.000000 0.000000 0.000000 0.021033 0.000000 0.000000
# 5 0.000000 0.000000 0.000000 0.000000 -0.024416 0.000000
# 6 0.000000 0.000000 0.000000 0.000000 0.000000 0.056613
#
#
# Mechanical properties :
#
#
# Convention : Reuss Voigt Hill
#
# Bulk Modulus (GPa) = 28.40264 52.59656 40.49960
# Shear Modulus (GPa) = 46.46944 28.29867 37.38405
#
# Velocity S-wave (km/s) = 4.30716 3.36117 3.86323
# Velocity P-wave (km/s) = 6.00621 6.00509 6.00565
#
# Compressibility (1/GPa) = 0.03520800
#
# Stress axis : x y z
#
# Youngs Moduli (GPa) = 94.29629 233.18772 41.62123
#
# Poissons Ratio (x) = 0.24529 -0.06408
# Poissons Ratio (y) = 0.09919 0.09754
# Poissons Ratio (z) = -0.14519 0.54648
#
# Static dielectric constant tensor:
#      x y z
#    x 2.010980 0.000000 0.000000 
#    y 0.000000 2.019170 0.000000 
#    z 0.000000 0.000000 2.037220 
# 
# From -- ./inp_files/25055.got.cif
#   From: 2010.05.17/outbox.cif.g08.bks.cpg/sg44_13_cif.got.tgz:25055.got - 2010.06.03 19:37:08.
