data_PCOD9373823
_publ_section_title
;
Structure prediction by ZEFSAII (Michael W. Deem and Ramdas Pophale) SiO2 
 PCOD9373823
Probable space group: I M M 2
;
_chemical_formula_sum "Si O2"
_cell_formula_units_Z 64
_cell_length_a 14.190784
_cell_length_b 22.887492
_cell_length_c 8.682190
_cell_angle_alpha 90.000000
_cell_angle_beta 90.000000
_cell_angle_gamma 90.000000
_cell_volume 2819.901125
_symmetry_space_group_name_H-M "I M M 2"
_symmetry_group_IT_number 44
_symmetry_cell_setting 'orthorhombic'
loop_
_space_group_symop_operation_xyz
x,y,z
-x,-y,z
-x,y,z
x,-y,z
1/2+x,1/2+y,1/2+z
1/2-x,1/2-y,1/2+z
1/2-x,1/2+y,1/2+z
1/2+x,1/2-y,1/2+z
loop_
_atom_site_type_symbol
_atom_site_label
_atom_site_fract_x
_atom_site_fract_y
_atom_site_fract_z
Si Si1 0.889169 0.704203 0.863350
Si Si2 0.886920 0.186986 0.339158
Si Si3 0.887003 0.436071 0.352378
Si Si4 0.303257 0.563301 0.839472
Si Si5 0.892188 0.586336 0.711051
Si Si6 0.613530 0.314894 0.201637
Si Si7 0.612657 0.561442 0.180813
Si Si8 0.385435 0.814595 0.702606
O O1 0.884923 0.656221 0.730186
O O2 0.845950 0.763954 0.805208
O O3 0.000000 0.713815 0.894098
O O4 0.852462 0.681808 0.025675
O O5 0.840974 0.126221 0.278164
O O6 0.863740 0.191068 0.521346
O O7 0.861803 0.249427 0.263610
O O8 0.000000 0.179940 0.324767
O O9 0.850886 0.500000 0.297213
O O10 0.875106 0.432569 0.536644
O O11 0.852186 0.374574 0.283135
O O12 0.000000 0.436920 0.324611
O O13 0.368980 0.500000 0.261333
O O14 0.190948 0.563469 0.817969
O O15 0.335615 0.562437 0.016881
O O16 0.000000 0.570615 0.754877
O O17 0.500000 0.309311 0.206131
O O18 0.637198 0.378861 0.263694
O O19 0.500000 0.564036 0.147669
O O20 0.662337 0.500000 0.773901
O O21 0.500000 0.816697 0.713937
#
# Coordination Sequence:
#
# PCOD9373823 Si02
#       8
#     8   8   8   8   8   8   8   8
#     4   9  17  30  49  74 105 139 174 217 267 315
#     4   9  17  31  53  79 107 141 178 216 264 321
#     4   9  17  31  52  77 105 140 182 225 271 325
#     4  10  19  31  50  77 107 136 175 226 271 315
#     4  10  20  34  52  74 103 139 179 223 272 326
#     4   8  13  24  46  74 103 136 173 212 254 305
#     4   8  14  26  47  77 110 142 177 219 266 315
#     4   9  17  31  52  77 107 140 175 220 270 323
#
# _framework density 22.695831999999999
#
# number of rings (size 3 to 8) (size 9 to 14) (size 15 to 20)
#    0.000    3.000    0.000    2.250    0.000    4.500 
#    0.000    5.000    0.000    6.750    0.000    7.000 
#    0.000    0.000    0.000    0.000    0.000    1.000 
#
# Total GULP energy -178376.872545 kJ/mol
# GULP energy per Si atom -5574.277267 kJ/mol
# Density = 2.264418 g / cm^3
# Si number density = 22.695832 Si / 1000 Ang^3
#
#
#
# Elastic Constant Matrix: (Units=GPa)
#
#
# Indices 1 2 3 4 5 6 
#
# 1 125.9480 25.2499 10.2371 -0.0001 -0.0001 0.0000
# 2 25.2499 241.2528 60.7394 0.0009 0.0000 -0.0001
# 3 10.2371 60.7394 34.2373 0.0016 0.0002 -0.0002
# 4 -0.0001 0.0009 0.0016 -71.4412 0.0000 0.0004
# 5 -0.0001 0.0000 0.0002 0.0000 -1.4042 0.0000
# 6 0.0000 -0.0001 -0.0002 0.0004 0.0000 -20.1718
#
#
#
# Elastic Compliance Matrix: (Units=1/GPa)
#
#
# Indices 1 2 3 4 5 6 
#
# 1 0.008163 -0.000433 -0.001672 0.000000 -0.000001 0.000000
# 2 -0.000433 0.007514 -0.013201 0.000000 -0.000002 0.000000
# 3 -0.001672 -0.013201 0.053126 0.000001 0.000007 0.000000
# 4 0.000000 0.000000 0.000001 -0.013998 0.000000 0.000000
# 5 -0.000001 -0.000002 0.000007 0.000000 -0.712149 0.000000
# 6 0.000000 0.000000 0.000000 0.000000 0.000000 -0.049574
#
#
# Mechanical properties :
#
#
# Convention : Reuss Voigt Hill
#
# Bulk Modulus (GPa) = 26.18379 65.98789 46.08584
# Shear Modulus (GPa) = -7.53493 1.74398 -2.89547
#
# Velocity S-wave (km/s) = -1.82405 0.87754 -1.13073
# Velocity P-wave (km/s) = 2.66939 5.49225 4.31801
#
# Compressibility (1/GPa) = 0.03819157
#
# Stress axis : x y z
#
# Youngs Moduli (GPa) = 122.51068 133.08763 18.82300
#
# Poissons Ratio (x) = 0.05768 0.03147
# Poissons Ratio (y) = 0.05310 0.24847
# Poissons Ratio (z) = 0.20480 1.75683
#
# Static dielectric constant tensor:
#      x y z
#    x 1.875360 0.000000 0.000000 
#    y 0.000000 1.929030 0.000000 
#    z 0.000000 0.000000 1.787850 
# 
# From -- ./inp_files/7553.got.cif
#   From: 2010.05.17/outbox.cif.g08.bks.cpg/sg44_4_cif.got.tgz:7553.got - 2010.06.03 19:37:08.
