data_PCOD9373144
_publ_section_title
;
Structure prediction by ZEFSAII (Michael W. Deem and Ramdas Pophale) SiO2 
 PCOD9373144
Probable space group: I M M 2
;
_chemical_formula_sum "Si O2"
_cell_formula_units_Z 64
_cell_length_a 8.031988
_cell_length_b 27.530709
_cell_length_c 19.133191
_cell_angle_alpha 90.000000
_cell_angle_beta 90.000000
_cell_angle_gamma 90.000000
_cell_volume 4230.852198
_symmetry_space_group_name_H-M "I M M 2"
_symmetry_group_IT_number 44
_symmetry_cell_setting 'orthorhombic'
loop_
_space_group_symop_operation_xyz
x,y,z
-x,-y,z
-x,y,z
x,-y,z
1/2+x,1/2+y,1/2+z
1/2-x,1/2-y,1/2+z
1/2-x,1/2+y,1/2+z
1/2+x,1/2-y,1/2+z
loop_
_atom_site_type_symbol
_atom_site_label
_atom_site_fract_x
_atom_site_fract_y
_atom_site_fract_z
Si Si1 0.697900 0.350715 0.645570
Si Si2 0.704230 0.146926 0.816378
Si Si3 0.799094 0.445050 0.563674
Si Si4 0.308446 0.803178 0.682643
Si Si5 0.296788 0.945052 0.903403
Si Si6 0.698416 0.244438 0.897525
Si Si7 0.191124 0.288580 0.763870
Si Si8 0.798646 0.243070 0.057693
O O1 0.500000 0.346538 0.651278
O O2 0.740944 0.402972 0.614878
O O3 0.773414 0.337339 0.720960
O O4 0.757207 0.308286 0.591765
O O5 0.500000 0.146942 0.814657
O O6 0.764041 0.158143 0.737481
O O7 0.759763 0.096807 0.851003
O O8 0.754091 0.192370 0.865404
O O9 0.744077 0.500000 0.581307
O O10 0.745673 0.434688 0.483532
O O11 0.000000 0.445040 0.563703
O O12 0.500000 0.817236 0.670215
O O13 0.302991 0.752971 0.727294
O O14 0.235161 0.786321 0.608570
O O15 0.500000 0.944580 0.902956
O O16 0.244708 0.000000 0.885731
O O17 0.500000 0.246228 0.892326
O O18 0.771035 0.285352 0.845810
O O19 0.747593 0.248147 0.977898
O O20 0.000000 0.274635 0.752523
O O21 0.000000 0.243502 0.061127
#
# Coordination Sequence:
#
# PCOD9373144 Si02
#       8
#     8   8   8   8   8   8   8   8
#     4  10  19  30  43  59  82 110 140 171 203 242
#     4   8  13  22  36  52  73 104 134 159 195 236
#     4   9  17  28  41  59  83 109 140 177 210 239
#     4   8  15  27  39  54  79 106 133 166 201 238
#     4   8  13  21  35  57  82 105 134 172 204 230
#     4  10  18  27  40  57  78 104 134 166 200 242
#     4  10  18  28  42  58  78 103 132 165 202 243
#     4   9  17  27  38  55  79 105 133 167 203 239
#
# _framework density 15.126976000000001
#
# number of rings (size 3 to 8) (size 9 to 14) (size 15 to 20)
#    0.000    3.000    0.000    4.875    0.000    3.750 
#    0.000    0.000    0.000    0.000    0.000    0.000 
#    0.000    1.000    0.000    7.500    0.000    1.750 
#
# Total GULP energy -178136.846452 kJ/mol
# GULP energy per Si atom -5566.776452 kJ/mol
# Density = 1.509255 g / cm^3
# Si number density = 15.126976 Si / 1000 Ang^3
#
#
#
# Elastic Constant Matrix: (Units=GPa)
#
#
# Indices 1 2 3 4 5 6 
#
# 1 24.3890 10.5879 12.3135 0.0000 0.0000 0.0000
# 2 10.5879 93.6544 65.8573 0.0000 0.0000 0.0000
# 3 12.3135 65.8573 122.4690 0.0000 0.0000 0.0000
# 4 0.0000 0.0000 0.0000 29.3277 0.0000 0.0000
# 5 0.0000 0.0000 0.0000 0.0000 17.2949 0.0000
# 6 0.0000 0.0000 0.0000 0.0000 0.0000 11.1946
#
#
#
# Elastic Compliance Matrix: (Units=1/GPa)
#
#
# Indices 1 2 3 4 5 6 
#
# 1 0.043705 -0.002976 -0.002794 0.000000 0.000000 0.000000
# 2 -0.002976 0.017373 -0.009043 0.000000 0.000000 0.000000
# 3 -0.002794 -0.009043 0.013309 0.000000 0.000000 0.000000
# 4 0.000000 0.000000 0.000000 0.034097 0.000000 0.000000
# 5 0.000000 0.000000 0.000000 0.000000 0.057821 0.000000
# 6 0.000000 0.000000 0.000000 0.000000 0.000000 0.089328
#
#
# Mechanical properties :
#
#
# Convention : Reuss Voigt Hill
#
# Bulk Modulus (GPa) = 22.34108 46.44773 34.39440
# Shear Modulus (GPa) = 16.65668 21.68035 19.16852
#
# Velocity S-wave (km/s) = 3.32192 3.78990 3.56360
# Velocity P-wave (km/s) = 5.43274 7.06562 6.30229
#
# Compressibility (1/GPa) = 0.04476060
#
# Stress axis : x y z
#
# Youngs Moduli (GPa) = 22.88080 57.56038 75.13665
#
# Poissons Ratio (x) = 0.17132 0.20991
# Poissons Ratio (y) = 0.06810 0.67946
# Poissons Ratio (z) = 0.06392 0.52052
#
# Static dielectric constant tensor:
#      x y z
#    x 1.549100 0.000000 0.000000 
#    y 0.000000 1.498750 0.000000 
#    z 0.000000 0.000000 1.520380 
# 
# From -- ./inp_files/20903.got.cif
#   From: 2010.05.17/outbox.cif.g08.bks.cpg/sg44_11_cif.got.tgz:20903.got - 2010.06.03 19:37:08.
