data_PCOD9373343
_publ_section_title
;
Structure prediction by ZEFSAII (Michael W. Deem and Ramdas Pophale) SiO2 
 PCOD9373343
Probable space group: I M M 2
;
_chemical_formula_sum "Si O2"
_cell_formula_units_Z 40
_cell_length_a 7.544025
_cell_length_b 19.263085
_cell_length_c 13.807563
_cell_angle_alpha 90.000000
_cell_angle_beta 90.000000
_cell_angle_gamma 90.000000
_cell_volume 2006.531553
_symmetry_space_group_name_H-M "I M M 2"
_symmetry_group_IT_number 44
_symmetry_cell_setting 'orthorhombic'
loop_
_space_group_symop_operation_xyz
x,y,z
-x,-y,z
-x,y,z
x,-y,z
1/2+x,1/2+y,1/2+z
1/2-x,1/2-y,1/2+z
1/2-x,1/2+y,1/2+z
1/2+x,1/2-y,1/2+z
loop_
_atom_site_type_symbol
_atom_site_label
_atom_site_fract_x
_atom_site_fract_y
_atom_site_fract_z
Si Si1 0.708032 0.792363 0.635950
Si Si2 0.704402 0.353228 0.933885
Si Si3 0.714225 0.143684 0.050676
Si Si4 0.717453 0.791344 0.851242
Si Si5 0.784441 0.500000 0.646497
Si Si6 0.292447 0.500000 0.872475
O O1 0.500000 0.808159 0.632720
O O2 0.792408 0.833409 0.546806
O O3 0.730450 0.710276 0.614166
O O4 0.775621 0.809398 0.743177
O O5 0.500000 0.356892 0.901102
O O6 0.780553 0.286277 0.878751
O O7 0.785980 0.427832 0.911563
O O8 0.500000 0.143300 0.050932
O O9 0.774760 0.070482 0.093331
O O10 0.771363 0.159486 0.940224
O O11 0.500000 0.790565 0.850927
O O12 0.722034 0.500000 0.756886
O O13 0.000000 0.500000 0.647041
O O14 0.500000 0.500000 0.902109
#
# Coordination Sequence:
#
# PCOD9373343 Si02
#       6
#     8   8   8   8   4   4
#     4  10  18  30  50  74  95 122 162 206 241 277
#     4   9  18  33  50  70  96 128 161 194 238 296
#     4   9  18  33  49  69  98 130 160 194 240 296
#     4   8  15  29  48  67  92 124 158 192 232 282
#     4  10  20  32  51  76 100 126 161 204 245 284
#     4  10  20  34  53  72  98 134 163 192 243 302
#
# _framework density 19.934896999999999
#
# number of rings (size 3 to 8) (size 9 to 14) (size 15 to 20)
#    0.000    2.800    0.000    3.000    0.000    3.200 
#    0.000   11.000    0.000    2.400    0.000    0.000 
#    0.000    0.000    0.000    0.000    0.000    0.000 
#
# Total GULP energy -111562.893192 kJ/mol
# GULP energy per Si atom -5578.144660 kJ/mol
# Density = 1.988952 g / cm^3
# Si number density = 19.934897 Si / 1000 Ang^3
#
#
#
# Elastic Constant Matrix: (Units=GPa)
#
#
# Indices 1 2 3 4 5 6 
#
# 1 47.8999 -6.3567 -17.9281 0.0000 0.0000 0.0000
# 2 -6.3567 129.4154 42.7305 0.0000 0.0000 0.0000
# 3 -17.9281 42.7305 103.9645 0.0000 0.0000 0.0000
# 4 0.0000 0.0000 0.0000 15.3559 0.0000 0.0000
# 5 0.0000 0.0000 0.0000 0.0000 20.2987 0.0000
# 6 0.0000 0.0000 0.0000 0.0000 0.0000 6.8549
#
#
#
# Elastic Compliance Matrix: (Units=1/GPa)
#
#
# Indices 1 2 3 4 5 6 
#
# 1 0.022322 -0.000202 0.003932 0.000000 0.000000 0.000000
# 2 -0.000202 0.008942 -0.003710 0.000000 0.000000 0.000000
# 3 0.003932 -0.003710 0.011822 0.000000 0.000000 0.000000
# 4 0.000000 0.000000 0.000000 0.065122 0.000000 0.000000
# 5 0.000000 0.000000 0.000000 0.000000 0.049264 0.000000
# 6 0.000000 0.000000 0.000000 0.000000 0.000000 0.145880
#
#
# Mechanical properties :
#
#
# Convention : Reuss Voigt Hill
#
# Bulk Modulus (GPa) = 23.18782 35.35234 29.27008
# Shear Modulus (GPa) = 15.73876 26.02417 20.88146
#
# Velocity S-wave (km/s) = 2.81287 3.61703 3.24000
# Velocity P-wave (km/s) = 4.71239 5.93433 5.35831
#
# Compressibility (1/GPa) = 0.04312609
#
# Stress axis : x y z
#
# Youngs Moduli (GPa) = 44.79915 111.82986 84.59040
#
# Poissons Ratio (x) = 0.02258 -0.33263
# Poissons Ratio (y) = 0.00905 0.31384
# Poissons Ratio (z) = -0.17616 0.41490
#
# Static dielectric constant tensor:
#      x y z
#    x 1.757220 0.000000 0.000000 
#    y 0.000000 1.697340 0.000000 
#    z 0.000000 0.000000 1.684870 
# 
# From -- ./inp_files/11003.got.cif
#   From: 2010.05.17/outbox.cif.g08.bks.cpg/sg44_6_cif.got.tgz:11003.got - 2010.06.03 19:37:08.
