data_PCOD9373255
_publ_section_title
;
Structure prediction by ZEFSAII (Michael W. Deem and Ramdas Pophale) SiO2 
 PCOD9373255
Probable space group: I M M 2
;
_chemical_formula_sum "Si O2"
_cell_formula_units_Z 56
_cell_length_a 7.832981
_cell_length_b 13.922822
_cell_length_c 33.303176
_cell_angle_alpha 90.000000
_cell_angle_beta 90.000000
_cell_angle_gamma 90.000000
_cell_volume 3631.951132
_symmetry_space_group_name_H-M "I M M 2"
_symmetry_group_IT_number 44
_symmetry_cell_setting 'orthorhombic'
loop_
_space_group_symop_operation_xyz
x,y,z
-x,-y,z
-x,y,z
x,-y,z
1/2+x,1/2+y,1/2+z
1/2-x,1/2-y,1/2+z
1/2-x,1/2+y,1/2+z
1/2+x,1/2-y,1/2+z
loop_
_atom_site_type_symbol
_atom_site_label
_atom_site_fract_x
_atom_site_fract_y
_atom_site_fract_z
Si Si1 0.191168 0.113766 0.367320
Si Si2 0.301192 0.196479 0.284641
Si Si3 0.206456 0.802608 0.661973
Si Si4 0.791520 0.392989 0.700970
Si Si5 0.000000 0.616685 0.924446
Si Si6 0.800791 0.884218 0.575653
Si Si7 0.201910 0.607376 0.245685
Si Si8 0.000000 0.383209 0.016205
O O1 0.208934 0.169780 0.325561
O O2 0.333381 0.145122 0.399137
O O3 0.000000 0.124707 0.383497
O O4 0.218715 0.000000 0.358827
O O5 0.500000 0.172436 0.290619
O O6 0.237685 0.136069 0.246096
O O7 0.284972 0.307117 0.271184
O O8 0.261984 0.693698 0.671965
O O9 0.255128 0.839660 0.618220
O O10 0.270436 0.867474 0.698779
O O11 0.000000 0.805790 0.663764
O O12 0.734443 0.500000 0.690505
O O13 0.000000 0.392649 0.701183
O O14 0.000000 0.500000 0.925954
O O15 0.000000 0.651008 0.970296
O O16 0.669457 0.854968 0.540867
O O17 0.000000 0.858634 0.567965
O O18 0.794067 0.000000 0.579401
O O19 0.266459 0.500000 0.253951
O O20 0.000000 0.610010 0.253667
O O21 0.000000 0.500000 0.015203
#
# Coordination Sequence:
#
# PCOD9373255 Si02
#       8
#     8   8   8   8   4   8   8   4
#     4  10  19  30  47  69  93 122 153 187 226 272
#     4  10  18  29  45  63  88 121 156 191 226 268
#     4   9  17  28  42  61  85 116 153 189 227 270
#     4   8  14  24  40  61  85 116 151 187 223 259
#     4   9  18  32  46  66  93 119 151 187 228 280
#     4   9  17  28  43  64  89 117 150 186 223 271
#     4  10  20  30  41  60  87 119 156 197 232 266
#     4   9  18  30  46  66  89 119 151 185 230 276
#
# _framework density 15.418710000000001
#
# number of rings (size 3 to 8) (size 9 to 14) (size 15 to 20)
#    0.000    2.714    0.714    2.571    1.000    2.857 
#    0.000    2.857    0.000    3.857    0.000    0.000 
#    0.000    2.286    0.000    7.286    0.000    0.286 
#
# Total GULP energy -156052.470212 kJ/mol
# GULP energy per Si atom -5573.302508 kJ/mol
# Density = 1.538362 g / cm^3
# Si number density = 15.418710 Si / 1000 Ang^3
#
#
#
# Elastic Constant Matrix: (Units=GPa)
#
#
# Indices 1 2 3 4 5 6 
#
# 1 63.2802 13.2185 46.6973 0.0000 0.0000 0.0000
# 2 13.2185 53.4046 22.1119 0.0000 0.0000 0.0000
# 3 46.6973 22.1119 108.5107 0.0000 0.0000 0.0000
# 4 0.0000 0.0000 0.0000 15.7998 0.0000 0.0000
# 5 0.0000 0.0000 0.0000 0.0000 12.0461 0.0000
# 6 0.0000 0.0000 0.0000 0.0000 0.0000 12.0841
#
#
#
# Elastic Compliance Matrix: (Units=1/GPa)
#
#
# Indices 1 2 3 4 5 6 
#
# 1 0.023308 -0.001765 -0.009671 0.000000 0.000000 0.000000
# 2 -0.001765 0.020584 -0.003435 0.000000 0.000000 0.000000
# 3 -0.009671 -0.003435 0.014077 0.000000 0.000000 0.000000
# 4 0.000000 0.000000 0.000000 0.063292 0.000000 0.000000
# 5 0.000000 0.000000 0.000000 0.000000 0.083015 0.000000
# 6 0.000000 0.000000 0.000000 0.000000 0.000000 0.082753
#
#
# Mechanical properties :
#
#
# Convention : Reuss Voigt Hill
#
# Bulk Modulus (GPa) = 35.42595 43.25011 39.33803
# Shear Modulus (GPa) = 15.32896 17.53053 16.42975
#
# Velocity S-wave (km/s) = 3.15648 3.37555 3.26785
# Velocity P-wave (km/s) = 6.02581 6.58056 6.30928
#
# Compressibility (1/GPa) = 0.02822789
#
# Stress axis : x y z
#
# Youngs Moduli (GPa) = 42.90378 48.58126 71.03544
#
# Poissons Ratio (x) = 0.08574 0.68697
# Poissons Ratio (y) = 0.07572 0.24401
# Poissons Ratio (z) = 0.41492 0.16688
#
# Static dielectric constant tensor:
#      x y z
#    x 1.558520 0.000000 0.000000 
#    y 0.000000 1.510550 0.000000 
#    z 0.000000 0.000000 1.487160 
# 
# From -- ./inp_files/27246.got.cif
#   From: 2010.05.17/outbox.cif.g08.bks.cpg/sg44_14_cif.got.tgz:27246.got - 2010.06.03 19:37:08.
