data_PCOD9373046
_publ_section_title
;
Structure prediction by ZEFSAII (Michael W. Deem and Ramdas Pophale) SiO2 
 PCOD9373046
Probable space group: I M M 2
;
_chemical_formula_sum "Si O2"
_cell_formula_units_Z 64
_cell_length_a 7.577914
_cell_length_b 31.776182
_cell_length_c 14.980448
_cell_angle_alpha 90.000000
_cell_angle_beta 90.000000
_cell_angle_gamma 90.000000
_cell_volume 3607.249550
_symmetry_space_group_name_H-M "I M M 2"
_symmetry_group_IT_number 44
_symmetry_cell_setting 'orthorhombic'
loop_
_space_group_symop_operation_xyz
x,y,z
-x,-y,z
-x,y,z
x,-y,z
1/2+x,1/2+y,1/2+z
1/2-x,1/2-y,1/2+z
1/2-x,1/2+y,1/2+z
1/2+x,1/2-y,1/2+z
loop_
_atom_site_type_symbol
_atom_site_label
_atom_site_fract_x
_atom_site_fract_y
_atom_site_fract_z
Si Si1 0.792241 0.632508 0.659940
Si Si2 0.715201 0.952611 0.442231
Si Si3 0.200556 0.721034 0.334510
Si Si4 0.786165 0.317063 0.830679
Si Si5 0.215266 0.546934 0.734265
Si Si6 0.202900 0.204048 0.033369
Si Si7 0.713719 0.134058 0.511342
Si Si8 0.782859 0.710815 0.133416
O O1 0.721957 0.660902 0.740898
O O2 0.722945 0.585134 0.671615
O O3 0.775025 0.660391 0.571941
O O4 0.000000 0.628686 0.677685
O O5 0.500000 0.952508 0.443876
O O6 0.763248 0.944756 0.338143
O O7 0.775750 0.914214 0.504666
O O8 0.772577 0.000000 0.465893
O O9 0.205690 0.771390 0.340101
O O10 0.284366 0.705985 0.426756
O O11 0.275773 0.711022 0.236480
O O12 0.000000 0.705482 0.335401
O O13 0.000000 0.311819 0.827829
O O14 0.745854 0.345442 0.915638
O O15 0.276786 0.500000 0.710377
O O16 0.000000 0.545541 0.732453
O O17 0.277108 0.246814 0.080277
O O18 0.000000 0.204032 0.059500
O O19 0.500000 0.132621 0.519474
O O20 0.774624 0.168047 0.584052
O O21 0.000000 0.711515 0.132139
#
# Coordination Sequence:
#
# PCOD9373046 Si02
#       8
#     8   8   8   8   8   8   8   8
#     4  10  18  28  45  71  96 124 158 189 223 272
#     4   8  12  18  33  61  93 119 145 180 219 262
#     4  11  21  33  45  63  88 118 156 197 228 265
#     4  10  17  26  44  67  92 123 153 181 219 268
#     4   8  13  22  38  64  97 125 149 183 225 268
#     4  11  21  34  48  65  89 121 155 191 232 276
#     4   9  14  24  40  60  88 123 151 174 215 270
#     4   9  18  29  43  61  85 116 150 183 225 270
#
# _framework density 17.742049999999999
#
# number of rings (size 3 to 8) (size 9 to 14) (size 15 to 20)
#    0.000    2.500    3.750    1.500    0.000    0.000 
#    0.000    0.000    0.000    0.375    0.000    0.875 
#    0.000    5.500    0.000    0.000    0.000    0.000 
#
# Total GULP energy -178318.925592 kJ/mol
# GULP energy per Si atom -5572.466425 kJ/mol
# Density = 1.770167 g / cm^3
# Si number density = 17.742050 Si / 1000 Ang^3
#
#
#
# Elastic Constant Matrix: (Units=GPa)
#
#
# Indices 1 2 3 4 5 6 
#
# 1 33.3603 6.6121 4.7506 0.0000 0.0000 0.0000
# 2 6.6121 130.2621 39.4716 0.0000 0.0000 0.0000
# 3 4.7506 39.4716 73.1362 0.0000 0.0000 0.0000
# 4 0.0000 0.0000 0.0000 18.9642 0.0000 0.0000
# 5 0.0000 0.0000 0.0000 0.0000 7.1401 0.0000
# 6 0.0000 0.0000 0.0000 0.0000 0.0000 0.0507
#
#
#
# Elastic Compliance Matrix: (Units=1/GPa)
#
#
# Indices 1 2 3 4 5 6 
#
# 1 0.030394 -0.001129 -0.001365 0.000000 0.000000 0.000001
# 2 -0.001129 0.009220 -0.004903 0.000000 0.000000 -0.000003
# 3 -0.001365 -0.004903 0.016408 0.000000 0.000000 0.000008
# 4 0.000000 0.000000 0.000000 0.052731 0.000000 0.000005
# 5 0.000000 0.000000 0.000000 0.000000 0.140055 0.000007
# 6 0.000001 -0.000003 0.000008 0.000005 0.000007 19.729245
#
#
# Mechanical properties :
#
#
# Convention : Reuss Voigt Hill
#
# Bulk Modulus (GPa) = 24.25530 37.60303 30.92916
# Shear Modulus (GPa) = 0.24992 17.62594 8.93793
#
# Velocity S-wave (km/s) = 0.37572 3.15533 2.24692
# Velocity P-wave (km/s) = 3.72679 5.87496 4.91956
#
# Compressibility (1/GPa) = 0.04122810
#
# Stress axis : x y z
#
# Youngs Moduli (GPa) = 32.90137 108.46346 60.94709
#
# Poissons Ratio (x) = 0.12248 0.08318
# Poissons Ratio (y) = 0.03715 0.29879
# Poissons Ratio (z) = 0.04490 0.53174
#
# Static dielectric constant tensor:
#      x y z
#    x 1.706880 0.000000 0.000000 
#    y 0.000000 1.629880 0.000000 
#    z 0.000000 0.000000 1.591490 
# 
# From -- ./inp_files/17159.got.cif
#   From: 2010.05.17/outbox.cif.g08.bks.cpg/sg44_9_cif.got.tgz:17159.got - 2010.06.03 19:37:08.
