data_PCOD9373022
_publ_section_title
;
Structure prediction by ZEFSAII (Michael W. Deem and Ramdas Pophale) SiO2 
 PCOD9373022
Probable space group: I M M 2
;
_chemical_formula_sum "Si O2"
_cell_formula_units_Z 64
_cell_length_a 7.644991
_cell_length_b 24.101689
_cell_length_c 13.727314
_cell_angle_alpha 90.000000
_cell_angle_beta 90.000000
_cell_angle_gamma 90.000000
_cell_volume 2529.356379
_symmetry_space_group_name_H-M "I M M 2"
_symmetry_group_IT_number 44
_symmetry_cell_setting 'orthorhombic'
loop_
_space_group_symop_operation_xyz
x,y,z
-x,-y,z
-x,y,z
x,-y,z
1/2+x,1/2+y,1/2+z
1/2-x,1/2-y,1/2+z
1/2-x,1/2+y,1/2+z
1/2+x,1/2-y,1/2+z
loop_
_atom_site_type_symbol
_atom_site_label
_atom_site_fract_x
_atom_site_fract_y
_atom_site_fract_z
Si Si1 0.710783 0.084775 0.186850
Si Si2 0.299543 0.819041 0.929135
Si Si3 0.794442 0.703828 0.662440
Si Si4 0.792257 0.088651 0.392228
Si Si5 0.190621 0.703507 0.951204
Si Si6 0.286234 0.439873 0.111683
Si Si7 0.285939 0.060373 0.966261
Si Si8 0.303098 0.322054 0.157722
O O1 0.500000 0.087396 0.179507
O O2 0.788929 0.146753 0.195771
O O3 0.751878 0.058544 0.290927
O O4 0.765908 0.062069 0.081266
O O5 0.500000 0.820301 0.896278
O O6 0.218032 0.761016 0.895231
O O7 0.295397 0.806896 0.045484
O O8 0.225416 0.881396 0.917780
O O9 0.717581 0.763836 0.688239
O O10 0.000000 0.705863 0.690667
O O11 0.702068 0.148837 0.387415
O O12 0.736750 0.063689 0.496803
O O13 0.000000 0.094638 0.398184
O O14 0.000000 0.706869 0.997352
O O15 0.316674 0.689207 0.041040
O O16 0.500000 0.437959 0.115295
O O17 0.230114 0.500000 0.150279
O O18 0.222792 0.383463 0.164333
O O19 0.500000 0.062492 0.963627
O O20 0.231793 0.000000 0.926281
O O21 0.500000 0.325028 0.198682
#
# Coordination Sequence:
#
# PCOD9373022 Si02
#       8
#     8   8   8   8   8   8   8   8
#     4   9  16  26  39  55  77 103 134 168 194 220
#     4   8  13  24  41  58  77 101 129 160 196 236
#     4   7  11  21  37  54  71  95 123 152 190 229
#     4  10  19  29  39  52  75 106 137 165 196 233
#     4  10  17  25  39  57  75  95 125 165 207 242
#     4   8  14  24  38  55  74  98 128 158 184 217
#     4   8  14  25  42  62  83 110 141 167 191 227
#     4   8  13  24  41  57  74  97 123 152 192 237
#
# _framework density 25.302879000000001
#
# number of rings (size 3 to 8) (size 9 to 14) (size 15 to 20)
#    0.000    3.500    0.000    4.500    0.000    0.500 
#    0.000    5.625    0.000   10.125    0.000    0.000 
#    0.000    1.000    0.000    4.000    0.000    2.625 
#
# Total GULP energy -178206.406515 kJ/mol
# GULP energy per Si atom -5568.950204 kJ/mol
# Density = 2.524529 g / cm^3
# Si number density = 25.302879 Si / 1000 Ang^3
#
#
#
# Elastic Constant Matrix: (Units=GPa)
#
#
# Indices 1 2 3 4 5 6 
#
# 1 68.7872 14.4215 -1.0629 0.0000 0.0000 0.0000
# 2 14.4215 273.5926 -6.5298 0.0000 0.0000 0.0000
# 3 -1.0629 -6.5298 53.5054 0.0001 0.0000 0.0000
# 4 0.0000 0.0000 0.0001 -17.2974 0.0000 0.0000
# 5 0.0000 0.0000 0.0000 0.0000 2.8353 0.0000
# 6 0.0000 0.0000 0.0000 0.0000 0.0000 -39.3758
#
#
#
# Elastic Compliance Matrix: (Units=1/GPa)
#
#
# Indices 1 2 3 4 5 6 
#
# 1 0.014702 -0.000770 0.000198 0.000000 0.000000 0.000000
# 2 -0.000770 0.003706 0.000437 0.000000 0.000000 0.000000
# 3 0.000198 0.000437 0.018747 0.000000 0.000000 0.000000
# 4 0.000000 0.000000 0.000000 -0.057812 0.000000 0.000000
# 5 0.000000 0.000000 0.000000 0.000000 0.352696 0.000000
# 6 0.000000 0.000000 0.000000 0.000000 0.000000 -0.025396
#
#
# Mechanical properties :
#
#
# Convention : Reuss Voigt Hill
#
# Bulk Modulus (GPa) = 27.11140 45.50472 36.30806
# Shear Modulus (GPa) = 15.66379 15.16953 15.41666
#
# Velocity S-wave (km/s) = 2.49077 2.45116 2.47105
# Velocity P-wave (km/s) = 4.36004 5.10235 4.74573
#
# Compressibility (1/GPa) = 0.03688485
#
# Stress axis : x y z
#
# Youngs Moduli (GPa) = 68.01739 269.82538 53.34192
#
# Poissons Ratio (x) = 0.20783 -0.01057
# Poissons Ratio (y) = 0.05239 -0.02331
# Poissons Ratio (z) = -0.01347 -0.11791
#
# Static dielectric constant tensor:
#      x y z
#    x 1.949900 0.000000 0.000000 
#    y 0.000000 2.087940 0.000000 
#    z 0.000000 0.000000 2.018990 
# 
# From -- ./inp_files/23469.got.cif
#   From: 2010.05.17/outbox.cif.g08.bks.cpg/sg44_12_cif.got.tgz:23469.got - 2010.06.03 19:37:08.
