data_PCOD9373019
_publ_section_title
;
Structure prediction by ZEFSAII (Michael W. Deem and Ramdas Pophale) SiO2 
 PCOD9373019
Probable space group: I M M 2
;
_chemical_formula_sum "Si O2"
_cell_formula_units_Z 48
_cell_length_a 32.439685
_cell_length_b 9.294705
_cell_length_c 7.062387
_cell_angle_alpha 90.000000
_cell_angle_beta 90.000000
_cell_angle_gamma 90.000000
_cell_volume 2129.431877
_symmetry_space_group_name_H-M "I M M 2"
_symmetry_group_IT_number 44
_symmetry_cell_setting 'orthorhombic'
loop_
_space_group_symop_operation_xyz
x,y,z
-x,-y,z
-x,y,z
x,-y,z
1/2+x,1/2+y,1/2+z
1/2-x,1/2-y,1/2+z
1/2-x,1/2+y,1/2+z
1/2+x,1/2-y,1/2+z
loop_
_atom_site_type_symbol
_atom_site_label
_atom_site_fract_x
_atom_site_fract_y
_atom_site_fract_z
Si Si1 0.122322 0.669951 0.470270
Si Si2 0.632587 0.324494 0.377854
Si Si3 0.198378 0.838908 0.368955
Si Si4 0.455119 0.667713 0.459052
Si Si5 0.778947 0.160181 0.810838
Si Si6 0.046735 0.840236 0.499879
O O1 0.126548 0.500000 0.474203
O O2 0.127246 0.737848 0.681119
O O3 0.158096 0.741763 0.346352
O O4 0.076595 0.721333 0.417256
O O5 0.630355 0.500000 0.349608
O O6 0.591957 0.282538 0.499275
O O7 0.680483 0.296642 0.431844
O O8 0.205016 0.849538 0.596196
O O9 0.240984 0.768070 0.304981
O O10 0.191863 0.000000 0.295975
O O11 0.500000 0.732948 0.514312
O O12 0.456463 0.500000 0.517323
O O13 0.455416 0.670213 0.228354
O O14 0.764974 0.000000 0.870098
O O15 0.000000 0.830789 0.431963
O O16 0.063503 0.000000 0.457545
#
# Coordination Sequence:
#
# PCOD9373019 Si02
#       6
#     8   8   8   8   8   8
#     4  10  17  24  37  57  82 110 141 178 217 259
#     4   8  14  25  38  54  80 111 142 176 214 258
#     4  10  20  33  48  65  88 118 150 184 225 272
#     4   7   9  15  30  50  71 100 136 167 198 242
#     4   9  18  31  46  65  88 114 147 186 225 266
#     4   8  13  22  35  50  73 107 142 173 209 256
#
# _framework density 22.541222000000001
#
# number of rings (size 3 to 8) (size 9 to 14) (size 15 to 20)
#    0.000    3.333    0.000    5.000    0.000    3.667 
#    0.000    0.000    0.000    0.000    0.000    0.000 
#    0.000    1.333    0.000   12.333    0.000   16.500 
#
# Total GULP energy -133750.946315 kJ/mol
# GULP energy per Si atom -5572.956096 kJ/mol
# Density = 2.248992 g / cm^3
# Si number density = 22.541222 Si / 1000 Ang^3
#
#
#
# Elastic Constant Matrix: (Units=GPa)
#
#
# Indices 1 2 3 4 5 6 
#
# 1 172.4778 65.4925 -15.9263 0.0000 0.0000 0.0000
# 2 65.4925 105.7572 1.6399 0.0000 0.0000 0.0000
# 3 -15.9263 1.6399 65.0586 0.0000 0.0000 0.0000
# 4 0.0000 0.0000 0.0000 3.9229 0.0000 0.0000
# 5 0.0000 0.0000 0.0000 0.0000 7.1586 0.0000
# 6 0.0000 0.0000 0.0000 0.0000 0.0000 35.8956
#
#
#
# Elastic Compliance Matrix: (Units=1/GPa)
#
#
# Indices 1 2 3 4 5 6 
#
# 1 0.007843 -0.004888 0.002043 0.000000 0.000000 0.000000
# 2 -0.004888 0.012506 -0.001512 0.000000 0.000000 0.000000
# 3 0.002043 -0.001512 0.015909 0.000000 0.000000 0.000000
# 4 0.000000 0.000000 0.000000 0.254911 0.000000 0.000000
# 5 0.000000 0.000000 0.000000 0.000000 0.139692 0.000000
# 6 0.000000 0.000000 0.000000 0.000000 0.000000 0.027859
#
#
# Mechanical properties :
#
#
# Convention : Reuss Voigt Hill
#
# Bulk Modulus (GPa) = 36.30614 49.52285 42.91450
# Shear Modulus (GPa) = 10.49063 28.86794 19.67928
#
# Velocity S-wave (km/s) = 2.15965 3.58253 2.95792
# Velocity P-wave (km/s) = 4.72867 6.25542 5.54484
#
# Compressibility (1/GPa) = 0.02754355
#
# Stress axis : x y z
#
# Youngs Moduli (GPa) = 127.50666 79.95941 62.85744
#
# Poissons Ratio (x) = 0.39088 -0.12842
# Poissons Ratio (y) = 0.62331 0.09504
# Poissons Ratio (z) = -0.26051 0.12089
#
# Static dielectric constant tensor:
#      x y z
#    x 1.922380 0.000000 0.000000 
#    y 0.000000 1.767990 0.000000 
#    z 0.000000 0.000000 1.931650 
# 
# From -- ./inp_files/11338.got.cif
#   From: 2010.05.17/outbox.cif.g08.bks.cpg/sg44_6_cif.got.tgz:11338.got - 2010.06.03 19:37:08.
