data_PCOD9373043
_publ_section_title
;
Structure prediction by ZEFSAII (Michael W. Deem and Ramdas Pophale) SiO2 
 PCOD9373043
Probable space group: I M M 2
;
_chemical_formula_sum "Si O2"
_cell_formula_units_Z 64
_cell_length_a 8.581301
_cell_length_b 27.314553
_cell_length_c 18.862645
_cell_angle_alpha 90.000000
_cell_angle_beta 90.000000
_cell_angle_gamma 90.000000
_cell_volume 4421.298376
_symmetry_space_group_name_H-M "I M M 2"
_symmetry_group_IT_number 44
_symmetry_cell_setting 'orthorhombic'
loop_
_space_group_symop_operation_xyz
x,y,z
-x,-y,z
-x,y,z
x,-y,z
1/2+x,1/2+y,1/2+z
1/2-x,1/2-y,1/2+z
1/2-x,1/2+y,1/2+z
1/2+x,1/2-y,1/2+z
loop_
_atom_site_type_symbol
_atom_site_label
_atom_site_fract_x
_atom_site_fract_y
_atom_site_fract_z
Si Si1 0.686409 0.647847 0.154480
Si Si2 0.313523 0.147720 0.319587
Si Si3 0.187776 0.556709 0.072962
Si Si4 0.317192 0.738695 0.908217
Si Si5 0.183486 0.201441 0.789576
Si Si6 0.184826 0.738900 0.064152
Si Si7 0.814919 0.791937 0.201975
Si Si8 0.310237 0.055484 0.409999
O O1 0.500000 0.654031 0.150547
O O2 0.735651 0.595426 0.125116
O O3 0.732803 0.658030 0.236444
O O4 0.763910 0.689433 0.104956
O O5 0.500000 0.146814 0.311518
O O6 0.269485 0.192189 0.372742
O O7 0.235645 0.159751 0.243926
O O8 0.259614 0.097355 0.355918
O O9 0.226487 0.500000 0.087871
O O10 0.000000 0.561523 0.076586
O O11 0.235240 0.567049 0.991232
O O12 0.500000 0.730084 0.900912
O O13 0.270502 0.786461 0.862334
O O14 0.270155 0.743413 0.989693
O O15 0.219325 0.249257 0.741612
O O16 0.000000 0.197788 0.803779
O O17 0.216469 0.783431 0.119048
O O18 0.000000 0.736533 0.051502
O O19 0.000000 0.783649 0.212694
O O20 0.500000 0.055409 0.409593
O O21 0.259624 0.000000 0.393307
#
# Coordination Sequence:
#
# PCOD9373043 Si02
#       8
#     8   8   8   8   8   8   8   8
#     4  10  19  29  43  62  83 109 140 175 209 242
#     4  10  17  26  43  61  80 109 139 168 203 242
#     4   9  17  29  44  60  81 112 146 176 206 243
#     4  11  20  28  41  61  84 107 135 172 206 241
#     4   9  17  29  42  57  80 108 137 166 201 246
#     4  10  19  30  43  58  80 111 141 168 202 246
#     4   9  17  28  41  57  79 106 135 168 202 238
#     4   8  15  27  41  58  79 105 139 172 199 231
#
# _framework density 14.475386
#
# number of rings (size 3 to 8) (size 9 to 14) (size 15 to 20)
#    0.000    2.500    0.000    6.000    0.000    4.250 
#    0.000    0.625    0.000    3.000    0.000    0.000 
#    0.000    1.000    0.000    7.500    0.000    3.875 
#
# Total GULP energy -178251.195349 kJ/mol
# GULP energy per Si atom -5570.349855 kJ/mol
# Density = 1.444244 g / cm^3
# Si number density = 14.475386 Si / 1000 Ang^3
#
#
#
# Elastic Constant Matrix: (Units=GPa)
#
#
# Indices 1 2 3 4 5 6 
#
# 1 19.2728 5.5138 8.1328 0.0000 0.0000 0.0000
# 2 5.5138 66.0225 31.3719 0.0000 0.0000 0.0000
# 3 8.1328 31.3719 71.2265 0.0000 0.0000 0.0000
# 4 0.0000 0.0000 0.0000 27.4146 0.0000 0.0000
# 5 0.0000 0.0000 0.0000 0.0000 22.8939 0.0000
# 6 0.0000 0.0000 0.0000 0.0000 0.0000 16.8045
#
#
#
# Elastic Compliance Matrix: (Units=1/GPa)
#
#
# Indices 1 2 3 4 5 6 
#
# 1 0.054727 -0.002025 -0.005357 0.000000 0.000000 0.000000
# 2 -0.002025 0.019230 -0.008239 0.000000 0.000000 0.000000
# 3 -0.005357 -0.008239 0.018280 0.000000 0.000000 0.000000
# 4 0.000000 0.000000 0.000000 0.036477 0.000000 0.000000
# 5 0.000000 0.000000 0.000000 0.000000 0.043680 0.000000
# 6 0.000000 0.000000 0.000000 0.000000 0.000000 0.059508
#
#
# Mechanical properties :
#
#
# Convention : Reuss Voigt Hill
#
# Bulk Modulus (GPa) = 16.39460 27.39541 21.89500
# Shear Modulus (GPa) = 17.63824 20.85615 19.24719
#
# Velocity S-wave (km/s) = 3.49449 3.79991 3.65039
# Velocity P-wave (km/s) = 5.25665 6.18215 5.73809
#
# Compressibility (1/GPa) = 0.06099569
#
# Stress axis : x y z
#
# Youngs Moduli (GPa) = 18.27265 52.00129 54.70400
#
# Poissons Ratio (x) = 0.10530 0.29305
# Poissons Ratio (y) = 0.03700 0.45070
# Poissons Ratio (z) = 0.09789 0.42843
#
# Static dielectric constant tensor:
#      x y z
#    x 1.492530 0.000000 0.000000 
#    y 0.000000 1.476840 0.000000 
#    z 0.000000 0.000000 1.492130 
# 
# From -- ./inp_files/20931.got.cif
#   From: 2010.05.17/outbox.cif.g08.bks.cpg/sg44_11_cif.got.tgz:20931.got - 2010.06.03 19:37:08.
