data_PCOD9373804
_publ_section_title
;
Structure prediction by ZEFSAII (Michael W. Deem and Ramdas Pophale) SiO2 
 PCOD9373804
Probable space group: I M M 2
;
_chemical_formula_sum "Si O2"
_cell_formula_units_Z 40
_cell_length_a 16.011244
_cell_length_b 27.329153
_cell_length_c 5.082648
_cell_angle_alpha 90.000000
_cell_angle_beta 90.000000
_cell_angle_gamma 90.000000
_cell_volume 2224.033279
_symmetry_space_group_name_H-M "I M M 2"
_symmetry_group_IT_number 44
_symmetry_cell_setting 'orthorhombic'
loop_
_space_group_symop_operation_xyz
x,y,z
-x,-y,z
-x,y,z
x,-y,z
1/2+x,1/2+y,1/2+z
1/2-x,1/2-y,1/2+z
1/2-x,1/2+y,1/2+z
1/2+x,1/2-y,1/2+z
loop_
_atom_site_type_symbol
_atom_site_label
_atom_site_fract_x
_atom_site_fract_y
_atom_site_fract_z
Si Si1 0.700108 0.557982 0.552210
Si Si2 0.204681 0.768080 0.000402
Si Si3 0.593775 0.558732 0.038969
Si Si4 0.306160 0.143515 0.894454
Si Si5 0.597628 0.181788 0.396093
O O1 0.718338 0.500000 0.568780
O O2 0.629318 0.565124 0.330136
O O3 0.779973 0.588796 0.463009
O O4 0.661166 0.576465 0.826429
O O5 0.269978 0.740367 0.803433
O O6 0.278634 0.676049 0.423969
O O7 0.120021 0.739143 0.942031
O O8 0.500000 0.578390 0.006192
O O9 0.588994 0.500000 0.994282
O O10 0.347916 0.152788 0.613327
O O11 0.369077 0.165358 0.111885
O O12 0.500000 0.172846 0.425777
#
# Coordination Sequence:
#
# PCOD9373804 Si02
#       5
#     8   8   8   8   8
#     4  10  19  31  50  73  99 135 170 198 234 287
#     4   8  16  30  49  70  92 120 152 193 243 291
#     4   9  17  30  47  68  95 127 164 203 240 278
#     4  10  19  33  52  73 100 131 163 200 244 292
#     4  10  19  33  53  74  96 125 164 206 249 294
#
# _framework density 17.985340000000001
#
# number of rings (size 3 to 8) (size 9 to 14) (size 15 to 20)
#    0.000    2.600    0.000    2.400    0.000    2.400 
#    0.000    2.000    0.000    3.600    0.000    0.000 
#    0.000    0.000    0.000    0.000    0.000    0.000 
#
# Total GULP energy -111401.320642 kJ/mol
# GULP energy per Si atom -5570.066032 kJ/mol
# Density = 1.794440 g / cm^3
# Si number density = 17.985340 Si / 1000 Ang^3
#
#
#
# Elastic Constant Matrix: (Units=GPa)
#
#
# Indices 1 2 3 4 5 6 
#
# 1 50.8318 15.9529 -12.8836 0.0172 0.0018 -0.0014
# 2 15.9529 48.3041 -8.9535 0.0219 0.0026 -0.0015
# 3 -12.8836 -8.9535 52.7562 0.0646 0.0064 -0.0039
# 4 0.0172 0.0219 0.0646 15.6685 -0.0012 0.0005
# 5 0.0018 0.0026 0.0064 -0.0012 12.9637 0.0004
# 6 -0.0014 -0.0015 -0.0039 0.0005 0.0004 12.6897
#
#
#
# Elastic Compliance Matrix: (Units=1/GPa)
#
#
# Indices 1 2 3 4 5 6 
#
# 1 0.022917 -0.006743 0.004452 -0.000034 -0.000004 0.000003
# 2 -0.006743 0.023359 0.002318 -0.000035 -0.000005 0.000003
# 3 0.004452 0.002318 0.020436 -0.000092 -0.000011 0.000007
# 4 -0.000034 -0.000035 -0.000092 0.063823 0.000006 -0.000003
# 5 -0.000004 -0.000005 -0.000011 0.000006 0.077138 -0.000002
# 6 0.000003 0.000003 0.000007 -0.000003 -0.000002 0.078804
#
#
# Mechanical properties :
#
#
# Convention : Reuss Voigt Hill
#
# Bulk Modulus (GPa) = 14.97791 15.56930 15.27361
# Shear Modulus (GPa) = 16.19802 18.78280 17.49041
#
# Velocity S-wave (km/s) = 3.00429 3.23513 3.12185
# Velocity P-wave (km/s) = 4.51446 4.75712 4.63738
#
# Compressibility (1/GPa) = 0.06676497
#
# Stress axis : x y z
#
# Youngs Moduli (GPa) = 43.63478 42.81030 48.93366
#
# Poissons Ratio (x) = 0.28869 -0.21786
# Poissons Ratio (y) = 0.29425 -0.11341
# Poissons Ratio (z) = -0.19427 -0.09922
#
# Static dielectric constant tensor:
#      x y z
#    x 1.593160 0.000000 0.000000 
#    y 0.000000 1.652820 -0.000010 
#    z 0.000000 -0.000010 1.621850 
# 
# From -- ./inp_files/1140.got.cif
#   From: 2010.05.17/outbox.cif.g08.bks.cpg/sg44_1_cif.got.tgz:1140.got - 2010.06.03 19:37:08.
