data_PCOD9373715
_publ_section_title
;
Structure prediction by ZEFSAII (Michael W. Deem and Ramdas Pophale) SiO2 
 PCOD9373715
Probable space group: I M M 2
;
_chemical_formula_sum "Si O2"
_cell_formula_units_Z 52
_cell_length_a 7.927007
_cell_length_b 14.642526
_cell_length_c 26.450274
_cell_angle_alpha 90.000000
_cell_angle_beta 90.000000
_cell_angle_gamma 90.000000
_cell_volume 3070.120495
_symmetry_space_group_name_H-M "I M M 2"
_symmetry_group_IT_number 44
_symmetry_cell_setting 'orthorhombic'
loop_
_space_group_symop_operation_xyz
x,y,z
-x,-y,z
-x,y,z
x,-y,z
1/2+x,1/2+y,1/2+z
1/2-x,1/2-y,1/2+z
1/2-x,1/2+y,1/2+z
1/2+x,1/2-y,1/2+z
loop_
_atom_site_type_symbol
_atom_site_label
_atom_site_fract_x
_atom_site_fract_y
_atom_site_fract_z
Si Si1 0.312727 0.848863 0.633220
Si Si2 0.300905 0.704000 0.781808
Si Si3 0.688886 0.107455 0.381582
Si Si4 0.000000 0.109312 0.454907
Si Si5 0.500000 0.692692 0.064723
Si Si6 0.797548 0.900996 0.743141
Si Si7 0.500000 0.097722 0.101717
Si Si8 0.691405 0.359479 0.671984
O O1 0.500000 0.876301 0.615534
O O2 0.164358 0.850283 0.592298
O O3 0.264842 0.898753 0.685191
O O4 0.320228 0.743867 0.651446
O O5 0.500000 0.689723 0.788865
O O6 0.209392 0.666166 0.830897
O O7 0.269812 0.811139 0.771067
O O8 0.253638 0.649858 0.730453
O O9 0.500000 0.119733 0.402339
O O10 0.834727 0.130183 0.421423
O O11 0.709912 0.000000 0.368524
O O12 0.000000 0.165212 0.506538
O O13 0.000000 0.000000 0.465455
O O14 0.500000 0.803517 0.073373
O O15 0.000000 0.893974 0.742370
O O16 0.749782 0.000000 0.765244
O O17 0.664991 0.097829 0.137484
O O18 0.500000 0.000000 0.072851
O O19 0.500000 0.396807 0.669401
#
# Coordination Sequence:
#
# PCOD9373715 Si02
#       8
#     8   8   8   4   4   8   4   8
#     4   9  17  31  50  73 102 138 176 215 257 305
#     4  10  19  32  52  76 106 143 180 215 258 316
#     4  10  21  37  57  79 104 133 170 221 274 322
#     4  10  22  40  58  78 100 128 176 229 275 319
#     4  10  20  36  56  76 104 136 176 224 268 314
#     4  10  19  30  47  75 113 149 181 215 253 308
#     4  10  20  32  50  76 108 142 172 205 251 311
#     4   8  17  30  45  71 105 138 173 208 241 293
#
# _framework density 16.937445
#
# number of rings (size 3 to 8) (size 9 to 14) (size 15 to 20)
#    0.000    2.462    1.538    1.846    4.308    3.385 
#    0.000    1.538    0.000    0.923    0.000    0.000 
#    0.000    0.000    0.000    0.000    0.000    0.000 
#
# Total GULP energy -144882.238906 kJ/mol
# GULP energy per Si atom -5572.393804 kJ/mol
# Density = 1.689889 g / cm^3
# Si number density = 16.937445 Si / 1000 Ang^3
#
#
#
# Elastic Constant Matrix: (Units=GPa)
#
#
# Indices 1 2 3 4 5 6 
#
# 1 100.9747 23.6008 52.8222 0.0000 0.0000 0.0000
# 2 23.6008 65.8301 36.4915 0.0000 0.0000 0.0000
# 3 52.8222 36.4915 100.8062 0.0000 0.0000 0.0000
# 4 0.0000 0.0000 0.0000 16.9874 0.0000 0.0000
# 5 0.0000 0.0000 0.0000 0.0000 13.5952 0.0000
# 6 0.0000 0.0000 0.0000 0.0000 0.0000 22.8143
#
#
#
# Elastic Compliance Matrix: (Units=1/GPa)
#
#
# Indices 1 2 3 4 5 6 
#
# 1 0.013715 -0.001167 -0.006764 0.000000 0.000000 0.000000
# 2 -0.001167 0.019103 -0.006304 0.000000 0.000000 0.000000
# 3 -0.006764 -0.006304 0.015746 0.000000 0.000000 0.000000
# 4 0.000000 0.000000 0.000000 0.058867 0.000000 0.000000
# 5 0.000000 0.000000 0.000000 0.000000 0.073556 0.000000
# 6 0.000000 0.000000 0.000000 0.000000 0.000000 0.043832
#
#
# Mechanical properties :
#
#
# Convention : Reuss Voigt Hill
#
# Bulk Modulus (GPa) = 49.76509 54.82665 52.29587
# Shear Modulus (GPa) = 19.23173 20.99248 20.11210
#
# Velocity S-wave (km/s) = 3.37331 3.52435 3.44966
# Velocity P-wave (km/s) = 6.67965 7.00012 6.84177
#
# Compressibility (1/GPa) = 0.02009441
#
# Stress axis : x y z
#
# Youngs Moduli (GPa) = 72.91467 52.34656 63.50761
#
# Poissons Ratio (x) = 0.06111 0.42955
# Poissons Ratio (y) = 0.08513 0.40033
# Poissons Ratio (z) = 0.49318 0.32997
#
# Static dielectric constant tensor:
#      x y z
#    x 1.606570 0.000000 0.000000 
#    y 0.000000 1.615080 0.000000 
#    z 0.000000 0.000000 1.527730 
# 
# From -- ./inp_files/24942.got.cif
#   From: 2010.05.17/outbox.cif.g08.bks.cpg/sg44_13_cif.got.tgz:24942.got - 2010.06.03 19:37:08.
