data_PCOD9373092
_publ_section_title
;
Structure prediction by ZEFSAII (Michael W. Deem and Ramdas Pophale) SiO2 
 PCOD9373092
Probable space group: I M M 2
;
_chemical_formula_sum "Si O2"
_cell_formula_units_Z 64
_cell_length_a 7.511703
_cell_length_b 21.584422
_cell_length_c 20.326660
_cell_angle_alpha 90.000000
_cell_angle_beta 90.000000
_cell_angle_gamma 90.000000
_cell_volume 3295.678620
_symmetry_space_group_name_H-M "I M M 2"
_symmetry_group_IT_number 44
_symmetry_cell_setting 'orthorhombic'
loop_
_space_group_symop_operation_xyz
x,y,z
-x,-y,z
-x,y,z
x,-y,z
1/2+x,1/2+y,1/2+z
1/2-x,1/2-y,1/2+z
1/2-x,1/2+y,1/2+z
1/2+x,1/2-y,1/2+z
loop_
_atom_site_type_symbol
_atom_site_label
_atom_site_fract_x
_atom_site_fract_y
_atom_site_fract_z
Si Si1 0.214064 0.124006 0.976920
Si Si2 0.782055 0.685948 0.113652
Si Si3 0.296901 0.225563 0.330588
Si Si4 0.794284 0.190762 0.186671
Si Si5 0.791349 0.368638 0.330998
Si Si6 0.217473 0.267337 0.974545
Si Si7 0.717534 0.068998 0.697852
Si Si8 0.718036 0.431210 0.614341
O O1 0.268080 0.103955 0.903786
O O2 0.272632 0.195698 0.984654
O O3 0.000000 0.124246 0.978007
O O4 0.272709 0.084462 0.039363
O O5 0.719073 0.746890 0.153415
O O6 0.723406 0.623361 0.149127
O O7 0.000000 0.685633 0.115798
O O8 0.728896 0.693647 0.037871
O O9 0.500000 0.204076 0.329027
O O10 0.211191 0.198929 0.264940
O O11 0.294941 0.300638 0.327928
O O12 0.219966 0.210826 0.402738
O O13 0.720338 0.125980 0.159692
O O14 0.000000 0.190264 0.165226
O O15 0.728670 0.411639 0.271731
O O16 0.000000 0.356802 0.320173
O O17 0.000000 0.266866 0.972160
O O18 0.500000 0.068329 0.696702
O O19 0.777884 0.000000 0.681291
O O20 0.500000 0.432150 0.615761
O O21 0.777352 0.500000 0.633550
#
# Coordination Sequence:
#
# PCOD9373092 Si02
#       8
#     8   8   8   8   8   8   8   8
#     4   9  16  28  45  66  94 125 158 192 232 279
#     4   9  14  25  46  67  85 114 156 192 225 269
#     4  10  19  30  47  71  98 123 154 195 244 287
#     4  10  17  29  51  73  92 122 163 200 237 280
#     4  10  18  29  45  67  96 127 160 192 231 281
#     4   8  14  25  43  65  87 116 149 187 230 274
#     4   9  17  27  41  65  94 120 149 189 233 272
#     4   9  17  29  48  73  98 126 165 207 241 284
#
# _framework density 19.419367999999999
#
# number of rings (size 3 to 8) (size 9 to 14) (size 15 to 20)
#    0.000    2.750    2.500    1.500    0.000    0.500 
#    0.000    0.625    0.000    3.000    0.000    1.750 
#    0.000    0.000    0.000    0.000    0.000    0.000 
#
# Total GULP energy -178472.807408 kJ/mol
# GULP energy per Si atom -5577.275232 kJ/mol
# Density = 1.937517 g / cm^3
# Si number density = 19.419368 Si / 1000 Ang^3
#
#
#
# Elastic Constant Matrix: (Units=GPa)
#
#
# Indices 1 2 3 4 5 6 
#
# 1 47.4819 3.6150 -1.1068 0.0000 0.0000 0.0000
# 2 3.6150 144.5598 95.9417 0.0000 0.0000 0.0000
# 3 -1.1068 95.9417 146.3501 0.0000 0.0000 0.0000
# 4 0.0000 0.0000 0.0000 24.3148 0.0000 0.0000
# 5 0.0000 0.0000 0.0000 0.0000 17.9106 0.0000
# 6 0.0000 0.0000 0.0000 0.0000 0.0000 2.6915
#
#
#
# Elastic Compliance Matrix: (Units=1/GPa)
#
#
# Indices 1 2 3 4 5 6 
#
# 1 0.021167 -0.001125 0.000898 0.000000 0.000000 0.000000
# 2 -0.001125 0.012305 -0.008075 0.000000 0.000000 0.000000
# 3 0.000898 -0.008075 0.012134 0.000000 0.000000 0.000000
# 4 0.000000 0.000000 0.000000 0.041127 0.000000 0.000000
# 5 0.000000 0.000000 0.000000 0.000000 0.055833 0.000000
# 6 0.000000 0.000000 0.000000 0.000000 0.000000 0.371541
#
#
# Mechanical properties :
#
#
# Convention : Reuss Voigt Hill
#
# Bulk Modulus (GPa) = 34.48218 59.47684 46.97951
# Shear Modulus (GPa) = 9.25275 24.97949 17.11612
#
# Velocity S-wave (km/s) = 2.18519 3.59042 2.97205
# Velocity P-wave (km/s) = 4.91547 6.91970 6.00184
#
# Compressibility (1/GPa) = 0.02900049
#
# Stress axis : x y z
#
# Youngs Moduli (GPa) = 47.24281 81.26714 82.41601
#
# Poissons Ratio (x) = 0.09143 -0.07398
# Poissons Ratio (y) = 0.05315 0.66553
# Poissons Ratio (z) = -0.04241 0.65625
#
# Static dielectric constant tensor:
#      x y z
#    x 1.738820 0.000000 0.000000 
#    y 0.000000 1.652100 0.000000 
#    z 0.000000 0.000000 1.682740 
# 
# From -- ./inp_files/23438.got.cif
#   From: 2010.05.17/outbox.cif.g08.bks.cpg/sg44_12_cif.got.tgz:23438.got - 2010.06.03 19:37:08.
