data_PCOD9373527
_publ_section_title
;
Structure prediction by ZEFSAII (Michael W. Deem and Ramdas Pophale) SiO2 
 PCOD9373527
Probable space group: I M M 2
;
_chemical_formula_sum "Si O2"
_cell_formula_units_Z 64
_cell_length_a 8.484409
_cell_length_b 15.968460
_cell_length_c 24.466671
_cell_angle_alpha 90.000000
_cell_angle_beta 90.000000
_cell_angle_gamma 90.000000
_cell_volume 3314.816660
_symmetry_space_group_name_H-M "I M M 2"
_symmetry_group_IT_number 44
_symmetry_cell_setting 'orthorhombic'
loop_
_space_group_symop_operation_xyz
x,y,z
-x,-y,z
-x,y,z
x,-y,z
1/2+x,1/2+y,1/2+z
1/2-x,1/2-y,1/2+z
1/2-x,1/2+y,1/2+z
1/2+x,1/2-y,1/2+z
loop_
_atom_site_type_symbol
_atom_site_label
_atom_site_fract_x
_atom_site_fract_y
_atom_site_fract_z
Si Si1 0.309137 0.593714 0.177960
Si Si2 0.308544 0.653759 0.296881
Si Si3 0.312815 0.751187 0.986243
Si Si4 0.690967 0.593611 0.415561
Si Si5 0.809719 0.349063 0.797199
Si Si6 0.689925 0.407569 0.681309
Si Si7 0.811026 0.750342 0.109368
Si Si8 0.190663 0.406207 0.917777
O O1 0.500000 0.597283 0.177119
O O2 0.260974 0.500000 0.161581
O O3 0.257175 0.611620 0.240429
O O4 0.245359 0.666468 0.139523
O O5 0.500000 0.650916 0.296996
O O6 0.257324 0.610377 0.352957
O O7 0.262772 0.751296 0.297396
O O8 0.500000 0.751509 0.987260
O O9 0.252977 0.832280 0.953297
O O10 0.255100 0.667692 0.955271
O O11 0.248330 0.752900 0.047627
O O12 0.500000 0.597161 0.416419
O O13 0.738776 0.500000 0.432598
O O14 0.740914 0.391913 0.743600
O O15 0.762168 0.389631 0.854749
O O16 0.000000 0.353063 0.793926
O O17 0.500000 0.406688 0.679158
O O18 0.744261 0.500000 0.663532
O O19 0.747378 0.331106 0.643746
O O20 0.000000 0.751895 0.109309
O O21 0.239276 0.500000 0.934321
O O22 0.000000 0.402171 0.919462
#
# Coordination Sequence:
#
# PCOD9373527 Si02
#       8
#     8   8   8   8   8   8   8   8
#     4  10  20  36  60  90 122 154 190 235 289 347
#     4   9  16  31  59  91 122 153 189 232 283 346
#     4  12  26  42  61  85 118 155 198 250 303 352
#     4  10  20  38  65  92 120 158 200 239 286 347
#     4  10  18  33  61  91 121 154 191 234 283 344
#     4  10  22  39  59  86 119 153 191 237 290 347
#     4  11  24  42  62  82 111 153 203 248 293 347
#     4  10  21  39  63  90 120 156 199 243 289 348
#
# _framework density 19.307252999999999
#
# number of rings (size 3 to 8) (size 9 to 14) (size 15 to 20)
#    0.000    1.750    2.500    2.250    0.000    5.000 
#    0.000    1.875    0.000    1.500    0.000    0.000 
#    0.000    0.000    0.000    0.000    0.000    0.000 
#
# Total GULP energy -178774.592340 kJ/mol
# GULP energy per Si atom -5586.706011 kJ/mol
# Density = 1.926331 g / cm^3
# Si number density = 19.307253 Si / 1000 Ang^3
#
#
#
# Elastic Constant Matrix: (Units=GPa)
#
#
# Indices 1 2 3 4 5 6 
#
# 1 25.3915 38.5673 26.4348 0.0000 0.0000 0.0000
# 2 38.5673 202.7991 93.5086 0.0000 0.0000 0.0000
# 3 26.4348 93.5086 153.4326 0.0000 0.0000 0.0000
# 4 0.0000 0.0000 0.0000 -2.2501 0.0000 0.0000
# 5 0.0000 0.0000 0.0000 0.0000 26.3699 0.0000
# 6 0.0000 0.0000 0.0000 0.0000 0.0000 25.0909
#
#
#
# Elastic Compliance Matrix: (Units=1/GPa)
#
#
# Indices 1 2 3 4 5 6 
#
# 1 0.057543 -0.008862 -0.004513 0.000000 0.000000 0.000000
# 2 -0.008862 0.008223 -0.003485 0.000000 0.000000 0.000000
# 3 -0.004513 -0.003485 0.009419 0.000000 0.000000 0.000000
# 4 0.000000 0.000000 0.000000 -0.444434 0.000000 0.000000
# 5 0.000000 0.000000 0.000000 0.000000 0.037922 0.000000
# 6 0.000000 0.000000 0.000000 0.000000 0.000000 0.039855
#
#
# Mechanical properties :
#
#
# Convention : Reuss Voigt Hill
#
# Bulk Modulus (GPa) = 24.11687 77.62717 50.87202
# Shear Modulus (GPa) = -20.49759 24.71632 2.10937
#
# Velocity S-wave (km/s) = -3.26184 3.58181 1.04637
# Velocity P-wave (km/s) = 1.29147 7.57623 5.27880
#
# Compressibility (1/GPa) = 0.04146475
#
# Stress axis : x y z
#
# Youngs Moduli (GPa) = 17.37843 121.60851 106.17130
#
# Poissons Ratio (x) = 1.07773 0.47914
# Poissons Ratio (y) = 0.15401 0.36997
# Poissons Ratio (z) = 0.07843 0.42376
#
# Static dielectric constant tensor:
#      x y z
#    x 1.666150 0.000000 0.000000 
#    y 0.000000 1.676140 0.000000 
#    z 0.000000 0.000000 1.640080 
# 
# From -- ./inp_files/25081.got.cif
#   From: 2010.05.17/outbox.cif.g08.bks.cpg/sg44_13_cif.got.tgz:25081.got - 2010.06.03 19:37:08.
