data_PCOD9373836
_publ_section_title
;
Structure prediction by ZEFSAII (Michael W. Deem and Ramdas Pophale) SiO2 
 PCOD9373836
Probable space group: I M M 2
;
_chemical_formula_sum "Si O2"
_cell_formula_units_Z 64
_cell_length_a 8.881644
_cell_length_b 29.504434
_cell_length_c 12.494701
_cell_angle_alpha 90.000000
_cell_angle_beta 90.000000
_cell_angle_gamma 90.000000
_cell_volume 3274.209898
_symmetry_space_group_name_H-M "I M M 2"
_symmetry_group_IT_number 44
_symmetry_cell_setting 'orthorhombic'
loop_
_space_group_symop_operation_xyz
x,y,z
-x,-y,z
-x,y,z
x,-y,z
1/2+x,1/2+y,1/2+z
1/2-x,1/2-y,1/2+z
1/2-x,1/2+y,1/2+z
1/2+x,1/2-y,1/2+z
loop_
_atom_site_type_symbol
_atom_site_label
_atom_site_fract_x
_atom_site_fract_y
_atom_site_fract_z
Si Si1 0.817913 0.948728 0.215160
Si Si2 0.173980 0.632913 0.171487
Si Si3 0.169857 0.330598 0.405368
Si Si4 0.329343 0.550498 0.265649
Si Si5 0.326389 0.066616 0.984222
Si Si6 0.183477 0.846615 0.276878
Si Si7 0.323270 0.309992 0.005469
Si Si8 0.175799 0.219779 0.083856
O O1 0.743705 0.945261 0.097960
O O2 0.772559 0.900267 0.270384
O O3 0.000000 0.947389 0.206621
O O4 0.780265 0.000000 0.258353
O O5 0.199455 0.661736 0.280306
O O6 0.211630 0.582211 0.206605
O O7 0.283253 0.646994 0.077406
O O8 0.000000 0.638562 0.140852
O O9 0.170798 0.379524 0.462238
O O10 0.291076 0.301833 0.468089
O O11 0.000000 0.311329 0.416897
O O12 0.500000 0.568898 0.259654
O O13 0.328699 0.500000 0.221545
O O14 0.277235 0.548808 0.388689
O O15 0.500000 0.051402 0.975995
O O16 0.233337 0.821186 0.385517
O O17 0.231614 0.815766 0.174754
O O18 0.000000 0.846852 0.276226
O O19 0.500000 0.302233 0.997636
O O20 0.252195 0.268432 0.071258
O O21 0.000000 0.226352 0.103419
#
# Coordination Sequence:
#
# PCOD9373836 Si02
#       8
#     8   8   8   8   8   8   8   8
#     4  10  19  34  58  85 114 155 205 250 301 365
#     4  10  22  40  60  85 120 156 196 246 299 352
#     4   9  19  35  55  82 116 153 188 232 289 350
#     4  10  20  34  55  84 117 157 204 249 296 355
#     4  10  19  31  50  81 122 159 191 238 299 358
#     4   9  21  41  61  85 121 159 195 252 307 357
#     4  11  24  42  62  85 118 159 203 249 303 361
#     4  11  22  38  62  89 117 152 194 241 300 360
#
# _framework density 19.546700999999999
#
# number of rings (size 3 to 8) (size 9 to 14) (size 15 to 20)
#    0.000    2.000    1.250    3.000    1.750    5.250 
#    0.000    3.750    0.000    2.250    0.000    0.000 
#    0.000    0.000    0.000    0.000    0.000    0.000 
#
# Total GULP energy -178355.905872 kJ/mol
# GULP energy per Si atom -5573.622059 kJ/mol
# Density = 1.950221 g / cm^3
# Si number density = 19.546701 Si / 1000 Ang^3
#
#
#
# Elastic Constant Matrix: (Units=GPa)
#
#
# Indices 1 2 3 4 5 6 
#
# 1 25.0608 14.4263 14.2871 0.0000 0.0000 0.0001
# 2 14.4263 83.8071 32.8954 -0.0001 0.0000 0.0000
# 3 14.2871 32.8954 63.1807 -0.0004 -0.0001 0.0001
# 4 0.0000 -0.0001 -0.0004 -1.6451 0.0000 -0.0002
# 5 0.0000 0.0000 -0.0001 0.0000 18.4482 0.0000
# 6 0.0001 0.0000 0.0001 -0.0002 0.0000 -6.0959
#
#
#
# Elastic Compliance Matrix: (Units=1/GPa)
#
#
# Indices 1 2 3 4 5 6 
#
# 1 0.047398 -0.004967 -0.008132 0.000002 0.000000 0.000001
# 2 -0.004967 0.015518 -0.006956 0.000001 0.000000 0.000000
# 3 -0.008132 -0.006956 0.021288 -0.000004 0.000000 0.000000
# 4 0.000002 0.000001 -0.000004 -0.607884 0.000000 0.000017
# 5 0.000000 0.000000 0.000000 0.000000 0.054206 0.000000
# 6 0.000001 0.000000 0.000000 0.000017 0.000000 -0.164043
#
#
# Mechanical properties :
#
#
# Convention : Reuss Voigt Hill
#
# Bulk Modulus (GPa) = 22.67897 32.80733 27.74315
# Shear Modulus (GPa) = -8.63992 9.50409 0.43209
#
# Velocity S-wave (km/s) = -2.10469 2.20744 0.47067
# Velocity P-wave (km/s) = 2.39193 4.82883 3.81044
#
# Compressibility (1/GPa) = 0.04409371
#
# Stress axis : x y z
#
# Youngs Moduli (GPa) = 21.09775 64.44323 46.97424
#
# Poissons Ratio (x) = 0.32009 0.38200
# Poissons Ratio (y) = 0.10479 0.32676
# Poissons Ratio (z) = 0.17157 0.44827
#
# Static dielectric constant tensor:
#      x y z
#    x 1.667720 0.000000 0.000000 
#    y 0.000000 1.764040 0.000000 
#    z 0.000000 0.000000 1.666390 
# 
# From -- ./inp_files/11471.got.cif
#   From: 2010.05.17/outbox.cif.g08.bks.cpg/sg44_6_cif.got.tgz:11471.got - 2010.06.03 19:37:08.
