data_PCOD9373857
_publ_section_title
;
Structure prediction by ZEFSAII (Michael W. Deem and Ramdas Pophale) SiO2 
 PCOD9373857
Probable space group: I M M 2
;
_chemical_formula_sum "Si O2"
_cell_formula_units_Z 64
_cell_length_a 25.985126
_cell_length_b 7.503438
_cell_length_c 15.518110
_cell_angle_alpha 90.000000
_cell_angle_beta 90.000000
_cell_angle_gamma 90.000000
_cell_volume 3025.686667
_symmetry_space_group_name_H-M "I M M 2"
_symmetry_group_IT_number 44
_symmetry_cell_setting 'orthorhombic'
loop_
_space_group_symop_operation_xyz
x,y,z
-x,-y,z
-x,y,z
x,-y,z
1/2+x,1/2+y,1/2+z
1/2-x,1/2-y,1/2+z
1/2-x,1/2+y,1/2+z
1/2+x,1/2-y,1/2+z
loop_
_atom_site_type_symbol
_atom_site_label
_atom_site_fract_x
_atom_site_fract_y
_atom_site_fract_z
Si Si1 0.718829 0.783853 0.121040
Si Si2 0.233848 0.285078 0.420462
Si Si3 0.332633 0.281311 0.648654
Si Si4 0.607871 0.212611 0.162439
Si Si5 0.941207 0.785031 0.476665
Si Si6 0.346140 0.287348 0.453636
Si Si7 0.943233 0.286151 0.835188
Si Si8 0.868787 0.205860 0.324748
O O1 0.773035 0.725543 0.160276
O O2 0.666289 0.716838 0.162701
O O3 0.718527 0.000000 0.124896
O O4 0.719708 0.738900 0.019470
O O5 0.231759 0.500000 0.412394
O O6 0.292941 0.223144 0.409144
O O7 0.189696 0.210450 0.359735
O O8 0.333460 0.500000 0.649905
O O9 0.348456 0.223536 0.552677
O O10 0.366604 0.217105 0.728562
O O11 0.583091 0.241575 0.069173
O O12 0.573912 0.282354 0.241109
O O13 0.611433 0.000000 0.174136
O O14 0.905516 0.716016 0.398620
O O15 0.000000 0.721728 0.471118
O O16 0.941788 0.000000 0.471773
O O17 0.339804 0.500000 0.459290
O O18 0.397410 0.251271 0.401161
O O19 0.946724 0.500000 0.829822
O O20 0.000000 0.218963 0.859274
O O21 0.884628 0.000000 0.315646
#
# Coordination Sequence:
#
# PCOD9373857 Si02
#       8
#     8   8   8   8   8   8   8   8
#     4   8  14  27  48  73 101 132 161 199 248 298
#     4   9  17  31  50  75 106 134 164 210 259 302
#     4   8  16  31  51  76 105 134 168 209 254 305
#     4  10  19  33  55  78 100 135 178 211 249 309
#     4  10  21  35  49  72 109 143 170 212 264 303
#     4   9  19  36  56  76 102 137 175 213 258 309
#     4  10  22  37  53  77 106 134 173 223 263 297
#     4  10  19  31  52  78 103 136 176 213 253 307
#
# _framework density 21.152222999999999
#
# number of rings (size 3 to 8) (size 9 to 14) (size 15 to 20)
#    0.000    2.750    1.250    1.875    1.750    2.000 
#    0.000    1.250    0.000    3.000    0.000    0.000 
#    0.000    0.000    0.000    0.000    0.000    0.000 
#
# Total GULP energy -178591.273163 kJ/mol
# GULP energy per Si atom -5580.977286 kJ/mol
# Density = 2.110408 g / cm^3
# Si number density = 21.152223 Si / 1000 Ang^3
#
#
#
# Elastic Constant Matrix: (Units=GPa)
#
#
# Indices 1 2 3 4 5 6 
#
# 1 150.7640 -2.8892 73.6798 0.0000 0.0000 0.0000
# 2 -2.8892 55.2899 -4.9118 0.0000 0.0000 0.0000
# 3 73.6798 -4.9118 103.2045 0.0000 0.0000 0.0000
# 4 0.0000 0.0000 0.0000 -2.4152 0.0000 0.0000
# 5 0.0000 0.0000 0.0000 0.0000 25.7053 0.0000
# 6 0.0000 0.0000 0.0000 0.0000 0.0000 16.6732
#
#
#
# Elastic Compliance Matrix: (Units=1/GPa)
#
#
# Indices 1 2 3 4 5 6 
#
# 1 0.010188 -0.000114 -0.007279 0.000000 0.000000 0.000000
# 2 -0.000114 0.018165 0.000946 0.000000 0.000000 0.000000
# 3 -0.007279 0.000946 0.014931 0.000000 0.000000 0.000000
# 4 0.000000 0.000000 0.000000 -0.414049 0.000000 0.000000
# 5 0.000000 0.000000 0.000000 0.000000 0.038902 0.000000
# 6 0.000000 0.000000 0.000000 0.000000 0.000000 0.059976
#
#
# Mechanical properties :
#
#
# Convention : Reuss Voigt Hill
#
# Bulk Modulus (GPa) = 32.90605 49.00177 40.95391
# Shear Modulus (GPa) = -20.09139 24.21799 2.06330
#
# Velocity S-wave (km/s) = -3.08530 3.38736 0.98872
# Velocity P-wave (km/s) = 1.70248 6.20609 4.55049
#
# Compressibility (1/GPa) = 0.03038955
#
# Stress axis : x y z
#
# Youngs Moduli (GPa) = 98.15552 55.05221 66.97465
#
# Poissons Ratio (x) = 0.00629 0.48750
# Poissons Ratio (y) = 0.01121 -0.06336
# Poissons Ratio (z) = 0.71445 -0.05208
#
# Static dielectric constant tensor:
#      x y z
#    x 1.775760 0.000000 0.000000 
#    y 0.000000 1.826690 0.000000 
#    z 0.000000 0.000000 1.758460 
# 
# From -- ./inp_files/19468.got.cif
#   From: 2010.05.17/outbox.cif.g08.bks.cpg/sg44_10_cif.got.tgz:19468.got - 2010.06.03 19:37:08.
