data_PCOD9373608
_publ_section_title
;
Structure prediction by ZEFSAII (Michael W. Deem and Ramdas Pophale) SiO2 
 PCOD9373608
Probable space group: I M M 2
;
_chemical_formula_sum "Si O2"
_cell_formula_units_Z 64
_cell_length_a 14.865053
_cell_length_b 8.528348
_cell_length_c 23.607505
_cell_angle_alpha 90.000000
_cell_angle_beta 90.000000
_cell_angle_gamma 90.000000
_cell_volume 2992.825984
_symmetry_space_group_name_H-M "I M M 2"
_symmetry_group_IT_number 44
_symmetry_cell_setting 'orthorhombic'
loop_
_space_group_symop_operation_xyz
x,y,z
-x,-y,z
-x,y,z
x,-y,z
1/2+x,1/2+y,1/2+z
1/2-x,1/2-y,1/2+z
1/2-x,1/2+y,1/2+z
1/2+x,1/2-y,1/2+z
loop_
_atom_site_type_symbol
_atom_site_label
_atom_site_fract_x
_atom_site_fract_y
_atom_site_fract_z
Si Si1 0.204238 0.187001 0.907230
Si Si2 0.130885 0.822459 0.264225
Si Si3 0.095482 0.808798 0.549940
Si Si4 0.200556 0.312266 0.025788
Si Si5 0.655175 0.176685 0.290704
Si Si6 0.095777 0.683961 0.379674
Si Si7 0.366680 0.316715 0.174441
Si Si8 0.825964 0.186762 0.144185
O O1 0.152581 0.228836 0.849264
O O2 0.308062 0.249477 0.900248
O O3 0.207583 0.000000 0.912600
O O4 0.165628 0.260118 0.964583
O O5 0.239173 0.823558 0.272629
O O6 0.097597 0.705289 0.311789
O O7 0.110355 0.787895 0.198603
O O8 0.101062 0.000000 0.277354
O O9 0.193549 0.757864 0.528055
O O10 0.092174 0.759088 0.615724
O O11 0.000000 0.756230 0.523935
O O12 0.097075 0.000000 0.547896
O O13 0.198555 0.500000 0.031120
O O14 0.151472 0.237604 0.080397
O O15 0.608722 0.239980 0.234003
O O16 0.626699 0.000000 0.302107
O O17 0.095753 0.500000 0.393757
O O18 0.000000 0.754570 0.398707
O O19 0.384839 0.500000 0.179473
O O20 0.261575 0.287798 0.160660
O O21 0.804911 0.000000 0.144664
#
# Coordination Sequence:
#
# PCOD9373608 Si02
#       8
#     8   8   8   8   8   8   8   8
#     4  10  19  30  43  58  81 112 144 176 209 245
#     4   8  15  26  41  60  78 100 131 168 209 249
#     4   8  15  27  41  58  82 112 144 175 203 237
#     4  10  19  29  42  60  82 110 145 178 209 245
#     4   9  16  27  42  59  80 103 132 171 213 253
#     4   9  18  30  42  58  82 112 143 173 205 242
#     4   9  15  24  41  62  81 103 134 170 210 251
#     4   9  16  27  42  59  80 104 133 170 212 252
#
# _framework density 21.384471999999999
#
# number of rings (size 3 to 8) (size 9 to 14) (size 15 to 20)
#    0.000    3.000    0.000    3.375    0.000    4.750 
#    0.000    0.000    0.000   13.125    0.000    0.000 
#    0.000    1.000    0.000    5.250    0.000    4.500 
#
# Total GULP energy -178176.772691 kJ/mol
# GULP energy per Si atom -5568.024147 kJ/mol
# Density = 2.133580 g / cm^3
# Si number density = 21.384472 Si / 1000 Ang^3
#
#
#
# Elastic Constant Matrix: (Units=GPa)
#
#
# Indices 1 2 3 4 5 6 
#
# 1 15.5438 -0.2553 -2.0523 0.0000 0.0000 0.0000
# 2 -0.2553 35.0686 25.3259 0.0000 0.0000 0.0000
# 3 -2.0523 25.3259 168.7505 0.0000 0.0000 0.0000
# 4 0.0000 0.0000 0.0000 31.7049 0.0000 0.0000
# 5 0.0000 0.0000 0.0000 0.0000 -12.1026 0.0000
# 6 0.0000 0.0000 0.0000 0.0000 0.0000 -26.1873
#
#
#
# Elastic Compliance Matrix: (Units=1/GPa)
#
#
# Indices 1 2 3 4 5 6 
#
# 1 0.064438 -0.000109 0.000800 0.000000 0.000000 0.000000
# 2 -0.000109 0.031982 -0.004801 0.000000 0.000000 0.000000
# 3 0.000800 -0.004801 0.006656 0.000000 0.000000 0.000000
# 4 0.000000 0.000000 0.000000 0.031541 0.000000 0.000000
# 5 0.000000 0.000000 0.000000 0.000000 -0.082627 0.000000
# 6 0.000000 0.000000 0.000000 0.000000 0.000000 -0.038186
#
#
# Mechanical properties :
#
#
# Convention : Reuss Voigt Hill
#
# Bulk Modulus (GPa) = 10.54219 29.48881 20.01550
# Shear Modulus (GPa) = 93.20918 11.77262 52.49090
#
# Velocity S-wave (km/s) = 6.60923 2.34887 4.95979
# Velocity P-wave (km/s) = 7.94878 4.60174 6.49458
#
# Compressibility (1/GPa) = 0.09485696
#
# Stress axis : x y z
#
# Youngs Moduli (GPa) = 15.51876 31.26751 150.23611
#
# Poissons Ratio (x) = 0.00339 -0.12019
# Poissons Ratio (y) = 0.00168 0.72131
# Poissons Ratio (z) = -0.01241 0.15012
#
# Static dielectric constant tensor:
#      x y z
#    x 1.869470 0.000000 0.000000 
#    y 0.000000 1.730080 0.000000 
#    z 0.000000 0.000000 1.811470 
# 
# From -- ./inp_files/23405.got.cif
#   From: 2010.05.17/outbox.cif.g08.bks.cpg/sg44_12_cif.got.tgz:23405.got - 2010.06.03 19:37:08.
