data_PCOD9373355
_publ_section_title
;
Structure prediction by ZEFSAII (Michael W. Deem and Ramdas Pophale) SiO2 
 PCOD9373355
Probable space group: I M M 2
;
_chemical_formula_sum "Si O2"
_cell_formula_units_Z 56
_cell_length_a 23.570471
_cell_length_b 8.702395
_cell_length_c 14.539744
_cell_angle_alpha 90.000000
_cell_angle_beta 90.000000
_cell_angle_gamma 90.000000
_cell_volume 2982.385732
_symmetry_space_group_name_H-M "I M M 2"
_symmetry_group_IT_number 44
_symmetry_cell_setting 'orthorhombic'
loop_
_space_group_symop_operation_xyz
x,y,z
-x,-y,z
-x,y,z
x,-y,z
1/2+x,1/2+y,1/2+z
1/2-x,1/2-y,1/2+z
1/2-x,1/2+y,1/2+z
1/2+x,1/2-y,1/2+z
loop_
_atom_site_type_symbol
_atom_site_label
_atom_site_fract_x
_atom_site_fract_y
_atom_site_fract_z
Si Si1 0.500000 0.684985 0.781711
Si Si2 0.763616 0.820011 0.561501
Si Si3 0.652971 0.682630 0.297564
Si Si4 0.729440 0.321958 0.748325
Si Si5 0.356402 0.820801 0.484713
Si Si6 0.000000 0.188173 0.496013
Si Si7 0.613086 0.315034 0.096612
Si Si8 0.613769 0.815148 0.692671
O O1 0.500000 0.500000 0.776438
O O2 0.500000 0.730880 0.889098
O O3 0.555870 0.750480 0.733022
O O4 0.747025 0.703776 0.642002
O O5 0.712311 0.809264 0.491002
O O6 0.828992 0.788404 0.538572
O O7 0.761739 0.000000 0.595772
O O8 0.652463 0.500000 0.294742
O O9 0.718187 0.738786 0.297119
O O10 0.624657 0.737550 0.392134
O O11 0.624710 0.739145 0.201524
O O12 0.727119 0.500000 0.774242
O O13 0.667308 0.247031 0.751231
O O14 0.378531 0.767640 0.584882
O O15 0.370855 0.000000 0.476530
O O16 0.056610 0.243419 0.548039
O O17 0.000000 0.000000 0.498197
O O18 0.607018 0.500000 0.102203
O O19 0.614984 0.000000 0.694325
#
# Coordination Sequence:
#
# PCOD9373355 Si02
#       8
#     4   8   8   8   8   4   8   8
#     4  11  23  37  58  85 104 130 181 235 272 315
#     4   8  15  29  48  72 103 138 172 210 266 326
#     4  10  19  31  50  78 112 147 180 218 269 326
#     4  10  18  30  51  77 105 137 177 223 264 310
#     4   9  18  32  52  77 105 140 179 217 267 330
#     4   9  18  33  54  79 104 134 177 225 268 311
#     4   8  15  30  50  72 103 140 175 213 262 319
#     4  10  21  39  58  76 108 149 180 217 275 332
#
# _framework density 18.776913
#
# number of rings (size 3 to 8) (size 9 to 14) (size 15 to 20)
#    0.000    2.714    0.000    4.071    0.000    4.000 
#    0.000    3.571    0.000    9.429    0.000    0.000 
#    0.000    0.000    0.000    0.000    0.000    0.000 
#
# Total GULP energy -155929.041832 kJ/mol
# GULP energy per Si atom -5568.894351 kJ/mol
# Density = 1.873418 g / cm^3
# Si number density = 18.776913 Si / 1000 Ang^3
#
#
#
# Elastic Constant Matrix: (Units=GPa)
#
#
# Indices 1 2 3 4 5 6 
#
# 1 143.4165 23.3060 59.6181 0.0000 0.0000 0.0000
# 2 23.3060 37.6069 27.5924 0.0000 0.0000 0.0000
# 3 59.6181 27.5924 113.3443 0.0000 0.0000 0.0000
# 4 0.0000 0.0000 0.0000 21.8912 0.0000 0.0000
# 5 0.0000 0.0000 0.0000 0.0000 11.6528 0.0000
# 6 0.0000 0.0000 0.0000 0.0000 0.0000 19.0656
#
#
#
# Elastic Compliance Matrix: (Units=1/GPa)
#
#
# Indices 1 2 3 4 5 6 
#
# 1 0.009128 -0.002598 -0.004169 0.000000 0.000000 0.000000
# 2 -0.002598 0.033113 -0.006694 0.000000 0.000000 0.000000
# 3 -0.004169 -0.006694 0.012645 0.000000 0.000000 0.000000
# 4 0.000000 0.000000 0.000000 0.045681 0.000000 0.000000
# 5 0.000000 0.000000 0.000000 0.000000 0.085817 0.000000
# 6 0.000000 0.000000 0.000000 0.000000 0.000000 0.052451
#
#
# Mechanical properties :
#
#
# Convention : Reuss Voigt Hill
#
# Bulk Modulus (GPa) = 35.76122 57.26674 46.51398
# Shear Modulus (GPa) = 18.17675 22.77864 20.47770
#
# Velocity S-wave (km/s) = 3.11471 3.48677 3.30597
# Velocity P-wave (km/s) = 5.65878 6.83921 6.27681
#
# Compressibility (1/GPa) = 0.02796325
#
# Stress axis : x y z
#
# Youngs Moduli (GPa) = 109.55516 30.19987 79.08260
#
# Poissons Ratio (x) = 0.07847 0.32967
# Poissons Ratio (y) = 0.28465 0.52940
# Poissons Ratio (z) = 0.45670 0.20217
#
# Static dielectric constant tensor:
#      x y z
#    x 1.652540 0.000000 0.000000 
#    y 0.000000 1.638280 0.000000 
#    z 0.000000 0.000000 1.683170 
# 
# From -- ./inp_files/19259.got.cif
#   From: 2010.05.17/outbox.cif.g08.bks.cpg/sg44_10_cif.got.tgz:19259.got - 2010.06.03 19:37:08.
