data_PCOD9373280
_publ_section_title
;
Structure prediction by ZEFSAII (Michael W. Deem and Ramdas Pophale) SiO2 
 PCOD9373280
Probable space group: I M M 2
;
_chemical_formula_sum "Si O2"
_cell_formula_units_Z 64
_cell_length_a 15.095786
_cell_length_b 7.411500
_cell_length_c 24.975934
_cell_angle_alpha 90.000000
_cell_angle_beta 90.000000
_cell_angle_gamma 90.000000
_cell_volume 2794.367886
_symmetry_space_group_name_H-M "I M M 2"
_symmetry_group_IT_number 44
_symmetry_cell_setting 'orthorhombic'
loop_
_space_group_symop_operation_xyz
x,y,z
-x,-y,z
-x,y,z
x,-y,z
1/2+x,1/2+y,1/2+z
1/2-x,1/2-y,1/2+z
1/2-x,1/2+y,1/2+z
1/2+x,1/2-y,1/2+z
loop_
_atom_site_type_symbol
_atom_site_label
_atom_site_fract_x
_atom_site_fract_y
_atom_site_fract_z
Si Si1 0.600706 0.714107 0.409200
Si Si2 0.839854 0.297718 0.683868
Si Si3 0.800132 0.717334 0.801161
Si Si4 0.399171 0.779973 0.067281
Si Si5 0.240492 0.780379 0.996529
Si Si6 0.902174 0.793815 0.306146
Si Si7 0.142809 0.292550 0.189937
Si Si8 0.091226 0.783444 0.075741
O O1 0.500000 0.784459 0.416914
O O2 0.595548 0.500000 0.420736
O O3 0.633096 0.740537 0.348640
O O4 0.683157 0.783087 0.445514
O O5 0.878477 0.500000 0.687681
O O6 0.840465 0.216449 0.744123
O O7 0.875285 0.216822 0.628045
O O8 0.734204 0.305036 0.676446
O O9 0.791386 0.500000 0.795046
O O10 0.698684 0.781444 0.815547
O O11 0.500000 0.733344 0.056266
O O12 0.335922 0.720631 0.018382
O O13 0.390664 0.000000 0.069842
O O14 0.177186 0.724464 0.045249
O O15 0.245185 0.000000 0.992132
O O16 0.902023 0.791957 0.241488
O O17 0.000000 0.716597 0.322575
O O18 0.901118 0.000000 0.325947
O O19 0.161212 0.500000 0.203439
O O20 0.090185 0.284259 0.135598
O O21 0.000000 0.730624 0.047387
O O22 0.094248 0.000000 0.077055
#
# Coordination Sequence:
#
# PCOD9373280 Si02
#       8
#     8   8   8   8   8   8   8   8
#     4  10  21  37  56  78 106 143 185 226 271 325
#     4   9  17  33  54  76 105 141 181 215 258 320
#     4   9  19  34  55  81 107 138 180 228 272 315
#     4   9  16  28  53  85 108 128 166 225 278 317
#     4   9  17  32  53  75 102 135 176 223 265 314
#     4   9  18  34  54  74 101 141 184 219 256 313
#     4  11  20  28  43  72 110 143 171 209 261 315
#     4  10  18  29  48  70  94 133 180 218 256 307
#
# _framework density 22.903210999999999
#
# number of rings (size 3 to 8) (size 9 to 14) (size 15 to 20)
#    0.000    2.500    1.250    2.625    0.000    6.250 
#    0.000    2.500    0.000    2.625    0.000    0.000 
#    0.000    0.000    0.000    0.000    0.000    0.000 
#
# Total GULP energy -178199.668826 kJ/mol
# GULP energy per Si atom -5568.739651 kJ/mol
# Density = 2.285108 g / cm^3
# Si number density = 22.903211 Si / 1000 Ang^3
#
#
#
# Elastic Constant Matrix: (Units=GPa)
#
#
# Indices 1 2 3 4 5 6 
#
# 1 163.5857 6.5275 69.4201 0.0000 0.0000 0.0000
# 2 6.5275 76.6841 -4.4192 0.0000 0.0000 0.0000
# 3 69.4201 -4.4192 116.5380 0.0000 0.0000 0.0000
# 4 0.0000 0.0000 0.0000 4.1681 0.0000 0.0000
# 5 0.0000 0.0000 0.0000 0.0000 -5.7912 0.0000
# 6 0.0000 0.0000 0.0000 0.0000 0.0000 -6.1921
#
#
#
# Elastic Compliance Matrix: (Units=1/GPa)
#
#
# Indices 1 2 3 4 5 6 
#
# 1 0.008255 -0.000988 -0.004955 0.000000 0.000000 0.000000
# 2 -0.000988 0.013187 0.001089 0.000000 0.000000 0.000000
# 3 -0.004955 0.001089 0.011574 0.000000 0.000000 0.000000
# 4 0.000000 0.000000 0.000000 0.239919 0.000000 0.000000
# 5 0.000000 0.000000 0.000000 0.000000 -0.172675 0.000000
# 6 0.000000 0.000000 0.000000 0.000000 0.000000 -0.161497
#
#
# Mechanical properties :
#
#
# Convention : Reuss Voigt Hill
#
# Bulk Modulus (GPa) = 42.90479 55.54053 49.22266
# Shear Modulus (GPa) = -114.26270 17.45559 -48.40356
#
# Velocity S-wave (km/s) = -7.07090 2.76369 -4.60216
# Velocity P-wave (km/s) = 6.92025 5.87254 2.58873
#
# Compressibility (1/GPa) = 0.02330742
#
# Stress axis : x y z
#
# Youngs Moduli (GPa) = 121.13653 75.83008 86.40223
#
# Poissons Ratio (x) = 0.07494 0.42812
# Poissons Ratio (y) = 0.11971 -0.09407
# Poissons Ratio (z) = 0.60023 -0.08256
#
# Static dielectric constant tensor:
#      x y z
#    x 1.863320 0.000000 0.000000 
#    y 0.000000 1.921810 0.000000 
#    z 0.000000 0.000000 1.850130 
# 
# From -- ./inp_files/25162.got.cif
#   From: 2010.05.17/outbox.cif.g08.bks.cpg/sg44_13_cif.got.tgz:25162.got - 2010.06.03 19:37:08.
