data_PCOD9373793
_publ_section_title
;
Structure prediction by ZEFSAII (Michael W. Deem and Ramdas Pophale) SiO2 
 PCOD9373793
Probable space group: I M M 2
;
_chemical_formula_sum "Si O2"
_cell_formula_units_Z 56
_cell_length_a 21.648503
_cell_length_b 7.794294
_cell_length_c 14.640219
_cell_angle_alpha 90.000000
_cell_angle_beta 90.000000
_cell_angle_gamma 90.000000
_cell_volume 2470.314382
_symmetry_space_group_name_H-M "I M M 2"
_symmetry_group_IT_number 44
_symmetry_cell_setting 'orthorhombic'
loop_
_space_group_symop_operation_xyz
x,y,z
-x,-y,z
-x,y,z
x,-y,z
1/2+x,1/2+y,1/2+z
1/2-x,1/2-y,1/2+z
1/2-x,1/2+y,1/2+z
1/2+x,1/2-y,1/2+z
loop_
_atom_site_type_symbol
_atom_site_label
_atom_site_fract_x
_atom_site_fract_y
_atom_site_fract_z
Si Si1 0.607692 0.209850 0.766310
Si Si2 0.431461 0.206828 0.566398
Si Si3 0.066975 0.294796 0.461731
Si Si4 0.643650 0.703958 0.398303
Si Si5 0.430274 0.197327 0.234657
Si Si6 0.750285 0.290017 0.260729
Si Si7 0.169265 0.811181 0.601275
O O1 0.579379 0.265561 0.670287
O O2 0.574146 0.268054 0.858139
O O3 0.679326 0.261126 0.772106
O O4 0.605458 0.000000 0.766551
O O5 0.500000 0.266151 0.535091
O O6 0.374136 0.257952 0.502123
O O7 0.432469 0.000000 0.566721
O O8 0.063329 0.500000 0.460294
O O9 0.130080 0.258659 0.516661
O O10 0.000000 0.233099 0.499678
O O11 0.640578 0.500000 0.386697
O O12 0.589766 0.791411 0.339162
O O13 0.706712 0.761104 0.346680
O O14 0.500000 0.249943 0.223051
O O15 0.384043 0.313326 0.178421
O O16 0.423290 0.000000 0.202438
O O17 0.748210 0.500000 0.256857
O O18 0.722998 0.226128 0.162860
O O19 0.191122 0.000000 0.575220
#
# Coordination Sequence:
#
# PCOD9373793 Si02
#       7
#     8   8   8   8   8   8   8
#     4   9  18  35  57  75  99 138 178 221 264 298
#     4  10  20  34  54  80 105 133 175 220 260 306
#     4  10  20  34  54  80 105 133 175 220 260 306
#     4  10  20  33  51  76 107 139 169 207 258 315
#     4  10  19  31  49  74 103 135 174 217 256 301
#     4   8  17  34  53  76 104 135 174 213 254 309
#     4  10  20  33  51  76 107 139 169 207 258 315
#
# _framework density 22.669179
#
# number of rings (size 3 to 8) (size 9 to 14) (size 15 to 20)
#    0.000    2.429    0.000    3.429    0.000    8.000 
#    0.000    0.714    0.000   10.286    0.000    0.000 
#    0.000    0.000    0.000    0.000    0.000    0.000 
#
# Total GULP energy -156127.900989 kJ/mol
# GULP energy per Si atom -5575.996464 kJ/mol
# Density = 2.261758 g / cm^3
# Si number density = 22.669179 Si / 1000 Ang^3
#
#
#
# Elastic Constant Matrix: (Units=GPa)
#
#
# Indices 1 2 3 4 5 6 
#
# 1 96.4218 3.7397 16.3788 0.0000 0.0000 0.0000
# 2 3.7397 29.2049 -2.4609 0.0000 0.0000 0.0000
# 3 16.3788 -2.4609 104.7720 0.0000 0.0000 0.0000
# 4 0.0000 0.0000 0.0000 25.2908 0.0000 0.0000
# 5 0.0000 0.0000 0.0000 0.0000 22.6645 0.0000
# 6 0.0000 0.0000 0.0000 0.0000 0.0000 10.8449
#
#
#
# Elastic Compliance Matrix: (Units=1/GPa)
#
#
# Indices 1 2 3 4 5 6 
#
# 1 0.010721 -0.001517 -0.001712 0.000000 0.000000 0.000000
# 2 -0.001517 0.034523 0.001048 0.000000 0.000000 0.000000
# 3 -0.001712 0.001048 0.009837 0.000000 0.000000 0.000000
# 4 0.000000 0.000000 0.000000 0.039540 0.000000 0.000000
# 5 0.000000 0.000000 0.000000 0.000000 0.044122 0.000000
# 6 0.000000 0.000000 0.000000 0.000000 0.000000 0.092209
#
#
# Mechanical properties :
#
#
# Convention : Reuss Voigt Hill
#
# Bulk Modulus (GPa) = 19.71618 29.52376 24.61997
# Shear Modulus (GPa) = 19.82399 25.94276 22.88337
#
# Velocity S-wave (km/s) = 2.96039 3.38658 3.18063
# Velocity P-wave (km/s) = 4.51679 5.32390 4.93687
#
# Compressibility (1/GPa) = 0.05071975
#
# Stress axis : x y z
#
# Youngs Moduli (GPa) = 93.27766 28.96582 101.65989
#
# Poissons Ratio (x) = 0.04394 0.17400
# Poissons Ratio (y) = 0.14150 -0.10655
# Poissons Ratio (z) = 0.15965 -0.03036
#
# Static dielectric constant tensor:
#      x y z
#    x 1.852680 0.000000 0.000000 
#    y 0.000000 1.861870 0.000000 
#    z 0.000000 0.000000 1.889630 
# 
# From -- ./inp_files/19175.got.cif
#   From: 2010.05.17/outbox.cif.g08.bks.cpg/sg44_10_cif.got.tgz:19175.got - 2010.06.03 19:37:08.
