data_PCOD9373915
_publ_section_title
;
Structure prediction by ZEFSAII (Michael W. Deem and Ramdas Pophale) SiO2 
 PCOD9373915
Probable space group: I M M 2
;
_chemical_formula_sum "Si O2"
_cell_formula_units_Z 48
_cell_length_a 21.238250
_cell_length_b 7.546072
_cell_length_c 14.981291
_cell_angle_alpha 90.000000
_cell_angle_beta 90.000000
_cell_angle_gamma 90.000000
_cell_volume 2400.982050
_symmetry_space_group_name_H-M "I M M 2"
_symmetry_group_IT_number 44
_symmetry_cell_setting 'orthorhombic'
loop_
_space_group_symop_operation_xyz
x,y,z
-x,-y,z
-x,y,z
x,-y,z
1/2+x,1/2+y,1/2+z
1/2-x,1/2-y,1/2+z
1/2-x,1/2+y,1/2+z
1/2+x,1/2-y,1/2+z
loop_
_atom_site_type_symbol
_atom_site_label
_atom_site_fract_x
_atom_site_fract_y
_atom_site_fract_z
Si Si1 0.930294 0.287468 0.579550
Si Si2 0.688109 0.788667 0.574686
Si Si3 0.928941 0.283246 0.958417
Si Si4 0.308929 0.712475 0.964066
Si Si5 0.125438 0.283450 0.767051
Si Si6 0.770593 0.213006 0.270706
O O1 0.933680 0.500000 0.586115
O O2 0.875465 0.249348 0.509432
O O3 0.909077 0.222626 0.677407
O O4 0.000000 0.221396 0.556035
O O5 0.624683 0.722317 0.527371
O O6 0.751046 0.719408 0.525103
O O7 0.693723 0.757371 0.679781
O O8 0.688089 0.000000 0.561217
O O9 0.929281 0.500000 0.959500
O O10 0.908052 0.230010 0.858666
O O11 0.000000 0.225156 0.978191
O O12 0.302663 0.500000 0.961244
O O13 0.301212 0.778087 0.862794
O O14 0.125420 0.500000 0.766471
O O15 0.198128 0.224986 0.765596
O O16 0.768036 0.000000 0.275312
#
# Coordination Sequence:
#
# PCOD9373915 Si02
#       6
#     8   8   8   8   8   8
#     4  10  20  33  52  79 106 133 169 212 258 305
#     4  10  19  32  51  77 104 131 169 212 250 296
#     4   9  16  28  49  76 104 132 163 206 257 301
#     4  10  20  34  52  74 103 138 174 208 249 306
#     4   9  15  27  49  77 104 127 159 205 253 303
#     4  10  19  33  53  76 101 133 171 207 248 301
#
# _framework density 19.991820000000001
#
# number of rings (size 3 to 8) (size 9 to 14) (size 15 to 20)
#    0.000    2.333    3.333    0.500    0.000    3.000 
#    0.000    0.833    0.000    4.500    0.000    0.000 
#    0.000    0.000    0.000    0.000    0.000    0.000 
#
# Total GULP energy -134001.585454 kJ/mol
# GULP energy per Si atom -5583.399394 kJ/mol
# Density = 1.994632 g / cm^3
# Si number density = 19.991820 Si / 1000 Ang^3
#
#
#
# Elastic Constant Matrix: (Units=GPa)
#
#
# Indices 1 2 3 4 5 6 
#
# 1 201.1179 8.2511 118.8544 0.0000 0.0000 0.0000
# 2 8.2511 47.0189 2.8848 0.0000 0.0000 0.0000
# 3 118.8544 2.8848 181.2853 0.0000 0.0000 0.0000
# 4 0.0000 0.0000 0.0000 19.4168 0.0000 0.0000
# 5 0.0000 0.0000 0.0000 0.0000 4.2626 0.0000
# 6 0.0000 0.0000 0.0000 0.0000 0.0000 12.1343
#
#
#
# Elastic Compliance Matrix: (Units=1/GPa)
#
#
# Indices 1 2 3 4 5 6 
#
# 1 0.008174 -0.001107 -0.005342 0.000000 0.000000 0.000000
# 2 -0.001107 0.021439 0.000384 0.000000 0.000000 0.000000
# 3 -0.005342 0.000384 0.009012 0.000000 0.000000 0.000000
# 4 0.000000 0.000000 0.000000 0.051502 0.000000 0.000000
# 5 0.000000 0.000000 0.000000 0.000000 0.234601 0.000000
# 6 0.000000 0.000000 0.000000 0.000000 0.000000 0.082411
#
#
# Mechanical properties :
#
#
# Convention : Reuss Voigt Hill
#
# Bulk Modulus (GPa) = 37.73977 76.60031 57.17004
# Shear Modulus (GPa) = 11.67955 27.12487 19.40221
#
# Velocity S-wave (km/s) = 2.41968 3.68747 3.11868
# Velocity P-wave (km/s) = 5.16963 7.51857 6.45190
#
# Compressibility (1/GPa) = 0.02649725
#
# Stress axis : x y z
#
# Youngs Moduli (GPa) = 122.33348 46.64472 110.96113
#
# Poissons Ratio (x) = 0.05162 0.59272
# Poissons Ratio (y) = 0.13539 -0.04266
# Poissons Ratio (z) = 0.65347 -0.01793
#
# Static dielectric constant tensor:
#      x y z
#    x 1.704060 0.000000 0.000000 
#    y 0.000000 1.779700 0.000000 
#    z 0.000000 0.000000 1.679960 
# 
# From -- ./inp_files/11169.got.cif
#   From: 2010.05.17/outbox.cif.g08.bks.cpg/sg44_6_cif.got.tgz:11169.got - 2010.06.03 19:37:08.
