data_PCOD9373475
_publ_section_title
;
Structure prediction by ZEFSAII (Michael W. Deem and Ramdas Pophale) SiO2 
 PCOD9373475
Probable space group: I M M 2
;
_chemical_formula_sum "Si O2"
_cell_formula_units_Z 64
_cell_length_a 7.466276
_cell_length_b 16.013963
_cell_length_c 24.646232
_cell_angle_alpha 90.000000
_cell_angle_beta 90.000000
_cell_angle_gamma 90.000000
_cell_volume 2946.818537
_symmetry_space_group_name_H-M "I M M 2"
_symmetry_group_IT_number 44
_symmetry_cell_setting 'orthorhombic'
loop_
_space_group_symop_operation_xyz
x,y,z
-x,-y,z
-x,y,z
x,-y,z
1/2+x,1/2+y,1/2+z
1/2-x,1/2-y,1/2+z
1/2-x,1/2+y,1/2+z
1/2+x,1/2-y,1/2+z
loop_
_atom_site_type_symbol
_atom_site_label
_atom_site_fract_x
_atom_site_fract_y
_atom_site_fract_z
Si Si1 0.207536 0.640609 0.406090
Si Si2 0.779889 0.253668 0.723117
Si Si3 0.219062 0.407375 0.524720
Si Si4 0.784314 0.593465 0.029098
Si Si5 0.282915 0.163644 0.413388
Si Si6 0.287574 0.244380 0.099613
Si Si7 0.718503 0.906972 0.297861
Si Si8 0.292528 0.591213 0.285865
O O1 0.280096 0.604955 0.462621
O O2 0.222873 0.740610 0.410096
O O3 0.290364 0.609993 0.350062
O O4 0.000000 0.616375 0.402746
O O5 0.719253 0.255978 0.660992
O O6 0.723549 0.334860 0.756893
O O7 0.716491 0.170261 0.753846
O O8 0.000000 0.253304 0.723980
O O9 0.268419 0.500000 0.544214
O O10 0.282690 0.330817 0.561868
O O11 0.000000 0.403550 0.523413
O O12 0.720652 0.500000 0.042719
O O13 0.737872 0.666564 0.070853
O O14 0.000000 0.590465 0.026921
O O15 0.721746 0.621154 0.969128
O O16 0.500000 0.164148 0.413898
O O17 0.226118 0.116070 0.359051
O O18 0.500000 0.230214 0.103529
O O19 0.500000 0.906535 0.297743
O O20 0.776681 0.000000 0.283089
O O21 0.500000 0.586871 0.269201
O O22 0.211519 0.500000 0.275692
#
# Coordination Sequence:
#
# PCOD9373475 Si02
#       8
#     8   8   8   8   8   8   8   8
#     4  11  20  32  53  79 108 139 171 210 262 317
#     4   9  18  32  51  77 105 134 174 220 259 302
#     4   9  18  32  50  75 108 139 167 208 262 312
#     4  10  21  36  55  80 109 140 174 217 268 317
#     4  10  18  32  55  79 106 136 169 211 261 317
#     4  10  20  35  55  78 105 140 181 221 261 308
#     4   9  16  28  51  81 106 128 162 212 264 311
#     4  10  20  35  54  76 104 138 175 216 262 310
#
# _framework density 21.718337999999999
#
# number of rings (size 3 to 8) (size 9 to 14) (size 15 to 20)
#    0.000    2.250    2.500    1.125    0.000    3.500 
#    0.000    4.375    0.000    2.250    0.000    0.000 
#    0.000    0.000    0.000    0.000    0.000    0.000 
#
# Total GULP energy -178791.454515 kJ/mol
# GULP energy per Si atom -5587.232954 kJ/mol
# Density = 2.166891 g / cm^3
# Si number density = 21.718338 Si / 1000 Ang^3
#
#
#
# Elastic Constant Matrix: (Units=GPa)
#
#
# Indices 1 2 3 4 5 6 
#
# 1 62.1851 -4.0015 0.9558 0.0000 0.0000 0.0000
# 2 -4.0015 205.1561 92.9734 0.0000 0.0000 0.0000
# 3 0.9558 92.9734 164.3991 0.0000 0.0000 0.0000
# 4 0.0000 0.0000 0.0000 -0.3966 0.0000 0.0000
# 5 0.0000 0.0000 0.0000 0.0000 8.8377 0.0000
# 6 0.0000 0.0000 0.0000 0.0000 0.0000 4.3714
#
#
#
# Elastic Compliance Matrix: (Units=1/GPa)
#
#
# Indices 1 2 3 4 5 6 
#
# 1 0.016118 0.000480 -0.000365 0.000000 0.000000 0.000000
# 2 0.000480 0.006568 -0.003717 0.000000 0.000000 0.000000
# 3 -0.000365 -0.003717 0.008187 0.000000 0.000000 0.000000
# 4 0.000000 0.000000 0.000000 -2.521466 0.000000 0.000000
# 5 0.000000 0.000000 0.000000 0.000000 0.113151 0.000000
# 6 0.000000 0.000000 0.000000 0.000000 0.000000 0.228757
#
#
# Mechanical properties :
#
#
# Convention : Reuss Voigt Hill
#
# Bulk Modulus (GPa) = 42.25159 67.95508 55.10334
# Shear Modulus (GPa) = -2.34347 25.35002 11.50328
#
# Velocity S-wave (km/s) = -1.03989 3.42016 2.30393
# Velocity P-wave (km/s) = 4.24909 6.85229 5.70126
#
# Compressibility (1/GPa) = 0.02366775
#
# Stress axis : x y z
#
# Youngs Moduli (GPa) = 62.04429 152.24463 122.14154
#
# Poissons Ratio (x) = -0.07305 0.04459
# Poissons Ratio (y) = -0.02977 0.45405
# Poissons Ratio (z) = 0.02265 0.56596
#
# Static dielectric constant tensor:
#      x y z
#    x 1.869270 0.000000 0.000000 
#    y 0.000000 1.770720 0.000000 
#    z 0.000000 0.000000 1.744140 
# 
# From -- ./inp_files/25106.got.cif
#   From: 2010.05.17/outbox.cif.g08.bks.cpg/sg44_13_cif.got.tgz:25106.got - 2010.06.03 19:37:08.
