data_PCOD9373505
_publ_section_title
;
Structure prediction by ZEFSAII (Michael W. Deem and Ramdas Pophale) SiO2 
 PCOD9373505
Probable space group: I M M 2
;
_chemical_formula_sum "Si O2"
_cell_formula_units_Z 64
_cell_length_a 7.598768
_cell_length_b 29.858027
_cell_length_c 12.953169
_cell_angle_alpha 90.000000
_cell_angle_beta 90.000000
_cell_angle_gamma 90.000000
_cell_volume 2938.869647
_symmetry_space_group_name_H-M "I M M 2"
_symmetry_group_IT_number 44
_symmetry_cell_setting 'orthorhombic'
loop_
_space_group_symop_operation_xyz
x,y,z
-x,-y,z
-x,y,z
x,-y,z
1/2+x,1/2+y,1/2+z
1/2-x,1/2-y,1/2+z
1/2-x,1/2+y,1/2+z
1/2+x,1/2-y,1/2+z
loop_
_atom_site_type_symbol
_atom_site_label
_atom_site_fract_x
_atom_site_fract_y
_atom_site_fract_z
Si Si1 0.198846 0.680176 0.734040
Si Si2 0.788187 0.547254 0.899135
Si Si3 0.706903 0.417795 0.687003
Si Si4 0.299434 0.305614 0.507527
Si Si5 0.288438 0.881494 0.561333
Si Si6 0.714923 0.594243 0.460864
Si Si7 0.788724 0.050883 0.747428
Si Si8 0.783624 0.292211 0.961072
O O1 0.196000 0.626713 0.724620
O O2 0.299524 0.694889 0.631895
O O3 0.268129 0.692784 0.846049
O O4 0.000000 0.697843 0.725836
O O5 0.730017 0.500000 0.946489
O O6 0.734262 0.548670 0.780165
O O7 0.000000 0.548762 0.902650
O O8 0.721469 0.588955 0.964799
O O9 0.500000 0.406860 0.681061
O O10 0.762920 0.428701 0.570279
O O11 0.500000 0.305631 0.468909
O O12 0.224597 0.353654 0.470870
O O13 0.218203 0.258275 0.476508
O O14 0.500000 0.879548 0.555050
O O15 0.249075 0.910945 0.662322
O O16 0.226966 0.830358 0.543276
O O17 0.500000 0.594933 0.456385
O O18 0.776119 0.568805 0.358823
O O19 0.000000 0.047901 0.753395
O O20 0.723692 0.000000 0.724747
O O21 0.000000 0.291275 0.965040
#
# Coordination Sequence:
#
# PCOD9373505 Si02
#       8
#     8   8   8   8   8   8   8   8
#     4  10  18  33  54  76 106 144 179 218 274 333
#     4  10  20  34  53  77 107 141 175 218 274 333
#     4  10  19  33  55  80 105 138 178 224 274 327
#     4   9  18  34  54  79 107 141 184 230 278 328
#     4  10  20  37  56  76 105 145 184 221 276 336
#     4   8  17  34  54  75 105 142 177 219 278 329
#     4  10  21  37  56  78 107 145 187 233 280 329
#     4   9  18  33  55  77 104 144 183 219 271 338
#
# _framework density 21.777080999999999
#
# number of rings (size 3 to 8) (size 9 to 14) (size 15 to 20)
#    0.000    2.500    1.250    1.875    0.000    3.000 
#    0.000    7.500    0.000    0.000    0.000    0.000 
#    0.000    0.000    0.000    0.000    0.000    0.000 
#
# Total GULP energy -178389.217843 kJ/mol
# GULP energy per Si atom -5574.663058 kJ/mol
# Density = 2.172751 g / cm^3
# Si number density = 21.777081 Si / 1000 Ang^3
#
#
#
# Elastic Constant Matrix: (Units=GPa)
#
#
# Indices 1 2 3 4 5 6 
#
# 1 47.5719 0.3993 -10.7338 0.0000 0.0000 0.0000
# 2 0.3993 63.3346 23.4069 0.0000 0.0000 0.0000
# 3 -10.7338 23.4069 94.5309 0.0001 0.0000 0.0000
# 4 0.0000 0.0000 0.0001 21.5602 0.0000 0.0000
# 5 0.0000 0.0000 0.0000 0.0000 23.6223 0.0000
# 6 0.0000 0.0000 0.0000 0.0000 0.0000 9.4240
#
#
#
# Elastic Compliance Matrix: (Units=1/GPa)
#
#
# Indices 1 2 3 4 5 6 
#
# 1 0.021649 -0.001150 0.002743 0.000000 0.000000 0.000000
# 2 -0.001150 0.017441 -0.004449 0.000000 0.000000 0.000000
# 3 0.002743 -0.004449 0.011992 0.000000 0.000000 0.000000
# 4 0.000000 0.000000 0.000000 0.046382 0.000000 0.000000
# 5 0.000000 0.000000 0.000000 0.000000 0.042333 0.000000
# 6 0.000000 0.000000 0.000000 0.000000 0.000000 0.106112
#
#
# Mechanical properties :
#
#
# Convention : Reuss Voigt Hill
#
# Bulk Modulus (GPa) = 22.04140 25.73134 23.88637
# Shear Modulus (GPa) = 18.74452 23.74562 21.24507
#
# Velocity S-wave (km/s) = 2.93703 3.30570 3.12680
# Velocity P-wave (km/s) = 4.65240 5.13922 4.90186
#
# Compressibility (1/GPa) = 0.04536917
#
# Stress axis : x y z
#
# Youngs Moduli (GPa) = 46.19065 57.33716 83.39123
#
# Poissons Ratio (x) = 0.06595 -0.22875
# Poissons Ratio (y) = 0.05313 0.37102
# Poissons Ratio (z) = -0.12670 0.25510
#
# Static dielectric constant tensor:
#      x y z
#    x 1.831080 0.000000 0.000000 
#    y 0.000000 1.813280 0.000000 
#    z 0.000000 0.000000 1.784040 
# 
# From -- ./inp_files/11539.got.cif
#   From: 2010.05.17/outbox.cif.g08.bks.cpg/sg44_6_cif.got.tgz:11539.got - 2010.06.03 19:37:08.
