data_PCOD9373267
_publ_section_title
;
Structure prediction by ZEFSAII (Michael W. Deem and Ramdas Pophale) SiO2 
 PCOD9373267
Probable space group: I M M 2
;
_chemical_formula_sum "Si O2"
_cell_formula_units_Z 56
_cell_length_a 7.296742
_cell_length_b 15.222076
_cell_length_c 22.669384
_cell_angle_alpha 90.000000
_cell_angle_beta 90.000000
_cell_angle_gamma 90.000000
_cell_volume 2517.923874
_symmetry_space_group_name_H-M "I M M 2"
_symmetry_group_IT_number 44
_symmetry_cell_setting 'orthorhombic'
loop_
_space_group_symop_operation_xyz
x,y,z
-x,-y,z
-x,y,z
x,-y,z
1/2+x,1/2+y,1/2+z
1/2-x,1/2-y,1/2+z
1/2-x,1/2+y,1/2+z
1/2+x,1/2-y,1/2+z
loop_
_atom_site_type_symbol
_atom_site_label
_atom_site_fract_x
_atom_site_fract_y
_atom_site_fract_z
Si Si1 0.223094 0.402414 0.116030
Si Si2 0.222297 0.598991 0.252510
Si Si3 0.780303 0.783800 0.084870
Si Si4 0.222944 0.097537 0.328142
Si Si5 0.724085 0.784536 0.861341
Si Si6 0.716994 0.900750 0.970295
Si Si7 0.222681 0.901127 0.191847
O O1 0.284206 0.500000 0.097694
O O2 0.277035 0.388271 0.184624
O O3 0.284337 0.316770 0.080416
O O4 0.000000 0.404499 0.114947
O O5 0.275739 0.500000 0.270705
O O6 0.281515 0.670639 0.299791
O O7 0.000000 0.601224 0.252235
O O8 0.713346 0.829948 0.144919
O O9 0.000000 0.779661 0.089694
O O10 0.740232 0.845737 0.029871
O O11 0.281984 0.183079 0.363874
O O12 0.277867 0.111120 0.259668
O O13 0.000000 0.096303 0.328754
O O14 0.283049 0.000000 0.346854
O O15 0.500000 0.784518 0.861613
O O16 0.788147 0.844264 0.915332
O O17 0.500000 0.908601 0.960319
O O18 0.790233 0.000000 0.974513
O O19 0.000000 0.898261 0.192125
O O20 0.275252 0.000000 0.173369
#
# Coordination Sequence:
#
# PCOD9373267 Si02
#       7
#     8   8   8   8   8   8   8
#     4   8  14  24  40  66  95 115 137 178 226 263
#     4   8  12  19  35  60  86 109 135 171 216 261
#     4  10  18  29  47  67  88 118 152 181 212 255
#     4   8  13  21  35  58  86 110 133 170 220 264
#     4   9  15  24  38  55  80 114 145 172 210 259
#     4  10  21  34  45  61  88 118 147 182 221 258
#     4   8  13  21  36  62  91 111 132 172 223 263
#
# _framework density 22.240545999999998
#
# number of rings (size 3 to 8) (size 9 to 14) (size 15 to 20)
#    0.000    3.286    0.000    3.429    0.000    6.000 
#    0.000    0.714    0.000    1.286    0.000    4.000 
#    0.000    2.286    0.000    0.000    0.000    0.000 
#
# Total GULP energy -156288.137761 kJ/mol
# GULP energy per Si atom -5581.719206 kJ/mol
# Density = 2.218993 g / cm^3
# Si number density = 22.240546 Si / 1000 Ang^3
#
#
#
# Elastic Constant Matrix: (Units=GPa)
#
#
# Indices 1 2 3 4 5 6 
#
# 1 92.4266 7.6467 -1.0996 0.0000 0.0000 0.0000
# 2 7.6467 249.9220 85.8827 0.0000 0.0000 0.0000
# 3 -1.0996 85.8827 51.2098 0.0000 0.0000 0.0000
# 4 0.0000 0.0000 0.0000 27.3570 0.0000 0.0000
# 5 0.0000 0.0000 0.0000 0.0000 -0.0813 0.0000
# 6 0.0000 0.0000 0.0000 0.0000 0.0000 -6.9583
#
#
#
# Elastic Compliance Matrix: (Units=1/GPa)
#
#
# Indices 1 2 3 4 5 6 
#
# 1 0.010923 -0.000979 0.001876 0.000000 0.000000 0.000000
# 2 -0.000979 0.009531 -0.016006 0.000000 0.000000 0.000000
# 3 0.001876 -0.016006 0.046411 0.000000 0.000000 0.000000
# 4 0.000000 0.000000 0.000000 0.036554 0.000000 0.000000
# 5 0.000000 0.000000 0.000000 0.000000-12.299196 0.000000
# 6 0.000000 0.000000 0.000000 0.000000 0.000000 -0.143714
#
#
# Mechanical properties :
#
#
# Convention : Reuss Voigt Hill
#
# Bulk Modulus (GPa) = 27.28663 64.26866 45.77765
# Shear Modulus (GPa) = -0.40660 24.13872 11.86606
#
# Velocity S-wave (km/s) = -0.42804 3.29804 2.31234
# Velocity P-wave (km/s) = 3.47149 6.59261 5.26848
#
# Compressibility (1/GPa) = 0.03664798
#
# Stress axis : x y z
#
# Youngs Moduli (GPa) = 91.55232 104.91553 21.54659
#
# Poissons Ratio (x) = 0.10271 -0.04043
# Poissons Ratio (y) = 0.08963 0.34488
# Poissons Ratio (z) = -0.17179 1.67928
#
# Static dielectric constant tensor:
#      x y z
#    x 1.955640 0.000000 0.000000 
#    y 0.000000 1.840370 0.000000 
#    z 0.000000 0.000000 1.753720 
# 
# From -- ./inp_files/23035.got.cif
#   From: 2010.05.17/outbox.cif.g08.bks.cpg/sg44_12_cif.got.tgz:23035.got - 2010.06.03 19:37:08.
