data_PCOD9373069
_publ_section_title
;
Structure prediction by ZEFSAII (Michael W. Deem and Ramdas Pophale) SiO2 
 PCOD9373069
Probable space group: I M M 2
;
_chemical_formula_sum "Si O2"
_cell_formula_units_Z 64
_cell_length_a 7.500244
_cell_length_b 24.259747
_cell_length_c 19.865559
_cell_angle_alpha 90.000000
_cell_angle_beta 90.000000
_cell_angle_gamma 90.000000
_cell_volume 3614.618357
_symmetry_space_group_name_H-M "I M M 2"
_symmetry_group_IT_number 44
_symmetry_cell_setting 'orthorhombic'
loop_
_space_group_symop_operation_xyz
x,y,z
-x,-y,z
-x,y,z
x,-y,z
1/2+x,1/2+y,1/2+z
1/2-x,1/2-y,1/2+z
1/2-x,1/2+y,1/2+z
1/2+x,1/2-y,1/2+z
loop_
_atom_site_type_symbol
_atom_site_label
_atom_site_fract_x
_atom_site_fract_y
_atom_site_fract_z
Si Si1 0.281625 0.062534 0.160040
Si Si2 0.218369 0.774091 0.660574
Si Si3 0.705440 0.655834 0.039892
Si Si4 0.285704 0.437677 0.942559
Si Si5 0.214295 0.666277 0.577438
Si Si6 0.790206 0.237631 0.954311
Si Si7 0.217815 0.744263 0.805782
Si Si8 0.786746 0.617333 0.799022
O O1 0.500000 0.062108 0.160117
O O2 0.223557 0.107600 0.105092
O O3 0.223055 0.084600 0.233338
O O4 0.223256 0.000000 0.148412
O O5 0.282594 0.821922 0.610244
O O6 0.272838 0.715662 0.627349
O O7 0.275114 0.775075 0.737947
O O8 0.000000 0.774807 0.658953
O O9 0.500000 0.641428 0.053824
O O10 0.785195 0.605035 0.998496
O O11 0.706707 0.709318 0.991078
O O12 0.500000 0.439233 0.949571
O O13 0.218110 0.500000 0.948705
O O14 0.250882 0.413577 0.868471
O O15 0.264057 0.685419 0.502673
O O16 0.000000 0.665834 0.580407
O O17 0.725484 0.232050 0.877893
O O18 0.000000 0.249930 0.951608
O O19 0.277001 0.680432 0.801744
O O20 0.000000 0.744583 0.804741
O O21 0.000000 0.620839 0.792120
#
# Coordination Sequence:
#
# PCOD9373069 Si02
#       8
#     8   8   8   8   8   8   8   8
#     4   9  16  26  44  67  86 110 150 190 210 232
#     4   8  13  24  42  60  78 103 138 172 208 246
#     4   9  17  29  45  61  79 110 145 175 207 248
#     4  10  20  31  41  59  90 121 145 172 210 254
#     4   9  16  28  44  61  84 112 141 173 209 251
#     4  10  18  27  42  63  87 109 135 173 214 255
#     4   9  15  24  41  64  86 108 134 172 213 248
#     4  10  17  28  44  64  87 113 149 182 205 238
#
# _framework density 17.705881000000002
#
# number of rings (size 3 to 8) (size 9 to 14) (size 15 to 20)
#    0.000    2.750    2.500    1.500    0.000    0.750 
#    0.000    0.625    0.000    7.125    0.000    0.875 
#    0.000    3.000    0.000    0.000    0.000    0.000 
#
# Total GULP energy -178427.392458 kJ/mol
# GULP energy per Si atom -5575.856014 kJ/mol
# Density = 1.766558 g / cm^3
# Si number density = 17.705881 Si / 1000 Ang^3
#
#
#
# Elastic Constant Matrix: (Units=GPa)
#
#
# Indices 1 2 3 4 5 6 
#
# 1 45.6311 -1.1999 -2.6933 0.0000 0.0000 0.0000
# 2 -1.1999 114.7199 88.9853 0.0000 0.0000 0.0000
# 3 -2.6933 88.9853 170.2878 0.0000 0.0000 0.0000
# 4 0.0000 0.0000 0.0000 23.0459 0.0000 0.0000
# 5 0.0000 0.0000 0.0000 0.0000 12.0428 0.0000
# 6 0.0000 0.0000 0.0000 0.0000 0.0000 6.9788
#
#
#
# Elastic Compliance Matrix: (Units=1/GPa)
#
#
# Indices 1 2 3 4 5 6 
#
# 1 0.021936 -0.000067 0.000382 0.000000 0.000000 0.000000
# 2 -0.000067 0.014659 -0.007661 0.000000 0.000000 0.000000
# 3 0.000382 -0.007661 0.009882 0.000000 0.000000 0.000000
# 4 0.000000 0.000000 0.000000 0.043392 0.000000 0.000000
# 5 0.000000 0.000000 0.000000 0.000000 0.083037 0.000000
# 6 0.000000 0.000000 0.000000 0.000000 0.000000 0.143292
#
#
# Mechanical properties :
#
#
# Convention : Reuss Voigt Hill
#
# Bulk Modulus (GPa) = 31.46219 55.64699 43.55459
# Shear Modulus (GPa) = 14.64198 24.78326 19.71262
#
# Velocity S-wave (km/s) = 2.87880 3.74534 3.34029
# Velocity P-wave (km/s) = 5.37196 7.08521 6.28721
#
# Compressibility (1/GPa) = 0.03178418
#
# Stress axis : x y z
#
# Youngs Moduli (GPa) = 45.58786 68.21895 101.19612
#
# Poissons Ratio (x) = 0.00455 -0.03864
# Poissons Ratio (y) = 0.00304 0.77527
# Poissons Ratio (z) = -0.01740 0.52263
#
# Static dielectric constant tensor:
#      x y z
#    x 1.680870 0.000000 0.000000 
#    y 0.000000 1.589020 0.000000 
#    z 0.000000 0.000000 1.613800 
# 
# From -- ./inp_files/20865.got.cif
#   From: 2010.05.17/outbox.cif.g08.bks.cpg/sg44_11_cif.got.tgz:20865.got - 2010.06.03 19:37:08.
