data_PCOD9373136
_publ_section_title
;
Structure prediction by ZEFSAII (Michael W. Deem and Ramdas Pophale) SiO2 
 PCOD9373136
Probable space group: I M M 2
;
_chemical_formula_sum "Si O2"
_cell_formula_units_Z 64
_cell_length_a 8.722270
_cell_length_b 27.164424
_cell_length_c 19.040946
_cell_angle_alpha 90.000000
_cell_angle_beta 90.000000
_cell_angle_gamma 90.000000
_cell_volume 4511.474928
_symmetry_space_group_name_H-M "I M M 2"
_symmetry_group_IT_number 44
_symmetry_cell_setting 'orthorhombic'
loop_
_space_group_symop_operation_xyz
x,y,z
-x,-y,z
-x,y,z
x,-y,z
1/2+x,1/2+y,1/2+z
1/2-x,1/2-y,1/2+z
1/2-x,1/2+y,1/2+z
1/2+x,1/2-y,1/2+z
loop_
_atom_site_type_symbol
_atom_site_label
_atom_site_fract_x
_atom_site_fract_y
_atom_site_fract_z
Si Si1 0.823466 0.302879 0.763970
Si Si2 0.816634 0.942948 0.645586
Si Si3 0.823534 0.200697 0.852975
Si Si4 0.186398 0.352575 0.898196
Si Si5 0.313553 0.259040 0.139304
Si Si6 0.183722 0.757577 0.476761
Si Si7 0.684593 0.056419 0.491796
Si Si8 0.182325 0.351493 0.223980
O O1 0.823102 0.252231 0.809271
O O2 0.756939 0.342439 0.818544
O O3 0.757006 0.285541 0.689585
O O4 0.000000 0.317314 0.750763
O O5 0.760268 0.931462 0.566556
O O6 0.742245 0.904086 0.698109
O O7 0.000000 0.938716 0.648484
O O8 0.774290 0.000000 0.659739
O O9 0.745264 0.214283 0.926465
O O10 0.739186 0.162603 0.801997
O O11 0.000000 0.186432 0.862968
O O12 0.248399 0.308504 0.946625
O O13 0.000000 0.349084 0.897104
O O14 0.229498 0.404236 0.932889
O O15 0.500000 0.261060 0.144668
O O16 0.250139 0.309731 0.171678
O O17 0.272364 0.252441 0.058225
O O18 0.000000 0.759356 0.471957
O O19 0.500000 0.059105 0.500247
O O20 0.724487 0.000000 0.473931
O O21 0.000000 0.349489 0.220947
#
# Coordination Sequence:
#
# PCOD9373136 Si02
#       8
#     8   8   8   8   8   8   8   8
#     4   7  12  24  39  53  71 100 134 162 193 238
#     4  10  20  32  44  58  79 109 142 172 205 247
#     4   9  17  30  44  57  79 108 135 165 204 248
#     4   9  16  26  40  55  75 108 141 166 204 253
#     4   9  17  28  41  58  83 112 140 171 206 245
#     4  10  18  26  39  60  82 104 136 174 205 238
#     4   9  17  28  41  59  82 106 138 181 218 245
#     4  11  20  29  44  63  83 108 140 174 207 244
#
# _framework density 14.186047
#
# number of rings (size 3 to 8) (size 9 to 14) (size 15 to 20)
#    0.000    2.750    0.000    4.500    0.000    4.250 
#    0.000    0.000    0.000    0.000    0.000    0.000 
#    0.000    1.000    0.000    7.000    0.000    0.625 
#
# Total GULP energy -178189.078252 kJ/mol
# GULP energy per Si atom -5568.408695 kJ/mol
# Density = 1.415376 g / cm^3
# Si number density = 14.186047 Si / 1000 Ang^3
#
#
#
# Elastic Constant Matrix: (Units=GPa)
#
#
# Indices 1 2 3 4 5 6 
#
# 1 33.1832 23.9157 29.1944 0.0000 0.0000 0.0000
# 2 23.9157 73.6423 52.9920 0.0000 0.0000 0.0000
# 3 29.1944 52.9920 112.2088 0.0000 0.0000 0.0000
# 4 0.0000 0.0000 0.0000 27.7604 0.0000 0.0000
# 5 0.0000 0.0000 0.0000 0.0000 18.6132 0.0000
# 6 0.0000 0.0000 0.0000 0.0000 0.0000 15.7796
#
#
#
# Elastic Compliance Matrix: (Units=1/GPa)
#
#
# Indices 1 2 3 4 5 6 
#
# 1 0.042594 -0.008874 -0.006891 0.000000 0.000000 0.000000
# 2 -0.008874 0.022418 -0.008278 0.000000 0.000000 0.000000
# 3 -0.006891 -0.008278 0.014615 0.000000 0.000000 0.000000
# 4 0.000000 0.000000 0.000000 0.036023 0.000000 0.000000
# 5 0.000000 0.000000 0.000000 0.000000 0.053725 0.000000
# 6 0.000000 0.000000 0.000000 0.000000 0.000000 0.063373
#
#
# Mechanical properties :
#
#
# Convention : Reuss Voigt Hill
#
# Bulk Modulus (GPa) = 31.70617 47.91540 39.81079
# Shear Modulus (GPa) = 17.16163 19.95946 18.56055
#
# Velocity S-wave (km/s) = 3.48193 3.75504 3.62106
# Velocity P-wave (km/s) = 6.20998 7.25604 6.75330
#
# Compressibility (1/GPa) = 0.03153960
#
# Stress axis : x y z
#
# Youngs Moduli (GPa) = 23.47742 44.60700 68.42509
#
# Poissons Ratio (x) = 0.39583 0.47154
# Poissons Ratio (y) = 0.20833 0.56645
# Poissons Ratio (z) = 0.16179 0.36928
#
# Static dielectric constant tensor:
#      x y z
#    x 1.482750 0.000000 0.000000 
#    y 0.000000 1.458760 0.000000 
#    z 0.000000 0.000000 1.479920 
# 
# From -- ./inp_files/20910.got.cif
#   From: 2010.05.17/outbox.cif.g08.bks.cpg/sg44_11_cif.got.tgz:20910.got - 2010.06.03 19:37:08.
