data_PCOD9373990
_publ_section_title
;
Structure prediction by ZEFSAII (Michael W. Deem and Ramdas Pophale) SiO2 
 PCOD9373990
Probable space group: I M M 2
;
_chemical_formula_sum "Si O2"
_cell_formula_units_Z 64
_cell_length_a 29.155186
_cell_length_b 8.828551
_cell_length_c 12.850913
_cell_angle_alpha 90.000000
_cell_angle_beta 90.000000
_cell_angle_gamma 90.000000
_cell_volume 3307.799902
_symmetry_space_group_name_H-M "I M M 2"
_symmetry_group_IT_number 44
_symmetry_cell_setting 'orthorhombic'
loop_
_space_group_symop_operation_xyz
x,y,z
-x,-y,z
-x,y,z
x,-y,z
1/2+x,1/2+y,1/2+z
1/2-x,1/2-y,1/2+z
1/2-x,1/2+y,1/2+z
1/2+x,1/2-y,1/2+z
loop_
_atom_site_type_symbol
_atom_site_label
_atom_site_fract_x
_atom_site_fract_y
_atom_site_fract_z
Si Si1 0.049942 0.678770 0.123550
Si Si2 0.447296 0.684640 0.969465
Si Si3 0.402863 0.317003 0.188701
Si Si4 0.072775 0.176135 0.914674
Si Si5 0.696214 0.824593 0.234778
Si Si6 0.665572 0.825671 0.462441
Si Si7 0.207357 0.678275 0.189437
Si Si8 0.380726 0.319235 0.782115
O O1 0.057750 0.500000 0.134406
O O2 0.089488 0.767949 0.182638
O O3 0.000000 0.717092 0.169244
O O4 0.049184 0.724728 0.002825
O O5 0.500000 0.735243 0.952279
O O6 0.448057 0.500000 0.966566
O O7 0.428703 0.728671 0.083453
O O8 0.410741 0.733549 0.881584
O O9 0.398839 0.500000 0.189532
O O10 0.430684 0.276295 0.294099
O O11 0.351769 0.248732 0.197733
O O12 0.126102 0.204080 0.942051
O O13 0.060032 0.000000 0.924902
O O14 0.696980 0.818262 0.360709
O O15 0.741857 0.743895 0.196779
O O16 0.696243 0.000000 0.203455
O O17 0.689671 0.798746 0.571535
O O18 0.646559 0.000000 0.464689
O O19 0.208193 0.500000 0.210119
O O20 0.170018 0.752911 0.266408
O O21 0.377536 0.500000 0.785963
#
# Coordination Sequence:
#
# PCOD9373990 Si02
#       8
#     8   8   8   8   8   8   8   8
#     4  11  23  37  54  79 114 152 186 228 288 350
#     4   9  19  37  61  87 119 160 201 246 301 359
#     4   9  19  37  60  86 117 153 194 241 295 352
#     4  10  19  32  56  85 110 140 184 237 285 337
#     4  10  21  37  57  84 115 152 197 246 295 347
#     4   9  19  36  56  75 107 150 185 227 289 352
#     4  11  22  37  58  83 114 154 196 241 298 359
#     4  11  22  37  59  86 114 149 198 250 294 347
#
# _framework density 19.348208
#
# number of rings (size 3 to 8) (size 9 to 14) (size 15 to 20)
#    0.000    2.000    1.250    2.250    0.000    4.500 
#    0.000    7.500    0.000    1.875    0.000    0.000 
#    0.000    0.000    0.000    0.000    0.000    0.000 
#
# Total GULP energy -178549.636410 kJ/mol
# GULP energy per Si atom -5579.676138 kJ/mol
# Density = 1.930417 g / cm^3
# Si number density = 19.348208 Si / 1000 Ang^3
#
#
#
# Elastic Constant Matrix: (Units=GPa)
#
#
# Indices 1 2 3 4 5 6 
#
# 1 58.7663 12.1819 19.8552 0.0000 0.0000 0.0000
# 2 12.1819 32.2662 12.8816 0.0000 0.0000 0.0000
# 3 19.8552 12.8816 91.1677 0.0000 0.0000 0.0000
# 4 0.0000 0.0000 0.0000 18.0953 0.0000 0.0000
# 5 0.0000 0.0000 0.0000 0.0000 18.6816 0.0000
# 6 0.0000 0.0000 0.0000 0.0000 0.0000 15.0769
#
#
#
# Elastic Compliance Matrix: (Units=1/GPa)
#
#
# Indices 1 2 3 4 5 6 
#
# 1 0.019397 -0.005974 -0.003380 0.000000 0.000000 0.000000
# 2 -0.005974 0.034685 -0.003600 0.000000 0.000000 0.000000
# 3 -0.003380 -0.003600 0.012214 0.000000 0.000000 0.000000
# 4 0.000000 0.000000 0.000000 0.055263 0.000000 0.000000
# 5 0.000000 0.000000 0.000000 0.000000 0.053528 0.000000
# 6 0.000000 0.000000 0.000000 0.000000 0.000000 0.066327
#
#
# Mechanical properties :
#
#
# Convention : Reuss Voigt Hill
#
# Bulk Modulus (GPa) = 24.76005 30.22639 27.49322
# Shear Modulus (GPa) = 17.80730 19.52286 18.66508
#
# Velocity S-wave (km/s) = 3.03703 3.17996 3.10932
# Velocity P-wave (km/s) = 5.01228 5.39807 5.20875
#
# Compressibility (1/GPa) = 0.04038764
#
# Stress axis : x y z
#
# Youngs Moduli (GPa) = 51.55440 28.83118 81.87574
#
# Poissons Ratio (x) = 0.17223 0.27677
# Poissons Ratio (y) = 0.30797 0.29473
# Poissons Ratio (z) = 0.17427 0.10379
#
# Static dielectric constant tensor:
#      x y z
#    x 1.681170 0.000000 0.000000 
#    y 0.000000 1.655070 0.000000 
#    z 0.000000 0.000000 1.688950 
# 
# From -- ./inp_files/15105.got.cif
#   From: 2010.05.17/outbox.cif.g08.bks.cpg/sg44_8_cif.got.tgz:15105.got - 2010.06.03 19:37:08.
