data_PCOD9373992
_publ_section_title
;
Structure prediction by ZEFSAII (Michael W. Deem and Ramdas Pophale) SiO2 
 PCOD9373992
Probable space group: I M M 2
;
_chemical_formula_sum "Si O2"
_cell_formula_units_Z 58
_cell_length_a 17.345672
_cell_length_b 17.798997
_cell_length_c 9.654675
_cell_angle_alpha 90.000000
_cell_angle_beta 90.000000
_cell_angle_gamma 90.000000
_cell_volume 2980.741530
_symmetry_space_group_name_H-M "I M M 2"
_symmetry_group_IT_number 44
_symmetry_cell_setting 'orthorhombic'
loop_
_space_group_symop_operation_xyz
x,y,z
-x,-y,z
-x,y,z
x,-y,z
1/2+x,1/2+y,1/2+z
1/2-x,1/2-y,1/2+z
1/2-x,1/2+y,1/2+z
1/2+x,1/2-y,1/2+z
loop_
_atom_site_type_symbol
_atom_site_label
_atom_site_fract_x
_atom_site_fract_y
_atom_site_fract_z
Si Si1 0.178947 0.745081 0.789080
Si Si2 0.412266 0.122025 0.638526
Si Si3 0.908884 0.746797 0.536636
Si Si4 0.000000 0.000000 0.365670
Si Si5 0.311990 0.920009 0.386462
Si Si6 0.091183 0.582344 0.459854
Si Si7 0.861727 0.120131 0.339527
Si Si8 0.830708 0.224706 0.107643
O O1 0.111469 0.774768 0.690640
O O2 0.162506 0.656592 0.813595
O O3 0.255529 0.751330 0.694798
O O4 0.185263 0.778932 0.943092
O O5 0.500000 0.107065 0.592133
O O6 0.350065 0.085541 0.537291
O O7 0.404305 0.092597 0.794068
O O8 0.394927 0.211161 0.632029
O O9 0.877955 0.661379 0.518506
O O10 0.872360 0.803445 0.427116
O O11 0.000000 0.745311 0.512618
O O12 0.067738 0.934677 0.363475
O O13 0.219658 0.914332 0.386219
O O14 0.335293 0.000000 0.323613
O O15 0.124150 0.500000 0.496644
O O16 0.000000 0.580494 0.496369
O O17 0.855061 0.147148 0.179913
#
# Coordination Sequence:
#
# PCOD9373992 Si02
#       8
#     8   8   8   2   8   8   8   8
#     4  10  22  38  60  90 121 167 213 259 322 383
#     4  10  19  32  57  90 125 168 210 254 310 371
#     4  11  21  37  60  88 126 169 211 264 316 381
#     4  12  24  40  76 106 116 168 220 274 316 396
#     4  10  21  37  57  87 130 164 204 271 316 374
#     4   9  18  31  51  84 124 162 205 253 305 366
#     4  11  22  42  67  96 123 164 218 265 331 382
#     4  10  21  38  62  90 125 161 210 269 312 391
#
# _framework density 19.458244000000001
#
# number of rings (size 3 to 8) (size 9 to 14) (size 15 to 20)
#    0.000    1.793    2.759    2.897    0.966    3.586 
#    0.000    0.000    0.000    1.655    1.793    0.000 
#    0.000    0.000    0.000    0.000    0.000    0.000 
#
# Total GULP energy -161468.674263 kJ/mol
# GULP energy per Si atom -5567.885319 kJ/mol
# Density = 1.941396 g / cm^3
# Si number density = 19.458244 Si / 1000 Ang^3
#
#
#
# Elastic Constant Matrix: (Units=GPa)
#
#
# Indices 1 2 3 4 5 6 
#
# 1 26.5339 21.6989 22.3858 0.0000 0.0000 0.0000
# 2 21.6989 89.6840 40.0951 0.0000 0.0000 0.0000
# 3 22.3858 40.0951 117.3376 0.0000 0.0000 0.0000
# 4 0.0000 0.0000 0.0000 -2.7231 0.0000 0.0000
# 5 0.0000 0.0000 0.0000 0.0000 17.0241 0.0000
# 6 0.0000 0.0000 0.0000 0.0000 0.0000 25.8441
#
#
#
# Elastic Compliance Matrix: (Units=1/GPa)
#
#
# Indices 1 2 3 4 5 6 
#
# 1 0.050851 -0.009403 -0.006488 0.000000 0.000000 0.000000
# 2 -0.009403 0.014899 -0.003297 0.000000 0.000000 0.000000
# 3 -0.006488 -0.003297 0.010887 0.000000 0.000000 0.000000
# 4 0.000000 0.000000 0.000000 -0.367224 0.000000 0.000000
# 5 0.000000 0.000000 0.000000 0.000000 0.058740 0.000000
# 6 0.000000 0.000000 0.000000 0.000000 0.000000 0.038693
#
#
# Mechanical properties :
#
#
# Convention : Reuss Voigt Hill
#
# Bulk Modulus (GPa) = 26.13657 44.65725 35.39691
# Shear Modulus (GPa) = -35.20575 17.98741 -8.60917
#
# Velocity S-wave (km/s) = -4.25820 3.04371 -2.10572
# Velocity P-wave (km/s) = 3.27338 5.94578 3.50979
#
# Compressibility (1/GPa) = 0.03826056
#
# Stress axis : x y z
#
# Youngs Moduli (GPa) = 19.66531 67.11702 91.85233
#
# Poissons Ratio (x) = 0.63107 0.59598
# Poissons Ratio (y) = 0.18490 0.30287
# Poissons Ratio (z) = 0.12760 0.22131
#
# Static dielectric constant tensor:
#      x y z
#    x 1.683510 0.000000 0.000000 
#    y 0.000000 1.717010 0.000000 
#    z 0.000000 0.000000 1.689320 
# 
# From -- ./inp_files/8314.got.cif
#   From: 2010.05.17/outbox.cif.g08.bks.cpg/sg44_5_cif.got.tgz:8314.got - 2010.06.03 19:37:08.
