data_PCOD9373061
_publ_section_title
;
Structure prediction by ZEFSAII (Michael W. Deem and Ramdas Pophale) SiO2 
 PCOD9373061
Probable space group: I M M 2
;
_chemical_formula_sum "Si O2"
_cell_formula_units_Z 64
_cell_length_a 7.847722
_cell_length_b 19.450271
_cell_length_c 22.453407
_cell_angle_alpha 90.000000
_cell_angle_beta 90.000000
_cell_angle_gamma 90.000000
_cell_volume 3427.295221
_symmetry_space_group_name_H-M "I M M 2"
_symmetry_group_IT_number 44
_symmetry_cell_setting 'orthorhombic'
loop_
_space_group_symop_operation_xyz
x,y,z
-x,-y,z
-x,y,z
x,-y,z
1/2+x,1/2+y,1/2+z
1/2-x,1/2-y,1/2+z
1/2-x,1/2+y,1/2+z
1/2+x,1/2-y,1/2+z
loop_
_atom_site_type_symbol
_atom_site_label
_atom_site_fract_x
_atom_site_fract_y
_atom_site_fract_z
Si Si1 0.708500 0.575758 0.525520
Si Si2 0.188880 0.682482 0.880129
Si Si3 0.796788 0.128120 0.153089
Si Si4 0.796068 0.923141 0.279992
Si Si5 0.295329 0.574900 0.112144
Si Si6 0.796085 0.775015 0.606382
Si Si7 0.697998 0.577451 0.970229
Si Si8 0.793470 0.219456 0.975972
O O1 0.500000 0.576777 0.525838
O O2 0.762793 0.500000 0.506211
O O3 0.766352 0.590599 0.593320
O O4 0.763261 0.641191 0.486875
O O5 0.264330 0.637714 0.826882
O O6 0.185466 0.628497 0.934629
O O7 0.272827 0.746659 0.914820
O O8 0.000000 0.703091 0.860936
O O9 0.728256 0.098934 0.215011
O O10 0.766473 0.209141 0.143043
O O11 0.000000 0.117207 0.153975
O O12 0.000000 0.928439 0.275950
O O13 0.732234 0.000000 0.296402
O O14 0.500000 0.574037 0.122970
O O15 0.228805 0.500000 0.133529
O O16 0.230294 0.650763 0.129499
O O17 0.272728 0.575810 0.040580
O O18 0.752306 0.760630 0.536709
O O19 0.000000 0.776849 0.609688
O O20 0.500000 0.597683 0.960562
O O21 0.718006 0.500000 0.947542
O O22 0.000000 0.220594 0.972828
#
# Coordination Sequence:
#
# PCOD9373061 Si02
#       8
#     8   8   8   8   8   8   8   8
#     4   8  13  25  48  71  87 109 144 185 227 271
#     4  11  21  30  42  63  95 126 152 191 240 276
#     4   9  18  32  49  68  92 118 150 194 238 278
#     4  10  21  36  52  68  88 124 171 203 224 266
#     4   8  14  24  39  61  88 117 150 185 217 256
#     4  10  17  27  47  70  91 119 154 190 231 276
#     4   9  16  27  42  58  81 118 159 189 213 256
#     4   9  18  30  43  64  94 123 150 185 232 283
#
# _framework density 18.673617
#
# number of rings (size 3 to 8) (size 9 to 14) (size 15 to 20)
#    0.000    2.750    1.250    3.000    0.000    4.500 
#    0.000    0.000    0.000   10.500    0.000    0.875 
#    0.000    5.000    0.000    0.000    0.000    0.125 
#
# Total GULP energy -178158.007730 kJ/mol
# GULP energy per Si atom -5567.437742 kJ/mol
# Density = 1.863111 g / cm^3
# Si number density = 18.673617 Si / 1000 Ang^3
#
#
#
# Elastic Constant Matrix: (Units=GPa)
#
#
# Indices 1 2 3 4 5 6 
#
# 1 14.5465 -3.3250 7.8592 0.0000 0.0000 0.0000
# 2 -3.3250 137.3618 46.9924 0.0000 0.0000 0.0000
# 3 7.8592 46.9924 70.9717 0.0000 0.0000 0.0000
# 4 0.0000 0.0000 0.0000 -11.7649 0.0000 0.0000
# 5 0.0000 0.0000 0.0000 0.0000 9.6024 0.0000
# 6 0.0000 0.0000 0.0000 0.0000 0.0000 15.8480
#
#
#
# Elastic Compliance Matrix: (Units=1/GPa)
#
#
# Indices 1 2 3 4 5 6 
#
# 1 0.076973 0.006179 -0.012615 0.000000 0.000000 0.000000
# 2 0.006179 0.009908 -0.007245 0.000000 0.000000 0.000000
# 3 -0.012615 -0.007245 0.020284 0.000000 0.000000 0.000000
# 4 0.000000 0.000000 0.000000 -0.084999 0.000000 0.000000
# 5 0.000000 0.000000 0.000000 0.000000 0.104140 0.000000
# 6 0.000000 0.000000 0.000000 0.000000 0.000000 0.063099
#
#
# Mechanical properties :
#
#
# Convention : Reuss Voigt Hill
#
# Bulk Modulus (GPa) = 12.53077 36.21482 24.37279
# Shear Modulus (GPa) = 20.54495 14.16067 17.35281
#
# Velocity S-wave (km/s) = 3.32054 2.75676 3.05170
# Velocity P-wave (km/s) = 4.62886 5.43770 5.04950
#
# Compressibility (1/GPa) = 0.07980354
#
# Stress axis : x y z
#
# Youngs Moduli (GPa) = 12.99155 100.92807 49.30008
#
# Poissons Ratio (x) = -0.62362 0.62192
# Poissons Ratio (y) = -0.08027 0.35716
# Poissons Ratio (z) = 0.16389 0.73119
#
# Static dielectric constant tensor:
#      x y z
#    x 1.684760 0.000000 0.000000 
#    y 0.000000 1.762930 0.000000 
#    z 0.000000 0.000000 1.632910 
# 
# From -- ./inp_files/25254.got.cif
#   From: 2010.05.17/outbox.cif.g08.bks.cpg/sg44_13_cif.got.tgz:25254.got - 2010.06.03 19:37:08.
