data_PCOD9373669
_publ_section_title
;
Structure prediction by ZEFSAII (Michael W. Deem and Ramdas Pophale) SiO2 
 PCOD9373669
Probable space group: I M M 2
;
_chemical_formula_sum "Si O2"
_cell_formula_units_Z 56
_cell_length_a 14.089864
_cell_length_b 8.846757
_cell_length_c 29.971279
_cell_angle_alpha 90.000000
_cell_angle_beta 90.000000
_cell_angle_gamma 90.000000
_cell_volume 3735.908028
_symmetry_space_group_name_H-M "I M M 2"
_symmetry_group_IT_number 44
_symmetry_cell_setting 'orthorhombic'
loop_
_space_group_symop_operation_xyz
x,y,z
-x,-y,z
-x,y,z
x,-y,z
1/2+x,1/2+y,1/2+z
1/2-x,1/2-y,1/2+z
1/2-x,1/2+y,1/2+z
1/2+x,1/2-y,1/2+z
loop_
_atom_site_type_symbol
_atom_site_label
_atom_site_fract_x
_atom_site_fract_y
_atom_site_fract_z
Si Si1 0.615192 0.825889 0.987490
Si Si2 0.609500 0.181109 0.260749
Si Si3 0.606166 0.183302 0.719552
Si Si4 0.388465 0.318411 0.080393
Si Si5 0.785190 0.318592 0.309610
Si Si6 0.888421 0.819502 0.394089
Si Si7 0.703421 0.316758 0.173453
O O1 0.500000 0.820311 0.988625
O O2 0.642871 0.735911 0.943082
O O3 0.644135 0.000000 0.983901
O O4 0.646434 0.754975 0.034400
O O5 0.500000 0.218585 0.270248
O O6 0.683409 0.251701 0.295787
O O7 0.639022 0.246613 0.212420
O O8 0.619768 0.000000 0.260287
O O9 0.500000 0.240424 0.711340
O O10 0.644195 0.224579 0.768763
O O11 0.688433 0.228354 0.685013
O O12 0.720095 0.000000 0.810920
O O13 0.500000 0.280096 0.086651
O O14 0.382659 0.500000 0.076115
O O15 0.331620 0.272042 0.124528
O O16 0.897256 0.500000 0.218462
O O17 0.826923 0.255442 0.355326
O O18 0.000000 0.776839 0.388383
O O19 0.882098 0.000000 0.391524
O O20 0.696741 0.500000 0.176757
#
# Coordination Sequence:
#
# PCOD9373669 Si02
#       7
#     8   8   8   8   8   8   8
#     4   9  17  28  42  61  85 113 145 179 217 264
#     4  10  20  32  45  63  89 118 148 185 225 264
#     4   8  14  25  41  62  87 113 143 179 213 247
#     4   9  16  26  40  59  85 114 143 178 220 265
#     4  10  19  30  46  66  88 117 152 185 218 260
#     4  10  19  30  45  66  93 121 146 177 220 266
#     4   9  17  28  44  65  87 116 151 182 218 265
#
# _framework density 14.989663
#
# number of rings (size 3 to 8) (size 9 to 14) (size 15 to 20)
#    0.000    2.714    0.000    3.429    0.000    5.429 
#    0.000    1.429    0.000    3.857    0.000    1.000 
#    0.000    5.714    0.000    0.000    0.000    0.000 
#
# Total GULP energy -156029.765124 kJ/mol
# GULP energy per Si atom -5572.491612 kJ/mol
# Density = 1.495555 g / cm^3
# Si number density = 14.989663 Si / 1000 Ang^3
#
#
#
# Elastic Constant Matrix: (Units=GPa)
#
#
# Indices 1 2 3 4 5 6 
#
# 1 99.6909 37.1552 68.8023 0.0000 0.0000 0.0000
# 2 37.1552 40.7693 46.1214 0.0000 0.0000 0.0000
# 3 68.8023 46.1214 143.8732 0.0000 0.0000 0.0000
# 4 0.0000 0.0000 0.0000 27.0371 0.0000 0.0000
# 5 0.0000 0.0000 0.0000 0.0000 23.9022 0.0000
# 6 0.0000 0.0000 0.0000 0.0000 0.0000 16.0975
#
#
#
# Elastic Compliance Matrix: (Units=1/GPa)
#
#
# Indices 1 2 3 4 5 6 
#
# 1 0.017237 -0.010016 -0.005032 0.000000 0.000000 0.000000
# 2 -0.010016 0.044305 -0.009413 0.000000 0.000000 0.000000
# 3 -0.005032 -0.009413 0.012375 0.000000 0.000000 0.000000
# 4 0.000000 0.000000 0.000000 0.036986 0.000000 0.000000
# 5 0.000000 0.000000 0.000000 0.000000 0.041837 0.000000
# 6 0.000000 0.000000 0.000000 0.000000 0.000000 0.062121
#
#
# Mechanical properties :
#
#
# Convention : Reuss Voigt Hill
#
# Bulk Modulus (GPa) = 40.00946 65.38793 52.69870
# Shear Modulus (GPa) = 18.37452 22.22433 20.29942
#
# Velocity S-wave (km/s) = 3.50496 3.85469 3.68398
# Velocity P-wave (km/s) = 6.56726 7.97046 7.30264
#
# Compressibility (1/GPa) = 0.02499409
#
# Stress axis : x y z
#
# Youngs Moduli (GPa) = 58.01454 22.57061 80.81132
#
# Poissons Ratio (x) = 0.22608 0.40665
# Poissons Ratio (y) = 0.58109 0.76068
# Poissons Ratio (z) = 0.29193 0.21246
#
# Static dielectric constant tensor:
#      x y z
#    x 1.490300 0.000000 0.000000 
#    y 0.000000 1.501620 0.000000 
#    z 0.000000 0.000000 1.481700 
# 
# From -- ./inp_files/27236.got.cif
#   From: 2010.05.17/outbox.cif.g08.bks.cpg/sg44_14_cif.got.tgz:27236.got - 2010.06.03 19:37:08.
