data_PCOD9373035
_publ_section_title
;
Structure prediction by ZEFSAII (Michael W. Deem and Ramdas Pophale) SiO2 
 PCOD9373035
Probable space group: I M M 2
;
_chemical_formula_sum "Si O2"
_cell_formula_units_Z 56
_cell_length_a 8.990002
_cell_length_b 23.268073
_cell_length_c 18.097332
_cell_angle_alpha 90.000000
_cell_angle_beta 90.000000
_cell_angle_gamma 90.000000
_cell_volume 3785.600320
_symmetry_space_group_name_H-M "I M M 2"
_symmetry_group_IT_number 44
_symmetry_cell_setting 'orthorhombic'
loop_
_space_group_symop_operation_xyz
x,y,z
-x,-y,z
-x,y,z
x,-y,z
1/2+x,1/2+y,1/2+z
1/2-x,1/2-y,1/2+z
1/2-x,1/2+y,1/2+z
1/2+x,1/2-y,1/2+z
loop_
_atom_site_type_symbol
_atom_site_label
_atom_site_fract_x
_atom_site_fract_y
_atom_site_fract_z
Si Si1 0.671543 0.316134 0.142020
Si Si2 0.676076 0.719669 0.439378
Si Si3 0.819855 0.345176 0.741691
Si Si4 0.678269 0.150662 0.495723
Si Si5 0.318938 0.065527 0.366484
Si Si6 0.177258 0.723368 0.285523
Si Si7 0.328687 0.815872 0.083034
O O1 0.500000 0.331637 0.153997
O O2 0.761017 0.315369 0.218433
O O3 0.675040 0.249835 0.113367
O O4 0.743989 0.351410 0.075168
O O5 0.500000 0.714727 0.427772
O O6 0.708605 0.786760 0.459273
O O7 0.762929 0.704223 0.365157
O O8 0.728509 0.683543 0.510480
O O9 0.777846 0.398067 0.793891
O O10 0.743812 0.287225 0.771398
O O11 0.782457 0.352155 0.655055
O O12 0.000000 0.336976 0.745814
O O13 0.500000 0.147307 0.505471
O O14 0.727293 0.101669 0.438580
O O15 0.500000 0.064543 0.367753
O O16 0.266234 0.000000 0.366031
O O17 0.000000 0.725377 0.283779
O O18 0.500000 0.829017 0.064002
#
# Coordination Sequence:
#
# PCOD9373035 Si02
#       7
#     8   8   8   8   8   8   8
#     4   9  17  28  41  57  80 109 140 172 211 256
#     4  10  17  26  40  58  83 111 140 172 208 252
#     4   9  16  29  43  58  82 112 144 179 214 247
#     4   9  16  27  42  59  82 111 145 180 212 247
#     4   9  16  27  45  66  86 113 150 186 216 246
#     4  11  19  26  40  61  84 110 141 172 209 256
#     4   8  15  25  38  56  79 106 138 172 207 250
#
# _framework density 14.792897
#
# number of rings (size 3 to 8) (size 9 to 14) (size 15 to 20)
#    0.000    2.714    1.429    3.000    0.000    4.000 
#    0.000    0.000    0.000    1.714    0.000    0.000 
#    0.000    1.143    0.000    9.714    0.000    2.714 
#
# Total GULP energy -155943.144660 kJ/mol
# GULP energy per Si atom -5569.398024 kJ/mol
# Density = 1.475923 g / cm^3
# Si number density = 14.792897 Si / 1000 Ang^3
#
#
#
# Elastic Constant Matrix: (Units=GPa)
#
#
# Indices 1 2 3 4 5 6 
#
# 1 53.7906 15.5456 59.5452 0.0000 0.0000 0.0000
# 2 15.5456 52.8866 48.8893 0.0000 0.0000 0.0000
# 3 59.5452 48.8893 151.6393 0.0000 0.0000 0.0000
# 4 0.0000 0.0000 0.0000 13.0326 0.0000 0.0000
# 5 0.0000 0.0000 0.0000 0.0000 27.3619 0.0000
# 6 0.0000 0.0000 0.0000 0.0000 0.0000 8.1904
#
#
#
# Elastic Compliance Matrix: (Units=1/GPa)
#
#
# Indices 1 2 3 4 5 6 
#
# 1 0.033279 0.003274 -0.014123 0.000000 0.000000 0.000000
# 2 0.003274 0.027258 -0.010074 0.000000 0.000000 0.000000
# 3 -0.014123 -0.010074 0.015388 0.000000 0.000000 0.000000
# 4 0.000000 0.000000 0.000000 0.076731 0.000000 0.000000
# 5 0.000000 0.000000 0.000000 0.000000 0.036547 0.000000
# 6 0.000000 0.000000 0.000000 0.000000 0.000000 0.122094
#
#
# Mechanical properties :
#
#
# Convention : Reuss Voigt Hill
#
# Bulk Modulus (GPa) = 29.34370 56.25298 42.79834
# Shear Modulus (GPa) = 13.71727 18.67272 16.19500
#
# Velocity S-wave (km/s) = 3.04844 3.55671 3.31234
# Velocity P-wave (km/s) = 5.68068 7.41461 6.60479
#
# Compressibility (1/GPa) = 0.03407887
#
# Stress axis : x y z
#
# Youngs Moduli (GPa) = 30.04929 36.68581 64.98439
#
# Poissons Ratio (x) = -0.12010 0.91779
# Poissons Ratio (y) = -0.09837 0.65464
# Poissons Ratio (z) = 0.42439 0.36957
#
# Static dielectric constant tensor:
#      x y z
#    x 1.493150 0.000000 0.000000 
#    y 0.000000 1.462000 0.000000 
#    z 0.000000 0.000000 1.511260 
# 
# From -- ./inp_files/20658.got.cif
#   From: 2010.05.17/outbox.cif.g08.bks.cpg/sg44_11_cif.got.tgz:20658.got - 2010.06.03 19:37:08.
