data_PCOD9373581
_publ_section_title
;
Structure prediction by ZEFSAII (Michael W. Deem and Ramdas Pophale) SiO2 
 PCOD9373581
Probable space group: I M M 2
;
_chemical_formula_sum "Si O2"
_cell_formula_units_Z 64
_cell_length_a 8.930965
_cell_length_b 35.404453
_cell_length_c 13.854406
_cell_angle_alpha 90.000000
_cell_angle_beta 90.000000
_cell_angle_gamma 90.000000
_cell_volume 4380.706798
_symmetry_space_group_name_H-M "I M M 2"
_symmetry_group_IT_number 44
_symmetry_cell_setting 'orthorhombic'
loop_
_space_group_symop_operation_xyz
x,y,z
-x,-y,z
-x,y,z
x,-y,z
1/2+x,1/2+y,1/2+z
1/2-x,1/2-y,1/2+z
1/2-x,1/2+y,1/2+z
1/2+x,1/2-y,1/2+z
loop_
_atom_site_type_symbol
_atom_site_label
_atom_site_fract_x
_atom_site_fract_y
_atom_site_fract_z
Si Si1 0.322543 0.691235 0.042200
Si Si2 0.321093 0.880046 0.220809
Si Si3 0.177805 0.381051 0.948144
Si Si4 0.175552 0.041250 0.452858
Si Si5 0.179962 0.764362 0.735046
Si Si6 0.679591 0.693208 0.627973
Si Si7 0.824177 0.958117 0.219050
Si Si8 0.820236 0.270456 0.441141
O O1 0.500000 0.684180 0.036259
O O2 0.288043 0.705485 0.150246
O O3 0.238096 0.654298 0.007552
O O4 0.288990 0.727194 0.973940
O O5 0.500000 0.875922 0.212085
O O6 0.279978 0.876417 0.334738
O O7 0.237229 0.847318 0.163159
O O8 0.269817 0.921807 0.187888
O O9 0.241627 0.421018 0.984762
O O10 0.000000 0.382268 0.952004
O O11 0.185954 0.040987 0.335954
O O12 0.000000 0.043869 0.477004
O O13 0.232093 0.000000 0.486151
O O14 0.252929 0.725070 0.699623
O O15 0.249716 0.776232 0.836474
O O16 0.000000 0.759786 0.741353
O O17 0.500000 0.695136 0.628079
O O18 0.745483 0.703609 0.522956
O O19 0.000000 0.953171 0.195363
O O20 0.776314 0.000000 0.185000
O O21 0.000000 0.275474 0.441228
#
# Coordination Sequence:
#
# PCOD9373581 Si02
#       8
#     8   8   8   8   8   8   8   8
#     4   9  19  32  45  62  86 114 144 177 212 256
#     4  10  19  29  41  61  89 118 149 186 222 259
#     4  10  19  27  40  62  87 115 146 182 218 251
#     4   8  14  25  40  56  78 111 145 174 209 255
#     4  10  20  34  49  66  88 114 146 184 223 263
#     4  11  21  32  47  66  88 117 150 184 221 260
#     4   8  14  25  40  58  81 111 146 179 213 259
#     4  10  20  34  50  67  87 114 146 182 224 265
#
# _framework density 14.609514000000001
#
# number of rings (size 3 to 8) (size 9 to 14) (size 15 to 20)
#    0.000    2.500    0.000    4.875    0.000    7.000 
#    0.000    2.500    0.000    0.000    0.000    0.000 
#    0.000    1.000    0.000    8.750    0.000    5.375 
#
# Total GULP energy -178357.853731 kJ/mol
# GULP energy per Si atom -5573.682929 kJ/mol
# Density = 1.457626 g / cm^3
# Si number density = 14.609514 Si / 1000 Ang^3
#
#
#
# Elastic Constant Matrix: (Units=GPa)
#
#
# Indices 1 2 3 4 5 6 
#
# 1 68.1823 64.4247 38.4219 0.0000 0.0000 0.0000
# 2 64.4247 135.8204 45.8403 -0.0001 0.0000 0.0000
# 3 38.4219 45.8403 64.1097 -0.0001 0.0000 0.0000
# 4 0.0000 -0.0001 -0.0001 16.3317 0.0000 0.0000
# 5 0.0000 0.0000 0.0000 0.0000 20.9318 0.0000
# 6 0.0000 0.0000 0.0000 0.0000 0.0000 26.0586
#
#
#
# Elastic Compliance Matrix: (Units=1/GPa)
#
#
# Indices 1 2 3 4 5 6 
#
# 1 0.031344 -0.011240 -0.010748 0.000000 0.000000 0.000000
# 2 -0.011240 0.013735 -0.003085 0.000000 0.000000 0.000000
# 3 -0.010748 -0.003085 0.024245 0.000000 0.000000 0.000000
# 4 0.000000 0.000000 0.000000 0.061231 0.000000 0.000000
# 5 0.000000 0.000000 0.000000 0.000000 0.047774 0.000000
# 6 0.000000 0.000000 0.000000 0.000000 0.000000 0.038375
#
#
# Mechanical properties :
#
#
# Convention : Reuss Voigt Hill
#
# Bulk Modulus (GPa) = 52.14027 62.83176 57.48602
# Shear Modulus (GPa) = 18.29874 20.62612 19.46243
#
# Velocity S-wave (km/s) = 3.54294 3.76151 3.65386
# Velocity P-wave (km/s) = 7.24591 7.87185 7.56536
#
# Compressibility (1/GPa) = 0.01917904
#
# Stress axis : x y z
#
# Youngs Moduli (GPa) = 31.90433 72.80455 41.24502
#
# Poissons Ratio (x) = 0.81833 0.44329
# Poissons Ratio (y) = 0.35861 0.12724
# Poissons Ratio (z) = 0.34290 0.22459
#
# Static dielectric constant tensor:
#      x y z
#    x 1.483730 0.000000 0.000000 
#    y 0.000000 1.488640 0.000000 
#    z 0.000000 0.000000 1.464370 
# 
# From -- ./inp_files/17154.got.cif
#   From: 2010.05.17/outbox.cif.g08.bks.cpg/sg44_9_cif.got.tgz:17154.got - 2010.06.03 19:37:08.
