data_PCOD9373634
_publ_section_title
;
Structure prediction by ZEFSAII (Michael W. Deem and Ramdas Pophale) SiO2 
 PCOD9373634
Probable space group: I M M 2
;
_chemical_formula_sum "Si O2"
_cell_formula_units_Z 40
_cell_length_a 7.552316
_cell_length_b 14.075291
_cell_length_c 19.127769
_cell_angle_alpha 90.000000
_cell_angle_beta 90.000000
_cell_angle_gamma 90.000000
_cell_volume 2033.301841
_symmetry_space_group_name_H-M "I M M 2"
_symmetry_group_IT_number 44
_symmetry_cell_setting 'orthorhombic'
loop_
_space_group_symop_operation_xyz
x,y,z
-x,-y,z
-x,y,z
x,-y,z
1/2+x,1/2+y,1/2+z
1/2-x,1/2-y,1/2+z
1/2-x,1/2+y,1/2+z
1/2+x,1/2-y,1/2+z
loop_
_atom_site_type_symbol
_atom_site_label
_atom_site_fract_x
_atom_site_fract_y
_atom_site_fract_z
Si Si1 0.207740 0.303550 0.532640
Si Si2 0.783509 0.389929 0.387248
Si Si3 0.716905 0.798823 0.741861
Si Si4 0.293538 0.605209 0.678918
Si Si5 0.286176 0.894052 0.597419
O O1 0.276500 0.337798 0.457846
O O2 0.286740 0.359608 0.598610
O O3 0.231205 0.191642 0.546938
O O4 0.000000 0.325378 0.534580
O O5 0.730742 0.500000 0.388184
O O6 0.725021 0.339390 0.315973
O O7 0.000000 0.387674 0.386627
O O8 0.500000 0.797961 0.741700
O O9 0.780490 0.692297 0.724374
O O10 0.769570 0.864040 0.675919
O O11 0.500000 0.598639 0.697970
O O12 0.215103 0.500000 0.686112
O O13 0.500000 0.895076 0.597275
O O14 0.223804 0.000000 0.579867
#
# Coordination Sequence:
#
# PCOD9373634 Si02
#       5
#     8   8   8   8   8
#     4  10  19  29  44  69  97 121 148 183 225 274
#     4   9  16  26  42  66  94 119 144 181 229 273
#     4   8  14  26  45  68  89 111 147 191 227 260
#     4   9  17  30  48  68  90 119 155 191 224 262
#     4   9  17  31  51  70  88 116 153 189 225 266
#
# _framework density 19.672436000000001
#
# number of rings (size 3 to 8) (size 9 to 14) (size 15 to 20)
#    0.000    3.000    0.000    3.000    0.000    4.000 
#    0.000    1.000    0.000   13.200    0.000    0.000 
#    0.000    0.000    0.000    0.000    0.000    0.000 
#
# Total GULP energy -111549.160725 kJ/mol
# GULP energy per Si atom -5577.458036 kJ/mol
# Density = 1.962766 g / cm^3
# Si number density = 19.672436 Si / 1000 Ang^3
#
#
#
# Elastic Constant Matrix: (Units=GPa)
#
#
# Indices 1 2 3 4 5 6 
#
# 1 45.4453 -4.3654 -4.2808 0.0000 0.0000 0.0000
# 2 -4.3654 175.6646 94.8268 0.0000 0.0000 0.0000
# 3 -4.2808 94.8268 155.7815 0.0000 0.0000 0.0000
# 4 0.0000 0.0000 0.0000 16.4351 0.0000 0.0000
# 5 0.0000 0.0000 0.0000 0.0000 14.8622 0.0000
# 6 0.0000 0.0000 0.0000 0.0000 0.0000 9.8805
#
#
#
# Elastic Compliance Matrix: (Units=1/GPa)
#
#
# Indices 1 2 3 4 5 6 
#
# 1 0.022074 0.000329 0.000406 0.000000 0.000000 0.000000
# 2 0.000329 0.008484 -0.005155 0.000000 0.000000 0.000000
# 3 0.000406 -0.005155 0.009568 0.000000 0.000000 0.000000
# 4 0.000000 0.000000 0.000000 0.060845 0.000000 0.000000
# 5 0.000000 0.000000 0.000000 0.000000 0.067285 0.000000
# 6 0.000000 0.000000 0.000000 0.000000 0.000000 0.101209
#
#
# Mechanical properties :
#
#
# Convention : Reuss Voigt Hill
#
# Bulk Modulus (GPa) = 31.96202 61.02809 46.49505
# Shear Modulus (GPa) = 17.31698 27.61629 22.46664
#
# Velocity S-wave (km/s) = 2.97015 3.75081 3.38307
# Velocity P-wave (km/s) = 5.29573 7.06028 6.24068
#
# Compressibility (1/GPa) = 0.03128714
#
# Stress axis : x y z
#
# Youngs Moduli (GPa) = 45.30141 117.87359 104.51062
#
# Poissons Ratio (x) = -0.03882 -0.04244
# Poissons Ratio (y) = -0.01492 0.53876
# Poissons Ratio (z) = -0.01840 0.60765
#
# Static dielectric constant tensor:
#      x y z
#    x 1.771520 0.000000 0.000000 
#    y 0.000000 1.697440 0.000000 
#    z 0.000000 0.000000 1.653060 
# 
# From -- ./inp_files/18240.got.cif
#   From: 2010.05.17/outbox.cif.g08.bks.cpg/sg44_10_cif.got.tgz:18240.got - 2010.06.03 19:37:08.
