data_PCOD9373712
_publ_section_title
;
Structure prediction by ZEFSAII (Michael W. Deem and Ramdas Pophale) SiO2 
 PCOD9373712
Probable space group: I M M 2
;
_chemical_formula_sum "Si O2"
_cell_formula_units_Z 64
_cell_length_a 21.154364
_cell_length_b 8.953500
_cell_length_c 15.644206
_cell_angle_alpha 90.000000
_cell_angle_beta 90.000000
_cell_angle_gamma 90.000000
_cell_volume 2963.100194
_symmetry_space_group_name_H-M "I M M 2"
_symmetry_group_IT_number 44
_symmetry_cell_setting 'orthorhombic'
loop_
_space_group_symop_operation_xyz
x,y,z
-x,-y,z
-x,y,z
x,-y,z
1/2+x,1/2+y,1/2+z
1/2-x,1/2-y,1/2+z
1/2-x,1/2+y,1/2+z
1/2+x,1/2-y,1/2+z
loop_
_atom_site_type_symbol
_atom_site_label
_atom_site_fract_x
_atom_site_fract_y
_atom_site_fract_z
Si Si1 0.249625 0.170525 0.610400
Si Si2 0.567989 0.820436 0.219849
Si Si3 0.291457 0.821182 0.278907
Si Si4 0.423349 0.669585 0.696448
Si Si5 0.689584 0.324545 0.449558
Si Si6 0.076846 0.672411 0.370095
Si Si7 0.074634 0.674859 0.018004
Si Si8 0.604828 0.670108 0.047753
O O1 0.248333 0.245077 0.703538
O O2 0.283690 0.270325 0.540048
O O3 0.177352 0.165456 0.577798
O O4 0.273561 0.000000 0.612782
O O5 0.500000 0.773636 0.258603
O O6 0.634575 0.776426 0.262451
O O7 0.568821 0.000000 0.218559
O O8 0.570539 0.759308 0.123289
O O9 0.275985 0.761086 0.372630
O O10 0.286207 0.000000 0.274522
O O11 0.500000 0.662342 0.701367
O O12 0.400042 0.500000 0.683537
O O13 0.401347 0.739499 0.785654
O O14 0.410370 0.773153 0.614901
O O15 0.695438 0.500000 0.438262
O O16 0.616832 0.272036 0.454892
O O17 0.097153 0.500000 0.366606
O O18 0.098513 0.749554 0.457176
O O19 0.000000 0.674396 0.370026
O O20 0.088971 0.500000 0.005957
O O21 0.000000 0.696467 0.005010
O O22 0.581340 0.500000 0.041416
#
# Coordination Sequence:
#
# PCOD9373712 Si02
#       8
#     8   8   8   8   8   8   8   8
#     4  10  22  43  65  87 119 158 204 258 312 366
#     4   9  18  33  55  84 119 159 199 239 292 360
#     4  10  21  40  65  92 125 163 205 255 308 364
#     4   9  17  31  51  76 110 149 190 240 295 350
#     4  12  25  42  66  95 125 161 205 253 307 367
#     4  10  19  30  47  74 111 155 201 247 299 361
#     4  10  21  39  63  90 122 159 198 243 300 365
#     4  10  20  33  52  79 112 151 197 252 305 355
#
# _framework density 21.598998999999999
#
# number of rings (size 3 to 8) (size 9 to 14) (size 15 to 20)
#    0.000    2.000    0.000    3.750    0.000    7.250 
#    2.250    1.250    0.000    0.000    0.000    0.000 
#    0.000    0.000    0.000    0.000    0.000    0.000 
#
# Total GULP energy -178885.951374 kJ/mol
# GULP energy per Si atom -5590.185980 kJ/mol
# Density = 2.154984 g / cm^3
# Si number density = 21.598999 Si / 1000 Ang^3
#
#
#
# Elastic Constant Matrix: (Units=GPa)
#
#
# Indices 1 2 3 4 5 6 
#
# 1 37.2140 1.6379 5.6821 0.0000 0.0000 0.0000
# 2 1.6379 60.7245 19.8170 0.0000 0.0000 0.0000
# 3 5.6821 19.8170 101.1308 0.0000 0.0000 0.0000
# 4 0.0000 0.0000 0.0000 33.7404 0.0000 0.0000
# 5 0.0000 0.0000 0.0000 0.0000 18.1501 0.0000
# 6 0.0000 0.0000 0.0000 0.0000 0.0000 17.6347
#
#
#
# Elastic Compliance Matrix: (Units=1/GPa)
#
#
# Indices 1 2 3 4 5 6 
#
# 1 0.027108 -0.000250 -0.001474 0.000000 0.000000 0.000000
# 2 -0.000250 0.017595 -0.003434 0.000000 0.000000 0.000000
# 3 -0.001474 -0.003434 0.010644 0.000000 0.000000 0.000000
# 4 0.000000 0.000000 0.000000 0.029638 0.000000 0.000000
# 5 0.000000 0.000000 0.000000 0.000000 0.055096 0.000000
# 6 0.000000 0.000000 0.000000 0.000000 0.000000 0.056706
#
#
# Mechanical properties :
#
#
# Convention : Reuss Voigt Hill
#
# Bulk Modulus (GPa) = 22.20705 28.14927 25.17816
# Shear Modulus (GPa) = 22.51101 25.36719 23.93910
#
# Velocity S-wave (km/s) = 3.23185 3.43076 3.33279
# Velocity P-wave (km/s) = 4.92243 5.36232 5.14708
#
# Compressibility (1/GPa) = 0.04503075
#
# Stress axis : x y z
#
# Youngs Moduli (GPa) = 36.88995 56.83380 93.95085
#
# Poissons Ratio (x) = 0.01422 0.13849
# Poissons Ratio (y) = 0.00923 0.32261
# Poissons Ratio (z) = 0.05438 0.19516
#
# Static dielectric constant tensor:
#      x y z
#    x 1.865370 0.000000 0.000000 
#    y 0.000000 1.727700 0.000000 
#    z 0.000000 0.000000 1.740290 
# 
# From -- ./inp_files/19454.got.cif
#   From: 2010.05.17/outbox.cif.g08.bks.cpg/sg44_10_cif.got.tgz:19454.got - 2010.06.03 19:37:08.
