data_PCOD9373026
_publ_section_title
;
Structure prediction by ZEFSAII (Michael W. Deem and Ramdas Pophale) SiO2 
 PCOD9373026
Probable space group: I M M 2
;
_chemical_formula_sum "Si O2"
_cell_formula_units_Z 40
_cell_length_a 28.183408
_cell_length_b 8.230559
_cell_length_c 7.482893
_cell_angle_alpha 90.000000
_cell_angle_beta 90.000000
_cell_angle_gamma 90.000000
_cell_volume 1735.770789
_symmetry_space_group_name_H-M "I M M 2"
_symmetry_group_IT_number 44
_symmetry_cell_setting 'orthorhombic'
loop_
_space_group_symop_operation_xyz
x,y,z
-x,-y,z
-x,y,z
x,-y,z
1/2+x,1/2+y,1/2+z
1/2-x,1/2-y,1/2+z
1/2-x,1/2+y,1/2+z
1/2+x,1/2-y,1/2+z
loop_
_atom_site_type_symbol
_atom_site_label
_atom_site_fract_x
_atom_site_fract_y
_atom_site_fract_z
Si Si1 0.500000 0.306717 0.117481
Si Si2 0.799584 0.306305 0.247835
Si Si3 0.397168 0.690166 0.685717
Si Si4 0.500000 0.697896 0.693221
Si Si5 0.694471 0.314125 0.139283
Si Si6 0.097750 0.688453 0.589976
O O1 0.500000 0.500000 0.136060
O O2 0.549508 0.237822 0.188223
O O3 0.500000 0.262381 0.905432
O O4 0.798622 0.500000 0.284625
O O5 0.847172 0.272321 0.134336
O O6 0.747455 0.255724 0.183133
O O7 0.806156 0.203937 0.426408
O O8 0.393760 0.500000 0.643047
O O9 0.448726 0.753598 0.620449
O O10 0.401194 0.712003 0.902767
O O11 0.500000 0.500000 0.680469
O O12 0.690462 0.500000 0.197702
O O13 0.646484 0.223107 0.194864
O O14 0.096490 0.500000 0.540955
#
# Coordination Sequence:
#
# PCOD9373026 Si02
#       6
#     4   8   8   4   8   8
#     4   9  15  25  39  57  86 119 148 181 228 278
#     4  10  20  32  47  69  94 121 158 196 230 276
#     4   9  15  25  41  60  87 120 149 182 229 276
#     4   7  12  21  35  57  82 111 144 175 214 268
#     4  10  20  33  48  67  94 126 156 191 237 281
#     4  10  17  25  40  63  89 116 150 189 228 273
#
# _framework density 23.044516000000002
#
# number of rings (size 3 to 8) (size 9 to 14) (size 15 to 20)
#    0.000    2.600    0.000    7.500    0.000    3.200 
#    0.000    1.500    0.000    0.000    0.000    1.400 
#    0.000    1.600    0.000    0.000    0.000    0.000 
#
# Total GULP energy -111431.609974 kJ/mol
# GULP energy per Si atom -5571.580499 kJ/mol
# Density = 2.299207 g / cm^3
# Si number density = 23.044516 Si / 1000 Ang^3
#
#
#
# Elastic Constant Matrix: (Units=GPa)
#
#
# Indices 1 2 3 4 5 6 
#
# 1 292.7699 27.0074 8.7923 0.0000 0.0000 0.0000
# 2 27.0074 41.9667 -12.7223 0.0000 0.0000 0.0000
# 3 8.7923 -12.7223 33.9051 0.0000 0.0000 0.0000
# 4 0.0000 0.0000 0.0000 0.8683 0.0000 0.0000
# 5 0.0000 0.0000 0.0000 0.0000 7.5899 0.0000
# 6 0.0000 0.0000 0.0000 0.0000 0.0000 42.5988
#
#
#
# Elastic Compliance Matrix: (Units=1/GPa)
#
#
# Indices 1 2 3 4 5 6 
#
# 1 0.003762 -0.003066 -0.002126 0.000000 0.000000 0.000000
# 2 -0.003066 0.029385 0.011821 0.000000 0.000000 0.000000
# 3 -0.002126 0.011821 0.034481 0.000000 0.000000 0.000000
# 4 0.000000 0.000000 0.000000 1.151656 0.000000 0.000000
# 5 0.000000 0.000000 0.000000 0.000000 0.131753 0.000000
# 6 0.000000 0.000000 0.000000 0.000000 0.000000 0.023475
#
#
# Mechanical properties :
#
#
# Convention : Reuss Voigt Hill
#
# Bulk Modulus (GPa) = 12.36289 46.08850 29.22570
# Shear Modulus (GPa) = 3.60174 33.24902 18.42538
#
# Velocity S-wave (km/s) = 1.25154 3.80256 2.83071
# Velocity P-wave (km/s) = 2.73220 6.27077 4.83670
#
# Compressibility (1/GPa) = 0.08088724
#
# Stress axis : x y z
#
# Youngs Moduli (GPa) = 265.79458 34.03101 29.00143
#
# Poissons Ratio (x) = 0.10433 0.06166
# Poissons Ratio (y) = 0.81485 -0.34283
# Poissons Ratio (z) = 0.56508 -0.40229
#
# Static dielectric constant tensor:
#      x y z
#    x 2.040470 0.000000 0.000000 
#    y 0.000000 1.799820 0.000000 
#    z 0.000000 0.000000 1.932240 
# 
# From -- ./inp_files/11198.got.cif
#   From: 2010.05.17/outbox.cif.g08.bks.cpg/sg44_6_cif.got.tgz:11198.got - 2010.06.03 19:37:08.
