data_PCOD9373508
_publ_section_title
;
Structure prediction by ZEFSAII (Michael W. Deem and Ramdas Pophale) SiO2 
 PCOD9373508
Probable space group: I M M 2
;
_chemical_formula_sum "Si O2"
_cell_formula_units_Z 64
_cell_length_a 21.366971
_cell_length_b 8.054311
_cell_length_c 20.457188
_cell_angle_alpha 90.000000
_cell_angle_beta 90.000000
_cell_angle_gamma 90.000000
_cell_volume 3520.604922
_symmetry_space_group_name_H-M "I M M 2"
_symmetry_group_IT_number 44
_symmetry_cell_setting 'orthorhombic'
loop_
_space_group_symop_operation_xyz
x,y,z
-x,-y,z
-x,y,z
x,-y,z
1/2+x,1/2+y,1/2+z
1/2-x,1/2-y,1/2+z
1/2-x,1/2+y,1/2+z
1/2+x,1/2-y,1/2+z
loop_
_atom_site_type_symbol
_atom_site_label
_atom_site_fract_x
_atom_site_fract_y
_atom_site_fract_z
Si Si1 0.809853 0.699043 0.699330
Si Si2 0.879215 0.200515 0.057427
Si Si3 0.311973 0.703443 0.780546
Si Si4 0.878613 0.697452 0.914712
Si Si5 0.930549 0.796992 0.196473
Si Si6 0.568760 0.695869 0.278526
Si Si7 0.266020 0.699556 0.918629
Si Si8 0.233860 0.300246 0.560962
O O1 0.804193 0.500000 0.697154
O O2 0.750046 0.758099 0.741307
O O3 0.874270 0.737198 0.735413
O O4 0.802872 0.760624 0.624843
O O5 0.916141 0.254017 0.121850
O O6 0.806617 0.254819 0.065244
O O7 0.879970 0.000000 0.055645
O O8 0.902640 0.262725 0.987337
O O9 0.312205 0.500000 0.779666
O O10 0.374480 0.758433 0.743527
O O11 0.304624 0.756860 0.855665
O O12 0.877982 0.500000 0.905380
O O13 0.916179 0.772794 0.854692
O O14 0.806220 0.758834 0.912342
O O15 0.000000 0.743876 0.216203
O O16 0.929443 0.000000 0.196813
O O17 0.500000 0.766604 0.262936
O O18 0.567081 0.500000 0.267718
O O19 0.263644 0.500000 0.916436
O O20 0.290303 0.748674 0.989889
O O21 0.234586 0.500000 0.562579
#
# Coordination Sequence:
#
# PCOD9373508 Si02
#       8
#     8   8   8   8   8   8   8   8
#     4  10  18  33  55  75  97 131 171 211 252 295
#     4   9  16  28  46  71 105 138 168 205 245 286
#     4   9  15  28  48  71  99 130 167 208 247 285
#     4  10  19  32  50  72  99 135 174 205 241 295
#     4   9  16  26  45  73 102 133 168 204 244 292
#     4  11  24  38  51  72 102 132 164 209 262 310
#     4   9  17  29  48  72 100 131 163 206 252 290
#     4   9  17  29  49  74 100 130 164 205 250 295
#
# _framework density 18.178692999999999
#
# number of rings (size 3 to 8) (size 9 to 14) (size 15 to 20)
#    0.000    2.500    2.500    0.750    0.000    2.500 
#    0.000    1.250    0.000    1.500    0.000    1.750 
#    0.000    0.000    0.000    0.000    0.000    0.000 
#
# Total GULP energy -178457.997379 kJ/mol
# GULP energy per Si atom -5576.812418 kJ/mol
# Density = 1.813732 g / cm^3
# Si number density = 18.178693 Si / 1000 Ang^3
#
#
#
# Elastic Constant Matrix: (Units=GPa)
#
#
# Indices 1 2 3 4 5 6 
#
# 1 119.5085 4.3967 81.2965 0.0000 0.0000 0.0000
# 2 4.3967 7.6044 6.9104 0.0000 0.0000 0.0000
# 3 81.2965 6.9104 151.8892 0.0000 0.0000 0.0000
# 4 0.0000 0.0000 0.0000 24.7091 0.0000 0.0000
# 5 0.0000 0.0000 0.0000 0.0000 20.7196 0.0000
# 6 0.0000 0.0000 0.0000 0.0000 0.0000 10.4531
#
#
#
# Elastic Compliance Matrix: (Units=1/GPa)
#
#
# Indices 1 2 3 4 5 6 
#
# 1 0.013170 -0.001261 -0.006992 0.000000 0.000000 0.000000
# 2 -0.001261 0.137295 -0.005572 0.000000 0.000000 0.000000
# 3 -0.006992 -0.005572 0.010579 0.000000 0.000000 0.000000
# 4 0.000000 0.000000 0.000000 0.040471 0.000000 0.000000
# 5 0.000000 0.000000 0.000000 0.000000 0.048263 0.000000
# 6 0.000000 0.000000 0.000000 0.000000 0.000000 0.095665
#
#
# Mechanical properties :
#
#
# Convention : Reuss Voigt Hill
#
# Bulk Modulus (GPa) = 7.49645 51.57880 29.53762
# Shear Modulus (GPa) = 11.97437 23.60293 17.78865
#
# Velocity S-wave (km/s) = 2.56931 3.60722 3.13156
# Velocity P-wave (km/s) = 3.59645 6.76640 5.41843
#
# Compressibility (1/GPa) = 0.13339651
#
# Stress axis : x y z
#
# Youngs Moduli (GPa) = 75.92890 7.28356 94.52252
#
# Poissons Ratio (x) = 0.00918 0.66088
# Poissons Ratio (y) = 0.09574 0.52664
# Poissons Ratio (z) = 0.53088 0.04058
#
# Static dielectric constant tensor:
#      x y z
#    x 1.627400 0.000000 0.000000 
#    y 0.000000 1.650370 0.000000 
#    z 0.000000 0.000000 1.630260 
# 
# From -- ./inp_files/22292.got.cif
#   From: 2010.05.17/outbox.cif.g08.bks.cpg/sg44_12_cif.got.tgz:22292.got - 2010.06.03 19:37:08.
