data_PCOD9373029
_publ_section_title
;
Structure prediction by ZEFSAII (Michael W. Deem and Ramdas Pophale) SiO2 
 PCOD9373029
Probable space group: I M M 2
;
_chemical_formula_sum "Si O2"
_cell_formula_units_Z 40
_cell_length_a 7.384329
_cell_length_b 11.176895
_cell_length_c 23.284053
_cell_angle_alpha 90.000000
_cell_angle_beta 90.000000
_cell_angle_gamma 90.000000
_cell_volume 1921.723001
_symmetry_space_group_name_H-M "I M M 2"
_symmetry_group_IT_number 44
_symmetry_cell_setting 'orthorhombic'
loop_
_space_group_symop_operation_xyz
x,y,z
-x,-y,z
-x,y,z
x,-y,z
1/2+x,1/2+y,1/2+z
1/2-x,1/2-y,1/2+z
1/2-x,1/2+y,1/2+z
1/2+x,1/2-y,1/2+z
loop_
_atom_site_type_symbol
_atom_site_label
_atom_site_fract_x
_atom_site_fract_y
_atom_site_fract_z
Si Si1 0.283875 0.810288 0.386490
Si Si2 0.778248 0.259960 0.595445
Si Si3 0.785118 0.366048 0.476598
Si Si4 0.721742 0.000000 0.294536
Si Si5 0.296961 0.500000 0.111231
Si Si6 0.219567 0.500000 0.979944
Si Si7 0.779551 0.500000 0.662870
O O1 0.500000 0.817561 0.383216
O O2 0.242122 0.680276 0.411504
O O3 0.219512 0.881235 0.330095
O O4 0.223315 0.889798 0.440533
O O5 0.716455 0.284318 0.529703
O O6 0.725172 0.377867 0.630938
O O7 0.000000 0.252767 0.595823
O O8 0.715157 0.132291 0.621419
O O9 0.713017 0.500000 0.483496
O O10 0.000000 0.370902 0.485507
O O11 0.500000 0.000000 0.294331
O O12 0.779858 0.000000 0.228935
O O13 0.500000 0.500000 0.136238
O O14 0.304202 0.500000 0.041882
O O15 0.000000 0.500000 0.985664
O O16 0.000000 0.500000 0.661799
#
# Coordination Sequence:
#
# PCOD9373029 Si02
#       7
#     8   8   8   4   4   4   4
#     4   9  17  29  44  66  92 118 154 196 232 272
#     4   9  16  25  41  68  97 122 150 190 236 282
#     4  10  18  28  44  69  97 124 154 188 238 297
#     4   8  16  30  49  67  89 126 165 194 228 283
#     4  10  17  25  41  67  94 116 148 193 234 272
#     4   9  16  25  39  61  89 118 146 178 222 277
#     4   9  15  28  48  67  94 130 157 189 242 286
#
# _framework density 20.814654999999998
#
# number of rings (size 3 to 8) (size 9 to 14) (size 15 to 20)
#    0.000    2.800    3.000    1.200    0.000    0.400 
#    0.000    1.500    2.200    0.000    0.000    5.600 
#    0.000    0.000    0.000    0.000    0.000    0.000 
#
# Total GULP energy -111352.981760 kJ/mol
# GULP energy per Si atom -5567.649088 kJ/mol
# Density = 2.076728 g / cm^3
# Si number density = 20.814655 Si / 1000 Ang^3
#
#
#
# Elastic Constant Matrix: (Units=GPa)
#
#
# Indices 1 2 3 4 5 6 
#
# 1 71.4382 0.8552 -1.8979 0.0000 0.0000 0.0000
# 2 0.8552 171.5954 58.2387 0.0000 0.0000 0.0000
# 3 -1.8979 58.2387 112.3027 0.0000 0.0000 0.0000
# 4 0.0000 0.0000 0.0000 27.2425 0.0000 0.0000
# 5 0.0000 0.0000 0.0000 0.0000 10.2782 0.0000
# 6 0.0000 0.0000 0.0000 0.0000 0.0000 4.9011
#
#
#
# Elastic Compliance Matrix: (Units=1/GPa)
#
#
# Indices 1 2 3 4 5 6 
#
# 1 0.014009 -0.000182 0.000331 0.000000 0.000000 0.000000
# 2 -0.000182 0.007075 -0.003672 0.000000 0.000000 0.000000
# 3 0.000331 -0.003672 0.010814 0.000000 0.000000 0.000000
# 4 0.000000 0.000000 0.000000 0.036707 0.000000 0.000000
# 5 0.000000 0.000000 0.000000 0.000000 0.097293 0.000000
# 6 0.000000 0.000000 0.000000 0.000000 0.000000 0.204035
#
#
# Mechanical properties :
#
#
# Convention : Reuss Voigt Hill
#
# Bulk Modulus (GPa) = 40.23769 52.19203 46.21486
# Shear Modulus (GPa) = 12.97810 28.36038 20.66924
#
# Velocity S-wave (km/s) = 2.49972 3.69524 3.15463
# Velocity P-wave (km/s) = 5.26354 6.58297 5.95988
#
# Compressibility (1/GPa) = 0.02485232
#
# Stress axis : x y z
#
# Youngs Moduli (GPa) = 71.38217 141.34620 92.46970
#
# Poissons Ratio (x) = 0.02576 -0.03063
# Poissons Ratio (y) = 0.01301 0.33955
# Poissons Ratio (z) = -0.02365 0.51902
#
# Static dielectric constant tensor:
#      x y z
#    x 1.812320 0.000000 0.000000 
#    y 0.000000 1.873800 0.000000 
#    z 0.000000 0.000000 1.699380 
# 
# From -- ./inp_files/22832.got.cif
#   From: 2010.05.17/outbox.cif.g08.bks.cpg/sg44_12_cif.got.tgz:22832.got - 2010.06.03 19:37:08.
