data_PCOD9373209
_publ_section_title
;
Structure prediction by ZEFSAII (Michael W. Deem and Ramdas Pophale) SiO2 
 PCOD9373209
Probable space group: I M M 2
;
_chemical_formula_sum "Si O2"
_cell_formula_units_Z 64
_cell_length_a 7.403725
_cell_length_b 31.845294
_cell_length_c 14.939547
_cell_angle_alpha 90.000000
_cell_angle_beta 90.000000
_cell_angle_gamma 90.000000
_cell_volume 3522.353756
_symmetry_space_group_name_H-M "I M M 2"
_symmetry_group_IT_number 44
_symmetry_cell_setting 'orthorhombic'
loop_
_space_group_symop_operation_xyz
x,y,z
-x,-y,z
-x,y,z
x,-y,z
1/2+x,1/2+y,1/2+z
1/2-x,1/2-y,1/2+z
1/2-x,1/2+y,1/2+z
1/2+x,1/2-y,1/2+z
loop_
_atom_site_type_symbol
_atom_site_label
_atom_site_fract_x
_atom_site_fract_y
_atom_site_fract_z
Si Si1 0.780039 0.729964 0.268510
Si Si2 0.720585 0.047649 0.165300
Si Si3 0.779414 0.452351 0.871830
Si Si4 0.707691 0.869791 0.081003
Si Si5 0.283165 0.793279 0.964307
Si Si6 0.792323 0.630216 0.956069
Si Si7 0.282314 0.327625 0.768539
Si Si8 0.716843 0.793238 0.572673
O O1 0.717990 0.710516 0.362283
O O2 0.730702 0.778921 0.268558
O O3 0.717999 0.710554 0.174700
O O4 0.000000 0.728224 0.268506
O O5 0.500000 0.048929 0.165339
O O6 0.775652 0.056168 0.268564
O O7 0.785964 0.083907 0.098562
O O8 0.773733 0.000000 0.143129
O O9 0.726265 0.500000 0.894000
O O10 0.714038 0.416089 0.938559
O O11 0.000000 0.451072 0.871793
O O12 0.500000 0.875942 0.052566
O O13 0.711270 0.849206 0.179387
O O14 0.788098 0.834364 0.015973
O O15 0.500000 0.796986 0.961531
O O16 0.250032 0.750018 0.018486
O O17 0.788779 0.650773 0.857658
O O18 0.000000 0.624071 0.984535
O O19 0.711909 0.665667 0.021039
O O20 0.500000 0.330431 0.768551
O O21 0.500000 0.796934 0.575432
#
# Coordination Sequence:
#
# PCOD9373209 Si02
#       8
#     8   8   8   8   8   8   8   8
#     4   9  18  31  41  56  85 115 137 162 208 251
#     4   8  13  22  38  60  84 106 131 171 214 243
#     4   8  13  22  38  60  84 106 131 171 214 243
#     4  10  18  28  44  64  82 108 148 179 197 238
#     4  10  19  30  44  61  83 110 141 172 203 244
#     4  10  18  28  44  64  82 108 148 179 197 238
#     4  11  19  27  42  60  87 119 138 166 211 252
#     4  10  19  30  44  61  83 110 141 172 203 244
#
# _framework density 18.169668999999999
#
# number of rings (size 3 to 8) (size 9 to 14) (size 15 to 20)
#    0.000    2.500    3.750    1.125    0.000    0.000 
#    0.000    0.625    0.000    1.500    0.000    0.875 
#    0.000    7.000    0.000    0.000    0.000    5.750 
#
# Total GULP energy -178456.315158 kJ/mol
# GULP energy per Si atom -5576.759849 kJ/mol
# Density = 1.812831 g / cm^3
# Si number density = 18.169669 Si / 1000 Ang^3
#
#
#
# Elastic Constant Matrix: (Units=GPa)
#
#
# Indices 1 2 3 4 5 6 
#
# 1 65.3278 4.5977 -3.0057 0.0000 0.0000 0.0000
# 2 4.5977 177.4328 76.9806 0.0000 0.0000 0.0000
# 3 -3.0057 76.9806 117.9655 0.0000 0.0000 0.0000
# 4 0.0000 0.0000 0.0000 27.5412 0.0000 0.0000
# 5 0.0000 0.0000 0.0000 0.0000 -1.9863 0.0000
# 6 0.0000 0.0000 0.0000 0.0000 0.0000 5.3627
#
#
#
# Elastic Compliance Matrix: (Units=1/GPa)
#
#
# Indices 1 2 3 4 5 6 
#
# 1 0.015405 -0.000794 0.000911 0.000000 0.000000 0.000000
# 2 -0.000794 0.007903 -0.005177 0.000000 0.000000 0.000000
# 3 0.000911 -0.005177 0.011879 0.000000 0.000000 0.000000
# 4 0.000000 0.000000 0.000000 0.036309 0.000000 0.000000
# 5 0.000000 0.000000 0.000000 0.000000 -0.503438 0.000000
# 6 0.000000 0.000000 0.000000 0.000000 0.000000 0.186472
#
#
# Mechanical properties :
#
#
# Convention : Reuss Voigt Hill
#
# Bulk Modulus (GPa) = 39.89594 57.54126 48.71860
# Shear Modulus (GPa) = -22.02709 24.99376 1.48334
#
# Velocity S-wave (km/s) = -3.48559 3.71290 0.90452
# Velocity P-wave (km/s) = 2.40957 7.07944 5.28793
#
# Compressibility (1/GPa) = 0.02506520
#
# Stress axis : x y z
#
# Youngs Moduli (GPa) = 64.91296 126.53837 84.18343
#
# Poissons Ratio (x) = 0.10052 -0.07668
# Poissons Ratio (y) = 0.05157 0.43584
# Poissons Ratio (z) = -0.05913 0.65513
#
# Static dielectric constant tensor:
#      x y z
#    x 1.720110 0.000000 0.000000 
#    y 0.000000 1.652580 0.000000 
#    z 0.000000 0.000000 1.605350 
# 
# From -- ./inp_files/17141.got.cif
#   From: 2010.05.17/outbox.cif.g08.bks.cpg/sg44_9_cif.got.tgz:17141.got - 2010.06.03 19:37:08.
