data_PCOD9373542
_publ_section_title
;
Structure prediction by ZEFSAII (Michael W. Deem and Ramdas Pophale) SiO2 
 PCOD9373542
Probable space group: I M M 2
;
_chemical_formula_sum "Si O2"
_cell_formula_units_Z 64
_cell_length_a 17.800307
_cell_length_b 17.456119
_cell_length_c 11.889884
_cell_angle_alpha 90.000000
_cell_angle_beta 90.000000
_cell_angle_gamma 90.000000
_cell_volume 3694.475612
_symmetry_space_group_name_H-M "I M M 2"
_symmetry_group_IT_number 44
_symmetry_cell_setting 'orthorhombic'
loop_
_space_group_symop_operation_xyz
x,y,z
-x,-y,z
-x,y,z
x,-y,z
1/2+x,1/2+y,1/2+z
1/2-x,1/2-y,1/2+z
1/2-x,1/2+y,1/2+z
1/2+x,1/2-y,1/2+z
loop_
_atom_site_type_symbol
_atom_site_label
_atom_site_fract_x
_atom_site_fract_y
_atom_site_fract_z
Si Si1 0.211764 0.812895 0.053320
Si Si2 0.910200 0.089760 0.613043
Si Si3 0.163953 0.820527 0.812686
Si Si4 0.770749 0.588589 0.754218
Si Si5 0.163956 0.709867 0.239125
Si Si6 0.321662 0.308627 0.934720
Si Si7 0.589530 0.087741 0.595720
Si Si8 0.411331 0.155793 0.349442
O O1 0.250763 0.874262 0.134220
O O2 0.154875 0.768764 0.135808
O O3 0.176117 0.847555 0.940852
O O4 0.268300 0.746661 0.008651
O O5 0.877598 0.121659 0.730286
O O6 0.871881 0.139735 0.515096
O O7 0.000000 0.098685 0.610724
O O8 0.892128 0.000000 0.599454
O O9 0.246953 0.802410 0.762773
O O10 0.117850 0.741179 0.822732
O O11 0.749648 0.500000 0.760418
O O12 0.727763 0.637445 0.851481
O O13 0.858972 0.600268 0.776755
O O14 0.134302 0.750980 0.351184
O O15 0.128232 0.631307 0.198460
O O16 0.500000 0.087592 0.612106
O O17 0.603845 0.132288 0.478995
O O18 0.615533 0.000000 0.584533
O O19 0.500000 0.148865 0.329187
#
# Coordination Sequence:
#
# PCOD9373542 Si02
#       8
#     8   8   8   8   8   8   8   8
#     4  10  18  35  56  82 109 141 188 231 269 333
#     4  11  24  39  56  82 114 148 188 238 291 334
#     4  11  20  36  59  82 111 147 191 236 276 333
#     4  11  21  34  56  85 117 149 183 234 288 331
#     4  10  18  34  59  83 109 146 187 225 278 332
#     4  10  19  37  60  80 109 143 193 235 276 335
#     4  10  21  35  53  85 122 149 182 231 282 337
#     4  11  20  33  56  85 116 153 189 225 279 339
#
# _framework density 17.323162
#
# number of rings (size 3 to 8) (size 9 to 14) (size 15 to 20)
#    0.000    1.500    6.250    1.125    0.000    2.250 
#    0.000    1.875    0.000    0.750    0.000    7.000 
#    0.000    0.000    0.000    0.000    0.000    0.000 
#
# Total GULP energy -178471.753438 kJ/mol
# GULP energy per Si atom -5577.242295 kJ/mol
# Density = 1.728373 g / cm^3
# Si number density = 17.323162 Si / 1000 Ang^3
#
#
#
# Elastic Constant Matrix: (Units=GPa)
#
#
# Indices 1 2 3 4 5 6 
#
# 1 47.4129 31.5493 30.3361 0.0000 0.0000 0.0000
# 2 31.5493 93.2688 34.5418 0.0000 0.0000 0.0000
# 3 30.3361 34.5418 107.1289 0.0000 0.0000 0.0000
# 4 0.0000 0.0000 0.0000 24.0643 0.0000 0.0000
# 5 0.0000 0.0000 0.0000 0.0000 23.7955 0.0000
# 6 0.0000 0.0000 0.0000 0.0000 0.0000 25.5829
#
#
#
# Elastic Compliance Matrix: (Units=1/GPa)
#
#
# Indices 1 2 3 4 5 6 
#
# 1 0.030254 -0.008019 -0.005982 0.000000 0.000000 0.000000
# 2 -0.008019 0.014301 -0.002340 0.000000 0.000000 0.000000
# 3 -0.005982 -0.002340 0.011783 0.000000 0.000000 0.000000
# 4 0.000000 0.000000 0.000000 0.041555 0.000000 0.000000
# 5 0.000000 0.000000 0.000000 0.000000 0.042025 0.000000
# 6 0.000000 0.000000 0.000000 0.000000 0.000000 0.039089
#
#
# Mechanical properties :
#
#
# Convention : Reuss Voigt Hill
#
# Bulk Modulus (GPa) = 42.27135 48.96281 45.61708
# Shear Modulus (GPa) = 22.77140 24.78079 23.77609
#
# Velocity S-wave (km/s) = 3.62954 3.78630 3.70875
# Velocity P-wave (km/s) = 6.48224 6.88770 6.68804
#
# Compressibility (1/GPa) = 0.02365669
#
# Stress axis : x y z
#
# Youngs Moduli (GPa) = 33.05320 69.92606 84.86762
#
# Poissons Ratio (x) = 0.56070 0.50766
# Poissons Ratio (y) = 0.26504 0.19862
# Poissons Ratio (z) = 0.19772 0.16366
#
# Static dielectric constant tensor:
#      x y z
#    x 1.591350 0.000000 0.000000 
#    y 0.000000 1.595460 0.000000 
#    z 0.000000 0.000000 1.602890 
# 
# From -- ./inp_files/14063.got.cif
#   From: 2010.05.17/outbox.cif.g08.bks.cpg/sg44_8_cif.got.tgz:14063.got - 2010.06.03 19:37:08.
