data_PCOD9373348
_publ_section_title
;
Structure prediction by ZEFSAII (Michael W. Deem and Ramdas Pophale) SiO2 
 PCOD9373348
Probable space group: I M M 2
;
_chemical_formula_sum "Si O2"
_cell_formula_units_Z 52
_cell_length_a 9.112225
_cell_length_b 12.317570
_cell_length_c 25.673782
_cell_angle_alpha 90.000000
_cell_angle_beta 90.000000
_cell_angle_gamma 90.000000
_cell_volume 2881.637340
_symmetry_space_group_name_H-M "I M M 2"
_symmetry_group_IT_number 44
_symmetry_cell_setting 'orthorhombic'
loop_
_space_group_symop_operation_xyz
x,y,z
-x,-y,z
-x,y,z
x,-y,z
1/2+x,1/2+y,1/2+z
1/2-x,1/2-y,1/2+z
1/2-x,1/2+y,1/2+z
1/2+x,1/2-y,1/2+z
loop_
_atom_site_type_symbol
_atom_site_label
_atom_site_fract_x
_atom_site_fract_y
_atom_site_fract_z
Si Si1 0.677384 0.774464 0.141140
Si Si2 0.823663 0.699713 0.344563
Si Si3 0.165829 0.000000 0.899593
Si Si4 0.253835 0.500000 0.516161
Si Si5 0.179008 0.124206 0.426265
Si Si6 0.331774 0.755515 0.025791
Si Si7 0.166682 0.000000 0.135549
Si Si8 0.824062 0.127771 0.739802
O O1 0.500000 0.787814 0.138440
O O2 0.731679 0.738706 0.083572
O O3 0.748897 0.891236 0.152233
O O4 0.710669 0.687507 0.185632
O O5 0.753537 0.603777 0.378958
O O6 0.782355 0.810781 0.373972
O O7 0.758813 0.685381 0.287202
O O8 0.000000 0.689435 0.343888
O O9 0.160397 0.000000 0.962014
O O10 0.000000 0.000000 0.878329
O O11 0.169624 0.614899 0.515938
O O12 0.333314 0.500000 0.572067
O O13 0.233648 0.191087 0.476899
O O14 0.000000 0.124625 0.427896
O O15 0.228131 0.000000 0.427045
O O16 0.500000 0.718720 0.029035
O O17 0.000000 0.000000 0.154314
O O18 0.000000 0.135655 0.747693
O O19 0.785932 0.000000 0.738937
#
# Coordination Sequence:
#
# PCOD9373348 Si02
#       8
#     8   8   4   4   8   8   4   8
#     4   9  19  35  56  81 110 145 183 225 274 325
#     4  11  22  36  56  82 110 143 181 224 272 327
#     4  12  22  33  54  83 112 143 177 224 280 328
#     4  10  18  30  50  80 109 146 179 222 277 328
#     4   9  18  32  51  79 113 142 175 221 269 320
#     4   9  16  28  51  81 110 140 179 225 269 319
#     4  10  20  35  54  81 114 147 185 226 270 324
#     4  10  21  38  58  81 110 141 178 227 277 328
#
# _framework density 18.045296
#
# number of rings (size 3 to 8) (size 9 to 14) (size 15 to 20)
#    0.000    2.154    2.308    1.385    0.000    3.692 
#    1.385    3.077    0.000    1.385    0.000    0.000 
#    0.000    0.000    0.000    0.000    0.000    0.000 
#
# Total GULP energy -144903.247651 kJ/mol
# GULP energy per Si atom -5573.201833 kJ/mol
# Density = 1.800422 g / cm^3
# Si number density = 18.045296 Si / 1000 Ang^3
#
#
#
# Elastic Constant Matrix: (Units=GPa)
#
#
# Indices 1 2 3 4 5 6 
#
# 1 34.5206 26.7363 34.5606 0.0000 0.0000 0.0000
# 2 26.7363 136.7993 83.6461 0.0000 0.0000 0.0000
# 3 34.5606 83.6461 140.7145 0.0000 0.0000 0.0000
# 4 0.0000 0.0000 0.0000 29.5875 0.0000 0.0000
# 5 0.0000 0.0000 0.0000 0.0000 17.9976 0.0000
# 6 0.0000 0.0000 0.0000 0.0000 0.0000 11.0616
#
#
#
# Elastic Compliance Matrix: (Units=1/GPa)
#
#
# Indices 1 2 3 4 5 6 
#
# 1 0.039075 -0.002779 -0.007945 0.000000 0.000000 0.000000
# 2 -0.002779 0.011682 -0.006262 0.000000 0.000000 0.000000
# 3 -0.007945 -0.006262 0.012780 0.000000 0.000000 0.000000
# 4 0.000000 0.000000 0.000000 0.033798 0.000000 0.000000
# 5 0.000000 0.000000 0.000000 0.000000 0.055563 0.000000
# 6 0.000000 0.000000 0.000000 0.000000 0.000000 0.090403
#
#
# Mechanical properties :
#
#
# Convention : Reuss Voigt Hill
#
# Bulk Modulus (GPa) = 33.82324 66.88003 50.35163
# Shear Modulus (GPa) = 17.41390 22.86877 20.14134
#
# Velocity S-wave (km/s) = 3.10983 3.56378 3.34451
# Velocity P-wave (km/s) = 5.62841 7.35369 6.54812
#
# Compressibility (1/GPa) = 0.02956547
#
# Stress axis : x y z
#
# Youngs Moduli (GPa) = 25.59195 85.60397 78.24635
#
# Poissons Ratio (x) = 0.23787 0.62169
# Poissons Ratio (y) = 0.07111 0.48995
# Poissons Ratio (z) = 0.20334 0.53602
#
# Static dielectric constant tensor:
#      x y z
#    x 1.622950 0.000000 0.000000 
#    y 0.000000 1.599570 0.000000 
#    z 0.000000 0.000000 1.635820 
# 
# From -- ./inp_files/26108.got.cif
#   From: 2010.05.17/outbox.cif.g08.bks.cpg/sg44_14_cif.got.tgz:26108.got - 2010.06.03 19:37:08.
