data_PCOD9373084
_publ_section_title
;
Structure prediction by ZEFSAII (Michael W. Deem and Ramdas Pophale) SiO2 
 PCOD9373084
Probable space group: I M M 2
;
_chemical_formula_sum "Si O2"
_cell_formula_units_Z 64
_cell_length_a 8.228567
_cell_length_b 31.335630
_cell_length_c 15.120294
_cell_angle_alpha 90.000000
_cell_angle_beta 90.000000
_cell_angle_gamma 90.000000
_cell_volume 3898.727451
_symmetry_space_group_name_H-M "I M M 2"
_symmetry_group_IT_number 44
_symmetry_cell_setting 'orthorhombic'
loop_
_space_group_symop_operation_xyz
x,y,z
-x,-y,z
-x,y,z
x,-y,z
1/2+x,1/2+y,1/2+z
1/2-x,1/2-y,1/2+z
1/2-x,1/2+y,1/2+z
1/2+x,1/2-y,1/2+z
loop_
_atom_site_type_symbol
_atom_site_label
_atom_site_fract_x
_atom_site_fract_y
_atom_site_fract_z
Si Si1 0.302592 0.290506 0.995910
Si Si2 0.198271 0.548258 0.397782
Si Si3 0.805191 0.547876 0.194494
Si Si4 0.306622 0.292981 0.605482
Si Si5 0.195919 0.365800 0.478631
Si Si6 0.690004 0.174346 0.789599
Si Si7 0.692054 0.723829 0.798554
Si Si8 0.312217 0.632530 0.115212
O O1 0.500000 0.291387 0.994516
O O2 0.241483 0.288831 0.894725
O O3 0.258173 0.247570 0.049711
O O4 0.241869 0.332885 0.046420
O O5 0.249117 0.500000 0.419497
O O6 0.249084 0.557506 0.295951
O O7 0.250709 0.585379 0.464459
O O8 0.000000 0.548958 0.397412
O O9 0.746617 0.500000 0.171996
O O10 0.759425 0.585502 0.128211
O O11 0.000000 0.546366 0.198095
O O12 0.500000 0.286981 0.610718
O O13 0.268373 0.336773 0.555159
O O14 0.239808 0.293544 0.705956
O O15 0.235304 0.343323 0.385238
O O16 0.000000 0.365030 0.488159
O O17 0.500000 0.162633 0.773873
O O18 0.703170 0.225091 0.791190
O O19 0.791831 0.154774 0.710585
O O20 0.500000 0.712590 0.800888
O O21 0.500000 0.627231 0.093066
#
# Coordination Sequence:
#
# PCOD9373084 Si02
#       8
#     8   8   8   8   8   8   8   8
#     4  10  20  35  49  64  90 127 162 187 226 282
#     4   8  14  26  46  69  89 118 160 190 212 265
#     4   9  17  31  50  68  91 126 162 189 222 284
#     4  11  21  31  47  70  92 118 157 201 233 267
#     4  10  18  30  48  67  92 127 156 188 227 275
#     4  10  17  29  48  65  90 130 164 184 219 280
#     4   9  18  33  48  61  87 127 163 190 222 270
#     4  11  21  29  45  72  99 123 153 201 241 267
#
# _framework density 16.415613
#
# number of rings (size 3 to 8) (size 9 to 14) (size 15 to 20)
#    0.000    2.250    3.750    1.500    0.000    1.250 
#    0.000    1.250    0.000    0.375    0.000    0.875 
#    0.000    5.000    0.000    0.000    0.000    0.000 
#
# Total GULP energy -178323.404246 kJ/mol
# GULP energy per Si atom -5572.606383 kJ/mol
# Density = 1.637825 g / cm^3
# Si number density = 16.415613 Si / 1000 Ang^3
#
#
#
# Elastic Constant Matrix: (Units=GPa)
#
#
# Indices 1 2 3 4 5 6 
#
# 1 7.9774 12.4763 12.3679 0.0000 0.0000 0.0000
# 2 12.4763 111.6067 65.6632 0.0000 0.0000 0.0000
# 3 12.3679 65.6632 108.2443 0.0000 0.0000 0.0000
# 4 0.0000 0.0000 0.0000 23.9920 0.0000 0.0000
# 5 0.0000 0.0000 0.0000 0.0000 15.8690 0.0000
# 6 0.0000 0.0000 0.0000 0.0000 0.0000 23.5430
#
#
#
# Elastic Compliance Matrix: (Units=1/GPa)
#
#
# Indices 1 2 3 4 5 6 
#
# 1 0.160783 -0.011142 -0.011612 0.000000 0.000000 0.000000
# 2 -0.011142 0.014705 -0.007647 0.000000 0.000000 0.000000
# 3 -0.011612 -0.007647 0.015204 0.000000 0.000000 0.000000
# 4 0.000000 0.000000 0.000000 0.041681 0.000000 0.000000
# 5 0.000000 0.000000 0.000000 0.000000 0.063016 0.000000
# 6 0.000000 0.000000 0.000000 0.000000 0.000000 0.042476
#
#
# Mechanical properties :
#
#
# Convention : Reuss Voigt Hill
#
# Bulk Modulus (GPa) = 7.69884 45.42701 26.56293
# Shear Modulus (GPa) = 11.31319 21.83552 16.57436
#
# Velocity S-wave (km/s) = 2.62806 3.65110 3.18098
# Velocity P-wave (km/s) = 3.72948 6.74590 5.45052
#
# Compressibility (1/GPa) = 0.12988963
#
# Stress axis : x y z
#
# Youngs Moduli (GPa) = 6.21958 68.00553 65.77187
#
# Poissons Ratio (x) = 0.75769 0.76375
# Poissons Ratio (y) = 0.06930 0.50297
# Poissons Ratio (z) = 0.07222 0.52005
#
# Static dielectric constant tensor:
#      x y z
#    x 1.586390 0.000000 0.000000 
#    y 0.000000 1.567260 0.000000 
#    z 0.000000 0.000000 1.554760 
# 
# From -- ./inp_files/17073.got.cif
#   From: 2010.05.17/outbox.cif.g08.bks.cpg/sg44_9_cif.got.tgz:17073.got - 2010.06.03 19:37:08.
