data_PCOD9373862
_publ_section_title
;
Structure prediction by ZEFSAII (Michael W. Deem and Ramdas Pophale) SiO2 
 PCOD9373862
Probable space group: I M M 2
;
_chemical_formula_sum "Si O2"
_cell_formula_units_Z 56
_cell_length_a 24.291477
_cell_length_b 9.141683
_cell_length_c 13.868392
_cell_angle_alpha 90.000000
_cell_angle_beta 90.000000
_cell_angle_gamma 90.000000
_cell_volume 3079.684225
_symmetry_space_group_name_H-M "I M M 2"
_symmetry_group_IT_number 44
_symmetry_cell_setting 'orthorhombic'
loop_
_space_group_symop_operation_xyz
x,y,z
-x,-y,z
-x,y,z
x,-y,z
1/2+x,1/2+y,1/2+z
1/2-x,1/2-y,1/2+z
1/2-x,1/2+y,1/2+z
1/2+x,1/2-y,1/2+z
loop_
_atom_site_type_symbol
_atom_site_label
_atom_site_fract_x
_atom_site_fract_y
_atom_site_fract_z
Si Si1 0.835989 0.325508 0.134230
Si Si2 0.063780 0.175045 0.032463
Si Si3 0.873469 0.673121 0.636644
Si Si4 0.664324 0.325194 0.835231
Si Si5 0.935991 0.674073 0.438399
Si Si6 0.774703 0.825385 0.530105
Si Si7 0.936159 0.175005 0.807017
O O1 0.839595 0.500000 0.144259
O O2 0.821162 0.253133 0.236049
O O3 0.787679 0.290423 0.057972
O O4 0.893306 0.260046 0.097669
O O5 0.073984 0.208966 0.919454
O O6 0.000000 0.210563 0.053627
O O7 0.070357 0.000000 0.044626
O O8 0.867065 0.500000 0.648104
O O9 0.916473 0.699309 0.548659
O O10 0.816666 0.744005 0.601175
O O11 0.896596 0.743852 0.733479
O O12 0.662580 0.500000 0.823326
O O13 0.605268 0.265280 0.871655
O O14 0.706995 0.288736 0.921299
O O15 0.929088 0.500000 0.419252
O O16 0.000000 0.711503 0.426051
O O17 0.782472 0.000000 0.541567
O O18 0.000000 0.213333 0.786261
O O19 0.930738 0.000000 0.795577
#
# Coordination Sequence:
#
# PCOD9373862 Si02
#       7
#     8   8   8   8   8   8   8
#     4  11  23  39  60  84 109 139 176 220 271 322
#     4   9  20  39  59  80 108 142 182 224 264 315
#     4  10  19  31  52  82 113 145 183 227 273 320
#     4  10  21  38  58  80 108 141 180 223 265 317
#     4   9  18  33  52  77 111 147 183 225 271 317
#     4   9  21  40  57  77 108 143 181 223 265 318
#     4   9  18  33  53  78 111 150 187 223 267 320
#
# _framework density 18.183682999999998
#
# number of rings (size 3 to 8) (size 9 to 14) (size 15 to 20)
#    0.000    2.429    0.000    2.571    0.000    6.000 
#    0.000    4.286    0.000    0.000    0.000    0.000 
#    0.000    0.000    0.000    0.000    0.000    0.000 
#
# Total GULP energy -156303.482210 kJ/mol
# GULP energy per Si atom -5582.267222 kJ/mol
# Density = 1.814230 g / cm^3
# Si number density = 18.183683 Si / 1000 Ang^3
#
#
#
# Elastic Constant Matrix: (Units=GPa)
#
#
# Indices 1 2 3 4 5 6 
#
# 1 99.1605 49.7365 64.6326 0.0000 0.0000 0.0000
# 2 49.7365 44.0451 51.2664 0.0000 0.0000 0.0000
# 3 64.6326 51.2664 91.2625 0.0000 0.0000 0.0000
# 4 0.0000 0.0000 0.0000 31.2443 0.0000 0.0000
# 5 0.0000 0.0000 0.0000 0.0000 18.9246 0.0000
# 6 0.0000 0.0000 0.0000 0.0000 0.0000 26.5534
#
#
#
# Elastic Compliance Matrix: (Units=1/GPa)
#
#
# Indices 1 2 3 4 5 6 
#
# 1 0.024063 -0.021195 -0.005135 0.000000 0.000000 0.000000
# 2 -0.021195 0.084258 -0.032321 0.000000 0.000000 0.000000
# 3 -0.005135 -0.032321 0.032751 0.000000 0.000000 0.000000
# 4 0.000000 0.000000 0.000000 0.032006 0.000000 0.000000
# 5 0.000000 0.000000 0.000000 0.000000 0.052841 0.000000
# 6 0.000000 0.000000 0.000000 0.000000 0.000000 0.037660
#
#
# Mechanical properties :
#
#
# Convention : Reuss Voigt Hill
#
# Bulk Modulus (GPa) = 42.07237 62.85989 52.46613
# Shear Modulus (GPa) = 12.85995 19.93330 16.39663
#
# Velocity S-wave (km/s) = 2.66225 3.31451 3.00613
# Velocity P-wave (km/s) = 5.71295 7.02086 6.40040
#
# Compressibility (1/GPa) = 0.02376857
#
# Stress axis : x y z
#
# Youngs Moduli (GPa) = 41.55839 11.86827 30.53381
#
# Poissons Ratio (x) = 0.25155 0.15679
# Poissons Ratio (y) = 0.88082 0.98690
# Poissons Ratio (z) = 0.21341 0.38360
#
# Static dielectric constant tensor:
#      x y z
#    x 1.604070 0.000000 0.000000 
#    y 0.000000 1.598530 0.000000 
#    z 0.000000 0.000000 1.612980 
# 
# From -- ./inp_files/16488.got.cif
#   From: 2010.05.17/outbox.cif.g08.bks.cpg/sg44_9_cif.got.tgz:16488.got - 2010.06.03 19:37:08.
