data_PCOD9373401
_publ_section_title
;
Structure prediction by ZEFSAII (Michael W. Deem and Ramdas Pophale) SiO2 
 PCOD9373401
Probable space group: I M M 2
;
_chemical_formula_sum "Si O2"
_cell_formula_units_Z 64
_cell_length_a 34.203047
_cell_length_b 9.327753
_cell_length_c 11.971404
_cell_angle_alpha 90.000000
_cell_angle_beta 90.000000
_cell_angle_gamma 90.000000
_cell_volume 3819.327693
_symmetry_space_group_name_H-M "I M M 2"
_symmetry_group_IT_number 44
_symmetry_cell_setting 'orthorhombic'
loop_
_space_group_symop_operation_xyz
x,y,z
-x,-y,z
-x,y,z
x,-y,z
1/2+x,1/2+y,1/2+z
1/2-x,1/2-y,1/2+z
1/2-x,1/2+y,1/2+z
1/2+x,1/2-y,1/2+z
loop_
_atom_site_type_symbol
_atom_site_label
_atom_site_fract_x
_atom_site_fract_y
_atom_site_fract_z
Si Si1 0.324886 0.328398 0.670840
Si Si2 0.122343 0.672739 0.744643
Si Si3 0.454330 0.335057 0.913891
Si Si4 0.386523 0.165074 0.811842
Si Si5 0.955311 0.171367 0.679767
Si Si6 0.182917 0.328757 0.937125
Si Si7 0.729830 0.329308 0.877130
Si Si8 0.329454 0.166055 0.026111
O O1 0.326537 0.500000 0.663095
O O2 0.364349 0.263424 0.723112
O O3 0.318017 0.257382 0.551759
O O4 0.291205 0.288630 0.761037
O O5 0.117710 0.500000 0.736577
O O6 0.080106 0.746631 0.738529
O O7 0.146957 0.706146 0.855568
O O8 0.148991 0.717849 0.638088
O O9 0.500000 0.326263 0.885972
O O10 0.441198 0.500000 0.897130
O O11 0.428368 0.228083 0.843052
O O12 0.450840 0.303949 0.046308
O O13 0.387798 0.000000 0.775412
O O14 0.361101 0.171561 0.926050
O O15 0.000000 0.213804 0.710282
O O16 0.952094 0.000000 0.697430
O O17 0.181758 0.500000 0.959191
O O18 0.224297 0.297533 0.877529
O O19 0.724782 0.500000 0.890057
O O20 0.707382 0.253067 0.979249
O O21 0.318009 0.000000 0.043877
#
# Coordination Sequence:
#
# PCOD9373401 Si02
#       8
#     8   8   8   8   8   8   8   8
#     4  10  21  37  56  76 101 137 180 217 262 318
#     4  10  20  34  53  78 109 143 177 220 268 318
#     4   9  17  29  47  75 110 142 171 209 260 316
#     4  10  18  31  52  76 104 137 173 215 260 309
#     4   9  18  32  51  77 111 145 177 219 267 318
#     4  10  22  38  54  75 106 139 176 223 270 314
#     4   9  20  36  54  75 101 136 173 217 266 312
#     4   9  18  31  50  76 104 135 172 212 257 310
#
# _framework density 16.756875000000001
#
# number of rings (size 3 to 8) (size 9 to 14) (size 15 to 20)
#    0.000    2.500    1.250    1.500    1.750    3.000 
#    0.000    1.250    0.000    0.750    0.000    3.500 
#    0.000    0.000    0.000    0.000    0.000    0.000 
#
# Total GULP energy -178440.810000 kJ/mol
# GULP energy per Si atom -5576.275312 kJ/mol
# Density = 1.671874 g / cm^3
# Si number density = 16.756875 Si / 1000 Ang^3
#
#
#
# Elastic Constant Matrix: (Units=GPa)
#
#
# Indices 1 2 3 4 5 6 
#
# 1 121.9427 54.6857 54.1160 0.0000 0.0000 0.0000
# 2 54.6857 46.2387 44.6498 0.0000 0.0000 0.0000
# 3 54.1160 44.6498 84.5325 0.0000 0.0000 0.0000
# 4 0.0000 0.0000 0.0000 23.7039 0.0000 0.0000
# 5 0.0000 0.0000 0.0000 0.0000 20.2045 0.0000
# 6 0.0000 0.0000 0.0000 0.0000 0.0000 31.9998
#
#
#
# Elastic Compliance Matrix: (Units=1/GPa)
#
#
# Indices 1 2 3 4 5 6 
#
# 1 0.017475 -0.020134 -0.000552 0.000000 0.000000 0.000000
# 2 -0.020134 0.067337 -0.022678 0.000000 0.000000 0.000000
# 3 -0.000552 -0.022678 0.024162 0.000000 0.000000 0.000000
# 4 0.000000 0.000000 0.000000 0.042187 0.000000 0.000000
# 5 0.000000 0.000000 0.000000 0.000000 0.049494 0.000000
# 6 0.000000 0.000000 0.000000 0.000000 0.000000 0.031250
#
#
# Mechanical properties :
#
#
# Convention : Reuss Voigt Hill
#
# Bulk Modulus (GPa) = 44.95282 62.17964 53.56623
# Shear Modulus (GPa) = 15.33510 21.79915 18.56712
#
# Velocity S-wave (km/s) = 3.02843 3.61072 3.33232
# Velocity P-wave (km/s) = 6.25406 7.38719 6.84412
#
# Compressibility (1/GPa) = 0.02224555
#
# Stress axis : x y z
#
# Youngs Moduli (GPa) = 57.22556 14.85057 41.38712
#
# Poissons Ratio (x) = 0.29899 0.02287
# Poissons Ratio (y) = 1.15215 0.93859
# Poissons Ratio (z) = 0.03162 0.33679
#
# Static dielectric constant tensor:
#      x y z
#    x 1.560240 0.000000 0.000000 
#    y 0.000000 1.562510 0.000000 
#    z 0.000000 0.000000 1.545930 
# 
# From -- ./inp_files/15039.got.cif
#   From: 2010.05.17/outbox.cif.g08.bks.cpg/sg44_8_cif.got.tgz:15039.got - 2010.06.03 19:37:08.
