data_PCOD9373429
_publ_section_title
;
Structure prediction by ZEFSAII (Michael W. Deem and Ramdas Pophale) SiO2 
 PCOD9373429
Probable space group: I M M 2
;
_chemical_formula_sum "Si O2"
_cell_formula_units_Z 64
_cell_length_a 8.519848
_cell_length_b 29.167280
_cell_length_c 13.000641
_cell_angle_alpha 90.000000
_cell_angle_beta 90.000000
_cell_angle_gamma 90.000000
_cell_volume 3230.669587
_symmetry_space_group_name_H-M "I M M 2"
_symmetry_group_IT_number 44
_symmetry_cell_setting 'orthorhombic'
loop_
_space_group_symop_operation_xyz
x,y,z
-x,-y,z
-x,y,z
x,-y,z
1/2+x,1/2+y,1/2+z
1/2-x,1/2-y,1/2+z
1/2-x,1/2+y,1/2+z
1/2+x,1/2-y,1/2+z
loop_
_atom_site_type_symbol
_atom_site_label
_atom_site_fract_x
_atom_site_fract_y
_atom_site_fract_z
Si Si1 0.187867 0.618775 0.894050
Si Si2 0.184972 0.167131 0.722003
Si Si3 0.309977 0.447093 0.714557
Si Si4 0.308987 0.048757 0.563525
Si Si5 0.318404 0.072146 0.783324
Si Si6 0.684331 0.698026 0.445724
Si Si7 0.688504 0.405553 0.496463
Si Si8 0.314589 0.704777 0.998443
O O1 0.252121 0.590104 0.797558
O O2 0.237487 0.671099 0.914074
O O3 0.000000 0.616692 0.890266
O O4 0.246241 0.590714 0.994889
O O5 0.295930 0.124941 0.750059
O O6 0.196391 0.199280 0.821658
O O7 0.229712 0.188500 0.613441
O O8 0.000000 0.152250 0.717988
O O9 0.500000 0.447197 0.716460
O O10 0.258116 0.500000 0.733221
O O11 0.258800 0.429744 0.601236
O O12 0.500000 0.051689 0.568537
O O13 0.251860 0.048851 0.680762
O O14 0.268370 0.000000 0.513893
O O15 0.500000 0.059734 0.794652
O O16 0.238277 0.067638 0.893497
O O17 0.500000 0.700922 0.472422
O O18 0.741599 0.647768 0.484028
O O19 0.770095 0.742295 0.487951
O O20 0.500000 0.404042 0.497335
O O21 0.500000 0.699367 0.988223
#
# Coordination Sequence:
#
# PCOD9373429 Si02
#       8
#     8   8   8   8   8   8   8   8
#     4  11  22  38  59  83 115 155 198 244 296 354
#     4   9  19  36  55  75 109 149 183 230 289 347
#     4  10  22  41  63  87 120 162 206 252 301 355
#     4   9  18  32  51  79 113 144 177 225 282 335
#     4  10  18  31  55  83 109 142 186 232 282 341
#     4   9  19  36  56  80 110 150 195 240 295 354
#     4   9  20  39  59  81 116 156 193 239 296 350
#     4  11  22  36  57  84 114 149 195 247 300 357
#
# _framework density 19.810136
#
# number of rings (size 3 to 8) (size 9 to 14) (size 15 to 20)
#    0.000    2.250    1.250    2.250    0.000    5.250 
#    0.000    2.500    0.000    3.375    0.000    0.000 
#    0.000    0.000    0.000    0.000    0.000    0.000 
#
# Total GULP energy -178408.572607 kJ/mol
# GULP energy per Si atom -5575.267894 kJ/mol
# Density = 1.976505 g / cm^3
# Si number density = 19.810136 Si / 1000 Ang^3
#
#
#
# Elastic Constant Matrix: (Units=GPa)
#
#
# Indices 1 2 3 4 5 6 
#
# 1 12.1414 11.8986 19.7374 0.0000 0.0000 0.0000
# 2 11.8986 55.2712 21.7754 -0.0001 0.0000 0.0000
# 3 19.7374 21.7754 103.3265 -0.0003 0.0000 0.0000
# 4 0.0000 -0.0001 -0.0003 22.1007 0.0000 0.0000
# 5 0.0000 0.0000 0.0000 0.0000 25.5509 0.0000
# 6 0.0000 0.0000 0.0000 0.0000 0.0000 1.4790
#
#
#
# Elastic Compliance Matrix: (Units=1/GPa)
#
#
# Indices 1 2 3 4 5 6 
#
# 1 0.139093 -0.021239 -0.022094 0.000000 0.000000 0.000000
# 2 -0.021239 0.022974 -0.000784 0.000000 0.000000 0.000000
# 3 -0.022094 -0.000784 0.014064 0.000000 0.000000 0.000000
# 4 0.000000 0.000000 0.000000 0.045247 0.000000 -0.000001
# 5 0.000000 0.000000 0.000000 0.000000 0.039138 0.000000
# 6 0.000000 0.000000 0.000000 -0.000001 0.000000 0.676130
#
#
# Mechanical properties :
#
#
# Convention : Reuss Voigt Hill
#
# Bulk Modulus (GPa) = 11.37706 30.84022 21.10864
# Shear Modulus (GPa) = 4.74303 17.64798 11.19551
#
# Velocity S-wave (km/s) = 1.54901 2.98796 2.37985
# Velocity P-wave (km/s) = 2.99245 5.24458 4.26968
#
# Compressibility (1/GPa) = 0.08789619
#
# Stress axis : x y z
#
# Youngs Moduli (GPa) = 7.18944 43.52757 71.10505
#
# Poissons Ratio (x) = 0.92449 1.57096
# Poissons Ratio (y) = 0.15270 0.05578
# Poissons Ratio (z) = 0.15884 0.03415
#
# Static dielectric constant tensor:
#      x y z
#    x 1.681040 0.000000 0.000000 
#    y 0.000000 1.713550 0.000000 
#    z 0.000000 0.000000 1.708590 
# 
# From -- ./inp_files/11545.got.cif
#   From: 2010.05.17/outbox.cif.g08.bks.cpg/sg44_6_cif.got.tgz:11545.got - 2010.06.03 19:37:08.
