data_PCOD9373746
_publ_section_title
;
Structure prediction by ZEFSAII (Michael W. Deem and Ramdas Pophale) SiO2 
 PCOD9373746
Probable space group: I M M 2
;
_chemical_formula_sum "Si O2"
_cell_formula_units_Z 64
_cell_length_a 25.482455
_cell_length_b 17.868877
_cell_length_c 5.615936
_cell_angle_alpha 90.000000
_cell_angle_beta 90.000000
_cell_angle_gamma 90.000000
_cell_volume 2557.176326
_symmetry_space_group_name_H-M "I M M 2"
_symmetry_group_IT_number 44
_symmetry_cell_setting 'orthorhombic'
loop_
_space_group_symop_operation_xyz
x,y,z
-x,-y,z
-x,y,z
x,-y,z
1/2+x,1/2+y,1/2+z
1/2-x,1/2-y,1/2+z
1/2-x,1/2+y,1/2+z
1/2+x,1/2-y,1/2+z
loop_
_atom_site_type_symbol
_atom_site_label
_atom_site_fract_x
_atom_site_fract_y
_atom_site_fract_z
Si Si1 0.140328 0.266523 0.266130
Si Si2 0.915568 0.583655 0.262463
Si Si3 0.249773 0.171823 0.797380
Si Si4 0.058821 0.909240 0.957099
Si Si5 0.909317 0.414529 0.762109
Si Si6 0.231200 0.090063 0.306143
Si Si7 0.138888 0.744321 0.764828
Si Si8 0.889595 0.909608 0.454451
O O1 0.128904 0.354868 0.264775
O O2 0.202879 0.268429 0.289497
O O3 0.116056 0.235221 0.507278
O O4 0.116190 0.237398 0.022798
O O5 0.894198 0.500000 0.262311
O O6 0.941717 0.592990 0.518494
O O7 0.941482 0.593215 0.006212
O O8 0.254989 0.122090 0.555659
O O9 0.196298 0.219749 0.780032
O O10 0.247746 0.125672 0.048351
O O11 0.096677 0.889359 0.731636
O O12 0.000000 0.881941 0.899742
O O13 0.058330 0.000000 0.955165
O O14 0.072637 0.890443 0.231825
O O15 0.887635 0.500000 0.762134
O O16 0.866852 0.347155 0.761124
O O17 0.169108 0.106463 0.352725
O O18 0.238700 0.000000 0.293712
O O19 0.890871 0.000000 0.466617
#
# Coordination Sequence:
#
# PCOD9373746 Si02
#       8
#     8   8   8   8   8   8   8   8
#     4  10  19  31  45  62  81 100 124 168 225 271
#     4   8  14  23  36  53  72  93 114 140 186 250
#     4  12  22  34  49  63  78 106 146 183 214 259
#     4   9  15  24  43  69  88 104 132 170 214 258
#     4   8  14  25  40  58  78  96 112 138 192 265
#     4  11  24  38  48  61  84 118 155 184 215 254
#     4  10  19  32  48  65  83 101 127 169 225 273
#     4   9  17  30  44  58  84 115 138 170 214 252
#
# _framework density 25.027604
#
# number of rings (size 3 to 8) (size 9 to 14) (size 15 to 20)
#    0.000    2.375    0.000    3.750    0.000    4.500 
#    0.000    5.000    0.000    0.000    0.000    0.000 
#    0.000    0.000    0.000    0.000    0.000    0.000 
#
# Total GULP energy -178232.602227 kJ/mol
# GULP energy per Si atom -5569.768820 kJ/mol
# Density = 2.497064 g / cm^3
# Si number density = 25.027604 Si / 1000 Ang^3
#
#
#
# Elastic Constant Matrix: (Units=GPa)
#
#
# Indices 1 2 3 4 5 6 
#
# 1 41.4821 15.2279 30.1123 0.0000 0.0000 0.0000
# 2 15.2279 108.6275 55.9276 0.0000 0.0000 0.0000
# 3 30.1123 55.9276 347.7604 0.0000 0.0000 0.0000
# 4 0.0000 0.0000 0.0000 53.9166 0.0000 0.0000
# 5 0.0000 0.0000 0.0000 0.0000 -139.2274 0.0000
# 6 0.0000 0.0000 0.0000 0.0000 0.0000 -28.4233
#
#
#
# Elastic Compliance Matrix: (Units=1/GPa)
#
#
# Indices 1 2 3 4 5 6 
#
# 1 0.026461 -0.002758 -0.001848 0.000000 0.000000 0.000000
# 2 -0.002758 0.010324 -0.001422 0.000000 0.000000 0.000000
# 3 -0.001848 -0.001422 0.003264 0.000000 0.000000 0.000000
# 4 0.000000 0.000000 0.000000 0.018547 0.000000 0.000000
# 5 0.000000 0.000000 0.000000 0.000000 -0.007182 0.000000
# 6 0.000000 0.000000 0.000000 0.000000 0.000000 -0.035182
#
#
# Mechanical properties :
#
#
# Convention : Reuss Voigt Hill
#
# Bulk Modulus (GPa) = 35.72144 77.82285 56.77215
# Shear Modulus (GPa) = 132.91764 3.69333 68.30549
#
# Velocity S-wave (km/s) = 7.29546 1.21610 5.22985
# Velocity P-wave (km/s) = 9.23411 5.75623 7.69425
#
# Compressibility (1/GPa) = 0.02799439
#
# Stress axis : x y z
#
# Youngs Moduli (GPa) = 37.79216 96.85878 306.35888
#
# Poissons Ratio (x) = 0.26715 0.56604
# Poissons Ratio (y) = 0.10423 0.43551
# Poissons Ratio (z) = 0.06983 0.13769
#
# Static dielectric constant tensor:
#      x y z
#    x 1.941520 0.000000 0.000000 
#    y 0.000000 2.117640 0.000000 
#    z 0.000000 0.000000 2.072440 
# 
# From -- ./inp_files/3366.got.cif
#   From: 2010.05.17/outbox.cif.g08.bks.cpg/sg44_2_cif.got.tgz:3366.got - 2010.06.03 19:37:08.
