data_PCOD9373205
_publ_section_title
;
Structure prediction by ZEFSAII (Michael W. Deem and Ramdas Pophale) SiO2 
 PCOD9373205
Probable space group: I M M 2
;
_chemical_formula_sum "Si O2"
_cell_formula_units_Z 56
_cell_length_a 8.601676
_cell_length_b 30.291644
_cell_length_c 14.139048
_cell_angle_alpha 90.000000
_cell_angle_beta 90.000000
_cell_angle_gamma 90.000000
_cell_volume 3684.054896
_symmetry_space_group_name_H-M "I M M 2"
_symmetry_group_IT_number 44
_symmetry_cell_setting 'orthorhombic'
loop_
_space_group_symop_operation_xyz
x,y,z
-x,-y,z
-x,y,z
x,-y,z
1/2+x,1/2+y,1/2+z
1/2-x,1/2-y,1/2+z
1/2-x,1/2+y,1/2+z
1/2+x,1/2-y,1/2+z
loop_
_atom_site_type_symbol
_atom_site_label
_atom_site_fract_x
_atom_site_fract_y
_atom_site_fract_z
Si Si1 0.687524 0.268276 0.862770
Si Si2 0.678925 0.000000 0.866642
Si Si3 0.187574 0.817881 0.962831
Si Si4 0.311849 0.268794 0.649563
Si Si5 0.186331 0.093879 0.859926
Si Si6 0.179741 0.500000 0.136736
Si Si7 0.312595 0.904188 0.647155
Si Si8 0.813499 0.182191 0.549997
O O1 0.500000 0.266133 0.864316
O O2 0.750921 0.220605 0.894235
O O3 0.737014 0.279495 0.756356
O O4 0.734745 0.302788 0.944284
O O5 0.758950 0.045799 0.894787
O O6 0.500000 0.000000 0.896361
O O7 0.681415 0.000000 0.751524
O O8 0.238149 0.865794 0.926653
O O9 0.000000 0.817005 0.959959
O O10 0.235953 0.803758 0.068805
O O11 0.500000 0.265919 0.647781
O O12 0.244616 0.221615 0.617826
O O13 0.252955 0.101462 0.754559
O O14 0.000000 0.094086 0.853962
O O15 0.246709 0.547811 0.110654
O O16 0.000000 0.500000 0.105312
O O17 0.500000 0.905609 0.650158
O O18 0.256632 0.863749 0.584114
O O19 0.000000 0.179925 0.554113
#
# Coordination Sequence:
#
# PCOD9373205 Si02
#       8
#     8   4   8   8   8   4   8   8
#     4   9  18  30  44  60  83 113 144 175 209 249
#     4   9  17  29  43  61  86 117 146 172 205 256
#     4   9  18  29  43  63  86 110 141 176 212 251
#     4   9  17  31  46  60  81 114 147 174 207 253
#     4  10  18  28  43  65  90 114 140 178 217 248
#     4   7  14  27  41  57  78 103 136 168 195 234
#     4  10  18  29  44  62  85 115 144 171 206 256
#     4  10  19  29  41  63  88 110 139 177 214 249
#
# _framework density 15.200642
#
# number of rings (size 3 to 8) (size 9 to 14) (size 15 to 20)
#    0.000    2.714    0.000    3.214    0.000    4.571 
#    0.000    1.071    0.000    0.000    0.000    1.000 
#    0.000    5.714    0.000    0.000    0.000    0.000 
#
# Total GULP energy -155971.935568 kJ/mol
# GULP energy per Si atom -5570.426270 kJ/mol
# Density = 1.516604 g / cm^3
# Si number density = 15.200642 Si / 1000 Ang^3
#
#
#
# Elastic Constant Matrix: (Units=GPa)
#
#
# Indices 1 2 3 4 5 6 
#
# 1 27.2893 30.0337 20.5641 0.0000 0.0000 0.0000
# 2 30.0337 160.9137 69.8531 0.0000 0.0000 0.0000
# 3 20.5641 69.8531 97.1786 0.0000 0.0000 0.0000
# 4 0.0000 0.0000 0.0000 22.3057 0.0000 0.0000
# 5 0.0000 0.0000 0.0000 0.0000 12.7323 0.0000
# 6 0.0000 0.0000 0.0000 0.0000 0.0000 21.6500
#
#
#
# Elastic Compliance Matrix: (Units=1/GPa)
#
#
# Indices 1 2 3 4 5 6 
#
# 1 0.047993 -0.006612 -0.005403 0.000000 0.000000 0.000000
# 2 -0.006612 0.009944 -0.005749 0.000000 0.000000 0.000000
# 3 -0.005403 -0.005749 0.015566 0.000000 0.000000 0.000000
# 4 0.000000 0.000000 0.000000 0.044832 0.000000 0.000000
# 5 0.000000 0.000000 0.000000 0.000000 0.078540 0.000000
# 6 0.000000 0.000000 0.000000 0.000000 0.000000 0.046189
#
#
# Mechanical properties :
#
#
# Convention : Reuss Voigt Hill
#
# Bulk Modulus (GPa) = 26.33290 58.47595 42.40443
# Shear Modulus (GPa) = 17.16733 22.33299 19.75016
#
# Velocity S-wave (km/s) = 3.36427 3.83719 3.60849
# Velocity P-wave (km/s) = 5.69669 7.62791 6.73191
#
# Compressibility (1/GPa) = 0.03797530
#
# Stress axis : x y z
#
# Youngs Moduli (GPa) = 20.83635 100.56095 64.24266
#
# Poissons Ratio (x) = 0.66493 0.34710
# Poissons Ratio (y) = 0.13777 0.36932
# Poissons Ratio (z) = 0.11258 0.57811
#
# Static dielectric constant tensor:
#      x y z
#    x 1.516610 0.000000 0.000000 
#    y 0.000000 1.511690 0.000000 
#    z 0.000000 0.000000 1.499650 
# 
# From -- ./inp_files/17055.got.cif
#   From: 2010.05.17/outbox.cif.g08.bks.cpg/sg44_9_cif.got.tgz:17055.got - 2010.06.03 19:37:08.
