data_PCOD9373294
_publ_section_title
;
Structure prediction by ZEFSAII (Michael W. Deem and Ramdas Pophale) SiO2 
 PCOD9373294
Probable space group: I M M 2
;
_chemical_formula_sum "Si O2"
_cell_formula_units_Z 64
_cell_length_a 28.619295
_cell_length_b 8.970909
_cell_length_c 14.964490
_cell_angle_alpha 90.000000
_cell_angle_beta 90.000000
_cell_angle_gamma 90.000000
_cell_volume 3841.999490
_symmetry_space_group_name_H-M "I M M 2"
_symmetry_group_IT_number 44
_symmetry_cell_setting 'orthorhombic'
loop_
_space_group_symop_operation_xyz
x,y,z
-x,-y,z
-x,y,z
x,-y,z
1/2+x,1/2+y,1/2+z
1/2-x,1/2-y,1/2+z
1/2-x,1/2+y,1/2+z
1/2+x,1/2-y,1/2+z
loop_
_atom_site_type_symbol
_atom_site_label
_atom_site_fract_x
_atom_site_fract_y
_atom_site_fract_z
Si Si1 0.054036 0.820651 0.176190
Si Si2 0.173991 0.320877 0.476288
Si Si3 0.329686 0.180112 0.170467
Si Si4 0.771621 0.167977 0.220236
Si Si5 0.947296 0.181218 0.970332
Si Si6 0.232646 0.668728 0.922896
Si Si7 0.362345 0.822122 0.782388
Si Si8 0.641280 0.320703 0.355928
O O1 0.091075 0.747070 0.241665
O O2 0.000000 0.783194 0.196584
O O3 0.058490 0.000000 0.180794
O O4 0.063005 0.775309 0.072920
O O5 0.178372 0.500000 0.473570
O O6 0.151337 0.282229 0.571941
O O7 0.225755 0.252434 0.472515
O O8 0.147192 0.274905 0.385708
O O9 0.274551 0.222491 0.169814
O O10 0.353062 0.257248 0.255634
O O11 0.331338 0.000000 0.183163
O O12 0.752282 0.159830 0.321547
O O13 0.817745 0.266696 0.224789
O O14 0.783545 0.000000 0.190122
O O15 0.907027 0.227570 0.902296
O O16 0.000000 0.230998 0.947675
O O17 0.947827 0.000000 0.969759
O O18 0.225423 0.500000 0.955427
O O19 0.184369 0.757422 0.914371
O O20 0.364511 0.000000 0.780167
O O21 0.643838 0.500000 0.353655
#
# Coordination Sequence:
#
# PCOD9373294 Si02
#       8
#     8   8   8   8   8   8   8   8
#     4   9  18  34  54  71  89 118 154 190 232 286
#     4   9  18  32  48  67  95 132 167 195 228 273
#     4   9  18  32  48  67  96 132 165 196 230 272
#     4   8  15  28  44  61  85 121 159 190 220 260
#     4   8  16  32  52  72  92 117 152 191 234 286
#     4   9  17  29  44  64  93 126 158 194 231 269
#     4  10  19  30  47  71  97 123 152 193 239 278
#     4  10  18  29  49  73  95 122 157 198 240 282
#
# _framework density 16.657992
#
# number of rings (size 3 to 8) (size 9 to 14) (size 15 to 20)
#    0.000    3.000    0.000    2.625    0.000    5.250 
#    0.000    6.250    0.000    3.750    0.000    3.500 
#    0.000    0.000    0.000    0.000    0.000    0.000 
#
# Total GULP energy -178186.155099 kJ/mol
# GULP energy per Si atom -5568.317347 kJ/mol
# Density = 1.662008 g / cm^3
# Si number density = 16.657992 Si / 1000 Ang^3
#
#
#
# Elastic Constant Matrix: (Units=GPa)
#
#
# Indices 1 2 3 4 5 6 
#
# 1 124.5071 44.8949 78.0099 0.0000 0.0000 0.0000
# 2 44.8949 30.4243 33.5656 0.0000 0.0000 0.0000
# 3 78.0099 33.5656 105.4441 0.0000 0.0000 0.0000
# 4 0.0000 0.0000 0.0000 18.1442 0.0000 0.0000
# 5 0.0000 0.0000 0.0000 0.0000 24.6002 0.0000
# 6 0.0000 0.0000 0.0000 0.0000 0.0000 22.4462
#
#
#
# Elastic Compliance Matrix: (Units=1/GPa)
#
#
# Indices 1 2 3 4 5 6 
#
# 1 0.021550 -0.021903 -0.008971 0.000000 0.000000 0.000000
# 2 -0.021903 0.072921 -0.007009 0.000000 0.000000 0.000000
# 3 -0.008971 -0.007009 0.018352 0.000000 0.000000 0.000000
# 4 0.000000 0.000000 0.000000 0.055114 0.000000 0.000000
# 5 0.000000 0.000000 0.000000 0.000000 0.040650 0.000000
# 6 0.000000 0.000000 0.000000 0.000000 0.000000 0.044551
#
#
# Mechanical properties :
#
#
# Convention : Reuss Voigt Hill
#
# Bulk Modulus (GPa) = 26.98462 63.70183 45.34323
# Shear Modulus (GPa) = 14.65177 19.96512 17.30844
#
# Velocity S-wave (km/s) = 2.96896 3.46574 3.22692
# Velocity P-wave (km/s) = 5.29031 7.37151 6.41586
#
# Compressibility (1/GPa) = 0.03705814
#
# Stress axis : x y z
#
# Youngs Moduli (GPa) = 46.40311 13.71347 54.49073
#
# Poissons Ratio (x) = 0.30036 0.48884
# Poissons Ratio (y) = 1.01636 0.38190
# Poissons Ratio (z) = 0.41629 0.09611
#
# Static dielectric constant tensor:
#      x y z
#    x 1.543950 0.000000 0.000000 
#    y 0.000000 1.569840 0.000000 
#    z 0.000000 0.000000 1.591210 
# 
# From -- ./inp_files/19717.got.cif
#   From: 2010.05.17/outbox.cif.g08.bks.cpg/sg44_10_cif.got.tgz:19717.got - 2010.06.03 19:37:08.
