data_PCOD9373383
_publ_section_title
;
Structure prediction by ZEFSAII (Michael W. Deem and Ramdas Pophale) SiO2 
 PCOD9373383
Probable space group: I M M 2
;
_chemical_formula_sum "Si O2"
_cell_formula_units_Z 64
_cell_length_a 8.309102
_cell_length_b 31.321982
_cell_length_c 15.149249
_cell_angle_alpha 90.000000
_cell_angle_beta 90.000000
_cell_angle_gamma 90.000000
_cell_volume 3942.706327
_symmetry_space_group_name_H-M "I M M 2"
_symmetry_group_IT_number 44
_symmetry_cell_setting 'orthorhombic'
loop_
_space_group_symop_operation_xyz
x,y,z
-x,-y,z
-x,y,z
x,-y,z
1/2+x,1/2+y,1/2+z
1/2-x,1/2-y,1/2+z
1/2-x,1/2+y,1/2+z
1/2+x,1/2-y,1/2+z
loop_
_atom_site_type_symbol
_atom_site_label
_atom_site_fract_x
_atom_site_fract_y
_atom_site_fract_z
Si Si1 0.195433 0.676158 0.516530
Si Si2 0.307154 0.867737 0.195693
Si Si3 0.807477 0.048837 0.117606
Si Si4 0.307703 0.707224 0.209406
Si Si5 0.694420 0.951809 0.918232
Si Si6 0.307304 0.291791 0.816834
Si Si7 0.805171 0.366854 0.334166
Si Si8 0.696016 0.725144 0.014141
O O1 0.253446 0.652572 0.603501
O O2 0.247095 0.654997 0.425905
O O3 0.241416 0.725238 0.518202
O O4 0.000000 0.674200 0.517774
O O5 0.500000 0.866641 0.197216
O O6 0.252622 0.916722 0.188516
O O7 0.245654 0.835556 0.270154
O O8 0.000000 0.049881 0.115047
O O9 0.755284 0.000000 0.136117
O O10 0.744457 0.059422 0.018681
O O11 0.500000 0.710883 0.207751
O O12 0.248298 0.749472 0.262621
O O13 0.259428 0.663619 0.258038
O O14 0.248834 0.706206 0.107704
O O15 0.500000 0.951970 0.917760
O O16 0.746285 0.916027 0.847809
O O17 0.752136 0.000000 0.900295
O O18 0.500000 0.289709 0.818047
O O19 0.248365 0.291251 0.918605
O O20 0.000000 0.365876 0.329220
O O21 0.500000 0.722401 0.013321
#
# Coordination Sequence:
#
# PCOD9373383 Si02
#       8
#     8   8   8   8   8   8   8   8
#     4   9  15  27  46  67  95 130 160 190 237 289
#     4  11  20  33  51  72  99 133 168 204 244 294
#     4  10  20  32  47  72 104 132 163 205 246 288
#     4  11  21  33  49  71  96 129 169 206 241 291
#     4   9  17  30  49  71  97 133 170 200 243 303
#     4  11  21  34  51  71  95 129 166 204 248 294
#     4  10  18  31  48  69  97 131 164 201 246 294
#     4   9  18  33  48  63  95 133 163 196 244 290
#
# _framework density 16.232505
#
# number of rings (size 3 to 8) (size 9 to 14) (size 15 to 20)
#    0.000    2.000    3.750    1.500    0.000    1.250 
#    0.000    3.750    0.000    0.000    0.000    0.875 
#    0.000    5.000    0.000    0.000    0.000    0.000 
#
# Total GULP energy -178349.143013 kJ/mol
# GULP energy per Si atom -5573.410719 kJ/mol
# Density = 1.619556 g / cm^3
# Si number density = 16.232505 Si / 1000 Ang^3
#
#
#
# Elastic Constant Matrix: (Units=GPa)
#
#
# Indices 1 2 3 4 5 6 
#
# 1 21.3003 16.4322 17.3916 0.0000 0.0000 0.0000
# 2 16.4322 125.9890 71.5300 0.0000 0.0000 0.0000
# 3 17.3916 71.5300 120.5080 0.0000 0.0000 0.0000
# 4 0.0000 0.0000 0.0000 23.1068 0.0000 0.0000
# 5 0.0000 0.0000 0.0000 0.0000 19.8042 0.0000
# 6 0.0000 0.0000 0.0000 0.0000 0.0000 19.8914
#
#
#
# Elastic Compliance Matrix: (Units=1/GPa)
#
#
# Indices 1 2 3 4 5 6 
#
# 1 0.054515 -0.003987 -0.005501 0.000000 0.000000 0.000000
# 2 -0.003987 0.012263 -0.006704 0.000000 0.000000 0.000000
# 3 -0.005501 -0.006704 0.013071 0.000000 0.000000 0.000000
# 4 0.000000 0.000000 0.000000 0.043277 0.000000 0.000000
# 5 0.000000 0.000000 0.000000 0.000000 0.050494 0.000000
# 6 0.000000 0.000000 0.000000 0.000000 0.000000 0.050273
#
#
# Mechanical properties :
#
#
# Convention : Reuss Voigt Hill
#
# Bulk Modulus (GPa) = 21.06769 53.16722 37.11745
# Shear Modulus (GPa) = 18.37564 23.39004 20.88284
#
# Velocity S-wave (km/s) = 3.36821 3.80009 3.59065
# Velocity P-wave (km/s) = 5.30409 7.21657 6.33294
#
# Compressibility (1/GPa) = 0.04746606
#
# Stress axis : x y z
#
# Youngs Moduli (GPa) = 18.34360 81.54474 76.50404
#
# Poissons Ratio (x) = 0.32512 0.42085
# Poissons Ratio (y) = 0.07314 0.51286
# Poissons Ratio (z) = 0.10091 0.54665
#
# Static dielectric constant tensor:
#      x y z
#    x 1.568610 0.000000 0.000000 
#    y 0.000000 1.566140 0.000000 
#    z 0.000000 0.000000 1.549840 
# 
# From -- ./inp_files/17113.got.cif
#   From: 2010.05.17/outbox.cif.g08.bks.cpg/sg44_9_cif.got.tgz:17113.got - 2010.06.03 19:37:08.
