data_PCOD9373680
_publ_section_title
;
Structure prediction by ZEFSAII (Michael W. Deem and Ramdas Pophale) SiO2 
 PCOD9373680
Probable space group: I M M 2
;
_chemical_formula_sum "Si O2"
_cell_formula_units_Z 56
_cell_length_a 7.405769
_cell_length_b 15.024993
_cell_length_c 23.017133
_cell_angle_alpha 90.000000
_cell_angle_beta 90.000000
_cell_angle_gamma 90.000000
_cell_volume 2561.153847
_symmetry_space_group_name_H-M "I M M 2"
_symmetry_group_IT_number 44
_symmetry_cell_setting 'orthorhombic'
loop_
_space_group_symop_operation_xyz
x,y,z
-x,-y,z
-x,y,z
x,-y,z
1/2+x,1/2+y,1/2+z
1/2-x,1/2-y,1/2+z
1/2-x,1/2+y,1/2+z
1/2+x,1/2-y,1/2+z
loop_
_atom_site_type_symbol
_atom_site_label
_atom_site_fract_x
_atom_site_fract_y
_atom_site_fract_z
Si Si1 0.716971 0.099367 0.636030
Si Si2 0.280700 0.101252 0.503778
Si Si3 0.721439 0.214011 0.394576
Si Si4 0.209904 0.901695 0.925085
Si Si5 0.713271 0.791307 0.169738
Si Si6 0.717659 0.102048 0.059488
Si Si7 0.779088 0.397358 0.782294
O O1 0.500000 0.095729 0.634268
O O2 0.780765 0.117110 0.569753
O O3 0.764626 0.185345 0.673355
O O4 0.779520 0.000000 0.653380
O O5 0.500000 0.104707 0.504784
O O6 0.219224 0.169158 0.454927
O O7 0.231444 0.000000 0.487879
O O8 0.500000 0.214862 0.395271
O O9 0.785345 0.315790 0.392776
O O10 0.776824 0.154617 0.340169
O O11 0.000000 0.907445 0.908614
O O12 0.290588 0.000000 0.916331
O O13 0.215756 0.881961 0.994235
O O14 0.500000 0.809472 0.168151
O O15 0.784827 0.830351 0.108675
O O16 0.783420 0.844791 0.225140
O O17 0.500000 0.106925 0.056273
O O18 0.764965 0.000000 0.075621
O O19 0.722542 0.500000 0.782073
O O20 0.000000 0.397261 0.782212
#
# Coordination Sequence:
#
# PCOD9373680 Si02
#       7
#     8   8   8   8   8   8   8
#     4   9  18  32  49  69  94 123 153 186 226 274
#     4   8  13  22  39  64  89 111 140 180 222 263
#     4   9  15  24  41  64  89 117 147 182 227 272
#     4   9  17  28  43  66  93 117 147 191 236 275
#     4  10  19  30  46  69  95 122 153 191 231 267
#     4   9  17  29  45  66  94 127 158 187 225 275
#     4   9  17  29  45  66  92 121 153 188 227 274
#
# _framework density 21.865144000000001
#
# number of rings (size 3 to 8) (size 9 to 14) (size 15 to 20)
#    0.000    3.000    0.000    2.571    0.000    5.429 
#    0.000    0.714    0.000    4.714    0.000    2.000 
#    0.000    2.286    0.000    0.000    0.000    0.000 
#
# Total GULP energy -156304.117621 kJ/mol
# GULP energy per Si atom -5582.289915 kJ/mol
# Density = 2.181538 g / cm^3
# Si number density = 21.865144 Si / 1000 Ang^3
#
#
#
# Elastic Constant Matrix: (Units=GPa)
#
#
# Indices 1 2 3 4 5 6 
#
# 1 72.0226 -0.4492 -1.1758 0.0000 0.0000 0.0000
# 2 -0.4492 203.7699 85.2410 0.0000 0.0000 0.0000
# 3 -1.1758 85.2410 53.5561 0.0000 0.0000 0.0000
# 4 0.0000 0.0000 0.0000 39.3358 0.0000 0.0000
# 5 0.0000 0.0000 0.0000 0.0000 13.4994 0.0000
# 6 0.0000 0.0000 0.0000 0.0000 0.0000 5.9791
#
#
#
# Elastic Compliance Matrix: (Units=1/GPa)
#
#
# Indices 1 2 3 4 5 6 
#
# 1 0.013895 -0.000290 0.000767 0.000000 0.000000 0.000000
# 2 -0.000290 0.014691 -0.023388 0.000000 0.000000 0.000000
# 3 0.000767 -0.023388 0.055914 0.000000 0.000000 0.000000
# 4 0.000000 0.000000 0.000000 0.025422 0.000000 0.000000
# 5 0.000000 0.000000 0.000000 0.000000 0.074077 0.000000
# 6 0.000000 0.000000 0.000000 0.000000 0.000000 0.167249
#
#
# Mechanical properties :
#
#
# Convention : Reuss Voigt Hill
#
# Bulk Modulus (GPa) = 25.85524 55.17564 40.51544
# Shear Modulus (GPa) = 12.19620 28.14502 20.17061
#
# Velocity S-wave (km/s) = 2.36432 3.59166 3.04056
# Velocity P-wave (km/s) = 4.39362 6.51839 5.55847
#
# Compressibility (1/GPa) = 0.03867688
#
# Stress axis : x y z
#
# Youngs Moduli (GPa) = 71.96710 68.07050 17.88456
#
# Poissons Ratio (x) = 0.01975 -0.01372
# Poissons Ratio (y) = 0.02088 0.41829
# Poissons Ratio (z) = -0.05519 1.59205
#
# Static dielectric constant tensor:
#      x y z
#    x 1.864960 0.000000 0.000000 
#    y 0.000000 1.803030 0.000000 
#    z 0.000000 0.000000 1.753410 
# 
# From -- ./inp_files/23027.got.cif
#   From: 2010.05.17/outbox.cif.g08.bks.cpg/sg44_12_cif.got.tgz:23027.got - 2010.06.03 19:37:08.
