data_PCOD9373430
_publ_section_title
;
Structure prediction by ZEFSAII (Michael W. Deem and Ramdas Pophale) SiO2 
 PCOD9373430
Probable space group: I M M 2
;
_chemical_formula_sum "Si O2"
_cell_formula_units_Z 38
_cell_length_a 7.656932
_cell_length_b 11.763606
_cell_length_c 24.273195
_cell_angle_alpha 90.000000
_cell_angle_beta 90.000000
_cell_angle_gamma 90.000000
_cell_volume 2186.362678
_symmetry_space_group_name_H-M "I M M 2"
_symmetry_group_IT_number 44
_symmetry_cell_setting 'orthorhombic'
loop_
_space_group_symop_operation_xyz
x,y,z
-x,-y,z
-x,y,z
x,-y,z
1/2+x,1/2+y,1/2+z
1/2-x,1/2-y,1/2+z
1/2-x,1/2+y,1/2+z
1/2+x,1/2-y,1/2+z
loop_
_atom_site_type_symbol
_atom_site_label
_atom_site_fract_x
_atom_site_fract_y
_atom_site_fract_z
Si Si1 0.802932 0.867292 0.325410
Si Si2 0.500000 0.756227 0.121743
Si Si3 0.207963 0.273531 0.939552
Si Si4 0.791792 0.134839 0.044053
Si Si5 0.500000 0.500000 0.100057
Si Si6 0.000000 0.363792 0.741783
Si Si7 0.206350 0.500000 0.009094
O O1 0.789264 0.789928 0.379678
O O2 0.667618 0.832491 0.278574
O O3 0.000000 0.865195 0.304439
O O4 0.761751 0.000000 0.341075
O O5 0.331675 0.797644 0.086321
O O6 0.500000 0.620745 0.129871
O O7 0.500000 0.812629 0.181419
O O8 0.000000 0.267399 0.930688
O O9 0.256488 0.173405 0.981755
O O10 0.245600 0.388629 0.973346
O O11 0.000000 0.160763 0.051325
O O12 0.767499 0.000000 0.051227
O O13 0.329249 0.500000 0.061460
O O14 0.000000 0.500000 0.736083
O O15 0.000000 0.500000 0.022344
#
# Coordination Sequence:
#
# PCOD9373430 Si02
#       7
#     8   4   8   8   2   4   4
#     4  10  20  32  54  82 110 146 190 237 288 334
#     4  12  24  40  62  84 116 154 197 245 285 348
#     4  10  18  31  55  85 120 148 179 234 291 344
#     4  10  22  38  57  86 120 157 193 232 286 344
#     4  12  24  36  60  92 112 152 194 228 304 354
#     4  10  22  40  56  78 110 150 196 243 287 331
#     4  10  20  32  52  86 124 150 176 226 295 346
#
# _framework density 17.380465999999998
#
# number of rings (size 3 to 8) (size 9 to 14) (size 15 to 20)
#    0.000    1.684    4.211    0.947    2.947    0.842 
#    0.000    2.105    2.316    0.000    0.000    0.000 
#    0.000    0.000    0.000    0.000    0.000    0.000 
#
# Total GULP energy -106009.659213 kJ/mol
# GULP energy per Si atom -5579.455748 kJ/mol
# Density = 1.734091 g / cm^3
# Si number density = 17.380466 Si / 1000 Ang^3
#
#
#
# Elastic Constant Matrix: (Units=GPa)
#
#
# Indices 1 2 3 4 5 6 
#
# 1 76.0016 34.3680 57.7828 0.0000 0.0000 0.0000
# 2 34.3680 72.1993 32.0596 0.0000 0.0000 0.0000
# 3 57.7828 32.0596 118.1291 0.0000 0.0000 0.0000
# 4 0.0000 0.0000 0.0000 21.7149 0.0000 0.0000
# 5 0.0000 0.0000 0.0000 0.0000 19.7379 0.0000
# 6 0.0000 0.0000 0.0000 0.0000 0.0000 15.2487
#
#
#
# Elastic Compliance Matrix: (Units=1/GPa)
#
#
# Indices 1 2 3 4 5 6 
#
# 1 0.023675 -0.006967 -0.009690 0.000000 0.000000 0.000000
# 2 -0.006967 0.017799 -0.001423 0.000000 0.000000 0.000000
# 3 -0.009690 -0.001423 0.013591 0.000000 0.000000 0.000000
# 4 0.000000 0.000000 0.000000 0.046051 0.000000 0.000000
# 5 0.000000 0.000000 0.000000 0.000000 0.050664 0.000000
# 6 0.000000 0.000000 0.000000 0.000000 0.000000 0.065579
#
#
# Mechanical properties :
#
#
# Convention : Reuss Voigt Hill
#
# Bulk Modulus (GPa) = 52.89299 57.19454 55.04376
# Shear Modulus (GPa) = 19.24406 20.81495 20.02951
#
# Velocity S-wave (km/s) = 3.33111 3.46440 3.39841
# Velocity P-wave (km/s) = 6.73005 6.99868 6.86568
#
# Compressibility (1/GPa) = 0.01890610
#
# Stress axis : x y z
#
# Youngs Moduli (GPa) = 42.23834 56.18417 73.57705
#
# Poissons Ratio (x) = 0.39144 0.71295
# Poissons Ratio (y) = 0.29427 0.10467
# Poissons Ratio (z) = 0.40929 0.07992
#
# Static dielectric constant tensor:
#      x y z
#    x 1.612080 0.000000 0.000000 
#    y 0.000000 1.601810 0.000000 
#    z 0.000000 0.000000 1.556290 
# 
# From -- ./inp_files/20057.got.cif
#   From: 2010.05.17/outbox.cif.g08.bks.cpg/sg44_11_cif.got.tgz:20057.got - 2010.06.03 19:37:08.
