data_PCOD9373376
_publ_section_title
;
Structure prediction by ZEFSAII (Michael W. Deem and Ramdas Pophale) SiO2 
 PCOD9373376
Probable space group: I M M 2
;
_chemical_formula_sum "Si O2"
_cell_formula_units_Z 64
_cell_length_a 17.188285
_cell_length_b 18.673336
_cell_length_c 12.239182
_cell_angle_alpha 90.000000
_cell_angle_beta 90.000000
_cell_angle_gamma 90.000000
_cell_volume 3928.319934
_symmetry_space_group_name_H-M "I M M 2"
_symmetry_group_IT_number 44
_symmetry_cell_setting 'orthorhombic'
loop_
_space_group_symop_operation_xyz
x,y,z
-x,-y,z
-x,y,z
x,-y,z
1/2+x,1/2+y,1/2+z
1/2-x,1/2-y,1/2+z
1/2-x,1/2+y,1/2+z
1/2+x,1/2-y,1/2+z
loop_
_atom_site_type_symbol
_atom_site_label
_atom_site_fract_x
_atom_site_fract_y
_atom_site_fract_z
Si Si1 0.090907 0.723210 0.260670
Si Si2 0.587378 0.854208 0.388348
Si Si3 0.826054 0.226235 0.464579
Si Si4 0.685452 0.920547 0.747829
Si Si5 0.805997 0.835886 0.873359
Si Si6 0.764209 0.580199 0.994559
Si Si7 0.910548 0.211238 0.041398
Si Si8 0.406693 0.250522 0.196444
O O1 0.109641 0.764205 0.371306
O O2 0.125533 0.643839 0.264305
O O3 0.125213 0.766003 0.157061
O O4 0.000000 0.717539 0.240638
O O5 0.500000 0.884423 0.399470
O O6 0.656762 0.904460 0.426989
O O7 0.590338 0.783667 0.467090
O O8 0.597851 0.823248 0.266070
O O9 0.755321 0.276315 0.419613
O O10 0.793996 0.145656 0.472463
O O11 0.863285 0.250082 0.580040
O O12 0.756843 0.901423 0.827361
O O13 0.713782 0.916860 0.622671
O O14 0.654550 0.000000 0.768442
O O15 0.858560 0.805324 0.773892
O O16 0.862665 0.847237 0.975127
O O17 0.734922 0.500000 0.970668
O O18 0.000000 0.189388 0.053535
O O19 0.500000 0.267312 0.187675
#
# Coordination Sequence:
#
# PCOD9373376 Si02
#       8
#     8   8   8   8   8   8   8   8
#     4  10  20  33  53  78 103 133 170 212 258 311
#     4   9  17  31  50  73 104 134 167 215 263 312
#     4  11  20  32  52  76 105 135 180 216 256 308
#     4  10  20  32  49  77 109 137 163 205 264 322
#     4  10  18  30  54  73 100 134 170 218 262 300
#     4  11  20  31  49  75 110 142 167 208 266 315
#     4   9  16  29  50  76  99 124 167 216 260 296
#     4  10  19  32  52  76 102 135 177 223 266 305
#
# _framework density 16.291951000000001
#
# number of rings (size 3 to 8) (size 9 to 14) (size 15 to 20)
#    0.000    2.000    5.000    1.500    1.750    0.500 
#    0.000    1.250    0.000   10.500    0.000    5.250 
#    0.000    0.000    0.000    0.000    0.000    0.000 
#
# Total GULP energy -178190.904247 kJ/mol
# GULP energy per Si atom -5568.465758 kJ/mol
# Density = 1.625487 g / cm^3
# Si number density = 16.291951 Si / 1000 Ang^3
#
#
#
# Elastic Constant Matrix: (Units=GPa)
#
#
# Indices 1 2 3 4 5 6 
#
# 1 58.7597 19.1898 33.1628 0.0000 0.0000 0.0000
# 2 19.1898 58.6601 36.1519 0.0000 0.0000 0.0000
# 3 33.1628 36.1519 114.3227 0.0000 0.0000 0.0000
# 4 0.0000 0.0000 0.0000 11.2581 0.0000 0.0000
# 5 0.0000 0.0000 0.0000 0.0000 27.2063 0.0000
# 6 0.0000 0.0000 0.0000 0.0000 0.0000 14.2605
#
#
#
# Elastic Compliance Matrix: (Units=1/GPa)
#
#
# Indices 1 2 3 4 5 6 
#
# 1 0.021037 -0.003876 -0.004876 0.000000 0.000000 0.000000
# 2 -0.003876 0.021888 -0.005797 0.000000 0.000000 0.000000
# 3 -0.004876 -0.005797 0.011995 0.000000 0.000000 0.000000
# 4 0.000000 0.000000 0.000000 0.088825 0.000000 0.000000
# 5 0.000000 0.000000 0.000000 0.000000 0.036756 0.000000
# 6 0.000000 0.000000 0.000000 0.000000 0.000000 0.070124
#
#
# Mechanical properties :
#
#
# Convention : Reuss Voigt Hill
#
# Bulk Modulus (GPa) = 38.73025 45.41683 42.07354
# Shear Modulus (GPa) = 17.34117 20.09419 18.71768
#
# Velocity S-wave (km/s) = 3.26606 3.51576 3.39321
# Velocity P-wave (km/s) = 6.16823 6.66469 6.42126
#
# Compressibility (1/GPa) = 0.02581961
#
# Stress axis : x y z
#
# Youngs Moduli (GPa) = 47.53605 45.68664 83.36835
#
# Poissons Ratio (x) = 0.17710 0.40654
# Poissons Ratio (y) = 0.18427 0.48330
# Poissons Ratio (z) = 0.23181 0.26485
#
# Static dielectric constant tensor:
#      x y z
#    x 1.581530 0.000000 0.000000 
#    y 0.000000 1.521390 0.000000 
#    z 0.000000 0.000000 1.570660 
# 
# From -- ./inp_files/14068.got.cif
#   From: 2010.05.17/outbox.cif.g08.bks.cpg/sg44_8_cif.got.tgz:14068.got - 2010.06.03 19:37:08.
