data_PCOD9373790
_publ_section_title
;
Structure prediction by ZEFSAII (Michael W. Deem and Ramdas Pophale) SiO2 
 PCOD9373790
Probable space group: I M M 2
;
_chemical_formula_sum "Si O2"
_cell_formula_units_Z 64
_cell_length_a 7.543592
_cell_length_b 34.724477
_cell_length_c 12.463381
_cell_angle_alpha 90.000000
_cell_angle_beta 90.000000
_cell_angle_gamma 90.000000
_cell_volume 3264.748839
_symmetry_space_group_name_H-M "I M M 2"
_symmetry_group_IT_number 44
_symmetry_cell_setting 'orthorhombic'
loop_
_space_group_symop_operation_xyz
x,y,z
-x,-y,z
-x,y,z
x,-y,z
1/2+x,1/2+y,1/2+z
1/2-x,1/2-y,1/2+z
1/2-x,1/2+y,1/2+z
1/2+x,1/2-y,1/2+z
loop_
_atom_site_type_symbol
_atom_site_label
_atom_site_fract_x
_atom_site_fract_y
_atom_site_fract_z
Si Si1 0.286806 0.956311 0.445790
Si Si2 0.716567 0.683591 0.455768
Si Si3 0.293459 0.320754 0.216046
Si Si4 0.287816 0.628021 0.027007
Si Si5 0.714420 0.263704 0.654292
Si Si6 0.790735 0.880184 0.110335
Si Si7 0.283559 0.669522 0.810569
Si Si8 0.787406 0.542216 0.701290
O O1 0.500000 0.958015 0.443929
O O2 0.242087 0.917631 0.510874
O O3 0.223166 0.949693 0.322839
O O4 0.227068 0.000000 0.477991
O O5 0.500000 0.686255 0.452698
O O6 0.783509 0.685692 0.334776
O O7 0.771663 0.715026 0.544624
O O8 0.773415 0.643009 0.507871
O O9 0.500000 0.330823 0.232350
O O10 0.281854 0.279467 0.159080
O O11 0.217664 0.353251 0.136993
O O12 0.500000 0.633175 0.027416
O O13 0.221465 0.653319 0.924997
O O14 0.500000 0.263084 0.654806
O O15 0.769225 0.289311 0.758670
O O16 0.722275 0.860770 0.219706
O O17 0.761105 0.925018 0.118614
O O18 0.000000 0.873086 0.112967
O O19 0.500000 0.669842 0.814367
O O20 0.723796 0.500000 0.670589
O O21 0.000000 0.541458 0.707659
#
# Coordination Sequence:
#
# PCOD9373790 Si02
#       8
#     8   8   8   8   8   8   8   8
#     4   9  18  32  49  71 102 133 158 193 244 299
#     4   8  17  34  50  66  92 127 160 192 237 284
#     4  10  21  34  49  71  98 126 160 203 244 281
#     4  10  19  31  49  73 100 127 159 203 247 286
#     4   9  18  33  52  68  92 129 163 196 237 286
#     4   9  15  28  50  67  87 122 160 192 224 275
#     4   8  15  28  45  67  92 120 153 191 235 275
#     4   9  17  28  43  69 103 127 144 182 242 291
#
# _framework density 19.603345999999998
#
# number of rings (size 3 to 8) (size 9 to 14) (size 15 to 20)
#    0.000    3.000    1.250    2.250    1.750    1.000 
#    0.000    5.000    0.000    0.750    0.000    5.250 
#    0.000    0.000    0.000    0.000    0.000    0.000 
#
# Total GULP energy -178284.185070 kJ/mol
# GULP energy per Si atom -5571.380783 kJ/mol
# Density = 1.955873 g / cm^3
# Si number density = 19.603346 Si / 1000 Ang^3
#
#
#
# Elastic Constant Matrix: (Units=GPa)
#
#
# Indices 1 2 3 4 5 6 
#
# 1 42.6876 -13.3284 5.1651 0.0000 0.0000 0.0000
# 2 -13.3284 124.0460 65.4970 0.0001 0.0000 0.0000
# 3 5.1651 65.4970 122.0298 0.0001 0.0000 0.0000
# 4 0.0000 0.0001 0.0001 24.3766 0.0000 0.0000
# 5 0.0000 0.0000 0.0000 0.0000 1.8698 0.0000
# 6 0.0000 0.0000 0.0000 0.0000 0.0000 16.3954
#
#
#
# Elastic Compliance Matrix: (Units=1/GPa)
#
#
# Indices 1 2 3 4 5 6 
#
# 1 0.025283 0.004579 -0.003528 0.000000 0.000000 0.000000
# 2 0.004579 0.012079 -0.006677 0.000000 0.000000 0.000000
# 3 -0.003528 -0.006677 0.011928 0.000000 0.000000 0.000000
# 4 0.000000 0.000000 0.000000 0.041023 0.000000 0.000000
# 5 0.000000 0.000000 0.000000 0.000000 0.534828 0.000000
# 6 0.000000 0.000000 0.000000 0.000000 0.000000 0.060993
#
#
# Mechanical properties :
#
#
# Convention : Reuss Voigt Hill
#
# Bulk Modulus (GPa) = 26.28932 44.82563 35.55747
# Shear Modulus (GPa) = 7.04162 23.95701 15.49931
#
# Velocity S-wave (km/s) = 1.89733 3.49963 2.81489
# Velocity P-wave (km/s) = 4.27078 6.26465 5.36122
#
# Compressibility (1/GPa) = 0.03803827
#
# Stress axis : x y z
#
# Youngs Moduli (GPa) = 39.55272 82.78784 83.83781
#
# Poissons Ratio (x) = -0.37912 0.29578
# Poissons Ratio (y) = -0.18113 0.55979
# Poissons Ratio (z) = 0.13954 0.55278
#
# Static dielectric constant tensor:
#      x y z
#    x 1.743790 0.000000 0.000000 
#    y 0.000000 1.705010 0.000000 
#    z 0.000000 0.000000 1.691030 
# 
# From -- ./inp_files/12724.got.cif
#   From: 2010.05.17/outbox.cif.g08.bks.cpg/sg44_7_cif.got.tgz:12724.got - 2010.06.03 19:37:08.
