data_PCOD9373830
_publ_section_title
;
Structure prediction by ZEFSAII (Michael W. Deem and Ramdas Pophale) SiO2 
 PCOD9373830
Probable space group: I M M 2
;
_chemical_formula_sum "Si O2"
_cell_formula_units_Z 48
_cell_length_a 7.503006
_cell_length_b 9.137149
_cell_length_c 35.730393
_cell_angle_alpha 90.000000
_cell_angle_beta 90.000000
_cell_angle_gamma 90.000000
_cell_volume 2449.535816
_symmetry_space_group_name_H-M "I M M 2"
_symmetry_group_IT_number 44
_symmetry_cell_setting 'orthorhombic'
loop_
_space_group_symop_operation_xyz
x,y,z
-x,-y,z
-x,y,z
x,-y,z
1/2+x,1/2+y,1/2+z
1/2-x,1/2-y,1/2+z
1/2-x,1/2+y,1/2+z
1/2+x,1/2-y,1/2+z
loop_
_atom_site_type_symbol
_atom_site_label
_atom_site_fract_x
_atom_site_fract_y
_atom_site_fract_z
Si Si1 0.284266 0.667800 0.138770
Si Si2 0.000000 0.676887 0.859879
Si Si3 0.796273 0.170654 0.215673
Si Si4 0.216939 0.832223 0.488679
Si Si5 0.500000 0.177684 0.273568
Si Si6 0.782058 0.668407 0.563721
Si Si7 0.712975 0.826256 0.911716
O O1 0.500000 0.668994 0.138445
O O2 0.225309 0.500000 0.136525
O O3 0.227072 0.741007 0.177469
O O4 0.224046 0.757259 0.102379
O O5 0.000000 0.724519 0.816460
O O6 0.171860 0.742049 0.880934
O O7 0.000000 0.500000 0.862094
O O8 0.669119 0.223636 0.248831
O O9 0.000000 0.177752 0.227860
O O10 0.751424 0.000000 0.207732
O O11 0.276325 0.758027 0.527262
O O12 0.265111 0.738520 0.452273
O O13 0.000000 0.834127 0.489743
O O14 0.276862 0.000000 0.485492
O O15 0.500000 0.000000 0.274830
O O16 0.726385 0.500000 0.561632
O O17 0.000000 0.670058 0.563670
O O18 0.500000 0.803343 0.906847
O O19 0.746959 0.000000 0.910466
#
# Coordination Sequence:
#
# PCOD9373830 Si02
#       7
#     8   4   8   8   4   8   8
#     4  10  19  31  50  78 112 151 193 237 287 340
#     4  11  23  39  63  93 121 153 195 249 305 359
#     4  10  20  36  60  85 110 146 189 233 286 348
#     4   9  16  28  49  79 114 151 195 244 291 343
#     4   9  20  39  61  87 117 147 187 239 293 351
#     4   9  16  26  45  75 110 151 196 240 285 339
#     4  10  21  38  60  86 119 160 201 242 293 357
#
# _framework density 19.595549999999999
#
# number of rings (size 3 to 8) (size 9 to 14) (size 15 to 20)
#    0.000    2.333    0.833    2.250    0.000    6.667 
#    0.000    3.333    1.833    0.000    0.000    0.000 
#    0.000    0.000    0.000    0.000    0.000    0.000 
#
# Total GULP energy -134074.067000 kJ/mol
# GULP energy per Si atom -5586.419458 kJ/mol
# Density = 1.955095 g / cm^3
# Si number density = 19.595550 Si / 1000 Ang^3
#
#
#
# Elastic Constant Matrix: (Units=GPa)
#
#
# Indices 1 2 3 4 5 6 
#
# 1 71.7313 41.0856 53.4315 0.0000 0.0000 0.0000
# 2 41.0856 132.5510 84.0629 0.0000 0.0000 0.0000
# 3 53.4315 84.0629 199.0761 0.0000 0.0000 0.0000
# 4 0.0000 0.0000 0.0000 31.3408 0.0000 0.0000
# 5 0.0000 0.0000 0.0000 0.0000 -54.0514 0.0000
# 6 0.0000 0.0000 0.0000 0.0000 0.0000 14.7811
#
#
#
# Elastic Compliance Matrix: (Units=1/GPa)
#
#
# Indices 1 2 3 4 5 6 
#
# 1 0.018568 -0.003544 -0.003487 0.000000 0.000000 0.000000
# 2 -0.003544 0.010980 -0.003685 0.000000 0.000000 0.000000
# 3 -0.003487 -0.003685 0.007515 0.000000 0.000000 0.000000
# 4 0.000000 0.000000 0.000000 0.031907 0.000000 0.000000
# 5 0.000000 0.000000 0.000000 0.000000 -0.018501 0.000000
# 6 0.000000 0.000000 0.000000 0.000000 0.000000 0.067654
#
#
# Mechanical properties :
#
#
# Convention : Reuss Voigt Hill
#
# Bulk Modulus (GPa) = 63.97619 84.50204 74.23912
# Shear Modulus (GPa) = 34.53825 13.39931 23.96878
#
# Velocity S-wave (km/s) = 4.20283 2.61778 3.50119
# Velocity P-wave (km/s) = 7.50140 7.23559 7.36969
#
# Compressibility (1/GPa) = 0.01563081
#
# Stress axis : x y z
#
# Youngs Moduli (GPa) = 53.85512 91.07549 133.06139
#
# Poissons Ratio (x) = 0.32276 0.46402
# Poissons Ratio (y) = 0.19086 0.49037
# Poissons Ratio (z) = 0.18781 0.33564
#
# Static dielectric constant tensor:
#      x y z
#    x 1.734850 0.000000 0.000000 
#    y 0.000000 1.662030 0.000000 
#    z 0.000000 0.000000 1.634210 
# 
# From -- ./inp_files/26933.got.cif
#   From: 2010.05.17/outbox.cif.g08.bks.cpg/sg44_14_cif.got.tgz:26933.got - 2010.06.03 19:37:08.
