data_PCOD9373661
_publ_section_title
;
Structure prediction by ZEFSAII (Michael W. Deem and Ramdas Pophale) SiO2 
 PCOD9373661
Probable space group: I M M 2
;
_chemical_formula_sum "Si O2"
_cell_formula_units_Z 64
_cell_length_a 7.441994
_cell_length_b 19.128614
_cell_length_c 21.824805
_cell_angle_alpha 90.000000
_cell_angle_beta 90.000000
_cell_angle_gamma 90.000000
_cell_volume 3106.870784
_symmetry_space_group_name_H-M "I M M 2"
_symmetry_group_IT_number 44
_symmetry_cell_setting 'orthorhombic'
loop_
_space_group_symop_operation_xyz
x,y,z
-x,-y,z
-x,y,z
x,-y,z
1/2+x,1/2+y,1/2+z
1/2-x,1/2-y,1/2+z
1/2-x,1/2+y,1/2+z
1/2+x,1/2-y,1/2+z
loop_
_atom_site_type_symbol
_atom_site_label
_atom_site_fract_x
_atom_site_fract_y
_atom_site_fract_z
Si Si1 0.784479 0.580729 0.231840
Si Si2 0.780214 0.080922 0.365270
Si Si3 0.212708 0.079650 0.597897
Si Si4 0.779569 0.830590 0.483128
Si Si5 0.780477 0.581450 0.365648
Si Si6 0.716711 0.579967 0.598260
Si Si7 0.786746 0.328060 0.479502
Si Si8 0.291805 0.414913 0.731478
O O1 0.720685 0.500000 0.229884
O O2 0.735670 0.611332 0.165933
O O3 0.724803 0.608444 0.298077
O O4 0.000000 0.579742 0.233520
O O5 0.725166 0.129048 0.421512
O O6 0.716225 0.105062 0.297841
O O7 0.000000 0.081071 0.363353
O O8 0.727242 0.000000 0.374969
O O9 0.282451 0.127238 0.543055
O O10 0.000000 0.073592 0.588028
O O11 0.286667 0.000000 0.596866
O O12 0.717257 0.750702 0.483454
O O13 0.000000 0.830418 0.484030
O O14 0.727282 0.500000 0.371965
O O15 0.715206 0.627620 0.422045
O O16 0.000000 0.581464 0.366699
O O17 0.500000 0.577110 0.602831
O O18 0.778606 0.500000 0.587113
O O19 0.761542 0.629620 0.542171
O O20 0.784879 0.604850 0.665143
O O21 0.000000 0.322119 0.469331
O O22 0.500000 0.391987 0.731734
O O23 0.290628 0.500000 0.731381
#
# Coordination Sequence:
#
# PCOD9373661 Si02
#       8
#     8   8   8   8   8   8   8   8
#     4   8  14  26  44  64  84 106 136 176 218 256
#     4   8  12  21  40  63  85 111 143 177 215 257
#     4   9  16  27  44  65  88 113 142 177 215 254
#     4   9  17  27  39  60  90 118 143 176 215 251
#     4   8  14  26  44  63  82 106 138 176 214 251
#     4   9  17  30  47  67  91 115 140 175 216 254
#     4  10  19  30  44  63  89 118 146 176 211 254
#     4   7  11  21  39  63  87 108 134 174 218 252
#
# _framework density 20.599505000000001
#
# number of rings (size 3 to 8) (size 9 to 14) (size 15 to 20)
#    0.000    3.500    0.000    3.000    0.000    2.250 
#    0.000    2.500    0.000    5.250    0.000    1.750 
#    0.000    4.000    0.000    0.000    0.000    0.000 
#
# Total GULP energy -178290.250040 kJ/mol
# GULP energy per Si atom -5571.570314 kJ/mol
# Density = 2.055262 g / cm^3
# Si number density = 20.599505 Si / 1000 Ang^3
#
#
#
# Elastic Constant Matrix: (Units=GPa)
#
#
# Indices 1 2 3 4 5 6 
#
# 1 61.0716 4.1671 2.0093 0.0000 0.0000 0.0000
# 2 4.1671 102.6439 112.0844 0.0000 0.0000 0.0000
# 3 2.0093 112.0844 257.9086 0.0000 0.0000 0.0000
# 4 0.0000 0.0000 0.0000 -6.2266 0.0000 0.0000
# 5 0.0000 0.0000 0.0000 0.0000 33.5845 0.0000
# 6 0.0000 0.0000 0.0000 0.0000 0.0000 -0.4436
#
#
#
# Elastic Compliance Matrix: (Units=1/GPa)
#
#
# Indices 1 2 3 4 5 6 
#
# 1 0.016433 -0.001004 0.000308 0.000000 0.000000 0.000000
# 2 -0.001004 0.018603 -0.008077 0.000000 0.000000 0.000000
# 3 0.000308 -0.008077 0.007385 0.000000 0.000000 0.000000
# 4 0.000000 0.000000 0.000000 -0.160601 0.000000 0.000000
# 5 0.000000 0.000000 0.000000 0.000000 0.029776 0.000000
# 6 0.000000 0.000000 0.000000 0.000000 0.000000 -2.254427
#
#
# Mechanical properties :
#
#
# Convention : Reuss Voigt Hill
#
# Bulk Modulus (GPa) = 40.19957 73.12732 56.66344
# Shear Modulus (GPa) = -2.15797 25.60707 11.72455
#
# Velocity S-wave (km/s) = -1.02462 3.52958 2.38831
# Velocity P-wave (km/s) = 4.26115 7.22407 5.93062
#
# Compressibility (1/GPa) = 0.02487589
#
# Stress axis : x y z
#
# Youngs Moduli (GPa) = 60.85481 53.75546 135.40933
#
# Poissons Ratio (x) = 0.05395 -0.04172
# Poissons Ratio (y) = 0.06107 1.09367
# Poissons Ratio (z) = -0.01875 0.43417
#
# Static dielectric constant tensor:
#      x y z
#    x 1.813900 0.000000 0.000000 
#    y 0.000000 1.685450 0.000000 
#    z 0.000000 0.000000 1.765040 
# 
# From -- ./inp_files/23963.got.cif
#   From: 2010.05.17/outbox.cif.g08.bks.cpg/sg44_12_cif.got.tgz:23963.got - 2010.06.03 19:37:08.
