data_PCOD9373025
_publ_section_title
;
Structure prediction by ZEFSAII (Michael W. Deem and Ramdas Pophale) SiO2 
 PCOD9373025
Probable space group: I M M 2
;
_chemical_formula_sum "Si O2"
_cell_formula_units_Z 40
_cell_length_a 27.378416
_cell_length_b 9.115919
_cell_length_c 7.263482
_cell_angle_alpha 90.000000
_cell_angle_beta 90.000000
_cell_angle_gamma 90.000000
_cell_volume 1812.815644
_symmetry_space_group_name_H-M "I M M 2"
_symmetry_group_IT_number 44
_symmetry_cell_setting 'orthorhombic'
loop_
_space_group_symop_operation_xyz
x,y,z
-x,-y,z
-x,y,z
x,-y,z
1/2+x,1/2+y,1/2+z
1/2-x,1/2-y,1/2+z
1/2-x,1/2+y,1/2+z
1/2+x,1/2-y,1/2+z
loop_
_atom_site_type_symbol
_atom_site_label
_atom_site_fract_x
_atom_site_fract_y
_atom_site_fract_z
Si Si1 0.307746 0.336189 0.912280
Si Si2 0.097953 0.674163 0.350930
Si Si3 0.789654 0.836745 0.976413
Si Si4 0.500000 0.330550 0.396166
Si Si5 0.000000 0.170155 0.346940
Si Si6 0.604586 0.320595 0.448649
O O1 0.316019 0.500000 0.984182
O O2 0.353853 0.233578 0.951264
O O3 0.303908 0.346018 0.690571
O O4 0.255626 0.271727 0.967743
O O5 0.094957 0.500000 0.356976
O O6 0.102308 0.731863 0.140171
O O7 0.048263 0.749881 0.416311
O O8 0.840380 0.794309 0.875584
O O9 0.774372 0.000000 0.914386
O O10 0.500000 0.500000 0.896181
O O11 0.500000 0.323906 0.621750
O O12 0.554408 0.274860 0.345851
O O13 0.000000 0.000000 0.839393
O O14 0.601848 0.500000 0.479639
#
# Coordination Sequence:
#
# PCOD9373025 Si02
#       6
#     8   8   8   4   4   8
#     4  10  20  33  48  67  93 125 157 192 237 281
#     4  10  17  25  40  63  89 116 149 188 229 274
#     4   9  18  31  46  67  93 120 155 196 233 276
#     4   7  10  19  37  57  80 113 144 173 216 266
#     4   9  15  25  39  57  86 119 148 181 226 276
#     4   8  14  25  40  60  88 119 149 183 227 275
#
# _framework density 22.065121999999999
#
# number of rings (size 3 to 8) (size 9 to 14) (size 15 to 20)
#    0.000    3.000    0.000    5.100    0.000    4.000 
#    0.000    0.000    0.000    0.000    0.000    1.400 
#    0.000    8.000    0.000    0.000    0.000    0.400 
#
# Total GULP energy -111481.553420 kJ/mol
# GULP energy per Si atom -5574.077671 kJ/mol
# Density = 2.201490 g / cm^3
# Si number density = 22.065122 Si / 1000 Ang^3
#
#
#
# Elastic Constant Matrix: (Units=GPa)
#
#
# Indices 1 2 3 4 5 6 
#
# 1 215.0153 101.8627 -10.7706 0.0000 0.0000 0.0000
# 2 101.8627 145.1741 13.8283 0.0000 0.0000 0.0000
# 3 -10.7706 13.8283 55.3996 0.0000 0.0000 0.0000
# 4 0.0000 0.0000 0.0000 5.4872 0.0000 0.0000
# 5 0.0000 0.0000 0.0000 0.0000 6.4331 0.0000
# 6 0.0000 0.0000 0.0000 0.0000 0.0000 41.4664
#
#
#
# Elastic Compliance Matrix: (Units=1/GPa)
#
#
# Indices 1 2 3 4 5 6 
#
# 1 0.007364 -0.005433 0.002788 0.000000 0.000000 0.000000
# 2 -0.005433 0.011064 -0.003818 0.000000 0.000000 0.000000
# 3 0.002788 -0.003818 0.019546 0.000000 0.000000 0.000000
# 4 0.000000 0.000000 0.000000 0.182242 0.000000 0.000000
# 5 0.000000 0.000000 0.000000 0.000000 0.155445 0.000000
# 6 0.000000 0.000000 0.000000 0.000000 0.000000 0.024116
#
#
# Mechanical properties :
#
#
# Convention : Reuss Voigt Hill
#
# Bulk Modulus (GPa) = 39.92318 69.49224 54.70771
# Shear Modulus (GPa) = 11.87502 31.38858 21.63180
#
# Velocity S-wave (km/s) = 2.32239 3.77575 3.13447
# Velocity P-wave (km/s) = 5.03229 7.11132 6.16015
#
# Compressibility (1/GPa) = 0.02504810
#
# Stress axis : x y z
#
# Youngs Moduli (GPa) = 135.79199 90.38444 51.16235
#
# Poissons Ratio (x) = 0.49103 -0.14263
# Poissons Ratio (y) = 0.73772 0.19533
# Poissons Ratio (z) = -0.37856 0.34508
#
# Static dielectric constant tensor:
#      x y z
#    x 1.879220 0.000000 0.000000 
#    y 0.000000 1.778070 0.000000 
#    z 0.000000 0.000000 1.903020 
# 
# From -- ./inp_files/9601.got.cif
#   From: 2010.05.17/outbox.cif.g08.bks.cpg/sg44_5_cif.got.tgz:9601.got - 2010.06.03 19:37:08.
