data_PCOD9373298
_publ_section_title
;
Structure prediction by ZEFSAII (Michael W. Deem and Ramdas Pophale) SiO2 
 PCOD9373298
Probable space group: I M M 2
;
_chemical_formula_sum "Si O2"
_cell_formula_units_Z 64
_cell_length_a 14.970963
_cell_length_b 8.616976
_cell_length_c 28.820312
_cell_angle_alpha 90.000000
_cell_angle_beta 90.000000
_cell_angle_gamma 90.000000
_cell_volume 3717.947889
_symmetry_space_group_name_H-M "I M M 2"
_symmetry_group_IT_number 44
_symmetry_cell_setting 'orthorhombic'
loop_
_space_group_symop_operation_xyz
x,y,z
-x,-y,z
-x,y,z
x,-y,z
1/2+x,1/2+y,1/2+z
1/2-x,1/2-y,1/2+z
1/2-x,1/2+y,1/2+z
1/2+x,1/2-y,1/2+z
loop_
_atom_site_type_symbol
_atom_site_label
_atom_site_fract_x
_atom_site_fract_y
_atom_site_fract_z
Si Si1 0.600899 0.189135 0.709360
Si Si2 0.102318 0.315018 0.558849
Si Si3 0.897934 0.688691 0.103382
Si Si4 0.394916 0.315485 0.160077
Si Si5 0.897473 0.685576 0.834768
Si Si6 0.102464 0.185856 0.937258
Si Si7 0.216903 0.812111 0.750604
Si Si8 0.224363 0.685892 0.018564
O O1 0.500000 0.239907 0.720698
O O2 0.621976 0.236916 0.656216
O O3 0.680547 0.237410 0.743017
O O4 0.600203 0.000000 0.709209
O O5 0.104318 0.500000 0.555313
O O6 0.126244 0.266074 0.611545
O O7 0.174779 0.243497 0.524472
O O8 0.000000 0.261582 0.550840
O O9 0.895540 0.500000 0.103353
O O10 0.830157 0.742474 0.064156
O O11 0.000000 0.734643 0.092512
O O12 0.500000 0.290675 0.169976
O O13 0.380274 0.500000 0.153349
O O14 0.336935 0.265743 0.204059
O O15 0.893511 0.500000 0.837987
O O16 0.878269 0.756800 0.885198
O O17 0.830875 0.744610 0.795481
O O18 0.000000 0.730131 0.822487
O O19 0.000000 0.235443 0.948521
O O20 0.105459 0.000000 0.938511
O O21 0.171967 0.253407 0.973894
O O22 0.213554 0.000000 0.753170
O O23 0.223164 0.500000 0.018347
#
# Coordination Sequence:
#
# PCOD9373298 Si02
#       8
#     8   8   8   8   8   8   8   8
#     4   8  14  25  42  67  99 132 166 202 237 277
#     4  10  21  35  49  68  99 138 177 215 253 295
#     4   8  14  25  43  70 102 132 162 197 237 284
#     4   9  17  29  46  70  99 130 167 209 252 301
#     4  10  21  36  53  74 100 128 160 201 250 303
#     4  10  21  37  56  78 105 133 160 196 246 303
#     4  10  18  29  49  74  99 130 168 208 251 301
#     4  11  20  31  52  78 103 132 168 209 252 300
#
# _framework density 17.213797
#
# number of rings (size 3 to 8) (size 9 to 14) (size 15 to 20)
#    0.000    2.500    0.000    3.750    0.000    5.750 
#    0.000    1.250    0.000    1.125    0.000    5.250 
#    0.000    0.000    0.000    0.000    0.000    0.000 
#
# Total GULP energy -178534.669183 kJ/mol
# GULP energy per Si atom -5579.208412 kJ/mol
# Density = 1.717462 g / cm^3
# Si number density = 17.213797 Si / 1000 Ang^3
#
#
#
# Elastic Constant Matrix: (Units=GPa)
#
#
# Indices 1 2 3 4 5 6 
#
# 1 131.2864 38.6438 100.3606 0.0000 0.0000 0.0000
# 2 38.6438 26.2039 31.8776 0.0000 0.0000 0.0000
# 3 100.3606 31.8776 106.9071 0.0000 0.0000 0.0000
# 4 0.0000 0.0000 0.0000 26.2869 0.0000 0.0000
# 5 0.0000 0.0000 0.0000 0.0000 32.6583 0.0000
# 6 0.0000 0.0000 0.0000 0.0000 0.0000 18.2712
#
#
#
# Elastic Compliance Matrix: (Units=1/GPa)
#
#
# Indices 1 2 3 4 5 6 
#
# 1 0.030751 -0.016055 -0.024080 0.000000 0.000000 0.000000
# 2 -0.016055 0.068267 -0.005284 0.000000 0.000000 0.000000
# 3 -0.024080 -0.005284 0.033536 0.000000 0.000000 0.000000
# 4 0.000000 0.000000 0.000000 0.038042 0.000000 0.000000
# 5 0.000000 0.000000 0.000000 0.000000 0.030620 0.000000
# 6 0.000000 0.000000 0.000000 0.000000 0.000000 0.054731
#
#
# Mechanical properties :
#
#
# Convention : Reuss Voigt Hill
#
# Bulk Modulus (GPa) = 23.97251 67.35126 45.66189
# Shear Modulus (GPa) = 13.86230 21.67763 17.76997
#
# Velocity S-wave (km/s) = 2.84086 3.55254 3.21644
# Velocity P-wave (km/s) = 4.97164 7.48589 6.35436
#
# Compressibility (1/GPa) = 0.04171445
#
# Stress axis : x y z
#
# Youngs Moduli (GPa) = 32.51956 14.64829 29.81914
#
# Poissons Ratio (x) = 0.23518 0.71806
# Poissons Ratio (y) = 0.52209 0.15757
# Poissons Ratio (z) = 0.78309 0.07741
#
# Static dielectric constant tensor:
#      x y z
#    x 1.601920 0.000000 0.000000 
#    y 0.000000 1.589060 0.000000 
#    z 0.000000 0.000000 1.550400 
# 
# From -- ./inp_files/25140.got.cif
#   From: 2010.05.17/outbox.cif.g08.bks.cpg/sg44_13_cif.got.tgz:25140.got - 2010.06.03 19:37:08.
