data_PCOD9373206
_publ_section_title
;
Structure prediction by ZEFSAII (Michael W. Deem and Ramdas Pophale) SiO2 
 PCOD9373206
Probable space group: I M M 2
;
_chemical_formula_sum "Si O2"
_cell_formula_units_Z 56
_cell_length_a 8.741200
_cell_length_b 30.063476
_cell_length_c 14.127147
_cell_angle_alpha 90.000000
_cell_angle_beta 90.000000
_cell_angle_gamma 90.000000
_cell_volume 3712.485059
_symmetry_space_group_name_H-M "I M M 2"
_symmetry_group_IT_number 44
_symmetry_cell_setting 'orthorhombic'
loop_
_space_group_symop_operation_xyz
x,y,z
-x,-y,z
-x,y,z
x,-y,z
1/2+x,1/2+y,1/2+z
1/2-x,1/2-y,1/2+z
1/2-x,1/2+y,1/2+z
1/2+x,1/2-y,1/2+z
loop_
_atom_site_type_symbol
_atom_site_label
_atom_site_fract_x
_atom_site_fract_y
_atom_site_fract_z
Si Si1 0.684289 0.271496 0.311670
Si Si2 0.314739 0.730198 0.097482
Si Si3 0.322154 0.000000 0.085854
Si Si4 0.676496 0.000000 0.315477
Si Si5 0.816186 0.680366 0.489873
Si Si6 0.183832 0.093202 0.309464
Si Si7 0.814347 0.184025 0.407712
Si Si8 0.816687 0.905956 0.088479
O O1 0.500000 0.272775 0.315820
O O2 0.736631 0.279336 0.203794
O O3 0.752323 0.305989 0.387302
O O4 0.742569 0.222963 0.344183
O O5 0.500000 0.730374 0.099792
O O6 0.268326 0.779109 0.060030
O O7 0.269700 0.695438 0.015760
O O8 0.242000 0.954287 0.055519
O O9 0.500000 0.000000 0.059088
O O10 0.312950 0.000000 0.200662
O O11 0.753689 0.953911 0.345532
O O12 0.500000 0.000000 0.342490
O O13 0.752785 0.634160 0.528592
O O14 0.000000 0.679503 0.486966
O O15 0.232634 0.135780 0.370272
O O16 0.230157 0.099447 0.199269
O O17 0.000000 0.091126 0.310709
O O18 0.000000 0.187255 0.401147
O O19 0.000000 0.904690 0.084308
#
# Coordination Sequence:
#
# PCOD9373206 Si02
#       8
#     8   8   4   4   8   8   8   8
#     4  10  18  29  44  63  86 113 144 181 216 250
#     4   8  16  29  44  61  85 114 144 177 214 253
#     4   9  17  29  43  61  86 119 148 173 211 260
#     4   9  17  27  41  61  88 117 146 177 213 256
#     4  10  19  31  45  63  87 117 148 177 213 261
#     4   9  17  28  44  64  89 117 146 178 214 255
#     4   9  17  30  45  63  86 115 146 176 213 260
#     4  10  18  28  43  66  91 115 144 181 216 251
#
# _framework density 15.084236000000001
#
# number of rings (size 3 to 8) (size 9 to 14) (size 15 to 20)
#    0.000    2.714    0.000    3.429    0.000    2.857 
#    0.000    6.429    0.000    0.000    0.000    1.000 
#    0.000    5.714    0.000    0.000    0.000    0.000 
#
# Total GULP energy -156021.764627 kJ/mol
# GULP energy per Si atom -5572.205880 kJ/mol
# Density = 1.504990 g / cm^3
# Si number density = 15.084236 Si / 1000 Ang^3
#
#
#
# Elastic Constant Matrix: (Units=GPa)
#
#
# Indices 1 2 3 4 5 6 
#
# 1 38.3672 41.9069 28.8321 0.0000 0.0000 0.0000
# 2 41.9069 156.9364 73.4810 0.0000 0.0000 0.0000
# 3 28.8321 73.4810 104.0209 0.0000 0.0000 0.0000
# 4 0.0000 0.0000 0.0000 24.3588 0.0000 0.0000
# 5 0.0000 0.0000 0.0000 0.0000 16.1776 0.0000
# 6 0.0000 0.0000 0.0000 0.0000 0.0000 26.9912
#
#
#
# Elastic Compliance Matrix: (Units=1/GPa)
#
#
# Indices 1 2 3 4 5 6 
#
# 1 0.038523 -0.007901 -0.005097 0.000000 0.000000 0.000000
# 2 -0.007901 0.011141 -0.005681 0.000000 0.000000 0.000000
# 3 -0.005097 -0.005681 0.015039 0.000000 0.000000 0.000000
# 4 0.000000 0.000000 0.000000 0.041053 0.000000 0.000000
# 5 0.000000 0.000000 0.000000 0.000000 0.061814 0.000000
# 6 0.000000 0.000000 0.000000 0.000000 0.000000 0.037049
#
#
# Mechanical properties :
#
#
# Convention : Reuss Voigt Hill
#
# Bulk Modulus (GPa) = 36.56562 65.30717 50.93640
# Shear Modulus (GPa) = 19.91306 23.84582 21.87944
#
# Velocity S-wave (km/s) = 3.63729 3.98030 3.81265
# Velocity P-wave (km/s) = 6.47560 8.03198 7.29541
#
# Compressibility (1/GPa) = 0.02734809
#
# Stress axis : x y z
#
# Youngs Moduli (GPa) = 25.95818 89.75490 66.49409
#
# Poissons Ratio (x) = 0.70911 0.33891
# Poissons Ratio (y) = 0.20508 0.37772
# Poissons Ratio (z) = 0.13230 0.50986
#
# Static dielectric constant tensor:
#      x y z
#    x 1.505560 0.000000 0.000000 
#    y 0.000000 1.487740 0.000000 
#    z 0.000000 0.000000 1.495200 
# 
# From -- ./inp_files/17067.got.cif
#   From: 2010.05.17/outbox.cif.g08.bks.cpg/sg44_9_cif.got.tgz:17067.got - 2010.06.03 19:37:08.
