data_PCOD9373512
_publ_section_title
;
Structure prediction by ZEFSAII (Michael W. Deem and Ramdas Pophale) SiO2 
 PCOD9373512
Probable space group: I M M 2
;
_chemical_formula_sum "Si O2"
_cell_formula_units_Z 56
_cell_length_a 7.445582
_cell_length_b 17.909925
_cell_length_c 17.734772
_cell_angle_alpha 90.000000
_cell_angle_beta 90.000000
_cell_angle_gamma 90.000000
_cell_volume 2364.928569
_symmetry_space_group_name_H-M "I M M 2"
_symmetry_group_IT_number 44
_symmetry_cell_setting 'orthorhombic'
loop_
_space_group_symop_operation_xyz
x,y,z
-x,-y,z
-x,y,z
x,-y,z
1/2+x,1/2+y,1/2+z
1/2-x,1/2-y,1/2+z
1/2-x,1/2+y,1/2+z
1/2+x,1/2-y,1/2+z
loop_
_atom_site_type_symbol
_atom_site_label
_atom_site_fract_x
_atom_site_fract_y
_atom_site_fract_z
Si Si1 0.783783 0.736184 0.339980
Si Si2 0.280792 0.084338 0.610490
Si Si3 0.786949 0.370491 0.943706
Si Si4 0.217197 0.500000 0.661977
Si Si5 0.280384 0.000000 0.334262
Si Si6 0.219243 0.261360 0.175706
Si Si7 0.206427 0.859433 0.060081
Si Si8 0.793222 0.583151 0.397302
O O1 0.740459 0.788275 0.410845
O O2 0.722704 0.766284 0.258409
O O3 0.713020 0.652489 0.352096
O O4 0.000000 0.732761 0.337245
O O5 0.500000 0.082933 0.610746
O O6 0.219480 0.108471 0.526482
O O7 0.229239 0.152385 0.664551
O O8 0.221748 0.000000 0.628173
O O9 0.719006 0.427912 0.880764
O O10 0.000000 0.381996 0.948841
O O11 0.277029 0.500000 0.748270
O O12 0.284977 0.572905 0.619112
O O13 0.000000 0.500000 0.658607
O O14 0.500000 0.000000 0.333111
O O15 0.282282 0.211469 0.105409
O O16 0.000000 0.257037 0.173357
O O17 0.000000 0.842854 0.039943
O O18 0.294544 0.889083 0.983916
O O19 0.713668 0.500000 0.392506
O O20 0.000000 0.576925 0.372202
#
# Coordination Sequence:
#
# PCOD9373512 Si02
#       8
#     8   8   8   4   4   8   8   8
#     4  10  21  36  53  77 109 143 177 218 270 320
#     4   9  16  29  53  81 106 135 174 221 265 306
#     4  10  18  33  55  80 107 137 178 222 264 315
#     4  11  21  33  51  77 110 145 178 216 265 321
#     4   9  18  31  51  79 110 143 178 216 261 321
#     4   9  19  33  50  77 110 139 175 222 268 315
#     4  11  21  35  55  80 108 140 179 223 270 318
#     4  10  21  37  56  77 105 143 183 223 265 318
#
# _framework density 23.679362999999999
#
# number of rings (size 3 to 8) (size 9 to 14) (size 15 to 20)
#    0.000    2.143    1.429    2.357    0.000    2.286 
#    0.000    4.643    0.000    0.857    0.000    0.000 
#    0.000    0.000    0.000    0.000    0.000    0.000 
#
# Total GULP energy -156474.948239 kJ/mol
# GULP energy per Si atom -5588.391009 kJ/mol
# Density = 2.362547 g / cm^3
# Si number density = 23.679363 Si / 1000 Ang^3
#
#
#
# Elastic Constant Matrix: (Units=GPa)
#
#
# Indices 1 2 3 4 5 6 
#
# 1 73.6599 -11.9668 -10.0778 0.0000 0.0000 0.0000
# 2 -11.9668 120.0327 -11.5984 0.0000 0.0000 0.0000
# 3 -10.0778 -11.5984 34.8576 0.0000 0.0000 0.0000
# 4 0.0000 0.0000 0.0000 39.6580 0.0000 0.0000
# 5 0.0000 0.0000 0.0000 0.0000 28.9590 0.0000
# 6 0.0000 0.0000 0.0000 0.0000 0.0000 10.8947
#
#
#
# Elastic Compliance Matrix: (Units=1/GPa)
#
#
# Indices 1 2 3 4 5 6 
#
# 1 0.014551 0.001919 0.004845 0.000000 0.000000 0.000000
# 2 0.001919 0.008861 0.003503 0.000000 0.000000 0.000000
# 3 0.004845 0.003503 0.031255 0.000000 0.000000 0.000000
# 4 0.000000 0.000000 0.000000 0.025216 0.000000 0.000000
# 5 0.000000 0.000000 0.000000 0.000000 0.034532 0.000000
# 6 0.000000 0.000000 0.000000 0.000000 0.000000 0.091788
#
#
# Mechanical properties :
#
#
# Convention : Reuss Voigt Hill
#
# Bulk Modulus (GPa) = 13.29785 17.91825 15.60805
# Shear Modulus (GPa) = 23.72666 33.38187 28.55427
#
# Velocity S-wave (km/s) = 3.16887 3.75873 3.47633
# Velocity P-wave (km/s) = 4.36084 5.14012 4.76644
#
# Compressibility (1/GPa) = 0.07520012
#
# Stress axis : x y z
#
# Youngs Moduli (GPa) = 68.72601 112.85592 31.99535
#
# Poissons Ratio (x) = -0.21655 -0.15502
# Poissons Ratio (y) = -0.13187 -0.11208
# Poissons Ratio (z) = -0.33299 -0.39534
#
# Static dielectric constant tensor:
#      x y z
#    x 1.899510 0.000000 0.000000 
#    y 0.000000 1.904350 0.000000 
#    z 0.000000 0.000000 1.852660 
# 
# From -- ./inp_files/23140.got.cif
#   From: 2010.05.17/outbox.cif.g08.bks.cpg/sg44_12_cif.got.tgz:23140.got - 2010.06.03 19:37:08.
