data_PCOD9373671
_publ_section_title
;
Structure prediction by ZEFSAII (Michael W. Deem and Ramdas Pophale) SiO2 
 PCOD9373671
Probable space group: I M M 2
;
_chemical_formula_sum "Si O2"
_cell_formula_units_Z 64
_cell_length_a 22.415199
_cell_length_b 19.769770
_cell_length_c 9.014607
_cell_angle_alpha 90.000000
_cell_angle_beta 90.000000
_cell_angle_gamma 90.000000
_cell_volume 3994.762953
_symmetry_space_group_name_H-M "I M M 2"
_symmetry_group_IT_number 44
_symmetry_cell_setting 'orthorhombic'
loop_
_space_group_symop_operation_xyz
x,y,z
-x,-y,z
-x,y,z
x,-y,z
1/2+x,1/2+y,1/2+z
1/2-x,1/2-y,1/2+z
1/2-x,1/2+y,1/2+z
1/2+x,1/2-y,1/2+z
loop_
_atom_site_type_symbol
_atom_site_label
_atom_site_fract_x
_atom_site_fract_y
_atom_site_fract_z
Si Si1 0.569067 0.294893 0.228300
Si Si2 0.853086 0.832269 0.442299
Si Si3 0.823980 0.291459 0.826469
Si Si4 0.067782 0.074309 0.257528
Si Si5 0.252778 0.921595 0.363022
Si Si6 0.232980 0.074379 0.011228
Si Si7 0.904102 0.925651 0.916599
Si Si8 0.727205 0.216498 0.996028
O O1 0.500000 0.276575 0.202707
O O2 0.608993 0.234830 0.300636
O O3 0.572374 0.361699 0.329327
O O4 0.604358 0.317825 0.080775
O O5 0.893135 0.865006 0.316604
O O6 0.798521 0.885817 0.462336
O O7 0.820148 0.762007 0.407879
O O8 0.809080 0.369952 0.862113
O O9 0.791292 0.246928 0.952142
O O10 0.789924 0.276603 0.669493
O O11 0.000000 0.079745 0.311150
O O12 0.091801 0.000000 0.305138
O O13 0.068865 0.074523 0.080770
O O14 0.263966 0.000000 0.401783
O O15 0.229492 0.920987 0.191250
O O16 0.167188 0.079850 0.942231
O O17 0.271855 0.137513 0.959724
O O18 0.257184 0.000000 0.975961
O O19 0.916556 0.000000 0.848734
#
# Coordination Sequence:
#
# PCOD9373671 Si02
#       8
#     8   8   8   8   8   8   8   8
#     4  11  22  33  44  63  98 134 158 182 224 284
#     4  10  19  30  45  68  93 120 151 182 230 280
#     4   9  18  31  47  68  90 117 153 190 235 276
#     4  10  19  31  46  64  88 120 159 192 215 252
#     4   9  16  29  51  72  87 110 149 197 239 271
#     4   9  15  27  48  68  87 111 144 186 229 265
#     4  10  19  31  45  63  88 119 157 192 217 254
#     4   9  17  29  47  67  87 113 148 188 231 270
#
# _framework density 16.020975
#
# number of rings (size 3 to 8) (size 9 to 14) (size 15 to 20)
#    0.000    2.375    2.500    1.125    0.000    1.750 
#    0.000    0.000    0.000    0.375    0.000    0.000 
#    0.000    1.500    0.000    0.750    0.000   21.375 
#
# Total GULP energy -178160.240729 kJ/mol
# GULP energy per Si atom -5567.507523 kJ/mol
# Density = 1.598451 g / cm^3
# Si number density = 16.020975 Si / 1000 Ang^3
#
#
#
# Elastic Constant Matrix: (Units=GPa)
#
#
# Indices 1 2 3 4 5 6 
#
# 1 92.5403 65.7327 25.5322 0.0000 0.0000 0.0000
# 2 65.7327 132.4883 18.7768 0.0000 0.0000 0.0000
# 3 25.5322 18.7768 11.9266 0.0000 0.0000 0.0000
# 4 0.0000 0.0000 0.0000 20.0974 0.0000 0.0000
# 5 0.0000 0.0000 0.0000 0.0000 -0.7569 0.0000
# 6 0.0000 0.0000 0.0000 0.0000 0.0000 17.5007
#
#
#
# Elastic Compliance Matrix: (Units=1/GPa)
#
#
# Indices 1 2 3 4 5 6 
#
# 1 0.031699 -0.007865 -0.055480 0.000000 0.000000 0.000000
# 2 -0.007865 0.011667 -0.001532 0.000000 0.000000 0.000000
# 3 -0.055480 -0.001532 0.205027 0.000000 0.000000 0.000000
# 4 0.000000 0.000000 0.000000 0.049758 0.000000 0.000000
# 5 0.000000 0.000000 0.000000 0.000000 -1.321153 0.000000
# 6 0.000000 0.000000 0.000000 0.000000 0.000000 0.057140
#
#
# Mechanical properties :
#
#
# Convention : Reuss Voigt Hill
#
# Bulk Modulus (GPa) = 8.42874 50.78204 29.60539
# Shear Modulus (GPa) = -6.27697 15.82916 4.77609
#
# Velocity S-wave (km/s) = -1.98153 3.14670 1.72847
# Velocity P-wave (km/s) = 0.19285 6.70584 4.74371
#
# Compressibility (1/GPa) = 0.11864164
#
# Stress axis : x y z
#
# Youngs Moduli (GPa) = 31.54630 85.71336 4.87740
#
# Poissons Ratio (x) = 0.67410 0.27060
# Poissons Ratio (y) = 0.24810 0.00747
# Poissons Ratio (z) = 1.75018 0.13127
#
# Static dielectric constant tensor:
#      x y z
#    x 1.553540 0.000000 0.000000 
#    y 0.000000 1.555620 0.000000 
#    z 0.000000 0.000000 1.556350 
# 
# From -- ./inp_files/8514.got.cif
#   From: 2010.05.17/outbox.cif.g08.bks.cpg/sg44_5_cif.got.tgz:8514.got - 2010.06.03 19:37:08.
