data_PCOD9373603
_publ_section_title
;
Structure prediction by ZEFSAII (Michael W. Deem and Ramdas Pophale) SiO2 
 PCOD9373603
Probable space group: I M M 2
;
_chemical_formula_sum "Si O2"
_cell_formula_units_Z 64
_cell_length_a 8.929827
_cell_length_b 14.015879
_cell_length_c 35.181680
_cell_angle_alpha 90.000000
_cell_angle_beta 90.000000
_cell_angle_gamma 90.000000
_cell_volume 4403.317071
_symmetry_space_group_name_H-M "I M M 2"
_symmetry_group_IT_number 44
_symmetry_cell_setting 'orthorhombic'
loop_
_space_group_symop_operation_xyz
x,y,z
-x,-y,z
-x,y,z
x,-y,z
1/2+x,1/2+y,1/2+z
1/2-x,1/2-y,1/2+z
1/2-x,1/2+y,1/2+z
1/2+x,1/2-y,1/2+z
loop_
_atom_site_type_symbol
_atom_site_label
_atom_site_fract_x
_atom_site_fract_y
_atom_site_fract_z
Si Si1 0.327263 0.383923 0.443090
Si Si2 0.822151 0.386082 0.363725
Si Si3 0.181368 0.606540 0.749563
Si Si4 0.672409 0.115978 0.021052
Si Si5 0.820013 0.284996 0.672574
Si Si6 0.320887 0.110668 0.714587
Si Si7 0.680336 0.298550 0.289133
Si Si8 0.321196 0.387106 0.600643
O O1 0.500000 0.353981 0.441627
O O2 0.325154 0.500000 0.443897
O O3 0.240961 0.356031 0.404814
O O4 0.249350 0.351235 0.482014
O O5 0.794462 0.500000 0.359635
O O6 0.741137 0.332700 0.329407
O O7 0.000000 0.371167 0.362021
O O8 0.238640 0.500000 0.756760
O O9 0.221301 0.643968 0.707464
O O10 0.225260 0.689720 0.778781
O O11 0.000000 0.602949 0.750542
O O12 0.500000 0.146658 0.023015
O O13 0.760620 0.142395 0.059196
O O14 0.673355 0.000000 0.019921
O O15 0.751165 0.183397 0.684475
O O16 0.755633 0.326949 0.633807
O O17 0.000000 0.278769 0.671159
O O18 0.500000 0.124681 0.716226
O O19 0.249950 0.137666 0.755394
O O20 0.291030 0.000000 0.705963
O O21 0.500000 0.305558 0.287709
O O22 0.500000 0.377000 0.602086
O O23 0.285294 0.500000 0.605789
#
# Coordination Sequence:
#
# PCOD9373603 Si02
#       8
#     8   8   8   8   8   8   8   8
#     4   9  16  26  40  58  81 109 141 176 212 251
#     4  10  19  29  41  58  83 115 146 176 212 253
#     4   8  15  28  44  61  82 108 138 173 213 254
#     4   9  16  26  40  58  82 113 146 176 209 252
#     4  10  19  30  46  66  86 111 145 183 219 257
#     4  10  20  33  47  62  84 114 144 177 219 263
#     4  10  19  29  44  65  85 109 143 180 215 253
#     4  10  19  29  42  62  89 119 149 181 215 252
#
# _framework density 14.534497999999999
#
# number of rings (size 3 to 8) (size 9 to 14) (size 15 to 20)
#    0.000    2.500    0.000    4.125    0.000    7.500 
#    0.000    0.000    0.000    7.500    0.000    0.000 
#    0.000    1.000    0.000    6.000    0.000    4.625 
#
# Total GULP energy -178375.063536 kJ/mol
# GULP energy per Si atom -5574.220736 kJ/mol
# Density = 1.450142 g / cm^3
# Si number density = 14.534498 Si / 1000 Ang^3
#
#
#
# Elastic Constant Matrix: (Units=GPa)
#
#
# Indices 1 2 3 4 5 6 
#
# 1 79.7441 46.4632 63.8042 0.0000 0.0000 0.0000
# 2 46.4632 74.4145 56.1676 0.0000 0.0000 0.0000
# 3 63.8042 56.1676 143.3312 0.0000 0.0000 0.0000
# 4 0.0000 0.0000 0.0000 18.1559 0.0000 0.0000
# 5 0.0000 0.0000 0.0000 0.0000 30.7182 0.0000
# 6 0.0000 0.0000 0.0000 0.0000 0.0000 15.9359
#
#
#
# Elastic Compliance Matrix: (Units=1/GPa)
#
#
# Indices 1 2 3 4 5 6 
#
# 1 0.023500 -0.009624 -0.006690 0.000000 0.000000 0.000000
# 2 -0.009624 0.023024 -0.004738 0.000000 0.000000 0.000000
# 3 -0.006690 -0.004738 0.011812 0.000000 0.000000 0.000000
# 4 0.000000 0.000000 0.000000 0.055079 0.000000 0.000000
# 5 0.000000 0.000000 0.000000 0.000000 0.032554 0.000000
# 6 0.000000 0.000000 0.000000 0.000000 0.000000 0.062751
#
#
# Mechanical properties :
#
#
# Convention : Reuss Voigt Hill
#
# Bulk Modulus (GPa) = 61.60800 70.03998 65.82399
# Shear Modulus (GPa) = 19.51348 21.69898 20.60623
#
# Velocity S-wave (km/s) = 3.66808 3.86804 3.76938
# Velocity P-wave (km/s) = 7.77298 8.26089 8.02065
#
# Compressibility (1/GPa) = 0.01623166
#
# Stress axis : x y z
#
# Youngs Moduli (GPa) = 42.55330 43.43384 84.66197
#
# Poissons Ratio (x) = 0.41799 0.56638
# Poissons Ratio (y) = 0.40951 0.40116
# Poissons Ratio (z) = 0.28467 0.20580
#
# Static dielectric constant tensor:
#      x y z
#    x 1.485370 0.000000 0.000000 
#    y 0.000000 1.466070 0.000000 
#    z 0.000000 0.000000 1.464930 
# 
# From -- ./inp_files/27280.got.cif
#   From: 2010.05.17/outbox.cif.g08.bks.cpg/sg44_14_cif.got.tgz:27280.got - 2010.06.03 19:37:08.
