data_PCOD9373706
_publ_section_title
;
Structure prediction by ZEFSAII (Michael W. Deem and Ramdas Pophale) SiO2 
 PCOD9373706
Probable space group: I M M 2
;
_chemical_formula_sum "Si O2"
_cell_formula_units_Z 48
_cell_length_a 7.557818
_cell_length_b 33.450822
_cell_length_c 8.876177
_cell_angle_alpha 90.000000
_cell_angle_beta 90.000000
_cell_angle_gamma 90.000000
_cell_volume 2244.032682
_symmetry_space_group_name_H-M "I M M 2"
_symmetry_group_IT_number 44
_symmetry_cell_setting 'orthorhombic'
loop_
_space_group_symop_operation_xyz
x,y,z
-x,-y,z
-x,y,z
x,-y,z
1/2+x,1/2+y,1/2+z
1/2-x,1/2-y,1/2+z
1/2-x,1/2+y,1/2+z
1/2+x,1/2-y,1/2+z
loop_
_atom_site_type_symbol
_atom_site_label
_atom_site_fract_x
_atom_site_fract_y
_atom_site_fract_z
Si Si1 0.291691 0.210821 0.155320
Si Si2 0.203844 0.371334 0.530156
Si Si3 0.285334 0.707671 0.005691
Si Si4 0.787236 0.543022 0.161678
Si Si5 0.784166 0.542969 0.517335
Si Si6 0.207518 0.870208 0.683500
O O1 0.500000 0.210996 0.115083
O O2 0.271775 0.209650 0.333609
O O3 0.213873 0.169845 0.087802
O O4 0.220486 0.252405 0.089901
O O5 0.280882 0.414437 0.578560
O O6 0.204810 0.370970 0.348255
O O7 0.000000 0.371560 0.582773
O O8 0.500000 0.707005 0.009364
O O9 0.225044 0.666931 0.086195
O O10 0.726048 0.500000 0.097669
O O11 0.737723 0.542659 0.339409
O O12 0.728202 0.586408 0.105382
O O13 0.000000 0.543075 0.153827
O O14 0.726743 0.500000 0.581746
O O15 0.000000 0.543659 0.523936
O O16 0.000000 0.864139 0.711993
#
# Coordination Sequence:
#
# PCOD9373706 Si02
#       6
#     8   8   8   8   8   8
#     4  10  21  36  54  74  95 126 170 210 246 297
#     4   9  17  30  49  73  98 126 165 208 246 289
#     4  10  22  37  51  72 101 129 161 205 254 299
#     4   8  14  26  45  69  97 129 165 204 242 280
#     4   7  10  19  38  64  92 119 147 186 236 279
#     4  10  19  30  47  73 103 133 164 199 246 301
#
# _framework density 21.390063000000001
#
# number of rings (size 3 to 8) (size 9 to 14) (size 15 to 20)
#    0.000    3.000    0.000    3.500    0.000    3.000 
#    0.000    0.000    0.000    1.000    0.000    2.333 
#    0.000    0.000    0.000    0.000    0.000    0.000 
#
# Total GULP energy -133722.980881 kJ/mol
# GULP energy per Si atom -5571.790870 kJ/mol
# Density = 2.134138 g / cm^3
# Si number density = 21.390063 Si / 1000 Ang^3
#
#
#
# Elastic Constant Matrix: (Units=GPa)
#
#
# Indices 1 2 3 4 5 6 
#
# 1 50.5390 2.9280 -15.3694 0.0000 0.0000 0.0000
# 2 2.9280 282.6620 61.5011 0.0001 0.0000 0.0001
# 3 -15.3694 61.5011 40.8525 0.0001 0.0000 0.0001
# 4 0.0000 0.0001 0.0001 25.0316 0.0000 0.0001
# 5 0.0000 0.0000 0.0000 0.0000 13.3199 0.0001
# 6 0.0000 0.0001 0.0001 0.0001 0.0001 12.7445
#
#
#
# Elastic Compliance Matrix: (Units=1/GPa)
#
#
# Indices 1 2 3 4 5 6 
#
# 1 0.024282 -0.003330 0.014148 0.000000 0.000000 0.000000
# 2 -0.003330 0.005718 -0.009860 0.000000 0.000000 0.000000
# 3 0.014148 -0.009860 0.044645 0.000000 0.000000 0.000000
# 4 0.000000 0.000000 0.000000 0.039950 0.000000 0.000000
# 5 0.000000 0.000000 0.000000 0.000000 0.075076 0.000000
# 6 0.000000 0.000000 0.000000 0.000000 0.000000 0.078465
#
#
# Mechanical properties :
#
#
# Convention : Reuss Voigt Hill
#
# Bulk Modulus (GPa) = 13.06141 52.46366 32.76254
# Shear Modulus (GPa) = 17.13852 31.88544 24.51198
#
# Velocity S-wave (km/s) = 2.83368 3.86510 3.38886
# Velocity P-wave (km/s) = 4.10194 6.67076 5.53737
#
# Compressibility (1/GPa) = 0.07656139
#
# Stress axis : x y z
#
# Youngs Moduli (GPa) = 41.18235 174.89550 22.39872
#
# Poissons Ratio (x) = 0.58239 -0.31690
# Poissons Ratio (y) = 0.13713 0.22086
# Poissons Ratio (z) = -0.58266 1.72454
#
# Static dielectric constant tensor:
#      x y z
#    x 1.834300 0.000000 0.000000 
#    y 0.000000 1.869310 0.000000 
#    z 0.000000 0.000000 1.709270 
# 
# From -- ./inp_files/4888.got.cif
#   From: 2010.05.17/outbox.cif.g08.bks.cpg/sg44_3_cif.got.tgz:4888.got - 2010.06.03 19:37:08.
