data_PCOD9373287
_publ_section_title
;
Structure prediction by ZEFSAII (Michael W. Deem and Ramdas Pophale) SiO2 
 PCOD9373287
Probable space group: I M M 2
;
_chemical_formula_sum "Si O2"
_cell_formula_units_Z 64
_cell_length_a 15.095217
_cell_length_b 7.579503
_cell_length_c 29.177367
_cell_angle_alpha 90.000000
_cell_angle_beta 90.000000
_cell_angle_gamma 90.000000
_cell_volume 3338.306345
_symmetry_space_group_name_H-M "I M M 2"
_symmetry_group_IT_number 44
_symmetry_cell_setting 'orthorhombic'
loop_
_space_group_symop_operation_xyz
x,y,z
-x,-y,z
-x,y,z
x,-y,z
1/2+x,1/2+y,1/2+z
1/2-x,1/2-y,1/2+z
1/2-x,1/2+y,1/2+z
1/2+x,1/2-y,1/2+z
loop_
_atom_site_type_symbol
_atom_site_label
_atom_site_fract_x
_atom_site_fract_y
_atom_site_fract_z
Si Si1 0.900232 0.709242 0.859830
Si Si2 0.600338 0.711036 0.088491
Si Si3 0.601718 0.214923 0.816128
Si Si4 0.100947 0.712290 0.483622
Si Si5 0.218733 0.289681 0.400202
Si Si6 0.099791 0.715398 0.211531
Si Si7 0.220566 0.216418 0.671476
Si Si8 0.100153 0.210703 0.755621
O O1 0.906442 0.500000 0.861343
O O2 0.823175 0.761355 0.894627
O O3 0.871969 0.758394 0.808003
O O4 0.000000 0.781936 0.867368
O O5 0.500000 0.780016 0.095709
O O6 0.595852 0.500000 0.094345
O O7 0.669541 0.776946 0.126114
O O8 0.625378 0.745195 0.035904
O O9 0.500000 0.263038 0.827084
O O10 0.668462 0.279716 0.854893
O O11 0.620752 0.270041 0.763965
O O12 0.605288 0.000000 0.815820
O O13 0.097882 0.500000 0.480313
O O14 0.170031 0.778450 0.445722
O O15 0.000000 0.776811 0.475434
O O16 0.205464 0.500000 0.400080
O O17 0.098913 0.500000 0.211689
O O18 0.178167 0.772797 0.178224
O O19 0.000000 0.773029 0.200378
O O20 0.165603 0.274749 0.716336
O O21 0.220867 0.000000 0.671157
O O22 0.000000 0.281288 0.750407
O O23 0.095770 0.000000 0.749788
#
# Coordination Sequence:
#
# PCOD9373287 Si02
#       8
#     8   8   8   8   8   8   8   8
#     4  10  21  34  45  62  93 127 154 185 227 270
#     4   9  17  29  45  65  89 117 148 183 226 273
#     4   8  13  22  39  66  95 116 138 175 222 267
#     4   9  18  32  49  71  97 119 142 180 230 279
#     4  10  18  29  49  71  88 114 153 189 221 264
#     4   8  13  20  32  55  87 116 139 169 212 257
#     4   9  15  24  41  64  88 115 150 190 225 258
#     4   9  16  27  45  67  89 115 150 189 225 264
#
# _framework density 19.171398
#
# number of rings (size 3 to 8) (size 9 to 14) (size 15 to 20)
#    0.000    3.000    0.000    2.625    0.000    6.250 
#    0.000    0.625    0.000    4.875    0.000    1.750 
#    0.000    1.000    0.000    0.000    0.000    0.000 
#
# Total GULP energy -178467.114495 kJ/mol
# GULP energy per Si atom -5577.097328 kJ/mol
# Density = 1.912776 g / cm^3
# Si number density = 19.171398 Si / 1000 Ang^3
#
#
#
# Elastic Constant Matrix: (Units=GPa)
#
#
# Indices 1 2 3 4 5 6 
#
# 1 146.4106 3.4209 118.0249 0.0000 0.0000 0.0000
# 2 3.4209 40.6937 2.6171 0.0000 0.0000 0.0000
# 3 118.0249 2.6171 128.6935 0.0000 0.0000 0.0000
# 4 0.0000 0.0000 0.0000 10.2625 0.0000 0.0000
# 5 0.0000 0.0000 0.0000 0.0000 33.8266 0.0000
# 6 0.0000 0.0000 0.0000 0.0000 0.0000 -3.7882
#
#
#
# Elastic Compliance Matrix: (Units=1/GPa)
#
#
# Indices 1 2 3 4 5 6 
#
# 1 0.026216 -0.000659 -0.024030 0.000000 0.000000 0.000000
# 2 -0.000659 0.024623 0.000103 0.000000 0.000000 0.000000
# 3 -0.024030 0.000103 0.029806 0.000000 0.000000 0.000000
# 4 0.000000 0.000000 0.000000 0.097442 0.000000 0.000000
# 5 0.000000 0.000000 0.000000 0.000000 0.029563 0.000000
# 6 0.000000 0.000000 0.000000 0.000000 0.000000 -0.263978
#
#
# Mechanical properties :
#
#
# Convention : Reuss Voigt Hill
#
# Bulk Modulus (GPa) = 31.77133 62.65818 47.21475
# Shear Modulus (GPa) = 1500.02134 20.84251 760.43193
#
# Velocity S-wave (km/s) = 28.00224 3.30080 19.93766
# Velocity P-wave (km/s) = 32.59001 6.87613 23.55196
#
# Compressibility (1/GPa) = 0.03147492
#
# Stress axis : x y z
#
# Youngs Moduli (GPa) = 38.14417 40.61316 33.55040
#
# Poissons Ratio (x) = 0.02674 0.80620
# Poissons Ratio (y) = 0.02512 -0.00346
# Poissons Ratio (z) = 0.91659 -0.00419
#
# Static dielectric constant tensor:
#      x y z
#    x 1.679220 0.000000 0.000000 
#    y 0.000000 1.736400 0.000000 
#    z 0.000000 0.000000 1.644440 
# 
# From -- ./inp_files/27305.got.cif
#   From: 2010.05.17/outbox.cif.g08.bks.cpg/sg44_14_cif.got.tgz:27305.got - 2010.06.03 19:37:08.
