data_PCOD9373285
_publ_section_title
;
Structure prediction by ZEFSAII (Michael W. Deem and Ramdas Pophale) SiO2 
 PCOD9373285
Probable space group: I M M 2
;
_chemical_formula_sum "Si O2"
_cell_formula_units_Z 64
_cell_length_a 14.978128
_cell_length_b 8.069873
_cell_length_c 24.871310
_cell_angle_alpha 90.000000
_cell_angle_beta 90.000000
_cell_angle_gamma 90.000000
_cell_volume 3006.234803
_symmetry_space_group_name_H-M "I M M 2"
_symmetry_group_IT_number 44
_symmetry_cell_setting 'orthorhombic'
loop_
_space_group_symop_operation_xyz
x,y,z
-x,-y,z
-x,y,z
x,-y,z
1/2+x,1/2+y,1/2+z
1/2-x,1/2-y,1/2+z
1/2-x,1/2+y,1/2+z
1/2+x,1/2-y,1/2+z
loop_
_atom_site_type_symbol
_atom_site_label
_atom_site_fract_x
_atom_site_fract_y
_atom_site_fract_z
Si Si1 0.803875 0.699794 0.494940
Si Si2 0.181746 0.304924 0.372908
Si Si3 0.904210 0.697440 0.756782
Si Si4 0.255344 0.313200 0.185279
Si Si5 0.099800 0.803297 0.261245
Si Si6 0.898510 0.802602 0.601132
Si Si7 0.901480 0.190935 0.991683
Si Si8 0.875381 0.312662 0.877403
O O1 0.801114 0.500000 0.500245
O O2 0.843453 0.733650 0.435085
O O3 0.866445 0.773540 0.540518
O O4 0.699548 0.759756 0.502814
O O5 0.204652 0.500000 0.372661
O O6 0.123543 0.272174 0.319912
O O7 0.270388 0.198141 0.367125
O O8 0.884333 0.500000 0.750404
O O9 0.826783 0.807389 0.733380
O O10 0.912190 0.729262 0.819631
O O11 0.000000 0.731928 0.730774
O O12 0.232149 0.500000 0.169008
O O13 0.168415 0.235942 0.212982
O O14 0.317094 0.233402 0.138311
O O15 0.000000 0.749529 0.246396
O O16 0.101682 0.000000 0.268967
O O17 0.000000 0.737503 0.608511
O O18 0.901585 0.000000 0.612470
O O19 0.901008 0.198676 0.926809
O O20 0.000000 0.261254 0.008745
O O21 0.900638 0.000000 0.009883
O O22 0.900043 0.500000 0.892322
#
# Coordination Sequence:
#
# PCOD9373285 Si02
#       8
#     8   8   8   8   8   8   8   8
#     4   9  20  37  59  89 121 156 201 249 297 350
#     4  10  20  36  58  86 121 160 201 244 295 351
#     4  10  20  32  49  78 115 152 191 236 287 345
#     4  11  23  40  62  85 115 153 195 247 301 354
#     4  11  24  41  62  90 123 159 199 243 297 362
#     4  10  23  43  64  88 118 153 197 248 302 359
#     4   9  18  33  52  77 114 157 197 238 288 348
#     4  10  18  29  48  77 115 154 193 237 285 341
#
# _framework density 21.289088
#
# number of rings (size 3 to 8) (size 9 to 14) (size 15 to 20)
#    0.000    2.000    1.250    3.000    0.000    7.250 
#    0.000    3.125    0.000    2.250    0.000    0.000 
#    0.000    0.000    0.000    0.000    0.000    0.000 
#
# Total GULP energy -178211.570787 kJ/mol
# GULP energy per Si atom -5569.111587 kJ/mol
# Density = 2.124063 g / cm^3
# Si number density = 21.289088 Si / 1000 Ang^3
#
#
#
# Elastic Constant Matrix: (Units=GPa)
#
#
# Indices 1 2 3 4 5 6 
#
# 1 133.2072 16.0265 54.5429 0.0000 0.0000 0.0000
# 2 16.0265 15.0218 11.8944 0.0000 0.0000 0.0000
# 3 54.5429 11.8944 93.5605 0.0000 0.0000 0.0000
# 4 0.0000 0.0000 0.0000 23.5329 0.0000 0.0000
# 5 0.0000 0.0000 0.0000 0.0000 1999.0660 0.0000
# 6 0.0000 0.0000 0.0000 0.0000 0.0000 91.6219
#
#
#
# Elastic Compliance Matrix: (Units=1/GPa)
#
#
# Indices 1 2 3 4 5 6 
#
# 1 0.010494 -0.007063 -0.005220 0.000000 0.000000 0.000000
# 2 -0.007063 0.078775 -0.005897 0.000000 0.000000 0.000000
# 3 -0.005220 -0.005897 0.014481 0.000000 0.000000 0.000000
# 4 0.000000 0.000000 0.000000 0.042494 0.000000 0.000000
# 5 0.000000 0.000000 0.000000 0.000000 0.000500 0.000000
# 6 0.000000 0.000000 0.000000 0.000000 0.000000 0.010914
#
#
# Mechanical properties :
#
#
# Convention : Reuss Voigt Hill
#
# Bulk Modulus (GPa) = 14.83900 45.19080 30.01490
# Shear Modulus (GPa) = 23.09661 433.46586 228.28124
#
# Velocity S-wave (km/s) = 3.29736 14.28466 10.36639
# Velocity P-wave (km/s) = 4.63488 17.12723 12.54639
#
# Compressibility (1/GPa) = 0.06739001
#
# Stress axis : x y z
#
# Youngs Moduli (GPa) = 95.29070 12.69440 69.05589
#
# Poissons Ratio (x) = 0.08966 0.36046
# Poissons Ratio (y) = 0.67304 0.40724
# Poissons Ratio (z) = 0.49741 0.07486
#
# Static dielectric constant tensor:
#      x y z
#    x 0.815880 0.000000 0.000000 
#    y 0.000000 1.768520 0.000000 
#    z 0.000000 0.000000 1.792530 
# 
# From -- ./inp_files/25784.got.cif
#   From: 2010.05.17/outbox.cif.g08.bks.cpg/sg44_13_cif.got.tgz:25784.got - 2010.06.03 19:37:08.
