data_PCOD9373617
_publ_section_title
;
Structure prediction by ZEFSAII (Michael W. Deem and Ramdas Pophale) SiO2 
 PCOD9373617
Probable space group: I M M 2
;
_chemical_formula_sum "Si O2"
_cell_formula_units_Z 64
_cell_length_a 8.359401
_cell_length_b 19.325632
_cell_length_c 22.426020
_cell_angle_alpha 90.000000
_cell_angle_beta 90.000000
_cell_angle_gamma 90.000000
_cell_volume 3622.939397
_symmetry_space_group_name_H-M "I M M 2"
_symmetry_group_IT_number 44
_symmetry_cell_setting 'orthorhombic'
loop_
_space_group_symop_operation_xyz
x,y,z
-x,-y,z
-x,y,z
x,-y,z
1/2+x,1/2+y,1/2+z
1/2-x,1/2-y,1/2+z
1/2-x,1/2+y,1/2+z
1/2+x,1/2-y,1/2+z
loop_
_atom_site_type_symbol
_atom_site_label
_atom_site_fract_x
_atom_site_fract_y
_atom_site_fract_z
Si Si1 0.681484 0.821969 0.776190
Si Si2 0.305191 0.576053 0.631192
Si Si3 0.307783 0.422187 0.376463
Si Si4 0.693543 0.365498 0.503761
Si Si5 0.694413 0.278027 0.678937
Si Si6 0.190557 0.424163 0.053989
Si Si7 0.319588 0.421331 0.187154
Si Si8 0.690055 0.278489 0.051644
O O1 0.500000 0.807147 0.793827
O O2 0.764047 0.861827 0.830239
O O3 0.750451 0.755270 0.741304
O O4 0.691876 0.877394 0.722567
O O5 0.500000 0.575720 0.632697
O O6 0.249375 0.500000 0.649704
O O7 0.258788 0.591775 0.562709
O O8 0.254054 0.642681 0.669128
O O9 0.500000 0.425928 0.377671
O O10 0.248706 0.500000 0.361089
O O11 0.252157 0.400347 0.442519
O O12 0.500000 0.363474 0.503271
O O13 0.754561 0.287644 0.513592
O O14 0.500000 0.274979 0.678856
O O15 0.749776 0.236543 0.619638
O O16 0.227908 0.500000 0.026088
O O17 0.279293 0.423244 0.117686
O O18 0.242208 0.350971 0.026625
O O19 0.000000 0.422202 0.063409
O O20 0.500000 0.393797 0.196625
O O21 0.317638 0.500000 0.209349
O O22 0.500000 0.282252 0.053172
#
# Coordination Sequence:
#
# PCOD9373617 Si02
#       8
#     8   8   8   8   8   8   8   8
#     4  11  21  31  45  65  96 135 169 203 246 295
#     4   8  13  25  49  75  93 114 151 200 249 296
#     4  10  21  36  53  73  97 130 174 217 252 292
#     4   9  18  33  52  71  95 126 162 204 251 303
#     4   9  18  31  46  67  96 129 164 201 245 303
#     4  10  19  30  45  66  94 127 161 197 240 291
#     4  10  19  29  42  62  89 123 163 202 236 277
#     4  11  20  30  48  72  98 128 162 203 249 296
#
# _framework density 17.665213999999999
#
# number of rings (size 3 to 8) (size 9 to 14) (size 15 to 20)
#    0.000    2.250    1.250    3.750    0.000    5.750 
#    0.000    0.000    0.000    9.000    0.000    0.875 
#    0.000    3.000    0.000    0.000    0.000    0.125 
#
# Total GULP energy -178273.651397 kJ/mol
# GULP energy per Si atom -5571.051606 kJ/mol
# Density = 1.762501 g / cm^3
# Si number density = 17.665214 Si / 1000 Ang^3
#
#
#
# Elastic Constant Matrix: (Units=GPa)
#
#
# Indices 1 2 3 4 5 6 
#
# 1 28.4805 16.3297 8.0480 0.0000 0.0000 0.0000
# 2 16.3297 149.2838 42.5637 0.0000 0.0000 0.0000
# 3 8.0480 42.5637 66.6536 0.0000 0.0000 0.0000
# 4 0.0000 0.0000 0.0000 20.2993 0.0000 0.0000
# 5 0.0000 0.0000 0.0000 0.0000 16.7618 0.0000
# 6 0.0000 0.0000 0.0000 0.0000 0.0000 13.3902
#
#
#
# Elastic Compliance Matrix: (Units=1/GPa)
#
#
# Indices 1 2 3 4 5 6 
#
# 1 0.037760 -0.003461 -0.002349 0.000000 0.000000 0.000000
# 2 -0.003461 0.008507 -0.005015 0.000000 0.000000 0.000000
# 3 -0.002349 -0.005015 0.018489 0.000000 0.000000 0.000000
# 4 0.000000 0.000000 0.000000 0.049263 0.000000 0.000000
# 5 0.000000 0.000000 0.000000 0.000000 0.059659 0.000000
# 6 0.000000 0.000000 0.000000 0.000000 0.000000 0.074682
#
#
# Mechanical properties :
#
#
# Convention : Reuss Voigt Hill
#
# Bulk Modulus (GPa) = 23.19835 42.03342 32.61588
# Shear Modulus (GPa) = 17.58228 21.92202 19.75215
#
# Velocity S-wave (km/s) = 3.15827 3.52656 3.34749
# Velocity P-wave (km/s) = 5.14396 6.35833 5.78310
#
# Compressibility (1/GPa) = 0.04310652
#
# Stress axis : x y z
#
# Youngs Moduli (GPa) = 26.48321 117.55126 54.08679
#
# Poissons Ratio (x) = 0.40680 0.12707
# Poissons Ratio (y) = 0.09165 0.27122
# Poissons Ratio (z) = 0.06222 0.58946
#
# Static dielectric constant tensor:
#      x y z
#    x 1.611570 0.000000 0.000000 
#    y 0.000000 1.668600 0.000000 
#    z 0.000000 0.000000 1.590950 
# 
# From -- ./inp_files/25225.got.cif
#   From: 2010.05.17/outbox.cif.g08.bks.cpg/sg44_13_cif.got.tgz:25225.got - 2010.06.03 19:37:08.
