data_PCOD9373780
_publ_section_title
;
Structure prediction by ZEFSAII (Michael W. Deem and Ramdas Pophale) SiO2 
 PCOD9373780
Probable space group: I M M 2
;
_chemical_formula_sum "Si O2"
_cell_formula_units_Z 40
_cell_length_a 21.867465
_cell_length_b 7.714578
_cell_length_c 13.107758
_cell_angle_alpha 90.000000
_cell_angle_beta 90.000000
_cell_angle_gamma 90.000000
_cell_volume 2211.256025
_symmetry_space_group_name_H-M "I M M 2"
_symmetry_group_IT_number 44
_symmetry_cell_setting 'orthorhombic'
loop_
_space_group_symop_operation_xyz
x,y,z
-x,-y,z
-x,y,z
x,-y,z
1/2+x,1/2+y,1/2+z
1/2-x,1/2-y,1/2+z
1/2-x,1/2+y,1/2+z
1/2+x,1/2-y,1/2+z
loop_
_atom_site_type_symbol
_atom_site_label
_atom_site_fract_x
_atom_site_fract_y
_atom_site_fract_z
Si Si1 0.431160 0.206694 0.320950
Si Si2 0.301049 0.292540 0.713063
Si Si3 0.837643 0.209539 0.995091
Si Si4 0.798216 0.292759 0.437502
Si Si5 0.835355 0.712245 0.655542
O O1 0.500000 0.277010 0.324630
O O2 0.393105 0.234281 0.424382
O O3 0.389675 0.275179 0.227679
O O4 0.435483 0.000000 0.306319
O O5 0.299164 0.500000 0.706342
O O6 0.338005 0.232007 0.613321
O O7 0.323053 0.248657 0.825927
O O8 0.230722 0.231839 0.699512
O O9 0.772109 0.270678 0.949590
O O10 0.837090 0.000000 0.993734
O O11 0.795146 0.500000 0.445337
O O12 0.835448 0.232843 0.537067
O O13 0.836121 0.500000 0.657958
#
# Coordination Sequence:
#
# PCOD9373780 Si02
#       5
#     8   8   8   8   8
#     4  10  19  31  49  69  90 121 158 189 221 268
#     4   9  16  28  46  66  92 122 148 182 229 274
#     4   9  18  30  44  66  94 123 154 184 227 277
#     4   9  16  27  45  67  91 119 150 186 228 272
#     4   8  15  28  43  63  93 120 144 182 228 267
#
# _framework density 18.089268000000001
#
# number of rings (size 3 to 8) (size 9 to 14) (size 15 to 20)
#    0.000    3.000    2.000    2.400    0.000    1.200 
#    0.000    4.000    0.000    1.200    0.000    2.800 
#    0.000    0.000    0.000    0.000    0.000    0.000 
#
# Total GULP energy -111412.053908 kJ/mol
# GULP energy per Si atom -5570.602695 kJ/mol
# Density = 1.804810 g / cm^3
# Si number density = 18.089268 Si / 1000 Ang^3
#
#
#
# Elastic Constant Matrix: (Units=GPa)
#
#
# Indices 1 2 3 4 5 6 
#
# 1 110.8814 7.2560 81.9402 0.0000 0.0000 0.0000
# 2 7.2560 24.4504 0.5345 0.0000 0.0000 0.0000
# 3 81.9402 0.5345 195.4863 0.0000 0.0000 0.0000
# 4 0.0000 0.0000 0.0000 22.8728 0.0000 0.0000
# 5 0.0000 0.0000 0.0000 0.0000 17.6786 0.0000
# 6 0.0000 0.0000 0.0000 0.0000 0.0000 11.5436
#
#
#
# Elastic Compliance Matrix: (Units=1/GPa)
#
#
# Indices 1 2 3 4 5 6 
#
# 1 0.013421 -0.003860 -0.005615 0.000000 0.000000 0.000000
# 2 -0.003860 0.042012 0.001503 0.000000 0.000000 0.000000
# 3 -0.005615 0.001503 0.007465 0.000000 0.000000 0.000000
# 4 0.000000 0.000000 0.000000 0.043720 0.000000 0.000000
# 5 0.000000 0.000000 0.000000 0.000000 0.056566 0.000000
# 6 0.000000 0.000000 0.000000 0.000000 0.000000 0.086628
#
#
# Mechanical properties :
#
#
# Convention : Reuss Voigt Hill
#
# Bulk Modulus (GPa) = 21.29757 56.69774 38.99766
# Shear Modulus (GPa) = 17.76797 26.49150 22.12974
#
# Velocity S-wave (km/s) = 3.13747 3.83101 3.50145
# Velocity P-wave (km/s) = 4.99240 7.14004 6.16053
#
# Compressibility (1/GPa) = 0.04695371
#
# Stress axis : x y z
#
# Youngs Moduli (GPa) = 74.51282 23.80286 133.96136
#
# Poissons Ratio (x) = 0.09188 0.75217
# Poissons Ratio (y) = 0.28762 -0.20135
# Poissons Ratio (z) = 0.41837 -0.03578
#
# Static dielectric constant tensor:
#      x y z
#    x 1.595830 0.000000 0.000000 
#    y 0.000000 1.681140 0.000000 
#    z 0.000000 0.000000 1.662340 
# 
# From -- ./inp_files/5819.got.cif
#   From: 2010.05.17/outbox.cif.g08.bks.cpg/sg44_3_cif.got.tgz:5819.got - 2010.06.03 19:37:08.
