data_PCOD9373908
_publ_section_title
;
Structure prediction by ZEFSAII (Michael W. Deem and Ramdas Pophale) SiO2 
 PCOD9373908
Probable space group: I M M 2
;
_chemical_formula_sum "Si O2"
_cell_formula_units_Z 64
_cell_length_a 7.706845
_cell_length_b 29.308841
_cell_length_c 13.203555
_cell_angle_alpha 90.000000
_cell_angle_beta 90.000000
_cell_angle_gamma 90.000000
_cell_volume 2982.401769
_symmetry_space_group_name_H-M "I M M 2"
_symmetry_group_IT_number 44
_symmetry_cell_setting 'orthorhombic'
loop_
_space_group_symop_operation_xyz
x,y,z
-x,-y,z
-x,y,z
x,-y,z
1/2+x,1/2+y,1/2+z
1/2-x,1/2-y,1/2+z
1/2-x,1/2+y,1/2+z
1/2+x,1/2-y,1/2+z
loop_
_atom_site_type_symbol
_atom_site_label
_atom_site_fract_x
_atom_site_fract_y
_atom_site_fract_z
Si Si1 0.695850 0.192650 0.255620
Si Si2 0.799366 0.375621 0.918848
Si Si3 0.796962 0.856233 0.644167
Si Si4 0.206968 0.947700 0.257107
Si Si5 0.790860 0.552574 0.531696
Si Si6 0.210245 0.725374 0.381260
Si Si7 0.705106 0.121898 0.861094
Si Si8 0.787750 0.755065 0.602562
O O1 0.500000 0.174782 0.239600
O O2 0.781713 0.161469 0.340731
O O3 0.695456 0.244083 0.298555
O O4 0.777692 0.206821 0.149513
O O5 0.785675 0.420950 0.851635
O O6 0.000000 0.362915 0.933853
O O7 0.724224 0.376769 0.031508
O O8 0.727212 0.884498 0.740007
O O9 0.721630 0.804500 0.639879
O O10 0.000000 0.851530 0.663135
O O11 0.000000 0.946759 0.269052
O O12 0.267969 0.000000 0.256735
O O13 0.248246 0.928923 0.144517
O O14 0.726094 0.500000 0.524995
O O15 0.725442 0.584159 0.439445
O O16 0.000000 0.550604 0.525602
O O17 0.269744 0.673199 0.381760
O O18 0.251113 0.750944 0.484817
O O19 0.000000 0.726673 0.365060
O O20 0.500000 0.123458 0.880908
O O21 0.000000 0.754243 0.609119
#
# Coordination Sequence:
#
# PCOD9373908 Si02
#       8
#     8   8   8   8   8   8   8   8
#     4  10  20  34  52  76 108 145 188 232 276 330
#     4  11  23  37  59  86 115 150 193 239 284 341
#     4  11  21  36  57  77 112 157 196 238 286 338
#     4  10  22  41  64  89 117 146 181 230 286 344
#     4   9  19  38  63  88 115 148 185 230 286 342
#     4  10  19  32  51  74 106 145 185 230 279 333
#     4  10  21  35  56  84 114 148 192 239 287 342
#     4   9  18  32  49  71 105 147 185 227 280 332
#
# _framework density 21.459216000000001
#
# number of rings (size 3 to 8) (size 9 to 14) (size 15 to 20)
#    0.000    2.000    2.500    1.125    1.750    1.750 
#    0.000    1.250    0.000    2.250    0.000    0.000 
#    0.000    0.000    0.000    0.000    0.000    0.000 
#
# Total GULP energy -178387.496802 kJ/mol
# GULP energy per Si atom -5574.609275 kJ/mol
# Density = 2.141037 g / cm^3
# Si number density = 21.459216 Si / 1000 Ang^3
#
#
#
# Elastic Constant Matrix: (Units=GPa)
#
#
# Indices 1 2 3 4 5 6 
#
# 1 39.4445 -5.3317 -16.1767 0.0000 0.0000 0.0000
# 2 -5.3317 57.7706 24.1127 0.0002 0.0000 0.0001
# 3 -16.1767 24.1127 84.0656 0.0004 0.0001 0.0002
# 4 0.0000 0.0002 0.0004 41.1871 0.0001 0.0001
# 5 0.0000 0.0000 0.0001 0.0001 16.1305 0.0000
# 6 0.0000 0.0001 0.0002 0.0001 0.0000 -4.6817
#
#
#
# Elastic Compliance Matrix: (Units=1/GPa)
#
#
# Indices 1 2 3 4 5 6 
#
# 1 0.027531 0.000374 0.005190 0.000000 0.000000 0.000000
# 2 0.000374 0.019669 -0.005570 0.000000 0.000000 0.000000
# 3 0.005190 -0.005570 0.014492 0.000000 0.000000 0.000001
# 4 0.000000 0.000000 0.000000 0.024279 0.000000 0.000001
# 5 0.000000 0.000000 0.000000 0.000000 0.061994 0.000000
# 6 0.000000 0.000000 0.000001 0.000001 0.000000 -0.213597
#
#
# Mechanical properties :
#
#
# Convention : Reuss Voigt Hill
#
# Bulk Modulus (GPa) = 16.21197 20.72103 18.46650
# Shear Modulus (GPa) = -110.96348 22.43892 -44.26228
#
# Velocity S-wave (km/s) = -7.19870 3.23717 -4.54654
# Velocity P-wave (km/s) = 7.84371 4.86305 4.35170
#
# Compressibility (1/GPa) = 0.06168281
#
# Stress axis : x y z
#
# Youngs Moduli (GPa) = 36.32218 50.84114 69.00439
#
# Poissons Ratio (x) = -0.01904 -0.35816
# Poissons Ratio (y) = -0.01360 0.38433
# Poissons Ratio (z) = -0.18853 0.28317
#
# Static dielectric constant tensor:
#      x y z
#    x 1.789930 0.000000 0.000000 
#    y 0.000000 1.809200 0.000000 
#    z 0.000000 0.000000 1.817730 
# 
# From -- ./inp_files/11503.got.cif
#   From: 2010.05.17/outbox.cif.g08.bks.cpg/sg44_6_cif.got.tgz:11503.got - 2010.06.03 19:37:08.
