data_PCOD9373977
_publ_section_title
;
Structure prediction by ZEFSAII (Michael W. Deem and Ramdas Pophale) SiO2 
 PCOD9373977
Probable space group: I M M 2
;
_chemical_formula_sum "Si O2"
_cell_formula_units_Z 64
_cell_length_a 8.551280
_cell_length_b 28.715479
_cell_length_c 13.062739
_cell_angle_alpha 90.000000
_cell_angle_beta 90.000000
_cell_angle_gamma 90.000000
_cell_volume 3207.609135
_symmetry_space_group_name_H-M "I M M 2"
_symmetry_group_IT_number 44
_symmetry_cell_setting 'orthorhombic'
loop_
_space_group_symop_operation_xyz
x,y,z
-x,-y,z
-x,y,z
x,-y,z
1/2+x,1/2+y,1/2+z
1/2-x,1/2-y,1/2+z
1/2-x,1/2+y,1/2+z
1/2+x,1/2-y,1/2+z
loop_
_atom_site_type_symbol
_atom_site_label
_atom_site_fract_x
_atom_site_fract_y
_atom_site_fract_z
Si Si1 0.177026 0.318796 0.104200
Si Si2 0.184476 0.880555 0.949398
Si Si3 0.309646 0.094420 0.344393
Si Si4 0.688495 0.946914 0.125652
Si Si5 0.186565 0.794234 0.824227
Si Si6 0.678210 0.070944 0.560542
Si Si7 0.316814 0.696961 0.892192
Si Si8 0.187047 0.448204 0.281551
O O1 0.236840 0.309791 0.217667
O O2 0.172259 0.373974 0.083613
O O3 0.000000 0.300629 0.091864
O O4 0.285057 0.299635 0.013958
O O5 0.239171 0.828735 0.916608
O O6 0.222967 0.911519 0.849722
O O7 0.000000 0.878680 0.968374
O O8 0.260324 0.908323 0.043381
O O9 0.500000 0.095542 0.349372
O O10 0.263218 0.069787 0.239176
O O11 0.252959 0.067418 0.446927
O O12 0.250621 0.147546 0.353097
O O13 0.500000 0.948332 0.124042
O O14 0.744096 0.000000 0.104420
O O15 0.231962 0.741113 0.843562
O O16 0.000000 0.799138 0.815979
O O17 0.500000 0.053071 0.554949
O O18 0.747454 0.051096 0.664802
O O19 0.500000 0.698695 0.870547
O O20 0.201148 0.500000 0.325879
O O21 0.000000 0.436663 0.279669
#
# Coordination Sequence:
#
# PCOD9373977 Si02
#       8
#     8   8   8   8   8   8   8   8
#     4  10  19  36  60  83 113 151 189 240 300 358
#     4  11  24  39  57  82 116 156 200 251 305 362
#     4   9  19  38  61  86 119 157 200 253 304 355
#     4  10  22  40  63  89 120 163 212 259 306 364
#     4  11  23  39  59  85 116 156 206 256 308 367
#     4   8  15  30  54  82 110 143 181 229 289 346
#     4  11  23  38  59  89 122 160 201 247 304 368
#     4  10  19  32  54  84 115 147 187 233 285 352
#
# _framework density 19.952553999999999
#
# number of rings (size 3 to 8) (size 9 to 14) (size 15 to 20)
#    0.000    2.000    1.250    3.375    0.000    5.500 
#    0.000    5.000    0.000    0.000    0.000    1.750 
#    0.000    0.000    0.000    0.000    0.000    0.000 
#
# Total GULP energy -178530.943574 kJ/mol
# GULP energy per Si atom -5579.091987 kJ/mol
# Density = 1.990714 g / cm^3
# Si number density = 19.952554 Si / 1000 Ang^3
#
#
#
# Elastic Constant Matrix: (Units=GPa)
#
#
# Indices 1 2 3 4 5 6 
#
# 1 19.4086 1.9206 -0.4611 0.0000 0.0000 0.0000
# 2 1.9206 50.2488 14.1806 0.0000 0.0000 0.0000
# 3 -0.4611 14.1806 97.2429 0.0000 0.0001 0.0000
# 4 0.0000 0.0000 0.0000 10.4556 0.0000 0.0000
# 5 0.0000 0.0000 0.0001 0.0000 16.9352 0.0000
# 6 0.0000 0.0000 0.0000 0.0000 0.0000 15.8582
#
#
#
# Elastic Compliance Matrix: (Units=1/GPa)
#
#
# Indices 1 2 3 4 5 6 
#
# 1 0.051748 -0.002135 0.000557 0.000000 0.000000 0.000000
# 2 -0.002135 0.020843 -0.003050 0.000000 0.000000 0.000000
# 3 0.000557 -0.003050 0.010731 0.000000 0.000000 0.000000
# 4 0.000000 0.000000 0.000000 0.095643 0.000000 0.000000
# 5 0.000000 0.000000 0.000000 0.000000 0.059049 0.000000
# 6 0.000000 0.000000 0.000000 0.000000 0.000000 0.063059
#
#
# Mechanical properties :
#
#
# Convention : Reuss Voigt Hill
#
# Bulk Modulus (GPa) = 13.50139 22.02003 17.76071
# Shear Modulus (GPa) = 14.92461 18.73380 16.82920
#
# Velocity S-wave (km/s) = 2.73793 3.06750 2.90739
# Velocity P-wave (km/s) = 4.09591 4.85862 4.49348
#
# Compressibility (1/GPa) = 0.07406647
#
# Stress axis : x y z
#
# Youngs Moduli (GPa) = 19.32436 47.97726 93.18901
#
# Poissons Ratio (x) = 0.10243 -0.05188
# Poissons Ratio (y) = 0.04126 0.28419
# Poissons Ratio (z) = -0.01076 0.14631
#
# Static dielectric constant tensor:
#      x y z
#    x 1.687000 0.000000 0.000000 
#    y 0.000000 1.711460 0.000000 
#    z 0.000000 0.000000 1.719750 
# 
# From -- ./inp_files/11416.got.cif
#   From: 2010.05.17/outbox.cif.g08.bks.cpg/sg44_6_cif.got.tgz:11416.got - 2010.06.03 19:37:08.
