data_PCOD9373048
_publ_section_title
;
Structure prediction by ZEFSAII (Michael W. Deem and Ramdas Pophale) SiO2 
 PCOD9373048
Probable space group: I M M 2
;
_chemical_formula_sum "Si O2"
_cell_formula_units_Z 64
_cell_length_a 29.208937
_cell_length_b 7.658903
_cell_length_c 15.077635
_cell_angle_alpha 90.000000
_cell_angle_beta 90.000000
_cell_angle_gamma 90.000000
_cell_volume 3372.993831
_symmetry_space_group_name_H-M "I M M 2"
_symmetry_group_IT_number 44
_symmetry_cell_setting 'orthorhombic'
loop_
_space_group_symop_operation_xyz
x,y,z
-x,-y,z
-x,y,z
x,-y,z
1/2+x,1/2+y,1/2+z
1/2-x,1/2-y,1/2+z
1/2-x,1/2+y,1/2+z
1/2+x,1/2-y,1/2+z
loop_
_atom_site_type_symbol
_atom_site_label
_atom_site_fract_x
_atom_site_fract_y
_atom_site_fract_z
Si Si1 0.447661 0.713521 0.694840
Si Si2 0.864089 0.209248 0.078040
Si Si3 0.948862 0.792583 0.394321
Si Si4 0.677281 0.214275 0.198324
Si Si5 0.367924 0.798338 0.025362
Si Si6 0.217388 0.211329 0.403801
Si Si7 0.718620 0.712451 0.699186
Si Si8 0.820754 0.709182 0.898748
O O1 0.500000 0.766452 0.676777
O O2 0.447055 0.500000 0.693603
O O3 0.410325 0.774743 0.624187
O O4 0.435704 0.771072 0.795428
O O5 0.819995 0.276791 0.132406
O O6 0.864101 0.000000 0.088145
O O7 0.856309 0.246513 0.975099
O O8 0.910238 0.766265 0.467391
O O9 0.000000 0.724782 0.416326
O O10 0.952926 0.000000 0.384749
O O11 0.729656 0.267556 0.177200
O O12 0.667745 0.270366 0.299292
O O13 0.676774 0.000000 0.197228
O O14 0.643501 0.279559 0.121891
O O15 0.321524 0.780692 0.968109
O O16 0.377704 0.000000 0.040282
O O17 0.208340 0.260296 0.301190
O O18 0.269326 0.271032 0.424068
O O19 0.215837 0.000000 0.408987
O O20 0.718655 0.500000 0.696820
O O21 0.817426 0.500000 0.893459
#
# Coordination Sequence:
#
# PCOD9373048 Si02
#       8
#     8   8   8   8   8   8   8   8
#     4   8  15  29  49  71  93 120 153 183 218 275
#     4  10  17  26  46  71  91 114 148 191 233 271
#     4   9  18  34  54  72  92 120 151 182 221 275
#     4   8  16  30  44  60  87 124 157 182 217 268
#     4  11  20  29  47  72  95 120 152 192 232 268
#     4   9  17  30  47  66  91 125 159 187 220 268
#     4   8  14  26  44  64  88 120 155 184 216 269
#     4   9  18  32  47  63  89 125 161 193 223 263
#
# _framework density 18.974243000000001
#
# number of rings (size 3 to 8) (size 9 to 14) (size 15 to 20)
#    0.000    3.000    0.000    4.125    0.000    3.750 
#    0.000    3.750    0.000    4.125    0.000    3.500 
#    0.000    0.000    0.000    0.000    0.000    0.000 
#
# Total GULP energy -178437.448306 kJ/mol
# GULP energy per Si atom -5576.170260 kJ/mol
# Density = 1.893106 g / cm^3
# Si number density = 18.974243 Si / 1000 Ang^3
#
#
#
# Elastic Constant Matrix: (Units=GPa)
#
#
# Indices 1 2 3 4 5 6 
#
# 1 121.3476 4.2308 110.3539 0.0000 0.0000 0.0000
# 2 4.2308 29.0268 -0.0145 0.0000 0.0000 0.0000
# 3 110.3539 -0.0145 139.6056 0.0000 0.0000 0.0000
# 4 0.0000 0.0000 0.0000 16.7926 0.0000 0.0000
# 5 0.0000 0.0000 0.0000 0.0000 31.5052 0.0000
# 6 0.0000 0.0000 0.0000 0.0000 0.0000 17.2304
#
#
#
# Elastic Compliance Matrix: (Units=1/GPa)
#
#
# Indices 1 2 3 4 5 6 
#
# 1 0.029854 -0.004363 -0.023599 0.000000 0.000000 0.000000
# 2 -0.004363 0.035089 0.003453 0.000000 0.000000 0.000000
# 3 -0.023599 0.003453 0.025818 0.000000 0.000000 0.000000
# 4 0.000000 0.000000 0.000000 0.059550 0.000000 0.000000
# 5 0.000000 0.000000 0.000000 0.000000 0.031741 0.000000
# 6 0.000000 0.000000 0.000000 0.000000 0.000000 0.058037
#
#
# Mechanical properties :
#
#
# Convention : Reuss Voigt Hill
#
# Bulk Modulus (GPa) = 23.95727 57.68004 40.81866
# Shear Modulus (GPa) = 16.50049 24.79964 20.65006
#
# Velocity S-wave (km/s) = 2.95214 3.61919 3.30255
# Velocity P-wave (km/s) = 4.92684 6.92314 6.00848
#
# Compressibility (1/GPa) = 0.04174098
#
# Stress axis : x y z
#
# Youngs Moduli (GPa) = 33.49626 28.49928 38.73295
#
# Poissons Ratio (x) = 0.12435 0.91407
# Poissons Ratio (y) = 0.14615 -0.13373
# Poissons Ratio (z) = 0.79048 -0.09840
#
# Static dielectric constant tensor:
#      x y z
#    x 1.653610 0.000000 0.000000 
#    y 0.000000 1.717180 0.000000 
#    z 0.000000 0.000000 1.676130 
# 
# From -- ./inp_files/19712.got.cif
#   From: 2010.05.17/outbox.cif.g08.bks.cpg/sg44_10_cif.got.tgz:19712.got - 2010.06.03 19:37:08.
