data_PCOD9373934
_publ_section_title
;
Structure prediction by ZEFSAII (Michael W. Deem and Ramdas Pophale) SiO2 
 PCOD9373934
Probable space group: I M M 2
;
_chemical_formula_sum "Si O2"
_cell_formula_units_Z 64
_cell_length_a 8.085627
_cell_length_b 16.756441
_cell_length_c 23.020769
_cell_angle_alpha 90.000000
_cell_angle_beta 90.000000
_cell_angle_gamma 90.000000
_cell_volume 3118.999546
_symmetry_space_group_name_H-M "I M M 2"
_symmetry_group_IT_number 44
_symmetry_cell_setting 'orthorhombic'
loop_
_space_group_symop_operation_xyz
x,y,z
-x,-y,z
-x,y,z
x,-y,z
1/2+x,1/2+y,1/2+z
1/2-x,1/2-y,1/2+z
1/2-x,1/2+y,1/2+z
1/2+x,1/2-y,1/2+z
loop_
_atom_site_type_symbol
_atom_site_label
_atom_site_fract_x
_atom_site_fract_y
_atom_site_fract_z
Si Si1 0.189214 0.090795 0.338510
Si Si2 0.698879 0.415955 0.652911
Si Si3 0.314630 0.306224 0.059317
Si Si4 0.202077 0.731603 0.311620
Si Si5 0.318661 0.090873 0.460576
Si Si6 0.700121 0.089228 0.897047
Si Si7 0.300225 0.240302 0.683439
Si Si8 0.195704 0.863237 0.024767
O O1 0.260953 0.176096 0.317850
O O2 0.191856 0.102195 0.408297
O O3 0.000000 0.088053 0.316626
O O4 0.258516 0.000000 0.328119
O O5 0.500000 0.415983 0.661463
O O6 0.764398 0.500000 0.676554
O O7 0.759469 0.332556 0.678666
O O8 0.726399 0.412852 0.583466
O O9 0.500000 0.336262 0.053360
O O10 0.264125 0.303889 0.126461
O O11 0.202196 0.356271 0.016623
O O12 0.298795 0.216744 0.034932
O O13 0.257650 0.665253 0.358447
O O14 0.244991 0.706052 0.246027
O O15 0.000000 0.734972 0.316099
O O16 0.500000 0.104484 0.433902
O O17 0.307137 0.000000 0.479561
O O18 0.500000 0.091513 0.896880
O O19 0.759607 0.098772 0.963407
O O20 0.749863 0.000000 0.876218
O O21 0.500000 0.241741 0.679469
O O22 0.000000 0.843636 0.025171
#
# Coordination Sequence:
#
# PCOD9373934 Si02
#       8
#     8   8   8   8   8   8   8   8
#     4   9  17  30  51  80 110 138 169 208 258 313
#     4   8  14  25  44  71  98 122 153 199 252 301
#     4  11  21  34  53  76 104 135 168 211 265 318
#     4   9  18  33  51  71 100 138 178 219 259 304
#     4  10  20  34  53  78 106 135 170 211 256 311
#     4  10  20  33  50  74 104 139 178 219 265 313
#     4   9  18  33  51  70  96 133 177 218 254 301
#     4  10  19  32  52  77 104 133 166 207 259 318
#
# _framework density 20.519400999999998
#
# number of rings (size 3 to 8) (size 9 to 14) (size 15 to 20)
#    0.000    2.500    0.000    3.750    0.000    3.000 
#    0.000    4.375    0.000    5.625    0.000    0.000 
#    0.000    0.000    0.000    0.000    0.000    0.000 
#
# Total GULP energy -178320.586246 kJ/mol
# GULP energy per Si atom -5572.518320 kJ/mol
# Density = 2.047270 g / cm^3
# Si number density = 20.519401 Si / 1000 Ang^3
#
#
#
# Elastic Constant Matrix: (Units=GPa)
#
#
# Indices 1 2 3 4 5 6 
#
# 1 19.5920 11.4656 -3.9722 0.0000 0.0000 0.0000
# 2 11.4656 54.6955 44.9486 0.0000 0.0000 0.0000
# 3 -3.9722 44.9486 85.7927 0.0000 0.0000 0.0000
# 4 0.0000 0.0000 0.0000 -7.5186 0.0000 0.0000
# 5 0.0000 0.0000 0.0000 0.0000 13.4992 0.0000
# 6 0.0000 0.0000 0.0000 0.0000 0.0000 9.7477
#
#
#
# Elastic Compliance Matrix: (Units=1/GPa)
#
#
# Indices 1 2 3 4 5 6 
#
# 1 0.073986 -0.032180 0.020285 0.000000 0.000000 0.000000
# 2 -0.032180 0.046103 -0.025644 0.000000 0.000000 0.000000
# 3 0.020285 -0.025644 0.026031 0.000000 0.000000 0.000000
# 4 0.000000 0.000000 0.000000 -0.133003 0.000000 0.000000
# 5 0.000000 0.000000 0.000000 0.000000 0.074078 0.000000
# 6 0.000000 0.000000 0.000000 0.000000 0.000000 0.102588
#
#
# Mechanical properties :
#
#
# Convention : Reuss Voigt Hill
#
# Bulk Modulus (GPa) = 14.07611 29.44047 21.75829
# Shear Modulus (GPa) = 17.32848 10.32155 13.82501
#
# Velocity S-wave (km/s) = 2.90917 2.24523 2.59849
# Velocity P-wave (km/s) = 4.26135 4.59349 4.43054
#
# Compressibility (1/GPa) = 0.07104235
#
# Stress axis : x y z
#
# Youngs Moduli (GPa) = 13.51606 21.69043 38.41590
#
# Poissons Ratio (x) = 0.69799 -0.77928
# Poissons Ratio (y) = 0.43494 0.98515
# Poissons Ratio (z) = -0.27418 0.55624
#
# Static dielectric constant tensor:
#      x y z
#    x 1.750020 0.000000 0.000000 
#    y 0.000000 1.778150 0.000000 
#    z 0.000000 0.000000 1.715020 
# 
# From -- ./inp_files/23333.got.cif
#   From: 2010.05.17/outbox.cif.g08.bks.cpg/sg44_12_cif.got.tgz:23333.got - 2010.06.03 19:37:08.
