data_PCOD9373166
_publ_section_title
;
Structure prediction by ZEFSAII (Michael W. Deem and Ramdas Pophale) SiO2 
 PCOD9373166
Probable space group: I M M 2
;
_chemical_formula_sum "Si O2"
_cell_formula_units_Z 64
_cell_length_a 15.131500
_cell_length_b 7.399173
_cell_length_c 29.109122
_cell_angle_alpha 90.000000
_cell_angle_beta 90.000000
_cell_angle_gamma 90.000000
_cell_volume 3259.074364
_symmetry_space_group_name_H-M "I M M 2"
_symmetry_group_IT_number 44
_symmetry_cell_setting 'orthorhombic'
loop_
_space_group_symop_operation_xyz
x,y,z
-x,-y,z
-x,y,z
x,-y,z
1/2+x,1/2+y,1/2+z
1/2-x,1/2-y,1/2+z
1/2-x,1/2+y,1/2+z
1/2+x,1/2-y,1/2+z
loop_
_atom_site_type_symbol
_atom_site_label
_atom_site_fract_x
_atom_site_fract_y
_atom_site_fract_z
Si Si1 0.399071 0.779820 0.964840
Si Si2 0.101421 0.281951 0.738933
Si Si3 0.898759 0.720319 0.569214
Si Si4 0.900545 0.716793 0.192116
Si Si5 0.716066 0.214219 0.153815
Si Si6 0.101496 0.280336 0.295784
Si Si7 0.720863 0.778273 0.880767
Si Si8 0.098576 0.787819 0.844521
O O1 0.500000 0.725946 0.953735
O O2 0.330226 0.720159 0.926410
O O3 0.398462 0.000000 0.964583
O O4 0.379106 0.722310 0.017011
O O5 0.102497 0.500000 0.738735
O O6 0.167427 0.214677 0.699673
O O7 0.124111 0.225778 0.790703
O O8 0.000000 0.225105 0.729581
O O9 0.897275 0.500000 0.568714
O O10 0.830805 0.784237 0.607861
O O11 0.000000 0.771888 0.580446
O O12 0.904896 0.500000 0.194254
O O13 0.820682 0.761197 0.158428
O O14 0.877453 0.780645 0.243930
O O15 0.000000 0.780716 0.180729
O O16 0.699717 0.000000 0.153809
O O17 0.104334 0.500000 0.295494
O O18 0.166362 0.220123 0.335726
O O19 0.000000 0.229548 0.305635
O O20 0.821376 0.715310 0.874822
O O21 0.721047 0.000000 0.880681
O O22 0.000000 0.709494 0.849594
O O23 0.092188 0.000000 0.855013
#
# Coordination Sequence:
#
# PCOD9373166 Si02
#       8
#     8   8   8   8   8   8   8   8
#     4   8  13  21  35  57  83 107 130 159 199 247
#     4   9  17  28  41  59  84 113 144 174 204 244
#     4   8  14  25  40  59  84 110 134 164 206 254
#     4   9  18  31  44  59  83 115 145 171 202 241
#     4  10  18  27  43  64  84 109 140 173 209 246
#     4   8  13  21  34  53  76 101 129 160 195 235
#     4   9  14  20  34  55  79 105 131 162 199 238
#     4   9  17  27  38  55  81 111 139 168 204 242
#
# _framework density 19.637477000000001
#
# number of rings (size 3 to 8) (size 9 to 14) (size 15 to 20)
#    0.000    3.250    0.000    3.000    0.000    4.750 
#    0.000    0.000    0.000    1.875    0.000    4.375 
#    0.000    3.000    0.000    0.250    0.000    0.125 
#
# Total GULP energy -178512.384766 kJ/mol
# GULP energy per Si atom -5578.512024 kJ/mol
# Density = 1.959278 g / cm^3
# Si number density = 19.637477 Si / 1000 Ang^3
#
#
#
# Elastic Constant Matrix: (Units=GPa)
#
#
# Indices 1 2 3 4 5 6 
#
# 1 158.0082 2.2612 121.9886 0.0000 0.0000 0.0000
# 2 2.2612 65.1476 2.4363 0.0000 0.0000 0.0000
# 3 121.9886 2.4363 125.1173 0.0000 0.0000 0.0000
# 4 0.0000 0.0000 0.0000 3.4295 0.0000 0.0000
# 5 0.0000 0.0000 0.0000 0.0000 35.4874 0.0000
# 6 0.0000 0.0000 0.0000 0.0000 0.0000 3.0585
#
#
#
# Elastic Compliance Matrix: (Units=1/GPa)
#
#
# Indices 1 2 3 4 5 6 
#
# 1 0.025595 0.000045 -0.024956 0.000000 0.000000 0.000000
# 2 0.000045 0.015361 -0.000343 0.000000 0.000000 0.000000
# 3 -0.024956 -0.000343 0.032331 0.000000 0.000000 0.000000
# 4 0.000000 0.000000 0.000000 0.291589 0.000000 0.000000
# 5 0.000000 0.000000 0.000000 0.000000 0.028179 0.000000
# 6 0.000000 0.000000 0.000000 0.000000 0.000000 0.326963
#
#
# Mechanical properties :
#
#
# Convention : Reuss Voigt Hill
#
# Bulk Modulus (GPa) = 43.89944 66.84948 55.37446
# Shear Modulus (GPa) = 6.42575 23.16753 14.79664
#
# Velocity S-wave (km/s) = 1.81088 3.43849 2.74795
# Velocity P-wave (km/s) = 5.17454 7.06258 6.19095
#
# Compressibility (1/GPa) = 0.02277933
#
# Stress axis : x y z
#
# Youngs Moduli (GPa) = 39.06980 65.09979 30.92989
#
# Poissons Ratio (x) = -0.00292 0.77189
# Poissons Ratio (y) = -0.00175 0.01061
# Poissons Ratio (z) = 0.97503 0.02232
#
# Static dielectric constant tensor:
#      x y z
#    x 1.696080 0.000000 0.000000 
#    y 0.000000 1.842160 0.000000 
#    z 0.000000 0.000000 1.662400 
# 
# From -- ./inp_files/27352.got.cif
#   From: 2010.05.17/outbox.cif.g08.bks.cpg/sg44_14_cif.got.tgz:27352.got - 2010.06.03 19:37:08.
