data_PCOD9373954
_publ_section_title
;
Structure prediction by ZEFSAII (Michael W. Deem and Ramdas Pophale) SiO2 
 PCOD9373954
Probable space group: I M M 2
;
_chemical_formula_sum "Si O2"
_cell_formula_units_Z 40
_cell_length_a 9.249207
_cell_length_b 7.645399
_cell_length_c 30.467100
_cell_angle_alpha 90.000000
_cell_angle_beta 90.000000
_cell_angle_gamma 90.000000
_cell_volume 2154.446791
_symmetry_space_group_name_H-M "I M M 2"
_symmetry_group_IT_number 44
_symmetry_cell_setting 'orthorhombic'
loop_
_space_group_symop_operation_xyz
x,y,z
-x,-y,z
-x,y,z
x,-y,z
1/2+x,1/2+y,1/2+z
1/2-x,1/2-y,1/2+z
1/2-x,1/2+y,1/2+z
1/2+x,1/2-y,1/2+z
loop_
_atom_site_type_symbol
_atom_site_label
_atom_site_fract_x
_atom_site_fract_y
_atom_site_fract_z
Si Si1 0.824247 0.000000 0.058720
Si Si2 0.666579 0.787804 0.314198
Si Si3 0.333997 0.713336 0.901304
Si Si4 0.170121 0.300293 0.225065
Si Si5 0.326573 0.794794 0.490531
Si Si6 0.175971 0.000000 0.158636
O O1 0.782798 0.170888 0.030730
O O2 0.771036 0.000000 0.108694
O O3 0.000000 0.000000 0.060472
O O4 0.500000 0.732302 0.315797
O O5 0.751560 0.728131 0.357544
O O6 0.743062 0.726639 0.269846
O O7 0.669587 0.000000 0.313918
O O8 0.500000 0.771024 0.901432
O O9 0.333337 0.500000 0.900456
O O10 0.251759 0.762452 0.945823
O O11 0.183238 0.500000 0.210383
O O12 0.219019 0.168102 0.187220
O O13 0.000000 0.264515 0.234129
O O14 0.500000 0.779632 0.484462
O O15 0.294587 0.000000 0.498564
O O16 0.000000 0.000000 0.156651
#
# Coordination Sequence:
#
# PCOD9373954 Si02
#       6
#     4   8   8   8   8   4
#     4   9  18  32  53  81 107 137 177 221 270 315
#     4  10  19  32  53  79 108 144 182 220 267 321
#     4   9  17  30  51  77 106 142 179 216 264 319
#     4  10  20  34  54  79 107 141 180 222 270 321
#     4   9  17  31  51  75 105 138 175 219 262 311
#     4   9  18  34  55  79 109 139 175 227 274 317
#
# _framework density 18.56625
#
# number of rings (size 3 to 8) (size 9 to 14) (size 15 to 20)
#    0.000    2.600    1.000    1.200    0.000    4.400 
#    1.800    4.500    0.000    2.400    0.000    2.800 
#    0.000    0.000    0.000    0.000    0.000    0.000 
#
# Total GULP energy -111614.296217 kJ/mol
# GULP energy per Si atom -5580.714811 kJ/mol
# Density = 1.852399 g / cm^3
# Si number density = 18.566250 Si / 1000 Ang^3
#
#
#
# Elastic Constant Matrix: (Units=GPa)
#
#
# Indices 1 2 3 4 5 6 
#
# 1 67.4146 42.4690 68.4582 0.0000 0.0000 0.0000
# 2 42.4690 81.3024 75.7397 0.0000 0.0000 0.0000
# 3 68.4582 75.7397 207.4600 0.0000 0.0000 0.0000
# 4 0.0000 0.0000 0.0000 -10.5618 0.0000 0.0000
# 5 0.0000 0.0000 0.0000 0.0000 24.4629 0.0000
# 6 0.0000 0.0000 0.0000 0.0000 0.0000 9.9356
#
#
#
# Elastic Compliance Matrix: (Units=1/GPa)
#
#
# Indices 1 2 3 4 5 6 
#
# 1 0.025555 -0.008324 -0.005394 0.000000 0.000000 0.000000
# 2 -0.008324 0.021350 -0.005048 0.000000 0.000000 0.000000
# 3 -0.005394 -0.005048 0.008443 0.000000 0.000000 0.000000
# 4 0.000000 0.000000 0.000000 -0.094681 0.000000 0.000000
# 5 0.000000 0.000000 0.000000 0.000000 0.040878 0.000000
# 6 0.000000 0.000000 0.000000 0.000000 0.000000 0.100649
#
#
# Mechanical properties :
#
#
# Convention : Reuss Voigt Hill
#
# Bulk Modulus (GPa) = 56.12675 81.05676 68.59175
# Shear Modulus (GPa) = 34.32569 16.06800 25.19685
#
# Velocity S-wave (km/s) = 4.30446 2.94503 3.68792
# Velocity P-wave (km/s) = 7.41624 7.43755 7.42690
#
# Compressibility (1/GPa) = 0.01781682
#
# Stress axis : x y z
#
# Youngs Moduli (GPa) = 39.13189 46.83770 118.44324
#
# Poissons Ratio (x) = 0.38988 0.63884
# Poissons Ratio (y) = 0.32574 0.59788
# Poissons Ratio (z) = 0.21106 0.23643
#
# Static dielectric constant tensor:
#      x y z
#    x 1.626000 0.000000 0.000000 
#    y 0.000000 1.672470 0.000000 
#    z 0.000000 0.000000 1.598660 
# 
# From -- ./inp_files/25936.got.cif
#   From: 2010.05.17/outbox.cif.g08.bks.cpg/sg44_13_cif.got.tgz:25936.got - 2010.06.03 19:37:08.
