data_PCOD9373860
_publ_section_title
;
Structure prediction by ZEFSAII (Michael W. Deem and Ramdas Pophale) SiO2 
 PCOD9373860
Probable space group: I M M 2
;
_chemical_formula_sum "Si O2"
_cell_formula_units_Z 56
_cell_length_a 22.845081
_cell_length_b 7.848412
_cell_length_c 15.045972
_cell_angle_alpha 90.000000
_cell_angle_beta 90.000000
_cell_angle_gamma 90.000000
_cell_volume 2697.706788
_symmetry_space_group_name_H-M "I M M 2"
_symmetry_group_IT_number 44
_symmetry_cell_setting 'orthorhombic'
loop_
_space_group_symop_operation_xyz
x,y,z
-x,-y,z
-x,y,z
x,-y,z
1/2+x,1/2+y,1/2+z
1/2-x,1/2-y,1/2+z
1/2-x,1/2+y,1/2+z
1/2+x,1/2-y,1/2+z
loop_
_atom_site_type_symbol
_atom_site_label
_atom_site_fract_x
_atom_site_fract_y
_atom_site_fract_z
Si Si1 0.220658 0.293323 0.414300
Si Si2 0.644510 0.291665 0.415875
Si Si3 0.113286 0.205020 0.104808
Si Si4 0.000000 0.297672 0.218571
Si Si5 0.358600 0.301905 0.219338
Si Si6 0.113262 0.701452 0.527766
Si Si7 0.500000 0.789873 0.921780
Si Si8 0.724243 0.701347 0.714933
O O1 0.220964 0.500000 0.412709
O O2 0.287635 0.241682 0.430991
O O3 0.174125 0.231549 0.486626
O O4 0.203744 0.230413 0.316200
O O5 0.643009 0.500000 0.412199
O O6 0.609111 0.235880 0.502617
O O7 0.627170 0.230146 0.317477
O O8 0.057750 0.246997 0.164569
O O9 0.173664 0.267216 0.149878
O O10 0.117967 0.000000 0.102393
O O11 0.000000 0.500000 0.225421
O O12 0.000000 0.231407 0.319675
O O13 0.373483 0.500000 0.219957
O O14 0.388694 0.225211 0.133043
O O15 0.288289 0.283249 0.207694
O O16 0.114300 0.500000 0.510957
O O17 0.057597 0.768940 0.474343
O O18 0.500000 0.000000 0.922084
O O19 0.732547 0.500000 0.698299
#
# Coordination Sequence:
#
# PCOD9373860 Si02
#       8
#     8   8   8   4   8   8   4   8
#     4   9  17  31  52  77 108 144 177 214 265 320
#     4   8  16  32  52  73 100 136 174 210 255 313
#     4  10  20  36  56  76 103 142 181 213 255 313
#     4  11  23  39  58  81 106 132 171 219 264 311
#     4  10  20  34  53  79 109 140 177 221 266 311
#     4  10  19  34  55  76 103 143 184 218 262 317
#     4   9  20  37  56  77 104 140 175 211 262 321
#     4  10  19  31  52  82 111 140 176 217 263 316
#
# _framework density 20.758372000000001
#
# number of rings (size 3 to 8) (size 9 to 14) (size 15 to 20)
#    0.000    2.429    0.000    3.643    0.000    5.143 
#    0.000    6.071    0.000    2.571    0.000    0.000 
#    0.000    0.000    0.000    0.000    0.000    0.000 
#
# Total GULP energy -156273.572434 kJ/mol
# GULP energy per Si atom -5581.199015 kJ/mol
# Density = 2.071113 g / cm^3
# Si number density = 20.758372 Si / 1000 Ang^3
#
#
#
# Elastic Constant Matrix: (Units=GPa)
#
#
# Indices 1 2 3 4 5 6 
#
# 1 46.4267 -4.4667 69.7617 0.0000 0.0000 0.0000
# 2 -4.4667 15.3530 -6.9732 0.0000 0.0000 0.0000
# 3 69.7617 -6.9732 188.7158 0.0000 0.0000 0.0000
# 4 0.0000 0.0000 0.0000 26.0818 0.0000 0.0000
# 5 0.0000 0.0000 0.0000 0.0000 31.8297 0.0000
# 6 0.0000 0.0000 0.0000 0.0000 0.0000 15.5631
#
#
#
# Elastic Compliance Matrix: (Units=1/GPa)
#
#
# Indices 1 2 3 4 5 6 
#
# 1 0.049015 0.006133 -0.017893 0.000000 0.000000 0.000000
# 2 0.006133 0.067013 0.000209 0.000000 0.000000 0.000000
# 3 -0.017893 0.000209 0.011921 0.000000 0.000000 0.000000
# 4 0.000000 0.000000 0.000000 0.038341 0.000000 0.000000
# 5 0.000000 0.000000 0.000000 0.000000 0.031417 0.000000
# 6 0.000000 0.000000 0.000000 0.000000 0.000000 0.064255
#
#
# Mechanical properties :
#
#
# Convention : Reuss Voigt Hill
#
# Bulk Modulus (GPa) = 9.53756 40.79323 25.16539
# Shear Modulus (GPa) = 15.62440 27.50648 21.56544
#
# Velocity S-wave (km/s) = 2.74648 3.64411 3.22666
# Velocity P-wave (km/s) = 3.82911 6.11557 5.10207
#
# Compressibility (1/GPa) = 0.10484864
#
# Stress axis : x y z
#
# Youngs Moduli (GPa) = 20.40179 14.92249 83.88566
#
# Poissons Ratio (x) = -0.09153 1.50094
# Poissons Ratio (y) = -0.12513 -0.01752
# Poissons Ratio (z) = 0.36504 -0.00312
#
# Static dielectric constant tensor:
#      x y z
#    x 1.731710 0.000000 0.000000 
#    y 0.000000 1.758360 0.000000 
#    z 0.000000 0.000000 1.763500 
# 
# From -- ./inp_files/19225.got.cif
#   From: 2010.05.17/outbox.cif.g08.bks.cpg/sg44_10_cif.got.tgz:19225.got - 2010.06.03 19:37:08.
