data_PCOD9373682
_publ_section_title
;
Structure prediction by ZEFSAII (Michael W. Deem and Ramdas Pophale) SiO2 
 PCOD9373682
Probable space group: I M M 2
;
_chemical_formula_sum "Si O2"
_cell_formula_units_Z 48
_cell_length_a 8.212585
_cell_length_b 14.388982
_cell_length_c 18.507623
_cell_angle_alpha 90.000000
_cell_angle_beta 90.000000
_cell_angle_gamma 90.000000
_cell_volume 2187.059464
_symmetry_space_group_name_H-M "I M M 2"
_symmetry_group_IT_number 44
_symmetry_cell_setting 'orthorhombic'
loop_
_space_group_symop_operation_xyz
x,y,z
-x,-y,z
-x,y,z
x,-y,z
1/2+x,1/2+y,1/2+z
1/2-x,1/2-y,1/2+z
1/2-x,1/2+y,1/2+z
1/2+x,1/2-y,1/2+z
loop_
_atom_site_type_symbol
_atom_site_label
_atom_site_fract_x
_atom_site_fract_y
_atom_site_fract_z
Si Si1 0.693996 0.193753 0.426420
Si Si2 0.682691 0.357347 0.773760
Si Si3 0.814083 0.360571 0.233490
Si Si4 0.195942 0.305140 0.083991
Si Si5 0.698219 0.899779 0.889404
Si Si6 0.810719 0.600487 0.623422
O O1 0.500000 0.183983 0.423455
O O2 0.764427 0.140464 0.356988
O O3 0.754408 0.163253 0.505445
O O4 0.735556 0.303934 0.421130
O O5 0.500000 0.393753 0.765215
O O6 0.677814 0.248106 0.754244
O O7 0.794357 0.397680 0.710772
O O8 0.737781 0.360578 0.153860
O O9 0.741665 0.402616 0.305985
O O10 0.000000 0.395319 0.227691
O O11 0.230429 0.195049 0.094844
O O12 0.000000 0.315120 0.085861
O O13 0.500000 0.892008 0.888683
O O14 0.738787 0.000000 0.923259
O O15 0.743552 0.500000 0.599452
O O16 0.000000 0.604646 0.602850
#
# Coordination Sequence:
#
# PCOD9373682 Si02
#       6
#     8   8   8   8   8   8
#     4  10  19  30  46  69  96 125 157 194 235 279
#     4   9  17  31  50  68  89 122 161 196 233 281
#     4   7  12  26  45  62  81 110 151 190 220 259
#     4   9  18  31  47  67  93 126 160 192 229 279
#     4   9  17  29  46  67  90 118 153 192 234 281
#     4  10  20  32  48  72  99 125 156 197 241 283
#
# _framework density 21.947278000000001
#
# number of rings (size 3 to 8) (size 9 to 14) (size 15 to 20)
#    0.000    3.000    0.000    3.500    0.000    3.667 
#    0.000    3.333    0.000    1.000    0.000    4.667 
#    0.000    0.000    0.000    0.000    0.000    0.000 
#
# Total GULP energy -133691.399096 kJ/mol
# GULP energy per Si atom -5570.474962 kJ/mol
# Density = 2.189732 g / cm^3
# Si number density = 21.947278 Si / 1000 Ang^3
#
#
#
# Elastic Constant Matrix: (Units=GPa)
#
#
# Indices 1 2 3 4 5 6 
#
# 1 20.8339 -9.3985 0.4978 0.0000 0.0000 0.0000
# 2 -9.3985 36.4313 -17.0425 0.0000 0.0000 0.0000
# 3 0.4978 -17.0425 145.6882 0.0000 0.0000 0.0000
# 4 0.0000 0.0000 0.0000 -0.1231 0.0000 0.0000
# 5 0.0000 0.0000 0.0000 0.0000 19.3457 0.0000
# 6 0.0000 0.0000 0.0000 0.0000 0.0000 -6.9037
#
#
#
# Elastic Compliance Matrix: (Units=1/GPa)
#
#
# Indices 1 2 3 4 5 6 
#
# 1 0.054648 0.014822 0.001547 0.000000 0.000000 0.000000
# 2 0.014822 0.033058 0.003816 0.000000 0.000000 0.000000
# 3 0.001547 0.003816 0.007305 0.000000 0.000000 0.000000
# 4 0.000000 0.000000 0.000000 -8.124081 0.000000 0.000000
# 5 0.000000 0.000000 0.000000 0.000000 0.051691 0.000000
# 6 0.000000 0.000000 0.000000 0.000000 0.000000 -0.144850
#
#
# Mechanical properties :
#
#
# Convention : Reuss Voigt Hill
#
# Bulk Modulus (GPa) = 7.38651 16.78522 12.08587
# Shear Modulus (GPa) = -0.61596 17.72356 8.55380
#
# Velocity S-wave (km/s) = -0.53034 2.84483 1.97633
# Velocity P-wave (km/s) = 1.73143 4.29596 3.27515
#
# Compressibility (1/GPa) = 0.13538186
#
# Stress axis : x y z
#
# Youngs Moduli (GPa) = 18.29888 30.24991 136.89002
#
# Poissons Ratio (x) = -0.44836 -0.21178
# Poissons Ratio (y) = -0.27122 -0.52243
# Poissons Ratio (z) = -0.02831 -0.11545
#
# Static dielectric constant tensor:
#      x y z
#    x 1.781140 0.000000 0.000000 
#    y 0.000000 1.834390 0.000000 
#    z 0.000000 0.000000 1.881330 
# 
# From -- ./inp_files/19077.got.cif
#   From: 2010.05.17/outbox.cif.g08.bks.cpg/sg44_10_cif.got.tgz:19077.got - 2010.06.03 19:37:08.
