data_PCOD9373220
_publ_section_title
;
Structure prediction by ZEFSAII (Michael W. Deem and Ramdas Pophale) SiO2 
 PCOD9373220
Probable space group: I M M 2
;
_chemical_formula_sum "Si O2"
_cell_formula_units_Z 64
_cell_length_a 7.573832
_cell_length_b 29.598075
_cell_length_c 14.809154
_cell_angle_alpha 90.000000
_cell_angle_beta 90.000000
_cell_angle_gamma 90.000000
_cell_volume 3319.780604
_symmetry_space_group_name_H-M "I M M 2"
_symmetry_group_IT_number 44
_symmetry_cell_setting 'orthorhombic'
loop_
_space_group_symop_operation_xyz
x,y,z
-x,-y,z
-x,y,z
x,-y,z
1/2+x,1/2+y,1/2+z
1/2-x,1/2-y,1/2+z
1/2-x,1/2+y,1/2+z
1/2+x,1/2-y,1/2+z
loop_
_atom_site_type_symbol
_atom_site_label
_atom_site_fract_x
_atom_site_fract_y
_atom_site_fract_z
Si Si1 0.296954 0.723259 0.829000
Si Si2 0.211268 0.050689 0.322839
Si Si3 0.287452 0.051142 0.114713
Si Si4 0.291417 0.363718 0.928498
Si Si5 0.789080 0.321224 0.111183
Si Si6 0.208441 0.281694 0.622824
Si Si7 0.216472 0.323786 0.315573
Si Si8 0.215883 0.635288 0.497741
O O1 0.500000 0.726578 0.860506
O O2 0.214399 0.680754 0.879562
O O3 0.294437 0.714914 0.721512
O O4 0.221223 0.773277 0.841930
O O5 0.244074 0.063055 0.218318
O O6 0.281432 0.089810 0.388095
O O7 0.000000 0.047981 0.334995
O O8 0.282851 0.000000 0.337508
O O9 0.500000 0.050002 0.107707
O O10 0.223179 0.089808 0.047017
O O11 0.222066 0.000000 0.097755
O O12 0.500000 0.364282 0.906407
O O13 0.272655 0.355357 0.034518
O O14 0.735211 0.269551 0.088868
O O15 0.725779 0.332079 0.212763
O O16 0.000000 0.321960 0.112439
O O17 0.270580 0.320594 0.555190
O O18 0.000000 0.288315 0.636288
O O19 0.270494 0.357860 0.394084
O O20 0.000000 0.322759 0.313846
O O21 0.000000 0.634940 0.498497
#
# Coordination Sequence:
#
# PCOD9373220 Si02
#       8
#     8   8   8   8   8   8   8   8
#     4   9  17  29  44  64  91 121 151 186 230 275
#     4   9  18  32  49  70  96 124 151 182 228 284
#     4   9  17  29  47  72  97 119 148 189 233 275
#     4  10  19  31  49  69  91 123 160 194 231 278
#     4  10  20  32  46  65  91 123 157 194 235 274
#     4  10  18  28  45  68  93 122 154 186 223 272
#     4   8  15  28  43  59  84 118 151 183 222 267
#     4   9  16  27  45  66  89 120 154 185 224 274
#
# _framework density 19.278382000000001
#
# number of rings (size 3 to 8) (size 9 to 14) (size 15 to 20)
#    0.000    2.750    0.000    3.000    0.000    3.000 
#    0.000    0.625    0.000    6.750    0.000    1.750 
#    0.000    0.000    0.000    0.000    0.000    0.000 
#
# Total GULP energy -178518.261653 kJ/mol
# GULP energy per Si atom -5578.695677 kJ/mol
# Density = 1.923450 g / cm^3
# Si number density = 19.278382 Si / 1000 Ang^3
#
#
#
# Elastic Constant Matrix: (Units=GPa)
#
#
# Indices 1 2 3 4 5 6 
#
# 1 40.9828 2.0511 -8.9398 0.0000 0.0000 0.0000
# 2 2.0511 135.3531 112.3466 0.0000 0.0000 0.0000
# 3 -8.9398 112.3466 122.4319 0.0001 0.0000 0.0000
# 4 0.0000 0.0000 0.0001 28.5945 0.0000 0.0000
# 5 0.0000 0.0000 0.0000 0.0000 14.4571 0.0000
# 6 0.0000 0.0000 0.0000 0.0000 0.0000 6.5776
#
#
#
# Elastic Compliance Matrix: (Units=1/GPa)
#
#
# Indices 1 2 3 4 5 6 
#
# 1 0.026976 -0.008574 0.009838 0.000000 0.000000 0.000000
# 2 -0.008574 0.033723 -0.031571 0.000000 0.000000 0.000000
# 3 0.009838 -0.031571 0.037856 0.000000 0.000000 0.000000
# 4 0.000000 0.000000 0.000000 0.034972 0.000000 0.000000
# 5 0.000000 0.000000 0.000000 0.000000 0.069170 0.000000
# 6 0.000000 0.000000 0.000000 0.000000 0.000000 0.152031
#
#
# Mechanical properties :
#
#
# Convention : Reuss Voigt Hill
#
# Bulk Modulus (GPa) = 26.35759 56.63151 41.49455
# Shear Modulus (GPa) = 11.68257 22.81318 17.24788
#
# Velocity S-wave (km/s) = 2.46436 3.44373 2.99436
# Velocity P-wave (km/s) = 4.66896 6.72694 5.79012
#
# Compressibility (1/GPa) = 0.03793973
#
# Stress axis : x y z
#
# Youngs Moduli (GPa) = 37.07049 29.65377 26.41574
#
# Poissons Ratio (x) = 0.25427 -0.25987
# Poissons Ratio (y) = 0.31786 0.83396
# Poissons Ratio (z) = -0.36469 0.93619
#
# Static dielectric constant tensor:
#      x y z
#    x 1.742910 0.000000 0.000000 
#    y 0.000000 1.681890 0.000000 
#    z 0.000000 0.000000 1.666600 
# 
# From -- ./inp_files/17166.got.cif
#   From: 2010.05.17/outbox.cif.g08.bks.cpg/sg44_9_cif.got.tgz:17166.got - 2010.06.03 19:37:08.
