data_PCOD9373721
_publ_section_title
;
Structure prediction by ZEFSAII (Michael W. Deem and Ramdas Pophale) SiO2 
 PCOD9373721
Probable space group: I M M 2
;
_chemical_formula_sum "Si O2"
_cell_formula_units_Z 34
_cell_length_a 7.708122
_cell_length_b 23.705544
_cell_length_c 7.281889
_cell_angle_alpha 90.000000
_cell_angle_beta 90.000000
_cell_angle_gamma 90.000000
_cell_volume 1330.584808
_symmetry_space_group_name_H-M "I M M 2"
_symmetry_group_IT_number 44
_symmetry_cell_setting 'orthorhombic'
loop_
_space_group_symop_operation_xyz
x,y,z
-x,-y,z
-x,y,z
x,-y,z
1/2+x,1/2+y,1/2+z
1/2-x,1/2-y,1/2+z
1/2-x,1/2+y,1/2+z
1/2+x,1/2-y,1/2+z
loop_
_atom_site_type_symbol
_atom_site_label
_atom_site_fract_x
_atom_site_fract_y
_atom_site_fract_z
Si Si1 0.205668 0.179361 0.422400
Si Si2 0.706467 0.061237 0.334927
Si Si3 0.202228 0.197366 0.018001
Si Si4 0.798988 0.415969 0.398430
Si Si5 0.500000 0.500000 0.274301
O O1 0.234905 0.113665 0.458600
O O2 0.278673 0.183254 0.215695
O O3 0.282149 0.235449 0.509292
O O4 0.000000 0.188986 0.425478
O O5 0.500000 0.058883 0.352697
O O6 0.741260 0.070522 0.116462
O O7 0.782772 0.000000 0.385692
O O8 0.284950 0.152493 0.878312
O O9 0.000000 0.182911 0.013997
O O10 0.654121 0.451077 0.294532
O O11 0.000000 0.431804 0.362768
#
# Coordination Sequence:
#
# PCOD9373721 Si02
#       5
#     8   8   8   8   2
#     4  10  21  33  53  79 108 142 181 222 273 327
#     4   9  17  29  47  74 103 136 173 222 274 319
#     4  10  20  36  53  79 110 146 182 224 273 325
#     4  10  19  30  48  74 110 139 175 222 276 322
#     4  12  18  28  48  78 104 146 172 224 272 328
#
# _framework density 25.552672000000001
#
# number of rings (size 3 to 8) (size 9 to 14) (size 15 to 20)
#    0.000    2.118    2.353    1.765    1.647    3.294 
#    0.000    0.000    0.000    0.000    3.059    0.000 
#    0.000    0.000    0.000    0.000    0.000    0.000 
#
# Total GULP energy -94698.228590 kJ/mol
# GULP energy per Si atom -5570.484035 kJ/mol
# Density = 2.549451 g / cm^3
# Si number density = 25.552672 Si / 1000 Ang^3
#
#
#
# Elastic Constant Matrix: (Units=GPa)
#
#
# Indices 1 2 3 4 5 6 
#
# 1 115.0268 32.7312 9.3344 0.0004 0.0002 0.0002
# 2 32.7312 222.9630 48.8266 0.0006 0.0000 0.0003
# 3 9.3344 48.8266 49.0979 0.0051 -0.0006 0.0008
# 4 0.0004 0.0006 0.0051 30.0352 0.0000 0.0004
# 5 0.0002 0.0000 -0.0006 0.0000 -5.9838 0.0003
# 6 0.0002 0.0003 0.0008 0.0004 0.0003 41.1404
#
#
#
# Elastic Compliance Matrix: (Units=1/GPa)
#
#
# Indices 1 2 3 4 5 6 
#
# 1 0.009083 -0.001221 -0.000512 0.000000 0.000000 0.000000
# 2 -0.001221 0.005898 -0.005633 0.000001 0.000000 0.000000
# 3 -0.000512 -0.005633 0.026067 -0.000004 -0.000002 0.000000
# 4 0.000000 0.000001 -0.000004 0.033294 0.000000 0.000000
# 5 0.000000 0.000000 -0.000002 0.000000 -0.167119 0.000001
# 6 0.000000 0.000000 0.000000 0.000000 0.000001 0.024307
#
#
# Mechanical properties :
#
#
# Convention : Reuss Voigt Hill
#
# Bulk Modulus (GPa) = 38.00242 63.20803 50.60522
# Shear Modulus (GPa) = -111.19673 32.78472 -39.20601
#
# Velocity S-wave (km/s) = -6.60387 3.58582 -3.92129
# Velocity P-wave (km/s) = 6.57600 6.47566 0.80917
#
# Compressibility (1/GPa) = 0.02631411
#
# Stress axis : x y z
#
# Youngs Moduli (GPa) = 110.09955 169.55122 38.36281
#
# Poissons Ratio (x) = 0.20705 0.01966
# Poissons Ratio (y) = 0.13445 0.21610
# Poissons Ratio (z) = 0.05641 0.95511
#
# Static dielectric constant tensor:
#      x y z
#    x 1.917420 0.000000 0.000000 
#    y 0.000000 2.198570 0.000000 
#    z 0.000000 0.000000 2.112380 
# 
# From -- ./inp_files/4282.got.cif
#   From: 2010.05.17/outbox.cif.g08.bks.cpg/sg44_3_cif.got.tgz:4282.got - 2010.06.03 19:37:08.
