data_PCOD9373852
_publ_section_title
;
Structure prediction by ZEFSAII (Michael W. Deem and Ramdas Pophale) SiO2 
 PCOD9373852
Probable space group: I M M 2
;
_chemical_formula_sum "Si O2"
_cell_formula_units_Z 56
_cell_length_a 22.747324
_cell_length_b 7.846788
_cell_length_c 15.128402
_cell_angle_alpha 90.000000
_cell_angle_beta 90.000000
_cell_angle_gamma 90.000000
_cell_volume 2700.320348
_symmetry_space_group_name_H-M "I M M 2"
_symmetry_group_IT_number 44
_symmetry_cell_setting 'orthorhombic'
loop_
_space_group_symop_operation_xyz
x,y,z
-x,-y,z
-x,y,z
x,-y,z
1/2+x,1/2+y,1/2+z
1/2-x,1/2-y,1/2+z
1/2-x,1/2+y,1/2+z
1/2+x,1/2-y,1/2+z
loop_
_atom_site_type_symbol
_atom_site_label
_atom_site_fract_x
_atom_site_fract_y
_atom_site_fract_z
Si Si1 0.113340 0.295179 0.297720
Si Si2 0.716368 0.795914 0.475121
Si Si3 0.646881 0.202239 0.983852
Si Si4 0.500000 0.702959 0.684305
Si Si5 0.106808 0.200380 0.861853
Si Si6 0.782769 0.291843 0.174488
Si Si7 0.850970 0.796654 0.681116
Si Si8 0.000000 0.209877 0.982279
O O1 0.118836 0.500000 0.302879
O O2 0.111902 0.231163 0.398483
O O3 0.171312 0.230747 0.246930
O O4 0.057164 0.256696 0.238822
O O5 0.784258 0.742506 0.465977
O O6 0.671064 0.720274 0.405334
O O7 0.698425 0.744055 0.575035
O O8 0.713581 0.000000 0.469049
O O9 0.640508 0.000000 0.988684
O O10 0.629725 0.268790 0.080427
O O11 0.500000 0.500000 0.679020
O O12 0.500000 0.769701 0.583683
O O13 0.110494 0.271954 0.762261
O O14 0.093215 0.000000 0.854566
O O15 0.057439 0.269254 0.928162
O O16 0.781687 0.500000 0.176634
O O17 0.716157 0.230790 0.188502
O O18 0.847435 0.000000 0.693365
O O19 0.000000 0.000000 0.985422
#
# Coordination Sequence:
#
# PCOD9373852 Si02
#       8
#     8   8   8   4   8   8   8   4
#     4  10  20  36  56  75 101 141 182 214 255 313
#     4  10  19  31  51  81 113 141 174 218 265 314
#     4  10  20  34  54  79 107 140 177 218 265 316
#     4  11  23  37  54  79 108 134 169 219 266 307
#     4  10  19  34  55  76 105 145 182 216 262 317
#     4   8  15  29  49  74 102 133 171 212 255 308
#     4   9  18  33  53  77 107 141 176 217 264 315
#     4   9  20  37  56  81 108 134 171 219 264 311
#
# _framework density 20.73828
#
# number of rings (size 3 to 8) (size 9 to 14) (size 15 to 20)
#    0.000    2.429    0.000    3.643    0.000    4.000 
#    0.000    4.643    0.000    0.857    0.000    0.000 
#    0.000    0.000    0.000    0.000    0.000    0.000 
#
# Total GULP energy -156264.398655 kJ/mol
# GULP energy per Si atom -5580.871381 kJ/mol
# Density = 2.069108 g / cm^3
# Si number density = 20.738280 Si / 1000 Ang^3
#
#
#
# Elastic Constant Matrix: (Units=GPa)
#
#
# Indices 1 2 3 4 5 6 
#
# 1 48.1775 -3.6389 77.3775 0.0000 0.0000 0.0000
# 2 -3.6389 10.3955 -3.2478 0.0000 0.0000 0.0000
# 3 77.3775 -3.2478 208.6422 0.0000 0.0000 0.0000
# 4 0.0000 0.0000 0.0000 16.6982 0.0000 0.0000
# 5 0.0000 0.0000 0.0000 0.0000 33.5707 0.0000
# 6 0.0000 0.0000 0.0000 0.0000 0.0000 13.9021
#
#
#
# Elastic Compliance Matrix: (Units=1/GPa)
#
#
# Indices 1 2 3 4 5 6 
#
# 1 0.052887 0.012446 -0.019420 0.000000 0.000000 0.000000
# 2 0.012446 0.099595 -0.003065 0.000000 0.000000 0.000000
# 3 -0.019420 -0.003065 0.011947 0.000000 0.000000 0.000000
# 4 0.000000 0.000000 0.000000 0.059887 0.000000 0.000000
# 5 0.000000 0.000000 0.000000 0.000000 0.029788 0.000000
# 6 0.000000 0.000000 0.000000 0.000000 0.000000 0.071932
#
#
# Mechanical properties :
#
#
# Convention : Reuss Voigt Hill
#
# Bulk Modulus (GPa) = 6.92762 45.35521 26.14142
# Shear Modulus (GPa) = 12.68291 25.94915 19.31603
#
# Velocity S-wave (km/s) = 2.47568 3.54116 3.05523
# Velocity P-wave (km/s) = 3.39407 6.21591 5.00786
#
# Compressibility (1/GPa) = 0.14434968
#
# Stress axis : x y z
#
# Youngs Moduli (GPa) = 18.90823 10.04070 83.70057
#
# Poissons Ratio (x) = -0.12496 1.62547
# Poissons Ratio (y) = -0.23533 0.25657
# Poissons Ratio (z) = 0.36720 0.03078
#
# Static dielectric constant tensor:
#      x y z
#    x 1.716440 0.000000 0.000000 
#    y 0.000000 1.758150 0.000000 
#    z 0.000000 0.000000 1.792070 
# 
# From -- ./inp_files/19216.got.cif
#   From: 2010.05.17/outbox.cif.g08.bks.cpg/sg44_10_cif.got.tgz:19216.got - 2010.06.03 19:37:08.
