data_PCOD9373116
_publ_section_title
;
Structure prediction by ZEFSAII (Michael W. Deem and Ramdas Pophale) SiO2 
 PCOD9373116
Probable space group: I M M 2
;
_chemical_formula_sum "Si O2"
_cell_formula_units_Z 44
_cell_length_a 29.038371
_cell_length_b 7.378269
_cell_length_c 8.057385
_cell_angle_alpha 90.000000
_cell_angle_beta 90.000000
_cell_angle_gamma 90.000000
_cell_volume 1726.318204
_symmetry_space_group_name_H-M "I M M 2"
_symmetry_group_IT_number 44
_symmetry_cell_setting 'orthorhombic'
loop_
_space_group_symop_operation_xyz
x,y,z
-x,-y,z
-x,y,z
x,-y,z
1/2+x,1/2+y,1/2+z
1/2-x,1/2-y,1/2+z
1/2-x,1/2+y,1/2+z
1/2+x,1/2-y,1/2+z
loop_
_atom_site_type_symbol
_atom_site_label
_atom_site_fract_x
_atom_site_fract_y
_atom_site_fract_z
Si Si1 0.000000 0.209856 0.759480
Si Si2 0.653900 0.778347 0.036519
Si Si3 0.252061 0.199242 0.173251
Si Si4 0.097937 0.722568 0.221481
Si Si5 0.714451 0.000000 0.497977
Si Si6 0.000000 0.718949 0.367723
Si Si7 0.601354 0.794082 0.358989
O O1 0.046667 0.297347 0.827800
O O2 0.000000 0.222234 0.559559
O O3 0.000000 0.000000 0.808459
O O4 0.705665 0.717997 0.066313
O O5 0.623863 0.716734 0.194070
O O6 0.653732 0.000000 0.036810
O O7 0.630935 0.716312 0.868160
O O8 0.238494 0.000000 0.112427
O O9 0.276093 0.156664 0.351004
O O10 0.212375 0.342449 0.144352
O O11 0.098105 0.500000 0.217288
O O12 0.046180 0.775776 0.274035
O O13 0.109565 0.788588 0.038014
O O14 0.000000 0.500000 0.373144
O O15 0.620825 0.000000 0.373041
#
# Coordination Sequence:
#
# PCOD9373116 Si02
#       7
#     4   8   8   8   4   4   8
#     4  12  23  34  50  77 115 162 204 252 309 365
#     4   9  17  36  58  92 124 153 198 260 322 377
#     4   9  22  41  67 101 134 173 214 277 330 420
#     4   9  17  30  57  88 111 142 202 251 302 357
#     4  10  22  42  70  98 136 174 222 266 344 406
#     4  10  17  32  54  79 105 150 198 248 289 355
#     4  10  19  35  60  84 109 154 204 257 307 369
#
# _framework density 25.487769
#
# number of rings (size 3 to 8) (size 9 to 14) (size 15 to 20)
#    0.545    1.818    1.818    1.364    1.273    1.455 
#    4.909    1.818    2.000    0.000    0.000    0.000 
#    0.000    0.000    0.000    0.000    0.000    0.000 
#
# Total GULP energy -122606.518823 kJ/mol
# GULP energy per Si atom -5573.023583 kJ/mol
# Density = 2.542976 g / cm^3
# Si number density = 25.487769 Si / 1000 Ang^3
#
#
#
# Elastic Constant Matrix: (Units=GPa)
#
#
# Indices 1 2 3 4 5 6 
#
# 1 92.7593 -11.1774 60.6995 0.0000 0.0000 0.0000
# 2 -11.1774 118.0569 10.6474 0.0000 0.0000 0.0000
# 3 60.6995 10.6474 194.3042 0.0000 0.0000 0.0000
# 4 0.0000 0.0000 0.0000 1.9525 0.0000 0.0000
# 5 0.0000 0.0000 0.0000 0.0000 4.6329 0.0000
# 6 0.0000 0.0000 0.0000 0.0000 0.0000 39.1132
#
#
#
# Elastic Compliance Matrix: (Units=1/GPa)
#
#
# Indices 1 2 3 4 5 6 
#
# 1 0.013888 0.001715 -0.004432 0.000000 0.000000 0.000000
# 2 0.001715 0.008724 -0.001014 0.000000 0.000000 0.000000
# 3 -0.004432 -0.001014 0.006587 0.000000 0.000000 0.000000
# 4 0.000000 0.000000 0.000000 0.512174 0.000000 0.000000
# 5 0.000000 0.000000 0.000000 0.000000 0.215846 0.000000
# 6 0.000000 0.000000 0.000000 0.000000 0.000000 0.025567
#
#
# Mechanical properties :
#
#
# Convention : Reuss Voigt Hill
#
# Bulk Modulus (GPa) = 46.00725 58.38440 52.19583
# Shear Modulus (GPa) = 6.26965 32.13644 19.20305
#
# Velocity S-wave (km/s) = 1.57010 3.55471 2.74783
# Velocity P-wave (km/s) = 4.62351 6.30908 5.53088
#
# Compressibility (1/GPa) = 0.02173571
#
# Stress axis : x y z
#
# Youngs Moduli (GPa) = 72.00648 114.62306 151.81958
#
# Poissons Ratio (x) = -0.19653 0.67292
# Poissons Ratio (y) = -0.12346 0.15390
# Poissons Ratio (z) = 0.31916 0.11619
#
# Static dielectric constant tensor:
#      x y z
#    x 2.223470 0.000000 0.000000 
#    y 0.000000 1.966260 0.000000 
#    z 0.000000 0.000000 1.999270 
# 
# From -- ./inp_files/9940.got.cif
#   From: 2010.05.17/outbox.cif.g08.bks.cpg/sg44_5_cif.got.tgz:9940.got - 2010.06.03 19:37:08.
