data_PCOD9373421
_publ_section_title
;
Structure prediction by ZEFSAII (Michael W. Deem and Ramdas Pophale) SiO2 
 PCOD9373421
Probable space group: I M M 2
;
_chemical_formula_sum "Si O2"
_cell_formula_units_Z 64
_cell_length_a 25.153137
_cell_length_b 14.649183
_cell_length_c 7.523658
_cell_angle_alpha 90.000000
_cell_angle_beta 90.000000
_cell_angle_gamma 90.000000
_cell_volume 2772.264134
_symmetry_space_group_name_H-M "I M M 2"
_symmetry_group_IT_number 44
_symmetry_cell_setting 'orthorhombic'
loop_
_space_group_symop_operation_xyz
x,y,z
-x,-y,z
-x,y,z
x,-y,z
1/2+x,1/2+y,1/2+z
1/2-x,1/2-y,1/2+z
1/2-x,1/2+y,1/2+z
1/2+x,1/2-y,1/2+z
loop_
_atom_site_type_symbol
_atom_site_label
_atom_site_fract_x
_atom_site_fract_y
_atom_site_fract_z
Si Si1 0.562785 0.902663 0.195290
Si Si2 0.775634 0.892306 0.077111
Si Si3 0.341965 0.601022 0.107042
Si Si4 0.557622 0.223726 0.642450
Si Si5 0.389753 0.402877 0.714629
Si Si6 0.642371 0.102131 0.533220
Si Si7 0.751573 0.706431 0.948460
Si Si8 0.059227 0.209567 0.729987
O O1 0.500000 0.902224 0.256173
O O2 0.606341 0.905357 0.353780
O O3 0.569348 0.801895 0.114246
O O4 0.569190 0.000000 0.097235
O O5 0.840059 0.887656 0.081356
O O6 0.758337 0.848187 0.265659
O O7 0.760787 0.000000 0.063516
O O8 0.752179 0.816621 0.943456
O O9 0.325319 0.500000 0.172108
O O10 0.392620 0.640830 0.208473
O O11 0.362584 0.590409 0.905952
O O12 0.293802 0.671271 0.083514
O O13 0.500000 0.187794 0.688549
O O14 0.571010 0.319237 0.730532
O O15 0.602372 0.148591 0.671496
O O16 0.558369 0.254251 0.433442
O O17 0.415426 0.500000 0.669335
O O18 0.691080 0.170465 0.509904
O O19 0.660329 0.000000 0.578269
O O20 0.000000 0.173407 0.690016
#
# Coordination Sequence:
#
# PCOD9373421 Si02
#       8
#     8   8   8   8   8   8   8   8
#     4   8  15  29  51  80 111 142 180 231 290 346
#     4  10  22  41  62  88 121 160 203 251 301 356
#     4  10  22  38  56  80 113 153 191 236 292 354
#     4  10  20  34  54  84 114 144 190 245 293 344
#     4   9  19  38  57  75 108 150 192 235 290 354
#     4  10  18  31  54  82 111 148 188 233 292 350
#     4  11  22  38  63  89 121 156 197 250 298 357
#     4   9  19  34  53  81 113 142 185 242 290 340
#
# _framework density 23.085823000000001
#
# number of rings (size 3 to 8) (size 9 to 14) (size 15 to 20)
#    0.000    2.375    1.250    3.000    3.500    2.250 
#    0.000    5.625    0.000    0.750    0.000    1.750 
#    0.000    0.000    0.000    0.000    0.000    0.000 
#
# Total GULP energy -178431.479181 kJ/mol
# GULP energy per Si atom -5575.983724 kJ/mol
# Density = 2.303328 g / cm^3
# Si number density = 23.085823 Si / 1000 Ang^3
#
#
#
# Elastic Constant Matrix: (Units=GPa)
#
#
# Indices 1 2 3 4 5 6 
#
# 1 79.1707 28.7069 17.7410 0.0000 0.0000 0.0000
# 2 28.7069 156.0999 31.0739 0.0000 0.0000 0.0000
# 3 17.7410 31.0739 32.6376 0.0000 0.0000 0.0000
# 4 0.0000 0.0000 0.0000 21.0955 0.0000 0.0000
# 5 0.0000 0.0000 0.0000 0.0000 16.3685 0.0000
# 6 0.0000 0.0000 0.0000 0.0000 0.0000 18.3328
#
#
#
# Elastic Compliance Matrix: (Units=1/GPa)
#
#
# Indices 1 2 3 4 5 6 
#
# 1 0.014615 -0.001365 -0.006645 0.000000 0.000000 0.000000
# 2 -0.001365 0.008032 -0.006905 0.000000 0.000000 0.000000
# 3 -0.006645 -0.006905 0.040826 0.000000 0.000000 0.000000
# 4 0.000000 0.000000 0.000000 0.047403 0.000000 0.000000
# 5 0.000000 0.000000 0.000000 0.000000 0.061093 0.000000
# 6 0.000000 0.000000 0.000000 0.000000 0.000000 0.054547
#
#
# Mechanical properties :
#
#
# Convention : Reuss Voigt Hill
#
# Bulk Modulus (GPa) = 29.72397 46.99462 38.35929
# Shear Modulus (GPa) = 18.68746 23.85178 21.26962
#
# Velocity S-wave (km/s) = 2.84822 3.21780 3.03863
# Velocity P-wave (km/s) = 4.87030 5.84862 5.38173
#
# Compressibility (1/GPa) = 0.03364288
#
# Stress axis : x y z
#
# Youngs Moduli (GPa) = 68.42355 124.50679 24.49449
#
# Poissons Ratio (x) = 0.16995 0.16276
# Poissons Ratio (y) = 0.09340 0.16913
# Poissons Ratio (z) = 0.45465 0.85971
#
# Static dielectric constant tensor:
#      x y z
#    x 1.826280 0.000000 0.000000 
#    y 0.000000 1.980830 0.000000 
#    z 0.000000 0.000000 1.975420 
# 
# From -- ./inp_files/9476.got.cif
#   From: 2010.05.17/outbox.cif.g08.bks.cpg/sg44_5_cif.got.tgz:9476.got - 2010.06.03 19:37:08.
