data_PCOD9373796
_publ_section_title
;
Structure prediction by ZEFSAII (Michael W. Deem and Ramdas Pophale) SiO2 
 PCOD9373796
Probable space group: I M M 2
;
_chemical_formula_sum "Si O2"
_cell_formula_units_Z 48
_cell_length_a 14.408002
_cell_length_b 7.370574
_cell_length_c 19.143557
_cell_angle_alpha 90.000000
_cell_angle_beta 90.000000
_cell_angle_gamma 90.000000
_cell_volume 2032.954725
_symmetry_space_group_name_H-M "I M M 2"
_symmetry_group_IT_number 44
_symmetry_cell_setting 'orthorhombic'
loop_
_space_group_symop_operation_xyz
x,y,z
-x,-y,z
-x,y,z
x,-y,z
1/2+x,1/2+y,1/2+z
1/2-x,1/2-y,1/2+z
1/2-x,1/2+y,1/2+z
1/2+x,1/2-y,1/2+z
loop_
_atom_site_type_symbol
_atom_site_label
_atom_site_fract_x
_atom_site_fract_y
_atom_site_fract_z
Si Si1 0.605038 0.284920 0.796440
Si Si2 0.801813 0.778759 0.153953
Si Si3 0.754313 0.782224 0.901334
Si Si4 0.101260 0.704885 0.628745
Si Si5 0.600180 0.282652 0.289117
Si Si6 0.397313 0.720799 0.516259
O O1 0.500000 0.213419 0.793822
O O2 0.599833 0.500000 0.784783
O O3 0.668024 0.215047 0.731233
O O4 0.652379 0.260405 0.872386
O O5 0.703513 0.711941 0.121570
O O6 0.792826 0.000000 0.156667
O O7 0.879133 0.733834 0.096894
O O8 0.819421 0.716195 0.838171
O O9 0.809200 0.718222 0.969899
O O10 0.757970 0.000000 0.904086
O O11 0.103326 0.500000 0.599587
O O12 0.099210 0.697904 0.713096
O O13 0.000000 0.784762 0.608155
O O14 0.500000 0.251327 0.322794
O O15 0.609550 0.500000 0.279395
O O16 0.500000 0.782011 0.493991
O O17 0.398091 0.500000 0.511520
#
# Coordination Sequence:
#
# PCOD9373796 Si02
#       6
#     8   8   8   8   8   8
#     4  10  20  34  53  75  99 132 173 212 251 301
#     4   9  16  29  49  74 102 131 167 209 251 296
#     4  10  19  31  49  75 103 129 162 208 257 300
#     4   9  16  26  43  69  97 123 157 203 249 287
#     4   9  16  26  42  66  96 127 157 191 236 290
#     4   9  17  30  50  76 104 134 168 207 252 302
#
# _framework density 23.610952999999999
#
# number of rings (size 3 to 8) (size 9 to 14) (size 15 to 20)
#    0.000    2.667    1.667    1.000    0.000    4.333 
#    0.000    0.833    0.000    6.500    0.000    2.333 
#    0.000    0.000    0.000    0.000    0.000    0.000 
#
# Total GULP energy -133734.327790 kJ/mol
# GULP energy per Si atom -5572.263658 kJ/mol
# Density = 2.355721 g / cm^3
# Si number density = 23.610953 Si / 1000 Ang^3
#
#
#
# Elastic Constant Matrix: (Units=GPa)
#
#
# Indices 1 2 3 4 5 6 
#
# 1 161.1323 6.0387 41.8486 0.0000 0.0000 0.0000
# 2 6.0387 81.8623 -4.4038 0.0000 0.0000 0.0000
# 3 41.8486 -4.4038 81.1109 0.0000 0.0000 0.0000
# 4 0.0000 0.0000 0.0000 6.9049 0.0000 0.0000
# 5 0.0000 0.0000 0.0000 0.0000 24.8733 0.0000
# 6 0.0000 0.0000 0.0000 0.0000 0.0000 6.1378
#
#
#
# Elastic Compliance Matrix: (Units=1/GPa)
#
#
# Indices 1 2 3 4 5 6 
#
# 1 0.007210 -0.000734 -0.003760 0.000000 0.000000 0.000000
# 2 -0.000734 0.012326 0.001048 0.000000 0.000000 0.000000
# 3 -0.003760 0.001048 0.014326 0.000000 0.000000 0.000000
# 4 0.000000 0.000000 0.000000 0.144825 0.000000 0.000000
# 5 0.000000 0.000000 0.000000 0.000000 0.040204 0.000000
# 6 0.000000 0.000000 0.000000 0.000000 0.000000 0.162925
#
#
# Mechanical properties :
#
#
# Convention : Reuss Voigt Hill
#
# Bulk Modulus (GPa) = 37.07841 45.67470 41.37656
# Shear Modulus (GPa) = 12.57234 26.29132 19.43183
#
# Velocity S-wave (km/s) = 2.31005 3.34057 2.87191
# Velocity P-wave (km/s) = 4.78049 5.85371 5.34411
#
# Compressibility (1/GPa) = 0.02696988
#
# Stress axis : x y z
#
# Youngs Moduli (GPa) = 138.69462 81.12819 69.80527
#
# Poissons Ratio (x) = 0.05956 0.26246
# Poissons Ratio (y) = 0.10182 -0.07316
# Poissons Ratio (z) = 0.52147 -0.08502
#
# Static dielectric constant tensor:
#      x y z
#    x 1.982570 0.000000 0.000000 
#    y 0.000000 1.982550 0.000000 
#    z 0.000000 0.000000 1.847450 
# 
# From -- ./inp_files/17705.got.cif
#   From: 2010.05.17/outbox.cif.g08.bks.cpg/sg44_9_cif.got.tgz:17705.got - 2010.06.03 19:37:08.
