data_PCOD9373439
_publ_section_title
;
Structure prediction by ZEFSAII (Michael W. Deem and Ramdas Pophale) SiO2 
 PCOD9373439
Probable space group: I M M 2
;
_chemical_formula_sum "Si O2"
_cell_formula_units_Z 46
_cell_length_a 17.137702
_cell_length_b 7.934312
_cell_length_c 20.874679
_cell_angle_alpha 90.000000
_cell_angle_beta 90.000000
_cell_angle_gamma 90.000000
_cell_volume 2838.452735
_symmetry_space_group_name_H-M "I M M 2"
_symmetry_group_IT_number 44
_symmetry_cell_setting 'orthorhombic'
loop_
_space_group_symop_operation_xyz
x,y,z
-x,-y,z
-x,y,z
x,-y,z
1/2+x,1/2+y,1/2+z
1/2-x,1/2-y,1/2+z
1/2-x,1/2+y,1/2+z
1/2+x,1/2-y,1/2+z
loop_
_atom_site_type_symbol
_atom_site_label
_atom_site_fract_x
_atom_site_fract_y
_atom_site_fract_z
Si Si1 0.000000 0.500000 0.844360
Si Si2 0.303188 0.313215 0.078102
Si Si3 0.000000 0.798316 0.945469
Si Si4 0.087167 0.795876 0.188061
Si Si5 0.407153 0.000000 0.101729
Si Si6 0.637968 0.298117 0.544753
Si Si7 0.353437 0.000000 0.251175
Si Si8 0.250967 0.686596 0.227859
O O1 0.000000 0.668627 0.887316
O O2 0.924430 0.500000 0.799538
O O3 0.334249 0.500000 0.065027
O O4 0.223480 0.281511 0.039015
O O5 0.275228 0.308042 0.152572
O O6 0.365623 0.164716 0.072041
O O7 0.923868 0.763416 0.989296
O O8 0.000000 0.000000 0.929781
O O9 0.101525 0.747887 0.113574
O O10 0.158599 0.721548 0.228049
O O11 0.000000 0.744887 0.207164
O O12 0.092082 0.000000 0.191045
O O13 0.500000 0.000000 0.094044
O O14 0.386186 0.000000 0.177942
O O15 0.649108 0.500000 0.547847
O O16 0.299775 0.164651 0.259461
O O17 0.268771 0.500000 0.252548
#
# Coordination Sequence:
#
# PCOD9373439 Si02
#       8
#     2   8   4   8   4   8   4   8
#     4  12  26  38  54  72  90 138 194 226 248 276
#     4   9  17  27  44  71  97 126 165 197 241 309
#     4  10  22  36  50  74 104 132 178 216 240 287
#     4   9  14  23  43  73 107 138 161 184 237 313
#     4  10  18  32  50  68  96 131 165 204 253 304
#     4   9  15  29  46  67 102 141 162 192 245 297
#     4  10  20  38  49  62  89 132 178 224 254 274
#     4   9  17  29  46  68  93 128 167 205 248 304
#
# _framework density 16.206014
#
# number of rings (size 3 to 8) (size 9 to 14) (size 15 to 20)
#    0.000    2.609    3.043    0.000    1.217    1.391 
#    0.000    0.000    0.000    0.000    0.000    0.000 
#    0.000    2.783    0.348    0.000    0.000    0.000 
#
# Total GULP energy -128154.761404 kJ/mol
# GULP energy per Si atom -5571.946148 kJ/mol
# Density = 1.616913 g / cm^3
# Si number density = 16.206014 Si / 1000 Ang^3
#
#
#
# Elastic Constant Matrix: (Units=GPa)
#
#
# Indices 1 2 3 4 5 6 
#
# 1 143.1986 86.5511 27.5721 0.0000 0.0000 0.0000
# 2 86.5511 125.9627 34.0625 0.0000 0.0000 0.0000
# 3 27.5721 34.0625 35.6531 0.0000 0.0000 0.0000
# 4 0.0000 0.0000 0.0000 11.2550 0.0000 0.0000
# 5 0.0000 0.0000 0.0000 0.0000 11.5514 0.0000
# 6 0.0000 0.0000 0.0000 0.0000 0.0000 2.0405
#
#
#
# Elastic Compliance Matrix: (Units=1/GPa)
#
#
# Indices 1 2 3 4 5 6 
#
# 1 0.012038 -0.007758 -0.001897 0.000000 0.000000 0.000000
# 2 -0.007758 0.015705 -0.009004 0.000000 0.000000 0.000000
# 3 -0.001897 -0.009004 0.038118 0.000000 0.000000 0.000000
# 4 0.000000 0.000000 0.000000 0.088850 0.000000 0.000000
# 5 0.000000 0.000000 0.000000 0.000000 0.086569 0.000000
# 6 0.000000 0.000000 0.000000 0.000000 0.000000 0.490081
#
#
# Mechanical properties :
#
#
# Convention : Reuss Voigt Hill
#
# Bulk Modulus (GPa) = 35.03752 66.79843 50.91797
# Shear Modulus (GPa) = 6.42514 15.41129 10.91821
#
# Velocity S-wave (km/s) = 1.99331 3.08711 2.59842
# Velocity P-wave (km/s) = 5.19275 7.34948 6.36315
#
# Compressibility (1/GPa) = 0.02854084
#
# Stress axis : x y z
#
# Youngs Moduli (GPa) = 83.07118 63.67544 26.23459
#
# Poissons Ratio (x) = 0.49402 0.04977
# Poissons Ratio (y) = 0.64450 0.23622
# Poissons Ratio (z) = 0.15760 0.57334
#
# Static dielectric constant tensor:
#      x y z
#    x 1.537150 0.000000 0.000000 
#    y 0.000000 1.575880 0.000000 
#    z 0.000000 0.000000 1.504320 
# 
# From -- ./inp_files/24059.got.cif
#   From: 2010.05.17/outbox.cif.g08.bks.cpg/sg44_13_cif.got.tgz:24059.got - 2010.06.03 19:37:08.
