data_PCOD9373910
_publ_section_title
;
Structure prediction by ZEFSAII (Michael W. Deem and Ramdas Pophale) SiO2 
 PCOD9373910
Probable space group: I M M 2
;
_chemical_formula_sum "Si O2"
_cell_formula_units_Z 56
_cell_length_a 7.838365
_cell_length_b 24.420275
_cell_length_c 14.305403
_cell_angle_alpha 90.000000
_cell_angle_beta 90.000000
_cell_angle_gamma 90.000000
_cell_volume 2738.269128
_symmetry_space_group_name_H-M "I M M 2"
_symmetry_group_IT_number 44
_symmetry_cell_setting 'orthorhombic'
loop_
_space_group_symop_operation_xyz
x,y,z
-x,-y,z
-x,y,z
x,-y,z
1/2+x,1/2+y,1/2+z
1/2-x,1/2-y,1/2+z
1/2-x,1/2+y,1/2+z
1/2+x,1/2-y,1/2+z
loop_
_atom_site_type_symbol
_atom_site_label
_atom_site_fract_x
_atom_site_fract_y
_atom_site_fract_z
Si Si1 0.205793 0.062267 0.831850
Si Si2 0.296919 0.671166 0.794629
Si Si3 0.206246 0.438513 0.692879
Si Si4 0.200367 0.162865 0.500379
Si Si5 0.698225 0.265985 0.614434
Si Si6 0.298666 0.872759 0.012157
Si Si7 0.208773 0.937836 0.618564
O O1 0.265466 0.104668 0.909397
O O2 0.260674 0.074448 0.725613
O O3 0.000000 0.062187 0.832607
O O4 0.262686 0.000000 0.854652
O O5 0.500000 0.681544 0.795660
O O6 0.269137 0.608586 0.762311
O O7 0.226325 0.678222 0.898831
O O8 0.228070 0.710109 0.711849
O O9 0.267561 0.500000 0.711666
O O10 0.256139 0.418071 0.588942
O O11 0.000000 0.438994 0.696683
O O12 0.215254 0.212876 0.571831
O O13 0.272359 0.108033 0.547469
O O14 0.000000 0.152036 0.484272
O O15 0.500000 0.252388 0.627743
O O16 0.711832 0.316134 0.541221
O O17 0.500000 0.863913 0.024079
O O18 0.000000 0.936955 0.618175
O O19 0.260416 0.000000 0.595838
#
# Coordination Sequence:
#
# PCOD9373910 Si02
#       7
#     8   8   8   8   8   8   8
#     4   9  17  30  49  75 107 141 176 213 254 301
#     4   9  20  36  53  76 104 132 168 214 255 298
#     4   9  18  32  50  74 105 139 173 209 252 304
#     4  10  20  36  58  80 101 131 171 210 252 301
#     4  10  21  37  53  73 104 136 168 209 259 309
#     4  10  19  32  51  75 104 138 177 217 256 300
#     4   8  16  32  53  77 105 136 171 209 248 299
#
# _framework density 20.450873999999999
#
# number of rings (size 3 to 8) (size 9 to 14) (size 15 to 20)
#    0.000    2.714    0.000    2.143    0.000    4.571 
#    0.000    5.000    0.000    1.286    0.000    0.000 
#    0.000    0.000    0.000    0.000    0.000    0.000 
#
# Total GULP energy -156214.431940 kJ/mol
# GULP energy per Si atom -5579.086855 kJ/mol
# Density = 2.040433 g / cm^3
# Si number density = 20.450874 Si / 1000 Ang^3
#
#
#
# Elastic Constant Matrix: (Units=GPa)
#
#
# Indices 1 2 3 4 5 6 
#
# 1 20.5741 -9.5786 2.1778 0.0000 0.0000 0.0000
# 2 -9.5786 91.9522 78.4703 -0.0001 0.0000 0.0000
# 3 2.1778 78.4703 132.5256 -0.0001 0.0000 0.0000
# 4 0.0000 -0.0001 -0.0001 16.3754 0.0000 0.0000
# 5 0.0000 0.0000 0.0000 0.0000 7.6407 0.0000
# 6 0.0000 0.0000 0.0000 0.0000 0.0000 21.4248
#
#
#
# Elastic Compliance Matrix: (Units=1/GPa)
#
#
# Indices 1 2 3 4 5 6 
#
# 1 0.055736 0.013316 -0.008801 0.000000 0.000000 0.000000
# 2 0.013316 0.025165 -0.015119 0.000000 0.000000 0.000000
# 3 -0.008801 -0.015119 0.016643 0.000000 0.000000 0.000000
# 4 0.000000 0.000000 0.000000 0.061067 0.000000 0.000000
# 5 0.000000 0.000000 0.000000 0.000000 0.130877 0.000000
# 6 0.000000 0.000000 0.000000 0.000000 0.000000 0.046675
#
#
# Mechanical properties :
#
#
# Convention : Reuss Voigt Hill
#
# Bulk Modulus (GPa) = 13.09994 43.02120 28.06057
# Shear Modulus (GPa) = 13.06110 20.68701 16.87406
#
# Velocity S-wave (km/s) = 2.52991 3.18393 2.87558
# Velocity P-wave (km/s) = 3.86696 5.88206 4.97755
#
# Compressibility (1/GPa) = 0.07633623
#
# Stress axis : x y z
#
# Youngs Moduli (GPa) = 17.94173 39.73779 60.08631
#
# Poissons Ratio (x) = -0.52916 0.52880
# Poissons Ratio (y) = -0.23892 0.90847
# Poissons Ratio (z) = 0.15790 0.60081
#
# Static dielectric constant tensor:
#      x y z
#    x 1.752800 0.000000 0.000000 
#    y 0.000000 1.698960 0.000000 
#    z 0.000000 0.000000 1.739820 
# 
# From -- ./inp_files/16494.got.cif
#   From: 2010.05.17/outbox.cif.g08.bks.cpg/sg44_9_cif.got.tgz:16494.got - 2010.06.03 19:37:08.
