data_PCOD9373873
_publ_section_title
;
Structure prediction by ZEFSAII (Michael W. Deem and Ramdas Pophale) SiO2 
 PCOD9373873
Probable space group: I M M 2
;
_chemical_formula_sum "Si O2"
_cell_formula_units_Z 48
_cell_length_a 8.328842
_cell_length_b 7.343782
_cell_length_c 35.072367
_cell_angle_alpha 90.000000
_cell_angle_beta 90.000000
_cell_angle_gamma 90.000000
_cell_volume 2145.208341
_symmetry_space_group_name_H-M "I M M 2"
_symmetry_group_IT_number 44
_symmetry_cell_setting 'orthorhombic'
loop_
_space_group_symop_operation_xyz
x,y,z
-x,-y,z
-x,y,z
x,-y,z
1/2+x,1/2+y,1/2+z
1/2-x,1/2-y,1/2+z
1/2-x,1/2+y,1/2+z
1/2+x,1/2-y,1/2+z
loop_
_atom_site_type_symbol
_atom_site_label
_atom_site_fract_x
_atom_site_fract_y
_atom_site_fract_z
Si Si1 0.175361 0.222146 0.313830
Si Si2 0.313008 0.279851 0.549068
Si Si3 0.675999 0.217980 0.969777
Si Si4 0.500000 0.222006 0.270831
Si Si5 0.000000 0.278069 0.682656
Si Si6 0.175529 0.283594 0.889724
Si Si7 0.813126 0.222137 0.135042
O O1 0.334664 0.280375 0.291184
O O2 0.199356 0.279807 0.357964
O O3 0.000000 0.281891 0.299701
O O4 0.174169 0.000000 0.312117
O O5 0.500000 0.238538 0.543730
O O6 0.296150 0.500000 0.549636
O O7 0.224102 0.212007 0.511454
O O8 0.270017 0.219941 0.591691
O O9 0.500000 0.285688 0.959344
O O10 0.787949 0.253556 0.933900
O O11 0.671212 0.000000 0.973414
O O12 0.500000 0.275868 0.226717
O O13 0.500000 0.000000 0.272503
O O14 0.166537 0.220501 0.662192
O O15 0.000000 0.500000 0.681149
O O16 0.169923 0.500000 0.884751
O O17 0.000000 0.209673 0.880397
O O18 0.000000 0.277389 0.143186
O O19 0.816345 0.000000 0.135622
#
# Coordination Sequence:
#
# PCOD9373873 Si02
#       7
#     8   8   8   4   4   8   8
#     4   9  16  27  43  59  79 110 146 185 226 272
#     4   8  14  25  39  54  77 111 148 183 221 267
#     4  10  20  30  43  67  94 120 154 195 235 277
#     4   9  16  26  36  56  81 105 145 187 225 273
#     4   9  16  22  34  52  76 107 141 185 223 259
#     4  10  19  32  49  66  87 119 160 198 233 279
#     4   8  14  23  34  50  73 106 145 179 217 266
#
# _framework density 22.375449
#
# number of rings (size 3 to 8) (size 9 to 14) (size 15 to 20)
#    0.000    3.000    0.833    2.000    1.167    2.667 
#    0.000    3.333    0.000    0.000    0.000    0.000 
#    0.000    0.000    0.000    3.000    0.000   20.333 
#
# Total GULP energy -133861.699722 kJ/mol
# GULP energy per Si atom -5577.570822 kJ/mol
# Density = 2.232452 g / cm^3
# Si number density = 22.375449 Si / 1000 Ang^3
#
#
#
# Elastic Constant Matrix: (Units=GPa)
#
#
# Indices 1 2 3 4 5 6 
#
# 1 171.5023 5.9616 99.4693 0.0000 0.0000 0.0000
# 2 5.9616 81.8886 -0.8960 0.0000 0.0000 0.0000
# 3 99.4693 -0.8960 144.7560 0.0000 0.0000 0.0000
# 4 0.0000 0.0000 0.0000 -0.2674 0.0000 0.0000
# 5 0.0000 0.0000 0.0000 0.0000 -5.7620 0.0000
# 6 0.0000 0.0000 0.0000 0.0000 0.0000 -9.6657
#
#
#
# Elastic Compliance Matrix: (Units=1/GPa)
#
#
# Indices 1 2 3 4 5 6 
#
# 1 0.009744 -0.000783 -0.006701 0.000000 0.000000 0.000000
# 2 -0.000783 0.012275 0.000614 0.000001 0.000000 0.000000
# 3 -0.006701 0.000614 0.011516 0.000000 0.000000 0.000000
# 4 0.000000 0.000001 0.000000 -3.739706 0.000008 0.000000
# 5 0.000000 0.000000 0.000000 0.000008 -0.173549 0.000000
# 6 0.000000 0.000000 0.000000 0.000000 0.000000 -0.103458
#
#
# Mechanical properties :
#
#
# Convention : Reuss Voigt Hill
#
# Bulk Modulus (GPa) = 50.51276 67.46852 58.99064
# Shear Modulus (GPa) = -1.26172 16.43510 7.58669
#
# Velocity S-wave (km/s) = -0.75174 2.71313 1.84336
# Velocity P-wave (km/s) = 4.67660 6.32718 5.56344
#
# Compressibility (1/GPa) = 0.01979698
#
# Stress axis : x y z
#
# Youngs Moduli (GPa) = 102.62352 81.46361 86.83294
#
# Poissons Ratio (x) = 0.06376 0.58184
# Poissons Ratio (y) = 0.08033 -0.05330
# Poissons Ratio (z) = 0.68765 -0.05001
#
# Static dielectric constant tensor:
#      x y z
#    x 1.941640 0.000000 0.000000 
#    y 0.000000 1.618960 0.000000 
#    z 0.000000 0.000000 1.792640 
# 
# From -- ./inp_files/26932.got.cif
#   From: 2010.05.17/outbox.cif.g08.bks.cpg/sg44_14_cif.got.tgz:26932.got - 2010.06.03 19:37:08.
