data_PCOD9373633
_publ_section_title
;
Structure prediction by ZEFSAII (Michael W. Deem and Ramdas Pophale) SiO2 
 PCOD9373633
Probable space group: I M M 2
;
_chemical_formula_sum "Si O2"
_cell_formula_units_Z 64
_cell_length_a 9.126498
_cell_length_b 22.287850
_cell_length_c 15.977165
_cell_angle_alpha 90.000000
_cell_angle_beta 90.000000
_cell_angle_gamma 90.000000
_cell_volume 3249.915427
_symmetry_space_group_name_H-M "I M M 2"
_symmetry_group_IT_number 44
_symmetry_cell_setting 'orthorhombic'
loop_
_space_group_symop_operation_xyz
x,y,z
-x,-y,z
-x,y,z
x,-y,z
1/2+x,1/2+y,1/2+z
1/2-x,1/2-y,1/2+z
1/2-x,1/2+y,1/2+z
1/2+x,1/2-y,1/2+z
loop_
_atom_site_type_symbol
_atom_site_label
_atom_site_fract_x
_atom_site_fract_y
_atom_site_fract_z
Si Si1 0.676209 0.432158 0.678090
Si Si2 0.833580 0.426985 0.506224
Si Si3 0.330791 0.237975 0.601153
Si Si4 0.166214 0.603388 0.173483
Si Si5 0.322095 0.686648 0.757554
Si Si6 0.823805 0.191247 0.441366
Si Si7 0.323699 0.066515 0.489545
Si Si8 0.832032 0.927314 0.840515
O O1 0.500000 0.432752 0.671737
O O2 0.726076 0.500000 0.696260
O O3 0.740351 0.412658 0.588487
O O4 0.717659 0.383177 0.746860
O O5 0.835675 0.500000 0.502614
O O6 0.761274 0.405771 0.420088
O O7 0.000000 0.405804 0.514243
O O8 0.500000 0.254771 0.582587
O O9 0.333192 0.172034 0.642908
O O10 0.269048 0.280180 0.674178
O O11 0.241773 0.231581 0.515528
O O12 0.206408 0.567621 0.089519
O O13 0.268304 0.593826 0.252456
O O14 0.000000 0.586626 0.197775
O O15 0.500000 0.691305 0.755318
O O16 0.277493 0.711035 0.847929
O O17 0.762091 0.123463 0.453363
O O18 0.000000 0.190310 0.446510
O O19 0.500000 0.075865 0.480441
O O20 0.286586 0.000000 0.456497
O O21 0.000000 0.909097 0.850791
O O22 0.826511 0.000000 0.840315
#
# Coordination Sequence:
#
# PCOD9373633 Si02
#       8
#     8   8   8   8   8   8   8   8
#     4   9  17  32  55  80 106 137 174 216 265 325
#     4   9  17  30  47  68  99 137 173 212 260 313
#     4   9  19  39  59  74 104 149 187 224 274 332
#     4   9  17  30  49  70  96 136 182 225 267 316
#     4   9  19  37  60  82 109 146 183 221 276 337
#     4  10  20  35  57  85 114 143 183 237 283 323
#     4   9  18  33  53  78 111 151 187 219 269 336
#     4  10  19  29  44  69 102 138 176 221 272 323
#
# _framework density 19.692819
#
# number of rings (size 3 to 8) (size 9 to 14) (size 15 to 20)
#    0.000    2.750    0.000    2.250    0.000    5.500 
#    2.250    4.375    0.000    1.500    0.000    0.000 
#    0.000    0.000    0.000    0.000    0.000    0.000 
#
# Total GULP energy -178440.012245 kJ/mol
# GULP energy per Si atom -5576.250383 kJ/mol
# Density = 1.964800 g / cm^3
# Si number density = 19.692819 Si / 1000 Ang^3
#
#
#
# Elastic Constant Matrix: (Units=GPa)
#
#
# Indices 1 2 3 4 5 6 
#
# 1 41.0523 8.7778 37.4530 0.0000 0.0000 0.0000
# 2 8.7778 41.9503 35.6294 0.0000 0.0000 0.0000
# 3 37.4530 35.6294 131.9955 0.0001 0.0000 0.0000
# 4 0.0000 0.0000 0.0001 17.2524 0.0000 0.0000
# 5 0.0000 0.0000 0.0000 0.0000 23.5577 0.0000
# 6 0.0000 0.0000 0.0000 0.0000 0.0000 11.1088
#
#
#
# Elastic Compliance Matrix: (Units=1/GPa)
#
#
# Indices 1 2 3 4 5 6 
#
# 1 0.032927 0.001356 -0.009709 0.000000 0.000000 0.000000
# 2 0.001356 0.030984 -0.008748 0.000000 0.000000 0.000000
# 3 -0.009709 -0.008748 0.012692 0.000000 0.000000 0.000000
# 4 0.000000 0.000000 0.000000 0.057963 0.000000 0.000000
# 5 0.000000 0.000000 0.000000 0.000000 0.042449 0.000000
# 6 0.000000 0.000000 0.000000 0.000000 0.000000 0.090019
#
#
# Mechanical properties :
#
#
# Convention : Reuss Voigt Hill
#
# Bulk Modulus (GPa) = 23.58420 42.07984 32.83202
# Shear Modulus (GPa) = 15.85441 19.25963 17.55702
#
# Velocity S-wave (km/s) = 2.84048 3.13070 2.98911
# Velocity P-wave (km/s) = 4.77073 5.87221 5.34989
#
# Compressibility (1/GPa) = 0.04240128
#
# Stress axis : x y z
#
# Youngs Moduli (GPa) = 30.37038 32.27460 78.78792
#
# Poissons Ratio (x) = -0.04377 0.76494
# Poissons Ratio (y) = -0.04119 0.68926
# Poissons Ratio (z) = 0.29486 0.28235
#
# Static dielectric constant tensor:
#      x y z
#    x 1.671720 0.000000 0.000000 
#    y 0.000000 1.733550 0.000000 
#    z 0.000000 0.000000 1.675650 
# 
# From -- ./inp_files/16788.got.cif
#   From: 2010.05.17/outbox.cif.g08.bks.cpg/sg44_9_cif.got.tgz:16788.got - 2010.06.03 19:37:08.
