data_PCOD9373160
_publ_section_title
;
Structure prediction by ZEFSAII (Michael W. Deem and Ramdas Pophale) SiO2 
 PCOD9373160
Probable space group: I M M 2
;
_chemical_formula_sum "Si O2"
_cell_formula_units_Z 64
_cell_length_a 7.365536
_cell_length_b 15.273100
_cell_length_c 28.819470
_cell_angle_alpha 90.000000
_cell_angle_beta 90.000000
_cell_angle_gamma 90.000000
_cell_volume 3242.033824
_symmetry_space_group_name_H-M "I M M 2"
_symmetry_group_IT_number 44
_symmetry_cell_setting 'orthorhombic'
loop_
_space_group_symop_operation_xyz
x,y,z
-x,-y,z
-x,y,z
x,-y,z
1/2+x,1/2+y,1/2+z
1/2-x,1/2-y,1/2+z
1/2-x,1/2+y,1/2+z
1/2+x,1/2-y,1/2+z
loop_
_atom_site_type_symbol
_atom_site_label
_atom_site_fract_x
_atom_site_fract_y
_atom_site_fract_z
Si Si1 0.715836 0.901579 0.408460
Si Si2 0.719110 0.900203 0.949392
Si Si3 0.778016 0.224019 0.598329
Si Si4 0.217953 0.901068 0.515639
Si Si5 0.721189 0.098849 0.055814
Si Si6 0.279023 0.400767 0.180374
Si Si7 0.278391 0.598851 0.286923
Si Si8 0.211061 0.227874 0.865243
O O1 0.500000 0.905971 0.400607
O O2 0.739984 0.877891 0.462624
O O3 0.790369 0.822759 0.377434
O O4 0.789032 0.000000 0.401580
O O5 0.500000 0.898326 0.948787
O O6 0.782336 0.831451 0.911458
O O7 0.775884 0.000000 0.938119
O O8 0.775159 0.881405 0.002455
O O9 0.719017 0.167301 0.553799
O O10 0.720113 0.323733 0.589781
O O11 0.718536 0.172639 0.644233
O O12 0.000000 0.224280 0.598944
O O13 0.000000 0.903395 0.519385
O O14 0.284812 0.000000 0.524188
O O15 0.500000 0.098231 0.055804
O O16 0.779705 0.000000 0.067178
O O17 0.500000 0.400743 0.179708
O O18 0.224024 0.500000 0.167006
O O19 0.224359 0.385216 0.233625
O O20 0.500000 0.599050 0.287872
O O21 0.222629 0.500000 0.300001
O O22 0.211666 0.670571 0.323251
O O23 0.000000 0.242216 0.853628
#
# Coordination Sequence:
#
# PCOD9373160 Si02
#       8
#     8   8   8   8   8   8   8   8
#     4   9  18  30  40  53  78 110 138 163 195 234
#     4   9  17  28  41  59  84 110 132 157 195 240
#     4   9  14  20  34  54  75  98 123 154 190 226
#     4   9  16  25  39  60  81  99 125 162 197 228
#     4   8  14  23  33  47  71 103 132 153 179 221
#     4   8  13  21  33  51  75  97 116 147 195 240
#     4   8  14  24  37  54  75  95 118 155 200 237
#     4  10  18  27  42  60  77 103 138 169 195 229
#
# _framework density 19.740694000000001
#
# number of rings (size 3 to 8) (size 9 to 14) (size 15 to 20)
#    0.000    3.250    0.000    3.000    0.000    3.750 
#    0.000    0.000    0.000    0.750    0.000    6.125 
#    0.000    3.000    0.000    0.000    0.000    1.750 
#
# Total GULP energy -178529.693615 kJ/mol
# GULP energy per Si atom -5579.052925 kJ/mol
# Density = 1.969576 g / cm^3
# Si number density = 19.740694 Si / 1000 Ang^3
#
#
#
# Elastic Constant Matrix: (Units=GPa)
#
#
# Indices 1 2 3 4 5 6 
#
# 1 70.9275 3.5012 1.4121 0.0000 0.0000 0.0000
# 2 3.5012 162.0164 117.1532 0.0000 0.0000 0.0000
# 3 1.4121 117.1532 113.1996 0.0000 0.0000 0.0000
# 4 0.0000 0.0000 0.0000 36.8857 0.0000 0.0000
# 5 0.0000 0.0000 0.0000 0.0000 16.0678 0.0000
# 6 0.0000 0.0000 0.0000 0.0000 0.0000 -0.3065
#
#
#
# Elastic Compliance Matrix: (Units=1/GPa)
#
#
# Indices 1 2 3 4 5 6 
#
# 1 0.014123 -0.000707 0.000555 0.000000 0.000000 0.000000
# 2 -0.000707 0.024562 -0.025411 0.000000 0.000000 0.000000
# 3 0.000555 -0.025411 0.035126 0.000000 0.000000 0.000000
# 4 0.000000 0.000000 0.000000 0.027111 0.000000 0.000000
# 5 0.000000 0.000000 0.000000 0.000000 0.062236 0.000000
# 6 0.000000 0.000000 0.000000 0.000000 0.000000 -3.262961
#
#
# Mechanical properties :
#
#
# Convention : Reuss Voigt Hill
#
# Bulk Modulus (GPa) = 44.08159 65.58628 54.83394
# Shear Modulus (GPa) = -1.64413 25.46788 11.91187
#
# Velocity S-wave (km/s) = -0.91360 3.59572 2.45912
# Velocity P-wave (km/s) = 4.61150 7.10880 5.99170
#
# Compressibility (1/GPa) = 0.02268521
#
# Stress axis : x y z
#
# Youngs Moduli (GPa) = 70.80789 40.71299 28.46915
#
# Poissons Ratio (x) = 0.02876 -0.01580
# Poissons Ratio (y) = 0.05003 0.72344
# Poissons Ratio (z) = -0.03930 1.03457
#
# Static dielectric constant tensor:
#      x y z
#    x -2.071500 0.000000 0.000000 
#    y 0.000000 1.706820 0.000000 
#    z 0.000000 0.000000 1.656520 
# 
# From -- ./inp_files/27270.got.cif
#   From: 2010.05.17/outbox.cif.g08.bks.cpg/sg44_14_cif.got.tgz:27270.got - 2010.06.03 19:37:08.
