data_PCOD9373963
_publ_section_title
;
Structure prediction by ZEFSAII (Michael W. Deem and Ramdas Pophale) SiO2 
 PCOD9373963
Probable space group: I M M 2
;
_chemical_formula_sum "Si O2"
_cell_formula_units_Z 64
_cell_length_a 17.786148
_cell_length_b 27.121493
_cell_length_c 6.716288
_cell_angle_alpha 90.000000
_cell_angle_beta 90.000000
_cell_angle_gamma 90.000000
_cell_volume 3239.849270
_symmetry_space_group_name_H-M "I M M 2"
_symmetry_group_IT_number 44
_symmetry_cell_setting 'orthorhombic'
loop_
_space_group_symop_operation_xyz
x,y,z
-x,-y,z
-x,y,z
x,-y,z
1/2+x,1/2+y,1/2+z
1/2-x,1/2-y,1/2+z
1/2-x,1/2+y,1/2+z
1/2+x,1/2-y,1/2+z
loop_
_atom_site_type_symbol
_atom_site_label
_atom_site_fract_x
_atom_site_fract_y
_atom_site_fract_z
Si Si1 0.087289 0.233707 0.420030
Si Si2 0.416021 0.217003 0.305837
Si Si3 0.335595 0.444506 0.506036
Si Si4 0.688128 0.944487 0.279918
Si Si5 0.828758 0.314687 0.192410
Si Si6 0.219654 0.893267 0.610311
Si Si7 0.914655 0.878423 0.309758
Si Si8 0.914736 0.623487 0.508461
O O1 0.096985 0.236402 0.659946
O O2 0.152512 0.267669 0.329000
O O3 0.090410 0.180852 0.315663
O O4 0.000000 0.252223 0.387679
O O5 0.500000 0.221651 0.393664
O O6 0.359004 0.202856 0.478607
O O7 0.415800 0.171332 0.152209
O O8 0.367229 0.500000 0.487322
O O9 0.265466 0.447005 0.656451
O O10 0.300880 0.425333 0.300966
O O11 0.392015 0.405024 0.604249
O O12 0.711649 0.915089 0.478509
O O13 0.630493 0.916704 0.135181
O O14 0.663209 0.000000 0.327197
O O15 0.746712 0.338440 0.171661
O O16 0.875661 0.358040 0.305450
O O17 0.146034 0.893893 0.473712
O O18 0.000000 0.891844 0.362555
O O19 0.000000 0.607973 0.469589
#
# Coordination Sequence:
#
# PCOD9373963 Si02
#       8
#     8   8   8   8   8   8   8   8
#     4   9  20  38  58  86 127 170 210 254 313 379
#     4   9  17  31  55  83 118 163 208 252 295 350
#     4  10  22  42  68  92 119 162 210 264 332 396
#     4  10  20  37  58  82 121 163 207 265 326 383
#     4  11  19  34  58  89 122 165 218 257 302 371
#     4  11  22  39  63  92 122 163 214 269 330 392
#     4  10  24  45  64  92 130 163 204 265 336 404
#     4  10  19  32  53  83 120 163 215 263 304 363
#
# _framework density 19.754004999999999
#
# number of rings (size 3 to 8) (size 9 to 14) (size 15 to 20)
#    0.000    2.000    2.500    2.250    0.000    2.500 
#    4.500    2.500    0.000    0.000    0.000    0.000 
#    0.000    0.000    0.000    0.000    0.000    0.000 
#
# Total GULP energy -178344.538632 kJ/mol
# GULP energy per Si atom -5573.266832 kJ/mol
# Density = 1.970904 g / cm^3
# Si number density = 19.754005 Si / 1000 Ang^3
#
#
#
# Elastic Constant Matrix: (Units=GPa)
#
#
# Indices 1 2 3 4 5 6 
#
# 1 73.2512 30.8425 30.6492 0.0000 0.0000 0.0000
# 2 30.8425 87.3691 31.5835 0.0000 0.0000 0.0000
# 3 30.6492 31.5835 95.3060 0.0000 0.0000 0.0000
# 4 0.0000 0.0000 0.0000 17.4262 0.0000 0.0000
# 5 0.0000 0.0000 0.0000 0.0000 24.7944 0.0000
# 6 0.0000 0.0000 0.0000 0.0000 0.0000 21.1645
#
#
#
# Elastic Compliance Matrix: (Units=1/GPa)
#
#
# Indices 1 2 3 4 5 6 
#
# 1 0.017292 -0.004651 -0.004019 0.000000 0.000000 0.000000
# 2 -0.004651 0.014255 -0.003228 0.000000 0.000000 0.000000
# 3 -0.004019 -0.003228 0.012855 0.000000 0.000000 0.000000
# 4 0.000000 0.000000 0.000000 0.057385 0.000000 0.000000
# 5 0.000000 0.000000 0.000000 0.000000 0.040332 0.000000
# 6 0.000000 0.000000 0.000000 0.000000 0.000000 0.047249
#
#
# Mechanical properties :
#
#
# Convention : Reuss Voigt Hill
#
# Bulk Modulus (GPa) = 48.53476 49.11962 48.82719
# Shear Modulus (GPa) = 22.72393 23.53375 23.12884
#
# Velocity S-wave (km/s) = 3.39535 3.45533 3.42547
# Velocity P-wave (km/s) = 6.32409 6.39051 6.35739
#
# Compressibility (1/GPa) = 0.02060379
#
# Stress axis : x y z
#
# Youngs Moduli (GPa) = 57.83068 70.15296 77.79149
#
# Poissons Ratio (x) = 0.32630 0.31268
# Poissons Ratio (y) = 0.26898 0.25111
# Poissons Ratio (z) = 0.23245 0.22646
#
# Static dielectric constant tensor:
#      x y z
#    x 1.703750 0.000000 0.000000 
#    y 0.000000 1.733730 0.000000 
#    z 0.000000 0.000000 1.698590 
# 
# From -- ./inp_files/2169.got.cif
#   From: 2010.05.17/outbox.cif.g08.bks.cpg/sg44_2_cif.got.tgz:2169.got - 2010.06.03 19:37:08.
