data_PCOD9373322
_publ_section_title
;
Structure prediction by ZEFSAII (Michael W. Deem and Ramdas Pophale) SiO2 
 PCOD9373322
Probable space group: I M M 2
;
_chemical_formula_sum "Si O2"
_cell_formula_units_Z 64
_cell_length_a 30.899053
_cell_length_b 8.744542
_cell_length_c 14.995231
_cell_angle_alpha 90.000000
_cell_angle_beta 90.000000
_cell_angle_gamma 90.000000
_cell_volume 4051.682426
_symmetry_space_group_name_H-M "I M M 2"
_symmetry_group_IT_number 44
_symmetry_cell_setting 'orthorhombic'
loop_
_space_group_symop_operation_xyz
x,y,z
-x,-y,z
-x,y,z
x,-y,z
1/2+x,1/2+y,1/2+z
1/2-x,1/2-y,1/2+z
1/2-x,1/2+y,1/2+z
1/2+x,1/2-y,1/2+z
loop_
_atom_site_type_symbol
_atom_site_label
_atom_site_fract_x
_atom_site_fract_y
_atom_site_fract_z
Si Si1 0.222930 0.680313 0.506910
Si Si2 0.295355 0.815772 0.202981
Si Si3 0.950709 0.817637 0.108812
Si Si4 0.326094 0.675810 0.517639
Si Si5 0.211339 0.313565 0.306773
Si Si6 0.631336 0.319676 0.324309
Si Si7 0.449866 0.817471 0.411463
Si Si8 0.868519 0.679197 0.184595
O O1 0.211703 0.500000 0.504596
O O2 0.204665 0.741195 0.600291
O O3 0.274699 0.691964 0.514688
O O4 0.210569 0.741301 0.409440
O O5 0.253422 0.749732 0.255027
O O6 0.338855 0.764218 0.252533
O O7 0.291673 0.000000 0.203135
O O8 0.914589 0.761959 0.177794
O O9 0.000000 0.772402 0.132202
O O10 0.948953 0.000000 0.101052
O O11 0.941281 0.748803 0.010610
O O12 0.336507 0.500000 0.544466
O O13 0.344601 0.699831 0.419434
O O14 0.346200 0.788375 0.589328
O O15 0.214674 0.500000 0.305596
O O16 0.167164 0.268851 0.256445
O O17 0.629476 0.500000 0.304952
O O18 0.583784 0.252904 0.341756
O O19 0.500000 0.781811 0.390476
O O20 0.444696 0.000000 0.414692
O O21 0.875844 0.500000 0.197242
#
# Coordination Sequence:
#
# PCOD9373322 Si02
#       8
#     8   8   8   8   8   8   8   8
#     4   9  18  34  50  65  94 133 169 204 245 287
#     4  11  21  32  50  73  96 129 171 211 246 287
#     4  10  20  33  49  69  98 135 167 197 243 303
#     4  10  18  30  48  67  96 136 169 197 237 292
#     4  10  20  35  50  69  98 132 168 205 251 299
#     4  11  21  33  50  71 100 138 168 199 245 300
#     4  10  20  33  50  74 102 128 162 208 247 287
#     4  11  21  30  48  74 100 130 165 210 250 289
#
# _framework density 15.795907
#
# number of rings (size 3 to 8) (size 9 to 14) (size 15 to 20)
#    0.000    1.750    3.750    1.875    0.000    2.500 
#    0.000    1.250    0.000    0.000    0.000    0.875 
#    0.000    3.000    0.000    0.000    0.000    0.000 
#
# Total GULP energy -178497.072234 kJ/mol
# GULP energy per Si atom -5578.033507 kJ/mol
# Density = 1.575996 g / cm^3
# Si number density = 15.795907 Si / 1000 Ang^3
#
#
#
# Elastic Constant Matrix: (Units=GPa)
#
#
# Indices 1 2 3 4 5 6 
#
# 1 96.0784 26.7023 61.3326 0.0000 0.0000 0.0000
# 2 26.7023 30.7414 30.4545 0.0000 0.0000 0.0000
# 3 61.3326 30.4545 93.3309 0.0000 0.0000 0.0000
# 4 0.0000 0.0000 0.0000 15.4323 0.0000 0.0000
# 5 0.0000 0.0000 0.0000 0.0000 24.2896 0.0000
# 6 0.0000 0.0000 0.0000 0.0000 0.0000 28.0435
#
#
#
# Elastic Compliance Matrix: (Units=1/GPa)
#
#
# Indices 1 2 3 4 5 6 
#
# 1 0.018649 -0.005996 -0.010298 0.000000 0.000000 0.000000
# 2 -0.005996 0.049996 -0.012374 0.000000 0.000000 0.000000
# 3 -0.010298 -0.012374 0.021520 0.000000 0.000000 0.000000
# 4 0.000000 0.000000 0.000000 0.064799 0.000000 0.000000
# 5 0.000000 0.000000 0.000000 0.000000 0.041170 0.000000
# 6 0.000000 0.000000 0.000000 0.000000 0.000000 0.035659
#
#
# Mechanical properties :
#
#
# Convention : Reuss Voigt Hill
#
# Bulk Modulus (GPa) = 30.46183 50.79217 40.62700
# Shear Modulus (GPa) = 16.66269 20.33049 18.49659
#
# Velocity S-wave (km/s) = 3.25141 3.59147 3.42566
# Velocity P-wave (km/s) = 5.78118 7.03017 6.43604
#
# Compressibility (1/GPa) = 0.03282796
#
# Stress axis : x y z
#
# Youngs Moduli (GPa) = 53.62281 20.00165 46.46881
#
# Poissons Ratio (x) = 0.11993 0.47856
# Poissons Ratio (y) = 0.32153 0.57499
# Poissons Ratio (z) = 0.55223 0.24749
#
# Static dielectric constant tensor:
#      x y z
#    x 1.534700 0.000000 0.000000 
#    y 0.000000 1.541030 0.000000 
#    z 0.000000 0.000000 1.521450 
# 
# From -- ./inp_files/17112.got.cif
#   From: 2010.05.17/outbox.cif.g08.bks.cpg/sg44_9_cif.got.tgz:17112.got - 2010.06.03 19:37:08.
