data_PCOD9373083
_publ_section_title
;
Structure prediction by ZEFSAII (Michael W. Deem and Ramdas Pophale) SiO2 
 PCOD9373083
Probable space group: I M M 2
;
_chemical_formula_sum "Si O2"
_cell_formula_units_Z 64
_cell_length_a 19.494816
_cell_length_b 7.451962
_cell_length_c 22.144758
_cell_angle_alpha 90.000000
_cell_angle_beta 90.000000
_cell_angle_gamma 90.000000
_cell_volume 3217.071481
_symmetry_space_group_name_H-M "I M M 2"
_symmetry_group_IT_number 44
_symmetry_cell_setting 'orthorhombic'
loop_
_space_group_symop_operation_xyz
x,y,z
-x,-y,z
-x,y,z
x,-y,z
1/2+x,1/2+y,1/2+z
1/2-x,1/2-y,1/2+z
1/2-x,1/2+y,1/2+z
1/2+x,1/2-y,1/2+z
loop_
_atom_site_type_symbol
_atom_site_label
_atom_site_fract_x
_atom_site_fract_y
_atom_site_fract_z
Si Si1 0.816878 0.701383 0.406800
Si Si2 0.625954 0.789179 0.677414
Si Si3 0.723538 0.783508 0.134630
Si Si4 0.924752 0.291674 0.646760
Si Si5 0.076035 0.214519 0.505361
Si Si6 0.922381 0.720101 0.308748
Si Si7 0.280103 0.720871 0.504606
Si Si8 0.425308 0.292681 0.546629
O O1 0.797767 0.500000 0.387023
O O2 0.869515 0.694503 0.462815
O O3 0.862412 0.784363 0.353674
O O4 0.751864 0.783466 0.441353
O O5 0.707927 0.763206 0.671437
O O6 0.596128 0.724231 0.740725
O O7 0.591482 0.707936 0.618026
O O8 0.611360 0.000000 0.674194
O O9 0.651026 0.716273 0.161528
O O10 0.719178 0.000000 0.132633
O O11 0.737984 0.723857 0.065111
O O12 0.925707 0.500000 0.665576
O O13 0.922806 0.282296 0.573785
O O14 0.000000 0.214246 0.664342
O O15 0.000000 0.249936 0.480956
O O16 0.086935 0.000000 0.506063
O O17 0.921630 0.500000 0.311321
O O18 0.000000 0.775918 0.324516
O O19 0.278723 0.500000 0.504471
O O20 0.357693 0.783694 0.515165
O O21 0.500000 0.211020 0.535974
O O22 0.428400 0.500000 0.527529
#
# Coordination Sequence:
#
# PCOD9373083 Si02
#       8
#     8   8   8   8   8   8   8   8
#     4  10  17  29  47  62  81 116 155 187 219 257
#     4  10  19  30  45  65  89 118 152 190 228 266
#     4   9  16  29  45  65  90 114 147 188 224 266
#     4   9  16  27  44  63  84 114 150 183 215 259
#     4  10  19  27  36  57  90 120 145 177 214 255
#     4   9  18  30  44  64  88 116 156 197 221 250
#     4   8  14  25  42  65  85 104 138 180 218 261
#     4   9  17  30  47  66  89 115 141 178 231 280
#
# _framework density 19.893871000000001
#
# number of rings (size 3 to 8) (size 9 to 14) (size 15 to 20)
#    0.000    2.750    1.250    2.250    0.000    2.500 
#    0.000    1.250    0.000    3.000    0.000    0.875 
#    0.000    3.000    0.000    0.125    0.000    0.000 
#
# Total GULP energy -178306.494350 kJ/mol
# GULP energy per Si atom -5572.077948 kJ/mol
# Density = 1.984859 g / cm^3
# Si number density = 19.893871 Si / 1000 Ang^3
#
#
#
# Elastic Constant Matrix: (Units=GPa)
#
#
# Indices 1 2 3 4 5 6 
#
# 1 156.2747 3.9525 37.8885 0.0000 0.0000 0.0000
# 2 3.9525 63.3596 -3.2496 0.0000 0.0000 0.0000
# 3 37.8885 -3.2496 65.2409 0.0000 0.0000 0.0000
# 4 0.0000 0.0000 0.0000 2.2968 0.0000 0.0000
# 5 0.0000 0.0000 0.0000 0.0000 26.3696 0.0000
# 6 0.0000 0.0000 0.0000 0.0000 0.0000 -1.1606
#
#
#
# Elastic Compliance Matrix: (Units=1/GPa)
#
#
# Indices 1 2 3 4 5 6 
#
# 1 0.007478 -0.000691 -0.004377 0.000000 0.000000 0.000000
# 2 -0.000691 0.015887 0.001193 0.000000 0.000000 0.000000
# 3 -0.004377 0.001193 0.017929 0.000000 0.000000 0.000000
# 4 0.000000 0.000000 0.000000 0.435393 0.000000 0.000000
# 5 0.000000 0.000000 0.000000 0.000000 0.037922 0.000000
# 6 0.000000 0.000000 0.000000 0.000000 0.000000 -0.861631
#
#
# Mechanical properties :
#
#
# Convention : Reuss Voigt Hill
#
# Bulk Modulus (GPa) = 29.81229 40.22867 35.02048
# Shear Modulus (GPa) = -15.23972 21.92008 3.34018
#
# Velocity S-wave (km/s) = -2.77077 3.32302 1.29717
# Velocity P-wave (km/s) = 2.18678 5.91513 4.45930
#
# Compressibility (1/GPa) = 0.03354321
#
# Stress axis : x y z
#
# Youngs Moduli (GPa) = 133.73141 62.94379 55.77501
#
# Poissons Ratio (x) = 0.04349 0.24413
# Poissons Ratio (y) = 0.09240 -0.06652
# Poissons Ratio (z) = 0.58535 -0.07507
#
# Static dielectric constant tensor:
#      x y z
#    x 1.788670 0.000000 0.000000 
#    y 0.000000 1.771480 0.000000 
#    z 0.000000 0.000000 1.664910 
# 
# From -- ./inp_files/23403.got.cif
#   From: 2010.05.17/outbox.cif.g08.bks.cpg/sg44_12_cif.got.tgz:23403.got - 2010.06.03 19:37:08.
