data_PCOD9373592
_publ_section_title
;
Structure prediction by ZEFSAII (Michael W. Deem and Ramdas Pophale) SiO2 
 PCOD9373592
Probable space group: I M M 2
;
_chemical_formula_sum "Si O2"
_cell_formula_units_Z 64
_cell_length_a 23.099311
_cell_length_b 9.389568
_cell_length_c 13.720393
_cell_angle_alpha 90.000000
_cell_angle_beta 90.000000
_cell_angle_gamma 90.000000
_cell_volume 2975.851044
_symmetry_space_group_name_H-M "I M M 2"
_symmetry_group_IT_number 44
_symmetry_cell_setting 'orthorhombic'
loop_
_space_group_symop_operation_xyz
x,y,z
-x,-y,z
-x,y,z
x,-y,z
1/2+x,1/2+y,1/2+z
1/2-x,1/2-y,1/2+z
1/2-x,1/2+y,1/2+z
1/2+x,1/2-y,1/2+z
loop_
_atom_site_type_symbol
_atom_site_label
_atom_site_fract_x
_atom_site_fract_y
_atom_site_fract_z
Si Si1 0.323408 0.839139 0.177770
Si Si2 0.214626 0.335937 0.184687
Si Si3 0.910723 0.166650 0.944647
Si Si4 0.696519 0.842579 0.411938
Si Si5 0.915408 0.662937 0.130177
Si Si6 0.675971 0.333198 0.877163
Si Si7 0.064757 0.829575 0.720385
Si Si8 0.434378 0.170612 0.856418
O O1 0.268075 0.751244 0.141919
O O2 0.310891 0.847508 0.294356
O O3 0.383845 0.756149 0.169006
O O4 0.326092 0.000000 0.139310
O O5 0.231749 0.500000 0.201546
O O6 0.154652 0.334189 0.126904
O O7 0.194990 0.259821 0.284131
O O8 0.843230 0.211255 0.941152
O O9 0.933412 0.205848 0.836729
O O10 0.918976 0.000000 0.956889
O O11 0.935728 0.247010 0.038196
O O12 0.764206 0.831076 0.437304
O O13 0.675648 0.000000 0.444854
O O14 0.934168 0.500000 0.121056
O O15 0.932039 0.709393 0.240143
O O16 0.665434 0.500000 0.853692
O O17 0.616229 0.259234 0.909541
O O18 0.000000 0.797725 0.684347
O O19 0.074844 0.000000 0.712815
O O20 0.500000 0.196708 0.890804
O O21 0.422709 0.000000 0.861651
#
# Coordination Sequence:
#
# PCOD9373592 Si02
#       8
#     8   8   8   8   8   8   8   8
#     4   9  16  26  42  63  82 101 131 173 216 252
#     4   9  16  27  43  60  79 106 136 167 209 257
#     4  10  19  28  41  60  81 109 145 180 210 241
#     4   8  15  27  41  57  79 104 130 165 211 257
#     4   9  18  30  42  57  81 113 145 175 207 245
#     4   9  16  26  42  63  82 102 132 172 215 251
#     4   9  18  31  43  57  82 115 147 176 207 247
#     4   9  18  31  44  59  82 114 148 176 205 246
#
# _framework density 21.506453
#
# number of rings (size 3 to 8) (size 9 to 14) (size 15 to 20)
#    0.000    3.000    0.000    3.000    0.000    7.500 
#    0.000    0.000    0.000    0.000    0.000    0.000 
#    0.000    1.000    0.000    5.500    0.000    4.375 
#
# Total GULP energy -178374.034618 kJ/mol
# GULP energy per Si atom -5574.188582 kJ/mol
# Density = 2.145750 g / cm^3
# Si number density = 21.506453 Si / 1000 Ang^3
#
#
#
# Elastic Constant Matrix: (Units=GPa)
#
#
# Indices 1 2 3 4 5 6 
#
# 1 177.1022 62.7644 -10.6337 0.0000 0.0000 0.0000
# 2 62.7644 87.2924 9.3807 0.0000 0.0000 0.0000
# 3 -10.6337 9.3807 28.5810 0.0000 0.0000 0.0000
# 4 0.0000 0.0000 0.0000 10.2858 0.0000 0.0000
# 5 0.0000 0.0000 0.0000 0.0000 -12.7491 0.0000
# 6 0.0000 0.0000 0.0000 0.0000 0.0000 4.6753
#
#
#
# Elastic Compliance Matrix: (Units=1/GPa)
#
#
# Indices 1 2 3 4 5 6 
#
# 1 0.008263 -0.006501 0.005208 0.000000 0.000000 0.000000
# 2 -0.006501 0.016989 -0.007995 0.000000 0.000000 0.000000
# 3 0.005208 -0.007995 0.039550 0.000000 0.000000 0.000000
# 4 0.000000 0.000000 0.000000 0.097222 0.000000 0.000000
# 5 0.000000 0.000000 0.000000 0.000000 -0.078437 0.000000
# 6 0.000000 0.000000 0.000000 0.000000 0.000000 0.213890
#
#
# Mechanical properties :
#
#
# Convention : Reuss Voigt Hill
#
# Bulk Modulus (GPa) = 21.63249 46.22203 33.92726
# Shear Modulus (GPa) = 15.08475 15.87335 15.47905
#
# Velocity S-wave (km/s) = 2.65128 2.71970 2.68571
# Velocity P-wave (km/s) = 4.41053 5.60368 5.04252
#
# Compressibility (1/GPa) = 0.04622677
#
# Stress axis : x y z
#
# Youngs Moduli (GPa) = 121.02049 58.86118 25.28451
#
# Poissons Ratio (x) = 0.38265 -0.13168
# Poissons Ratio (y) = 0.78674 0.20214
# Poissons Ratio (z) = -0.63028 0.47058
#
# Static dielectric constant tensor:
#      x y z
#    x 1.824700 0.000000 0.000000 
#    y 0.000000 1.756330 0.000000 
#    z 0.000000 0.000000 1.831830 
# 
# From -- ./inp_files/22346.got.cif
#   From: 2010.05.17/outbox.cif.g08.bks.cpg/sg44_12_cif.got.tgz:22346.got - 2010.06.03 19:37:08.
