data_PCOD9373089
_publ_section_title
;
Structure prediction by ZEFSAII (Michael W. Deem and Ramdas Pophale) SiO2 
 PCOD9373089
Probable space group: I M M 2
;
_chemical_formula_sum "Si O2"
_cell_formula_units_Z 58
_cell_length_a 16.273444
_cell_length_b 7.284511
_cell_length_c 19.362114
_cell_angle_alpha 90.000000
_cell_angle_beta 90.000000
_cell_angle_gamma 90.000000
_cell_volume 2295.264026
_symmetry_space_group_name_H-M "I M M 2"
_symmetry_group_IT_number 44
_symmetry_cell_setting 'orthorhombic'
loop_
_space_group_symop_operation_xyz
x,y,z
-x,-y,z
-x,y,z
x,-y,z
1/2+x,1/2+y,1/2+z
1/2-x,1/2-y,1/2+z
1/2-x,1/2+y,1/2+z
1/2+x,1/2-y,1/2+z
loop_
_atom_site_type_symbol
_atom_site_label
_atom_site_fract_x
_atom_site_fract_y
_atom_site_fract_z
Si Si1 0.500000 0.000000 0.452170
Si Si2 0.586985 0.718503 0.761055
Si Si3 0.092499 0.721399 0.726423
Si Si4 0.409924 0.223011 0.000280
Si Si5 0.409546 0.720456 0.597789
Si Si6 0.876491 0.784960 0.888417
Si Si7 0.724237 0.777098 0.112869
Si Si8 0.694577 0.210004 0.879234
O O1 0.429504 0.160280 0.438014
O O2 0.500000 0.789244 0.789648
O O3 0.588378 0.500000 0.768515
O O4 0.587654 0.754517 0.680239
O O5 0.665315 0.788136 0.800928
O O6 0.092713 0.500000 0.721847
O O7 0.098182 0.770356 0.807505
O O8 0.173219 0.781707 0.682332
O O9 0.000000 0.779411 0.701833
O O10 0.500000 0.291268 0.017042
O O11 0.340136 0.272518 0.053910
O O12 0.414787 0.000000 0.001966
O O13 0.378593 0.285673 0.925564
O O14 0.500000 0.796076 0.572247
O O15 0.411945 0.500000 0.585213
O O16 0.315193 0.783906 0.586611
O O17 0.783596 0.712363 0.890122
O O18 0.882547 0.000000 0.907754
O O19 0.732269 0.000000 0.119008
O O20 0.703777 0.000000 0.901254
#
# Coordination Sequence:
#
# PCOD9373089 Si02
#       8
#     2   8   8   8   8   8   8   8
#     4  12  22  40  60  82 114 156 190 232 300 344
#     4   9  17  29  48  75 105 139 179 224 277 339
#     4  10  17  29  49  79 112 144 180 226 284 345
#     4   9  17  31  48  71 105 146 188 238 287 339
#     4   8  14  25  41  66  99 130 168 225 281 329
#     4  11  22  36  56  85 117 152 190 237 288 354
#     4   9  16  25  46  74 102 142 194 235 279 342
#     4  10  21  33  50  75 108 143 183 230 286 342
#
# _framework density 25.269423
#
# number of rings (size 3 to 8) (size 9 to 14) (size 15 to 20)
#    0.000    2.483    1.379    2.690    0.966    3.586 
#    0.000    0.000    1.517    0.828    0.000    0.000 
#    0.000    0.000    0.000    0.000    0.000    0.000 
#
# Total GULP energy -161637.664923 kJ/mol
# GULP energy per Si atom -5573.712584 kJ/mol
# Density = 2.521191 g / cm^3
# Si number density = 25.269423 Si / 1000 Ang^3
#
#
#
# Elastic Constant Matrix: (Units=GPa)
#
#
# Indices 1 2 3 4 5 6 
#
# 1 257.7207 15.1625 36.0019 0.0000 0.0000 0.0000
# 2 15.1625 112.0555 -13.8048 0.0000 0.0000 0.0000
# 3 36.0019 -13.8048 59.3619 0.0000 0.0000 0.0000
# 4 0.0000 0.0000 0.0000 308.0252 0.0000 0.0000
# 5 0.0000 0.0000 0.0000 0.0000 40.4621 0.0000
# 6 0.0000 0.0000 0.0000 0.0000 0.0000 3.7273
#
#
#
# Elastic Compliance Matrix: (Units=1/GPa)
#
#
# Indices 1 2 3 4 5 6 
#
# 1 0.004333 -0.000937 -0.002846 0.000000 0.000000 0.000000
# 2 -0.000937 0.009390 0.002752 0.000000 0.000000 0.000000
# 3 -0.002846 0.002752 0.019212 0.000000 0.000000 0.000000
# 4 0.000000 0.000000 0.000000 0.003246 0.000000 0.000000
# 5 0.000000 0.000000 0.000000 0.000000 0.024714 0.000000
# 6 0.000000 0.000000 0.000000 0.000000 0.000000 0.268292
#
#
# Mechanical properties :
#
#
# Convention : Reuss Voigt Hill
#
# Bulk Modulus (GPa) = 32.39070 55.98414 44.18742
# Shear Modulus (GPa) = 14.63959 96.56149 55.60054
#
# Velocity S-wave (km/s) = 2.40956 6.18835 4.69583
# Velocity P-wave (km/s) = 4.53732 8.55944 6.85023
#
# Compressibility (1/GPa) = 0.03087306
#
# Stress axis : x y z
#
# Youngs Moduli (GPa) = 230.79742 106.49703 52.05187
#
# Poissons Ratio (x) = 0.09977 0.14812
# Poissons Ratio (y) = 0.21622 -0.14324
# Poissons Ratio (z) = 0.65677 -0.29306
#
# Static dielectric constant tensor:
#      x y z
#    x 2.020130 0.000000 0.000000 
#    y 0.000000 1.844590 0.000000 
#    z 0.000000 0.000000 2.019550 
# 
# From -- ./inp_files/25740.got.cif
#   From: 2010.05.17/outbox.cif.g08.bks.cpg/sg44_13_cif.got.tgz:25740.got - 2010.06.03 19:37:08.
