data_PCOD9373028
_publ_section_title
;
Structure prediction by ZEFSAII (Michael W. Deem and Ramdas Pophale) SiO2 
 PCOD9373028
Probable space group: I M M 2
;
_chemical_formula_sum "Si O2"
_cell_formula_units_Z 64
_cell_length_a 24.332519
_cell_length_b 7.417684
_cell_length_c 19.863858
_cell_angle_alpha 90.000000
_cell_angle_beta 90.000000
_cell_angle_gamma 90.000000
_cell_volume 3585.246340
_symmetry_space_group_name_H-M "I M M 2"
_symmetry_group_IT_number 44
_symmetry_cell_setting 'orthorhombic'
loop_
_space_group_symop_operation_xyz
x,y,z
-x,-y,z
-x,y,z
x,-y,z
1/2+x,1/2+y,1/2+z
1/2-x,1/2-y,1/2+z
1/2-x,1/2+y,1/2+z
1/2+x,1/2-y,1/2+z
loop_
_atom_site_type_symbol
_atom_site_label
_atom_site_fract_x
_atom_site_fract_y
_atom_site_fract_z
Si Si1 0.438473 0.286665 0.777870
Si Si2 0.229809 0.780828 0.069946
Si Si3 0.881103 0.282618 0.419557
Si Si4 0.562841 0.220404 0.059193
Si Si5 0.744445 0.785607 0.924148
Si Si6 0.165548 0.220538 0.197832
Si Si7 0.774154 0.715576 0.776915
Si Si8 0.660496 0.219243 0.151365
O O1 0.500000 0.211524 0.772696
O O2 0.442119 0.500000 0.764833
O O3 0.414655 0.266313 0.853033
O O4 0.392275 0.214897 0.726809
O O5 0.228472 0.717331 0.993142
O O6 0.227839 0.000000 0.070051
O O7 0.183398 0.722578 0.122946
O O8 0.288842 0.731945 0.102195
O O9 0.879301 0.500000 0.421842
O O10 0.911063 0.222882 0.487830
O O11 0.818131 0.215903 0.416416
O O12 0.500000 0.278997 0.065968
O O13 0.562736 0.000000 0.059029
O O14 0.603602 0.279661 0.118738
O O15 0.777201 0.756796 0.855372
O O16 0.739206 0.000000 0.932648
O O17 0.215328 0.278216 0.247228
O O18 0.165010 0.000000 0.198925
O O19 0.773467 0.500000 0.770960
O O20 0.821426 0.780160 0.725814
O O21 0.658770 0.000000 0.152091
#
# Coordination Sequence:
#
# PCOD9373028 Si02
#       8
#     8   8   8   8   8   8   8   8
#     4  10  19  29  41  58  81 108 138 167 192 227
#     4   8  13  23  39  56  76 101 131 164 196 232
#     4  10  18  27  39  59  86 110 133 160 191 232
#     4   9  15  23  37  58  83 107 134 167 196 224
#     4  10  17  25  41  63  83 105 132 163 196 235
#     4   8  14  25  40  57  75 101 134 164 196 229
#     4   9  16  26  42  58  78 106 133 162 199 241
#     4   8  13  23  38  57  76 101 136 167 195 228
#
# _framework density 17.850936000000001
#
# number of rings (size 3 to 8) (size 9 to 14) (size 15 to 20)
#    0.000    3.000    2.500    1.875    0.000    0.750 
#    0.000    0.000    0.000    4.500    0.000    0.875 
#    0.000    1.000    0.000    0.000    0.000    0.000 
#
# Total GULP energy -178421.671813 kJ/mol
# GULP energy per Si atom -5575.677244 kJ/mol
# Density = 1.781031 g / cm^3
# Si number density = 17.850936 Si / 1000 Ang^3
#
#
#
# Elastic Constant Matrix: (Units=GPa)
#
#
# Indices 1 2 3 4 5 6 
#
# 1 121.5174 4.0759 91.6768 0.0000 0.0000 0.0000
# 2 4.0759 55.8347 -0.8479 0.0000 0.0000 0.0000
# 3 91.6768 -0.8479 173.3770 0.0000 0.0000 0.0000
# 4 0.0000 0.0000 0.0000 13.8215 0.0000 0.0000
# 5 0.0000 0.0000 0.0000 0.0000 22.1606 0.0000
# 6 0.0000 0.0000 0.0000 0.0000 0.0000 1.1540
#
#
#
# Elastic Compliance Matrix: (Units=1/GPa)
#
#
# Indices 1 2 3 4 5 6 
#
# 1 0.013760 -0.001115 -0.007281 0.000000 0.000000 0.000000
# 2 -0.001115 0.018002 0.000678 0.000000 0.000000 0.000000
# 3 -0.007281 0.000678 0.009621 0.000000 0.000000 0.000000
# 4 0.000000 0.000000 0.000000 0.072351 0.000000 0.000000
# 5 0.000000 0.000000 0.000000 0.000000 0.045125 0.000000
# 6 0.000000 0.000000 0.000000 0.000000 0.000000 0.866549
#
#
# Mechanical properties :
#
#
# Convention : Reuss Voigt Hill
#
# Bulk Modulus (GPa) = 38.54241 60.05985 49.30113
# Shear Modulus (GPa) = 4.76420 24.48217 14.62318
#
# Velocity S-wave (km/s) = 1.63544 3.70736 2.86524
# Velocity P-wave (km/s) = 5.02039 7.21418 6.21485
#
# Compressibility (1/GPa) = 0.02594545
#
# Stress axis : x y z
#
# Youngs Moduli (GPa) = 72.67475 55.55032 103.93666
#
# Poissons Ratio (x) = 0.06194 0.75680
# Poissons Ratio (y) = 0.08103 -0.07043
# Poissons Ratio (z) = 0.52917 -0.03764
#
# Static dielectric constant tensor:
#      x y z
#    x 1.596530 0.000000 0.000000 
#    y 0.000000 1.707460 0.000000 
#    z 0.000000 0.000000 1.620920 
# 
# From -- ./inp_files/20894.got.cif
#   From: 2010.05.17/outbox.cif.g08.bks.cpg/sg44_11_cif.got.tgz:20894.got - 2010.06.03 19:37:08.
