data_PCOD9373014
_publ_section_title
;
Structure prediction by ZEFSAII (Michael W. Deem and Ramdas Pophale) SiO2 
 PCOD9373014
Probable space group: I M M 2
;
_chemical_formula_sum "Si O2"
_cell_formula_units_Z 46
_cell_length_a 12.320141
_cell_length_b 11.697692
_cell_length_c 17.582904
_cell_angle_alpha 90.000000
_cell_angle_beta 90.000000
_cell_angle_gamma 90.000000
_cell_volume 2533.999153
_symmetry_space_group_name_H-M "I M M 2"
_symmetry_group_IT_number 44
_symmetry_cell_setting 'orthorhombic'
loop_
_space_group_symop_operation_xyz
x,y,z
-x,-y,z
-x,y,z
x,-y,z
1/2+x,1/2+y,1/2+z
1/2-x,1/2-y,1/2+z
1/2-x,1/2+y,1/2+z
1/2+x,1/2-y,1/2+z
loop_
_atom_site_type_symbol
_atom_site_label
_atom_site_fract_x
_atom_site_fract_y
_atom_site_fract_z
Si Si1 0.375597 0.724933 0.891490
Si Si2 0.125725 0.782715 0.672018
Si Si3 0.739114 0.000000 0.645847
Si Si4 0.500000 0.000000 0.583127
Si Si5 0.868234 0.628072 0.530029
Si Si6 0.500000 0.130517 0.431688
Si Si7 0.321288 0.862058 0.315119
Si Si8 0.120761 0.000000 0.496488
O O1 0.500000 0.743727 0.868541
O O2 0.295495 0.696015 0.824075
O O3 0.371491 0.611663 0.944495
O O4 0.338316 0.826859 0.946661
O O5 0.162205 0.717430 0.595300
O O6 0.127254 0.690926 0.739860
O O7 0.000000 0.821255 0.663034
O O8 0.207253 0.888162 0.683989
O O9 0.609539 0.000000 0.633135
O O10 0.788590 0.000000 0.560214
O O11 0.500000 0.891460 0.522608
O O12 0.829164 0.500000 0.545124
O O13 0.000000 0.626790 0.531357
O O14 0.607783 0.175156 0.389652
O O15 0.500000 0.000000 0.402800
O O16 0.311645 0.000000 0.311456
O O17 0.000000 0.000000 0.531042
#
# Coordination Sequence:
#
# PCOD9373014 Si02
#       8
#     8   8   4   2   8   4   8   4
#     4  10  19  32  55  82 109 145 191 245 289 336
#     4  11  22  36  57  84 114 150 188 242 293 350
#     4  12  22  38  58  86 116 150 193 235 296 352
#     4  10  22  38  62  86 114 152 192 252 282 352
#     4   9  18  32  53  82 113 143 183 232 290 342
#     4   8  18  32  56  85 107 139 183 240 283 332
#     4  11  20  35  56  82 115 149 192 238 295 349
#     4  10  16  30  58  88 110 133 184 252 294 324
#
# _framework density 18.153123999999998
#
# number of rings (size 3 to 8) (size 9 to 14) (size 15 to 20)
#    0.261    1.565    3.478    2.348    0.000    0.696 
#    3.130    0.000    0.000    0.000    0.000    1.217 
#    0.000    0.000    0.000    0.000    0.000    0.000 
#
# Total GULP energy -128102.198707 kJ/mol
# GULP energy per Si atom -5569.660813 kJ/mol
# Density = 1.811181 g / cm^3
# Si number density = 18.153124 Si / 1000 Ang^3
#
#
#
# Elastic Constant Matrix: (Units=GPa)
#
#
# Indices 1 2 3 4 5 6 
#
# 1 91.0970 23.2412 20.9688 0.0000 0.0000 0.0000
# 2 23.2412 81.2363 17.8294 0.0000 0.0000 0.0000
# 3 20.9688 17.8294 35.0857 0.0000 0.0000 0.0000
# 4 0.0000 0.0000 0.0000 28.3807 0.0000 0.0000
# 5 0.0000 0.0000 0.0000 0.0000 26.8100 0.0000
# 6 0.0000 0.0000 0.0000 0.0000 0.0000 12.6889
#
#
#
# Elastic Compliance Matrix: (Units=1/GPa)
#
#
# Indices 1 2 3 4 5 6 
#
# 1 0.013094 -0.002283 -0.006665 0.000000 0.000000 0.000000
# 2 -0.002283 0.014253 -0.005878 0.000000 0.000000 0.000000
# 3 -0.006665 -0.005878 0.035472 0.000000 0.000000 0.000000
# 4 0.000000 0.000000 0.000000 0.035235 0.000000 0.000000
# 5 0.000000 0.000000 0.000000 0.000000 0.037299 0.000000
# 6 0.000000 0.000000 0.000000 0.000000 0.000000 0.078809
#
#
# Mechanical properties :
#
#
# Convention : Reuss Voigt Hill
#
# Bulk Modulus (GPa) = 30.15174 36.83308 33.49241
# Shear Modulus (GPa) = 19.61766 23.26790 21.44278
#
# Velocity S-wave (km/s) = 3.29093 3.58405 3.44061
# Velocity P-wave (km/s) = 5.57549 6.12058 5.85438
#
# Compressibility (1/GPa) = 0.03316558
#
# Stress axis : x y z
#
# Youngs Moduli (GPa) = 76.37049 70.15988 28.19099
#
# Poissons Ratio (x) = 0.16019 0.18790
# Poissons Ratio (y) = 0.17437 0.16572
# Poissons Ratio (z) = 0.50904 0.41243
#
# Static dielectric constant tensor:
#      x y z
#    x 1.676170 0.000000 0.000000 
#    y 0.000000 1.623620 0.000000 
#    z 0.000000 0.000000 1.622430 
# 
# From -- ./inp_files/21292.got.cif
#   From: 2010.05.17/outbox.cif.g08.bks.cpg/sg44_11_cif.got.tgz:21292.got - 2010.06.03 19:37:08.
