data_PCOD9373550
_publ_section_title
;
Structure prediction by ZEFSAII (Michael W. Deem and Ramdas Pophale) SiO2 
 PCOD9373550
Probable space group: I M M 2
;
_chemical_formula_sum "Si O2"
_cell_formula_units_Z 48
_cell_length_a 18.885577
_cell_length_b 8.056348
_cell_length_c 15.620210
_cell_angle_alpha 90.000000
_cell_angle_beta 90.000000
_cell_angle_gamma 90.000000
_cell_volume 2376.595903
_symmetry_space_group_name_H-M "I M M 2"
_symmetry_group_IT_number 44
_symmetry_cell_setting 'orthorhombic'
loop_
_space_group_symop_operation_xyz
x,y,z
-x,-y,z
-x,y,z
x,-y,z
1/2+x,1/2+y,1/2+z
1/2-x,1/2-y,1/2+z
1/2-x,1/2+y,1/2+z
1/2+x,1/2-y,1/2+z
loop_
_atom_site_type_symbol
_atom_site_label
_atom_site_fract_x
_atom_site_fract_y
_atom_site_fract_z
Si Si1 0.769621 0.801325 0.453640
Si Si2 0.000000 0.701609 0.058578
Si Si3 0.388677 0.798174 0.698992
Si Si4 0.923376 0.298801 0.388278
Si Si5 0.500000 0.308178 0.365217
Si Si6 0.235992 0.199779 0.648975
Si Si7 0.344282 0.196402 0.311466
O O1 0.850360 0.766556 0.426569
O O2 0.763912 0.737182 0.551339
O O3 0.711505 0.736297 0.384238
O O4 0.758917 0.000000 0.457086
O O5 0.932822 0.750185 0.115958
O O6 0.000000 0.500000 0.047840
O O7 0.000000 0.783180 0.967103
O O8 0.421654 0.747331 0.788666
O O9 0.308574 0.740371 0.692369
O O10 0.389583 0.000000 0.699364
O O11 0.920705 0.500000 0.392180
O O12 0.000000 0.246890 0.425418
O O13 0.500000 0.500000 0.341808
O O14 0.425723 0.233918 0.333064
O O15 0.175142 0.243293 0.716204
O O16 0.238214 0.000000 0.643930
O O17 0.334828 0.000000 0.311745
#
# Coordination Sequence:
#
# PCOD9373550 Si02
#       7
#     8   4   8   8   4   8   8
#     4  10  22  39  61  89 121 158 198 243 301 360
#     4  10  18  34  60  89 120 157 198 241 292 358
#     4   9  16  30  57  86 115 151 192 240 294 351
#     4  10  19  34  58  87 117 154 199 242 288 348
#     4  12  26  42  60  87 120 157 198 247 306 360
#     4  10  20  37  60  86 116 158 203 244 297 358
#     4  11  23  42  65  89 119 158 203 252 298 353
#
# _framework density 20.196954000000002
#
# number of rings (size 3 to 8) (size 9 to 14) (size 15 to 20)
#    0.000    1.833    2.500    2.250    0.000    4.333 
#    1.500    3.333    0.000    0.000    0.000    0.000 
#    0.000    0.000    0.000    0.000    0.000    0.000 
#
# Total GULP energy -133884.950112 kJ/mol
# GULP energy per Si atom -5578.539588 kJ/mol
# Density = 2.015099 g / cm^3
# Si number density = 20.196954 Si / 1000 Ang^3
#
#
#
# Elastic Constant Matrix: (Units=GPa)
#
#
# Indices 1 2 3 4 5 6 
#
# 1 118.4447 -6.7122 41.0685 0.0000 0.0000 0.0000
# 2 -6.7122 14.6752 7.5260 0.0000 0.0000 0.0000
# 3 41.0685 7.5260 92.2973 0.0000 0.0000 0.0000
# 4 0.0000 0.0000 0.0000 24.9932 0.0000 0.0000
# 5 0.0000 0.0000 0.0000 0.0000 694.2475 0.0000
# 6 0.0000 0.0000 0.0000 0.0000 0.0000 19.5523
#
#
#
# Elastic Compliance Matrix: (Units=1/GPa)
#
#
# Indices 1 2 3 4 5 6 
#
# 1 0.010756 0.007696 -0.005413 0.000000 0.000000 0.000000
# 2 0.007696 0.076622 -0.009672 0.000000 0.000000 0.000000
# 3 -0.005413 -0.009672 0.014032 0.000000 0.000000 0.000000
# 4 0.000000 0.000000 0.000000 0.040011 0.000000 0.000000
# 5 0.000000 0.000000 0.000000 0.000000 0.001440 0.000000
# 6 0.000000 0.000000 0.000000 0.000000 0.000000 0.051145
#
#
# Mechanical properties :
#
#
# Convention : Reuss Voigt Hill
#
# Bulk Modulus (GPa) = 11.54331 34.35355 22.94843
# Shear Modulus (GPa) = 21.03824 159.99427 90.51626
#
# Velocity S-wave (km/s) = 3.23097 8.91005 6.70180
# Velocity P-wave (km/s) = 4.43245 11.08595 8.44230
#
# Compressibility (1/GPa) = 0.08663029
#
# Stress axis : x y z
#
# Youngs Moduli (GPa) = 92.97239 13.05108 71.26579
#
# Poissons Ratio (x) = -0.10044 0.38579
# Poissons Ratio (y) = -0.71549 0.68929
# Poissons Ratio (z) = 0.50330 0.12623
#
# Static dielectric constant tensor:
#      x y z
#    x 0.476610 0.000000 0.000000 
#    y 0.000000 1.733230 0.000000 
#    z 0.000000 0.000000 1.708140 
# 
# From -- ./inp_files/16108.got.cif
#   From: 2010.05.17/outbox.cif.g08.bks.cpg/sg44_9_cif.got.tgz:16108.got - 2010.06.03 19:37:08.
