data_PCOD9373216
_publ_section_title
;
Structure prediction by ZEFSAII (Michael W. Deem and Ramdas Pophale) SiO2 
 PCOD9373216
Probable space group: I M M 2
;
_chemical_formula_sum "Si O2"
_cell_formula_units_Z 64
_cell_length_a 7.559927
_cell_length_b 24.176780
_cell_length_c 19.872435
_cell_angle_alpha 90.000000
_cell_angle_beta 90.000000
_cell_angle_gamma 90.000000
_cell_volume 3632.178184
_symmetry_space_group_name_H-M "I M M 2"
_symmetry_group_IT_number 44
_symmetry_cell_setting 'orthorhombic'
loop_
_space_group_symop_operation_xyz
x,y,z
-x,-y,z
-x,y,z
x,-y,z
1/2+x,1/2+y,1/2+z
1/2-x,1/2-y,1/2+z
1/2-x,1/2+y,1/2+z
1/2+x,1/2-y,1/2+z
loop_
_atom_site_type_symbol
_atom_site_label
_atom_site_fract_x
_atom_site_fract_y
_atom_site_fract_z
Si Si1 0.784384 0.880411 0.220900
Si Si2 0.296244 0.224964 0.572056
Si Si3 0.783243 0.248100 0.217631
Si Si4 0.206148 0.166948 0.438092
Si Si5 0.283634 0.437447 0.860635
Si Si6 0.787363 0.062506 0.082944
Si Si7 0.209704 0.665018 0.493928
Si Si8 0.283783 0.223300 0.862880
O O1 0.729634 0.816324 0.222328
O O2 0.731524 0.913139 0.287843
O O3 0.723459 0.910490 0.152928
O O4 0.000000 0.880259 0.220165
O O5 0.500000 0.208905 0.577227
O O6 0.219998 0.226791 0.647070
O O7 0.217601 0.184966 0.515498
O O8 0.287368 0.287427 0.542389
O O9 0.727411 0.279155 0.285597
O O10 0.000000 0.248063 0.215554
O O11 0.276792 0.107564 0.415735
O O12 0.278878 0.218214 0.394506
O O13 0.000000 0.165438 0.419785
O O14 0.500000 0.439715 0.861328
O O15 0.221283 0.500000 0.870534
O O16 0.745842 0.104870 0.023174
O O17 0.000000 0.059956 0.087856
O O18 0.721655 0.000000 0.073893
O O19 0.270492 0.677552 0.417709
O O20 0.000000 0.674693 0.495586
O O21 0.500000 0.223540 0.861943
#
# Coordination Sequence:
#
# PCOD9373216 Si02
#       8
#     8   8   8   8   8   8   8   8
#     4   9  14  23  39  63  91 116 148 184 211 241
#     4  10  18  28  45  65  87 113 145 181 219 264
#     4   9  14  23  42  64  85 111 142 179 217 254
#     4   9  16  27  42  62  89 115 141 177 219 261
#     4   9  15  23  40  65  89 116 152 188 215 245
#     4  10  19  30  45  65  90 120 152 182 211 249
#     4  10  19  30  45  64  88 116 145 181 221 260
#     4   8  14  25  41  61  83 109 141 177 219 255
#
# _framework density 17.620282
#
# number of rings (size 3 to 8) (size 9 to 14) (size 15 to 20)
#    0.000    2.750    2.500    1.875    0.000    1.750 
#    0.000    0.000    0.000   11.625    0.000    0.875 
#    0.000    5.000    0.000    0.000    0.000    0.000 
#
# Total GULP energy -178392.611113 kJ/mol
# GULP energy per Si atom -5574.769097 kJ/mol
# Density = 1.758018 g / cm^3
# Si number density = 17.620282 Si / 1000 Ang^3
#
#
#
# Elastic Constant Matrix: (Units=GPa)
#
#
# Indices 1 2 3 4 5 6 
#
# 1 36.9552 -2.6609 -5.0458 0.0000 0.0000 0.0000
# 2 -2.6609 105.5086 76.2387 0.0000 0.0000 0.0000
# 3 -5.0458 76.2387 159.1845 0.0000 0.0000 0.0000
# 4 0.0000 0.0000 0.0000 20.3054 0.0000 0.0000
# 5 0.0000 0.0000 0.0000 0.0000 11.7657 0.0000
# 6 0.0000 0.0000 0.0000 0.0000 0.0000 12.4404
#
#
#
# Elastic Compliance Matrix: (Units=1/GPa)
#
#
# Indices 1 2 3 4 5 6 
#
# 1 0.027178 0.000096 0.000815 0.000000 0.000000 0.000000
# 2 0.000096 0.014494 -0.006939 0.000000 0.000000 0.000000
# 3 0.000815 -0.006939 0.009631 0.000000 0.000000 0.000000
# 4 0.000000 0.000000 0.000000 0.049248 0.000000 0.000000
# 5 0.000000 0.000000 0.000000 0.000000 0.084993 0.000000
# 6 0.000000 0.000000 0.000000 0.000000 0.000000 0.080384
#
#
# Mechanical properties :
#
#
# Convention : Reuss Voigt Hill
#
# Bulk Modulus (GPa) = 25.47827 48.74580 37.11204
# Shear Modulus (GPa) = 17.17834 24.44339 20.81086
#
# Velocity S-wave (km/s) = 3.12576 3.72859 3.44040
# Velocity P-wave (km/s) = 5.24577 6.80156 6.07369
#
# Compressibility (1/GPa) = 0.03924913
#
# Stress axis : x y z
#
# Youngs Moduli (GPa) = 36.79439 68.99379 103.83137
#
# Poissons Ratio (x) = -0.00664 -0.08466
# Poissons Ratio (y) = -0.00354 0.72045
# Poissons Ratio (z) = -0.03000 0.47872
#
# Static dielectric constant tensor:
#      x y z
#    x 1.689040 0.000000 0.000000 
#    y 0.000000 1.584770 0.000000 
#    z 0.000000 0.000000 1.616360 
# 
# From -- ./inp_files/23443.got.cif
#   From: 2010.05.17/outbox.cif.g08.bks.cpg/sg44_12_cif.got.tgz:23443.got - 2010.06.03 19:37:08.
