data_PCOD9373406
_publ_section_title
;
Structure prediction by ZEFSAII (Michael W. Deem and Ramdas Pophale) SiO2 
 PCOD9373406
Probable space group: I M M 2
;
_chemical_formula_sum "Si O2"
_cell_formula_units_Z 48
_cell_length_a 19.197561
_cell_length_b 7.506658
_cell_length_c 15.384207
_cell_angle_alpha 90.000000
_cell_angle_beta 90.000000
_cell_angle_gamma 90.000000
_cell_volume 2217.010761
_symmetry_space_group_name_H-M "I M M 2"
_symmetry_group_IT_number 44
_symmetry_cell_setting 'orthorhombic'
loop_
_space_group_symop_operation_xyz
x,y,z
-x,-y,z
-x,y,z
x,-y,z
1/2+x,1/2+y,1/2+z
1/2-x,1/2-y,1/2+z
1/2-x,1/2+y,1/2+z
1/2+x,1/2-y,1/2+z
loop_
_atom_site_type_symbol
_atom_site_label
_atom_site_fract_x
_atom_site_fract_y
_atom_site_fract_z
Si Si1 0.273344 0.285188 0.585070
Si Si2 0.348432 0.713536 0.225732
Si Si3 0.500000 0.215192 0.976746
Si Si4 0.891393 0.284653 0.333321
Si Si5 0.575086 0.294045 0.640907
Si Si6 0.500000 0.295064 0.175751
Si Si7 0.261028 0.282725 0.386004
O O1 0.276489 0.500000 0.584455
O O2 0.210260 0.244088 0.651281
O O3 0.349910 0.216908 0.613629
O O4 0.262186 0.224077 0.485906
O O5 0.353851 0.500000 0.230779
O O6 0.425525 0.784577 0.204093
O O7 0.320422 0.777381 0.319271
O O8 0.566219 0.266989 0.918859
O O9 0.500000 0.000000 0.985674
O O10 0.500000 0.293580 0.071617
O O11 0.895311 0.500000 0.327274
O O12 0.922870 0.210957 0.245259
O O13 0.811899 0.230002 0.343142
O O14 0.500000 0.215678 0.612985
O O15 0.574942 0.500000 0.611720
O O16 0.500000 0.500000 0.206723
O O17 0.262581 0.500000 0.387934
#
# Coordination Sequence:
#
# PCOD9373406 Si02
#       7
#     8   8   4   8   8   4   8
#     4  10  20  36  57  80 105 140 182 223 267 320
#     4  10  20  37  57  78 108 143 178 222 269 319
#     4  10  20  32  52  81 106 136 176 219 268 323
#     4  10  18  31  53  77 101 134 177 215 257 316
#     4  10  20  33  50  77 111 138 166 214 272 319
#     4  10  22  36  52  79 110 140 176 219 272 321
#     4   9  18  33  54  77 103 137 178 220 260 310
#
# _framework density 21.650774999999999
#
# number of rings (size 3 to 8) (size 9 to 14) (size 15 to 20)
#    0.000    2.167    2.500    1.000    0.000    2.667 
#    1.500    1.667    0.000    0.000    0.000    0.000 
#    0.000    0.000    0.000    0.000    0.000    0.000 
#
# Total GULP energy -133940.633323 kJ/mol
# GULP energy per Si atom -5580.859722 kJ/mol
# Density = 2.160150 g / cm^3
# Si number density = 21.650775 Si / 1000 Ang^3
#
#
#
# Elastic Constant Matrix: (Units=GPa)
#
#
# Indices 1 2 3 4 5 6 
#
# 1 181.6369 7.6560 45.3619 0.0000 0.0000 0.0000
# 2 7.6560 58.2549 -3.5253 0.0000 0.0000 0.0000
# 3 45.3619 -3.5253 85.6050 0.0000 0.0000 0.0000
# 4 0.0000 0.0000 0.0000 14.4478 0.0000 0.0000
# 5 0.0000 0.0000 0.0000 0.0000 28.9709 0.0000
# 6 0.0000 0.0000 0.0000 0.0000 0.0000 12.5030
#
#
#
# Elastic Compliance Matrix: (Units=1/GPa)
#
#
# Indices 1 2 3 4 5 6 
#
# 1 0.006409 -0.001050 -0.003439 0.000000 0.000000 0.000000
# 2 -0.001050 0.017381 0.001272 0.000000 0.000000 0.000000
# 3 -0.003439 0.001272 0.013556 0.000000 0.000000 0.000000
# 4 0.000000 0.000000 0.000000 0.069215 0.000000 0.000000
# 5 0.000000 0.000000 0.000000 0.000000 0.034517 0.000000
# 6 0.000000 0.000000 0.000000 0.000000 0.000000 0.079981
#
#
# Mechanical properties :
#
#
# Convention : Reuss Voigt Hill
#
# Bulk Modulus (GPa) = 32.35033 47.16467 39.75750
# Shear Modulus (GPa) = 21.02633 29.58463 25.30548
#
# Velocity S-wave (km/s) = 3.11972 3.70056 3.42248
# Velocity P-wave (km/s) = 5.28689 6.33170 5.83274
#
# Compressibility (1/GPa) = 0.03091158
#
# Stress axis : x y z
#
# Youngs Moduli (GPa) = 156.03876 57.53422 73.76600
#
# Poissons Ratio (x) = 0.06043 0.25370
# Poissons Ratio (y) = 0.16390 -0.09386
# Poissons Ratio (z) = 0.53665 -0.07320
#
# Static dielectric constant tensor:
#      x y z
#    x 1.821470 0.000000 0.000000 
#    y 0.000000 1.850860 0.000000 
#    z 0.000000 0.000000 1.738700 
# 
# From -- ./inp_files/16175.got.cif
#   From: 2010.05.17/outbox.cif.g08.bks.cpg/sg44_9_cif.got.tgz:16175.got - 2010.06.03 19:37:08.
