data_PCOD9373647
_publ_section_title
;
Structure prediction by ZEFSAII (Michael W. Deem and Ramdas Pophale) SiO2 
 PCOD9373647
Probable space group: I M M 2
;
_chemical_formula_sum "Si O2"
_cell_formula_units_Z 64
_cell_length_a 34.136473
_cell_length_b 8.983064
_cell_length_c 12.010747
_cell_angle_alpha 90.000000
_cell_angle_beta 90.000000
_cell_angle_gamma 90.000000
_cell_volume 3683.097029
_symmetry_space_group_name_H-M "I M M 2"
_symmetry_group_IT_number 44
_symmetry_cell_setting 'orthorhombic'
loop_
_space_group_symop_operation_xyz
x,y,z
-x,-y,z
-x,y,z
x,-y,z
1/2+x,1/2+y,1/2+z
1/2-x,1/2-y,1/2+z
1/2-x,1/2+y,1/2+z
1/2+x,1/2-y,1/2+z
loop_
_atom_site_type_symbol
_atom_site_label
_atom_site_fract_x
_atom_site_fract_y
_atom_site_fract_z
Si Si1 0.454916 0.322524 0.790290
Si Si2 0.728147 0.822492 0.480941
Si Si3 0.107815 0.169762 0.931139
Si Si4 0.182452 0.178160 0.525397
Si Si5 0.667586 0.672778 0.640187
Si Si6 0.679364 0.677922 0.285086
Si Si7 0.954745 0.668197 0.055310
Si Si8 0.874738 0.677672 0.351788
O O1 0.500000 0.280508 0.821214
O O2 0.451115 0.500000 0.801688
O O3 0.450038 0.276299 0.660859
O O4 0.418975 0.242192 0.851266
O O5 0.774169 0.788586 0.479722
O O6 0.706078 0.747064 0.586052
O O7 0.708177 0.762816 0.368455
O O8 0.723112 0.000000 0.489918
O O9 0.135429 0.208335 0.828023
O O10 0.093739 0.000000 0.919940
O O11 0.136244 0.175606 0.039111
O O12 0.072804 0.279673 0.956564
O O13 0.183380 0.214608 0.656256
O O14 0.149573 0.265352 0.457846
O O15 0.175621 0.000000 0.514466
O O16 0.674836 0.500000 0.669747
O O17 0.648495 0.757360 0.744139
O O18 0.685933 0.500000 0.299903
O O19 0.944795 0.500000 0.091380
O O20 0.000000 0.671751 0.022564
O O21 0.875734 0.500000 0.345919
#
# Coordination Sequence:
#
# PCOD9373647 Si02
#       8
#     8   8   8   8   8   8   8   8
#     4  10  20  35  56  81 113 151 187 228 282 345
#     4  10  21  36  57  85 111 142 185 234 284 332
#     4   9  17  31  53  76 101 141 182 220 267 322
#     4  10  23  41  58  79 110 149 190 233 282 337
#     4  10  20  35  55  79 111 148 184 224 275 334
#     4   9  20  39  58  76 105 147 188 228 276 332
#     4  10  19  29  46  77 113 144 175 219 275 331
#     4  12  24  36  56  85 116 149 188 237 287 337
#
# _framework density 17.37668
#
# number of rings (size 3 to 8) (size 9 to 14) (size 15 to 20)
#    0.000    2.000    1.250    3.375    1.750    5.000 
#    0.000    0.000    0.000    0.750    0.000    1.750 
#    0.000    0.000    0.000    0.000    0.000    0.000 
#
# Total GULP energy -178594.556289 kJ/mol
# GULP energy per Si atom -5581.079884 kJ/mol
# Density = 1.733713 g / cm^3
# Si number density = 17.376680 Si / 1000 Ang^3
#
#
#
# Elastic Constant Matrix: (Units=GPa)
#
#
# Indices 1 2 3 4 5 6 
#
# 1 119.3192 70.6348 50.5125 0.0000 0.0000 0.0000
# 2 70.6348 89.7893 40.8940 0.0000 0.0000 0.0000
# 3 50.5125 40.8940 69.9051 0.0000 0.0000 0.0000
# 4 0.0000 0.0000 0.0000 22.1073 0.0000 0.0000
# 5 0.0000 0.0000 0.0000 0.0000 21.6289 0.0000
# 6 0.0000 0.0000 0.0000 0.0000 0.0000 28.9575
#
#
#
# Elastic Compliance Matrix: (Units=1/GPa)
#
#
# Indices 1 2 3 4 5 6 
#
# 1 0.017485 -0.010907 -0.006254 0.000000 0.000000 0.000000
# 2 -0.010907 0.021985 -0.004980 0.000000 0.000000 0.000000
# 3 -0.006254 -0.004980 0.021738 0.000000 0.000000 0.000000
# 4 0.000000 0.000000 0.000000 0.045234 0.000000 0.000000
# 5 0.000000 0.000000 0.000000 0.000000 0.046234 0.000000
# 6 0.000000 0.000000 0.000000 0.000000 0.000000 0.034533
#
#
# Mechanical properties :
#
#
# Convention : Reuss Voigt Hill
#
# Bulk Modulus (GPa) = 59.08081 67.01070 63.04575
# Shear Modulus (GPa) = 21.08512 22.33689 21.71101
#
# Velocity S-wave (km/s) = 3.48719 3.58921 3.53857
# Velocity P-wave (km/s) = 7.09139 7.47154 7.28395
#
# Compressibility (1/GPa) = 0.01692597
#
# Stress axis : x y z
#
# Youngs Moduli (GPa) = 57.19183 45.48483 46.00287
#
# Poissons Ratio (x) = 0.49608 0.28771
# Poissons Ratio (y) = 0.62377 0.22911
# Poissons Ratio (z) = 0.35769 0.22653
#
# Static dielectric constant tensor:
#      x y z
#    x 1.600120 0.000000 0.000000 
#    y 0.000000 1.590880 0.000000 
#    z 0.000000 0.000000 1.568170 
# 
# From -- ./inp_files/15081.got.cif
#   From: 2010.05.17/outbox.cif.g08.bks.cpg/sg44_8_cif.got.tgz:15081.got - 2010.06.03 19:37:08.
