data_PCOD9373319
_publ_section_title
;
Structure prediction by ZEFSAII (Michael W. Deem and Ramdas Pophale) SiO2 
 PCOD9373319
Probable space group: I M M 2
;
_chemical_formula_sum "Si O2"
_cell_formula_units_Z 64
_cell_length_a 23.971643
_cell_length_b 8.806007
_cell_length_c 19.653886
_cell_angle_alpha 90.000000
_cell_angle_beta 90.000000
_cell_angle_gamma 90.000000
_cell_volume 4148.826375
_symmetry_space_group_name_H-M "I M M 2"
_symmetry_group_IT_number 44
_symmetry_cell_setting 'orthorhombic'
loop_
_space_group_symop_operation_xyz
x,y,z
-x,-y,z
-x,y,z
x,-y,z
1/2+x,1/2+y,1/2+z
1/2-x,1/2-y,1/2+z
1/2-x,1/2+y,1/2+z
1/2+x,1/2-y,1/2+z
loop_
_atom_site_type_symbol
_atom_site_label
_atom_site_fract_x
_atom_site_fract_y
_atom_site_fract_z
Si Si1 0.332250 0.317783 0.902050
Si Si2 0.436827 0.684934 0.988314
Si Si3 0.749235 0.683002 0.125538
Si Si4 0.841708 0.181841 0.856102
Si Si5 0.227549 0.317395 0.277435
Si Si6 0.728445 0.318252 0.484226
Si Si7 0.381747 0.316681 0.131320
Si Si8 0.064261 0.681604 0.767293
O O1 0.329479 0.500000 0.903507
O O2 0.317003 0.258188 0.827333
O O3 0.284397 0.253542 0.951985
O O4 0.392070 0.268649 0.931447
O O5 0.500000 0.738187 0.977886
O O6 0.437655 0.500000 0.988177
O O7 0.413389 0.729806 0.062384
O O8 0.751953 0.500000 0.119305
O O9 0.774609 0.726395 0.198551
O O10 0.683508 0.724819 0.126448
O O11 0.777481 0.758001 0.060332
O O12 0.788999 0.220816 0.807321
O O13 0.821349 0.221849 0.932028
O O14 0.896481 0.261294 0.828164
O O15 0.849032 0.000000 0.852089
O O16 0.222455 0.500000 0.282448
O O17 0.734085 0.500000 0.483347
O O18 0.384239 0.500000 0.136745
O O19 0.410207 0.247320 0.197599
O O20 0.065813 0.500000 0.764403
O O21 0.000000 0.730807 0.774637
#
# Coordination Sequence:
#
# PCOD9373319 Si02
#       8
#     8   8   8   8   8   8   8   8
#     4  10  18  30  47  68  93 123 161 199 234 278
#     4   9  17  29  46  67  91 123 162 198 226 261
#     4  10  18  31  50  72  96 124 158 193 232 284
#     4   9  18  34  50  66  90 125 163 195 230 280
#     4   9  18  32  48  68  96 123 154 197 238 278
#     4  10  20  32  48  70  97 123 153 196 242 286
#     4  10  18  32  49  66  93 130 169 195 222 276
#     4  11  23  34  45  68  99 127 161 204 242 276
#
# _framework density 15.426049000000001
#
# number of rings (size 3 to 8) (size 9 to 14) (size 15 to 20)
#    0.000    2.250    2.500    2.250    0.000    5.000 
#    0.000    0.000    0.000    2.250    0.000    0.875 
#    0.000    3.000    0.000    0.000    0.000    0.000 
#
# Total GULP energy -178477.091253 kJ/mol
# GULP energy per Si atom -5577.409102 kJ/mol
# Density = 1.539094 g / cm^3
# Si number density = 15.426049 Si / 1000 Ang^3
#
#
#
# Elastic Constant Matrix: (Units=GPa)
#
#
# Indices 1 2 3 4 5 6 
#
# 1 95.0859 27.5781 70.5832 0.0000 0.0000 0.0000
# 2 27.5781 23.0072 38.9001 0.0000 0.0000 0.0000
# 3 70.5832 38.9001 148.8289 0.0000 0.0000 0.0000
# 4 0.0000 0.0000 0.0000 28.2465 0.0000 0.0000
# 5 0.0000 0.0000 0.0000 0.0000 19.6143 0.0000
# 6 0.0000 0.0000 0.0000 0.0000 0.0000 17.9346
#
#
#
# Elastic Compliance Matrix: (Units=1/GPa)
#
#
# Indices 1 2 3 4 5 6 
#
# 1 0.018142 -0.012900 -0.005232 0.000000 0.000000 0.000000
# 2 -0.012900 0.087056 -0.016636 0.000000 0.000000 0.000000
# 3 -0.005232 -0.016636 0.013549 0.000000 0.000000 0.000000
# 4 0.000000 0.000000 0.000000 0.035403 0.000000 0.000000
# 5 0.000000 0.000000 0.000000 0.000000 0.050983 0.000000
# 6 0.000000 0.000000 0.000000 0.000000 0.000000 0.055758
#
#
# Mechanical properties :
#
#
# Convention : Reuss Voigt Hill
#
# Bulk Modulus (GPa) = 20.32114 60.11608 40.21861
# Shear Modulus (GPa) = 14.41623 21.81644 18.11634
#
# Velocity S-wave (km/s) = 3.06034 3.76474 3.43067
# Velocity P-wave (km/s) = 5.06847 7.61268 6.46693
#
# Compressibility (1/GPa) = 0.04920983
#
# Stress axis : x y z
#
# Youngs Moduli (GPa) = 55.11992 11.48691 73.80645
#
# Poissons Ratio (x) = 0.14818 0.38619
# Poissons Ratio (y) = 0.71103 1.22787
# Poissons Ratio (z) = 0.28841 0.19110
#
# Static dielectric constant tensor:
#      x y z
#    x 1.497940 0.000000 0.000000 
#    y 0.000000 1.521190 0.000000 
#    z 0.000000 0.000000 1.515130 
# 
# From -- ./inp_files/20845.got.cif
#   From: 2010.05.17/outbox.cif.g08.bks.cpg/sg44_11_cif.got.tgz:20845.got - 2010.06.03 19:37:08.
