data_PCOD9373062
_publ_section_title
;
Structure prediction by ZEFSAII (Michael W. Deem and Ramdas Pophale) SiO2 
 PCOD9373062
Probable space group: I M M 2
;
_chemical_formula_sum "Si O2"
_cell_formula_units_Z 64
_cell_length_a 7.498654
_cell_length_b 15.394632
_cell_length_c 28.438647
_cell_angle_alpha 90.000000
_cell_angle_beta 90.000000
_cell_angle_gamma 90.000000
_cell_volume 3282.929506
_symmetry_space_group_name_H-M "I M M 2"
_symmetry_group_IT_number 44
_symmetry_cell_setting 'orthorhombic'
loop_
_space_group_symop_operation_xyz
x,y,z
-x,-y,z
-x,y,z
x,-y,z
1/2+x,1/2+y,1/2+z
1/2-x,1/2-y,1/2+z
1/2-x,1/2+y,1/2+z
1/2+x,1/2-y,1/2+z
loop_
_atom_site_type_symbol
_atom_site_label
_atom_site_fract_x
_atom_site_fract_y
_atom_site_fract_z
Si Si1 0.286619 0.598890 0.790870
Si Si2 0.214182 0.402977 0.062592
Si Si3 0.287597 0.725771 0.146285
Si Si4 0.208415 0.273920 0.875628
Si Si5 0.217307 0.902251 0.726389
Si Si6 0.781961 0.902206 0.834472
Si Si7 0.718028 0.901981 0.454969
Si Si8 0.288452 0.096723 0.181849
O O1 0.500000 0.599030 0.793460
O O2 0.223793 0.500000 0.801255
O O3 0.219184 0.668184 0.828416
O O4 0.234719 0.618890 0.737116
O O5 0.277864 0.500000 0.077128
O O6 0.261698 0.327554 0.098638
O O7 0.000000 0.406767 0.061478
O O8 0.273409 0.387054 0.008924
O O9 0.500000 0.732070 0.153348
O O10 0.216539 0.667413 0.189202
O O11 0.216842 0.823669 0.150969
O O12 0.282919 0.178335 0.865356
O O13 0.284346 0.330936 0.918165
O O14 0.000000 0.261239 0.886561
O O15 0.271433 0.886704 0.780189
O O16 0.000000 0.900759 0.725994
O O17 0.271411 0.000000 0.712966
O O18 0.000000 0.901483 0.834911
O O19 0.727033 0.000000 0.847912
O O20 0.500000 0.901180 0.454171
O O21 0.771730 0.000000 0.441301
O O22 0.500000 0.090470 0.173258
O O23 0.212303 0.000000 0.174422
#
# Coordination Sequence:
#
# PCOD9373062 Si02
#       8
#     8   8   8   8   8   8   8   8
#     4  10  20  31  43  65  98 127 148 179 226 272
#     4   9  18  32  47  64  90 121 149 181 227 281
#     4  10  18  28  46  69  88 111 149 192 227 260
#     4  10  17  27  48  70  87 117 159 193 222 263
#     4   8  13  21  34  56  87 114 133 162 208 256
#     4   8  14  24  39  63  92 116 141 179 222 256
#     4   8  15  28  45  65  88 115 149 187 226 271
#     4   9  18  32  48  66  90 121 156 189 218 257
#
# _framework density 19.494783999999999
#
# number of rings (size 3 to 8) (size 9 to 14) (size 15 to 20)
#    0.000    3.000    0.000    3.375    0.000    4.500 
#    0.000    0.625    0.000    1.875    0.000    1.750 
#    0.000    0.000    0.000    0.000    0.000    0.000 
#
# Total GULP energy -178505.437371 kJ/mol
# GULP energy per Si atom -5578.294918 kJ/mol
# Density = 1.945041 g / cm^3
# Si number density = 19.494784 Si / 1000 Ang^3
#
#
#
# Elastic Constant Matrix: (Units=GPa)
#
#
# Indices 1 2 3 4 5 6 
#
# 1 53.3439 5.4480 -2.0908 0.0000 0.0000 0.0000
# 2 5.4480 186.3050 112.5305 0.0000 0.0000 0.0000
# 3 -2.0908 112.5305 92.7232 0.0000 0.0000 0.0000
# 4 0.0000 0.0000 0.0000 39.8365 0.0000 0.0000
# 5 0.0000 0.0000 0.0000 0.0000 7.1128 0.0000
# 6 0.0000 0.0000 0.0000 0.0000 0.0000 2.2618
#
#
#
# Elastic Compliance Matrix: (Units=1/GPa)
#
#
# Indices 1 2 3 4 5 6 
#
# 1 0.019225 -0.003087 0.004180 0.000000 0.000000 0.000000
# 2 -0.003087 0.020602 -0.025072 0.000000 0.000000 0.000000
# 3 0.004180 -0.025072 0.041307 0.000000 0.000000 0.000000
# 4 0.000000 0.000000 0.000000 0.025103 0.000000 0.000000
# 5 0.000000 0.000000 0.000000 0.000000 0.140591 0.000000
# 6 0.000000 0.000000 0.000000 0.000000 0.000000 0.442121
#
#
# Mechanical properties :
#
#
# Convention : Reuss Voigt Hill
#
# Bulk Modulus (GPa) = 30.14270 62.68304 46.41287
# Shear Modulus (GPa) = 6.68479 24.27452 15.47966
#
# Velocity S-wave (km/s) = 1.85377 3.53254 2.82093
# Velocity P-wave (km/s) = 4.48079 6.99014 5.87109
#
# Compressibility (1/GPa) = 0.03317552
#
# Stress axis : x y z
#
# Youngs Moduli (GPa) = 52.01467 48.53960 24.20889
#
# Poissons Ratio (x) = 0.14983 -0.10118
# Poissons Ratio (y) = 0.16055 0.60697
# Poissons Ratio (z) = -0.21740 1.21700
#
# Static dielectric constant tensor:
#      x y z
#    x 1.767580 0.000000 0.000000 
#    y 0.000000 1.711940 0.000000 
#    z 0.000000 0.000000 1.649690 
# 
# From -- ./inp_files/27338.got.cif
#   From: 2010.05.17/outbox.cif.g08.bks.cpg/sg44_14_cif.got.tgz:27338.got - 2010.06.03 19:37:08.
