data_PCOD9373007
_publ_section_title
;
Structure prediction by ZEFSAII (Michael W. Deem and Ramdas Pophale) SiO2 
 PCOD9373007
Probable space group: I M M 2
;
_chemical_formula_sum "Si O2"
_cell_formula_units_Z 40
_cell_length_a 7.409447
_cell_length_b 12.158871
_cell_length_c 20.696606
_cell_angle_alpha 90.000000
_cell_angle_beta 90.000000
_cell_angle_gamma 90.000000
_cell_volume 1864.567795
_symmetry_space_group_name_H-M "I M M 2"
_symmetry_group_IT_number 44
_symmetry_cell_setting 'orthorhombic'
loop_
_space_group_symop_operation_xyz
x,y,z
-x,-y,z
-x,y,z
x,-y,z
1/2+x,1/2+y,1/2+z
1/2-x,1/2-y,1/2+z
1/2-x,1/2+y,1/2+z
1/2+x,1/2-y,1/2+z
loop_
_atom_site_type_symbol
_atom_site_label
_atom_site_fract_x
_atom_site_fract_y
_atom_site_fract_z
Si Si1 0.720527 0.126957 0.659140
Si Si2 0.294009 0.500000 0.521791
Si Si3 0.783368 0.242840 0.033696
Si Si4 0.780265 0.282217 0.294072
Si Si5 0.215846 0.876520 0.403180
Si Si6 0.718277 0.000000 0.872641
O O1 0.500000 0.125702 0.659213
O O2 0.780340 0.179353 0.591664
O O3 0.778147 0.199727 0.720505
O O4 0.777036 0.000000 0.666334
O O5 0.500000 0.500000 0.546593
O O6 0.212250 0.618154 0.539851
O O7 0.295836 0.500000 0.444017
O O8 0.000000 0.235784 0.038754
O O9 0.747781 0.297481 0.964308
O O10 0.717337 0.179866 0.337099
O O11 0.729862 0.391819 0.333394
O O12 0.000000 0.278407 0.292839
O O13 0.000000 0.883856 0.397258
O O14 0.285799 0.000000 0.414053
O O15 0.500000 0.000000 0.878595
#
# Coordination Sequence:
#
# PCOD9373007 Si02
#       6
#     8   4   8   8   8   4
#     4   9  16  28  47  71  96 124 162 202 237 280
#     4  10  20  32  46  72 104 127 156 200 242 285
#     4  10  20  33  50  72  99 131 163 197 241 289
#     4   9  16  28  48  74  97 120 158 205 243 280
#     4  10  20  33  50  74 101 127 160 202 243 285
#     4  10  16  28  54  76  90 119 162 202 242 287
#
# _framework density 21.452693
#
# number of rings (size 3 to 8) (size 9 to 14) (size 15 to 20)
#    0.000    2.400    3.000    0.600    0.000    1.200 
#    1.800    0.000    0.000    2.400    0.000    0.000 
#    0.000    0.000    0.000    0.000    0.000    0.000 
#
# Total GULP energy -111661.160691 kJ/mol
# GULP energy per Si atom -5583.058035 kJ/mol
# Density = 2.140387 g / cm^3
# Si number density = 21.452693 Si / 1000 Ang^3
#
#
#
# Elastic Constant Matrix: (Units=GPa)
#
#
# Indices 1 2 3 4 5 6 
#
# 1 71.7891 6.5762 -2.0928 0.0000 0.0000 0.0000
# 2 6.5762 159.2125 64.2566 0.0000 0.0000 0.0000
# 3 -2.0928 64.2566 138.7429 0.0000 0.0000 0.0000
# 4 0.0000 0.0000 0.0000 40.1488 0.0000 0.0000
# 5 0.0000 0.0000 0.0000 0.0000 12.1382 0.0000
# 6 0.0000 0.0000 0.0000 0.0000 0.0000 2.8750
#
#
#
# Elastic Compliance Matrix: (Units=1/GPa)
#
#
# Indices 1 2 3 4 5 6 
#
# 1 0.014022 -0.000817 0.000590 0.000000 0.000000 0.000000
# 2 -0.000817 0.007772 -0.003612 0.000000 0.000000 0.000000
# 3 0.000590 -0.003612 0.008889 0.000000 0.000000 0.000000
# 4 0.000000 0.000000 0.000000 0.024907 0.000000 0.000000
# 5 0.000000 0.000000 0.000000 0.000000 0.082385 0.000000
# 6 0.000000 0.000000 0.000000 0.000000 0.000000 0.347832
#
#
# Mechanical properties :
#
#
# Convention : Reuss Voigt Hill
#
# Bulk Modulus (GPa) = 43.46889 56.35827 49.91358
# Shear Modulus (GPa) = 9.97696 31.09936 20.53816
#
# Velocity S-wave (km/s) = 2.15888 3.81159 3.09750
# Velocity P-wave (km/s) = 5.14986 6.76010 6.00916
#
# Compressibility (1/GPa) = 0.02300496
#
# Stress axis : x y z
#
# Youngs Moduli (GPa) = 71.31776 128.65963 112.49451
#
# Poissons Ratio (x) = 0.10515 -0.06637
# Poissons Ratio (y) = 0.05829 0.40633
# Poissons Ratio (z) = -0.04208 0.46472
#
# Static dielectric constant tensor:
#      x y z
#    x 1.857030 0.000000 0.000000 
#    y 0.000000 1.771140 0.000000 
#    z 0.000000 0.000000 1.725170 
# 
# From -- ./inp_files/22760.got.cif
#   From: 2010.05.17/outbox.cif.g08.bks.cpg/sg44_12_cif.got.tgz:22760.got - 2010.06.03 19:37:08.
