data_PCOD9373709
_publ_section_title
;
Structure prediction by ZEFSAII (Michael W. Deem and Ramdas Pophale) SiO2 
 PCOD9373709
Probable space group: I M M 2
;
_chemical_formula_sum "Si O2"
_cell_formula_units_Z 64
_cell_length_a 8.793250
_cell_length_b 28.068693
_cell_length_c 15.135499
_cell_angle_alpha 90.000000
_cell_angle_beta 90.000000
_cell_angle_gamma 90.000000
_cell_volume 3735.668711
_symmetry_space_group_name_H-M "I M M 2"
_symmetry_group_IT_number 44
_symmetry_cell_setting 'orthorhombic'
loop_
_space_group_symop_operation_xyz
x,y,z
-x,-y,z
-x,y,z
x,-y,z
1/2+x,1/2+y,1/2+z
1/2-x,1/2-y,1/2+z
1/2-x,1/2+y,1/2+z
1/2+x,1/2-y,1/2+z
loop_
_atom_site_type_symbol
_atom_site_label
_atom_site_fract_x
_atom_site_fract_y
_atom_site_fract_z
Si Si1 0.318576 0.556056 0.857640
Si Si2 0.683253 0.368360 0.177616
Si Si3 0.181909 0.633115 0.729495
Si Si4 0.315615 0.326688 0.357863
Si Si5 0.818696 0.555789 0.046957
Si Si6 0.818578 0.778792 0.553891
Si Si7 0.682451 0.674467 0.557942
Si Si8 0.816710 0.282953 0.863856
O O1 0.500000 0.561754 0.856967
O O2 0.282581 0.500000 0.846456
O O3 0.244936 0.587738 0.781588
O O4 0.255070 0.570840 0.953656
O O5 0.500000 0.374348 0.176577
O O6 0.736156 0.360152 0.278211
O O7 0.757739 0.411756 0.125687
O O8 0.717476 0.319821 0.123999
O O9 0.250904 0.640696 0.632954
O O10 0.223788 0.679353 0.788833
O O11 0.000000 0.631063 0.724339
O O12 0.500000 0.328045 0.356746
O O13 0.267786 0.338369 0.457794
O O14 0.274142 0.271419 0.340245
O O15 0.780776 0.500000 0.060708
O O16 0.000000 0.560225 0.039570
O O17 0.740319 0.728350 0.574246
O O18 0.761373 0.794331 0.457069
O O19 0.000000 0.771848 0.553323
O O20 0.500000 0.674073 0.560809
O O21 0.000000 0.284205 0.875867
#
# Coordination Sequence:
#
# PCOD9373709 Si02
#       8
#     8   8   8   8   8   8   8   8
#     4  10  21  37  56  78 104 133 166 204 248 304
#     4  10  19  32  52  74  98 132 173 213 253 301
#     4  11  21  33  53  78 104 134 170 213 258 304
#     4   8  16  32  50  68  95 133 173 209 245 288
#     4  10  21  36  53  76 106 134 161 201 255 310
#     4  10  19  30  47  74 105 134 167 208 251 296
#     4  10  20  34  51  71 101 140 177 212 251 297
#     4   9  18  32  48  69 101 137 167 200 247 301
#
# _framework density 17.132141000000001
#
# number of rings (size 3 to 8) (size 9 to 14) (size 15 to 20)
#    0.000    2.250    0.000    4.125    0.000    7.500 
#    0.000    3.125    0.000    0.750    0.000    1.750 
#    0.000    0.000    0.000    0.000    0.000    0.000 
#
# Total GULP energy -178625.099983 kJ/mol
# GULP energy per Si atom -5582.034374 kJ/mol
# Density = 1.709315 g / cm^3
# Si number density = 17.132141 Si / 1000 Ang^3
#
#
#
# Elastic Constant Matrix: (Units=GPa)
#
#
# Indices 1 2 3 4 5 6 
#
# 1 33.2878 35.0650 44.1855 0.0000 0.0000 0.0000
# 2 35.0650 70.9896 76.9386 0.0000 0.0000 0.0000
# 3 44.1855 76.9386 134.6960 0.0001 0.0000 0.0000
# 4 0.0000 0.0000 0.0001 32.1105 0.0000 0.0000
# 5 0.0000 0.0000 0.0000 0.0000 23.6060 0.0000
# 6 0.0000 0.0000 0.0000 0.0000 0.0000 25.6360
#
#
#
# Elastic Compliance Matrix: (Units=1/GPa)
#
#
# Indices 1 2 3 4 5 6 
#
# 1 0.065691 -0.023870 -0.007915 0.000000 0.000000 0.000000
# 2 -0.023870 0.045653 -0.018247 0.000000 0.000000 0.000000
# 3 -0.007915 -0.018247 0.020443 0.000000 0.000000 0.000000
# 4 0.000000 0.000000 0.000000 0.031142 0.000000 0.000000
# 5 0.000000 0.000000 0.000000 0.000000 0.042362 0.000000
# 6 0.000000 0.000000 0.000000 0.000000 0.000000 0.039008
#
#
# Mechanical properties :
#
#
# Convention : Reuss Voigt Hill
#
# Bulk Modulus (GPa) = 31.52151 61.26129 46.39140
# Shear Modulus (GPa) = 14.08699 21.78944 17.93822
#
# Velocity S-wave (km/s) = 2.87061 3.57016 3.23933
# Velocity P-wave (km/s) = 5.42459 7.26846 6.41314
#
# Compressibility (1/GPa) = 0.03172437
#
# Stress axis : x y z
#
# Youngs Moduli (GPa) = 15.22272 21.90435 48.91631
#
# Poissons Ratio (x) = 0.52286 0.38716
# Poissons Ratio (y) = 0.36337 0.89257
# Poissons Ratio (z) = 0.12048 0.39968
#
# Static dielectric constant tensor:
#      x y z
#    x 1.572920 0.000000 0.000000 
#    y 0.000000 1.567020 0.000000 
#    z 0.000000 0.000000 1.582910 
# 
# From -- ./inp_files/16765.got.cif
#   From: 2010.05.17/outbox.cif.g08.bks.cpg/sg44_9_cif.got.tgz:16765.got - 2010.06.03 19:37:08.
