data_PCOD9373027
_publ_section_title
;
Structure prediction by ZEFSAII (Michael W. Deem and Ramdas Pophale) SiO2 
 PCOD9373027
Probable space group: I M M 2
;
_chemical_formula_sum "Si O2"
_cell_formula_units_Z 64
_cell_length_a 9.086337
_cell_length_b 27.037503
_cell_length_c 18.867778
_cell_angle_alpha 90.000000
_cell_angle_beta 90.000000
_cell_angle_gamma 90.000000
_cell_volume 4635.282189
_symmetry_space_group_name_H-M "I M M 2"
_symmetry_group_IT_number 44
_symmetry_cell_setting 'orthorhombic'
loop_
_space_group_symop_operation_xyz
x,y,z
-x,-y,z
-x,y,z
x,-y,z
1/2+x,1/2+y,1/2+z
1/2-x,1/2-y,1/2+z
1/2-x,1/2+y,1/2+z
1/2+x,1/2-y,1/2+z
loop_
_atom_site_type_symbol
_atom_site_label
_atom_site_fract_x
_atom_site_fract_y
_atom_site_fract_z
Si Si1 0.175090 0.645074 0.371230
Si Si2 0.169513 0.300204 0.830990
Si Si3 0.323078 0.442657 0.454647
Si Si4 0.677750 0.758144 0.118555
Si Si5 0.677182 0.651822 0.702956
Si Si6 0.668907 0.304659 0.246757
Si Si7 0.678820 0.555701 0.617937
Si Si8 0.323816 0.246261 0.953469
O O1 0.248291 0.596404 0.403253
O O2 0.232887 0.658844 0.293028
O O3 0.214284 0.692186 0.421389
O O4 0.000000 0.640391 0.371067
O O5 0.258272 0.337443 0.780739
O O6 0.171785 0.248007 0.788096
O O7 0.243907 0.287108 0.905551
O O8 0.000000 0.315147 0.838713
O O9 0.500000 0.437402 0.450907
O O10 0.287723 0.500000 0.438732
O O11 0.277845 0.433224 0.536580
O O12 0.500000 0.765259 0.125226
O O13 0.758849 0.805564 0.151491
O O14 0.715537 0.710826 0.167634
O O15 0.713722 0.751605 0.036248
O O16 0.500000 0.654870 0.704268
O O17 0.723815 0.599022 0.670830
O O18 0.500000 0.322131 0.246078
O O19 0.500000 0.554930 0.618034
O O20 0.728490 0.500000 0.635900
O O21 0.500000 0.252016 0.945939
#
# Coordination Sequence:
#
# PCOD9373027 Si02
#       8
#     8   8   8   8   8   8   8   8
#     4  10  18  26  39  58  80 105 131 164 200 231
#     4   9  17  28  40  55  78 106 134 165 199 235
#     4   9  17  29  43  57  76 104 136 167 196 230
#     4   9  17  28  41  58  82 108 132 164 201 235
#     4  10  17  25  41  60  78 105 138 168 198 235
#     4   8  15  27  40  53  73 104 135 159 189 232
#     4   8  15  27  41  58  79 103 134 169 199 228
#     4   9  17  28  41  59  82 106 134 165 198 236
#
# _framework density 13.807142000000001
#
# number of rings (size 3 to 8) (size 9 to 14) (size 15 to 20)
#    0.000    3.000    0.000    3.375    0.000    4.250 
#    0.000    0.625    0.000    3.000    0.000    0.000 
#    0.000    1.000    0.000    8.000    0.000    3.625 
#
# Total GULP energy -178174.392816 kJ/mol
# GULP energy per Si atom -5567.949776 kJ/mol
# Density = 1.377572 g / cm^3
# Si number density = 13.807142 Si / 1000 Ang^3
#
#
#
# Elastic Constant Matrix: (Units=GPa)
#
#
# Indices 1 2 3 4 5 6 
#
# 1 38.2462 39.2954 41.7629 0.0000 0.0000 0.0000
# 2 39.2954 84.2456 56.5356 0.0000 0.0000 0.0000
# 3 41.7629 56.5356 108.9899 0.0000 0.0000 0.0000
# 4 0.0000 0.0000 0.0000 25.8501 0.0000 0.0000
# 5 0.0000 0.0000 0.0000 0.0000 18.7271 0.0000
# 6 0.0000 0.0000 0.0000 0.0000 0.0000 16.8089
#
#
#
# Elastic Compliance Matrix: (Units=1/GPa)
#
#
# Indices 1 2 3 4 5 6 
#
# 1 0.060304 -0.019361 -0.013064 0.000000 0.000000 0.000000
# 2 -0.019361 0.024424 -0.005251 0.000000 0.000000 0.000000
# 3 -0.013064 -0.005251 0.016905 0.000000 0.000000 0.000000
# 4 0.000000 0.000000 0.000000 0.038685 0.000000 0.000000
# 5 0.000000 0.000000 0.000000 0.000000 0.053399 0.000000
# 6 0.000000 0.000000 0.000000 0.000000 0.000000 0.059492
#
#
# Mechanical properties :
#
#
# Convention : Reuss Voigt Hill
#
# Bulk Modulus (GPa) = 38.05004 56.29661 47.17333
# Shear Modulus (GPa) = 14.82266 18.53640 16.67953
#
# Velocity S-wave (km/s) = 3.28006 3.66802 3.47945
# Velocity P-wave (km/s) = 6.47790 7.66820 7.09804
#
# Compressibility (1/GPa) = 0.02628118
#
# Stress axis : x y z
#
# Youngs Moduli (GPa) = 16.58266 40.94270 59.15422
#
# Poissons Ratio (x) = 0.79268 0.77282
# Poissons Ratio (y) = 0.32105 0.31061
# Poissons Ratio (z) = 0.21664 0.21498
#
# Static dielectric constant tensor:
#      x y z
#    x 1.460400 0.000000 0.000000 
#    y 0.000000 1.435730 0.000000 
#    z 0.000000 0.000000 1.456340 
# 
# From -- ./inp_files/20878.got.cif
#   From: 2010.05.17/outbox.cif.g08.bks.cpg/sg44_11_cif.got.tgz:20878.got - 2010.06.03 19:37:08.
