data_PCOD9373548
_publ_section_title
;
Structure prediction by ZEFSAII (Michael W. Deem and Ramdas Pophale) SiO2 
 PCOD9373548
Probable space group: I M M 2
;
_chemical_formula_sum "Si O2"
_cell_formula_units_Z 48
_cell_length_a 19.106626
_cell_length_b 7.998100
_cell_length_c 15.451435
_cell_angle_alpha 90.000000
_cell_angle_beta 90.000000
_cell_angle_gamma 90.000000
_cell_volume 2361.237391
_symmetry_space_group_name_H-M "I M M 2"
_symmetry_group_IT_number 44
_symmetry_cell_setting 'orthorhombic'
loop_
_space_group_symop_operation_xyz
x,y,z
-x,-y,z
-x,y,z
x,-y,z
1/2+x,1/2+y,1/2+z
1/2-x,1/2-y,1/2+z
1/2-x,1/2+y,1/2+z
1/2+x,1/2-y,1/2+z
loop_
_atom_site_type_symbol
_atom_site_label
_atom_site_fract_x
_atom_site_fract_y
_atom_site_fract_z
Si Si1 0.272467 0.299651 0.288630
Si Si2 0.736094 0.202755 0.488582
Si Si3 0.113551 0.198249 0.539579
Si Si4 0.150919 0.702813 0.153385
Si Si5 0.000000 0.690977 0.412100
Si Si6 0.924819 0.795329 0.727419
Si Si7 0.000000 0.805192 0.220112
O O1 0.273363 0.500000 0.276626
O O2 0.264381 0.261602 0.389879
O O3 0.208784 0.240568 0.225890
O O4 0.350408 0.236966 0.264362
O O5 0.808900 0.265554 0.528967
O O6 0.676782 0.253542 0.557353
O O7 0.736032 0.000000 0.486681
O O8 0.067892 0.228516 0.455134
O O9 0.077312 0.257434 0.626931
O O10 0.120336 0.000000 0.550803
O O11 0.150019 0.500000 0.156772
O O12 0.072636 0.764154 0.172245
O O13 0.000000 0.706179 0.310033
O O14 0.000000 0.500000 0.439001
O O15 0.000000 0.740907 0.765476
O O16 0.924550 0.000000 0.732360
O O17 0.000000 0.000000 0.242201
#
# Coordination Sequence:
#
# PCOD9373548 Si02
#       7
#     8   8   8   8   4   8   4
#     4  10  20  36  60  88 116 154 200 242 285 346
#     4  10  21  37  60  88 116 154 196 238 294 354
#     4  10  18  34  60  85 112 149 196 238 284 352
#     4  10  21  41  64  85 119 160 197 243 300 354
#     4  12  24  36  54  87 124 155 188 239 304 356
#     4   9  16  31  58  85 111 148 190 234 282 336
#     4  12  26  42  60  85 114 151 202 251 296 348
#
# _framework density 20.328327000000002
#
# number of rings (size 3 to 8) (size 9 to 14) (size 15 to 20)
#    0.000    1.833    2.500    2.500    0.000    4.667 
#    1.500    0.833    0.000    0.000    0.000    0.000 
#    0.000    0.000    0.000    0.000    0.000    0.000 
#
# Total GULP energy -133859.884987 kJ/mol
# GULP energy per Si atom -5577.495208 kJ/mol
# Density = 2.028206 g / cm^3
# Si number density = 20.328327 Si / 1000 Ang^3
#
#
#
# Elastic Constant Matrix: (Units=GPa)
#
#
# Indices 1 2 3 4 5 6 
#
# 1 165.5157 6.3208 41.7956 0.0000 0.0000 0.0000
# 2 6.3208 9.4330 -2.7705 0.0000 0.0000 0.0000
# 3 41.7956 -2.7705 71.2640 0.0000 0.0000 0.0000
# 4 0.0000 0.0000 0.0000 24.2643 0.0000 0.0000
# 5 0.0000 0.0000 0.0000 0.0000 28.5296 0.0000
# 6 0.0000 0.0000 0.0000 0.0000 0.0000 0.5657
#
#
#
# Elastic Compliance Matrix: (Units=1/GPa)
#
#
# Indices 1 2 3 4 5 6 
#
# 1 0.007450 -0.006348 -0.004616 0.000000 0.000000 0.000000
# 2 -0.006348 0.112644 0.008102 0.000000 0.000000 0.000000
# 3 -0.004616 0.008102 0.017055 0.000000 0.000000 0.000000
# 4 0.000000 0.000000 0.000000 0.041213 0.000000 0.000000
# 5 0.000000 0.000000 0.000000 0.000000 0.035051 0.000000
# 6 0.000000 0.000000 0.000000 0.000000 0.000000 1.767591
#
#
# Mechanical properties :
#
#
# Convention : Reuss Voigt Hill
#
# Bulk Modulus (GPa) = 7.60891 37.43385 22.52138
# Shear Modulus (GPa) = 2.46241 24.06303 13.26272
#
# Velocity S-wave (km/s) = 1.10179 3.44425 2.55703
# Velocity P-wave (km/s) = 2.31727 5.85421 4.45205
#
# Compressibility (1/GPa) = 0.13142485
#
# Stress axis : x y z
#
# Youngs Moduli (GPa) = 134.23274 8.87754 58.63547
#
# Poissons Ratio (x) = 0.05635 0.27066
# Poissons Ratio (y) = 0.85206 -0.47506
# Poissons Ratio (z) = 0.61961 -0.07193
#
# Static dielectric constant tensor:
#      x y z
#    x 1.737800 0.000000 0.000000 
#    y 0.000000 1.732870 0.000000 
#    z 0.000000 0.000000 1.704750 
# 
# From -- ./inp_files/16156.got.cif
#   From: 2010.05.17/outbox.cif.g08.bks.cpg/sg44_9_cif.got.tgz:16156.got - 2010.06.03 19:37:08.
