data_PCOD9373282
_publ_section_title
;
Structure prediction by ZEFSAII (Michael W. Deem and Ramdas Pophale) SiO2 
 PCOD9373282
Probable space group: I M M 2
;
_chemical_formula_sum "Si O2"
_cell_formula_units_Z 64
_cell_length_a 16.088507
_cell_length_b 8.100621
_cell_length_c 23.727939
_cell_angle_alpha 90.000000
_cell_angle_beta 90.000000
_cell_angle_gamma 90.000000
_cell_volume 3092.388678
_symmetry_space_group_name_H-M "I M M 2"
_symmetry_group_IT_number 44
_symmetry_cell_setting 'orthorhombic'
loop_
_space_group_symop_operation_xyz
x,y,z
-x,-y,z
-x,y,z
x,-y,z
1/2+x,1/2+y,1/2+z
1/2-x,1/2-y,1/2+z
1/2-x,1/2+y,1/2+z
1/2+x,1/2-y,1/2+z
loop_
_atom_site_type_symbol
_atom_site_label
_atom_site_fract_x
_atom_site_fract_y
_atom_site_fract_z
Si Si1 0.405891 0.298546 0.711800
Si Si2 0.352482 0.303158 0.586051
Si Si3 0.098189 0.677001 0.656159
Si Si4 0.904652 0.188804 0.773295
Si Si5 0.324356 0.309754 0.046636
Si Si6 0.274768 0.303619 0.804908
Si Si7 0.411717 0.800345 0.468076
Si Si8 0.768616 0.202407 0.427780
O O1 0.500000 0.246682 0.727202
O O2 0.405231 0.500000 0.712676
O O3 0.387206 0.252677 0.646860
O O4 0.333429 0.239350 0.754392
O O5 0.335413 0.500000 0.587877
O O6 0.268581 0.206300 0.571253
O O7 0.408725 0.265825 0.531922
O O8 0.136896 0.500000 0.672479
O O9 0.116308 0.802575 0.706275
O O10 0.122639 0.718816 0.593222
O O11 0.000000 0.664171 0.656907
O O12 0.824383 0.275047 0.799662
O O13 0.000000 0.255842 0.781218
O O14 0.905866 0.000000 0.791805
O O15 0.350204 0.500000 0.044729
O O16 0.319486 0.243430 0.982970
O O17 0.286921 0.500000 0.804891
O O18 0.299479 0.241017 0.867052
O O19 0.500000 0.751274 0.441398
O O20 0.327342 0.745361 0.437669
O O21 0.408886 0.000000 0.470068
O O22 0.769290 0.000000 0.428872
#
# Coordination Sequence:
#
# PCOD9373282 Si02
#       8
#     8   8   8   8   8   8   8   8
#     4   9  18  31  48  73 102 129 162 209 258 298
#     4  10  18  29  48  73 100 129 163 204 253 310
#     4  10  20  34  53  78 105 132 167 210 257 315
#     4  10  21  36  54  79 111 142 171 211 267 325
#     4  10  19  33  52  74 103 134 166 209 260 311
#     4  10  19  34  56  76  99 137 182 222 258 304
#     4   9  17  30  47  68  97 130 162 201 252 309
#     4   8  17  32  49  72  99 131 172 212 253 304
#
# _framework density 20.695976000000002
#
# number of rings (size 3 to 8) (size 9 to 14) (size 15 to 20)
#    0.000    2.500    0.000    3.375    0.000    3.750 
#    0.000    5.625    0.000    4.125    0.000    0.000 
#    0.000    0.000    0.000    0.000    0.000    0.000 
#
# Total GULP energy -178313.883398 kJ/mol
# GULP energy per Si atom -5572.308856 kJ/mol
# Density = 2.064887 g / cm^3
# Si number density = 20.695976 Si / 1000 Ang^3
#
#
#
# Elastic Constant Matrix: (Units=GPa)
#
#
# Indices 1 2 3 4 5 6 
#
# 1 30.4170 -4.1450 26.0625 0.0000 0.0000 0.0000
# 2 -4.1450 14.6734 -6.8965 0.0000 0.0000 0.0000
# 3 26.0625 -6.8965 91.8332 0.0000 0.0000 0.0000
# 4 0.0000 0.0000 0.0000 15.6027 0.0000 0.0000
# 5 0.0000 0.0000 0.0000 0.0000 11.8830 0.0000
# 6 0.0000 0.0000 0.0000 0.0000 0.0000 15.9613
#
#
#
# Elastic Compliance Matrix: (Units=1/GPa)
#
#
# Indices 1 2 3 4 5 6 
#
# 1 0.044087 0.006814 -0.012000 0.000000 0.000000 0.000000
# 2 0.006814 0.071697 0.003451 0.000000 0.000000 0.000000
# 3 -0.012000 0.003451 0.014554 0.000000 0.000000 0.000000
# 4 0.000000 0.000000 0.000000 0.064092 0.000000 0.000000
# 5 0.000000 0.000000 0.000000 0.000000 0.084154 0.000000
# 6 0.000000 0.000000 0.000000 0.000000 0.000000 0.062651
#
#
# Mechanical properties :
#
#
# Convention : Reuss Voigt Hill
#
# Bulk Modulus (GPa) = 7.88233 18.55174 13.21704
# Shear Modulus (GPa) = 12.92003 16.81624 14.86814
#
# Velocity S-wave (km/s) = 2.50126 2.85360 2.68322
# Velocity P-wave (km/s) = 3.48693 4.45429 3.99996
#
# Compressibility (1/GPa) = 0.12686596
#
# Stress axis : x y z
#
# Youngs Moduli (GPa) = 22.68232 13.94761 68.70882
#
# Poissons Ratio (x) = -0.09503 0.82453
# Poissons Ratio (y) = -0.15455 -0.23708
# Poissons Ratio (z) = 0.27220 -0.04813
#
# Static dielectric constant tensor:
#      x y z
#    x 1.808110 0.000000 0.000000 
#    y 0.000000 1.754330 0.000000 
#    z 0.000000 0.000000 1.766240 
# 
# From -- ./inp_files/25756.got.cif
#   From: 2010.05.17/outbox.cif.g08.bks.cpg/sg44_13_cif.got.tgz:25756.got - 2010.06.03 19:37:08.
