data_PCOD9373243
_publ_section_title
;
Structure prediction by ZEFSAII (Michael W. Deem and Ramdas Pophale) SiO2 
 PCOD9373243
Probable space group: I M M 2
;
_chemical_formula_sum "Si O2"
_cell_formula_units_Z 40
_cell_length_a 26.633249
_cell_length_b 9.155824
_cell_length_c 9.202647
_cell_angle_alpha 90.000000
_cell_angle_beta 90.000000
_cell_angle_gamma 90.000000
_cell_volume 2244.059401
_symmetry_space_group_name_H-M "I M M 2"
_symmetry_group_IT_number 44
_symmetry_cell_setting 'orthorhombic'
loop_
_space_group_symop_operation_xyz
x,y,z
-x,-y,z
-x,y,z
x,-y,z
1/2+x,1/2+y,1/2+z
1/2-x,1/2-y,1/2+z
1/2-x,1/2+y,1/2+z
1/2+x,1/2-y,1/2+z
loop_
_atom_site_type_symbol
_atom_site_label
_atom_site_fract_x
_atom_site_fract_y
_atom_site_fract_z
Si Si1 0.398681 0.826004 0.316220
Si Si2 0.000000 0.173483 0.825549
Si Si3 0.889256 0.672085 0.161679
Si Si4 0.701563 0.824567 0.139350
Si Si5 0.299654 0.325502 0.827485
Si Si6 0.500000 0.827018 0.636501
O O1 0.448378 0.741361 0.265638
O O2 0.389152 0.797758 0.488077
O O3 0.349336 0.787061 0.225676
O O4 0.407578 0.000000 0.303235
O O5 0.000000 0.227751 0.993336
O O6 0.000000 0.000000 0.815313
O O7 0.877944 0.500000 0.181157
O O8 0.848509 0.766432 0.244321
O O9 0.946773 0.697618 0.213465
O O10 0.750097 0.785844 0.235213
O O11 0.701813 0.000000 0.118423
O O12 0.703250 0.745863 0.985488
O O13 0.301403 0.500000 0.839775
O O14 0.500000 0.000000 0.591618
#
# Coordination Sequence:
#
# PCOD9373243 Si02
#       6
#     8   4   8   8   8   4
#     4   9  18  35  57  78 104 143 185 216 250 310
#     4  10  18  28  49  82 113 138 170 218 270 308
#     4   9  17  33  57  81 107 141 180 218 256 306
#     4  10  22  39  57  77 104 141 180 215 259 318
#     4  11  23  37  55  81 109 136 172 221 271 314
#     4   8  16  32  53  76 105 144 184 214 248 308
#
# _framework density 17.824840999999999
#
# number of rings (size 3 to 8) (size 9 to 14) (size 15 to 20)
#    0.000    2.400    0.000    3.900    0.000    7.200 
#    0.000    1.000    0.000    2.400    0.000    0.000 
#    0.000    0.000    0.000    0.000    0.000    0.000 
#
# Total GULP energy -111577.272226 kJ/mol
# GULP energy per Si atom -5578.863611 kJ/mol
# Density = 1.778427 g / cm^3
# Si number density = 17.824841 Si / 1000 Ang^3
#
#
#
# Elastic Constant Matrix: (Units=GPa)
#
#
# Indices 1 2 3 4 5 6 
#
# 1 201.0014 79.7673 86.4562 0.0000 0.0000 0.0000
# 2 79.7673 52.3436 51.6115 0.0000 0.0000 0.0000
# 3 86.4562 51.6115 90.6742 0.0000 0.0000 0.0000
# 4 0.0000 0.0000 0.0000 28.1822 0.0000 0.0000
# 5 0.0000 0.0000 0.0000 0.0000 26.3668 0.0000
# 6 0.0000 0.0000 0.0000 0.0000 0.0000 26.7096
#
#
#
# Elastic Compliance Matrix: (Units=1/GPa)
#
#
# Indices 1 2 3 4 5 6 
#
# 1 0.012835 -0.017077 -0.002518 0.000000 0.000000 0.000000
# 2 -0.017077 0.066262 -0.021434 0.000000 0.000000 0.000000
# 3 -0.002518 -0.021434 0.025629 0.000000 0.000000 0.000000
# 4 0.000000 0.000000 0.000000 0.035483 0.000000 0.000000
# 5 0.000000 0.000000 0.000000 0.000000 0.037926 0.000000
# 6 0.000000 0.000000 0.000000 0.000000 0.000000 0.037440
#
#
# Mechanical properties :
#
#
# Convention : Reuss Voigt Hill
#
# Bulk Modulus (GPa) = 44.11209 86.63213 65.37211
# Shear Modulus (GPa) = 16.38322 24.66400 20.52361
#
# Velocity S-wave (km/s) = 3.03499 3.72383 3.39692
# Velocity P-wave (km/s) = 6.08957 8.19736 7.22079
#
# Compressibility (1/GPa) = 0.02266952
#
# Stress axis : x y z
#
# Youngs Moduli (GPa) = 77.91170 15.09151 39.01776
#
# Poissons Ratio (x) = 0.25772 0.09824
# Poissons Ratio (y) = 1.33049 0.83630
# Poissons Ratio (z) = 0.19617 0.32347
#
# Static dielectric constant tensor:
#      x y z
#    x 1.625930 0.000000 0.000000 
#    y 0.000000 1.588160 0.000000 
#    z 0.000000 0.000000 1.584720 
# 
# From -- ./inp_files/4621.got.cif
#   From: 2010.05.17/outbox.cif.g08.bks.cpg/sg44_3_cif.got.tgz:4621.got - 2010.06.03 19:37:08.
