data_PCOD9373235
_publ_section_title
;
Structure prediction by ZEFSAII (Michael W. Deem and Ramdas Pophale) SiO2 
 PCOD9373235
Probable space group: I M M 2
;
_chemical_formula_sum "Si O2"
_cell_formula_units_Z 64
_cell_length_a 8.728362
_cell_length_b 14.889847
_cell_length_c 29.047083
_cell_angle_alpha 90.000000
_cell_angle_beta 90.000000
_cell_angle_gamma 90.000000
_cell_volume 3775.074361
_symmetry_space_group_name_H-M "I M M 2"
_symmetry_group_IT_number 44
_symmetry_cell_setting 'orthorhombic'
loop_
_space_group_symop_operation_xyz
x,y,z
-x,-y,z
-x,y,z
x,-y,z
1/2+x,1/2+y,1/2+z
1/2-x,1/2-y,1/2+z
1/2-x,1/2+y,1/2+z
1/2+x,1/2-y,1/2+z
loop_
_atom_site_type_symbol
_atom_site_label
_atom_site_fract_x
_atom_site_fract_y
_atom_site_fract_z
Si Si1 0.685153 0.397972 0.900210
Si Si2 0.184937 0.103548 0.757546
Si Si3 0.686702 0.897760 0.030327
Si Si4 0.684957 0.103762 0.136007
Si Si5 0.684390 0.220587 0.945933
Si Si6 0.182682 0.106134 0.863080
Si Si7 0.181381 0.606390 0.799449
Si Si8 0.818242 0.777326 0.216839
O O1 0.500000 0.396100 0.896794
O O2 0.731506 0.500000 0.911601
O O3 0.734429 0.322680 0.936566
O O4 0.752954 0.375029 0.850145
O O5 0.230081 0.126196 0.810444
O O6 0.253929 0.177174 0.723894
O O7 0.000000 0.107564 0.755904
O O8 0.229504 0.000000 0.748479
O O9 0.500000 0.897216 0.029849
O O10 0.742085 0.827926 0.992093
O O11 0.733871 0.000000 0.018729
O O12 0.731308 0.878618 0.083022
O O13 0.500000 0.108937 0.138646
O O14 0.755506 0.172767 0.171759
O O15 0.726941 0.000000 0.147028
O O16 0.500000 0.220615 0.948372
O O17 0.733589 0.163466 0.901525
O O18 0.000000 0.121821 0.866261
O O19 0.209389 0.000000 0.870585
O O20 0.204797 0.500000 0.790402
O O21 0.260947 0.664976 0.760554
O O22 0.000000 0.624474 0.798821
O O23 0.000000 0.775456 0.215972
#
# Coordination Sequence:
#
# PCOD9373235 Si02
#       8
#     8   8   8   8   8   8   8   8
#     4   9  18  31  45  66  99 132 160 196 241 282
#     4   9  19  36  54  70  94 131 171 205 233 270
#     4   8  15  29  49  72  95 119 153 198 241 281
#     4   9  18  34  54  72  93 125 162 198 239 290
#     4  10  18  28  47  72  95 125 162 196 235 282
#     4   9  18  31  46  68  98 127 154 189 233 277
#     4  10  20  33  49  69  95 130 170 205 237 282
#     4  12  23  32  48  74 101 127 156 197 249 297
#
# _framework density 16.953309000000001
#
# number of rings (size 3 to 8) (size 9 to 14) (size 15 to 20)
#    0.000    2.500    0.000    4.500    0.000    6.500 
#    0.000    1.875    0.000    1.500    0.000    3.500 
#    0.000    0.000    0.000    0.000    0.000    0.000 
#
# Total GULP energy -178532.800391 kJ/mol
# GULP energy per Si atom -5579.150012 kJ/mol
# Density = 1.691472 g / cm^3
# Si number density = 16.953309 Si / 1000 Ang^3
#
#
#
# Elastic Constant Matrix: (Units=GPa)
#
#
# Indices 1 2 3 4 5 6 
#
# 1 21.1816 33.5456 27.8154 0.0000 0.0000 0.0000
# 2 33.5456 114.7651 103.4037 0.0000 0.0000 0.0000
# 3 27.8154 103.4037 113.7395 0.0000 0.0000 0.0000
# 4 0.0000 0.0000 0.0000 32.9779 0.0000 0.0000
# 5 0.0000 0.0000 0.0000 0.0000 19.6998 0.0000
# 6 0.0000 0.0000 0.0000 0.0000 0.0000 18.1093
#
#
#
# Elastic Compliance Matrix: (Units=1/GPa)
#
#
# Indices 1 2 3 4 5 6 
#
# 1 0.090137 -0.035858 0.010556 0.000000 0.000000 0.000000
# 2 -0.035858 0.062439 -0.047996 0.000000 0.000000 0.000000
# 3 0.010556 -0.047996 0.049845 0.000000 0.000000 0.000000
# 4 0.000000 0.000000 0.000000 0.030323 0.000000 0.000000
# 5 0.000000 0.000000 0.000000 0.000000 0.050762 0.000000
# 6 0.000000 0.000000 0.000000 0.000000 0.000000 0.055220
#
#
# Mechanical properties :
#
#
# Convention : Reuss Voigt Hill
#
# Bulk Modulus (GPa) = 17.91290 64.35730 41.13510
# Shear Modulus (GPa) = 9.92198 19.81883 14.87041
#
# Velocity S-wave (km/s) = 2.42183 3.42281 2.96487
# Velocity P-wave (km/s) = 4.29060 7.32562 6.00308
#
# Compressibility (1/GPa) = 0.05582570
#
# Stress axis : x y z
#
# Youngs Moduli (GPa) = 11.09417 16.01558 20.06221
#
# Poissons Ratio (x) = 0.57429 -0.21178
# Poissons Ratio (y) = 0.39782 0.96291
# Poissons Ratio (z) = -0.11711 0.76868
#
# Static dielectric constant tensor:
#      x y z
#    x 1.569460 0.000000 0.000000 
#    y 0.000000 1.589320 0.000000 
#    z 0.000000 0.000000 1.553920 
# 
# From -- ./inp_files/25090.got.cif
#   From: 2010.05.17/outbox.cif.g08.bks.cpg/sg44_13_cif.got.tgz:25090.got - 2010.06.03 19:37:08.
