data_PCOD9373218
_publ_section_title
;
Structure prediction by ZEFSAII (Michael W. Deem and Ramdas Pophale) SiO2 
 PCOD9373218
Probable space group: I M M 2
;
_chemical_formula_sum "Si O2"
_cell_formula_units_Z 56
_cell_length_a 13.376263
_cell_length_b 29.463420
_cell_length_c 9.610316
_cell_angle_alpha 90.000000
_cell_angle_beta 90.000000
_cell_angle_gamma 90.000000
_cell_volume 3787.526010
_symmetry_space_group_name_H-M "I M M 2"
_symmetry_group_IT_number 44
_symmetry_cell_setting 'orthorhombic'
loop_
_space_group_symop_operation_xyz
x,y,z
-x,-y,z
-x,y,z
x,-y,z
1/2+x,1/2+y,1/2+z
1/2-x,1/2-y,1/2+z
1/2-x,1/2+y,1/2+z
1/2+x,1/2-y,1/2+z
loop_
_atom_site_type_symbol
_atom_site_label
_atom_site_fract_x
_atom_site_fract_y
_atom_site_fract_z
Si Si1 0.305449 0.159533 0.668690
Si Si2 0.884262 0.760345 0.235770
Si Si3 0.881970 0.369400 0.879412
Si Si4 0.119554 0.377815 0.442376
Si Si5 0.813009 0.698743 0.657175
Si Si6 0.613628 0.708403 0.057423
Si Si7 0.621011 0.051385 0.178398
O O1 0.357939 0.207438 0.710859
O O2 0.360566 0.135440 0.540916
O O3 0.316849 0.128046 0.803216
O O4 0.195625 0.173154 0.613192
O O5 0.803872 0.788625 0.146504
O O6 0.869482 0.775017 0.397469
O O7 0.000000 0.768128 0.200396
O O8 0.831123 0.327441 0.800531
O O9 0.846817 0.415843 0.805189
O O10 0.000000 0.365774 0.852400
O O11 0.145880 0.334725 0.539347
O O12 0.143924 0.421798 0.535840
O O13 0.000000 0.377417 0.413091
O O14 0.871306 0.745997 0.647813
O O15 0.500000 0.691868 0.067416
O O16 0.500000 0.049253 0.184923
O O17 0.659196 0.000000 0.184102
#
# Coordination Sequence:
#
# PCOD9373218 Si02
#       7
#     8   8   8   8   8   8   8
#     4  11  20  30  44  68  92 122 159 194 227 265
#     4  10  19  30  44  62  92 126 159 198 230 254
#     4  10  18  28  45  68  92 117 154 192 225 267
#     4  10  18  30  49  66  93 125 152 185 226 275
#     4  10  18  30  44  63  84 126 165 188 219 265
#     4  10  19  31  45  61  91 128 159 194 231 261
#     4   8  16  31  49  68  91 121 149 178 226 285
#
# _framework density 14.785375999999999
#
# number of rings (size 3 to 8) (size 9 to 14) (size 15 to 20)
#    0.000    2.143    2.857    3.429    0.000    0.000 
#    0.000    2.857    0.000    3.429    0.000    0.000 
#    0.000   21.714    0.000    0.000    0.000    0.000 
#
# Total GULP energy -155980.939810 kJ/mol
# GULP energy per Si atom -5570.747850 kJ/mol
# Density = 1.475172 g / cm^3
# Si number density = 14.785376 Si / 1000 Ang^3
#
#
#
# Elastic Constant Matrix: (Units=GPa)
#
#
# Indices 1 2 3 4 5 6 
#
# 1 77.4393 25.0147 16.2594 0.0000 0.0000 0.0000
# 2 25.0147 67.8937 21.2222 -0.0001 0.0000 0.0000
# 3 16.2594 21.2222 69.9735 -0.0009 0.0005 -0.0002
# 4 0.0000 -0.0001 -0.0009 11.7365 0.0001 0.0000
# 5 0.0000 0.0000 0.0005 0.0001 21.3300 0.0000
# 6 0.0000 0.0000 -0.0002 0.0000 0.0000 12.8550
#
#
#
# Elastic Compliance Matrix: (Units=1/GPa)
#
#
# Indices 1 2 3 4 5 6 
#
# 1 0.014904 -0.004870 -0.001986 0.000000 0.000000 0.000000
# 2 -0.004870 0.017863 -0.004286 0.000000 0.000000 0.000000
# 3 -0.001986 -0.004286 0.016052 0.000001 0.000000 0.000000
# 4 0.000000 0.000000 0.000001 0.085204 0.000000 0.000000
# 5 0.000000 0.000000 0.000000 0.000000 0.046882 0.000000
# 6 0.000000 0.000000 0.000000 0.000000 0.000000 0.077791
#
#
# Mechanical properties :
#
#
# Convention : Reuss Voigt Hill
#
# Bulk Modulus (GPa) = 37.68662 37.81101 37.74882
# Shear Modulus (GPa) = 17.25175 19.37165 18.31170
#
# Velocity S-wave (km/s) = 3.41957 3.62358 3.52305
# Velocity P-wave (km/s) = 6.41371 6.56779 6.49121
#
# Compressibility (1/GPa) = 0.02653461
#
# Stress axis : x y z
#
# Youngs Moduli (GPa) = 67.09816 55.98163 62.29571
#
# Poissons Ratio (x) = 0.27265 0.12372
# Poissons Ratio (y) = 0.32679 0.26700
# Poissons Ratio (z) = 0.13325 0.23994
#
# Static dielectric constant tensor:
#      x y z
#    x 1.491660 0.000000 0.000000 
#    y 0.000000 1.478270 0.000000 
#    z 0.000000 0.000000 1.516940 
# 
# From -- ./inp_files/7660.got.cif
#   From: 2010.05.17/outbox.cif.g08.bks.cpg/sg44_4_cif.got.tgz:7660.got - 2010.06.03 19:37:08.
