data_PCOD9373121
_publ_section_title
;
Structure prediction by ZEFSAII (Michael W. Deem and Ramdas Pophale) SiO2 
 PCOD9373121
Probable space group: I M M 2
;
_chemical_formula_sum "Si O2"
_cell_formula_units_Z 64
_cell_length_a 19.307626
_cell_length_b 19.307511
_cell_length_c 9.975100
_cell_angle_alpha 90.000000
_cell_angle_beta 90.000000
_cell_angle_gamma 90.000000
_cell_volume 3718.539737
_symmetry_space_group_name_H-M "I M M 2"
_symmetry_group_IT_number 44
_symmetry_cell_setting 'orthorhombic'
loop_
_space_group_symop_operation_xyz
x,y,z
-x,-y,z
-x,y,z
x,-y,z
1/2+x,1/2+y,1/2+z
1/2-x,1/2-y,1/2+z
1/2-x,1/2+y,1/2+z
1/2+x,1/2-y,1/2+z
loop_
_atom_site_type_symbol
_atom_site_label
_atom_site_fract_x
_atom_site_fract_y
_atom_site_fract_z
Si Si1 0.313455 0.186544 0.338330
Si Si2 0.324092 0.149053 0.044724
Si Si3 0.340756 0.307929 0.942980
Si Si4 0.192069 0.840754 0.733677
Si Si5 0.824983 0.917743 0.995197
Si Si6 0.079110 0.420888 0.338332
Si Si7 0.649055 0.175908 0.631935
Si Si8 0.417743 0.324984 0.681458
O O1 0.338267 0.151155 0.202505
O O2 0.231698 0.176199 0.367543
O O3 0.323806 0.268302 0.309117
O O4 0.348843 0.161730 0.474156
O O5 0.245278 0.123946 0.031214
O O6 0.336191 0.225734 0.980872
O O7 0.371768 0.098115 0.961193
O O8 0.400009 0.330458 0.840024
O O9 0.343592 0.343590 0.088328
O O10 0.274263 0.836186 0.695785
O O11 0.169542 0.900009 0.836631
O O12 0.884944 0.884946 0.088328
O O13 0.818554 0.000000 0.016000
O O14 0.089713 0.500000 0.298313
O O15 0.098121 0.371770 0.215471
O O16 0.000000 0.410272 0.378353
O O17 0.623943 0.254722 0.645440
O O18 0.500000 0.318557 0.660656
#
# Coordination Sequence:
#
# PCOD9373121 Si02
#       8
#     8   8   8   8   8   8   8   8
#     4  10  17  32  59  87 114 137 181 244 285 322
#     4  11  19  34  61  86 115 147 188 233 286 344
#     4  10  18  33  58  87 115 139 182 239 296 334
#     4  10  18  33  58  87 115 139 182 239 296 334
#     4  12  22  37  58  84 116 153 198 243 292 344
#     4  11  23  38  55  82 120 156 185 220 283 359
#     4  11  19  34  61  86 115 147 188 233 286 344
#     4  12  22  37  58  84 116 153 198 243 292 344
#
# _framework density 17.211057
#
# number of rings (size 3 to 8) (size 9 to 14) (size 15 to 20)
#    0.000    1.125    7.500    1.500    0.000    0.250 
#    0.000    3.750    0.000    1.500    0.000    0.000 
#    0.000    0.000    0.000    0.000    0.000    0.000 
#
# Total GULP energy -178446.783807 kJ/mol
# GULP energy per Si atom -5576.461994 kJ/mol
# Density = 1.717188 g / cm^3
# Si number density = 17.211057 Si / 1000 Ang^3
#
#
#
# Elastic Constant Matrix: (Units=GPa)
#
#
# Indices 1 2 3 4 5 6 
#
# 1 59.9029 17.6955 27.5782 0.0000 0.0000 0.0000
# 2 17.6955 59.8851 27.5640 0.0000 0.0000 0.0000
# 3 27.5782 27.5640 126.3172 0.0000 0.0000 0.0000
# 4 0.0000 0.0000 0.0000 21.9209 0.0000 0.0000
# 5 0.0000 0.0000 0.0000 0.0000 21.9187 0.0000
# 6 0.0000 0.0000 0.0000 0.0000 0.0000 18.4065
#
#
#
# Elastic Compliance Matrix: (Units=1/GPa)
#
#
# Indices 1 2 3 4 5 6 
#
# 1 0.019474 -0.004221 -0.003330 0.000000 0.000000 0.000000
# 2 -0.004221 0.019478 -0.003329 0.000000 0.000000 0.000000
# 3 -0.003330 -0.003329 0.009370 0.000000 0.000000 0.000000
# 4 0.000000 0.000000 0.000000 0.045619 0.000000 0.000000
# 5 0.000000 0.000000 0.000000 0.000000 0.045623 0.000000
# 6 0.000000 0.000000 0.000000 0.000000 0.000000 0.054329
#
#
# Mechanical properties :
#
#
# Convention : Reuss Voigt Hill
#
# Bulk Modulus (GPa) = 37.64923 43.53116 40.59020
# Shear Modulus (GPa) = 22.27098 24.00040 23.13569
#
# Velocity S-wave (km/s) = 3.60111 3.73832 3.67036
# Velocity P-wave (km/s) = 6.26204 6.63180 6.44958
#
# Compressibility (1/GPa) = 0.02656097
#
# Stress axis : x y z
#
# Youngs Moduli (GPa) = 51.35056 51.33951 106.72269
#
# Poissons Ratio (x) = 0.21673 0.35544
# Poissons Ratio (y) = 0.21677 0.35525
# Poissons Ratio (z) = 0.17102 0.17090
#
# Static dielectric constant tensor:
#      x y z
#    x 1.588230 0.000000 0.000000 
#    y 0.000000 1.588230 0.000000 
#    z 0.000000 0.000000 1.615780 
# 
# From -- ./inp_files/9128.got.cif
#   From: 2010.05.17/outbox.cif.g08.bks.cpg/sg44_5_cif.got.tgz:9128.got - 2010.06.03 19:37:08.
