data_PCOD9373212
_publ_section_title
;
Structure prediction by ZEFSAII (Michael W. Deem and Ramdas Pophale) SiO2 
 PCOD9373212
Probable space group: I M M 2
;
_chemical_formula_sum "Si O2"
_cell_formula_units_Z 56
_cell_length_a 8.605652
_cell_length_b 18.955336
_cell_length_c 21.536527
_cell_angle_alpha 90.000000
_cell_angle_beta 90.000000
_cell_angle_gamma 90.000000
_cell_volume 3513.103436
_symmetry_space_group_name_H-M "I M M 2"
_symmetry_group_IT_number 44
_symmetry_cell_setting 'orthorhombic'
loop_
_space_group_symop_operation_xyz
x,y,z
-x,-y,z
-x,y,z
x,-y,z
1/2+x,1/2+y,1/2+z
1/2-x,1/2-y,1/2+z
1/2-x,1/2+y,1/2+z
1/2+x,1/2-y,1/2+z
loop_
_atom_site_type_symbol
_atom_site_label
_atom_site_fract_x
_atom_site_fract_y
_atom_site_fract_z
Si Si1 0.184547 0.285612 0.539900
Si Si2 0.185622 0.918722 0.596638
Si Si3 0.813428 0.340625 0.974669
Si Si4 0.187453 0.081730 0.095273
Si Si5 0.687422 0.654351 0.725738
Si Si6 0.187511 0.418848 0.848675
Si Si7 0.314993 0.791821 0.661790
O O1 0.240163 0.237003 0.483215
O O2 0.236554 0.366563 0.544674
O O3 0.270323 0.249501 0.598628
O O4 0.000000 0.279576 0.547170
O O5 0.259667 0.887748 0.533424
O O6 0.237118 0.867601 0.652794
O O7 0.000000 0.914632 0.590300
O O8 0.231301 0.000000 0.605402
O O9 0.764021 0.378274 0.911139
O O10 0.000000 0.335153 0.976272
O O11 0.233305 0.110105 0.163997
O O12 0.000000 0.087958 0.091221
O O13 0.229778 0.000000 0.088567
O O14 0.500000 0.652396 0.728432
O O15 0.754826 0.620147 0.787217
O O16 0.734307 0.736143 0.714622
O O17 0.242066 0.500000 0.849511
O O18 0.000000 0.419669 0.848258
O O19 0.500000 0.800454 0.664584
#
# Coordination Sequence:
#
# PCOD9373212 Si02
#       7
#     8   8   8   8   8   8   8
#     4  10  18  28  44  66  90 115 147 187 229 267
#     4  10  19  29  44  69  95 116 144 185 230 269
#     4  10  19  32  47  62  87 123 158 186 217 263
#     4   9  17  30  47  67  92 121 151 182 220 268
#     4   9  18  31  46  65  89 119 153 185 217 257
#     4  10  21  33  45  65  91 120 154 187 218 256
#     4   9  17  30  46  63  86 118 153 183 218 268
#
# _framework density 15.940322
#
# number of rings (size 3 to 8) (size 9 to 14) (size 15 to 20)
#    0.000    2.429    0.000    6.000    0.000    6.857 
#    0.000    0.000    0.000    0.000    0.000    1.000 
#    0.000    5.714    0.000    0.000    0.000    0.000 
#
# Total GULP energy -156028.973509 kJ/mol
# GULP energy per Si atom -5572.463340 kJ/mol
# Density = 1.590404 g / cm^3
# Si number density = 15.940322 Si / 1000 Ang^3
#
#
#
# Elastic Constant Matrix: (Units=GPa)
#
#
# Indices 1 2 3 4 5 6 
#
# 1 9.3335 25.0716 12.1266 0.0000 0.0000 0.0000
# 2 25.0716 156.5474 65.3963 0.0000 0.0000 0.0000
# 3 12.1266 65.3963 76.0855 0.0000 0.0000 0.0000
# 4 0.0000 0.0000 0.0000 26.9366 0.0000 0.0000
# 5 0.0000 0.0000 0.0000 0.0000 21.8305 0.0000
# 6 0.0000 0.0000 0.0000 0.0000 0.0000 23.8524
#
#
#
# Elastic Compliance Matrix: (Units=1/GPa)
#
#
# Indices 1 2 3 4 5 6 
#
# 1 0.190036 -0.027744 -0.006442 0.000000 0.000000 0.000000
# 2 -0.027744 0.014017 -0.007626 0.000000 0.000000 0.000000
# 3 -0.006442 -0.007626 0.020724 0.000000 0.000000 0.000000
# 4 0.000000 0.000000 0.000000 0.037124 0.000000 0.000000
# 5 0.000000 0.000000 0.000000 0.000000 0.045807 0.000000
# 6 0.000000 0.000000 0.000000 0.000000 0.000000 0.041925
#
#
# Mechanical properties :
#
#
# Convention : Reuss Voigt Hill
#
# Bulk Modulus (GPa) = 7.08446 49.68396 28.38421
# Shear Modulus (GPa) = 10.40999 23.81535 17.11267
#
# Velocity S-wave (km/s) = 2.55828 3.86946 3.28006
# Velocity P-wave (km/s) = 3.63048 7.15542 5.67364
#
# Compressibility (1/GPa) = 0.14115396
#
# Stress axis : x y z
#
# Youngs Moduli (GPa) = 5.26215 71.34375 48.25280
#
# Poissons Ratio (x) = 1.97935 0.31085
# Poissons Ratio (y) = 0.14599 0.36796
# Poissons Ratio (z) = 0.03390 0.54404
#
# Static dielectric constant tensor:
#      x y z
#    x 1.539060 0.000000 0.000000 
#    y 0.000000 1.573270 0.000000 
#    z 0.000000 0.000000 1.514700 
# 
# From -- ./inp_files/23375.got.cif
#   From: 2010.05.17/outbox.cif.g08.bks.cpg/sg44_12_cif.got.tgz:23375.got - 2010.06.03 19:37:08.
