data_PCOD9373842
_publ_section_title
;
Structure prediction by ZEFSAII (Michael W. Deem and Ramdas Pophale) SiO2 
 PCOD9373842
Probable space group: I M M 2
;
_chemical_formula_sum "Si O2"
_cell_formula_units_Z 56
_cell_length_a 7.537034
_cell_length_b 21.656216
_cell_length_c 14.372204
_cell_angle_alpha 90.000000
_cell_angle_beta 90.000000
_cell_angle_gamma 90.000000
_cell_volume 2345.883399
_symmetry_space_group_name_H-M "I M M 2"
_symmetry_group_IT_number 44
_symmetry_cell_setting 'orthorhombic'
loop_
_space_group_symop_operation_xyz
x,y,z
-x,-y,z
-x,y,z
x,-y,z
1/2+x,1/2+y,1/2+z
1/2-x,1/2-y,1/2+z
1/2-x,1/2+y,1/2+z
1/2+x,1/2-y,1/2+z
loop_
_atom_site_type_symbol
_atom_site_label
_atom_site_fract_x
_atom_site_fract_y
_atom_site_fract_z
Si Si1 0.285089 0.396614 0.338420
Si Si2 0.207187 0.569537 0.828160
Si Si3 0.206227 0.337510 0.996853
Si Si4 0.289741 0.743186 0.345217
Si Si5 0.304978 0.334166 0.681943
Si Si6 0.708846 0.067025 0.634049
Si Si7 0.782810 0.932126 0.043277
O O1 0.500000 0.397075 0.335861
O O2 0.220802 0.325786 0.338542
O O3 0.223246 0.428359 0.244554
O O4 0.233425 0.427590 0.435335
O O5 0.267604 0.500000 0.836502
O O6 0.212648 0.605278 0.924983
O O7 0.312512 0.608737 0.753750
O O8 0.000000 0.570730 0.798866
O O9 0.283154 0.281930 0.934019
O O10 0.000000 0.320978 0.016030
O O11 0.284364 0.369796 0.088652
O O12 0.500000 0.739457 0.361305
O O13 0.269879 0.780434 0.247956
O O14 0.500000 0.312856 0.652387
O O15 0.218121 0.369845 0.595119
O O16 0.500000 0.066562 0.608884
O O17 0.782729 0.000000 0.603952
O O18 0.000000 0.930295 0.049603
O O19 0.727853 0.000000 0.080791
#
# Coordination Sequence:
#
# PCOD9373842 Si02
#       7
#     8   8   8   8   8   8   8
#     4  10  21  37  56  75 100 138 179 216 253 300
#     4   9  16  28  48  73 102 137 172 206 251 307
#     4   8  15  30  52  74  99 133 171 209 249 301
#     4   9  19  36  55  77 104 135 173 212 254 307
#     4  10  19  31  51  77 104 134 168 211 261 307
#     4  10  20  34  54  81 108 133 167 213 261 305
#     4   9  18  33  53  77 103 133 172 214 255 302
#
# _framework density 23.871603
#
# number of rings (size 3 to 8) (size 9 to 14) (size 15 to 20)
#    0.000    2.714    0.000    2.571    0.000    5.143 
#    0.000    7.143    0.000    6.857    0.000    0.000 
#    0.000    0.000    0.000    0.000    0.000    0.000 
#
# Total GULP energy -156177.324918 kJ/mol
# GULP energy per Si atom -5577.761604 kJ/mol
# Density = 2.381727 g / cm^3
# Si number density = 23.871603 Si / 1000 Ang^3
#
#
#
# Elastic Constant Matrix: (Units=GPa)
#
#
# Indices 1 2 3 4 5 6 
#
# 1 51.4279 1.5320 -1.0909 0.0000 0.0000 -0.0001
# 2 1.5320 129.0803 14.9718 0.0000 0.0000 -0.0001
# 3 -1.0909 14.9718 94.4906 -0.0001 0.0000 -0.0004
# 4 0.0000 0.0000 -0.0001 30.1019 0.0000 0.0000
# 5 0.0000 0.0000 0.0000 0.0000 18.1485 0.0001
# 6 -0.0001 -0.0001 -0.0004 0.0000 0.0001 27.5708
#
#
#
# Elastic Compliance Matrix: (Units=1/GPa)
#
#
# Indices 1 2 3 4 5 6 
#
# 1 0.019458 -0.000262 0.000266 0.000000 0.000000 0.000000
# 2 -0.000262 0.007896 -0.001254 0.000000 0.000000 0.000000
# 3 0.000266 -0.001254 0.010785 0.000000 0.000000 0.000000
# 4 0.000000 0.000000 0.000000 0.033220 0.000000 0.000000
# 5 0.000000 0.000000 0.000000 0.000000 0.055101 0.000000
# 6 0.000000 0.000000 0.000000 0.000000 0.000000 0.036270
#
#
# Mechanical properties :
#
#
# Convention : Reuss Voigt Hill
#
# Bulk Modulus (GPa) = 28.05903 33.98052 31.01977
# Shear Modulus (GPa) = 28.23109 32.46996 30.35053
#
# Velocity S-wave (km/s) = 3.44266 3.69208 3.56955
# Velocity P-wave (km/s) = 5.25187 5.69569 5.47828
#
# Compressibility (1/GPa) = 0.03563916
#
# Stress axis : x y z
#
# Youngs Moduli (GPa) = 51.39236 126.65156 92.72278
#
# Poissons Ratio (x) = 0.03316 -0.02468
# Poissons Ratio (y) = 0.01346 0.11628
# Poissons Ratio (z) = -0.01368 0.15883
#
# Static dielectric constant tensor:
#      x y z
#    x 1.912440 0.000000 0.000000 
#    y 0.000000 1.915010 0.000000 
#    z 0.000000 0.000000 1.938780 
# 
# From -- ./inp_files/16436.got.cif
#   From: 2010.05.17/outbox.cif.g08.bks.cpg/sg44_9_cif.got.tgz:16436.got - 2010.06.03 19:37:08.
