data_PCOD9373380
_publ_section_title
;
Structure prediction by ZEFSAII (Michael W. Deem and Ramdas Pophale) SiO2 
 PCOD9373380
Probable space group: I M M 2
;
_chemical_formula_sum "Si O2"
_cell_formula_units_Z 64
_cell_length_a 23.984604
_cell_length_b 8.814035
_cell_length_c 19.473755
_cell_angle_alpha 90.000000
_cell_angle_beta 90.000000
_cell_angle_gamma 90.000000
_cell_volume 4116.773990
_symmetry_space_group_name_H-M "I M M 2"
_symmetry_group_IT_number 44
_symmetry_cell_setting 'orthorhombic'
loop_
_space_group_symop_operation_xyz
x,y,z
-x,-y,z
-x,y,z
x,-y,z
1/2+x,1/2+y,1/2+z
1/2-x,1/2-y,1/2+z
1/2-x,1/2+y,1/2+z
1/2+x,1/2-y,1/2+z
loop_
_atom_site_type_symbol
_atom_site_label
_atom_site_fract_x
_atom_site_fract_y
_atom_site_fract_z
Si Si1 0.230502 0.680491 0.742890
Si Si2 0.123434 0.183009 0.387006
Si Si3 0.772488 0.319585 0.027433
Si Si4 0.164288 0.681517 0.163249
Si Si5 0.252615 0.179906 0.885292
Si Si6 0.063350 0.815175 0.528396
Si Si7 0.564588 0.317357 0.742828
Si Si8 0.664431 0.318063 0.120978
O O1 0.233281 0.500000 0.744932
O O2 0.288666 0.744206 0.711887
O O3 0.224018 0.746563 0.818824
O O4 0.183250 0.736444 0.690238
O O5 0.183845 0.258837 0.386518
O O6 0.089116 0.228192 0.454754
O O7 0.089436 0.219957 0.318046
O O8 0.131205 0.000000 0.389109
O O9 0.774922 0.500000 0.013710
O O10 0.818395 0.280864 0.085072
O O11 0.713009 0.289742 0.064609
O O12 0.775129 0.230888 0.956603
O O13 0.168280 0.500000 0.170591
O O14 0.104633 0.740535 0.187261
O O15 0.252818 0.000000 0.878685
O O16 0.106078 0.768795 0.588048
O O17 0.000000 0.762225 0.536450
O O18 0.062663 0.000000 0.528912
O O19 0.500000 0.272491 0.737848
O O20 0.567798 0.500000 0.735668
O O21 0.663880 0.500000 0.132497
#
# Coordination Sequence:
#
# PCOD9373380 Si02
#       8
#     8   8   8   8   8   8   8   8
#     4  11  21  33  50  69  95 130 165 202 250 300
#     4  10  18  31  47  68 100 137 173 203 234 279
#     4   9  18  33  50  69  96 129 162 200 249 299
#     4  10  20  34  51  72  97 128 165 207 250 292
#     4  12  22  31  48  74 100 128 164 204 249 296
#     4   9  16  28  49  73  98 133 172 203 235 280
#     4  10  20  32  49  73 101 137 176 207 238 285
#     4   9  17  31  49  72  99 126 163 206 243 284
#
# _framework density 15.546154
#
# number of rings (size 3 to 8) (size 9 to 14) (size 15 to 20)
#    0.000    2.000    2.500    3.750    0.000    4.250 
#    0.000    0.000    0.000    2.250    0.000    0.875 
#    0.000    5.000    0.000    0.000    0.000    0.000 
#
# Total GULP energy -178582.748628 kJ/mol
# GULP energy per Si atom -5580.710895 kJ/mol
# Density = 1.551077 g / cm^3
# Si number density = 15.546154 Si / 1000 Ang^3
#
#
#
# Elastic Constant Matrix: (Units=GPa)
#
#
# Indices 1 2 3 4 5 6 
#
# 1 96.0952 35.3151 69.6930 0.0000 0.0000 0.0000
# 2 35.3151 53.2288 58.7719 0.0000 0.0000 0.0000
# 3 69.6930 58.7719 135.4319 0.0000 0.0000 0.0000
# 4 0.0000 0.0000 0.0000 24.2132 0.0000 0.0000
# 5 0.0000 0.0000 0.0000 0.0000 19.7782 0.0000
# 6 0.0000 0.0000 0.0000 0.0000 0.0000 18.1271
#
#
#
# Elastic Compliance Matrix: (Units=1/GPa)
#
#
# Indices 1 2 3 4 5 6 
#
# 1 0.016862 -0.003084 -0.007339 0.000000 0.000000 0.000000
# 2 -0.003084 0.036634 -0.014310 0.000000 0.000000 0.000000
# 3 -0.007339 -0.014310 0.017370 0.000000 0.000000 0.000000
# 4 0.000000 0.000000 0.000000 0.041300 0.000000 0.000000
# 5 0.000000 0.000000 0.000000 0.000000 0.050561 0.000000
# 6 0.000000 0.000000 0.000000 0.000000 0.000000 0.055166
#
#
# Mechanical properties :
#
#
# Convention : Reuss Voigt Hill
#
# Bulk Modulus (GPa) = 46.73023 68.03509 57.38266
# Shear Modulus (GPa) = 18.21538 20.48876 19.35207
#
# Velocity S-wave (km/s) = 3.42672 3.63427 3.53202
# Velocity P-wave (km/s) = 6.76615 7.84021 7.32290
#
# Compressibility (1/GPa) = 0.02139942
#
# Stress axis : x y z
#
# Youngs Moduli (GPa) = 59.30370 27.29727 57.56907
#
# Poissons Ratio (x) = 0.08419 0.42249
# Poissons Ratio (y) = 0.18291 0.82383
# Poissons Ratio (z) = 0.43522 0.39063
#
# Static dielectric constant tensor:
#      x y z
#    x 1.502860 0.000000 0.000000 
#    y 0.000000 1.521220 0.000000 
#    z 0.000000 0.000000 1.516110 
# 
# From -- ./inp_files/20885.got.cif
#   From: 2010.05.17/outbox.cif.g08.bks.cpg/sg44_11_cif.got.tgz:20885.got - 2010.06.03 19:37:08.
