data_PCOD9373302
_publ_section_title
;
Structure prediction by ZEFSAII (Michael W. Deem and Ramdas Pophale) SiO2 
 PCOD9373302
Probable space group: I M M 2
;
_chemical_formula_sum "Si O2"
_cell_formula_units_Z 64
_cell_length_a 7.734861
_cell_length_b 30.359409
_cell_length_c 12.441491
_cell_angle_alpha 90.000000
_cell_angle_beta 90.000000
_cell_angle_gamma 90.000000
_cell_volume 2921.583185
_symmetry_space_group_name_H-M "I M M 2"
_symmetry_group_IT_number 44
_symmetry_cell_setting 'orthorhombic'
loop_
_space_group_symop_operation_xyz
x,y,z
-x,-y,z
-x,y,z
x,-y,z
1/2+x,1/2+y,1/2+z
1/2-x,1/2-y,1/2+z
1/2-x,1/2+y,1/2+z
1/2+x,1/2-y,1/2+z
loop_
_atom_site_type_symbol
_atom_site_label
_atom_site_fract_x
_atom_site_fract_y
_atom_site_fract_z
Si Si1 0.202205 0.849921 0.327920
Si Si2 0.301279 0.064845 0.061480
Si Si3 0.203280 0.844559 0.972700
Si Si4 0.796646 0.777811 0.156448
Si Si5 0.291579 0.047045 0.822006
Si Si6 0.301025 0.450378 0.798629
Si Si7 0.696311 0.809699 0.552371
Si Si8 0.198030 0.138369 0.739260
O O1 0.274522 0.813453 0.242689
O O2 0.272750 0.900934 0.329289
O O3 0.215481 0.826387 0.443673
O O4 0.000000 0.855587 0.297037
O O5 0.500000 0.051356 0.075911
O O6 0.204070 0.051727 0.168634
O O7 0.292344 0.117093 0.040558
O O8 0.236637 0.047376 0.947024
O O9 0.268190 0.841227 0.851059
O O10 0.000000 0.856793 0.965064
O O11 0.215602 0.800971 0.040808
O O12 0.726271 0.729465 0.127533
O O13 0.000000 0.771832 0.186404
O O14 0.500000 0.053595 0.823693
O O15 0.205681 0.086785 0.761821
O O16 0.253025 0.000000 0.773267
O O17 0.500000 0.450498 0.836440
O O18 0.229188 0.500000 0.827648
O O19 0.500000 0.796688 0.523215
O O20 0.696266 0.849816 0.635102
O O21 0.000000 0.152077 0.723209
#
# Coordination Sequence:
#
# PCOD9373302 Si02
#       8
#     8   8   8   8   8   8   8   8
#     4  10  21  41  63  84 117 153 195 247 299 352
#     4  10  18  29  49  82 121 154 183 228 286 346
#     4   9  17  34  57  81 112 151 189 231 281 336
#     4   9  19  37  61  85 113 150 186 235 295 347
#     4   9  18  33  53  79 115 156 194 238 293 346
#     4  10  20  35  58  84 113 155 200 241 290 350
#     4  11  24  40  60  85 116 154 197 241 297 356
#     4  10  21  36  58  84 114 151 195 241 283 337
#
# _framework density 21.905930999999999
#
# number of rings (size 3 to 8) (size 9 to 14) (size 15 to 20)
#    0.000    2.250    1.250    1.500    1.750    2.500 
#    0.000    2.500    0.000    2.250    0.000    0.000 
#    0.000    0.000    0.000    0.000    0.000    0.000 
#
# Total GULP energy -178261.966887 kJ/mol
# GULP energy per Si atom -5570.686465 kJ/mol
# Density = 2.185607 g / cm^3
# Si number density = 21.905931 Si / 1000 Ang^3
#
#
#
# Elastic Constant Matrix: (Units=GPa)
#
#
# Indices 1 2 3 4 5 6 
#
# 1 35.0025 12.6914 2.6964 0.0000 0.0000 0.0000
# 2 12.6914 133.2919 46.9247 0.0000 0.0000 0.0000
# 3 2.6964 46.9247 83.5619 -0.0001 0.0000 0.0000
# 4 0.0000 0.0000 -0.0001 -50.0371 0.0000 -0.0001
# 5 0.0000 0.0000 0.0000 0.0000 13.1753 0.0000
# 6 0.0000 0.0000 0.0000 -0.0001 0.0000 17.1294
#
#
#
# Elastic Compliance Matrix: (Units=1/GPa)
#
#
# Indices 1 2 3 4 5 6 
#
# 1 0.029632 -0.003097 0.000783 0.000000 0.000000 0.000000
# 2 -0.003097 0.009675 -0.005333 0.000000 0.000000 0.000000
# 3 0.000783 -0.005333 0.014937 0.000000 0.000000 0.000000
# 4 0.000000 0.000000 0.000000 -0.019985 0.000000 0.000000
# 5 0.000000 0.000000 0.000000 0.000000 0.075900 0.000000
# 6 0.000000 0.000000 0.000000 0.000000 0.000000 0.058379
#
#
# Mechanical properties :
#
#
# Convention : Reuss Voigt Hill
#
# Bulk Modulus (GPa) = 25.67437 41.83125 33.75281
# Shear Modulus (GPa) = 25.40471 8.68977 17.04724
#
# Velocity S-wave (km/s) = 3.40916 1.99386 2.79265
# Velocity P-wave (km/s) = 5.21941 4.94347 5.08331
#
# Compressibility (1/GPa) = 0.03894935
#
# Stress axis : x y z
#
# Youngs Moduli (GPa) = 33.74729 103.36302 66.94947
#
# Poissons Ratio (x) = 0.32012 -0.05242
# Poissons Ratio (y) = 0.10452 0.35704
# Poissons Ratio (z) = -0.02642 0.55123
#
# Static dielectric constant tensor:
#      x y z
#    x 1.845390 0.000000 0.000000 
#    y 0.000000 1.905960 0.000000 
#    z 0.000000 0.000000 1.757690 
# 
# From -- ./inp_files/11457.got.cif
#   From: 2010.05.17/outbox.cif.g08.bks.cpg/sg44_6_cif.got.tgz:11457.got - 2010.06.03 19:37:08.
