data_PCOD9373252
_publ_section_title
;
Structure prediction by ZEFSAII (Michael W. Deem and Ramdas Pophale) SiO2 
 PCOD9373252
Probable space group: I M M 2
;
_chemical_formula_sum "Si O2"
_cell_formula_units_Z 56
_cell_length_a 14.010792
_cell_length_b 12.748018
_cell_length_c 18.008858
_cell_angle_alpha 90.000000
_cell_angle_beta 90.000000
_cell_angle_gamma 90.000000
_cell_volume 3216.559041
_symmetry_space_group_name_H-M "I M M 2"
_symmetry_group_IT_number 44
_symmetry_cell_setting 'orthorhombic'
loop_
_space_group_symop_operation_xyz
x,y,z
-x,-y,z
-x,y,z
x,-y,z
1/2+x,1/2+y,1/2+z
1/2-x,1/2-y,1/2+z
1/2-x,1/2+y,1/2+z
1/2+x,1/2-y,1/2+z
loop_
_atom_site_type_symbol
_atom_site_label
_atom_site_fract_x
_atom_site_fract_y
_atom_site_fract_z
Si Si1 0.611794 0.231783 0.236750
Si Si2 0.108703 0.620777 0.887626
Si Si3 0.722200 0.878384 0.797052
Si Si4 0.111914 0.377823 0.143089
Si Si5 0.607934 0.500000 0.913779
Si Si6 0.392178 0.500000 0.093210
Si Si7 0.202344 0.779727 0.424786
Si Si8 0.203668 0.220225 0.593786
O O1 0.500000 0.259949 0.227850
O O2 0.616174 0.141097 0.299064
O O3 0.679344 0.322722 0.271135
O O4 0.659259 0.206189 0.157195
O O5 0.129571 0.500000 0.905604
O O6 0.184976 0.695298 0.925539
O O7 0.000000 0.643499 0.909507
O O8 0.648375 0.872141 0.728330
O O9 0.684409 0.813100 0.867336
O O10 0.737948 0.000000 0.814307
O O11 0.125620 0.500000 0.118359
O O12 0.183161 0.299203 0.100793
O O13 0.000000 0.354102 0.136516
O O14 0.500000 0.500000 0.885672
O O15 0.657559 0.389520 0.895333
O O16 0.606135 0.500000 0.003670
O O17 0.500000 0.500000 0.121183
O O18 0.339066 0.394416 0.114839
O O19 0.172988 0.757148 0.509528
#
# Coordination Sequence:
#
# PCOD9373252 Si02
#       8
#     8   8   8   8   4   4   8   8
#     4   9  18  31  49  73  98 127 162 201 245 292
#     4   9  17  31  51  72  96 128 162 200 246 292
#     4   9  19  34  50  71  97 130 171 202 237 286
#     4   9  17  30  47  67  94 127 163 202 241 285
#     4   9  18  30  45  69  97 127 157 188 238 292
#     4   9  16  26  41  63  93 123 145 184 242 290
#     4  10  19  32  50  71 103 130 160 204 245 290
#     4  10  18  29  44  70  97 124 157 198 247 294
#
# _framework density 17.409908999999999
#
# number of rings (size 3 to 8) (size 9 to 14) (size 15 to 20)
#    0.000    2.714    1.429    0.429    1.000    2.000 
#    0.000    2.143    0.000    0.000    0.000    0.000 
#    0.000    0.000    0.000    0.000    0.000    0.000 
#
# Total GULP energy -155943.703088 kJ/mol
# GULP energy per Si atom -5569.417967 kJ/mol
# Density = 1.737028 g / cm^3
# Si number density = 17.409909 Si / 1000 Ang^3
#
#
#
# Elastic Constant Matrix: (Units=GPa)
#
#
# Indices 1 2 3 4 5 6 
#
# 1 72.5774 -1.6459 -3.4668 0.0000 0.0000 0.0000
# 2 -1.6459 36.1090 13.3565 0.0000 0.0000 0.0000
# 3 -3.4668 13.3565 70.0764 0.0000 0.0000 0.0000
# 4 0.0000 0.0000 0.0000 13.8082 0.0000 0.0000
# 5 0.0000 0.0000 0.0000 0.0000 15.9390 0.0000
# 6 0.0000 0.0000 0.0000 0.0000 0.0000 14.8386
#
#
#
# Elastic Compliance Matrix: (Units=1/GPa)
#
#
# Indices 1 2 3 4 5 6 
#
# 1 0.013817 0.000406 0.000606 0.000000 0.000000 0.000000
# 2 0.000406 0.029806 -0.005661 0.000000 0.000000 0.000000
# 3 0.000606 -0.005661 0.015379 0.000000 0.000000 0.000000
# 4 0.000000 0.000000 0.000000 0.072421 0.000000 0.000000
# 5 0.000000 0.000000 0.000000 0.000000 0.062739 0.000000
# 6 0.000000 0.000000 0.000000 0.000000 0.000000 0.067392
#
#
# Mechanical properties :
#
#
# Convention : Reuss Voigt Hill
#
# Bulk Modulus (GPa) = 20.11926 21.69447 20.90686
# Shear Modulus (GPa) = 17.39614 20.28510 18.84062
#
# Velocity S-wave (km/s) = 3.16446 3.41713 3.29322
# Velocity P-wave (km/s) = 4.99330 5.29689 5.14733
#
# Compressibility (1/GPa) = 0.04970362
#
# Stress axis : x y z
#
# Youngs Moduli (GPa) = 72.37693 33.54988 65.02332
#
# Poissons Ratio (x) = -0.01361 -0.03942
# Poissons Ratio (y) = -0.02935 0.36810
# Poissons Ratio (z) = -0.04388 0.18993
#
# Static dielectric constant tensor:
#      x y z
#    x 1.623020 0.000000 0.000000 
#    y 0.000000 1.570010 0.000000 
#    z 0.000000 0.000000 1.623450 
# 
# From -- ./inp_files/21924.got.cif
#   From: 2010.05.17/outbox.cif.g08.bks.cpg/sg44_11_cif.got.tgz:21924.got - 2010.06.03 19:37:08.
