data_PCOD9373686
_publ_section_title
;
Structure prediction by ZEFSAII (Michael W. Deem and Ramdas Pophale) SiO2 
 PCOD9373686
Probable space group: I M M 2
;
_chemical_formula_sum "Si O2"
_cell_formula_units_Z 64
_cell_length_a 28.943191
_cell_length_b 8.443254
_cell_length_c 15.040645
_cell_angle_alpha 90.000000
_cell_angle_beta 90.000000
_cell_angle_gamma 90.000000
_cell_volume 3675.553308
_symmetry_space_group_name_H-M "I M M 2"
_symmetry_group_IT_number 44
_symmetry_cell_setting 'orthorhombic'
loop_
_space_group_symop_operation_xyz
x,y,z
-x,-y,z
-x,y,z
x,-y,z
1/2+x,1/2+y,1/2+z
1/2-x,1/2-y,1/2+z
1/2-x,1/2+y,1/2+z
1/2+x,1/2-y,1/2+z
loop_
_atom_site_type_symbol
_atom_site_label
_atom_site_fract_x
_atom_site_fract_y
_atom_site_fract_z
Si Si1 0.219842 0.689430 0.304160
Si Si2 0.176563 0.311108 0.010206
Si Si3 0.322308 0.191220 0.308771
Si Si4 0.364264 0.310920 0.685154
Si Si5 0.865159 0.306562 0.630565
Si Si6 0.778791 0.690744 0.510320
Si Si7 0.552955 0.691424 0.808948
Si Si8 0.947143 0.691543 0.505299
O O1 0.220762 0.500000 0.297110
O O2 0.270597 0.755937 0.283010
O O3 0.180067 0.755171 0.241436
O O4 0.210686 0.732106 0.407592
O O5 0.174109 0.500000 0.009959
O O6 0.142397 0.246951 0.084804
O O7 0.229004 0.261247 0.033872
O O8 0.168107 0.252185 0.909237
O O9 0.357331 0.244494 0.232034
O O10 0.322634 0.000000 0.310676
O O11 0.365003 0.500000 0.685020
O O12 0.410306 0.253404 0.735742
O O13 0.865825 0.500000 0.630061
O O14 0.820279 0.257633 0.573692
O O15 0.911081 0.253363 0.579680
O O16 0.775122 0.500000 0.515789
O O17 0.500000 0.743434 0.792362
O O18 0.553246 0.500000 0.809981
O O19 0.566574 0.750541 0.907090
O O20 0.946550 0.500000 0.504242
O O21 0.000000 0.743249 0.521528
#
# Coordination Sequence:
#
# PCOD9373686 Si02
#       8
#     8   8   8   8   8   8   8   8
#     4  10  19  30  46  71 101 127 155 193 232 276
#     4  10  20  32  46  66  93 124 160 200 236 271
#     4   9  18  32  48  66  94 131 164 195 232 273
#     4  11  21  32  49  69  91 124 161 195 237 285
#     4   9  16  28  47  68  91 122 156 186 223 275
#     4   9  17  29  46  68  96 127 154 184 227 278
#     4   9  19  35  52  71  95 121 150 187 233 284
#     4   9  17  30  50  75  99 122 150 186 230 280
#
# _framework density 17.412344000000001
#
# number of rings (size 3 to 8) (size 9 to 14) (size 15 to 20)
#    0.000    2.500    0.000    2.625    0.000    4.000 
#    0.000    1.250    0.000    0.750    0.000    1.750 
#    0.000    0.000    0.000    0.000    0.000    0.000 
#
# Total GULP energy -178525.545173 kJ/mol
# GULP energy per Si atom -5578.923287 kJ/mol
# Density = 1.737271 g / cm^3
# Si number density = 17.412344 Si / 1000 Ang^3
#
#
#
# Elastic Constant Matrix: (Units=GPa)
#
#
# Indices 1 2 3 4 5 6 
#
# 1 99.6990 12.4799 93.9221 0.0000 0.0000 0.0000
# 2 12.4799 7.2085 16.1516 0.0000 0.0000 0.0000
# 3 93.9221 16.1516 125.0411 0.0000 0.0000 0.0000
# 4 0.0000 0.0000 0.0000 19.0263 0.0000 0.0000
# 5 0.0000 0.0000 0.0000 0.0000 32.7489 0.0000
# 6 0.0000 0.0000 0.0000 0.0000 0.0000 14.8007
#
#
#
# Elastic Compliance Matrix: (Units=1/GPa)
#
#
# Indices 1 2 3 4 5 6 
#
# 1 0.034332 -0.002332 -0.025486 0.000000 0.000000 0.000000
# 2 -0.002332 0.195386 -0.023486 0.000000 0.000000 0.000000
# 3 -0.025486 -0.023486 0.030175 0.000000 0.000000 0.000000
# 4 0.000000 0.000000 0.000000 0.052559 0.000000 0.000000
# 5 0.000000 0.000000 0.000000 0.000000 0.030535 0.000000
# 6 0.000000 0.000000 0.000000 0.000000 0.000000 0.067564
#
#
# Mechanical properties :
#
#
# Convention : Reuss Voigt Hill
#
# Bulk Modulus (GPa) = 6.35799 53.00620 29.68209
# Shear Modulus (GPa) = 8.84037 20.60818 14.72427
#
# Velocity S-wave (km/s) = 2.25568 3.44399 2.91111
# Velocity P-wave (km/s) = 3.23164 6.80607 5.32757
#
# Compressibility (1/GPa) = 0.15728253
#
# Stress axis : x y z
#
# Youngs Moduli (GPa) = 29.12762 5.11808 33.14048
#
# Poissons Ratio (x) = 0.01194 0.84463
# Poissons Ratio (y) = 0.06794 0.77834
# Poissons Ratio (z) = 0.74235 0.12020
#
# Static dielectric constant tensor:
#      x y z
#    x 1.577890 0.000000 0.000000 
#    y 0.000000 1.595300 0.000000 
#    z 0.000000 0.000000 1.611450 
# 
# From -- ./inp_files/19680.got.cif
#   From: 2010.05.17/outbox.cif.g08.bks.cpg/sg44_10_cif.got.tgz:19680.got - 2010.06.03 19:37:08.
