data_PCOD9373901
_publ_section_title
;
Structure prediction by ZEFSAII (Michael W. Deem and Ramdas Pophale) SiO2 
 PCOD9373901
Probable space group: I M M 2
;
_chemical_formula_sum "Si O2"
_cell_formula_units_Z 64
_cell_length_a 23.926963
_cell_length_b 8.877469
_cell_length_c 19.472544
_cell_angle_alpha 90.000000
_cell_angle_beta 90.000000
_cell_angle_gamma 90.000000
_cell_volume 4136.180057
_symmetry_space_group_name_H-M "I M M 2"
_symmetry_group_IT_number 44
_symmetry_cell_setting 'orthorhombic'
loop_
_space_group_symop_operation_xyz
x,y,z
-x,-y,z
-x,y,z
x,-y,z
1/2+x,1/2+y,1/2+z
1/2-x,1/2-y,1/2+z
1/2-x,1/2+y,1/2+z
1/2+x,1/2-y,1/2+z
loop_
_atom_site_type_symbol
_atom_site_label
_atom_site_fract_x
_atom_site_fract_y
_atom_site_fract_z
Si Si1 0.247266 0.819559 0.053730
Si Si2 0.563885 0.818121 0.692583
Si Si3 0.228514 0.820298 0.409726
Si Si4 0.838379 0.680020 0.820565
Si Si5 0.935026 0.181583 0.908203
Si Si6 0.384009 0.318693 0.555624
Si Si7 0.275197 0.320288 0.196730
Si Si8 0.334727 0.819447 0.786766
O O1 0.181387 0.776340 0.054594
O O2 0.275011 0.752275 0.121827
O O3 0.250544 0.000000 0.054381
O O4 0.273142 0.755684 0.983852
O O5 0.500000 0.771946 0.705140
O O6 0.585609 0.753856 0.620511
O O7 0.607254 0.772026 0.752006
O O8 0.565866 0.000000 0.688964
O O9 0.287919 0.780682 0.373491
O O10 0.181706 0.761000 0.357254
O O11 0.225722 0.000000 0.416002
O O12 0.840079 0.500000 0.814316
O O13 0.895210 0.743205 0.852161
O O14 0.821080 0.752915 0.748278
O O15 0.000000 0.221610 0.900830
O O16 0.929946 0.000000 0.903156
O O17 0.912841 0.225390 0.983919
O O18 0.387452 0.500000 0.561420
O O19 0.280669 0.500000 0.192367
O O20 0.215190 0.286204 0.232631
O O21 0.335073 0.000000 0.797432
#
# Coordination Sequence:
#
# PCOD9373901 Si02
#       8
#     8   8   8   8   8   8   8   8
#     4  11  20  31  50  74 100 131 164 200 245 295
#     4  10  20  33  49  70  98 133 171 206 241 284
#     4  10  20  32  49  71  96 126 162 204 248 295
#     4  10  20  33  49  71  98 127 165 209 250 293
#     4  10  20  34  50  69  97 135 175 208 244 291
#     4  10  20  32  47  68  99 135 171 204 236 283
#     4  10  19  32  51  71  97 129 163 202 248 297
#     4   9  18  32  48  68  95 128 163 202 245 287
#
# _framework density 15.473215
#
# number of rings (size 3 to 8) (size 9 to 14) (size 15 to 20)
#    0.000    2.000    2.500    1.875    0.000    4.000 
#    0.000    0.000    0.000    0.000    0.000    0.875 
#    0.000    5.000    0.000    0.000    0.000    0.000 
#
# Total GULP energy -178607.052601 kJ/mol
# GULP energy per Si atom -5581.470394 kJ/mol
# Density = 1.543800 g / cm^3
# Si number density = 15.473215 Si / 1000 Ang^3
#
#
#
# Elastic Constant Matrix: (Units=GPa)
#
#
# Indices 1 2 3 4 5 6 
#
# 1 102.8058 33.6143 77.4813 0.0000 0.0000 0.0000
# 2 33.6143 31.5711 54.1923 0.0000 0.0000 0.0000
# 3 77.4813 54.1923 155.3609 0.0000 0.0000 0.0000
# 4 0.0000 0.0000 0.0000 30.8403 0.0000 0.0000
# 5 0.0000 0.0000 0.0000 0.0000 19.7603 0.0000
# 6 0.0000 0.0000 0.0000 0.0000 0.0000 18.7973
#
#
#
# Elastic Compliance Matrix: (Units=1/GPa)
#
#
# Indices 1 2 3 4 5 6 
#
# 1 0.016464 -0.008562 -0.005224 0.000000 0.000000 0.000000
# 2 -0.008562 0.083392 -0.024818 0.000000 0.000000 0.000000
# 3 -0.005224 -0.024818 0.017699 0.000000 0.000000 0.000000
# 4 0.000000 0.000000 0.000000 0.032425 0.000000 0.000000
# 5 0.000000 0.000000 0.000000 0.000000 0.050607 0.000000
# 6 0.000000 0.000000 0.000000 0.000000 0.000000 0.053199
#
#
# Mechanical properties :
#
#
# Convention : Reuss Voigt Hill
#
# Bulk Modulus (GPa) = 24.78576 68.92373 46.85474
# Shear Modulus (GPa) = 14.51617 22.17622 18.34620
#
# Velocity S-wave (km/s) = 3.06624 3.78987 3.44710
# Velocity P-wave (km/s) = 5.34688 7.98695 6.79634
#
# Compressibility (1/GPa) = 0.04034574
#
# Stress axis : x y z
#
# Youngs Moduli (GPa) = 60.73881 11.99161 56.49969
#
# Poissons Ratio (x) = 0.10267 0.29518
# Poissons Ratio (y) = 0.52002 1.40224
# Poissons Ratio (z) = 0.31733 0.29761
#
# Static dielectric constant tensor:
#      x y z
#    x 1.503170 0.000000 0.000000 
#    y 0.000000 1.516340 0.000000 
#    z 0.000000 0.000000 1.490850 
# 
# From -- ./inp_files/19453.got.cif
#   From: 2010.05.17/outbox.cif.g08.bks.cpg/sg44_10_cif.got.tgz:19453.got - 2010.06.03 19:37:08.
