data_PCOD9373765
_publ_section_title
;
Structure prediction by ZEFSAII (Michael W. Deem and Ramdas Pophale) SiO2 
 PCOD9373765
Probable space group: I M M 2
;
_chemical_formula_sum "Si O2"
_cell_formula_units_Z 64
_cell_length_a 7.597817
_cell_length_b 28.098164
_cell_length_c 15.453664
_cell_angle_alpha 90.000000
_cell_angle_beta 90.000000
_cell_angle_gamma 90.000000
_cell_volume 3299.120948
_symmetry_space_group_name_H-M "I M M 2"
_symmetry_group_IT_number 44
_symmetry_cell_setting 'orthorhombic'
loop_
_space_group_symop_operation_xyz
x,y,z
-x,-y,z
-x,y,z
x,-y,z
1/2+x,1/2+y,1/2+z
1/2-x,1/2-y,1/2+z
1/2-x,1/2+y,1/2+z
1/2+x,1/2-y,1/2+z
loop_
_atom_site_type_symbol
_atom_site_label
_atom_site_fract_x
_atom_site_fract_y
_atom_site_fract_z
Si Si1 0.713148 0.776282 0.708210
Si Si2 0.209802 0.669869 0.511137
Si Si3 0.208948 0.361247 0.884492
Si Si4 0.716097 0.862617 0.829513
Si Si5 0.709777 0.553993 0.010404
Si Si6 0.706179 0.166525 0.203404
Si Si7 0.210085 0.446092 0.205663
Si Si8 0.287788 0.780244 0.512486
O O1 0.500000 0.774338 0.709398
O O2 0.769855 0.815050 0.777935
O O3 0.779476 0.722903 0.723403
O O4 0.769199 0.790807 0.611037
O O5 0.276511 0.640844 0.428575
O O6 0.283312 0.659396 0.607115
O O7 0.237479 0.725953 0.493296
O O8 0.000000 0.662381 0.514860
O O9 0.230752 0.409678 0.937280
O O10 0.281803 0.360163 0.787026
O O11 0.000000 0.352535 0.876068
O O12 0.280962 0.318180 0.943488
O O13 0.500000 0.862945 0.829380
O O14 0.776678 0.908370 0.775431
O O15 0.500000 0.552116 0.007208
O O16 0.778819 0.500000 0.999760
O O17 0.760051 0.570521 0.107047
O O18 0.500000 0.154108 0.196444
O O19 0.281143 0.500000 0.213311
O O20 0.000000 0.448698 0.217300
O O21 0.500000 0.782786 0.512307
#
# Coordination Sequence:
#
# PCOD9373765 Si02
#       8
#     8   8   8   8   8   8   8   8
#     4   9  16  26  41  61  87 119 152 186 225 269
#     4   9  17  29  44  63  92 126 156 190 228 262
#     4  10  19  31  48  67  90 123 157 187 222 267
#     4   9  16  27  45  67  90 119 154 187 222 267
#     4  10  21  35  50  71  96 116 139 180 230 274
#     4   9  18  30  43  63  91 121 154 191 225 256
#     4   9  17  31  51  71  91 118 150 182 222 275
#     4   9  17  28  42  63  91 120 154 193 226 263
#
# _framework density 19.399106
#
# number of rings (size 3 to 8) (size 9 to 14) (size 15 to 20)
#    0.000    2.750    0.000    1.875    0.000    3.750 
#    0.000    3.750    0.000    0.750    0.000    3.500 
#    0.000    2.000    0.000    0.000    0.000    0.000 
#
# Total GULP energy -178517.621886 kJ/mol
# GULP energy per Si atom -5578.675684 kJ/mol
# Density = 1.935495 g / cm^3
# Si number density = 19.399106 Si / 1000 Ang^3
#
#
#
# Elastic Constant Matrix: (Units=GPa)
#
#
# Indices 1 2 3 4 5 6 
#
# 1 38.6206 -7.4815 4.3068 0.0000 0.0000 0.0000
# 2 -7.4815 70.3510 96.1133 0.0001 0.0000 0.0000
# 3 4.3068 96.1133 188.8286 0.0002 0.0000 0.0000
# 4 0.0000 0.0001 0.0002 33.5089 0.0000 0.0000
# 5 0.0000 0.0000 0.0000 0.0000 0.4966 0.0000
# 6 0.0000 0.0000 0.0000 0.0000 0.0000 14.9430
#
#
#
# Elastic Compliance Matrix: (Units=1/GPa)
#
#
# Indices 1 2 3 4 5 6 
#
# 1 0.029278 0.013216 -0.007395 0.000000 0.000000 0.000000
# 2 0.013216 0.052630 -0.027090 0.000000 0.000001 0.000000
# 3 -0.007395 -0.027090 0.019253 0.000000 -0.000001 0.000000
# 4 0.000000 0.000000 0.000000 0.029843 -0.000001 0.000000
# 5 0.000000 0.000001 -0.000001 -0.000001 2.013516 -0.000002
# 6 0.000000 0.000000 0.000000 0.000000 -0.000002 0.066921
#
#
# Mechanical properties :
#
#
# Convention : Reuss Voigt Hill
#
# Bulk Modulus (GPa) = 17.05781 53.74194 35.39987
# Shear Modulus (GPa) = 2.19923 23.44715 12.82319
#
# Velocity S-wave (km/s) = 1.06590 3.48037 2.57382
# Velocity P-wave (km/s) = 3.21357 6.62677 5.20774
#
# Compressibility (1/GPa) = 0.05862419
#
# Stress axis : x y z
#
# Youngs Moduli (GPa) = 34.15554 19.00043 51.93915
#
# Poissons Ratio (x) = -0.25112 0.38408
# Poissons Ratio (y) = -0.45141 1.40704
# Poissons Ratio (z) = 0.25258 0.51472
#
# Static dielectric constant tensor:
#      x y z
#    x 1.721250 0.000000 0.000000 
#    y 0.000000 1.646420 0.000000 
#    z 0.000000 0.000000 1.718040 
# 
# From -- ./inp_files/17132.got.cif
#   From: 2010.05.17/outbox.cif.g08.bks.cpg/sg44_9_cif.got.tgz:17132.got - 2010.06.03 19:37:08.
