data_PCOD9373221
_publ_section_title
;
Structure prediction by ZEFSAII (Michael W. Deem and Ramdas Pophale) SiO2 
 PCOD9373221
Probable space group: I M M 2
;
_chemical_formula_sum "Si O2"
_cell_formula_units_Z 64
_cell_length_a 8.982615
_cell_length_b 30.928680
_cell_length_c 14.895359
_cell_angle_alpha 90.000000
_cell_angle_beta 90.000000
_cell_angle_gamma 90.000000
_cell_volume 4138.234966
_symmetry_space_group_name_H-M "I M M 2"
_symmetry_group_IT_number 44
_symmetry_cell_setting 'orthorhombic'
loop_
_space_group_symop_operation_xyz
x,y,z
-x,-y,z
-x,y,z
x,-y,z
1/2+x,1/2+y,1/2+z
1/2-x,1/2-y,1/2+z
1/2-x,1/2+y,1/2+z
1/2+x,1/2-y,1/2+z
loop_
_atom_site_type_symbol
_atom_site_label
_atom_site_fract_x
_atom_site_fract_y
_atom_site_fract_z
Si Si1 0.322227 0.549552 0.186680
Si Si2 0.323955 0.868932 0.614386
Si Si3 0.823640 0.550132 0.381936
Si Si4 0.318397 0.790440 0.489003
Si Si5 0.325779 0.223329 0.286487
Si Si6 0.320136 0.295450 0.599588
Si Si7 0.669325 0.673259 0.278595
Si Si8 0.175409 0.127998 0.970867
O O1 0.500000 0.552854 0.190804
O O2 0.282004 0.500000 0.163646
O O3 0.256997 0.585055 0.119435
O O4 0.257322 0.558174 0.286467
O O5 0.500000 0.875343 0.605842
O O6 0.273731 0.834291 0.539722
O O7 0.284891 0.846106 0.708781
O O8 0.795383 0.500000 0.405977
O O9 0.763086 0.583781 0.454747
O O10 0.000000 0.555838 0.369118
O O11 0.500000 0.788913 0.488426
O O12 0.269891 0.789607 0.385462
O O13 0.270340 0.747644 0.544545
O O14 0.500000 0.211049 0.279414
O O15 0.238789 0.205943 0.200616
O O16 0.318230 0.275331 0.282521
O O17 0.500000 0.294631 0.599128
O O18 0.273149 0.338996 0.547802
O O19 0.500000 0.662082 0.248969
O O20 0.689173 0.654237 0.377473
O O21 0.000000 0.118712 0.984070
#
# Coordination Sequence:
#
# PCOD9373221 Si02
#       8
#     8   8   8   8   8   8   8   8
#     4  10  20  33  48  67  96 130 159 192 239 293
#     4  11  20  30  48  71  95 128 164 201 238 280
#     4  10  20  32  47  70  99 126 157 200 241 282
#     4   9  18  32  48  67  96 130 160 193 241 285
#     4  10  19  33  49  67  95 132 168 202 236 279
#     4  10  19  33  49  69  97 129 164 201 239 282
#     4  10  18  28  45  68  95 129 165 196 231 280
#     4  10  19  31  49  69  95 134 166 194 238 287
#
# _framework density 15.465531
#
# number of rings (size 3 to 8) (size 9 to 14) (size 15 to 20)
#    0.000    2.000    3.750    1.125    0.000    2.000 
#    0.000    1.875    0.000    0.000    0.000    0.875 
#    0.000    1.000    0.000    0.000    0.000    0.000 
#
# Total GULP energy -178453.701705 kJ/mol
# GULP energy per Si atom -5576.678178 kJ/mol
# Density = 1.543033 g / cm^3
# Si number density = 15.465531 Si / 1000 Ang^3
#
#
#
# Elastic Constant Matrix: (Units=GPa)
#
#
# Indices 1 2 3 4 5 6 
#
# 1 31.3039 36.4493 24.7290 0.0000 0.0000 0.0000
# 2 36.4493 110.6774 53.7520 -0.0001 0.0000 0.0000
# 3 24.7290 53.7520 88.6653 -0.0002 0.0000 0.0000
# 4 0.0000 -0.0001 -0.0002 24.2159 0.0000 0.0000
# 5 0.0000 0.0000 0.0000 0.0000 22.5341 0.0000
# 6 0.0000 0.0000 0.0000 0.0000 0.0000 26.2197
#
#
#
# Elastic Compliance Matrix: (Units=1/GPa)
#
#
# Indices 1 2 3 4 5 6 
#
# 1 0.054022 -0.014844 -0.006068 0.000000 0.000000 0.000000
# 2 -0.014844 0.016884 -0.006096 0.000000 0.000000 0.000000
# 3 -0.006068 -0.006096 0.016666 0.000000 0.000000 0.000000
# 4 0.000000 0.000000 0.000000 0.041295 0.000000 0.000000
# 5 0.000000 0.000000 0.000000 0.000000 0.044377 0.000000
# 6 0.000000 0.000000 0.000000 0.000000 0.000000 0.038139
#
#
# Mechanical properties :
#
#
# Convention : Reuss Voigt Hill
#
# Bulk Modulus (GPa) = 29.79989 51.16748 40.48369
# Shear Modulus (GPa) = 18.07753 22.30837 20.19295
#
# Velocity S-wave (km/s) = 3.42262 3.80209 3.61733
# Velocity P-wave (km/s) = 5.91012 7.24094 6.60911
#
# Compressibility (1/GPa) = 0.03355717
#
# Stress axis : x y z
#
# Youngs Moduli (GPa) = 18.51082 59.22624 60.00148
#
# Poissons Ratio (x) = 0.87916 0.36409
# Poissons Ratio (y) = 0.27478 0.36576
# Poissons Ratio (z) = 0.11232 0.36103
#
# Static dielectric constant tensor:
#      x y z
#    x 1.528560 0.000000 0.000000 
#    y 0.000000 1.530860 0.000000 
#    z 0.000000 0.000000 1.493920 
# 
# From -- ./inp_files/17101.got.cif
#   From: 2010.05.17/outbox.cif.g08.bks.cpg/sg44_9_cif.got.tgz:17101.got - 2010.06.03 19:37:08.
