data_PCOD9373605
_publ_section_title
;
Structure prediction by ZEFSAII (Michael W. Deem and Ramdas Pophale) SiO2 
 PCOD9373605
Probable space group: I M M 2
;
_chemical_formula_sum "Si O2"
_cell_formula_units_Z 56
_cell_length_a 8.699826
_cell_length_b 14.145598
_cell_length_c 30.257632
_cell_angle_alpha 90.000000
_cell_angle_beta 90.000000
_cell_angle_gamma 90.000000
_cell_volume 3723.632525
_symmetry_space_group_name_H-M "I M M 2"
_symmetry_group_IT_number 44
_symmetry_cell_setting 'orthorhombic'
loop_
_space_group_symop_operation_xyz
x,y,z
-x,-y,z
-x,y,z
x,-y,z
1/2+x,1/2+y,1/2+z
1/2-x,1/2-y,1/2+z
1/2-x,1/2+y,1/2+z
1/2+x,1/2-y,1/2+z
loop_
_atom_site_type_symbol
_atom_site_label
_atom_site_fract_x
_atom_site_fract_y
_atom_site_fract_z
Si Si1 0.187707 0.890361 0.474640
Si Si2 0.185656 0.606481 0.335879
Si Si3 0.685520 0.893532 0.299223
Si Si4 0.817048 0.610018 0.164541
Si Si5 0.177652 0.885257 0.571637
Si Si6 0.683985 0.294126 0.250102
Si Si7 0.185819 0.793692 0.384877
O O1 0.237643 0.855770 0.523275
O O2 0.237283 0.828111 0.433048
O O3 0.000000 0.890208 0.475928
O O4 0.234278 0.000000 0.468214
O O5 0.234251 0.500000 0.346977
O O6 0.250554 0.637914 0.288436
O O7 0.232353 0.687668 0.370652
O O8 0.000000 0.607913 0.333241
O O9 0.500000 0.892094 0.301818
O O10 0.731648 0.812027 0.264540
O O11 0.751278 0.862036 0.346603
O O12 0.734554 0.000000 0.288077
O O13 0.766009 0.500000 0.169783
O O14 0.768968 0.641903 0.115412
O O15 0.744271 0.672503 0.202949
O O16 0.000000 0.611869 0.168641
O O17 0.000000 0.855605 0.576504
O O18 0.178790 0.000000 0.569750
O O19 0.500000 0.298953 0.250677
O O20 0.000000 0.798115 0.384059
#
# Coordination Sequence:
#
# PCOD9373605 Si02
#       7
#     8   8   8   8   8   8   8
#     4   8  13  22  38  60  82 102 129 167 203 234
#     4   9  17  28  40  57  84 113 138 168 203 233
#     4   9  18  31  43  58  83 109 132 164 203 238
#     4  10  19  29  41  59  84 109 132 164 204 240
#     4   8  14  25  40  57  78 104 133 164 199 241
#     4  10  19  29  43  61  79 105 139 167 196 239
#     4   9  16  26  42  62  82 108 141 169 195 233
#
# _framework density 15.039078
#
# number of rings (size 3 to 8) (size 9 to 14) (size 15 to 20)
#    0.000    3.000    0.000    2.571    0.000    4.286 
#    0.000    0.714    0.000    2.571    0.000    1.000 
#    0.000    5.714    0.000    0.000    0.000    0.000 
#
# Total GULP energy -155918.663320 kJ/mol
# GULP energy per Si atom -5568.523690 kJ/mol
# Density = 1.500485 g / cm^3
# Si number density = 15.039078 Si / 1000 Ang^3
#
#
#
# Elastic Constant Matrix: (Units=GPa)
#
#
# Indices 1 2 3 4 5 6 
#
# 1 7.5613 16.9513 19.4290 0.0000 0.0000 0.0000
# 2 16.9513 93.3091 63.3076 0.0000 0.0000 0.0000
# 3 19.4290 63.3076 142.2912 0.0000 0.0000 0.0000
# 4 0.0000 0.0000 0.0000 21.3205 0.0000 0.0000
# 5 0.0000 0.0000 0.0000 0.0000 20.3228 0.0000
# 6 0.0000 0.0000 0.0000 0.0000 0.0000 14.1231
#
#
#
# Elastic Compliance Matrix: (Units=1/GPa)
#
#
# Indices 1 2 3 4 5 6 
#
# 1 0.259802 -0.033130 -0.020734 0.000000 0.000000 0.000000
# 2 -0.033130 0.019576 -0.004186 0.000000 0.000000 0.000000
# 3 -0.020734 -0.004186 0.011721 0.000000 0.000000 0.000000
# 4 0.000000 0.000000 0.000000 0.046903 0.000000 0.000000
# 5 0.000000 0.000000 0.000000 0.000000 0.049206 0.000000
# 6 0.000000 0.000000 0.000000 0.000000 0.000000 0.070806
#
#
# Mechanical properties :
#
#
# Convention : Reuss Voigt Hill
#
# Bulk Modulus (GPa) = 5.71434 49.17082 27.44258
# Shear Modulus (GPa) = 7.90581 20.71820 14.31200
#
# Velocity S-wave (km/s) = 2.29527 3.71566 3.08824
# Velocity P-wave (km/s) = 3.29124 7.15364 5.56807
#
# Compressibility (1/GPa) = 0.17499844
#
# Stress axis : x y z
#
# Youngs Moduli (GPa) = 3.84909 51.08377 85.31463
#
# Poissons Ratio (x) = 1.69240 1.76893
# Poissons Ratio (y) = 0.12752 0.35711
# Poissons Ratio (z) = 0.07981 0.21383
#
# Static dielectric constant tensor:
#      x y z
#    x 1.511080 0.000000 0.000000 
#    y 0.000000 1.501050 0.000000 
#    z 0.000000 0.000000 1.496770 
# 
# From -- ./inp_files/27210.got.cif
#   From: 2010.05.17/outbox.cif.g08.bks.cpg/sg44_14_cif.got.tgz:27210.got - 2010.06.03 19:37:08.
