data_PCOD9373057
_publ_section_title
;
Structure prediction by ZEFSAII (Michael W. Deem and Ramdas Pophale) SiO2 
 PCOD9373057
Probable space group: I M M 2
;
_chemical_formula_sum "Si O2"
_cell_formula_units_Z 64
_cell_length_a 31.714949
_cell_length_b 7.484698
_cell_length_c 14.943013
_cell_angle_alpha 90.000000
_cell_angle_beta 90.000000
_cell_angle_gamma 90.000000
_cell_volume 3547.124838
_symmetry_space_group_name_H-M "I M M 2"
_symmetry_group_IT_number 44
_symmetry_cell_setting 'orthorhombic'
loop_
_space_group_symop_operation_xyz
x,y,z
-x,-y,z
-x,y,z
x,-y,z
1/2+x,1/2+y,1/2+z
1/2-x,1/2-y,1/2+z
1/2-x,1/2+y,1/2+z
1/2+x,1/2-y,1/2+z
loop_
_atom_site_type_symbol
_atom_site_label
_atom_site_fract_x
_atom_site_fract_y
_atom_site_fract_z
Si Si1 0.951722 0.218428 0.594400
Si Si2 0.269400 0.713001 0.491033
Si Si3 0.547262 0.713737 0.890517
Si Si4 0.371684 0.703587 0.188111
Si Si5 0.365598 0.213000 0.817943
Si Si6 0.791128 0.780375 0.792456
Si Si7 0.793464 0.286309 0.187556
Si Si8 0.173221 0.717806 0.505699
O O1 0.942207 0.277814 0.491938
O O2 0.917457 0.283843 0.665984
O O3 0.000000 0.267542 0.613581
O O4 0.949515 0.000000 0.594293
O O5 0.266762 0.500000 0.481562
O O6 0.286106 0.777313 0.395352
O O7 0.294212 0.749670 0.582092
O O8 0.221678 0.776247 0.505942
O O9 0.500000 0.778137 0.867934
O O10 0.545105 0.500000 0.896751
O O11 0.584527 0.753745 0.821492
O O12 0.378501 0.500000 0.219327
O O13 0.335429 0.782996 0.251113
O O14 0.350331 0.704103 0.090407
O O15 0.334834 0.281490 0.740001
O O16 0.360709 0.000000 0.817936
O O17 0.347528 0.276796 0.913013
O O18 0.750215 0.722123 0.734303
O O19 0.791472 0.000000 0.788691
O O20 0.792365 0.500000 0.197785
O O21 0.171365 0.500000 0.511385
#
# Coordination Sequence:
#
# PCOD9373057 Si02
#       8
#     8   8   8   8   8   8   8   8
#     4   8  14  24  39  63  91 113 140 182 222 255
#     4  10  19  32  45  61  89 121 150 186 228 265
#     4   9  17  29  45  66  93 120 148 188 228 262
#     4  10  17  27  46  65  83 119 156 178 212 268
#     4  10  19  30  45  65  92 125 152 181 226 273
#     4   9  17  29  45  64  87 115 150 187 224 263
#     4  10  19  32  47  65  89 118 153 191 223 260
#     4  10  18  27  41  62  90 119 145 181 225 260
#
# _framework density 18.042781999999999
#
# number of rings (size 3 to 8) (size 9 to 14) (size 15 to 20)
#    0.000    2.500    3.750    0.750    0.000    0.750 
#    0.000    1.250    0.000    0.375    0.000    0.875 
#    0.000    3.000    0.000    0.000    0.000    0.000 
#
# Total GULP energy -178400.822690 kJ/mol
# GULP energy per Si atom -5575.025709 kJ/mol
# Density = 1.800172 g / cm^3
# Si number density = 18.042782 Si / 1000 Ang^3
#
#
#
# Elastic Constant Matrix: (Units=GPa)
#
#
# Indices 1 2 3 4 5 6 
#
# 1 132.2875 -3.1136 53.3732 0.0000 0.0000 0.0000
# 2 -3.1136 48.7461 -3.7785 0.0000 0.0000 0.0000
# 3 53.3732 -3.7785 94.8401 0.0000 0.0000 0.0000
# 4 0.0000 0.0000 0.0000 10.8489 0.0000 0.0000
# 5 0.0000 0.0000 0.0000 0.0000 25.7590 0.0000
# 6 0.0000 0.0000 0.0000 0.0000 0.0000 10.7693
#
#
#
# Elastic Compliance Matrix: (Units=1/GPa)
#
#
# Indices 1 2 3 4 5 6 
#
# 1 0.009782 0.000199 -0.005497 0.000000 0.000000 0.000000
# 2 0.000199 0.020582 0.000708 0.000000 0.000000 0.000000
# 3 -0.005497 0.000708 0.013666 0.000000 0.000000 0.000000
# 4 0.000000 0.000000 0.000000 0.092176 0.000000 0.000000
# 5 0.000000 0.000000 0.000000 0.000000 0.038821 0.000000
# 6 0.000000 0.000000 0.000000 0.000000 0.000000 0.092856
#
#
# Mechanical properties :
#
#
# Convention : Reuss Voigt Hill
#
# Bulk Modulus (GPa) = 28.69482 40.98175 34.83828
# Shear Modulus (GPa) = 17.32023 24.76827 21.04425
#
# Velocity S-wave (km/s) = 3.10167 3.70909 3.41890
# Velocity P-wave (km/s) = 5.36334 6.41140 5.91065
#
# Compressibility (1/GPa) = 0.03484950
#
# Stress axis : x y z
#
# Youngs Moduli (GPa) = 102.23054 48.58599 73.17525
#
# Poissons Ratio (x) = -0.00965 0.40224
# Poissons Ratio (y) = -0.02031 -0.05182
# Poissons Ratio (z) = 0.56196 -0.03441
#
# Static dielectric constant tensor:
#      x y z
#    x 1.667610 0.000000 0.000000 
#    y 0.000000 1.718570 0.000000 
#    z 0.000000 0.000000 1.603630 
# 
# From -- ./inp_files/17084.got.cif
#   From: 2010.05.17/outbox.cif.g08.bks.cpg/sg44_9_cif.got.tgz:17084.got - 2010.06.03 19:37:08.
